1JSV_U55_A_400


 23 24  0  0  0  0  0  0  0  0999 V2000
    9.7396   10.5943   25.8730 C   0  0  0  0  0  0  0  0  0  0  0  0
    9.6807    9.4511   26.7097 C   0  0  0  0  0  0  0  0  0  0  0  0
   10.7987    8.6112   26.8662 C   0  0  0  0  0  0  0  0  0  0  0  0
   10.9124   10.8142   25.1192 C   0  0  0  0  0  0  0  0  0  0  0  0
   12.0332    9.9936   25.2881 C   0  0  0  0  0  0  0  0  0  0  0  0
   11.9921    8.8910   26.1509 C   0  0  0  0  0  0  0  0  0  0  0  0
   13.2330    7.6943   26.0888 S   0  0  0  0  0  0  0  0  0  0  0  0
   14.4762    8.2909   26.4595 O   0  0  0  0  0  0  0  0  0  0  0  0
   13.3212    7.2690   24.6563 O   0  0  0  0  0  0  0  0  0  0  0  0
   12.9426    6.3893   26.9604 N   0  0  0  0  0  0  0  0  0  0  0  0
   12.8766    6.6460   27.9453 H   0  0  0  0  0  0  0  0  0  0  0  0
   13.7018    5.7200   26.8337 H   0  0  0  0  0  0  0  0  0  0  0  0
    8.6959   11.4255   25.7858 N   0  0  0  0  0  0  0  0  0  0  0  0
    8.1384   11.2953   24.9848 H   0  0  0  0  0  0  0  0  0  0  0  0
    8.7002   15.9873   27.4474 N   0  0  0  0  0  0  0  0  0  0  0  0
    8.3025   14.6691   27.4889 C   0  0  0  0  0  0  0  0  0  0  0  0
    7.4785   14.2824   28.5007 N   0  0  0  0  0  0  0  0  0  0  0  0
    7.0060   12.9738   28.4769 C   0  0  0  0  0  0  0  0  0  0  0  0
    7.4229   12.0326   27.6167 N   0  0  0  0  0  0  0  0  0  0  0  0
    8.6911   13.7318   26.4896 C   0  0  0  0  0  0  0  0  0  0  0  0
    8.2808   12.3944   26.5898 C   0  0  0  0  0  0  0  0  0  0  0  0
    8.4142   16.6102   28.1541 H   0  0  0  0  0  0  0  0  0  0  0  0
    9.2703   16.3066   26.7110 H   0  0  0  0  0  0  0  0  0  0  0  0
 15 16  1  0  0  0
 16 17  2  0  0  0
 16 20  1  0  0  0
 17 18  1  0  0  0
 18 19  2  0  0  0
 19 21  1  0  0  0
 20 21  2  0  0  0
 21 13  1  0  0  0
 13  1  1  0  0  0
  1  2  2  0  0  0
  1  4  1  0  0  0
  2  3  1  0  0  0
  3  6  2  0  0  0
  4  5  2  0  0  0
  5  6  1  0  0  0
  6  7  1  0  0  0
  7  8  2  0  0  0
  7  9  2  0  0  0
  7 10  1  0  0  0
 15 22  1  0  0  0
 15 23  1  0  0  0
 13 14  1  0  0  0
 10 11  1  0  0  0
 10 12  1  0  0  0
M  END
> <minimizedAffinity>
-7.37926

$$$$
1JSV_U55_A_400


 23 24  0  0  0  0  0  0  0  0999 V2000
    9.8221   10.4816   25.9041 C   0  0  0  0  0  0  0  0  0  0  0  0
   11.0118   10.6347   25.1479 C   0  0  0  0  0  0  0  0  0  0  0  0
   12.0427    9.6798   25.2208 C   0  0  0  0  0  0  0  0  0  0  0  0
    9.7375    9.4032   26.8107 C   0  0  0  0  0  0  0  0  0  0  0  0
   10.7512    8.4404   26.8703 C   0  0  0  0  0  0  0  0  0  0  0  0
   11.9065    8.5650   26.0885 C   0  0  0  0  0  0  0  0  0  0  0  0
   13.2879    7.5864   26.4198 S   0  0  0  0  0  0  0  0  0  0  0  0
   14.4037    8.4325   26.6991 O   0  0  0  0  0  0  0  0  0  0  0  0
   13.5697    6.8338   25.1568 O   0  0  0  0  0  0  0  0  0  0  0  0
   13.0792    6.5130   27.5822 N   0  0  0  0  0  0  0  0  0  0  0  0
   12.8846    6.9954   28.4596 H   0  0  0  0  0  0  0  0  0  0  0  0
   13.9252    5.9521   27.6830 H   0  0  0  0  0  0  0  0  0  0  0  0
    8.8190   11.3563   25.7749 N   0  0  0  0  0  0  0  0  0  0  0  0
    8.3013   11.2611   24.9429 H   0  0  0  0  0  0  0  0  0  0  0  0
    8.9022   15.8947   27.4972 N   0  0  0  0  0  0  0  0  0  0  0  0
    8.4578   14.5909   27.5020 C   0  0  0  0  0  0  0  0  0  0  0  0
    7.5740   14.2212   28.4687 N   0  0  0  0  0  0  0  0  0  0  0  0
    7.0583   12.9304   28.4049 C   0  0  0  0  0  0  0  0  0  0  0  0
    7.4826   11.9855   27.5524 N   0  0  0  0  0  0  0  0  0  0  0  0
    8.8605   13.6526   26.5093 C   0  0  0  0  0  0  0  0  0  0  0  0
    8.4001   12.3293   26.5718 C   0  0  0  0  0  0  0  0  0  0  0  0
    8.6048   16.5187   28.1982 H   0  0  0  0  0  0  0  0  0  0  0  0
    9.5172   16.2026   26.7928 H   0  0  0  0  0  0  0  0  0  0  0  0
 15 16  1  0  0  0
 16 17  2  0  0  0
 16 20  1  0  0  0
 17 18  1  0  0  0
 18 19  2  0  0  0
 19 21  1  0  0  0
 20 21  2  0  0  0
 21 13  1  0  0  0
 13  1  1  0  0  0
  1  2  2  0  0  0
  1  4  1  0  0  0
  2  3  1  0  0  0
  3  6  2  0  0  0
  4  5  2  0  0  0
  5  6  1  0  0  0
  6  7  1  0  0  0
  7  8  2  0  0  0
  7  9  2  0  0  0
  7 10  1  0  0  0
 15 22  1  0  0  0
 15 23  1  0  0  0
 13 14  1  0  0  0
 10 11  1  0  0  0
 10 12  1  0  0  0
M  END
> <minimizedAffinity>
-7.33844

$$$$
1JSV_U55_A_400


 23 24  0  0  0  0  0  0  0  0999 V2000
    9.1120   11.4262   25.9394 C   0  0  0  0  0  0  0  0  0  0  0  0
    9.1474   12.8322   26.1198 C   0  0  0  0  0  0  0  0  0  0  0  0
    8.3882   13.4508   27.1302 C   0  0  0  0  0  0  0  0  0  0  0  0
    8.2186   10.6709   26.7288 C   0  0  0  0  0  0  0  0  0  0  0  0
    7.4781   11.2795   27.7483 C   0  0  0  0  0  0  0  0  0  0  0  0
    7.5482   12.6624   27.9589 C   0  0  0  0  0  0  0  0  0  0  0  0
    6.3856   13.4469   28.9633 S   0  0  0  0  0  0  0  0  0  0  0  0
    6.9907   14.5860   29.5762 O   0  0  0  0  0  0  0  0  0  0  0  0
    6.0386   12.4616   30.0355 O   0  0  0  0  0  0  0  0  0  0  0  0
    5.0301   13.8486   28.2228 N   0  0  0  0  0  0  0  0  0  0  0  0
    5.2330   14.5216   27.4837 H   0  0  0  0  0  0  0  0  0  0  0  0
    4.3863   14.2658   28.8950 H   0  0  0  0  0  0  0  0  0  0  0  0
    9.8905   10.8401   25.0238 N   0  0  0  0  0  0  0  0  0  0  0  0
    9.4938   10.7916   24.1241 H   0  0  0  0  0  0  0  0  0  0  0  0
   13.1534    7.7570   26.8729 N   0  0  0  0  0  0  0  0  0  0  0  0
   12.7845    8.8135   26.0696 C   0  0  0  0  0  0  0  0  0  0  0  0
   13.7596    9.4520   25.3668 N   0  0  0  0  0  0  0  0  0  0  0  0
   13.3625   10.4529   24.4856 C   0  0  0  0  0  0  0  0  0  0  0  0
   12.1122   10.9301   24.3935 N   0  0  0  0  0  0  0  0  0  0  0  0
   11.4255    9.2145   25.9269 C   0  0  0  0  0  0  0  0  0  0  0  0
   11.1033   10.3129   25.1164 C   0  0  0  0  0  0  0  0  0  0  0  0
   14.1019    7.5050   26.9500 H   0  0  0  0  0  0  0  0  0  0  0  0
   12.4684    7.2539   27.3698 H   0  0  0  0  0  0  0  0  0  0  0  0
 15 16  1  0  0  0
 16 17  2  0  0  0
 16 20  1  0  0  0
 17 18  1  0  0  0
 18 19  2  0  0  0
 19 21  1  0  0  0
 20 21  2  0  0  0
 21 13  1  0  0  0
 13  1  1  0  0  0
  1  2  2  0  0  0
  1  4  1  0  0  0
  2  3  1  0  0  0
  3  6  2  0  0  0
  4  5  2  0  0  0
  5  6  1  0  0  0
  6  7  1  0  0  0
  7  8  2  0  0  0
  7  9  2  0  0  0
  7 10  1  0  0  0
 15 22  1  0  0  0
 15 23  1  0  0  0
 13 14  1  0  0  0
 10 11  1  0  0  0
 10 12  1  0  0  0
M  END
> <minimizedAffinity>
-7.21161

$$$$
1JSV_U55_A_400


 23 24  0  0  0  0  0  0  0  0999 V2000
    9.2571   11.0371   26.2068 C   0  0  0  0  0  0  0  0  0  0  0  0
   10.1658   11.5916   25.2701 C   0  0  0  0  0  0  0  0  0  0  0  0
   11.3253   10.8926   24.8867 C   0  0  0  0  0  0  0  0  0  0  0  0
    9.5937    9.8137   26.8246 C   0  0  0  0  0  0  0  0  0  0  0  0
   10.7346    9.1058   26.4306 C   0  0  0  0  0  0  0  0  0  0  0  0
   11.6088    9.6304   25.4702 C   0  0  0  0  0  0  0  0  0  0  0  0
   13.1728    8.9367   25.2498 S   0  0  0  0  0  0  0  0  0  0  0  0
   13.8344    9.6077   24.1769 O   0  0  0  0  0  0  0  0  0  0  0  0
   12.9374    7.5149   24.8447 O   0  0  0  0  0  0  0  0  0  0  0  0
   14.0830    8.9184   26.5606 N   0  0  0  0  0  0  0  0  0  0  0  0
   14.2623    9.8758   26.8633 H   0  0  0  0  0  0  0  0  0  0  0  0
   14.9681    8.4559   26.3534 H   0  0  0  0  0  0  0  0  0  0  0  0
    8.1229   11.6764   26.5115 N   0  0  0  0  0  0  0  0  0  0  0  0
    7.3075   11.2415   26.1721 H   0  0  0  0  0  0  0  0  0  0  0  0
    8.4372   16.4729   27.1937 N   0  0  0  0  0  0  0  0  0  0  0  0
    8.0990   15.1986   27.5928 C   0  0  0  0  0  0  0  0  0  0  0  0
    7.5759   15.0377   28.8390 N   0  0  0  0  0  0  0  0  0  0  0  0
    7.1482   13.7620   29.1938 C   0  0  0  0  0  0  0  0  0  0  0  0
    7.3525   12.6608   28.4554 N   0  0  0  0  0  0  0  0  0  0  0  0
    8.2398   14.0750   26.7293 C   0  0  0  0  0  0  0  0  0  0  0  0
    7.9050   12.7936   27.1911 C   0  0  0  0  0  0  0  0  0  0  0  0
    8.3279   17.2287   27.8150 H   0  0  0  0  0  0  0  0  0  0  0  0
    8.7883   16.6279   26.2871 H   0  0  0  0  0  0  0  0  0  0  0  0
 15 16  1  0  0  0
 16 17  2  0  0  0
 16 20  1  0  0  0
 17 18  1  0  0  0
 18 19  2  0  0  0
 19 21  1  0  0  0
 20 21  2  0  0  0
 21 13  1  0  0  0
 13  1  1  0  0  0
  1  2  2  0  0  0
  1  4  1  0  0  0
  2  3  1  0  0  0
  3  6  2  0  0  0
  4  5  2  0  0  0
  5  6  1  0  0  0
  6  7  1  0  0  0
  7  8  2  0  0  0
  7  9  2  0  0  0
  7 10  1  0  0  0
 15 22  1  0  0  0
 15 23  1  0  0  0
 13 14  1  0  0  0
 10 11  1  0  0  0
 10 12  1  0  0  0
M  END
> <minimizedAffinity>
-6.93213

$$$$
1JSV_U55_A_400


 23 24  0  0  0  0  0  0  0  0999 V2000
    9.0381   11.4376   26.0059 C   0  0  0  0  0  0  0  0  0  0  0  0
    8.1923   10.6712   26.8472 C   0  0  0  0  0  0  0  0  0  0  0  0
    7.3524   11.2941   27.7887 C   0  0  0  0  0  0  0  0  0  0  0  0
    9.0956   12.8337   26.2047 C   0  0  0  0  0  0  0  0  0  0  0  0
    8.2466   13.4585   27.1250 C   0  0  0  0  0  0  0  0  0  0  0  0
    7.3758   12.7066   27.9237 C   0  0  0  0  0  0  0  0  0  0  0  0
    6.6017   13.4322   29.2839 S   0  0  0  0  0  0  0  0  0  0  0  0
    7.5707   14.1595   30.0397 O   0  0  0  0  0  0  0  0  0  0  0  0
    6.1009   12.2986   30.1236 O   0  0  0  0  0  0  0  0  0  0  0  0
    5.3491   14.3530   28.9234 N   0  0  0  0  0  0  0  0  0  0  0  0
    5.6580   15.1377   28.3495 H   0  0  0  0  0  0  0  0  0  0  0  0
    4.9277   14.7055   29.7828 H   0  0  0  0  0  0  0  0  0  0  0  0
    9.7799   10.8421   25.0661 N   0  0  0  0  0  0  0  0  0  0  0  0
    9.3329   10.7491   24.1939 H   0  0  0  0  0  0  0  0  0  0  0  0
   13.2231    7.8730   26.7689 N   0  0  0  0  0  0  0  0  0  0  0  0
   12.7836    8.9146   25.9819 C   0  0  0  0  0  0  0  0  0  0  0  0
   13.7042    9.5827   25.2346 N   0  0  0  0  0  0  0  0  0  0  0  0
   13.2348   10.5676   24.3711 C   0  0  0  0  0  0  0  0  0  0  0  0
   11.9665   11.0033   24.3353 N   0  0  0  0  0  0  0  0  0  0  0  0
   11.4070    9.2703   25.9006 C   0  0  0  0  0  0  0  0  0  0  0  0
   11.0124   10.3553   25.1042 C   0  0  0  0  0  0  0  0  0  0  0  0
   14.1820    7.6524   26.8032 H   0  0  0  0  0  0  0  0  0  0  0  0
   12.5783    7.3490   27.2971 H   0  0  0  0  0  0  0  0  0  0  0  0
 15 16  1  0  0  0
 16 17  2  0  0  0
 16 20  1  0  0  0
 17 18  1  0  0  0
 18 19  2  0  0  0
 19 21  1  0  0  0
 20 21  2  0  0  0
 21 13  1  0  0  0
 13  1  1  0  0  0
  1  2  2  0  0  0
  1  4  1  0  0  0
  2  3  1  0  0  0
  3  6  2  0  0  0
  4  5  2  0  0  0
  5  6  1  0  0  0
  6  7  1  0  0  0
  7  8  2  0  0  0
  7  9  2  0  0  0
  7 10  1  0  0  0
 15 22  1  0  0  0
 15 23  1  0  0  0
 13 14  1  0  0  0
 10 11  1  0  0  0
 10 12  1  0  0  0
M  END
> <minimizedAffinity>
-6.91365

$$$$
1JSV_U55_A_400


 23 24  0  0  0  0  0  0  0  0999 V2000
    9.6910   11.6480   25.6322 C   0  0  0  0  0  0  0  0  0  0  0  0
    9.4809   10.2892   25.9787 C   0  0  0  0  0  0  0  0  0  0  0  0
    8.4979    9.9262   26.9178 C   0  0  0  0  0  0  0  0  0  0  0  0
    8.9629   12.6377   26.3266 C   0  0  0  0  0  0  0  0  0  0  0  0
    7.9700   12.2797   27.2454 C   0  0  0  0  0  0  0  0  0  0  0  0
    7.7285   10.9350   27.5537 C   0  0  0  0  0  0  0  0  0  0  0  0
    6.7685   10.5183   28.9250 S   0  0  0  0  0  0  0  0  0  0  0  0
    5.7578    9.5927   28.5238 O   0  0  0  0  0  0  0  0  0  0  0  0
    6.1024   11.7865   29.3599 O   0  0  0  0  0  0  0  0  0  0  0  0
    7.5949    9.9583   30.1701 N   0  0  0  0  0  0  0  0  0  0  0  0
    8.0624    9.0912   29.9055 H   0  0  0  0  0  0  0  0  0  0  0  0
    6.9590    9.7783   30.9470 H   0  0  0  0  0  0  0  0  0  0  0  0
   10.5778   11.9777   24.6873 N   0  0  0  0  0  0  0  0  0  0  0  0
   10.3963   12.8365   24.2414 H   0  0  0  0  0  0  0  0  0  0  0  0
   13.4768   10.2604   21.1919 N   0  0  0  0  0  0  0  0  0  0  0  0
   13.1098   10.4207   22.5099 C   0  0  0  0  0  0  0  0  0  0  0  0
   13.8627    9.8046   23.4617 N   0  0  0  0  0  0  0  0  0  0  0  0
   13.5408   10.0531   24.7925 C   0  0  0  0  0  0  0  0  0  0  0  0
   12.4563   10.7313   25.1965 N   0  0  0  0  0  0  0  0  0  0  0  0
   12.0084   11.2384   22.8925 C   0  0  0  0  0  0  0  0  0  0  0  0
   11.6588   11.3497   24.2462 C   0  0  0  0  0  0  0  0  0  0  0  0
   14.2436    9.6878   20.9606 H   0  0  0  0  0  0  0  0  0  0  0  0
   12.9723   10.7183   20.4813 H   0  0  0  0  0  0  0  0  0  0  0  0
 15 16  1  0  0  0
 16 17  2  0  0  0
 16 20  1  0  0  0
 17 18  1  0  0  0
 18 19  2  0  0  0
 19 21  1  0  0  0
 20 21  2  0  0  0
 21 13  1  0  0  0
 13  1  1  0  0  0
  1  2  2  0  0  0
  1  4  1  0  0  0
  2  3  1  0  0  0
  3  6  2  0  0  0
  4  5  2  0  0  0
  5  6  1  0  0  0
  6  7  1  0  0  0
  7  8  2  0  0  0
  7  9  2  0  0  0
  7 10  1  0  0  0
 15 22  1  0  0  0
 15 23  1  0  0  0
 13 14  1  0  0  0
 10 11  1  0  0  0
 10 12  1  0  0  0
M  END
> <minimizedAffinity>
-6.89912

$$$$
1JSV_U55_A_400


 23 24  0  0  0  0  0  0  0  0999 V2000
    9.6051   10.9504   25.9737 C   0  0  0  0  0  0  0  0  0  0  0  0
   10.7559   11.1783   25.1774 C   0  0  0  0  0  0  0  0  0  0  0  0
   11.7734   10.2109   25.0838 C   0  0  0  0  0  0  0  0  0  0  0  0
    9.5503    9.7749   26.7528 C   0  0  0  0  0  0  0  0  0  0  0  0
   10.5497    8.8014   26.6461 C   0  0  0  0  0  0  0  0  0  0  0  0
   11.6646    9.0042   25.8229 C   0  0  0  0  0  0  0  0  0  0  0  0
   13.0451    7.9796   25.9641 S   0  0  0  0  0  0  0  0  0  0  0  0
   14.1820    8.7724   26.3075 O   0  0  0  0  0  0  0  0  0  0  0  0
   13.2668    7.4002   24.6017 O   0  0  0  0  0  0  0  0  0  0  0  0
   12.8687    6.7623   26.9809 N   0  0  0  0  0  0  0  0  0  0  0  0
   12.7153    7.1248   27.9219 H   0  0  0  0  0  0  0  0  0  0  0  0
   13.7106    6.1865   26.9714 H   0  0  0  0  0  0  0  0  0  0  0  0
    8.6111   11.8444   26.0006 N   0  0  0  0  0  0  0  0  0  0  0  0
    7.9894   11.7841   25.2396 H   0  0  0  0  0  0  0  0  0  0  0  0
    6.3226   13.5968   29.9074 N   0  0  0  0  0  0  0  0  0  0  0  0
    7.1333   13.7279   28.8014 C   0  0  0  0  0  0  0  0  0  0  0  0
    7.6128   14.9666   28.5047 N   0  0  0  0  0  0  0  0  0  0  0  0
    8.5078   15.0694   27.4442 C   0  0  0  0  0  0  0  0  0  0  0  0
    8.8108   14.0655   26.6075 N   0  0  0  0  0  0  0  0  0  0  0  0
    7.5096   12.6092   28.0047 C   0  0  0  0  0  0  0  0  0  0  0  0
    8.3169   12.7979   26.8734 C   0  0  0  0  0  0  0  0  0  0  0  0
    6.0808   14.3905   30.4373 H   0  0  0  0  0  0  0  0  0  0  0  0
    5.9849   12.7095   30.1678 H   0  0  0  0  0  0  0  0  0  0  0  0
 15 16  1  0  0  0
 16 17  2  0  0  0
 16 20  1  0  0  0
 17 18  1  0  0  0
 18 19  2  0  0  0
 19 21  1  0  0  0
 20 21  2  0  0  0
 21 13  1  0  0  0
 13  1  1  0  0  0
  1  2  2  0  0  0
  1  4  1  0  0  0
  2  3  1  0  0  0
  3  6  2  0  0  0
  4  5  2  0  0  0
  5  6  1  0  0  0
  6  7  1  0  0  0
  7  8  2  0  0  0
  7  9  2  0  0  0
  7 10  1  0  0  0
 15 22  1  0  0  0
 15 23  1  0  0  0
 13 14  1  0  0  0
 10 11  1  0  0  0
 10 12  1  0  0  0
M  END
> <minimizedAffinity>
-6.88453

$$$$
1JSV_U55_A_400


 23 24  0  0  0  0  0  0  0  0999 V2000
   12.7701    7.6850   28.1445 C   0  0  0  0  0  0  0  0  0  0  0  0
   11.7953    6.8692   28.7728 C   0  0  0  0  0  0  0  0  0  0  0  0
   11.7251    6.7766   30.1751 C   0  0  0  0  0  0  0  0  0  0  0  0
   13.7350    8.3216   28.9540 C   0  0  0  0  0  0  0  0  0  0  0  0
   13.6555    8.2490   30.3492 C   0  0  0  0  0  0  0  0  0  0  0  0
   12.6636    7.4815   30.9728 C   0  0  0  0  0  0  0  0  0  0  0  0
   12.7819    7.1111   32.6534 S   0  0  0  0  0  0  0  0  0  0  0  0
   11.4688    6.9360   33.1866 O   0  0  0  0  0  0  0  0  0  0  0  0
   13.3967    8.3150   33.2964 O   0  0  0  0  0  0  0  0  0  0  0  0
   13.7093    5.8579   32.9946 N   0  0  0  0  0  0  0  0  0  0  0  0
   13.3163    5.0183   32.5692 H   0  0  0  0  0  0  0  0  0  0  0  0
   13.7574    5.7359   34.0061 H   0  0  0  0  0  0  0  0  0  0  0  0
   12.7843    7.8225   26.8145 N   0  0  0  0  0  0  0  0  0  0  0  0
   12.9470    6.9862   26.3211 H   0  0  0  0  0  0  0  0  0  0  0  0
   10.1253   11.3562   24.8110 N   0  0  0  0  0  0  0  0  0  0  0  0
   11.2933   10.6439   24.9726 C   0  0  0  0  0  0  0  0  0  0  0  0
   12.3643   10.9922   24.2085 N   0  0  0  0  0  0  0  0  0  0  0  0
   13.5647   10.3310   24.4495 C   0  0  0  0  0  0  0  0  0  0  0  0
   13.6995    9.2793   25.2712 N   0  0  0  0  0  0  0  0  0  0  0  0
   11.4145    9.6016   25.9354 C   0  0  0  0  0  0  0  0  0  0  0  0
   12.6173    8.8886   26.0444 C   0  0  0  0  0  0  0  0  0  0  0  0
   10.0741   12.0711   24.1361 H   0  0  0  0  0  0  0  0  0  0  0  0
    9.3418   11.1504   25.3705 H   0  0  0  0  0  0  0  0  0  0  0  0
 15 16  1  0  0  0
 16 17  2  0  0  0
 16 20  1  0  0  0
 17 18  1  0  0  0
 18 19  2  0  0  0
 19 21  1  0  0  0
 20 21  2  0  0  0
 21 13  1  0  0  0
 13  1  1  0  0  0
  1  2  2  0  0  0
  1  4  1  0  0  0
  2  3  1  0  0  0
  3  6  2  0  0  0
  4  5  2  0  0  0
  5  6  1  0  0  0
  6  7  1  0  0  0
  7  8  2  0  0  0
  7  9  2  0  0  0
  7 10  1  0  0  0
 15 22  1  0  0  0
 15 23  1  0  0  0
 13 14  1  0  0  0
 10 11  1  0  0  0
 10 12  1  0  0  0
M  END
> <minimizedAffinity>
-6.67070

$$$$
1JSV_U55_A_400


 23 24  0  0  0  0  0  0  0  0999 V2000
   11.8712    8.2513   28.7578 C   0  0  0  0  0  0  0  0  0  0  0  0
   11.8901    6.8675   29.0666 C   0  0  0  0  0  0  0  0  0  0  0  0
   13.0390    6.0899   28.8311 C   0  0  0  0  0  0  0  0  0  0  0  0
   12.9952    8.8102   28.1127 C   0  0  0  0  0  0  0  0  0  0  0  0
   14.1468    8.0453   27.8963 C   0  0  0  0  0  0  0  0  0  0  0  0
   14.1839    6.6892   28.2446 C   0  0  0  0  0  0  0  0  0  0  0  0
   15.4540    5.6782   27.6612 S   0  0  0  0  0  0  0  0  0  0  0  0
   14.9345    4.8101   26.6534 O   0  0  0  0  0  0  0  0  0  0  0  0
   15.8832    4.8444   28.8281 O   0  0  0  0  0  0  0  0  0  0  0  0
   16.7393    6.4629   27.1329 N   0  0  0  0  0  0  0  0  0  0  0  0
   16.4795    7.0425   26.3348 H   0  0  0  0  0  0  0  0  0  0  0  0
   17.4536    5.7927   26.8482 H   0  0  0  0  0  0  0  0  0  0  0  0
   10.8005    8.9969   29.0504 N   0  0  0  0  0  0  0  0  0  0  0  0
   10.7258    9.2460   30.0000 H   0  0  0  0  0  0  0  0  0  0  0  0
    8.8596   10.2757   24.7880 N   0  0  0  0  0  0  0  0  0  0  0  0
    8.8367   10.1679   26.1611 C   0  0  0  0  0  0  0  0  0  0  0  0
    7.7552   10.6632   26.8224 N   0  0  0  0  0  0  0  0  0  0  0  0
    7.6984   10.4615   28.1980 C   0  0  0  0  0  0  0  0  0  0  0  0
    8.6985    9.9502   28.9314 N   0  0  0  0  0  0  0  0  0  0  0  0
    9.8788    9.5212   26.8848 C   0  0  0  0  0  0  0  0  0  0  0  0
    9.8220    9.4592   28.2848 C   0  0  0  0  0  0  0  0  0  0  0  0
    8.1231   10.7290   24.3175 H   0  0  0  0  0  0  0  0  0  0  0  0
    9.6123    9.8993   24.2771 H   0  0  0  0  0  0  0  0  0  0  0  0
 15 16  1  0  0  0
 16 17  2  0  0  0
 16 20  1  0  0  0
 17 18  1  0  0  0
 18 19  2  0  0  0
 19 21  1  0  0  0
 20 21  2  0  0  0
 21 13  1  0  0  0
 13  1  1  0  0  0
  1  2  2  0  0  0
  1  4  1  0  0  0
  2  3  1  0  0  0
  3  6  2  0  0  0
  4  5  2  0  0  0
  5  6  1  0  0  0
  6  7  1  0  0  0
  7  8  2  0  0  0
  7  9  2  0  0  0
  7 10  1  0  0  0
 15 22  1  0  0  0
 15 23  1  0  0  0
 13 14  1  0  0  0
 10 11  1  0  0  0
 10 12  1  0  0  0
M  END
> <minimizedAffinity>
-6.64324

$$$$
1JSV_U55_A_400


 23 24  0  0  0  0  0  0  0  0999 V2000
    8.4880   11.8438   26.4225 C   0  0  0  0  0  0  0  0  0  0  0  0
    7.5977   11.3485   27.4087 C   0  0  0  0  0  0  0  0  0  0  0  0
    6.9159   12.2251   28.2729 C   0  0  0  0  0  0  0  0  0  0  0  0
    8.7547   13.2294   26.3945 C   0  0  0  0  0  0  0  0  0  0  0  0
    8.0629   14.1060   27.2378 C   0  0  0  0  0  0  0  0  0  0  0  0
    7.1472   13.6222   28.1807 C   0  0  0  0  0  0  0  0  0  0  0  0
    6.5717   14.6525   29.4389 S   0  0  0  0  0  0  0  0  0  0  0  0
    6.9740   14.1184   30.7007 O   0  0  0  0  0  0  0  0  0  0  0  0
    5.0777   14.6023   29.3589 O   0  0  0  0  0  0  0  0  0  0  0  0
    7.0092   16.1809   29.2994 N   0  0  0  0  0  0  0  0  0  0  0  0
    8.0256   16.2496   29.3501 H   0  0  0  0  0  0  0  0  0  0  0  0
    6.5935   16.7240   30.0561 H   0  0  0  0  0  0  0  0  0  0  0  0
    9.0768   11.0090   25.5597 N   0  0  0  0  0  0  0  0  0  0  0  0
    8.5484   10.8216   24.7504 H   0  0  0  0  0  0  0  0  0  0  0  0
   13.6649   10.2939   24.1423 N   0  0  0  0  0  0  0  0  0  0  0  0
   12.5426    9.9654   24.8704 C   0  0  0  0  0  0  0  0  0  0  0  0
   12.5886    8.8469   25.6444 N   0  0  0  0  0  0  0  0  0  0  0  0
   11.4854    8.5795   26.4492 C   0  0  0  0  0  0  0  0  0  0  0  0
   10.3299    9.2593   26.4022 N   0  0  0  0  0  0  0  0  0  0  0  0
   11.3747   10.7802   24.8656 C   0  0  0  0  0  0  0  0  0  0  0  0
   10.2481   10.3897   25.6041 C   0  0  0  0  0  0  0  0  0  0  0  0
   14.4564    9.7090   24.1671 H   0  0  0  0  0  0  0  0  0  0  0  0
   13.6755   11.1136   23.5971 H   0  0  0  0  0  0  0  0  0  0  0  0
 15 16  1  0  0  0
 16 17  2  0  0  0
 16 20  1  0  0  0
 17 18  1  0  0  0
 18 19  2  0  0  0
 19 21  1  0  0  0
 20 21  2  0  0  0
 21 13  1  0  0  0
 13  1  1  0  0  0
  1  2  2  0  0  0
  1  4  1  0  0  0
  2  3  1  0  0  0
  3  6  2  0  0  0
  4  5  2  0  0  0
  5  6  1  0  0  0
  6  7  1  0  0  0
  7  8  2  0  0  0
  7  9  2  0  0  0
  7 10  1  0  0  0
 15 22  1  0  0  0
 15 23  1  0  0  0
 13 14  1  0  0  0
 10 11  1  0  0  0
 10 12  1  0  0  0
M  END
> <minimizedAffinity>
-6.58385

$$$$
