4LHV_GDP_A_201
  RCSB PDB12061713343D
Coordinates from PDB:4LHV:A:201 Model:1 without hydrogens
 28 30  0  0  0  0            999 V2000
   -7.0760   36.3730   30.2070   P 0  0  0  0  0  0  0  0  0  0  0  0
   -6.2400   36.7200   31.4380   O 0  0  0  0  0  0  0  0  0  0  0  0
   -6.3540   35.2560   29.5300   O 0  0  0  0  0  0  0  0  0  0  0  0
   -8.5230   35.9550   30.4020   O 0  0  0  0  0  0  0  0  0  0  0  0
   -7.1450   37.5560   29.1370   O 0  0  0  0  0  0  0  0  0  0  0  0
   -6.2680   38.9100   29.1240   P 0  0  0  0  0  0  0  0  0  0  0  0
   -4.8340   38.5650   29.1550   O 0  0  0  0  0  0  0  0  0  0  0  0
   -6.6730   39.8670   30.2350   O 0  0  0  0  0  0  0  0  0  0  0  0
   -6.7630   39.5950   27.7810   O 0  0  0  0  0  0  0  0  0  0  0  0
   -6.5910   38.9240   26.5330   C 0  0  0  0  0  0  0  0  0  0  0  0
   -6.4560   39.9440   25.4170   C 0  0  0  0  0  0  0  0  0  0  0  0
   -7.6910   40.6390   25.2940   O 0  0  0  0  0  0  0  0  0  0  0  0
   -5.4050   41.0220   25.6420   C 0  0  0  0  0  0  0  0  0  0  0  0
   -4.8410   41.3690   24.3700   O 0  0  0  0  0  0  0  0  0  0  0  0
   -6.2080   42.1940   26.1540   C 0  0  0  0  0  0  0  0  0  0  0  0
   -5.6410   43.4660   25.8950   O 0  0  0  0  0  0  0  0  0  0  0  0
   -7.5270   42.0450   25.4270   C 0  0  0  0  0  0  0  0  0  0  0  0
   -8.6970   42.5480   26.2060   N 0  0  0  0  0  0  0  0  0  0  0  0
   -9.0500   42.1690   27.4610   C 0  0  0  0  0  0  0  0  0  0  0  0
  -10.1610   42.8180   27.8530   N 0  0  0  0  0  0  0  0  0  0  0  0
  -10.5370   43.6020   26.8300   C 0  0  0  0  0  0  0  0  0  0  0  0
  -11.6310   44.5280   26.5540   C 0  0  0  0  0  0  0  0  0  0  0  0
  -12.5330   44.7540   27.3880   O 0  0  0  0  0  0  0  0  0  0  0  0
  -11.6530   45.1190   25.3580   N 0  0  0  0  0  0  0  0  0  0  0  0
  -10.7210   44.9050   24.4270   C 0  0  0  0  0  0  0  0  0  0  0  0
  -10.8490   45.5410   23.2900   N 0  0  0  0  0  0  0  0  0  0  0  0
   -9.7020   44.0670   24.5680   N 0  0  0  0  0  0  0  0  0  0  0  0
   -9.5640   43.4230   25.7520   C 0  0  0  0  0  0  0  0  0  0  0  0
  1  2  2  0  0  0  0
  1  3  1  0  0  0  0
  1  4  1  0  0  0  0
  1  5  1  0  0  0  0
  5  6  1  0  0  0  0
  6  7  2  0  0  0  0
  6  8  1  0  0  0  0
  6  9  1  0  0  0  0
  9 10  1  0  0  0  0
 10 11  1  0  0  0  0
 11 12  1  0  0  0  0
 11 13  1  0  0  0  0
 12 17  1  0  0  0  0
 13 14  1  0  0  0  0
 13 15  1  0  0  0  0
 15 16  1  0  0  0  0
 15 17  1  0  0  0  0
 17 18  1  0  0  0  0
 18 19  1  0  0  0  0
 18 28  1  0  0  0  0
 19 20  2  0  0  0  0
 20 21  1  0  0  0  0
 21 22  1  0  0  0  0
 21 28  2  0  0  0  0
 22 23  2  0  0  0  0
 22 24  1  0  0  0  0
 24 25  1  0  0  0  0
 25 26  1  0  0  0  0
 25 27  2  0  0  0  0
 27 28  1  0  0  0  0
A    1
PB
A    2
O1B
A    3
O2B
A    4
O3B
A    5
O3A
A    6
PA
A    7
O1A
A    8
O2A
A    9
O5'
A   10
C5'
A   11
C4'
A   12
O4'
A   13
C3'
A   14
O3'
A   15
C2'
A   16
O2'
A   17
C1'
A   18
N9
A   19
C8
A   20
N7
A   21
C5
A   22
C6
A   23
O6
A   24
N1
A   25
C2
A   26
N2
A   27
N3
A   28
C4
M  END
>  <InstanceId>
4LHV_GDP_A_201

>  <ChemCompId>
GDP

>  <PdbId>
4LHV

>  <ChainId>
A

>  <ResidueNumber>
201

>  <InsertionCode>


>  <Model>
1

>  <AltIds>


>  <MissingHeavyAtoms>
0

>  <ObservedFormula>
C10 N5 O11 P2

>  <Name>
GUANOSINE-5'-DIPHOSPHATE

>  <SystematicName>
[(2R,3S,4R,5R)-5-(2-azanyl-6-oxidanylidene-1H-purin-9-yl)-3,4-bis(oxidanyl)oxolan-2-yl]methyl phosphono hydrogen phosphate

>  <Synonyms>


>  <Type>
RNA LINKING

>  <Formula>
C10 H15 N5 O11 P2

>  <MolecularWeight>
443.201

>  <ModifiedDate>
2014-05-12

>  <Parent>
G

>  <OneLetterCode>
G

>  <SubcomponentList>


>  <AmbiguousFlag>
N

>  <InChI>
InChI=1S/C10H15N5O11P2/c11-10-13-7-4(8(18)14-10)12-2-15(7)9-6(17)5(16)3(25-9)1-24-28(22,23)26-27(19,20)21/h2-3,5-6,9,16-17H,1H2,(H,22,23)(H2,19,20,21)(H3,11,13,14,18)/t3-,5-,6-,9-/m1/s1

>  <InChIKey>
QGWNDRXFNXRZMB-UUOKFMHZSA-N

>  <SMILES>
c1nc2c(n1[C@H]3[C@@H]([C@@H]([C@H](O3)CO[P@](=O)(O)OP(=O)(O)O)O)O)N=C(NC2=O)N

$$$$
