5K0H_6PK_A_303


 44 46  0  0  0  0  0  0  0  0999 V2000
    4.8538    4.8509   21.3989 C   0  0  0  0  0  0  0  0  0  0  0  0
    5.1189    6.1048   20.6179 C   0  0  0  0  0  0  0  0  0  0  0  0
    6.3265    6.2725   19.9100 N   0  0  0  0  0  0  0  0  0  0  0  0
    4.2198    6.9373   20.6122 O   0  0  0  0  0  0  0  0  0  0  0  0
    7.0362    5.5903   19.9245 H   0  0  0  0  0  0  0  0  0  0  0  0
    6.4686    7.5323   19.1432 C   0  0  0  0  0  0  0  0  0  0  0  0
    7.4774    8.4063   19.8840 C   0  0  0  0  0  0  0  0  0  0  0  0
    7.1352    9.0904   20.9949 N   0  0  0  0  0  0  0  0  0  0  0  0
    8.6120    8.4771   19.4167 O   0  0  0  0  0  0  0  0  0  0  0  0
    6.2276    9.0235   21.3704 H   0  0  0  0  0  0  0  0  0  0  0  0
    8.1649    9.9477   21.6363 C   0  0  0  0  0  0  0  0  0  0  0  0
    8.7165    9.2294   22.9069 C   0  0  0  0  0  0  0  0  0  0  0  0
    7.8513    8.3505   23.6466 C   0  0  0  0  0  0  0  0  0  0  0  0
    9.6962    7.8654   25.2915 C   0  0  0  0  0  0  0  0  0  0  0  0
   10.0910    9.4218   23.3755 C   0  0  0  0  0  0  0  0  0  0  0  0
   10.5707    8.7466   24.5524 C   0  0  0  0  0  0  0  0  0  0  0  0
    8.3334    7.6768   24.8241 C   0  0  0  0  0  0  0  0  0  0  0  0
   10.1708    7.1423   26.5276 C   0  0  0  0  0  0  0  0  0  0  0  0
    9.3345    6.9007   27.5378 N   0  0  0  0  0  0  0  0  0  0  0  0
   11.4008    6.7632   26.6079 N   0  0  0  0  0  0  0  0  0  0  0  0
    8.3950    7.1891   27.4789 H   0  0  0  0  0  0  0  0  0  0  0  0
    9.6566    6.4339   28.3426 H   0  0  0  0  0  0  0  0  0  0  0  0
   12.0201    6.9404   25.8635 H   0  0  0  0  0  0  0  0  0  0  0  0
    5.0019    3.7077   20.4611 N   0  0  0  0  0  0  0  0  0  0  0  0
    4.9275    4.1123   19.5278 H   0  0  0  0  0  0  0  0  0  0  0  0
    6.2998    2.6893   20.3946 S   0  0  0  0  0  0  0  0  0  0  0  0
    7.4662    3.4986   20.0991 O   0  0  0  0  0  0  0  0  0  0  0  0
    6.2798    1.8351   21.5712 O   0  0  0  0  0  0  0  0  0  0  0  0
    5.9487    1.6224   18.9676 C   0  0  0  0  0  0  0  0  0  0  0  0
    9.5588    0.2400   16.7919 C   0  0  0  0  0  0  0  0  0  0  0  0
    8.2998    0.3714   16.0884 C   0  0  0  0  0  0  0  0  0  0  0  0
    7.1242    0.8232   16.7993 C   0  0  0  0  0  0  0  0  0  0  0  0
    7.1988    1.1447   18.2083 C   0  0  0  0  0  0  0  0  0  0  0  0
    8.4590    1.0132   18.9005 C   0  0  0  0  0  0  0  0  0  0  0  0
    9.6362    0.5633   18.2025 C   0  0  0  0  0  0  0  0  0  0  0  0
    3.4254    4.7315   21.9794 C   0  0  0  0  0  0  0  0  0  0  0  0
    3.5171    4.5936   23.4224 O   0  0  0  0  0  0  0  0  0  0  0  0
    2.4644    5.2697   24.1463 C   0  0  0  0  0  0  0  0  0  0  0  0
    2.7024    6.7436   24.5061 C   0  0  0  0  0  0  0  0  0  0  0  0
    4.0680    7.2438   24.4700 C   0  0  0  0  0  0  0  0  0  0  0  0
    4.3563    8.6120   24.8087 C   0  0  0  0  0  0  0  0  0  0  0  0
    1.6261    7.6280   24.8870 C   0  0  0  0  0  0  0  0  0  0  0  0
    1.9126    8.9985   25.2264 C   0  0  0  0  0  0  0  0  0  0  0  0
    3.2818    9.4880   25.1870 C   0  0  0  0  0  0  0  0  0  0  0  0
 41 44  2  0  0  0
 41 40  1  0  0  0
 44 43  1  0  0  0
 40 39  2  0  0  0
 43 42  2  0  0  0
 39 42  1  0  0  0
 39 38  1  0  0  0
  3  6  1  0  0  0
  3  2  1  0  0  0
 36 37  1  0  0  0
 36  1  1  0  0  0
  6  7  1  0  0  0
 38 37  1  0  0  0
  1  2  1  0  0  0
  1 24  1  0  0  0
  2  4  2  0  0  0
  7  8  1  0  0  0
  7  9  2  0  0  0
  8 11  1  0  0  0
 24 26  1  0  0  0
 27 26  2  0  0  0
 11 12  1  0  0  0
 26 29  1  0  0  0
 26 28  2  0  0  0
 29 33  1  0  0  0
 34 33  2  0  0  0
 34 35  1  0  0  0
 12 15  2  0  0  0
 12 13  1  0  0  0
 33 32  1  0  0  0
 35 30  2  0  0  0
 15 16  1  0  0  0
 13 17  2  0  0  0
 32 31  2  0  0  0
 16 14  2  0  0  0
 30 31  1  0  0  0
 17 14  1  0  0  0
 14 18  1  0  0  0
 18 20  2  0  0  0
 18 19  1  0  0  0
 19 21  1  0  0  0
 19 22  1  0  0  0
 24 25  1  0  0  0
  3  5  1  0  0  0
  8 10  1  0  0  0
 20 23  1  0  0  0
M  END
> <minimizedAffinity>
-9.51912

$$$$
5K0H_6PK_A_303


 44 46  0  0  0  0  0  0  0  0999 V2000
    6.5362    8.0577   23.0944 C   0  0  0  0  0  0  0  0  0  0  0  0
    5.3718    7.3666   22.4469 C   0  0  0  0  0  0  0  0  0  0  0  0
    5.2057    5.9713   22.5618 N   0  0  0  0  0  0  0  0  0  0  0  0
    4.5778    8.0875   21.8542 O   0  0  0  0  0  0  0  0  0  0  0  0
    5.8535    5.4091   23.0451 H   0  0  0  0  0  0  0  0  0  0  0  0
    4.0024    5.3978   21.9150 C   0  0  0  0  0  0  0  0  0  0  0  0
    4.2292    3.8942   21.7805 C   0  0  0  0  0  0  0  0  0  0  0  0
    5.4612    3.3824   21.5821 N   0  0  0  0  0  0  0  0  0  0  0  0
    3.2399    3.1674   21.8419 O   0  0  0  0  0  0  0  0  0  0  0  0
    6.2517    3.9680   21.5426 H   0  0  0  0  0  0  0  0  0  0  0  0
    5.5930    1.9112   21.4247 C   0  0  0  0  0  0  0  0  0  0  0  0
    6.1680    1.5925   20.0096 C   0  0  0  0  0  0  0  0  0  0  0  0
    5.2704    1.5198   18.8884 C   0  0  0  0  0  0  0  0  0  0  0  0
    7.1900    0.9958   17.3439 C   0  0  0  0  0  0  0  0  0  0  0  0
    7.5968    1.3619   19.7832 C   0  0  0  0  0  0  0  0  0  0  0  0
    8.0972    1.0681   18.4662 C   0  0  0  0  0  0  0  0  0  0  0  0
    5.7734    1.2251   17.5720 C   0  0  0  0  0  0  0  0  0  0  0  0
    7.6849    0.6919   15.9516 C   0  0  0  0  0  0  0  0  0  0  0  0
    8.3162   -0.4529   15.6886 N   0  0  0  0  0  0  0  0  0  0  0  0
    7.5011    1.5543   15.0106 N   0  0  0  0  0  0  0  0  0  0  0  0
    8.4577   -1.1129   16.4053 H   0  0  0  0  0  0  0  0  0  0  0  0
    8.6409   -0.6381   14.7778 H   0  0  0  0  0  0  0  0  0  0  0  0
    7.0353    2.4002   15.2022 H   0  0  0  0  0  0  0  0  0  0  0  0
    7.6993    7.9112   22.1812 N   0  0  0  0  0  0  0  0  0  0  0  0
    7.4100    7.2267   21.4825 H   0  0  0  0  0  0  0  0  0  0  0  0
    8.4036    9.1368   21.3280 S   0  0  0  0  0  0  0  0  0  0  0  0
    7.4199   10.1949   21.2047 O   0  0  0  0  0  0  0  0  0  0  0  0
    9.7089    9.4136   21.9059 O   0  0  0  0  0  0  0  0  0  0  0  0
    8.6999    8.4166   19.6875 C   0  0  0  0  0  0  0  0  0  0  0  0
    5.7437    5.3405   18.4725 C   0  0  0  0  0  0  0  0  0  0  0  0
    7.0621    4.9374   18.9162 C   0  0  0  0  0  0  0  0  0  0  0  0
    8.0241    5.9418   19.3128 C   0  0  0  0  0  0  0  0  0  0  0  0
    7.6770    7.3459   19.2691 C   0  0  0  0  0  0  0  0  0  0  0  0
    6.3594    7.7380   18.8280 C   0  0  0  0  0  0  0  0  0  0  0  0
    5.3935    6.7461   18.4298 C   0  0  0  0  0  0  0  0  0  0  0  0
    6.9874    7.4531   24.4444 C   0  0  0  0  0  0  0  0  0  0  0  0
    8.4370    7.3633   24.4554 O   0  0  0  0  0  0  0  0  0  0  0  0
    9.0424    7.7691   25.7036 C   0  0  0  0  0  0  0  0  0  0  0  0
   10.5732    7.6860   25.7944 C   0  0  0  0  0  0  0  0  0  0  0  0
   11.1533    6.9806   26.9267 C   0  0  0  0  0  0  0  0  0  0  0  0
   12.5809    6.8795   27.0737 C   0  0  0  0  0  0  0  0  0  0  0  0
   11.4382    8.2920   24.8094 C   0  0  0  0  0  0  0  0  0  0  0  0
   12.8680    8.1918   24.9546 C   0  0  0  0  0  0  0  0  0  0  0  0
   13.4372    7.4842   26.0909 C   0  0  0  0  0  0  0  0  0  0  0  0
 41 44  2  0  0  0
 41 40  1  0  0  0
 44 43  1  0  0  0
 40 39  2  0  0  0
 43 42  2  0  0  0
 39 42  1  0  0  0
 39 38  1  0  0  0
  3  6  1  0  0  0
  3  2  1  0  0  0
 36 37  1  0  0  0
 36  1  1  0  0  0
  6  7  1  0  0  0
 38 37  1  0  0  0
  1  2  1  0  0  0
  1 24  1  0  0  0
  2  4  2  0  0  0
  7  8  1  0  0  0
  7  9  2  0  0  0
  8 11  1  0  0  0
 24 26  1  0  0  0
 27 26  2  0  0  0
 11 12  1  0  0  0
 26 29  1  0  0  0
 26 28  2  0  0  0
 29 33  1  0  0  0
 34 33  2  0  0  0
 34 35  1  0  0  0
 12 15  2  0  0  0
 12 13  1  0  0  0
 33 32  1  0  0  0
 35 30  2  0  0  0
 15 16  1  0  0  0
 13 17  2  0  0  0
 32 31  2  0  0  0
 16 14  2  0  0  0
 30 31  1  0  0  0
 17 14  1  0  0  0
 14 18  1  0  0  0
 18 20  2  0  0  0
 18 19  1  0  0  0
 19 21  1  0  0  0
 19 22  1  0  0  0
 24 25  1  0  0  0
  3  5  1  0  0  0
  8 10  1  0  0  0
 20 23  1  0  0  0
M  END
> <minimizedAffinity>
-9.48771

$$$$
5K0H_6PK_A_303


 44 46  0  0  0  0  0  0  0  0999 V2000
    5.2840    4.2405   20.7652 C   0  0  0  0  0  0  0  0  0  0  0  0
    6.4726    5.0307   20.3010 C   0  0  0  0  0  0  0  0  0  0  0  0
    6.3079    6.2912   19.6914 N   0  0  0  0  0  0  0  0  0  0  0  0
    7.5703    4.5299   20.5143 O   0  0  0  0  0  0  0  0  0  0  0  0
    5.4170    6.6784   19.5313 H   0  0  0  0  0  0  0  0  0  0  0  0
    7.5497    7.0010   19.3050 C   0  0  0  0  0  0  0  0  0  0  0  0
    7.8034    8.0809   20.3537 C   0  0  0  0  0  0  0  0  0  0  0  0
    7.0822    8.1411   21.4919 N   0  0  0  0  0  0  0  0  0  0  0  0
    8.6807    8.9069   20.1112 O   0  0  0  0  0  0  0  0  0  0  0  0
    6.3866    7.4719   21.6857 H   0  0  0  0  0  0  0  0  0  0  0  0
    7.3659    9.2446   22.4450 C   0  0  0  0  0  0  0  0  0  0  0  0
    8.4620    8.7849   23.4560 C   0  0  0  0  0  0  0  0  0  0  0  0
    8.0932    7.9215   24.5452 C   0  0  0  0  0  0  0  0  0  0  0  0
   10.4711    7.8999   25.3761 C   0  0  0  0  0  0  0  0  0  0  0  0
    9.8598    9.2061   23.3341 C   0  0  0  0  0  0  0  0  0  0  0  0
   10.8482    8.7669   24.2836 C   0  0  0  0  0  0  0  0  0  0  0  0
    9.0838    7.4840   25.4940 C   0  0  0  0  0  0  0  0  0  0  0  0
   11.4847    7.4214   26.3858 C   0  0  0  0  0  0  0  0  0  0  0  0
   12.7829    7.3869   26.0828 N   0  0  0  0  0  0  0  0  0  0  0  0
   11.0869    7.0343   27.5498 N   0  0  0  0  0  0  0  0  0  0  0  0
   13.0892    7.6819   25.1948 H   0  0  0  0  0  0  0  0  0  0  0  0
   13.4351    7.0665   26.7470 H   0  0  0  0  0  0  0  0  0  0  0  0
   10.1290    7.0588   27.7759 H   0  0  0  0  0  0  0  0  0  0  0  0
    4.4959    3.8794   19.5583 N   0  0  0  0  0  0  0  0  0  0  0  0
    4.1657    4.7655   19.1759 H   0  0  0  0  0  0  0  0  0  0  0  0
    5.0681    3.0299   18.2633 S   0  0  0  0  0  0  0  0  0  0  0  0
    3.9178    2.5340   17.5328 O   0  0  0  0  0  0  0  0  0  0  0  0
    6.0735    3.8348   17.5883 O   0  0  0  0  0  0  0  0  0  0  0  0
    5.9396    1.6230   19.0109 C   0  0  0  0  0  0  0  0  0  0  0  0
    9.5173    0.2891   16.7530 C   0  0  0  0  0  0  0  0  0  0  0  0
    9.6547    0.7305   18.1255 C   0  0  0  0  0  0  0  0  0  0  0  0
    8.4869    1.1641   18.8602 C   0  0  0  0  0  0  0  0  0  0  0  0
    7.1831    1.1591   18.2324 C   0  0  0  0  0  0  0  0  0  0  0  0
    7.0556    0.7148   16.8647 C   0  0  0  0  0  0  0  0  0  0  0  0
    8.2122    0.2815   16.1230 C   0  0  0  0  0  0  0  0  0  0  0  0
    4.3074    5.0083   21.6864 C   0  0  0  0  0  0  0  0  0  0  0  0
    4.9791    6.1898   22.1988 O   0  0  0  0  0  0  0  0  0  0  0  0
    4.8226    6.3851   23.6223 C   0  0  0  0  0  0  0  0  0  0  0  0
    3.7523    7.3897   24.0737 C   0  0  0  0  0  0  0  0  0  0  0  0
    2.5931    6.8782   24.7885 C   0  0  0  0  0  0  0  0  0  0  0  0
    1.5508    7.7680   25.2262 C   0  0  0  0  0  0  0  0  0  0  0  0
    3.8572    8.8037   23.7993 C   0  0  0  0  0  0  0  0  0  0  0  0
    2.8147    9.6965   24.2368 C   0  0  0  0  0  0  0  0  0  0  0  0
    1.6600    9.1741   24.9507 C   0  0  0  0  0  0  0  0  0  0  0  0
 41 44  2  0  0  0
 41 40  1  0  0  0
 44 43  1  0  0  0
 40 39  2  0  0  0
 43 42  2  0  0  0
 39 42  1  0  0  0
 39 38  1  0  0  0
  3  6  1  0  0  0
  3  2  1  0  0  0
 36 37  1  0  0  0
 36  1  1  0  0  0
  6  7  1  0  0  0
 38 37  1  0  0  0
  1  2  1  0  0  0
  1 24  1  0  0  0
  2  4  2  0  0  0
  7  8  1  0  0  0
  7  9  2  0  0  0
  8 11  1  0  0  0
 24 26  1  0  0  0
 27 26  2  0  0  0
 11 12  1  0  0  0
 26 29  1  0  0  0
 26 28  2  0  0  0
 29 33  1  0  0  0
 34 33  2  0  0  0
 34 35  1  0  0  0
 12 15  2  0  0  0
 12 13  1  0  0  0
 33 32  1  0  0  0
 35 30  2  0  0  0
 15 16  1  0  0  0
 13 17  2  0  0  0
 32 31  2  0  0  0
 16 14  2  0  0  0
 30 31  1  0  0  0
 17 14  1  0  0  0
 14 18  1  0  0  0
 18 20  2  0  0  0
 18 19  1  0  0  0
 19 21  1  0  0  0
 19 22  1  0  0  0
 24 25  1  0  0  0
  3  5  1  0  0  0
  8 10  1  0  0  0
 20 23  1  0  0  0
M  END
> <minimizedAffinity>
-9.41018

$$$$
5K0H_6PK_A_303


 44 46  0  0  0  0  0  0  0  0999 V2000
    5.7944    5.5430   18.7907 C   0  0  0  0  0  0  0  0  0  0  0  0
    6.9686    6.4635   18.9539 C   0  0  0  0  0  0  0  0  0  0  0  0
    6.8432    7.8450   18.7022 N   0  0  0  0  0  0  0  0  0  0  0  0
    8.0091    5.9470   19.3438 O   0  0  0  0  0  0  0  0  0  0  0  0
    5.9972    8.2418   18.3922 H   0  0  0  0  0  0  0  0  0  0  0  0
    8.0549    8.6665   18.9301 C   0  0  0  0  0  0  0  0  0  0  0  0
    7.9238    9.2996   20.3129 C   0  0  0  0  0  0  0  0  0  0  0  0
    7.4896    8.5899   21.3745 N   0  0  0  0  0  0  0  0  0  0  0  0
    8.2127   10.4897   20.4175 O   0  0  0  0  0  0  0  0  0  0  0  0
    7.2679    7.6347   21.2876 H   0  0  0  0  0  0  0  0  0  0  0  0
    7.3548    9.2888   22.6784 C   0  0  0  0  0  0  0  0  0  0  0  0
    8.4664    8.7862   23.6512 C   0  0  0  0  0  0  0  0  0  0  0  0
    9.8203    9.2311   23.4584 C   0  0  0  0  0  0  0  0  0  0  0  0
   10.5829    7.8735   25.4384 C   0  0  0  0  0  0  0  0  0  0  0  0
    8.1774    7.8711   24.7580 C   0  0  0  0  0  0  0  0  0  0  0  0
    9.2245    7.4234   25.6379 C   0  0  0  0  0  0  0  0  0  0  0  0
   10.8662    8.7812   24.3396 C   0  0  0  0  0  0  0  0  0  0  0  0
   11.7014    7.4232   26.3451 C   0  0  0  0  0  0  0  0  0  0  0  0
   11.4501    7.0435   27.5985 N   0  0  0  0  0  0  0  0  0  0  0  0
   12.9127    7.4152   25.9027 N   0  0  0  0  0  0  0  0  0  0  0  0
   10.5263    7.0487   27.9387 H   0  0  0  0  0  0  0  0  0  0  0  0
   12.1885    6.7578   28.1837 H   0  0  0  0  0  0  0  0  0  0  0  0
   13.1007    7.6951   24.9777 H   0  0  0  0  0  0  0  0  0  0  0  0
    5.1671    5.3869   20.1287 N   0  0  0  0  0  0  0  0  0  0  0  0
    5.9364    5.4432   20.7962 H   0  0  0  0  0  0  0  0  0  0  0  0
    3.9804    6.3548   20.7457 S   0  0  0  0  0  0  0  0  0  0  0  0
    4.4461    7.7242   20.6426 O   0  0  0  0  0  0  0  0  0  0  0  0
    2.7104    5.9663   20.1536 O   0  0  0  0  0  0  0  0  0  0  0  0
    3.9031    5.8917   22.5000 C   0  0  0  0  0  0  0  0  0  0  0  0
    2.9024    9.2373   25.2354 C   0  0  0  0  0  0  0  0  0  0  0  0
    1.8994    8.7274   24.3236 C   0  0  0  0  0  0  0  0  0  0  0  0
    2.2274    7.6360   23.4333 C   0  0  0  0  0  0  0  0  0  0  0  0
    3.5508    7.0508   23.4486 C   0  0  0  0  0  0  0  0  0  0  0  0
    4.5432    7.5640   24.3629 C   0  0  0  0  0  0  0  0  0  0  0  0
    4.2278    8.6515   25.2536 C   0  0  0  0  0  0  0  0  0  0  0  0
    6.1458    4.1107   18.3253 C   0  0  0  0  0  0  0  0  0  0  0  0
    5.8315    3.1808   19.3959 O   0  0  0  0  0  0  0  0  0  0  0  0
    5.7903    1.7970   18.9805 C   0  0  0  0  0  0  0  0  0  0  0  0
    7.0196    1.2570   18.2351 C   0  0  0  0  0  0  0  0  0  0  0  0
    8.2787    1.1800   18.9596 C   0  0  0  0  0  0  0  0  0  0  0  0
    9.4682    0.6945   18.3120 C   0  0  0  0  0  0  0  0  0  0  0  0
    6.9631    0.8439   16.8524 C   0  0  0  0  0  0  0  0  0  0  0  0
    8.1529    0.3573   16.2021 C   0  0  0  0  0  0  0  0  0  0  0  0
    9.4067    0.2847   16.9361 C   0  0  0  0  0  0  0  0  0  0  0  0
 41 44  2  0  0  0
 41 40  1  0  0  0
 44 43  1  0  0  0
 40 39  2  0  0  0
 43 42  2  0  0  0
 39 42  1  0  0  0
 39 38  1  0  0  0
  3  6  1  0  0  0
  3  2  1  0  0  0
 36 37  1  0  0  0
 36  1  1  0  0  0
  6  7  1  0  0  0
 38 37  1  0  0  0
  1  2  1  0  0  0
  1 24  1  0  0  0
  2  4  2  0  0  0
  7  8  1  0  0  0
  7  9  2  0  0  0
  8 11  1  0  0  0
 24 26  1  0  0  0
 27 26  2  0  0  0
 11 12  1  0  0  0
 26 29  1  0  0  0
 26 28  2  0  0  0
 29 33  1  0  0  0
 34 33  2  0  0  0
 34 35  1  0  0  0
 12 15  2  0  0  0
 12 13  1  0  0  0
 33 32  1  0  0  0
 35 30  2  0  0  0
 15 16  1  0  0  0
 13 17  2  0  0  0
 32 31  2  0  0  0
 16 14  2  0  0  0
 30 31  1  0  0  0
 17 14  1  0  0  0
 14 18  1  0  0  0
 18 20  2  0  0  0
 18 19  1  0  0  0
 19 21  1  0  0  0
 19 22  1  0  0  0
 24 25  1  0  0  0
  3  5  1  0  0  0
  8 10  1  0  0  0
 20 23  1  0  0  0
M  END
> <minimizedAffinity>
-9.38803

$$$$
5K0H_6PK_A_303


 44 46  0  0  0  0  0  0  0  0999 V2000
    5.0277    3.8284   20.5766 C   0  0  0  0  0  0  0  0  0  0  0  0
    4.3496    4.8043   21.4935 C   0  0  0  0  0  0  0  0  0  0  0  0
    5.0277    5.3381   22.6083 N   0  0  0  0  0  0  0  0  0  0  0  0
    3.2049    5.1215   21.1928 O   0  0  0  0  0  0  0  0  0  0  0  0
    5.9491    5.0728   22.8318 H   0  0  0  0  0  0  0  0  0  0  0  0
    4.2770    6.3203   23.4249 C   0  0  0  0  0  0  0  0  0  0  0  0
    5.1514    7.5643   23.5606 C   0  0  0  0  0  0  0  0  0  0  0  0
    6.3097    7.6890   22.8810 N   0  0  0  0  0  0  0  0  0  0  0  0
    4.7666    8.4424   24.3299 O   0  0  0  0  0  0  0  0  0  0  0  0
    6.6092    6.9869   22.2592 H   0  0  0  0  0  0  0  0  0  0  0  0
    7.1212    8.9145   23.0961 C   0  0  0  0  0  0  0  0  0  0  0  0
    8.3964    8.5518   23.9189 C   0  0  0  0  0  0  0  0  0  0  0  0
    8.2740    7.6722   25.0500 C   0  0  0  0  0  0  0  0  0  0  0  0
   10.7475    7.8453   25.4935 C   0  0  0  0  0  0  0  0  0  0  0  0
    9.7195    9.0804   23.5786 C   0  0  0  0  0  0  0  0  0  0  0  0
   10.8773    8.7290   24.3579 C   0  0  0  0  0  0  0  0  0  0  0  0
    9.4337    7.3227   25.8284 C   0  0  0  0  0  0  0  0  0  0  0  0
   11.9428    7.4573   26.3282 C   0  0  0  0  0  0  0  0  0  0  0  0
   13.1531    7.3553   25.7775 N   0  0  0  0  0  0  0  0  0  0  0  0
   11.7870    7.2141   27.5850 N   0  0  0  0  0  0  0  0  0  0  0  0
   13.2746    7.5404   24.8182 H   0  0  0  0  0  0  0  0  0  0  0  0
   13.9250    7.0948   26.3302 H   0  0  0  0  0  0  0  0  0  0  0  0
   10.8946    7.2887   27.9939 H   0  0  0  0  0  0  0  0  0  0  0  0
    4.3898    3.9617   19.2412 N   0  0  0  0  0  0  0  0  0  0  0  0
    3.4865    4.4020   19.4157 H   0  0  0  0  0  0  0  0  0  0  0  0
    5.0307    4.7728   17.9537 S   0  0  0  0  0  0  0  0  0  0  0  0
    6.4596    4.5260   17.9586 O   0  0  0  0  0  0  0  0  0  0  0  0
    4.2386    4.4683   16.7729 O   0  0  0  0  0  0  0  0  0  0  0  0
    4.7357    6.5215   18.3448 C   0  0  0  0  0  0  0  0  0  0  0  0
    8.3844    8.7693   19.4900 C   0  0  0  0  0  0  0  0  0  0  0  0
    7.3200    9.4404   18.7731 C   0  0  0  0  0  0  0  0  0  0  0  0
    6.1308    8.7060   18.4015 C   0  0  0  0  0  0  0  0  0  0  0  0
    5.9985    7.3058   18.7419 C   0  0  0  0  0  0  0  0  0  0  0  0
    7.0638    6.6460   19.4590 C   0  0  0  0  0  0  0  0  0  0  0  0
    8.2531    7.3675   19.8335 C   0  0  0  0  0  0  0  0  0  0  0  0
    4.8660    2.3413   20.9692 C   0  0  0  0  0  0  0  0  0  0  0  0
    5.5095    1.5186   19.9599 O   0  0  0  0  0  0  0  0  0  0  0  0
    6.9512    1.6207   19.9487 C   0  0  0  0  0  0  0  0  0  0  0  0
    7.6681    1.2118   18.6536 C   0  0  0  0  0  0  0  0  0  0  0  0
    6.8656    1.0451   17.4518 C   0  0  0  0  0  0  0  0  0  0  0  0
    7.4777    0.6511   16.2108 C   0  0  0  0  0  0  0  0  0  0  0  0
    9.0923    0.9780   18.6013 C   0  0  0  0  0  0  0  0  0  0  0  0
    9.7073    0.5836   17.3597 C   0  0  0  0  0  0  0  0  0  0  0  0
    8.8952    0.4198   16.1641 C   0  0  0  0  0  0  0  0  0  0  0  0
 41 44  2  0  0  0
 41 40  1  0  0  0
 44 43  1  0  0  0
 40 39  2  0  0  0
 43 42  2  0  0  0
 39 42  1  0  0  0
 39 38  1  0  0  0
  3  6  1  0  0  0
  3  2  1  0  0  0
 36 37  1  0  0  0
 36  1  1  0  0  0
  6  7  1  0  0  0
 38 37  1  0  0  0
  1  2  1  0  0  0
  1 24  1  0  0  0
  2  4  2  0  0  0
  7  8  1  0  0  0
  7  9  2  0  0  0
  8 11  1  0  0  0
 24 26  1  0  0  0
 27 26  2  0  0  0
 11 12  1  0  0  0
 26 29  1  0  0  0
 26 28  2  0  0  0
 29 33  1  0  0  0
 34 33  2  0  0  0
 34 35  1  0  0  0
 12 15  2  0  0  0
 12 13  1  0  0  0
 33 32  1  0  0  0
 35 30  2  0  0  0
 15 16  1  0  0  0
 13 17  2  0  0  0
 32 31  2  0  0  0
 16 14  2  0  0  0
 30 31  1  0  0  0
 17 14  1  0  0  0
 14 18  1  0  0  0
 18 20  2  0  0  0
 18 19  1  0  0  0
 19 21  1  0  0  0
 19 22  1  0  0  0
 24 25  1  0  0  0
  3  5  1  0  0  0
  8 10  1  0  0  0
 20 23  1  0  0  0
M  END
> <minimizedAffinity>
-8.75725

$$$$
5K0H_6PK_A_303


 44 46  0  0  0  0  0  0  0  0999 V2000
    5.0030    4.8084   21.4465 C   0  0  0  0  0  0  0  0  0  0  0  0
    5.1598    6.2576   21.0888 C   0  0  0  0  0  0  0  0  0  0  0  0
    5.5566    6.6419   19.7917 N   0  0  0  0  0  0  0  0  0  0  0  0
    4.8931    7.0635   21.9724 O   0  0  0  0  0  0  0  0  0  0  0  0
    5.7637    5.9790   19.0940 H   0  0  0  0  0  0  0  0  0  0  0  0
    5.6445    8.0988   19.5367 C   0  0  0  0  0  0  0  0  0  0  0  0
    7.0360    8.5546   19.9682 C   0  0  0  0  0  0  0  0  0  0  0  0
    7.2540    9.0997   21.1825 N   0  0  0  0  0  0  0  0  0  0  0  0
    7.9494    8.4220   19.1564 O   0  0  0  0  0  0  0  0  0  0  0  0
    6.5209    9.1956   21.8326 H   0  0  0  0  0  0  0  0  0  0  0  0
    8.6301    9.5514   21.5123 C   0  0  0  0  0  0  0  0  0  0  0  0
    9.0583    8.9439   22.8842 C   0  0  0  0  0  0  0  0  0  0  0  0
    8.1396    8.0932   23.5915 C   0  0  0  0  0  0  0  0  0  0  0  0
    9.8071    7.7862   25.4544 C   0  0  0  0  0  0  0  0  0  0  0  0
   10.3692    9.2131   23.4802 C   0  0  0  0  0  0  0  0  0  0  0  0
   10.7349    8.6395   24.7484 C   0  0  0  0  0  0  0  0  0  0  0  0
    8.5077    7.5212   24.8605 C   0  0  0  0  0  0  0  0  0  0  0  0
   10.1625    7.1690   26.7842 C   0  0  0  0  0  0  0  0  0  0  0  0
   11.4227    7.1716   27.2205 N   0  0  0  0  0  0  0  0  0  0  0  0
    9.2368    6.6265   27.4997 N   0  0  0  0  0  0  0  0  0  0  0  0
   12.1312    7.5850   26.6762 H   0  0  0  0  0  0  0  0  0  0  0  0
   11.6445    6.7600   28.0869 H   0  0  0  0  0  0  0  0  0  0  0  0
    8.3057    6.6234   27.1798 H   0  0  0  0  0  0  0  0  0  0  0  0
    5.4004    4.0145   20.2549 N   0  0  0  0  0  0  0  0  0  0  0  0
    5.0479    4.5363   19.4525 H   0  0  0  0  0  0  0  0  0  0  0  0
    6.9478    3.5959   19.8592 S   0  0  0  0  0  0  0  0  0  0  0  0
    7.2079    4.1179   18.5316 O   0  0  0  0  0  0  0  0  0  0  0  0
    7.8209    3.9460   20.9681 O   0  0  0  0  0  0  0  0  0  0  0  0
    6.9056    1.7822   19.7789 C   0  0  0  0  0  0  0  0  0  0  0  0
    9.0321    0.0578   16.2887 C   0  0  0  0  0  0  0  0  0  0  0  0
    9.7594    0.3374   17.5094 C   0  0  0  0  0  0  0  0  0  0  0  0
    9.0641    0.8987   18.6465 C   0  0  0  0  0  0  0  0  0  0  0  0
    7.6470    1.1820   18.5716 C   0  0  0  0  0  0  0  0  0  0  0  0
    6.9299    0.8973   17.3513 C   0  0  0  0  0  0  0  0  0  0  0  0
    7.6125    0.3390   16.2122 C   0  0  0  0  0  0  0  0  0  0  0  0
    3.5574    4.3690   21.7769 C   0  0  0  0  0  0  0  0  0  0  0  0
    3.6089    3.2382   22.6871 O   0  0  0  0  0  0  0  0  0  0  0  0
    2.3608    2.5184   22.8027 C   0  0  0  0  0  0  0  0  0  0  0  0
    2.3899    1.0177   22.4780 C   0  0  0  0  0  0  0  0  0  0  0  0
    1.7703    0.5746   21.2387 C   0  0  0  0  0  0  0  0  0  0  0  0
    1.7545   -0.8199   20.8851 C   0  0  0  0  0  0  0  0  0  0  0  0
    2.9934    0.0488   23.3628 C   0  0  0  0  0  0  0  0  0  0  0  0
    2.9789   -1.3480   23.0106 C   0  0  0  0  0  0  0  0  0  0  0  0
    2.3564   -1.7800   21.7689 C   0  0  0  0  0  0  0  0  0  0  0  0
 41 44  2  0  0  0
 41 40  1  0  0  0
 44 43  1  0  0  0
 40 39  2  0  0  0
 43 42  2  0  0  0
 39 42  1  0  0  0
 39 38  1  0  0  0
  3  6  1  0  0  0
  3  2  1  0  0  0
 36 37  1  0  0  0
 36  1  1  0  0  0
  6  7  1  0  0  0
 38 37  1  0  0  0
  1  2  1  0  0  0
  1 24  1  0  0  0
  2  4  2  0  0  0
  7  8  1  0  0  0
  7  9  2  0  0  0
  8 11  1  0  0  0
 24 26  1  0  0  0
 27 26  2  0  0  0
 11 12  1  0  0  0
 26 29  1  0  0  0
 26 28  2  0  0  0
 29 33  1  0  0  0
 34 33  2  0  0  0
 34 35  1  0  0  0
 12 15  2  0  0  0
 12 13  1  0  0  0
 33 32  1  0  0  0
 35 30  2  0  0  0
 15 16  1  0  0  0
 13 17  2  0  0  0
 32 31  2  0  0  0
 16 14  2  0  0  0
 30 31  1  0  0  0
 17 14  1  0  0  0
 14 18  1  0  0  0
 18 20  2  0  0  0
 18 19  1  0  0  0
 19 21  1  0  0  0
 19 22  1  0  0  0
 24 25  1  0  0  0
  3  5  1  0  0  0
  8 10  1  0  0  0
 20 23  1  0  0  0
M  END
> <minimizedAffinity>
-8.74578

$$$$
5K0H_6PK_A_303


 44 46  0  0  0  0  0  0  0  0999 V2000
    5.3945    4.9416   20.1078 C   0  0  0  0  0  0  0  0  0  0  0  0
    5.6277    6.3161   19.5518 C   0  0  0  0  0  0  0  0  0  0  0  0
    5.3334    7.4635   20.3164 N   0  0  0  0  0  0  0  0  0  0  0  0
    6.1110    6.3685   18.4271 O   0  0  0  0  0  0  0  0  0  0  0  0
    4.9480    7.4006   21.2201 H   0  0  0  0  0  0  0  0  0  0  0  0
    5.6363    8.7690   19.6846 C   0  0  0  0  0  0  0  0  0  0  0  0
    7.0183    9.2006   20.1686 C   0  0  0  0  0  0  0  0  0  0  0  0
    7.2450    9.5197   21.4593 N   0  0  0  0  0  0  0  0  0  0  0  0
    7.9147    9.2638   19.3299 O   0  0  0  0  0  0  0  0  0  0  0  0
    6.5260    9.4589   22.1290 H   0  0  0  0  0  0  0  0  0  0  0  0
    8.6091    9.9655   21.8429 C   0  0  0  0  0  0  0  0  0  0  0  0
    9.0447    9.2304   23.1484 C   0  0  0  0  0  0  0  0  0  0  0  0
    8.0802    8.4370   23.8613 C   0  0  0  0  0  0  0  0  0  0  0  0
    9.8057    7.8394   25.5964 C   0  0  0  0  0  0  0  0  0  0  0  0
   10.4081    9.3226   23.6763 C   0  0  0  0  0  0  0  0  0  0  0  0
   10.7797    8.6344   24.8844 C   0  0  0  0  0  0  0  0  0  0  0  0
    8.4543    7.7500   25.0700 C   0  0  0  0  0  0  0  0  0  0  0  0
   10.1658    7.1049   26.8640 C   0  0  0  0  0  0  0  0  0  0  0  0
    9.2194    6.5435   27.6173 N   0  0  0  0  0  0  0  0  0  0  0  0
   11.4018    7.0289   27.2239 N   0  0  0  0  0  0  0  0  0  0  0  0
    8.2751    6.6001   27.3447 H   0  0  0  0  0  0  0  0  0  0  0  0
    9.4650    6.0723   28.4461 H   0  0  0  0  0  0  0  0  0  0  0  0
   12.1023    7.4425   26.6695 H   0  0  0  0  0  0  0  0  0  0  0  0
    4.8051    5.1078   21.4617 N   0  0  0  0  0  0  0  0  0  0  0  0
    4.5856    6.1008   21.5411 H   0  0  0  0  0  0  0  0  0  0  0  0
    3.4692    4.3178   22.0251 S   0  0  0  0  0  0  0  0  0  0  0  0
    3.7592    3.8974   23.3822 O   0  0  0  0  0  0  0  0  0  0  0  0
    2.2969    5.1311   21.7447 O   0  0  0  0  0  0  0  0  0  0  0  0
    3.3502    2.8463   20.9675 C   0  0  0  0  0  0  0  0  0  0  0  0
    1.8815   -0.7914   23.0382 C   0  0  0  0  0  0  0  0  0  0  0  0
    3.3045   -0.5354   22.9535 C   0  0  0  0  0  0  0  0  0  0  0  0
    3.7812    0.6517   22.2788 C   0  0  0  0  0  0  0  0  0  0  0  0
    2.8453    1.5844   21.6887 C   0  0  0  0  0  0  0  0  0  0  0  0
    1.4286    1.3221   21.7806 C   0  0  0  0  0  0  0  0  0  0  0  0
    0.9425    0.1424   22.4495 C   0  0  0  0  0  0  0  0  0  0  0  0
    6.6713    4.0927   20.3103 C   0  0  0  0  0  0  0  0  0  0  0  0
    6.7772    3.1399   19.2192 O   0  0  0  0  0  0  0  0  0  0  0  0
    7.5724    1.9739   19.5311 C   0  0  0  0  0  0  0  0  0  0  0  0
    8.1114    1.1611   18.3447 C   0  0  0  0  0  0  0  0  0  0  0  0
    9.4865    0.6908   18.4072 C   0  0  0  0  0  0  0  0  0  0  0  0
   10.0525   -0.0649   17.3216 C   0  0  0  0  0  0  0  0  0  0  0  0
    7.3071    0.8686   17.1815 C   0  0  0  0  0  0  0  0  0  0  0  0
    7.8718    0.1120   16.0933 C   0  0  0  0  0  0  0  0  0  0  0  0
    9.2481   -0.3533   16.1664 C   0  0  0  0  0  0  0  0  0  0  0  0
 41 44  2  0  0  0
 41 40  1  0  0  0
 44 43  1  0  0  0
 40 39  2  0  0  0
 43 42  2  0  0  0
 39 42  1  0  0  0
 39 38  1  0  0  0
  3  6  1  0  0  0
  3  2  1  0  0  0
 36 37  1  0  0  0
 36  1  1  0  0  0
  6  7  1  0  0  0
 38 37  1  0  0  0
  1  2  1  0  0  0
  1 24  1  0  0  0
  2  4  2  0  0  0
  7  8  1  0  0  0
  7  9  2  0  0  0
  8 11  1  0  0  0
 24 26  1  0  0  0
 27 26  2  0  0  0
 11 12  1  0  0  0
 26 29  1  0  0  0
 26 28  2  0  0  0
 29 33  1  0  0  0
 34 33  2  0  0  0
 34 35  1  0  0  0
 12 15  2  0  0  0
 12 13  1  0  0  0
 33 32  1  0  0  0
 35 30  2  0  0  0
 15 16  1  0  0  0
 13 17  2  0  0  0
 32 31  2  0  0  0
 16 14  2  0  0  0
 30 31  1  0  0  0
 17 14  1  0  0  0
 14 18  1  0  0  0
 18 20  2  0  0  0
 18 19  1  0  0  0
 19 21  1  0  0  0
 19 22  1  0  0  0
 24 25  1  0  0  0
  3  5  1  0  0  0
  8 10  1  0  0  0
 20 23  1  0  0  0
M  END
> <minimizedAffinity>
-8.53653

$$$$
5K0H_6PK_A_303


 44 46  0  0  0  0  0  0  0  0999 V2000
    6.2776    8.3843   20.9323 C   0  0  0  0  0  0  0  0  0  0  0  0
    5.1553    7.5874   21.5308 C   0  0  0  0  0  0  0  0  0  0  0  0
    5.2502    6.1861   21.6529 N   0  0  0  0  0  0  0  0  0  0  0  0
    4.1890    8.2287   21.9262 O   0  0  0  0  0  0  0  0  0  0  0  0
    6.0367    5.6887   21.3316 H   0  0  0  0  0  0  0  0  0  0  0  0
    4.1006    5.5033   22.2913 C   0  0  0  0  0  0  0  0  0  0  0  0
    4.3043    4.0012   22.1109 C   0  0  0  0  0  0  0  0  0  0  0  0
    5.4294    3.5041   21.5575 N   0  0  0  0  0  0  0  0  0  0  0  0
    3.3924    3.2613   22.4739 O   0  0  0  0  0  0  0  0  0  0  0  0
    6.1607    4.1002   21.2765 H   0  0  0  0  0  0  0  0  0  0  0  0
    5.5350    2.0326   21.3834 C   0  0  0  0  0  0  0  0  0  0  0  0
    6.1189    1.7202   19.9706 C   0  0  0  0  0  0  0  0  0  0  0  0
    7.5430    1.7629   19.7755 C   0  0  0  0  0  0  0  0  0  0  0  0
    7.2620    1.1487   17.3489 C   0  0  0  0  0  0  0  0  0  0  0  0
    5.2623    1.3851   18.8304 C   0  0  0  0  0  0  0  0  0  0  0  0
    5.8303    1.1034   17.5385 C   0  0  0  0  0  0  0  0  0  0  0  0
    8.1087    1.4814   18.4819 C   0  0  0  0  0  0  0  0  0  0  0  0
    7.8868    0.8564   16.0073 C   0  0  0  0  0  0  0  0  0  0  0  0
    8.8241   -0.0842   15.8836 N   0  0  0  0  0  0  0  0  0  0  0  0
    7.5143    1.5311   14.9733 N   0  0  0  0  0  0  0  0  0  0  0  0
    9.1102   -0.6006   16.6714 H   0  0  0  0  0  0  0  0  0  0  0  0
    9.2299   -0.2621   15.0045 H   0  0  0  0  0  0  0  0  0  0  0  0
    6.8226    2.2260   15.0620 H   0  0  0  0  0  0  0  0  0  0  0  0
    6.9845    9.0596   22.0514 N   0  0  0  0  0  0  0  0  0  0  0  0
    6.3501    9.7923   22.3691 H   0  0  0  0  0  0  0  0  0  0  0  0
    7.5222    8.3197   23.4260 S   0  0  0  0  0  0  0  0  0  0  0  0
    6.6102    8.6819   24.4936 O   0  0  0  0  0  0  0  0  0  0  0  0
    7.7828    6.9205   23.1281 O   0  0  0  0  0  0  0  0  0  0  0  0
    9.1332    9.0961   23.7417 C   0  0  0  0  0  0  0  0  0  0  0  0
   11.5655    7.0454   26.8330 C   0  0  0  0  0  0  0  0  0  0  0  0
   12.2196    7.8127   25.7933 C   0  0  0  0  0  0  0  0  0  0  0  0
   11.4248    8.4813   24.7870 C   0  0  0  0  0  0  0  0  0  0  0  0
    9.9809    8.3884   24.8132 C   0  0  0  0  0  0  0  0  0  0  0  0
    9.3377    7.6235   25.8551 C   0  0  0  0  0  0  0  0  0  0  0  0
   10.1196    6.9527   26.8622 C   0  0  0  0  0  0  0  0  0  0  0  0
    5.8380    9.5155   19.9738 C   0  0  0  0  0  0  0  0  0  0  0  0
    6.0531    9.0789   18.6053 O   0  0  0  0  0  0  0  0  0  0  0  0
    4.8801    8.5158   17.9759 C   0  0  0  0  0  0  0  0  0  0  0  0
    5.0076    7.0928   17.4127 C   0  0  0  0  0  0  0  0  0  0  0  0
    4.4207    6.8184   16.1102 C   0  0  0  0  0  0  0  0  0  0  0  0
    4.4964    5.5017   15.5351 C   0  0  0  0  0  0  0  0  0  0  0  0
    5.6709    6.0336   18.1363 C   0  0  0  0  0  0  0  0  0  0  0  0
    5.7481    4.7145   17.5622 C   0  0  0  0  0  0  0  0  0  0  0  0
    5.1576    4.4512   16.2591 C   0  0  0  0  0  0  0  0  0  0  0  0
 41 44  2  0  0  0
 41 40  1  0  0  0
 44 43  1  0  0  0
 40 39  2  0  0  0
 43 42  2  0  0  0
 39 42  1  0  0  0
 39 38  1  0  0  0
  3  6  1  0  0  0
  3  2  1  0  0  0
 36 37  1  0  0  0
 36  1  1  0  0  0
  6  7  1  0  0  0
 38 37  1  0  0  0
  1  2  1  0  0  0
  1 24  1  0  0  0
  2  4  2  0  0  0
  7  8  1  0  0  0
  7  9  2  0  0  0
  8 11  1  0  0  0
 24 26  1  0  0  0
 27 26  2  0  0  0
 11 12  1  0  0  0
 26 29  1  0  0  0
 26 28  2  0  0  0
 29 33  1  0  0  0
 34 33  2  0  0  0
 34 35  1  0  0  0
 12 15  2  0  0  0
 12 13  1  0  0  0
 33 32  1  0  0  0
 35 30  2  0  0  0
 15 16  1  0  0  0
 13 17  2  0  0  0
 32 31  2  0  0  0
 16 14  2  0  0  0
 30 31  1  0  0  0
 17 14  1  0  0  0
 14 18  1  0  0  0
 18 20  2  0  0  0
 18 19  1  0  0  0
 19 21  1  0  0  0
 19 22  1  0  0  0
 24 25  1  0  0  0
  3  5  1  0  0  0
  8 10  1  0  0  0
 20 23  1  0  0  0
M  END
> <minimizedAffinity>
-8.52389

$$$$
5K0H_6PK_A_303


 44 46  0  0  0  0  0  0  0  0999 V2000
    6.6350    8.4847   21.6279 C   0  0  0  0  0  0  0  0  0  0  0  0
    5.4942    7.6986   22.2051 C   0  0  0  0  0  0  0  0  0  0  0  0
    5.2181    6.3912   21.7555 N   0  0  0  0  0  0  0  0  0  0  0  0
    4.8566    8.2475   23.0960 O   0  0  0  0  0  0  0  0  0  0  0  0
    5.7441    5.9660   21.0401 H   0  0  0  0  0  0  0  0  0  0  0  0
    4.0924    5.6927   22.4190 C   0  0  0  0  0  0  0  0  0  0  0  0
    4.3912    4.1965   22.3698 C   0  0  0  0  0  0  0  0  0  0  0  0
    5.2496    3.6785   21.4676 N   0  0  0  0  0  0  0  0  0  0  0  0
    3.8030    3.4777   23.1750 O   0  0  0  0  0  0  0  0  0  0  0  0
    5.7250    4.2594   20.8306 H   0  0  0  0  0  0  0  0  0  0  0  0
    5.4582    2.2078   21.4611 C   0  0  0  0  0  0  0  0  0  0  0  0
    6.0610    1.7776   20.0877 C   0  0  0  0  0  0  0  0  0  0  0  0
    5.1862    1.6168   18.9577 C   0  0  0  0  0  0  0  0  0  0  0  0
    7.1356    0.9709   17.4991 C   0  0  0  0  0  0  0  0  0  0  0  0
    7.4936    1.5289   19.9095 C   0  0  0  0  0  0  0  0  0  0  0  0
    8.0199    1.1314   18.6304 C   0  0  0  0  0  0  0  0  0  0  0  0
    5.7151    1.2184   17.6793 C   0  0  0  0  0  0  0  0  0  0  0  0
    7.6578    0.5573   16.1456 C   0  0  0  0  0  0  0  0  0  0  0  0
    6.8738   -0.0896   15.2823 N   0  0  0  0  0  0  0  0  0  0  0  0
    8.8783    0.8261   15.8272 N   0  0  0  0  0  0  0  0  0  0  0  0
    5.9418   -0.2960   15.5230 H   0  0  0  0  0  0  0  0  0  0  0  0
    7.2271   -0.3607   14.4042 H   0  0  0  0  0  0  0  0  0  0  0  0
    9.4591    1.3035   16.4628 H   0  0  0  0  0  0  0  0  0  0  0  0
    6.2133    8.9494   20.2809 N   0  0  0  0  0  0  0  0  0  0  0  0
    5.3659    9.4955   20.4362 H   0  0  0  0  0  0  0  0  0  0  0  0
    7.1342    9.8538   19.2512 S   0  0  0  0  0  0  0  0  0  0  0  0
    7.8656   10.8115   20.0578 O   0  0  0  0  0  0  0  0  0  0  0  0
    7.8453    8.9561   18.3552 O   0  0  0  0  0  0  0  0  0  0  0  0
    5.9169   10.7456   18.2409 C   0  0  0  0  0  0  0  0  0  0  0  0
    6.0841    9.7860   13.9133 C   0  0  0  0  0  0  0  0  0  0  0  0
    5.0732    9.1719   14.7489 C   0  0  0  0  0  0  0  0  0  0  0  0
    5.0197    9.4869   16.1594 C   0  0  0  0  0  0  0  0  0  0  0  0
    5.9696   10.4114   16.7399 C   0  0  0  0  0  0  0  0  0  0  0  0
    6.9721   11.0206   15.8983 C   0  0  0  0  0  0  0  0  0  0  0  0
    7.0352   10.7136   14.4922 C   0  0  0  0  0  0  0  0  0  0  0  0
    7.9363    7.6799   21.4028 C   0  0  0  0  0  0  0  0  0  0  0  0
    9.0593    8.4602   21.8922 O   0  0  0  0  0  0  0  0  0  0  0  0
    8.8309    9.0773   23.1791 C   0  0  0  0  0  0  0  0  0  0  0  0
    9.5344    8.4450   24.3890 C   0  0  0  0  0  0  0  0  0  0  0  0
   10.9633    8.6700   24.5432 C   0  0  0  0  0  0  0  0  0  0  0  0
   11.6806    8.0938   25.6492 C   0  0  0  0  0  0  0  0  0  0  0  0
    8.8294    7.6342   25.3541 C   0  0  0  0  0  0  0  0  0  0  0  0
    9.5457    7.0564   26.4624 C   0  0  0  0  0  0  0  0  0  0  0  0
   10.9745    7.2879   26.6067 C   0  0  0  0  0  0  0  0  0  0  0  0
 41 44  2  0  0  0
 41 40  1  0  0  0
 44 43  1  0  0  0
 40 39  2  0  0  0
 43 42  2  0  0  0
 39 42  1  0  0  0
 39 38  1  0  0  0
  3  6  1  0  0  0
  3  2  1  0  0  0
 36 37  1  0  0  0
 36  1  1  0  0  0
  6  7  1  0  0  0
 38 37  1  0  0  0
  1  2  1  0  0  0
  1 24  1  0  0  0
  2  4  2  0  0  0
  7  8  1  0  0  0
  7  9  2  0  0  0
  8 11  1  0  0  0
 24 26  1  0  0  0
 27 26  2  0  0  0
 11 12  1  0  0  0
 26 29  1  0  0  0
 26 28  2  0  0  0
 29 33  1  0  0  0
 34 33  2  0  0  0
 34 35  1  0  0  0
 12 15  2  0  0  0
 12 13  1  0  0  0
 33 32  1  0  0  0
 35 30  2  0  0  0
 15 16  1  0  0  0
 13 17  2  0  0  0
 32 31  2  0  0  0
 16 14  2  0  0  0
 30 31  1  0  0  0
 17 14  1  0  0  0
 14 18  1  0  0  0
 18 20  2  0  0  0
 18 19  1  0  0  0
 19 21  1  0  0  0
 19 22  1  0  0  0
 24 25  1  0  0  0
  3  5  1  0  0  0
  8 10  1  0  0  0
 20 23  1  0  0  0
M  END
> <minimizedAffinity>
-8.50280

$$$$
5K0H_6PK_A_303


 44 46  0  0  0  0  0  0  0  0999 V2000
    4.2576    7.7498   21.4334 C   0  0  0  0  0  0  0  0  0  0  0  0
    3.4567    6.4890   21.5809 C   0  0  0  0  0  0  0  0  0  0  0  0
    4.0728    5.2850   21.9786 N   0  0  0  0  0  0  0  0  0  0  0  0
    2.2538    6.5859   21.3685 O   0  0  0  0  0  0  0  0  0  0  0  0
    5.0410    5.2280   22.1476 H   0  0  0  0  0  0  0  0  0  0  0  0
    3.1825    4.1101   22.1282 C   0  0  0  0  0  0  0  0  0  0  0  0
    4.0497    2.8607   21.9969 C   0  0  0  0  0  0  0  0  0  0  0  0
    5.3532    2.9398   21.6597 N   0  0  0  0  0  0  0  0  0  0  0  0
    3.5074    1.7752   22.1930 O   0  0  0  0  0  0  0  0  0  0  0  0
    5.7853    3.8121   21.5124 H   0  0  0  0  0  0  0  0  0  0  0  0
    6.1193    1.6752   21.5166 C   0  0  0  0  0  0  0  0  0  0  0  0
    6.5382    1.4910   20.0249 C   0  0  0  0  0  0  0  0  0  0  0  0
    7.9257    1.2875   19.7064 C   0  0  0  0  0  0  0  0  0  0  0  0
    7.3753    1.1455   17.2525 C   0  0  0  0  0  0  0  0  0  0  0  0
    5.5625    1.5201   18.9326 C   0  0  0  0  0  0  0  0  0  0  0  0
    5.9796    1.3489   17.5659 C   0  0  0  0  0  0  0  0  0  0  0  0
    8.3405    1.1171   18.3383 C   0  0  0  0  0  0  0  0  0  0  0  0
    7.8428    0.9611   15.8300 C   0  0  0  0  0  0  0  0  0  0  0  0
    7.2438    1.6056   14.8279 N   0  0  0  0  0  0  0  0  0  0  0  0
    8.8264    0.1643   15.5836 N   0  0  0  0  0  0  0  0  0  0  0  0
    6.4927    2.2144   15.0134 H   0  0  0  0  0  0  0  0  0  0  0  0
    7.5528    1.4727   13.9027 H   0  0  0  0  0  0  0  0  0  0  0  0
    9.2703   -0.3127   16.3217 H   0  0  0  0  0  0  0  0  0  0  0  0
    4.3404    8.3792   22.7769 N   0  0  0  0  0  0  0  0  0  0  0  0
    3.4654    8.1386   23.2427 H   0  0  0  0  0  0  0  0  0  0  0  0
    5.5231    8.0948   23.8933 S   0  0  0  0  0  0  0  0  0  0  0  0
    5.4920    9.1919   24.8411 O   0  0  0  0  0  0  0  0  0  0  0  0
    5.4024    6.7221   24.3574 O   0  0  0  0  0  0  0  0  0  0  0  0
    7.0633    8.1899   22.9359 C   0  0  0  0  0  0  0  0  0  0  0  0
   10.7490    8.3967   25.3957 C   0  0  0  0  0  0  0  0  0  0  0  0
    9.6216    7.6101   25.8515 C   0  0  0  0  0  0  0  0  0  0  0  0
    8.4213    7.5432   25.0476 C   0  0  0  0  0  0  0  0  0  0  0  0
    8.3405    8.2569   23.7914 C   0  0  0  0  0  0  0  0  0  0  0  0
    9.4704    9.0362   23.3439 C   0  0  0  0  0  0  0  0  0  0  0  0
   10.6708    9.1107   24.1370 C   0  0  0  0  0  0  0  0  0  0  0  0
    3.6295    8.8195   20.5099 C   0  0  0  0  0  0  0  0  0  0  0  0
    4.6906    9.4793   19.7694 O   0  0  0  0  0  0  0  0  0  0  0  0
    5.0571    8.8086   18.5426 C   0  0  0  0  0  0  0  0  0  0  0  0
    5.8653    7.5093   18.6741 C   0  0  0  0  0  0  0  0  0  0  0  0
    7.1827    7.5831   19.2866 C   0  0  0  0  0  0  0  0  0  0  0  0
    7.9928    6.4025   19.4267 C   0  0  0  0  0  0  0  0  0  0  0  0
    5.3664    6.2396   18.2004 C   0  0  0  0  0  0  0  0  0  0  0  0
    6.1758    5.0560   18.3398 C   0  0  0  0  0  0  0  0  0  0  0  0
    7.4917    5.1414   18.9538 C   0  0  0  0  0  0  0  0  0  0  0  0
 41 44  2  0  0  0
 41 40  1  0  0  0
 44 43  1  0  0  0
 40 39  2  0  0  0
 43 42  2  0  0  0
 39 42  1  0  0  0
 39 38  1  0  0  0
  3  6  1  0  0  0
  3  2  1  0  0  0
 36 37  1  0  0  0
 36  1  1  0  0  0
  6  7  1  0  0  0
 38 37  1  0  0  0
  1  2  1  0  0  0
  1 24  1  0  0  0
  2  4  2  0  0  0
  7  8  1  0  0  0
  7  9  2  0  0  0
  8 11  1  0  0  0
 24 26  1  0  0  0
 27 26  2  0  0  0
 11 12  1  0  0  0
 26 29  1  0  0  0
 26 28  2  0  0  0
 29 33  1  0  0  0
 34 33  2  0  0  0
 34 35  1  0  0  0
 12 15  2  0  0  0
 12 13  1  0  0  0
 33 32  1  0  0  0
 35 30  2  0  0  0
 15 16  1  0  0  0
 13 17  2  0  0  0
 32 31  2  0  0  0
 16 14  2  0  0  0
 30 31  1  0  0  0
 17 14  1  0  0  0
 14 18  1  0  0  0
 18 20  2  0  0  0
 18 19  1  0  0  0
 19 21  1  0  0  0
 19 22  1  0  0  0
 24 25  1  0  0  0
  3  5  1  0  0  0
  8 10  1  0  0  0
 20 23  1  0  0  0
M  END
> <minimizedAffinity>
-8.50086

$$$$
