5K0H_6PK_A_303
  RCSB PDB12061718323D
Coordinates from PDB:5K0H:A:303 Model:1 without hydrogens
 38 40  0  0  0  0            999 V2000
    2.7430    9.8280   25.0830   C 0  0  0  0  0  0  0  0  0  0  0  0
    3.5580    8.8150   25.7210   C 0  0  0  0  0  0  0  0  0  0  0  0
    4.3010    7.8760   24.9100   C 0  0  0  0  0  0  0  0  0  0  0  0
    5.0220    6.9430   22.6010   C 0  0  0  0  0  0  0  0  0  0  0  0
    5.5710    4.8380   19.9740   C 0  0  0  0  0  0  0  0  0  0  0  0
    6.8560    5.6130   20.0040   C 0  0  0  0  0  0  0  0  0  0  0  0
    8.3730    7.3850   19.2340   C 0  0  0  0  0  0  0  0  0  0  0  0
    9.0580    9.9770   22.0160   C 0  0  0  0  0  0  0  0  0  0  0  0
    9.3710    9.1680   23.3130   C 0  0  0  0  0  0  0  0  0  0  0  0
   10.6330    9.3640   23.9740   C 0  0  0  0  0  0  0  0  0  0  0  0
   10.0080    7.6780   25.7380   C 0  0  0  0  0  0  0  0  0  0  0  0
   10.3690    6.9260   26.9950   C 0  0  0  0  0  0  0  0  0  0  0  0
    9.4380    6.2640   27.6830   N 0  0  0  0  0  0  0  0  0  0  0  0
    5.6410    3.4840   19.2300   C 0  0  0  0  0  0  0  0  0  0  0  0
    6.6340    1.2710   19.3890   C 0  0  0  0  0  0  0  0  0  0  0  0
    7.6640    1.0800   18.2660   C 0  0  0  0  0  0  0  0  0  0  0  0
    7.1710    0.9180   16.9070   C 0  0  0  0  0  0  0  0  0  0  0  0
    8.0860    0.7230   15.8140   C 0  0  0  0  0  0  0  0  0  0  0  0
    4.2350    7.9430   23.4660   C 0  0  0  0  0  0  0  0  0  0  0  0
    4.1790    5.3570   22.3330   S 0  0  0  0  0  0  0  0  0  0  0  0
    5.2240    4.5050   21.3800   N 0  0  0  0  0  0  0  0  0  0  0  0
    6.5260    2.5940   19.9610   O 0  0  0  0  0  0  0  0  0  0  0  0
    9.0850    1.0430   18.5210   C 0  0  0  0  0  0  0  0  0  0  0  0
   10.0030    0.8480   17.4280   C 0  0  0  0  0  0  0  0  0  0  0  0
    9.4990    0.6870   16.0730   C 0  0  0  0  0  0  0  0  0  0  0  0
    7.0870    6.6630   19.0920   N 0  0  0  0  0  0  0  0  0  0  0  0
    8.2340    8.3360   20.4200   C 0  0  0  0  0  0  0  0  0  0  0  0
    9.2630    9.1050   20.8310   N 0  0  0  0  0  0  0  0  0  0  0  0
    8.4200    8.2100   23.8820   C 0  0  0  0  0  0  0  0  0  0  0  0
    8.7380    7.4770   25.0790   C 0  0  0  0  0  0  0  0  0  0  0  0
   11.5900    6.9330   27.4100   N 0  0  0  0  0  0  0  0  0  0  0  0
   10.9490    8.6290   25.1710   C 0  0  0  0  0  0  0  0  0  0  0  0
    7.1500    8.3600   20.9990   O 0  0  0  0  0  0  0  0  0  0  0  0
    7.6560    5.2980   20.8770   O 0  0  0  0  0  0  0  0  0  0  0  0
    2.9790    5.5900   21.5530   O 0  0  0  0  0  0  0  0  0  0  0  0
    4.0950    4.7030   23.6290   O 0  0  0  0  0  0  0  0  0  0  0  0
    3.4220    8.9580   22.8390   C 0  0  0  0  0  0  0  0  0  0  0  0
    2.6770    9.8980   23.6370   C 0  0  0  0  0  0  0  0  0  0  0  0
 18 25  2  0  0  0  0
 18 17  1  0  0  0  0
 25 24  1  0  0  0  0
 17 16  2  0  0  0  0
 24 23  2  0  0  0  0
 16 23  1  0  0  0  0
 16 15  1  0  0  0  0
 26  7  1  0  0  0  0
 26  6  1  0  0  0  0
 14 22  1  0  0  0  0
 14  5  1  0  0  0  0
  7 27  1  0  0  0  0
 15 22  1  0  0  0  0
  5  6  1  0  0  0  0
  5 21  1  0  0  0  0
  6 34  2  0  0  0  0
 27 28  1  0  0  0  0
 27 33  2  0  0  0  0
 28  8  1  0  0  0  0
 21 20  1  0  0  0  0
 35 20  2  0  0  0  0
  8  9  1  0  0  0  0
 20  4  1  0  0  0  0
 20 36  2  0  0  0  0
  4 19  1  0  0  0  0
 37 19  2  0  0  0  0
 37 38  1  0  0  0  0
  9 29  2  0  0  0  0
  9 10  1  0  0  0  0
 19  3  1  0  0  0  0
 38  1  2  0  0  0  0
 29 30  1  0  0  0  0
 10 32  2  0  0  0  0
  3  2  2  0  0  0  0
 30 11  2  0  0  0  0
  1  2  1  0  0  0  0
 32 11  1  0  0  0  0
 11 12  1  0  0  0  0
 12 31  2  0  0  0  0
 12 13  1  0  0  0  0
A    1
C1
A    2
C2
A    3
C3
A    4
C7
A    5
C12
A    6
C13
A    7
C16
A    8
C20
A    9
C21
A   10
C22
A   11
C24
A   12
C27
A   13
N29
A   14
C30
A   15
C32
A   16
C33
A   17
C34
A   18
C35
A   19
C4
A   20
S8
A   21
N11
A   22
O31
A   23
C38
A   24
C37
A   25
C36
A   26
N15
A   27
C17
A   28
N19
A   29
C26
A   30
C25
A   31
N28
A   32
C23
A   33
O18
A   34
O14
A   35
O10
A   36
O9
A   37
C5
A   38
C6
M  END
>  <InstanceId>
5K0H_6PK_A_303

>  <ChemCompId>
6PK

>  <PdbId>
5K0H

>  <ChainId>
A

>  <ResidueNumber>
303

>  <InsertionCode>


>  <Model>
1

>  <AltIds>


>  <MissingHeavyAtoms>
0

>  <ObservedFormula>
C27 N5 O5 S

>  <Name>
O-benzyl-N-(benzylsulfonyl)-D-seryl-N-[(4-carbamimidoylphenyl)methyl]glycinamide

>  <SystematicName>
(2~{R})-~{N}-[2-[(4-carbamimidoylphenyl)methylamino]-2-oxidanylidene-ethyl]-3-phenylmethoxy-2-[(phenylmethyl)sulfonylamino]propanamide

>  <Synonyms>


>  <Type>
NON-POLYMER

>  <Formula>
C27 H31 N5 O5 S

>  <MolecularWeight>
537.631

>  <ModifiedDate>
2016-07-01

>  <Parent>


>  <OneLetterCode>


>  <SubcomponentList>


>  <AmbiguousFlag>
N

>  <InChI>
InChI=1S/C27H31N5O5S/c28-26(29)23-13-11-20(12-14-23)15-30-25(33)16-31-27(34)24(18-37-17-21-7-3-1-4-8-21)32-38(35,36)19-22-9-5-2-6-10-22/h1-14,24,32H,15-19H2,(H3,28,29)(H,30,33)(H,31,34)/t24-/m1/s1

>  <InChIKey>
RXJPCNAPBKYKMA-XMMPIXPASA-N

>  <SMILES>
[H]/N=C(\c1ccc(cc1)CNC(=O)CNC(=O)[C@@H](COCc2ccccc2)NS(=O)(=O)Cc3ccccc3)/N

$$$$
