3WMC_NF6_A_601
  RCSB PDB12061711233D
Coordinates from PDB:3WMC:A:601 Model:1 without hydrogens
 28 31  0  0  0  0            999 V2000
  -34.5750   -2.3410  189.3930   O 0  0  0  0  0  0  0  0  0  0  0  0
  -33.9020   -1.1220  189.4290   C 0  0  0  0  0  0  0  0  0  0  0  0
  -32.7530   -0.9530  190.3390   C 0  0  0  0  0  0  0  0  0  0  0  0
  -32.0690    0.2970  190.3730   C 0  0  0  0  0  0  0  0  0  0  0  0
  -32.5140    1.3680  189.5170   C 0  0  0  0  0  0  0  0  0  0  0  0
  -31.8200    2.6470  189.5520   C 0  0  0  0  0  0  0  0  0  0  0  0
  -30.7170    2.8280  190.4220   C 0  0  0  0  0  0  0  0  0  0  0  0
  -30.2790    1.7540  191.2720   C 0  0  0  0  0  0  0  0  0  0  0  0
  -29.1480    1.9100  192.1820   N 0  0  0  0  0  0  0  0  0  0  0  0
  -29.3860    2.3230  193.5540   C 0  0  0  0  0  0  0  0  0  0  0  0
  -27.7890    1.6420  191.7230   C 0  0  0  0  0  0  0  0  0  0  0  0
  -30.9750    0.4800  191.2370   C 0  0  0  0  0  0  0  0  0  0  0  0
  -30.5310   -0.5890  192.0910   C 0  0  0  0  0  0  0  0  0  0  0  0
  -31.2150   -1.8380  192.0540   C 0  0  0  0  0  0  0  0  0  0  0  0
  -32.3170   -2.0230  191.1850   C 0  0  0  0  0  0  0  0  0  0  0  0
  -33.6620    1.1490  188.6330   C 0  0  0  0  0  0  0  0  0  0  0  0
  -34.1160    2.1840  187.7870   O 0  0  0  0  0  0  0  0  0  0  0  0
  -34.3090   -0.0900  188.6280   N 0  0  0  0  0  0  0  0  0  0  0  0
  -35.4290   -0.3000  187.7510   C 0  0  0  0  0  0  0  0  0  0  0  0
  -36.8050    0.2560  188.1450   C 0  0  0  0  0  0  0  0  0  0  0  0
  -37.9710   -0.0720  187.2050   N 0  0  0  0  0  0  0  0  0  0  0  0
  -39.2060    0.5250  187.6880   C 0  0  0  0  0  0  0  0  0  0  0  0
  -39.5860    1.9070  187.1710   C 0  0  0  0  0  0  0  0  0  0  0  0
  -39.8090    2.4360  185.5530   S 0  0  0  0  0  0  0  0  0  0  0  0
  -39.8230    2.9880  187.9210   N 0  0  0  0  0  0  0  0  0  0  0  0
  -40.1450    4.1260  187.2750   N 0  0  0  0  0  0  0  0  0  0  0  0
  -40.1970    4.0640  185.9470   C 0  0  0  0  0  0  0  0  0  0  0  0
  -40.5370    5.2070  185.0150   C 0  0  0  0  0  0  0  0  0  0  0  0
 28 27  1  0  0  0  0
 24 27  1  0  0  0  0
 24 23  1  0  0  0  0
 27 26  2  0  0  0  0
 23 22  1  0  0  0  0
 23 25  2  0  0  0  0
 21 22  1  0  0  0  0
 21 20  1  0  0  0  0
 26 25  1  0  0  0  0
 19 20  1  0  0  0  0
 19 18  1  0  0  0  0
 17 16  2  0  0  0  0
 18 16  1  0  0  0  0
 18  2  1  0  0  0  0
 16  5  1  0  0  0  0
  1  2  2  0  0  0  0
  2  3  1  0  0  0  0
  5  6  2  0  0  0  0
  5  4  1  0  0  0  0
  6  7  1  0  0  0  0
  3  4  2  0  0  0  0
  3 15  1  0  0  0  0
  4 12  1  0  0  0  0
  7  8  2  0  0  0  0
 15 14  2  0  0  0  0
 12  8  1  0  0  0  0
 12 13  2  0  0  0  0
  8  9  1  0  0  0  0
 11  9  1  0  0  0  0
 14 13  1  0  0  0  0
  9 10  1  0  0  0  0
A    1
OAH
A    2
CAC
A    3
CAD
A    4
CAE
A    5
CAF
A    6
CAM
A    7
CAL
A    8
CAK
A    9
NAZ
A   10
CBA
A   11
CBB
A   12
CAJ
A   13
CAP
A   14
CAO
A   15
CAN
A   16
CAG
A   17
OAI
A   18
NAB
A   19
CAA
A   20
CAW
A   21
NAX
A   22
CAY
A   23
CAQ
A   24
SAU
A   25
NAR
A   26
NAS
A   27
CAT
A   28
CAV
M  END
>  <InstanceId>
3WMC_NF6_A_601

>  <ChemCompId>
NF6

>  <PdbId>
3WMC

>  <ChainId>
A

>  <ResidueNumber>
601

>  <InsertionCode>


>  <Model>
1

>  <AltIds>


>  <MissingHeavyAtoms>
0

>  <ObservedFormula>
C20 N5 O2 S

>  <Name>
6-(dimethylamino)-2-(2-{[(5-methyl-1,3,4-thiadiazol-2-yl)methyl]amino}ethyl)-1H-benzo[de]isoquinoline-1,3(2H)-dione

>  <SystematicName>
6-(dimethylamino)-2-[2-[(5-methyl-1,3,4-thiadiazol-2-yl)methylamino]ethyl]benzo[de]isoquinoline-1,3-dione

>  <Synonyms>


>  <Type>
NON-POLYMER

>  <Formula>
C20 H21 N5 O2 S

>  <MolecularWeight>
395.478

>  <ModifiedDate>
2014-10-31

>  <Parent>


>  <OneLetterCode>


>  <SubcomponentList>


>  <AmbiguousFlag>
N

>  <InChI>
InChI=1S/C20H21N5O2S/c1-12-22-23-17(28-12)11-21-9-10-25-19(26)14-6-4-5-13-16(24(2)3)8-7-15(18(13)14)20(25)27/h4-8,21H,9-11H2,1-3H3

>  <InChIKey>
MZVBLDCRQKXSHR-UHFFFAOYSA-N

>  <SMILES>
Cc1nnc(s1)CNCCN2C(=O)c3cccc4c3c(ccc4N(C)C)C2=O

$$$$
