3WMC_NF6_A_601


 29 32  0  0  0  0  0  0  0  0999 V2000
  -37.7629    0.9897  188.0451 O   0  0  0  0  0  0  0  0  0  0  0  0
  -37.2040   -0.2075  188.4862 C   0  0  0  0  0  0  0  0  0  0  0  0
  -35.7465   -0.2942  188.6984 C   0  0  0  0  0  0  0  0  0  0  0  0
  -35.1797   -1.5221  189.1483 C   0  0  0  0  0  0  0  0  0  0  0  0
  -36.0427   -2.6517  189.3872 C   0  0  0  0  0  0  0  0  0  0  0  0
  -35.4666   -3.9082  189.8431 C   0  0  0  0  0  0  0  0  0  0  0  0
  -34.0690   -4.0104  190.0488 C   0  0  0  0  0  0  0  0  0  0  0  0
  -33.2152   -2.8784  189.8091 C   0  0  0  0  0  0  0  0  0  0  0  0
  -33.7924   -1.6269  189.3516 C   0  0  0  0  0  0  0  0  0  0  0  0
  -32.9313   -0.4995  189.1134 C   0  0  0  0  0  0  0  0  0  0  0  0
  -33.5003    0.7273  188.6655 C   0  0  0  0  0  0  0  0  0  0  0  0
  -34.8968    0.8336  188.4599 C   0  0  0  0  0  0  0  0  0  0  0  0
  -37.4836   -2.5135  189.1589 C   0  0  0  0  0  0  0  0  0  0  0  0
  -38.3477   -3.6068  189.3851 O   0  0  0  0  0  0  0  0  0  0  0  0
  -38.0034   -1.2939  188.7160 N   0  0  0  0  0  0  0  0  0  0  0  0
  -31.7708   -2.9526  190.0084 N   0  0  0  0  0  0  0  0  0  0  0  0
  -31.2043   -2.5583  191.2864 C   0  0  0  0  0  0  0  0  0  0  0  0
  -30.9016   -3.4305  188.9381 C   0  0  0  0  0  0  0  0  0  0  0  0
  -39.4195   -1.1636  188.5032 C   0  0  0  0  0  0  0  0  0  0  0  0
  -40.3232   -0.7788  189.6834 C   0  0  0  0  0  0  0  0  0  0  0  0
  -41.6108   -0.0200  189.3411 N   0  0  0  0  0  0  0  0  0  0  0  0
  -42.4145   -0.5753  189.6344 H   0  0  0  0  0  0  0  0  0  0  0  0
  -41.6984    0.2275  187.9107 C   0  0  0  0  0  0  0  0  0  0  0  0
  -41.2229    1.5761  187.3846 C   0  0  0  0  0  0  0  0  0  0  0  0
  -41.3189    2.2145  185.7938 S   0  0  0  0  0  0  0  0  0  0  0  0
  -40.6273    2.5334  188.1029 N   0  0  0  0  0  0  0  0  0  0  0  0
  -40.2766    3.6610  187.4537 N   0  0  0  0  0  0  0  0  0  0  0  0
  -40.5587    3.7139  186.1546 C   0  0  0  0  0  0  0  0  0  0  0  0
  -40.2628    4.8716  185.2257 C   0  0  0  0  0  0  0  0  0  0  0  0
 29 28  1  0  0  0
 25 28  1  0  0  0
 25 24  1  0  0  0
 28 27  2  0  0  0
 24 23  1  0  0  0
 24 26  2  0  0  0
 21 23  1  0  0  0
 21 20  1  0  0  0
 27 26  1  0  0  0
 19 20  1  0  0  0
 19 15  1  0  0  0
 14 13  2  0  0  0
 15 13  1  0  0  0
 15  2  1  0  0  0
 13  5  1  0  0  0
  1  2  2  0  0  0
  2  3  1  0  0  0
  5  6  2  0  0  0
  5  4  1  0  0  0
  6  7  1  0  0  0
  3  4  2  0  0  0
  3 12  1  0  0  0
  4  9  1  0  0  0
  7  8  2  0  0  0
 12 11  2  0  0  0
  9  8  1  0  0  0
  9 10  2  0  0  0
  8 16  1  0  0  0
 18 16  1  0  0  0
 11 10  1  0  0  0
 16 17  1  0  0  0
 21 22  1  0  0  0
M  END
> <minimizedAffinity>
-9.33516

$$$$
3WMC_NF6_A_601


 29 32  0  0  0  0  0  0  0  0999 V2000
  -38.2907   -3.5562  189.3489 O   0  0  0  0  0  0  0  0  0  0  0  0
  -37.4670   -2.4548  189.1282 C   0  0  0  0  0  0  0  0  0  0  0  0
  -36.0132   -2.5794  189.3463 C   0  0  0  0  0  0  0  0  0  0  0  0
  -35.1752   -1.4488  189.1206 C   0  0  0  0  0  0  0  0  0  0  0  0
  -35.7663   -0.2090  188.6832 C   0  0  0  0  0  0  0  0  0  0  0  0
  -34.9138    0.9487  188.4554 C   0  0  0  0  0  0  0  0  0  0  0  0
  -33.5163    0.8480  188.6631 C   0  0  0  0  0  0  0  0  0  0  0  0
  -32.9347   -0.3929  189.0986 C   0  0  0  0  0  0  0  0  0  0  0  0
  -33.7880   -1.5454  189.3278 C   0  0  0  0  0  0  0  0  0  0  0  0
  -33.1983   -2.7828  189.7641 C   0  0  0  0  0  0  0  0  0  0  0  0
  -34.0375   -3.9120  189.9873 C   0  0  0  0  0  0  0  0  0  0  0  0
  -35.4344   -3.8155  189.7797 C   0  0  0  0  0  0  0  0  0  0  0  0
  -37.2162   -0.1375  188.4834 C   0  0  0  0  0  0  0  0  0  0  0  0
  -37.8170    1.0667  188.0566 O   0  0  0  0  0  0  0  0  0  0  0  0
  -38.0064   -1.2667  188.7163 N   0  0  0  0  0  0  0  0  0  0  0  0
  -31.4987   -0.5280  189.3249 N   0  0  0  0  0  0  0  0  0  0  0  0
  -30.6298   -0.8777  188.2148 C   0  0  0  0  0  0  0  0  0  0  0  0
  -30.9363   -0.3020  190.6523 C   0  0  0  0  0  0  0  0  0  0  0  0
  -39.4274   -1.1911  188.5091 C   0  0  0  0  0  0  0  0  0  0  0  0
  -40.3403   -0.8378  189.6920 C   0  0  0  0  0  0  0  0  0  0  0  0
  -41.5942   -0.0171  189.3682 N   0  0  0  0  0  0  0  0  0  0  0  0
  -42.4192   -0.5290  189.6810 H   0  0  0  0  0  0  0  0  0  0  0  0
  -41.6968    0.2247  187.9379 C   0  0  0  0  0  0  0  0  0  0  0  0
  -41.2233    1.5698  187.4009 C   0  0  0  0  0  0  0  0  0  0  0  0
  -41.3314    2.2003  185.8078 S   0  0  0  0  0  0  0  0  0  0  0  0
  -40.6199    2.5295  188.1094 N   0  0  0  0  0  0  0  0  0  0  0  0
  -40.2726    3.6532  187.4516 N   0  0  0  0  0  0  0  0  0  0  0  0
  -40.5655    3.7001  186.1546 C   0  0  0  0  0  0  0  0  0  0  0  0
  -40.2753    4.8525  185.2174 C   0  0  0  0  0  0  0  0  0  0  0  0
 29 28  1  0  0  0
 25 28  1  0  0  0
 25 24  1  0  0  0
 28 27  2  0  0  0
 24 23  1  0  0  0
 24 26  2  0  0  0
 21 23  1  0  0  0
 21 20  1  0  0  0
 27 26  1  0  0  0
 19 20  1  0  0  0
 19 15  1  0  0  0
 14 13  2  0  0  0
 15 13  1  0  0  0
 15  2  1  0  0  0
 13  5  1  0  0  0
  1  2  2  0  0  0
  2  3  1  0  0  0
  5  6  2  0  0  0
  5  4  1  0  0  0
  6  7  1  0  0  0
  3  4  2  0  0  0
  3 12  1  0  0  0
  4  9  1  0  0  0
  7  8  2  0  0  0
 12 11  2  0  0  0
  9  8  1  0  0  0
  9 10  2  0  0  0
  8 16  1  0  0  0
 18 16  1  0  0  0
 11 10  1  0  0  0
 16 17  1  0  0  0
 21 22  1  0  0  0
M  END
> <minimizedAffinity>
-9.28028

$$$$
3WMC_NF6_A_601


 29 32  0  0  0  0  0  0  0  0999 V2000
  -37.3655    0.7146  187.7494 O   0  0  0  0  0  0  0  0  0  0  0  0
  -36.5469   -0.2466  188.3377 C   0  0  0  0  0  0  0  0  0  0  0  0
  -35.1356    0.0764  188.6218 C   0  0  0  0  0  0  0  0  0  0  0  0
  -34.3019   -0.9115  189.2224 C   0  0  0  0  0  0  0  0  0  0  0  0
  -34.8561   -2.2037  189.5399 C   0  0  0  0  0  0  0  0  0  0  0  0
  -34.0065   -3.2160  190.1498 C   0  0  0  0  0  0  0  0  0  0  0  0
  -32.6483   -2.9244  190.4266 C   0  0  0  0  0  0  0  0  0  0  0  0
  -32.1037   -1.6323  190.1074 C   0  0  0  0  0  0  0  0  0  0  0  0
  -32.9529   -0.6253  189.4964 C   0  0  0  0  0  0  0  0  0  0  0  0
  -32.4002    0.6645  189.1796 C   0  0  0  0  0  0  0  0  0  0  0  0
  -33.2357    1.6508  188.5811 C   0  0  0  0  0  0  0  0  0  0  0  0
  -34.5938    1.3634  188.3042 C   0  0  0  0  0  0  0  0  0  0  0  0
  -36.2636   -2.4743  189.2352 C   0  0  0  0  0  0  0  0  0  0  0  0
  -36.8273   -3.7332  189.5363 O   0  0  0  0  0  0  0  0  0  0  0  0
  -37.0503   -1.4814  188.6445 N   0  0  0  0  0  0  0  0  0  0  0  0
  -30.7073   -1.3020  190.3769 N   0  0  0  0  0  0  0  0  0  0  0  0
  -30.3509   -0.6792  191.6397 C   0  0  0  0  0  0  0  0  0  0  0  0
  -29.6739   -1.6050  189.3922 C   0  0  0  0  0  0  0  0  0  0  0  0
  -38.4330   -1.7516  188.3570 C   0  0  0  0  0  0  0  0  0  0  0  0
  -39.4955   -1.4388  189.4206 C   0  0  0  0  0  0  0  0  0  0  0  0
  -39.9209    0.0283  189.5529 N   0  0  0  0  0  0  0  0  0  0  0  0
  -40.1157    0.2331  190.5329 H   0  0  0  0  0  0  0  0  0  0  0  0
  -41.1139    0.2921  188.7641 C   0  0  0  0  0  0  0  0  0  0  0  0
  -41.0378    1.3627  187.6826 C   0  0  0  0  0  0  0  0  0  0  0  0
  -40.1684    2.8431  187.6815 S   0  0  0  0  0  0  0  0  0  0  0  0
  -41.6593    1.3290  186.4994 N   0  0  0  0  0  0  0  0  0  0  0  0
  -41.4685    2.3775  185.6747 N   0  0  0  0  0  0  0  0  0  0  0  0
  -40.6759    3.3495  186.1188 C   0  0  0  0  0  0  0  0  0  0  0  0
  -40.3159    4.6157  185.3720 C   0  0  0  0  0  0  0  0  0  0  0  0
 29 28  1  0  0  0
 25 28  1  0  0  0
 25 24  1  0  0  0
 28 27  2  0  0  0
 24 23  1  0  0  0
 24 26  2  0  0  0
 21 23  1  0  0  0
 21 20  1  0  0  0
 27 26  1  0  0  0
 19 20  1  0  0  0
 19 15  1  0  0  0
 14 13  2  0  0  0
 15 13  1  0  0  0
 15  2  1  0  0  0
 13  5  1  0  0  0
  1  2  2  0  0  0
  2  3  1  0  0  0
  5  6  2  0  0  0
  5  4  1  0  0  0
  6  7  1  0  0  0
  3  4  2  0  0  0
  3 12  1  0  0  0
  4  9  1  0  0  0
  7  8  2  0  0  0
 12 11  2  0  0  0
  9  8  1  0  0  0
  9 10  2  0  0  0
  8 16  1  0  0  0
 18 16  1  0  0  0
 11 10  1  0  0  0
 16 17  1  0  0  0
 21 22  1  0  0  0
M  END
> <minimizedAffinity>
-8.65070

$$$$
3WMC_NF6_A_601


 29 32  0  0  0  0  0  0  0  0999 V2000
  -34.0959    0.0992  185.3762 O   0  0  0  0  0  0  0  0  0  0  0  0
  -33.6506    1.3497  185.7983 C   0  0  0  0  0  0  0  0  0  0  0  0
  -33.3700    2.3969  184.7975 C   0  0  0  0  0  0  0  0  0  0  0  0
  -32.9130    3.6741  185.2348 C   0  0  0  0  0  0  0  0  0  0  0  0
  -32.7360    3.9151  186.6450 C   0  0  0  0  0  0  0  0  0  0  0  0
  -32.2659    5.2172  187.0947 C   0  0  0  0  0  0  0  0  0  0  0  0
  -31.9884    6.2331  186.1475 C   0  0  0  0  0  0  0  0  0  0  0  0
  -32.1685    5.9847  184.7426 C   0  0  0  0  0  0  0  0  0  0  0  0
  -32.6350    4.6838  184.2967 C   0  0  0  0  0  0  0  0  0  0  0  0
  -32.8118    4.4432  182.8896 C   0  0  0  0  0  0  0  0  0  0  0  0
  -33.2704    3.1665  182.4549 C   0  0  0  0  0  0  0  0  0  0  0  0
  -33.5499    2.1491  183.3986 C   0  0  0  0  0  0  0  0  0  0  0  0
  -33.0269    2.8403  187.5976 C   0  0  0  0  0  0  0  0  0  0  0  0
  -32.8596    3.0533  188.9832 O   0  0  0  0  0  0  0  0  0  0  0  0
  -33.4719    1.5999  187.1316 N   0  0  0  0  0  0  0  0  0  0  0  0
  -31.8880    7.0097  183.7415 N   0  0  0  0  0  0  0  0  0  0  0  0
  -32.9279    7.9553  183.3757 C   0  0  0  0  0  0  0  0  0  0  0  0
  -30.5702    7.0936  183.1203 C   0  0  0  0  0  0  0  0  0  0  0  0
  -33.7640    0.5533  188.0734 C   0  0  0  0  0  0  0  0  0  0  0  0
  -35.1896    0.4192  188.6277 C   0  0  0  0  0  0  0  0  0  0  0  0
  -36.2852    0.0548  187.6189 N   0  0  0  0  0  0  0  0  0  0  0  0
  -36.4547    0.8525  187.0062 H   0  0  0  0  0  0  0  0  0  0  0  0
  -37.5208   -0.2924  188.3029 C   0  0  0  0  0  0  0  0  0  0  0  0
  -38.8369   -0.0574  187.5720 C   0  0  0  0  0  0  0  0  0  0  0  0
  -39.6416    1.4214  187.2357 S   0  0  0  0  0  0  0  0  0  0  0  0
  -39.6211   -1.0024  187.0435 N   0  0  0  0  0  0  0  0  0  0  0  0
  -40.7523   -0.5937  186.4357 N   0  0  0  0  0  0  0  0  0  0  0  0
  -40.9807    0.7169  186.4193 C   0  0  0  0  0  0  0  0  0  0  0  0
  -42.1766    1.4044  185.7964 C   0  0  0  0  0  0  0  0  0  0  0  0
 29 28  1  0  0  0
 25 28  1  0  0  0
 25 24  1  0  0  0
 28 27  2  0  0  0
 24 23  1  0  0  0
 24 26  2  0  0  0
 21 23  1  0  0  0
 21 20  1  0  0  0
 27 26  1  0  0  0
 19 20  1  0  0  0
 19 15  1  0  0  0
 14 13  2  0  0  0
 15 13  1  0  0  0
 15  2  1  0  0  0
 13  5  1  0  0  0
  1  2  2  0  0  0
  2  3  1  0  0  0
  5  6  2  0  0  0
  5  4  1  0  0  0
  6  7  1  0  0  0
  3  4  2  0  0  0
  3 12  1  0  0  0
  4  9  1  0  0  0
  7  8  2  0  0  0
 12 11  2  0  0  0
  9  8  1  0  0  0
  9 10  2  0  0  0
  8 16  1  0  0  0
 18 16  1  0  0  0
 11 10  1  0  0  0
 16 17  1  0  0  0
 21 22  1  0  0  0
M  END
> <minimizedAffinity>
-7.94333

$$$$
3WMC_NF6_A_601


 29 32  0  0  0  0  0  0  0  0999 V2000
  -33.7090    7.8047  185.1636 O   0  0  0  0  0  0  0  0  0  0  0  0
  -33.3232    6.4682  185.0916 C   0  0  0  0  0  0  0  0  0  0  0  0
  -33.3285    5.6435  186.3150 C   0  0  0  0  0  0  0  0  0  0  0  0
  -32.9312    4.2770  186.2358 C   0  0  0  0  0  0  0  0  0  0  0  0
  -32.5341    3.7305  184.9625 C   0  0  0  0  0  0  0  0  0  0  0  0
  -32.1243    2.3363  184.8789 C   0  0  0  0  0  0  0  0  0  0  0  0
  -32.1201    1.5308  186.0439 C   0  0  0  0  0  0  0  0  0  0  0  0
  -32.5186    2.0836  187.3102 C   0  0  0  0  0  0  0  0  0  0  0  0
  -32.9244    3.4756  187.3911 C   0  0  0  0  0  0  0  0  0  0  0  0
  -33.3209    4.0211  188.6617 C   0  0  0  0  0  0  0  0  0  0  0  0
  -33.7193    5.3866  188.7380 C   0  0  0  0  0  0  0  0  0  0  0  0
  -33.7258    6.1945  187.5756 C   0  0  0  0  0  0  0  0  0  0  0  0
  -32.5445    4.5930  183.7779 C   0  0  0  0  0  0  0  0  0  0  0  0
  -32.1584    4.0796  182.5207 O   0  0  0  0  0  0  0  0  0  0  0  0
  -32.9388    5.9290  183.8942 N   0  0  0  0  0  0  0  0  0  0  0  0
  -32.5219    1.2806  188.5295 N   0  0  0  0  0  0  0  0  0  0  0  0
  -33.6498    0.4092  188.8086 C   0  0  0  0  0  0  0  0  0  0  0  0
  -31.3965    1.3418  189.4565 C   0  0  0  0  0  0  0  0  0  0  0  0
  -32.9551    6.7664  182.7254 C   0  0  0  0  0  0  0  0  0  0  0  0
  -31.6904    7.5504  182.3464 C   0  0  0  0  0  0  0  0  0  0  0  0
  -31.3175    8.7288  183.2536 N   0  0  0  0  0  0  0  0  0  0  0  0
  -31.2977    9.5847  182.6991 H   0  0  0  0  0  0  0  0  0  0  0  0
  -30.0107    8.5212  183.8571 C   0  0  0  0  0  0  0  0  0  0  0  0
  -29.9200    7.6176  185.0806 C   0  0  0  0  0  0  0  0  0  0  0  0
  -29.4139    5.9803  185.1844 S   0  0  0  0  0  0  0  0  0  0  0  0
  -30.2296    7.9610  186.3350 N   0  0  0  0  0  0  0  0  0  0  0  0
  -30.0845    7.0161  187.2848 N   0  0  0  0  0  0  0  0  0  0  0  0
  -29.6444    5.8272  186.8813 C   0  0  0  0  0  0  0  0  0  0  0  0
  -29.4036    4.6208  187.7631 C   0  0  0  0  0  0  0  0  0  0  0  0
 29 28  1  0  0  0
 25 28  1  0  0  0
 25 24  1  0  0  0
 28 27  2  0  0  0
 24 23  1  0  0  0
 24 26  2  0  0  0
 21 23  1  0  0  0
 21 20  1  0  0  0
 27 26  1  0  0  0
 19 20  1  0  0  0
 19 15  1  0  0  0
 14 13  2  0  0  0
 15 13  1  0  0  0
 15  2  1  0  0  0
 13  5  1  0  0  0
  1  2  2  0  0  0
  2  3  1  0  0  0
  5  6  2  0  0  0
  5  4  1  0  0  0
  6  7  1  0  0  0
  3  4  2  0  0  0
  3 12  1  0  0  0
  4  9  1  0  0  0
  7  8  2  0  0  0
 12 11  2  0  0  0
  9  8  1  0  0  0
  9 10  2  0  0  0
  8 16  1  0  0  0
 18 16  1  0  0  0
 11 10  1  0  0  0
 16 17  1  0  0  0
 21 22  1  0  0  0
M  END
> <minimizedAffinity>
-7.60238

$$$$
3WMC_NF6_A_601


 29 32  0  0  0  0  0  0  0  0999 V2000
  -34.5601    1.5132  187.9129 O   0  0  0  0  0  0  0  0  0  0  0  0
  -34.2809    0.2793  188.4957 C   0  0  0  0  0  0  0  0  0  0  0  0
  -35.3798   -0.6748  188.7386 C   0  0  0  0  0  0  0  0  0  0  0  0
  -35.0887   -1.9354  189.3367 C   0  0  0  0  0  0  0  0  0  0  0  0
  -33.7273   -2.2508  189.6901 C   0  0  0  0  0  0  0  0  0  0  0  0
  -33.4272   -3.5357  190.3045 C   0  0  0  0  0  0  0  0  0  0  0  0
  -34.4704   -4.4625  190.5481 C   0  0  0  0  0  0  0  0  0  0  0  0
  -35.8257   -4.1402  190.1916 C   0  0  0  0  0  0  0  0  0  0  0  0
  -36.1225   -2.8564  189.5813 C   0  0  0  0  0  0  0  0  0  0  0  0
  -37.4810   -2.5414  189.2284 C   0  0  0  0  0  0  0  0  0  0  0  0
  -37.7693   -1.2817  188.6290 C   0  0  0  0  0  0  0  0  0  0  0  0
  -36.7293   -0.3535  188.3830 C   0  0  0  0  0  0  0  0  0  0  0  0
  -32.6730   -1.2670  189.4296 C   0  0  0  0  0  0  0  0  0  0  0  0
  -31.3329   -1.5539  189.7685 O   0  0  0  0  0  0  0  0  0  0  0  0
  -32.9965   -0.0403  188.8428 N   0  0  0  0  0  0  0  0  0  0  0  0
  -36.9233   -5.0722  190.4327 N   0  0  0  0  0  0  0  0  0  0  0  0
  -37.8055   -4.8597  191.5669 C   0  0  0  0  0  0  0  0  0  0  0  0
  -37.1424   -6.2023  189.5359 C   0  0  0  0  0  0  0  0  0  0  0  0
  -31.9549    0.9160  188.5819 C   0  0  0  0  0  0  0  0  0  0  0  0
  -31.7207    2.0608  189.5780 C   0  0  0  0  0  0  0  0  0  0  0  0
  -31.5148    3.4575  188.9802 N   0  0  0  0  0  0  0  0  0  0  0  0
  -30.7764    3.9366  189.4957 H   0  0  0  0  0  0  0  0  0  0  0  0
  -32.7385    4.2390  189.0628 C   0  0  0  0  0  0  0  0  0  0  0  0
  -33.0644    5.1868  187.9151 C   0  0  0  0  0  0  0  0  0  0  0  0
  -32.7630    4.9997  186.2353 S   0  0  0  0  0  0  0  0  0  0  0  0
  -33.6683    6.3744  188.0250 N   0  0  0  0  0  0  0  0  0  0  0  0
  -33.8678    7.0702  186.8883 N   0  0  0  0  0  0  0  0  0  0  0  0
  -33.4433    6.5057  185.7608 C   0  0  0  0  0  0  0  0  0  0  0  0
  -33.5598    7.0947  184.3715 C   0  0  0  0  0  0  0  0  0  0  0  0
 29 28  1  0  0  0
 25 28  1  0  0  0
 25 24  1  0  0  0
 28 27  2  0  0  0
 24 23  1  0  0  0
 24 26  2  0  0  0
 21 23  1  0  0  0
 21 20  1  0  0  0
 27 26  1  0  0  0
 19 20  1  0  0  0
 19 15  1  0  0  0
 14 13  2  0  0  0
 15 13  1  0  0  0
 15  2  1  0  0  0
 13  5  1  0  0  0
  1  2  2  0  0  0
  2  3  1  0  0  0
  5  6  2  0  0  0
  5  4  1  0  0  0
  6  7  1  0  0  0
  3  4  2  0  0  0
  3 12  1  0  0  0
  4  9  1  0  0  0
  7  8  2  0  0  0
 12 11  2  0  0  0
  9  8  1  0  0  0
  9 10  2  0  0  0
  8 16  1  0  0  0
 18 16  1  0  0  0
 11 10  1  0  0  0
 16 17  1  0  0  0
 21 22  1  0  0  0
M  END
> <minimizedAffinity>
-7.49774

$$$$
3WMC_NF6_A_601


 29 32  0  0  0  0  0  0  0  0999 V2000
  -33.0446    5.0365  182.3351 O   0  0  0  0  0  0  0  0  0  0  0  0
  -33.1259    5.0346  183.7256 C   0  0  0  0  0  0  0  0  0  0  0  0
  -33.0282    3.7572  184.4574 C   0  0  0  0  0  0  0  0  0  0  0  0
  -33.1136    3.7609  185.8801 C   0  0  0  0  0  0  0  0  0  0  0  0
  -33.2924    5.0123  186.5727 C   0  0  0  0  0  0  0  0  0  0  0  0
  -33.3837    5.0191  188.0254 C   0  0  0  0  0  0  0  0  0  0  0  0
  -33.2953    3.8017  188.7440 C   0  0  0  0  0  0  0  0  0  0  0  0
  -33.1161    2.5577  188.0452 C   0  0  0  0  0  0  0  0  0  0  0  0
  -33.0280    2.5536  186.5958 C   0  0  0  0  0  0  0  0  0  0  0  0
  -32.8495    1.3049  185.9044 C   0  0  0  0  0  0  0  0  0  0  0  0
  -32.7625    1.3039  184.4825 C   0  0  0  0  0  0  0  0  0  0  0  0
  -32.8493    2.5187  183.7611 C   0  0  0  0  0  0  0  0  0  0  0  0
  -33.3857    6.2529  185.7985 C   0  0  0  0  0  0  0  0  0  0  0  0
  -33.5620    7.4900  186.4556 O   0  0  0  0  0  0  0  0  0  0  0  0
  -33.2992    6.2102  184.4041 N   0  0  0  0  0  0  0  0  0  0  0  0
  -33.0248    1.2860  188.7565 N   0  0  0  0  0  0  0  0  0  0  0  0
  -31.7879    0.9306  189.4299 C   0  0  0  0  0  0  0  0  0  0  0  0
  -34.1697    0.3824  188.8027 C   0  0  0  0  0  0  0  0  0  0  0  0
  -33.3824    7.4329  183.6520 C   0  0  0  0  0  0  0  0  0  0  0  0
  -32.0927    8.1938  183.3119 C   0  0  0  0  0  0  0  0  0  0  0  0
  -30.9269    7.3580  182.7705 N   0  0  0  0  0  0  0  0  0  0  0  0
  -31.1809    6.3706  182.8003 H   0  0  0  0  0  0  0  0  0  0  0  0
  -29.7290    7.5666  183.5684 C   0  0  0  0  0  0  0  0  0  0  0  0
  -29.7921    7.2452  185.0564 C   0  0  0  0  0  0  0  0  0  0  0  0
  -29.6544    5.7261  185.8445 S   0  0  0  0  0  0  0  0  0  0  0  0
  -29.9702    8.1288  186.0437 N   0  0  0  0  0  0  0  0  0  0  0  0
  -29.9998    7.6473  187.3019 N   0  0  0  0  0  0  0  0  0  0  0  0
  -29.8475    6.3330  187.4416 C   0  0  0  0  0  0  0  0  0  0  0  0
  -29.8439    5.5711  188.7493 C   0  0  0  0  0  0  0  0  0  0  0  0
 29 28  1  0  0  0
 25 28  1  0  0  0
 25 24  1  0  0  0
 28 27  2  0  0  0
 24 23  1  0  0  0
 24 26  2  0  0  0
 21 23  1  0  0  0
 21 20  1  0  0  0
 27 26  1  0  0  0
 19 20  1  0  0  0
 19 15  1  0  0  0
 14 13  2  0  0  0
 15 13  1  0  0  0
 15  2  1  0  0  0
 13  5  1  0  0  0
  1  2  2  0  0  0
  2  3  1  0  0  0
  5  6  2  0  0  0
  5  4  1  0  0  0
  6  7  1  0  0  0
  3  4  2  0  0  0
  3 12  1  0  0  0
  4  9  1  0  0  0
  7  8  2  0  0  0
 12 11  2  0  0  0
  9  8  1  0  0  0
  9 10  2  0  0  0
  8 16  1  0  0  0
 18 16  1  0  0  0
 11 10  1  0  0  0
 16 17  1  0  0  0
 21 22  1  0  0  0
M  END
> <minimizedAffinity>
-7.25428

$$$$
3WMC_NF6_A_601


 29 32  0  0  0  0  0  0  0  0999 V2000
  -33.3576   -4.0327  190.0835 O   0  0  0  0  0  0  0  0  0  0  0  0
  -33.9842   -2.8615  189.6643 C   0  0  0  0  0  0  0  0  0  0  0  0
  -35.4484   -2.8457  189.4828 C   0  0  0  0  0  0  0  0  0  0  0  0
  -36.0843   -1.6450  189.0521 C   0  0  0  0  0  0  0  0  0  0  0  0
  -35.2833   -0.4725  188.8044 C   0  0  0  0  0  0  0  0  0  0  0  0
  -35.9292    0.7543  188.3608 C   0  0  0  0  0  0  0  0  0  0  0  0
  -37.3334    0.7865  188.1781 C   0  0  0  0  0  0  0  0  0  0  0  0
  -38.1251   -0.3876  188.4285 C   0  0  0  0  0  0  0  0  0  0  0  0
  -37.4778   -1.6108  188.8682 C   0  0  0  0  0  0  0  0  0  0  0  0
  -38.2769   -2.7810  189.1157 C   0  0  0  0  0  0  0  0  0  0  0  0
  -37.6394   -3.9794  189.5479 C   0  0  0  0  0  0  0  0  0  0  0  0
  -36.2364   -4.0150  189.7326 C   0  0  0  0  0  0  0  0  0  0  0  0
  -33.8324   -0.5417  188.9977 C   0  0  0  0  0  0  0  0  0  0  0  0
  -33.0281    0.5939  188.7599 O   0  0  0  0  0  0  0  0  0  0  0  0
  -33.2437   -1.7372  189.4196 N   0  0  0  0  0  0  0  0  0  0  0  0
  -39.5737   -0.3876  188.2462 N   0  0  0  0  0  0  0  0  0  0  0  0
  -40.4408   -0.3819  189.4114 C   0  0  0  0  0  0  0  0  0  0  0  0
  -40.1488   -0.3812  186.9051 C   0  0  0  0  0  0  0  0  0  0  0  0
  -31.8204   -1.7945  189.6159 C   0  0  0  0  0  0  0  0  0  0  0  0
  -30.9120   -2.1358  188.4258 C   0  0  0  0  0  0  0  0  0  0  0  0
  -30.7446   -1.0484  187.3580 N   0  0  0  0  0  0  0  0  0  0  0  0
  -31.0595   -0.1555  187.7375 H   0  0  0  0  0  0  0  0  0  0  0  0
  -31.5258   -1.3651  186.1730 C   0  0  0  0  0  0  0  0  0  0  0  0
  -32.2574   -0.2285  185.4699 C   0  0  0  0  0  0  0  0  0  0  0  0
  -31.6135    1.0742  184.5556 S   0  0  0  0  0  0  0  0  0  0  0  0
  -33.5815   -0.0457  185.4418 N   0  0  0  0  0  0  0  0  0  0  0  0
  -34.0400    1.0259  184.7654 N   0  0  0  0  0  0  0  0  0  0  0  0
  -33.1270    1.8022  184.1875 C   0  0  0  0  0  0  0  0  0  0  0  0
  -33.4035    3.0511  183.3785 C   0  0  0  0  0  0  0  0  0  0  0  0
 29 28  1  0  0  0
 25 28  1  0  0  0
 25 24  1  0  0  0
 28 27  2  0  0  0
 24 23  1  0  0  0
 24 26  2  0  0  0
 21 23  1  0  0  0
 21 20  1  0  0  0
 27 26  1  0  0  0
 19 20  1  0  0  0
 19 15  1  0  0  0
 14 13  2  0  0  0
 15 13  1  0  0  0
 15  2  1  0  0  0
 13  5  1  0  0  0
  1  2  2  0  0  0
  2  3  1  0  0  0
  5  6  2  0  0  0
  5  4  1  0  0  0
  6  7  1  0  0  0
  3  4  2  0  0  0
  3 12  1  0  0  0
  4  9  1  0  0  0
  7  8  2  0  0  0
 12 11  2  0  0  0
  9  8  1  0  0  0
  9 10  2  0  0  0
  8 16  1  0  0  0
 18 16  1  0  0  0
 11 10  1  0  0  0
 16 17  1  0  0  0
 21 22  1  0  0  0
M  END
> <minimizedAffinity>
-7.10407

$$$$
3WMC_NF6_A_601


 29 32  0  0  0  0  0  0  0  0999 V2000
  -31.8805   -1.3513  189.5333 O   0  0  0  0  0  0  0  0  0  0  0  0
  -33.1586   -1.9047  189.5522 C   0  0  0  0  0  0  0  0  0  0  0  0
  -34.3107   -1.0874  189.1262 C   0  0  0  0  0  0  0  0  0  0  0  0
  -35.6165   -1.6582  189.1490 C   0  0  0  0  0  0  0  0  0  0  0  0
  -35.7827   -3.0215  189.5866 C   0  0  0  0  0  0  0  0  0  0  0  0
  -37.1154   -3.6063  189.6147 C   0  0  0  0  0  0  0  0  0  0  0  0
  -38.2332   -2.8351  189.2123 C   0  0  0  0  0  0  0  0  0  0  0  0
  -38.0584   -1.4760  188.7762 C   0  0  0  0  0  0  0  0  0  0  0  0
  -36.7281   -0.8943  188.7519 C   0  0  0  0  0  0  0  0  0  0  0  0
  -36.5619    0.4661  188.3151 C   0  0  0  0  0  0  0  0  0  0  0  0
  -35.2557    1.0339  188.2914 C   0  0  0  0  0  0  0  0  0  0  0  0
  -34.1360    0.2659  188.6916 C   0  0  0  0  0  0  0  0  0  0  0  0
  -34.6057   -3.7896  190.0016 C   0  0  0  0  0  0  0  0  0  0  0  0
  -34.7449   -5.1259  190.4350 O   0  0  0  0  0  0  0  0  0  0  0  0
  -33.3408   -3.1958  189.9673 N   0  0  0  0  0  0  0  0  0  0  0  0
  -39.1905   -0.6540  188.3587 N   0  0  0  0  0  0  0  0  0  0  0  0
  -40.0515   -0.0586  189.3655 C   0  0  0  0  0  0  0  0  0  0  0  0
  -39.4503   -0.4207  186.9418 C   0  0  0  0  0  0  0  0  0  0  0  0
  -32.1897   -3.9590  190.3673 C   0  0  0  0  0  0  0  0  0  0  0  0
  -31.6037   -4.9963  189.3986 C   0  0  0  0  0  0  0  0  0  0  0  0
  -32.3801   -5.2343  188.0981 N   0  0  0  0  0  0  0  0  0  0  0  0
  -33.0905   -5.9485  188.2585 H   0  0  0  0  0  0  0  0  0  0  0  0
  -31.4878   -5.6785  187.0391 C   0  0  0  0  0  0  0  0  0  0  0  0
  -31.6990   -5.1161  185.6389 C   0  0  0  0  0  0  0  0  0  0  0  0
  -31.3572   -3.5443  185.0386 S   0  0  0  0  0  0  0  0  0  0  0  0
  -32.2053   -5.7794  184.5944 N   0  0  0  0  0  0  0  0  0  0  0  0
  -32.3161   -5.1052  183.4329 N   0  0  0  0  0  0  0  0  0  0  0  0
  -31.9086   -3.8387  183.4369 C   0  0  0  0  0  0  0  0  0  0  0  0
  -31.9347   -2.8913  182.2569 C   0  0  0  0  0  0  0  0  0  0  0  0
 29 28  1  0  0  0
 25 28  1  0  0  0
 25 24  1  0  0  0
 28 27  2  0  0  0
 24 23  1  0  0  0
 24 26  2  0  0  0
 21 23  1  0  0  0
 21 20  1  0  0  0
 27 26  1  0  0  0
 19 20  1  0  0  0
 19 15  1  0  0  0
 14 13  2  0  0  0
 15 13  1  0  0  0
 15  2  1  0  0  0
 13  5  1  0  0  0
  1  2  2  0  0  0
  2  3  1  0  0  0
  5  6  2  0  0  0
  5  4  1  0  0  0
  6  7  1  0  0  0
  3  4  2  0  0  0
  3 12  1  0  0  0
  4  9  1  0  0  0
  7  8  2  0  0  0
 12 11  2  0  0  0
  9  8  1  0  0  0
  9 10  2  0  0  0
  8 16  1  0  0  0
 18 16  1  0  0  0
 11 10  1  0  0  0
 16 17  1  0  0  0
 21 22  1  0  0  0
M  END
> <minimizedAffinity>
-6.68961

$$$$
3WMC_NF6_A_601


 29 32  0  0  0  0  0  0  0  0999 V2000
  -31.7034   -1.0098  188.8511 O   0  0  0  0  0  0  0  0  0  0  0  0
  -33.0816   -1.2099  188.8777 C   0  0  0  0  0  0  0  0  0  0  0  0
  -33.6269   -2.4287  189.5054 C   0  0  0  0  0  0  0  0  0  0  0  0
  -35.0378   -2.6291  189.5284 C   0  0  0  0  0  0  0  0  0  0  0  0
  -35.9009   -1.6364  188.9390 C   0  0  0  0  0  0  0  0  0  0  0  0
  -37.3421   -1.8399  188.9575 C   0  0  0  0  0  0  0  0  0  0  0  0
  -37.8828   -3.0058  189.5529 C   0  0  0  0  0  0  0  0  0  0  0  0
  -37.0147   -3.9907  190.1395 C   0  0  0  0  0  0  0  0  0  0  0  0
  -35.5771   -3.7865  190.1171 C   0  0  0  0  0  0  0  0  0  0  0  0
  -34.7156   -4.7769  190.7054 C   0  0  0  0  0  0  0  0  0  0  0  0
  -33.3059   -4.5736  190.6829 C   0  0  0  0  0  0  0  0  0  0  0  0
  -32.7619   -3.4090  190.0897 C   0  0  0  0  0  0  0  0  0  0  0  0
  -35.3084   -0.4445  188.3262 C   0  0  0  0  0  0  0  0  0  0  0  0
  -36.1343    0.5402  187.7420 O   0  0  0  0  0  0  0  0  0  0  0  0
  -33.9200   -0.2828  188.3211 N   0  0  0  0  0  0  0  0  0  0  0  0
  -37.5406   -5.2044  190.7576 N   0  0  0  0  0  0  0  0  0  0  0  0
  -37.8050   -6.3701  189.9325 C   0  0  0  0  0  0  0  0  0  0  0  0
  -37.7882   -5.2529  192.1949 C   0  0  0  0  0  0  0  0  0  0  0  0
  -33.3468    0.8941  187.7261 C   0  0  0  0  0  0  0  0  0  0  0  0
  -32.9093    2.0551  188.6307 C   0  0  0  0  0  0  0  0  0  0  0  0
  -33.8065    3.2984  188.6314 N   0  0  0  0  0  0  0  0  0  0  0  0
  -34.5038    3.2083  187.8924 H   0  0  0  0  0  0  0  0  0  0  0  0
  -33.0212    4.5008  188.4022 C   0  0  0  0  0  0  0  0  0  0  0  0
  -33.0755    5.1418  187.0210 C   0  0  0  0  0  0  0  0  0  0  0  0
  -33.4219    6.7679  186.5930 S   0  0  0  0  0  0  0  0  0  0  0  0
  -32.8506    4.5215  185.8583 N   0  0  0  0  0  0  0  0  0  0  0  0
  -32.9486    5.2627  184.7370 N   0  0  0  0  0  0  0  0  0  0  0  0
  -33.2604    6.5463  184.8956 C   0  0  0  0  0  0  0  0  0  0  0  0
  -33.4227    7.5663  183.7893 C   0  0  0  0  0  0  0  0  0  0  0  0
 29 28  1  0  0  0
 25 28  1  0  0  0
 25 24  1  0  0  0
 28 27  2  0  0  0
 24 23  1  0  0  0
 24 26  2  0  0  0
 21 23  1  0  0  0
 21 20  1  0  0  0
 27 26  1  0  0  0
 19 20  1  0  0  0
 19 15  1  0  0  0
 14 13  2  0  0  0
 15 13  1  0  0  0
 15  2  1  0  0  0
 13  5  1  0  0  0
  1  2  2  0  0  0
  2  3  1  0  0  0
  5  6  2  0  0  0
  5  4  1  0  0  0
  6  7  1  0  0  0
  3  4  2  0  0  0
  3 12  1  0  0  0
  4  9  1  0  0  0
  7  8  2  0  0  0
 12 11  2  0  0  0
  9  8  1  0  0  0
  9 10  2  0  0  0
  8 16  1  0  0  0
 18 16  1  0  0  0
 11 10  1  0  0  0
 16 17  1  0  0  0
 21 22  1  0  0  0
M  END
> <minimizedAffinity>
-6.68589

$$$$
