2F8G_017_B_401


 42 45  0  0  0  0  0  0  0  0999 V2000
   16.1132   24.0319   18.3054 C   0  0  0  0  0  0  0  0  0  0  0  0
   15.5018   25.1853   18.8542 O   0  0  0  0  0  0  0  0  0  0  0  0
   15.4770   25.1092   19.8209 H   0  0  0  0  0  0  0  0  0  0  0  0
   15.1716   22.8491   18.7606 C   0  0  0  0  0  0  0  0  0  0  0  0
   15.3487   21.7474   17.7377 N   0  0  0  0  0  0  0  0  0  0  0  0
   16.1282   20.3077   18.3935 S   0  0  0  0  0  0  0  0  0  0  0  0
   17.2108   20.7401   19.3756 O   0  0  0  0  0  0  0  0  0  0  0  0
   16.5821   19.5035   17.1518 O   0  0  0  0  0  0  0  0  0  0  0  0
   11.7813   17.3212   21.1304 N   0  0  0  0  0  0  0  0  0  0  0  0
   12.8332   17.9590   20.5281 C   0  0  0  0  0  0  0  0  0  0  0  0
   13.5092   18.9763   21.1973 C   0  0  0  0  0  0  0  0  0  0  0  0
   14.5329   19.6739   20.5608 C   0  0  0  0  0  0  0  0  0  0  0  0
   14.9362   19.2494   19.2878 C   0  0  0  0  0  0  0  0  0  0  0  0
   14.2289   18.2999   18.5318 C   0  0  0  0  0  0  0  0  0  0  0  0
   13.1723   17.6218   19.1940 C   0  0  0  0  0  0  0  0  0  0  0  0
   11.5347   17.5456   22.0567 H   0  0  0  0  0  0  0  0  0  0  0  0
   11.2718   16.6384   20.6369 H   0  0  0  0  0  0  0  0  0  0  0  0
   14.2606   21.5079   16.7400 C   0  0  0  0  0  0  0  0  0  0  0  0
   14.4928   22.3579   15.4788 C   0  0  0  0  0  0  0  0  0  0  0  0
   15.0120   21.5153   14.3409 C   0  0  0  0  0  0  0  0  0  0  0  0
   13.2382   23.1175   15.1139 C   0  0  0  0  0  0  0  0  0  0  0  0
   17.6018   23.9543   18.7420 C   0  0  0  0  0  0  0  0  0  0  0  0
   18.3513   24.9519   18.0035 N   0  0  0  0  0  0  0  0  0  0  0  0
   19.3643   24.5440   17.2020 C   0  0  0  0  0  0  0  0  0  0  0  0
   19.8191   23.3716   17.0190 O   0  0  0  0  0  0  0  0  0  0  0  0
   18.1282   25.9075   18.0830 H   0  0  0  0  0  0  0  0  0  0  0  0
   19.8863   25.6540   16.5189 O   0  0  0  0  0  0  0  0  0  0  0  0
   20.2174   25.4893   15.0991 C   0  0  0  0  0  0  0  0  0  0  0  0
   19.1050   26.1823   14.3086 C   0  0  0  0  0  0  0  0  0  0  0  0
   19.3706   27.6009   14.4136 O   0  0  0  0  0  0  0  0  0  0  0  0
   20.7928   27.6815   14.5448 C   0  0  0  0  0  0  0  0  0  0  0  0
   21.1429   28.6108   15.5652 O   0  0  0  0  0  0  0  0  0  0  0  0
   21.9091   27.8522   16.5252 C   0  0  0  0  0  0  0  0  0  0  0  0
   22.5058   26.6417   15.7610 C   0  0  0  0  0  0  0  0  0  0  0  0
   21.4262   26.3781   14.7615 C   0  0  0  0  0  0  0  0  0  0  0  0
   17.8732   24.1827   20.2585 C   0  0  0  0  0  0  0  0  0  0  0  0
   19.7823   22.5749   20.6427 C   0  0  0  0  0  0  0  0  0  0  0  0
   21.1040   22.3433   21.0456 C   0  0  0  0  0  0  0  0  0  0  0  0
   21.9234   23.3789   21.4893 C   0  0  0  0  0  0  0  0  0  0  0  0
   21.4245   24.6858   21.5140 C   0  0  0  0  0  0  0  0  0  0  0  0
   20.1138   24.9429   21.1326 C   0  0  0  0  0  0  0  0  0  0  0  0
   19.3186   23.8895   20.6467 C   0  0  0  0  0  0  0  0  0  0  0  0
  9 10  1  0  0  0
 10 11  2  0  0  0
 10 15  1  0  0  0
 11 12  1  0  0  0
 12 13  2  0  0  0
 13 14  1  0  0  0
 13  6  1  0  0  0
 14 15  2  0  0  0
  6  7  2  0  0  0
  6  8  2  0  0  0
  6  5  1  0  0  0
  5 18  1  0  0  0
  5  4  1  0  0  0
 18 19  1  0  0  0
 19 20  1  0  0  0
 19 21  1  0  0  0
  4  1  1  0  0  0
  1  2  1  0  0  0
  1 22  1  0  0  0
 22 23  1  0  0  0
 22 36  1  0  0  0
 23 24  1  0  0  0
 24 25  2  0  0  0
 24 27  1  0  0  0
 27 28  1  0  0  0
 28 29  1  0  0  0
 28 35  1  0  0  0
 29 30  1  0  0  0
 30 31  1  0  0  0
 31 32  1  0  0  0
 31 35  1  0  0  0
 32 33  1  0  0  0
 33 34  1  0  0  0
 34 35  1  0  0  0
 36 42  1  0  0  0
 37 38  2  0  0  0
 37 42  1  0  0  0
 38 39  1  0  0  0
 39 40  2  0  0  0
 40 41  1  0  0  0
 41 42  2  0  0  0
  9 16  1  0  0  0
  9 17  1  0  0  0
  2  3  1  0  0  0
 23 26  1  0  0  0
M  END
> <minimizedAffinity>
-9.90294

$$$$
2F8G_017_B_401


 42 45  0  0  0  0  0  0  0  0999 V2000
   15.6777   23.6081   18.3344 C   0  0  0  0  0  0  0  0  0  0  0  0
   14.4692   24.2825   18.6342 O   0  0  0  0  0  0  0  0  0  0  0  0
   14.2022   24.8214   17.8731 H   0  0  0  0  0  0  0  0  0  0  0  0
   16.7090   24.7743   18.0713 C   0  0  0  0  0  0  0  0  0  0  0  0
   18.0837   24.1886   18.3135 N   0  0  0  0  0  0  0  0  0  0  0  0
   18.2682   23.4885   19.9216 S   0  0  0  0  0  0  0  0  0  0  0  0
   17.9444   22.0007   19.8494 O   0  0  0  0  0  0  0  0  0  0  0  0
   17.3768   24.3611   20.8374 O   0  0  0  0  0  0  0  0  0  0  0  0
   23.9587   24.4183   21.3567 N   0  0  0  0  0  0  0  0  0  0  0  0
   22.6404   24.1604   21.0886 C   0  0  0  0  0  0  0  0  0  0  0  0
   22.2880   23.0605   20.3103 C   0  0  0  0  0  0  0  0  0  0  0  0
   20.9543   22.8362   19.9776 C   0  0  0  0  0  0  0  0  0  0  0  0
   19.9788   23.6708   20.5390 C   0  0  0  0  0  0  0  0  0  0  0  0
   20.2837   24.8461   21.2455 C   0  0  0  0  0  0  0  0  0  0  0  0
   21.6526   25.0664   21.5489 C   0  0  0  0  0  0  0  0  0  0  0  0
   24.6554   23.7975   21.0429 H   0  0  0  0  0  0  0  0  0  0  0  0
   24.2094   25.2245   21.8630 H   0  0  0  0  0  0  0  0  0  0  0  0
   18.7640   23.4603   17.1984 C   0  0  0  0  0  0  0  0  0  0  0  0
   19.6813   24.4151   16.4150 C   0  0  0  0  0  0  0  0  0  0  0  0
   18.9423   25.0680   15.2739 C   0  0  0  0  0  0  0  0  0  0  0  0
   20.3174   25.4210   17.3464 C   0  0  0  0  0  0  0  0  0  0  0  0
   15.4539   22.5929   17.1804 C   0  0  0  0  0  0  0  0  0  0  0  0
   14.5500   21.5588   17.6451 N   0  0  0  0  0  0  0  0  0  0  0  0
   15.0591   20.3459   17.9684 C   0  0  0  0  0  0  0  0  0  0  0  0
   16.2568   19.9304   17.8810 O   0  0  0  0  0  0  0  0  0  0  0  0
   13.5846   21.7349   17.7242 H   0  0  0  0  0  0  0  0  0  0  0  0
   14.0312   19.5359   18.4767 O   0  0  0  0  0  0  0  0  0  0  0  0
   14.4149   18.3262   19.2130 C   0  0  0  0  0  0  0  0  0  0  0  0
   14.6426   18.7532   20.6650 C   0  0  0  0  0  0  0  0  0  0  0  0
   13.3248   18.9272   21.2370 O   0  0  0  0  0  0  0  0  0  0  0  0
   12.5056   18.0034   20.5147 C   0  0  0  0  0  0  0  0  0  0  0  0
   11.2747   18.6175   20.1469 O   0  0  0  0  0  0  0  0  0  0  0  0
   11.2247   18.5386   18.7063 C   0  0  0  0  0  0  0  0  0  0  0  0
   12.1329   17.3507   18.2943 C   0  0  0  0  0  0  0  0  0  0  0  0
   13.1833   17.4164   19.3558 C   0  0  0  0  0  0  0  0  0  0  0  0
   14.8636   23.1844   15.8662 C   0  0  0  0  0  0  0  0  0  0  0  0
   12.7035   22.0341   15.2435 C   0  0  0  0  0  0  0  0  0  0  0  0
   12.0268   21.0481   14.5137 C   0  0  0  0  0  0  0  0  0  0  0  0
   12.7042   20.1736   13.6669 C   0  0  0  0  0  0  0  0  0  0  0  0
   14.0907   20.2942   13.5230 C   0  0  0  0  0  0  0  0  0  0  0  0
   14.7892   21.2542   14.2442 C   0  0  0  0  0  0  0  0  0  0  0  0
   14.0799   22.1545   15.0593 C   0  0  0  0  0  0  0  0  0  0  0  0
  9 10  1  0  0  0
 10 11  2  0  0  0
 10 15  1  0  0  0
 11 12  1  0  0  0
 12 13  2  0  0  0
 13 14  1  0  0  0
 13  6  1  0  0  0
 14 15  2  0  0  0
  6  7  2  0  0  0
  6  8  2  0  0  0
  6  5  1  0  0  0
  5 18  1  0  0  0
  5  4  1  0  0  0
 18 19  1  0  0  0
 19 20  1  0  0  0
 19 21  1  0  0  0
  4  1  1  0  0  0
  1  2  1  0  0  0
  1 22  1  0  0  0
 22 23  1  0  0  0
 22 36  1  0  0  0
 23 24  1  0  0  0
 24 25  2  0  0  0
 24 27  1  0  0  0
 27 28  1  0  0  0
 28 29  1  0  0  0
 28 35  1  0  0  0
 29 30  1  0  0  0
 30 31  1  0  0  0
 31 32  1  0  0  0
 31 35  1  0  0  0
 32 33  1  0  0  0
 33 34  1  0  0  0
 34 35  1  0  0  0
 36 42  1  0  0  0
 37 38  2  0  0  0
 37 42  1  0  0  0
 38 39  1  0  0  0
 39 40  2  0  0  0
 40 41  1  0  0  0
 41 42  2  0  0  0
  9 16  1  0  0  0
  9 17  1  0  0  0
  2  3  1  0  0  0
 23 26  1  0  0  0
M  END
> <minimizedAffinity>
-9.70101

$$$$
2F8G_017_B_401


 42 45  0  0  0  0  0  0  0  0999 V2000
   15.3754   23.6083   18.4475 C   0  0  0  0  0  0  0  0  0  0  0  0
   14.2616   24.4793   18.5274 O   0  0  0  0  0  0  0  0  0  0  0  0
   14.2007   25.0018   17.7124 H   0  0  0  0  0  0  0  0  0  0  0  0
   16.6097   24.5818   18.3003 C   0  0  0  0  0  0  0  0  0  0  0  0
   17.8202   23.8081   18.7774 N   0  0  0  0  0  0  0  0  0  0  0  0
   19.0418   23.5860   17.5249 S   0  0  0  0  0  0  0  0  0  0  0  0
   18.5908   22.4679   16.5921 O   0  0  0  0  0  0  0  0  0  0  0  0
   20.3652   23.3699   18.2973 O   0  0  0  0  0  0  0  0  0  0  0  0
   20.3232   28.2259   14.0414 N   0  0  0  0  0  0  0  0  0  0  0  0
   19.9706   27.1975   14.8746 C   0  0  0  0  0  0  0  0  0  0  0  0
   20.5420   27.0970   16.1408 C   0  0  0  0  0  0  0  0  0  0  0  0
   20.2387   26.0139   16.9622 C   0  0  0  0  0  0  0  0  0  0  0  0
   19.2650   25.1033   16.5306 C   0  0  0  0  0  0  0  0  0  0  0  0
   18.7332   25.1020   15.2304 C   0  0  0  0  0  0  0  0  0  0  0  0
   19.0788   26.2021   14.4029 C   0  0  0  0  0  0  0  0  0  0  0  0
   20.9418   28.9242   14.3560 H   0  0  0  0  0  0  0  0  0  0  0  0
   19.9580   28.2668   13.1281 H   0  0  0  0  0  0  0  0  0  0  0  0
   18.3347   24.0543   20.1599 C   0  0  0  0  0  0  0  0  0  0  0  0
   18.4030   22.7357   20.9494 C   0  0  0  0  0  0  0  0  0  0  0  0
   18.0390   21.5590   20.0791 C   0  0  0  0  0  0  0  0  0  0  0  0
   19.7572   22.5788   21.6018 C   0  0  0  0  0  0  0  0  0  0  0  0
   15.1620   22.5664   17.3155 C   0  0  0  0  0  0  0  0  0  0  0  0
   14.2831   21.5238   17.8086 N   0  0  0  0  0  0  0  0  0  0  0  0
   14.7850   20.2779   17.9836 C   0  0  0  0  0  0  0  0  0  0  0  0
   15.9502   19.8400   17.7276 O   0  0  0  0  0  0  0  0  0  0  0  0
   13.3397   21.7178   18.0123 H   0  0  0  0  0  0  0  0  0  0  0  0
   13.7957   19.4585   18.5502 O   0  0  0  0  0  0  0  0  0  0  0  0
   14.2344   18.2792   19.3048 C   0  0  0  0  0  0  0  0  0  0  0  0
   14.4158   18.7322   20.7554 C   0  0  0  0  0  0  0  0  0  0  0  0
   13.0818   18.8383   21.3060 O   0  0  0  0  0  0  0  0  0  0  0  0
   12.3261   17.8635   20.5814 C   0  0  0  0  0  0  0  0  0  0  0  0
   11.0690   18.4048   20.1890 O   0  0  0  0  0  0  0  0  0  0  0  0
   11.0455   18.3093   18.7487 C   0  0  0  0  0  0  0  0  0  0  0  0
   12.0242   17.1697   18.3627 C   0  0  0  0  0  0  0  0  0  0  0  0
   13.0529   17.3038   19.4388 C   0  0  0  0  0  0  0  0  0  0  0  0
   14.5483   23.1200   15.9956 C   0  0  0  0  0  0  0  0  0  0  0  0
   14.7974   21.3183   14.2438 C   0  0  0  0  0  0  0  0  0  0  0  0
   14.2157   20.3453   13.4205 C   0  0  0  0  0  0  0  0  0  0  0  0
   12.8419   20.1144   13.4227 C   0  0  0  0  0  0  0  0  0  0  0  0
   12.0232   20.8552   14.2822 C   0  0  0  0  0  0  0  0  0  0  0  0
   12.5710   21.8354   15.0999 C   0  0  0  0  0  0  0  0  0  0  0  0
   13.9651   22.0212   15.1134 C   0  0  0  0  0  0  0  0  0  0  0  0
  9 10  1  0  0  0
 10 11  2  0  0  0
 10 15  1  0  0  0
 11 12  1  0  0  0
 12 13  2  0  0  0
 13 14  1  0  0  0
 13  6  1  0  0  0
 14 15  2  0  0  0
  6  7  2  0  0  0
  6  8  2  0  0  0
  6  5  1  0  0  0
  5 18  1  0  0  0
  5  4  1  0  0  0
 18 19  1  0  0  0
 19 20  1  0  0  0
 19 21  1  0  0  0
  4  1  1  0  0  0
  1  2  1  0  0  0
  1 22  1  0  0  0
 22 23  1  0  0  0
 22 36  1  0  0  0
 23 24  1  0  0  0
 24 25  2  0  0  0
 24 27  1  0  0  0
 27 28  1  0  0  0
 28 29  1  0  0  0
 28 35  1  0  0  0
 29 30  1  0  0  0
 30 31  1  0  0  0
 31 32  1  0  0  0
 31 35  1  0  0  0
 32 33  1  0  0  0
 33 34  1  0  0  0
 34 35  1  0  0  0
 36 42  1  0  0  0
 37 38  2  0  0  0
 37 42  1  0  0  0
 38 39  1  0  0  0
 39 40  2  0  0  0
 40 41  1  0  0  0
 41 42  2  0  0  0
  9 16  1  0  0  0
  9 17  1  0  0  0
  2  3  1  0  0  0
 23 26  1  0  0  0
M  END
> <minimizedAffinity>
-9.55021

$$$$
2F8G_017_B_401


 42 45  0  0  0  0  0  0  0  0999 V2000
   16.5975   21.6385   17.0109 C   0  0  0  0  0  0  0  0  0  0  0  0
   16.6874   21.9415   15.6305 O   0  0  0  0  0  0  0  0  0  0  0  0
   16.4186   22.8618   15.4832 H   0  0  0  0  0  0  0  0  0  0  0  0
   15.0691   21.8473   17.3474 C   0  0  0  0  0  0  0  0  0  0  0  0
   14.4128   20.4910   17.2012 N   0  0  0  0  0  0  0  0  0  0  0  0
   14.5680   19.4842   18.6408 S   0  0  0  0  0  0  0  0  0  0  0  0
   14.8863   20.3787   19.8333 O   0  0  0  0  0  0  0  0  0  0  0  0
   15.6182   18.4125   18.2624 O   0  0  0  0  0  0  0  0  0  0  0  0
    9.9177   16.0613   20.0421 N   0  0  0  0  0  0  0  0  0  0  0  0
   10.9408   16.9000   19.6872 C   0  0  0  0  0  0  0  0  0  0  0  0
   11.5691   16.7521   18.4530 C   0  0  0  0  0  0  0  0  0  0  0  0
   12.6553   17.5573   18.1190 C   0  0  0  0  0  0  0  0  0  0  0  0
   13.0176   18.5852   18.9995 C   0  0  0  0  0  0  0  0  0  0  0  0
   12.4855   18.7154   20.2931 C   0  0  0  0  0  0  0  0  0  0  0  0
   11.3971   17.8649   20.6195 C   0  0  0  0  0  0  0  0  0  0  0  0
    9.5908   15.3863   19.4043 H   0  0  0  0  0  0  0  0  0  0  0  0
    9.5093   16.1334   20.9350 H   0  0  0  0  0  0  0  0  0  0  0  0
   13.1120   20.3944   16.4696 C   0  0  0  0  0  0  0  0  0  0  0  0
   13.1688   21.2074   15.1648 C   0  0  0  0  0  0  0  0  0  0  0  0
   13.8861   20.4462   14.0783 C   0  0  0  0  0  0  0  0  0  0  0  0
   11.7817   21.6420   14.7510 C   0  0  0  0  0  0  0  0  0  0  0  0
   17.6178   22.4901   17.8149 C   0  0  0  0  0  0  0  0  0  0  0  0
   17.8357   23.7371   17.1079 N   0  0  0  0  0  0  0  0  0  0  0  0
   19.0814   24.2689   17.0943 C   0  0  0  0  0  0  0  0  0  0  0  0
   20.1357   23.8552   17.6707 O   0  0  0  0  0  0  0  0  0  0  0  0
   17.0924   24.1886   16.6465 H   0  0  0  0  0  0  0  0  0  0  0  0
   19.0838   25.4149   16.2833 O   0  0  0  0  0  0  0  0  0  0  0  0
   19.5273   25.2673   14.8925 C   0  0  0  0  0  0  0  0  0  0  0  0
   18.5193   26.0305   14.0300 C   0  0  0  0  0  0  0  0  0  0  0  0
   18.8392   27.4321   14.1953 O   0  0  0  0  0  0  0  0  0  0  0  0
   20.2472   27.4417   14.4480 C   0  0  0  0  0  0  0  0  0  0  0  0
   20.5507   28.3296   15.5190 O   0  0  0  0  0  0  0  0  0  0  0  0
   21.1967   27.5135   16.5194 C   0  0  0  0  0  0  0  0  0  0  0  0
   21.8009   26.2938   15.7759 C   0  0  0  0  0  0  0  0  0  0  0  0
   20.7997   26.1050   14.6821 C   0  0  0  0  0  0  0  0  0  0  0  0
   17.2039   22.8381   19.2753 C   0  0  0  0  0  0  0  0  0  0  0  0
   18.9372   21.4867   20.5189 C   0  0  0  0  0  0  0  0  0  0  0  0
   19.9758   21.4250   21.4572 C   0  0  0  0  0  0  0  0  0  0  0  0
   20.3992   22.5557   22.1521 C   0  0  0  0  0  0  0  0  0  0  0  0
   19.7893   23.7881   21.8935 C   0  0  0  0  0  0  0  0  0  0  0  0
   18.7483   23.8764   20.9780 C   0  0  0  0  0  0  0  0  0  0  0  0
   18.3669   22.7311   20.2562 C   0  0  0  0  0  0  0  0  0  0  0  0
  9 10  1  0  0  0
 10 11  2  0  0  0
 10 15  1  0  0  0
 11 12  1  0  0  0
 12 13  2  0  0  0
 13 14  1  0  0  0
 13  6  1  0  0  0
 14 15  2  0  0  0
  6  7  2  0  0  0
  6  8  2  0  0  0
  6  5  1  0  0  0
  5 18  1  0  0  0
  5  4  1  0  0  0
 18 19  1  0  0  0
 19 20  1  0  0  0
 19 21  1  0  0  0
  4  1  1  0  0  0
  1  2  1  0  0  0
  1 22  1  0  0  0
 22 23  1  0  0  0
 22 36  1  0  0  0
 23 24  1  0  0  0
 24 25  2  0  0  0
 24 27  1  0  0  0
 27 28  1  0  0  0
 28 29  1  0  0  0
 28 35  1  0  0  0
 29 30  1  0  0  0
 30 31  1  0  0  0
 31 32  1  0  0  0
 31 35  1  0  0  0
 32 33  1  0  0  0
 33 34  1  0  0  0
 34 35  1  0  0  0
 36 42  1  0  0  0
 37 38  2  0  0  0
 37 42  1  0  0  0
 38 39  1  0  0  0
 39 40  2  0  0  0
 40 41  1  0  0  0
 41 42  2  0  0  0
  9 16  1  0  0  0
  9 17  1  0  0  0
  2  3  1  0  0  0
 23 26  1  0  0  0
M  END
> <minimizedAffinity>
-9.41568

$$$$
2F8G_017_B_401


 42 45  0  0  0  0  0  0  0  0999 V2000
   18.3216   22.6015   19.7511 C   0  0  0  0  0  0  0  0  0  0  0  0
   18.5872   21.5925   20.7086 O   0  0  0  0  0  0  0  0  0  0  0  0
   19.3946   21.1157   20.4604 H   0  0  0  0  0  0  0  0  0  0  0  0
   18.1216   21.8038   18.4034 C   0  0  0  0  0  0  0  0  0  0  0  0
   16.6373   21.5298   18.2881 N   0  0  0  0  0  0  0  0  0  0  0  0
   15.7671   22.7765   17.3943 S   0  0  0  0  0  0  0  0  0  0  0  0
   16.7795   23.7285   16.7680 O   0  0  0  0  0  0  0  0  0  0  0  0
   14.7738   23.3765   18.4181 O   0  0  0  0  0  0  0  0  0  0  0  0
   12.7946   19.8506   13.1625 N   0  0  0  0  0  0  0  0  0  0  0  0
   13.4463   20.5896   14.1139 C   0  0  0  0  0  0  0  0  0  0  0  0
   14.6895   21.1508   13.8321 C   0  0  0  0  0  0  0  0  0  0  0  0
   15.3858   21.8428   14.8201 C   0  0  0  0  0  0  0  0  0  0  0  0
   14.7555   22.0562   16.0532 C   0  0  0  0  0  0  0  0  0  0  0  0
   13.5522   21.4324   16.4220 C   0  0  0  0  0  0  0  0  0  0  0  0
   12.8748   20.7101   15.4052 C   0  0  0  0  0  0  0  0  0  0  0  0
   13.1802   19.7584   12.2613 H   0  0  0  0  0  0  0  0  0  0  0  0
   11.9407   19.4115   13.3798 H   0  0  0  0  0  0  0  0  0  0  0  0
   16.1783   20.1235   18.0687 C   0  0  0  0  0  0  0  0  0  0  0  0
   15.6021   19.5382   19.3696 C   0  0  0  0  0  0  0  0  0  0  0  0
   14.5397   20.4381   19.9492 C   0  0  0  0  0  0  0  0  0  0  0  0
   15.1085   18.1279   19.1425 C   0  0  0  0  0  0  0  0  0  0  0  0
   19.4459   23.6730   19.7745 C   0  0  0  0  0  0  0  0  0  0  0  0
   19.2047   24.6175   18.7011 N   0  0  0  0  0  0  0  0  0  0  0  0
   20.2207   24.9171   17.8568 C   0  0  0  0  0  0  0  0  0  0  0  0
   21.4276   24.5201   17.8826 O   0  0  0  0  0  0  0  0  0  0  0  0
   18.3194   25.0330   18.5880 H   0  0  0  0  0  0  0  0  0  0  0  0
   19.7451   25.7712   16.8491 O   0  0  0  0  0  0  0  0  0  0  0  0
   19.9009   25.3380   15.4560 C   0  0  0  0  0  0  0  0  0  0  0  0
   18.6576   25.8230   14.7067 C   0  0  0  0  0  0  0  0  0  0  0  0
   18.8503   27.2420   14.4986 O   0  0  0  0  0  0  0  0  0  0  0  0
   20.2703   27.3935   14.4156 C   0  0  0  0  0  0  0  0  0  0  0  0
   20.6927   28.5182   15.1797 O   0  0  0  0  0  0  0  0  0  0  0  0
   21.6188   27.9914   16.1538 C   0  0  0  0  0  0  0  0  0  0  0  0
   22.1833   26.6731   15.5631 C   0  0  0  0  0  0  0  0  0  0  0  0
   21.0020   26.1807   14.7908 C   0  0  0  0  0  0  0  0  0  0  0  0
   19.5794   24.4824   21.0983 C   0  0  0  0  0  0  0  0  0  0  0  0
   22.0736   24.0930   21.1631 C   0  0  0  0  0  0  0  0  0  0  0  0
   23.3628   24.5642   21.4438 C   0  0  0  0  0  0  0  0  0  0  0  0
   23.5780   25.8463   21.9441 C   0  0  0  0  0  0  0  0  0  0  0  0
   22.4844   26.6941   22.1520 C   0  0  0  0  0  0  0  0  0  0  0  0
   21.1940   26.2490   21.8947 C   0  0  0  0  0  0  0  0  0  0  0  0
   21.0036   24.9669   21.3488 C   0  0  0  0  0  0  0  0  0  0  0  0
  9 10  1  0  0  0
 10 11  2  0  0  0
 10 15  1  0  0  0
 11 12  1  0  0  0
 12 13  2  0  0  0
 13 14  1  0  0  0
 13  6  1  0  0  0
 14 15  2  0  0  0
  6  7  2  0  0  0
  6  8  2  0  0  0
  6  5  1  0  0  0
  5 18  1  0  0  0
  5  4  1  0  0  0
 18 19  1  0  0  0
 19 20  1  0  0  0
 19 21  1  0  0  0
  4  1  1  0  0  0
  1  2  1  0  0  0
  1 22  1  0  0  0
 22 23  1  0  0  0
 22 36  1  0  0  0
 23 24  1  0  0  0
 24 25  2  0  0  0
 24 27  1  0  0  0
 27 28  1  0  0  0
 28 29  1  0  0  0
 28 35  1  0  0  0
 29 30  1  0  0  0
 30 31  1  0  0  0
 31 32  1  0  0  0
 31 35  1  0  0  0
 32 33  1  0  0  0
 33 34  1  0  0  0
 34 35  1  0  0  0
 36 42  1  0  0  0
 37 38  2  0  0  0
 37 42  1  0  0  0
 38 39  1  0  0  0
 39 40  2  0  0  0
 40 41  1  0  0  0
 41 42  2  0  0  0
  9 16  1  0  0  0
  9 17  1  0  0  0
  2  3  1  0  0  0
 23 26  1  0  0  0
M  END
> <minimizedAffinity>
-9.32226

$$$$
2F8G_017_B_401


 42 45  0  0  0  0  0  0  0  0999 V2000
   16.8548   24.7376   17.6032 C   0  0  0  0  0  0  0  0  0  0  0  0
   16.1406   25.7365   18.3086 O   0  0  0  0  0  0  0  0  0  0  0  0
   16.6313   25.9807   19.1089 H   0  0  0  0  0  0  0  0  0  0  0  0
   16.9255   23.5313   18.6195 C   0  0  0  0  0  0  0  0  0  0  0  0
   16.2859   22.3500   17.9217 N   0  0  0  0  0  0  0  0  0  0  0  0
   17.0155   20.8051   18.3591 S   0  0  0  0  0  0  0  0  0  0  0  0
   18.1086   21.0535   19.3920 O   0  0  0  0  0  0  0  0  0  0  0  0
   17.4466   20.1762   17.0126 O   0  0  0  0  0  0  0  0  0  0  0  0
   12.5496   17.4661   20.4115 N   0  0  0  0  0  0  0  0  0  0  0  0
   13.6266   18.1962   19.9836 C   0  0  0  0  0  0  0  0  0  0  0  0
   13.9897   19.3628   20.6521 C   0  0  0  0  0  0  0  0  0  0  0  0
   15.0402   20.1443   20.1772 C   0  0  0  0  0  0  0  0  0  0  0  0
   15.7865   19.6675   19.0913 C   0  0  0  0  0  0  0  0  0  0  0  0
   15.4054   18.5547   18.3234 C   0  0  0  0  0  0  0  0  0  0  0  0
   14.3147   17.7898   18.8132 C   0  0  0  0  0  0  0  0  0  0  0  0
   12.0624   17.7369   21.2229 H   0  0  0  0  0  0  0  0  0  0  0  0
   12.2628   16.6704   19.9076 H   0  0  0  0  0  0  0  0  0  0  0  0
   14.8031   22.3439   17.7266 C   0  0  0  0  0  0  0  0  0  0  0  0
   14.4517   21.8866   16.3003 C   0  0  0  0  0  0  0  0  0  0  0  0
   13.4650   20.7462   16.3204 C   0  0  0  0  0  0  0  0  0  0  0  0
   13.9712   23.0562   15.4727 C   0  0  0  0  0  0  0  0  0  0  0  0
   18.2062   25.3055   17.0898 C   0  0  0  0  0  0  0  0  0  0  0  0
   19.2746   24.7594   17.9040 N   0  0  0  0  0  0  0  0  0  0  0  0
   20.2406   25.5944   18.3561 C   0  0  0  0  0  0  0  0  0  0  0  0
   20.3968   26.8354   18.1315 O   0  0  0  0  0  0  0  0  0  0  0  0
   19.2974   23.8001   18.1240 H   0  0  0  0  0  0  0  0  0  0  0  0
   21.1131   24.8792   19.1918 O   0  0  0  0  0  0  0  0  0  0  0  0
   20.5904   24.4008   20.4765 C   0  0  0  0  0  0  0  0  0  0  0  0
   21.2369   23.0368   20.7298 C   0  0  0  0  0  0  0  0  0  0  0  0
   22.5919   23.3147   21.1550 O   0  0  0  0  0  0  0  0  0  0  0  0
   22.5010   24.5868   21.8029 C   0  0  0  0  0  0  0  0  0  0  0  0
   23.5769   25.4262   21.3967 O   0  0  0  0  0  0  0  0  0  0  0  0
   22.9533   26.5882   20.8094 C   0  0  0  0  0  0  0  0  0  0  0  0
   21.5315   26.6867   21.4212 C   0  0  0  0  0  0  0  0  0  0  0  0
   21.2039   25.2405   21.6095 C   0  0  0  0  0  0  0  0  0  0  0  0
   18.5427   25.0032   15.5996 C   0  0  0  0  0  0  0  0  0  0  0  0
   20.9947   25.2211   15.0362 C   0  0  0  0  0  0  0  0  0  0  0  0
   22.0692   26.0088   14.6028 C   0  0  0  0  0  0  0  0  0  0  0  0
   21.9050   27.3550   14.2845 C   0  0  0  0  0  0  0  0  0  0  0  0
   20.6337   27.9319   14.3781 C   0  0  0  0  0  0  0  0  0  0  0  0
   19.5529   27.1782   14.8175 C   0  0  0  0  0  0  0  0  0  0  0  0
   19.7327   25.8104   15.0913 C   0  0  0  0  0  0  0  0  0  0  0  0
  9 10  1  0  0  0
 10 11  2  0  0  0
 10 15  1  0  0  0
 11 12  1  0  0  0
 12 13  2  0  0  0
 13 14  1  0  0  0
 13  6  1  0  0  0
 14 15  2  0  0  0
  6  7  2  0  0  0
  6  8  2  0  0  0
  6  5  1  0  0  0
  5 18  1  0  0  0
  5  4  1  0  0  0
 18 19  1  0  0  0
 19 20  1  0  0  0
 19 21  1  0  0  0
  4  1  1  0  0  0
  1  2  1  0  0  0
  1 22  1  0  0  0
 22 23  1  0  0  0
 22 36  1  0  0  0
 23 24  1  0  0  0
 24 25  2  0  0  0
 24 27  1  0  0  0
 27 28  1  0  0  0
 28 29  1  0  0  0
 28 35  1  0  0  0
 29 30  1  0  0  0
 30 31  1  0  0  0
 31 32  1  0  0  0
 31 35  1  0  0  0
 32 33  1  0  0  0
 33 34  1  0  0  0
 34 35  1  0  0  0
 36 42  1  0  0  0
 37 38  2  0  0  0
 37 42  1  0  0  0
 38 39  1  0  0  0
 39 40  2  0  0  0
 40 41  1  0  0  0
 41 42  2  0  0  0
  9 16  1  0  0  0
  9 17  1  0  0  0
  2  3  1  0  0  0
 23 26  1  0  0  0
M  END
> <minimizedAffinity>
-9.10786

$$$$
2F8G_017_B_401


 42 45  0  0  0  0  0  0  0  0999 V2000
   17.8046   23.2753   17.7472 C   0  0  0  0  0  0  0  0  0  0  0  0
   18.2999   22.0866   17.1581 O   0  0  0  0  0  0  0  0  0  0  0  0
   18.1638   22.1203   16.1983 H   0  0  0  0  0  0  0  0  0  0  0  0
   16.2671   23.2658   17.3883 C   0  0  0  0  0  0  0  0  0  0  0  0
   15.8329   21.8159   17.4181 N   0  0  0  0  0  0  0  0  0  0  0  0
   15.5682   21.2023   19.0502 S   0  0  0  0  0  0  0  0  0  0  0  0
   14.9550   22.3109   19.8978 O   0  0  0  0  0  0  0  0  0  0  0  0
   16.9452   20.6538   19.4945 O   0  0  0  0  0  0  0  0  0  0  0  0
   11.8120   16.6465   18.3860 N   0  0  0  0  0  0  0  0  0  0  0  0
   12.6704   17.6889   18.6150 C   0  0  0  0  0  0  0  0  0  0  0  0
   12.1798   18.9884   18.7170 C   0  0  0  0  0  0  0  0  0  0  0  0
   13.0572   20.0578   18.8792 C   0  0  0  0  0  0  0  0  0  0  0  0
   14.4197   19.7804   19.0529 C   0  0  0  0  0  0  0  0  0  0  0  0
   14.9773   18.5054   18.8614 C   0  0  0  0  0  0  0  0  0  0  0  0
   14.0638   17.4360   18.6707 C   0  0  0  0  0  0  0  0  0  0  0  0
   10.8417   16.8078   18.3449 H   0  0  0  0  0  0  0  0  0  0  0  0
   12.1653   15.7359   18.2626 H   0  0  0  0  0  0  0  0  0  0  0  0
   14.8851   21.3252   16.3704 C   0  0  0  0  0  0  0  0  0  0  0  0
   14.8049   22.3289   15.2073 C   0  0  0  0  0  0  0  0  0  0  0  0
   15.1214   21.6648   13.8907 C   0  0  0  0  0  0  0  0  0  0  0  0
   13.4630   23.0241   15.1995 C   0  0  0  0  0  0  0  0  0  0  0  0
   18.6321   24.4983   17.2654 C   0  0  0  0  0  0  0  0  0  0  0  0
   19.2913   25.0897   18.4135 N   0  0  0  0  0  0  0  0  0  0  0  0
   19.9967   24.2860   19.2450 C   0  0  0  0  0  0  0  0  0  0  0  0
   20.1431   23.0243   19.2067 O   0  0  0  0  0  0  0  0  0  0  0  0
   19.2275   26.0570   18.5853 H   0  0  0  0  0  0  0  0  0  0  0  0
   20.6213   25.0730   20.2256 O   0  0  0  0  0  0  0  0  0  0  0  0
   21.9529   24.6629   20.6852 C   0  0  0  0  0  0  0  0  0  0  0  0
   22.9112   24.9040   19.5164 C   0  0  0  0  0  0  0  0  0  0  0  0
   23.1413   26.3323   19.4824 O   0  0  0  0  0  0  0  0  0  0  0  0
   23.0005   26.7416   20.8458 C   0  0  0  0  0  0  0  0  0  0  0  0
   22.2233   27.9319   20.9266 O   0  0  0  0  0  0  0  0  0  0  0  0
   21.0928   27.5935   21.7581 C   0  0  0  0  0  0  0  0  0  0  0  0
   21.5325   26.3960   22.6404 C   0  0  0  0  0  0  0  0  0  0  0  0
   22.4649   25.6876   21.7114 C   0  0  0  0  0  0  0  0  0  0  0  0
   19.7224   24.1961   16.1951 C   0  0  0  0  0  0  0  0  0  0  0  0
   21.5773   25.7609   15.4967 C   0  0  0  0  0  0  0  0  0  0  0  0
   21.9864   26.9472   14.8737 C   0  0  0  0  0  0  0  0  0  0  0  0
   21.0677   27.8285   14.3081 C   0  0  0  0  0  0  0  0  0  0  0  0
   19.7048   27.5139   14.3422 C   0  0  0  0  0  0  0  0  0  0  0  0
   19.2695   26.3509   14.9647 C   0  0  0  0  0  0  0  0  0  0  0  0
   20.2174   25.4546   15.4902 C   0  0  0  0  0  0  0  0  0  0  0  0
  9 10  1  0  0  0
 10 11  2  0  0  0
 10 15  1  0  0  0
 11 12  1  0  0  0
 12 13  2  0  0  0
 13 14  1  0  0  0
 13  6  1  0  0  0
 14 15  2  0  0  0
  6  7  2  0  0  0
  6  8  2  0  0  0
  6  5  1  0  0  0
  5 18  1  0  0  0
  5  4  1  0  0  0
 18 19  1  0  0  0
 19 20  1  0  0  0
 19 21  1  0  0  0
  4  1  1  0  0  0
  1  2  1  0  0  0
  1 22  1  0  0  0
 22 23  1  0  0  0
 22 36  1  0  0  0
 23 24  1  0  0  0
 24 25  2  0  0  0
 24 27  1  0  0  0
 27 28  1  0  0  0
 28 29  1  0  0  0
 28 35  1  0  0  0
 29 30  1  0  0  0
 30 31  1  0  0  0
 31 32  1  0  0  0
 31 35  1  0  0  0
 32 33  1  0  0  0
 33 34  1  0  0  0
 34 35  1  0  0  0
 36 42  1  0  0  0
 37 38  2  0  0  0
 37 42  1  0  0  0
 38 39  1  0  0  0
 39 40  2  0  0  0
 40 41  1  0  0  0
 41 42  2  0  0  0
  9 16  1  0  0  0
  9 17  1  0  0  0
  2  3  1  0  0  0
 23 26  1  0  0  0
M  END
> <minimizedAffinity>
-8.96792

$$$$
2F8G_017_B_401


 42 45  0  0  0  0  0  0  0  0999 V2000
   14.3243   20.0857   18.0669 C   0  0  0  0  0  0  0  0  0  0  0  0
   15.1764   19.7824   19.1566 O   0  0  0  0  0  0  0  0  0  0  0  0
   14.7211   19.9842   19.9890 H   0  0  0  0  0  0  0  0  0  0  0  0
   14.0595   21.6355   18.2111 C   0  0  0  0  0  0  0  0  0  0  0  0
   15.0305   22.3215   17.2740 N   0  0  0  0  0  0  0  0  0  0  0  0
   16.2391   23.2933   18.1137 S   0  0  0  0  0  0  0  0  0  0  0  0
   16.9116   22.4304   19.1752 O   0  0  0  0  0  0  0  0  0  0  0  0
   15.4702   24.5436   18.6038 O   0  0  0  0  0  0  0  0  0  0  0  0
   20.4169   25.8305   14.7353 N   0  0  0  0  0  0  0  0  0  0  0  0
   19.4547   25.1857   15.4663 C   0  0  0  0  0  0  0  0  0  0  0  0
   18.1071   25.3797   15.1725 C   0  0  0  0  0  0  0  0  0  0  0  0
   17.1256   24.7811   15.9586 C   0  0  0  0  0  0  0  0  0  0  0  0
   17.5286   23.8956   16.9670 C   0  0  0  0  0  0  0  0  0  0  0  0
   18.8661   23.7410   17.3678 C   0  0  0  0  0  0  0  0  0  0  0  0
   19.8463   24.3831   16.5668 C   0  0  0  0  0  0  0  0  0  0  0  0
   20.1591   26.3913   13.9683 H   0  0  0  0  0  0  0  0  0  0  0  0
   21.3663   25.7331   14.9769 H   0  0  0  0  0  0  0  0  0  0  0  0
   15.5066   21.5845   16.0629 C   0  0  0  0  0  0  0  0  0  0  0  0
   14.7539   22.0671   14.8109 C   0  0  0  0  0  0  0  0  0  0  0  0
   14.2357   20.9036   14.0034 C   0  0  0  0  0  0  0  0  0  0  0  0
   13.6633   23.0416   15.1918 C   0  0  0  0  0  0  0  0  0  0  0  0
   13.0810   19.1549   18.0824 C   0  0  0  0  0  0  0  0  0  0  0  0
   12.6806   18.8980   16.7127 N   0  0  0  0  0  0  0  0  0  0  0  0
   11.4392   19.2682   16.3168 C   0  0  0  0  0  0  0  0  0  0  0  0
   10.5023   19.7888   16.9994 O   0  0  0  0  0  0  0  0  0  0  0  0
   13.2992   18.4627   16.0825 H   0  0  0  0  0  0  0  0  0  0  0  0
   11.2985   19.0120   14.9436 O   0  0  0  0  0  0  0  0  0  0  0  0
   11.7619   17.7144   14.4393 C   0  0  0  0  0  0  0  0  0  0  0  0
   10.6457   16.7089   14.7316 C   0  0  0  0  0  0  0  0  0  0  0  0
    9.6216   16.9560   13.7396 O   0  0  0  0  0  0  0  0  0  0  0  0
   10.3439   17.4455   12.6060 C   0  0  0  0  0  0  0  0  0  0  0  0
    9.6773   18.5711   12.0439 O   0  0  0  0  0  0  0  0  0  0  0  0
   10.6352   19.6496   12.1015 C   0  0  0  0  0  0  0  0  0  0  0  0
   12.0405   18.9944   12.1398 C   0  0  0  0  0  0  0  0  0  0  0  0
   11.7480   17.7421   12.9017 C   0  0  0  0  0  0  0  0  0  0  0  0
   13.2764   17.7794   18.7862 C   0  0  0  0  0  0  0  0  0  0  0  0
   11.4598   17.2464   20.4574 C   0  0  0  0  0  0  0  0  0  0  0  0
   10.2630   16.5897   20.7722 C   0  0  0  0  0  0  0  0  0  0  0  0
    9.6048   15.7875   19.8428 C   0  0  0  0  0  0  0  0  0  0  0  0
   10.1376   15.6495   18.5564 C   0  0  0  0  0  0  0  0  0  0  0  0
   11.3297   16.2785   18.2206 C   0  0  0  0  0  0  0  0  0  0  0  0
   11.9539   17.1185   19.1603 C   0  0  0  0  0  0  0  0  0  0  0  0
  9 10  1  0  0  0
 10 11  2  0  0  0
 10 15  1  0  0  0
 11 12  1  0  0  0
 12 13  2  0  0  0
 13 14  1  0  0  0
 13  6  1  0  0  0
 14 15  2  0  0  0
  6  7  2  0  0  0
  6  8  2  0  0  0
  6  5  1  0  0  0
  5 18  1  0  0  0
  5  4  1  0  0  0
 18 19  1  0  0  0
 19 20  1  0  0  0
 19 21  1  0  0  0
  4  1  1  0  0  0
  1  2  1  0  0  0
  1 22  1  0  0  0
 22 23  1  0  0  0
 22 36  1  0  0  0
 23 24  1  0  0  0
 24 25  2  0  0  0
 24 27  1  0  0  0
 27 28  1  0  0  0
 28 29  1  0  0  0
 28 35  1  0  0  0
 29 30  1  0  0  0
 30 31  1  0  0  0
 31 32  1  0  0  0
 31 35  1  0  0  0
 32 33  1  0  0  0
 33 34  1  0  0  0
 34 35  1  0  0  0
 36 42  1  0  0  0
 37 38  2  0  0  0
 37 42  1  0  0  0
 38 39  1  0  0  0
 39 40  2  0  0  0
 40 41  1  0  0  0
 41 42  2  0  0  0
  9 16  1  0  0  0
  9 17  1  0  0  0
  2  3  1  0  0  0
 23 26  1  0  0  0
M  END
> <minimizedAffinity>
-8.81628

$$$$
2F8G_017_B_401


 42 45  0  0  0  0  0  0  0  0999 V2000
   16.4727   23.4264   16.7226 C   0  0  0  0  0  0  0  0  0  0  0  0
   16.2827   24.6244   15.9917 O   0  0  0  0  0  0  0  0  0  0  0  0
   16.0265   25.3363   16.5987 H   0  0  0  0  0  0  0  0  0  0  0  0
   15.0589   23.1456   17.3668 C   0  0  0  0  0  0  0  0  0  0  0  0
   14.6678   21.7469   16.9399 N   0  0  0  0  0  0  0  0  0  0  0  0
   14.6791   20.5857   18.2671 S   0  0  0  0  0  0  0  0  0  0  0  0
   14.4884   21.3379   19.5791 O   0  0  0  0  0  0  0  0  0  0  0  0
   15.9989   19.7970   18.0912 O   0  0  0  0  0  0  0  0  0  0  0  0
   10.1551   16.7358   18.3963 N   0  0  0  0  0  0  0  0  0  0  0  0
   11.2113   17.6018   18.2941 C   0  0  0  0  0  0  0  0  0  0  0  0
   12.4943   17.1823   18.6373 C   0  0  0  0  0  0  0  0  0  0  0  0
   13.5580   18.0807   18.6019 C   0  0  0  0  0  0  0  0  0  0  0  0
   13.3243   19.3696   18.1045 C   0  0  0  0  0  0  0  0  0  0  0  0
   12.0397   19.8725   17.8397 C   0  0  0  0  0  0  0  0  0  0  0  0
   10.9685   18.9439   17.9089 C   0  0  0  0  0  0  0  0  0  0  0  0
   10.3092   15.8007   18.6628 H   0  0  0  0  0  0  0  0  0  0  0  0
    9.2417   17.0484   18.2031 H   0  0  0  0  0  0  0  0  0  0  0  0
   13.5771   21.5794   15.9303 C   0  0  0  0  0  0  0  0  0  0  0  0
   14.0679   20.7278   14.7468 C   0  0  0  0  0  0  0  0  0  0  0  0
   12.9099   20.1390   13.9809 C   0  0  0  0  0  0  0  0  0  0  0  0
   14.9984   21.5304   13.8670 C   0  0  0  0  0  0  0  0  0  0  0  0
   17.6728   23.5768   17.6972 C   0  0  0  0  0  0  0  0  0  0  0  0
   18.5347   24.6348   17.2070 N   0  0  0  0  0  0  0  0  0  0  0  0
   19.8767   24.4806   17.3077 C   0  0  0  0  0  0  0  0  0  0  0  0
   20.5370   23.5302   17.8326 O   0  0  0  0  0  0  0  0  0  0  0  0
   18.1519   25.4496   16.8086 H   0  0  0  0  0  0  0  0  0  0  0  0
   20.5127   25.5713   16.6937 O   0  0  0  0  0  0  0  0  0  0  0  0
   20.5824   26.8317   17.4416 C   0  0  0  0  0  0  0  0  0  0  0  0
   21.7438   26.6899   18.4282 C   0  0  0  0  0  0  0  0  0  0  0  0
   22.9496   26.8539   17.6451 O   0  0  0  0  0  0  0  0  0  0  0  0
   22.5583   27.7235   16.5788 C   0  0  0  0  0  0  0  0  0  0  0  0
   23.0774   27.2509   15.3401 O   0  0  0  0  0  0  0  0  0  0  0  0
   21.9229   27.0310   14.5018 C   0  0  0  0  0  0  0  0  0  0  0  0
   20.7952   27.9441   15.0498 C   0  0  0  0  0  0  0  0  0  0  0  0
   21.1102   27.9364   16.5110 C   0  0  0  0  0  0  0  0  0  0  0  0
   17.3056   23.9091   19.1737 C   0  0  0  0  0  0  0  0  0  0  0  0
   18.9869   24.1085   21.0473 C   0  0  0  0  0  0  0  0  0  0  0  0
   19.8984   23.5026   21.9219 C   0  0  0  0  0  0  0  0  0  0  0  0
   20.1347   22.1301   21.8933 C   0  0  0  0  0  0  0  0  0  0  0  0
   19.4307   21.3316   20.9852 C   0  0  0  0  0  0  0  0  0  0  0  0
   18.5306   21.9070   20.0974 C   0  0  0  0  0  0  0  0  0  0  0  0
   18.2753   23.2880   20.1736 C   0  0  0  0  0  0  0  0  0  0  0  0
  9 10  1  0  0  0
 10 11  2  0  0  0
 10 15  1  0  0  0
 11 12  1  0  0  0
 12 13  2  0  0  0
 13 14  1  0  0  0
 13  6  1  0  0  0
 14 15  2  0  0  0
  6  7  2  0  0  0
  6  8  2  0  0  0
  6  5  1  0  0  0
  5 18  1  0  0  0
  5  4  1  0  0  0
 18 19  1  0  0  0
 19 20  1  0  0  0
 19 21  1  0  0  0
  4  1  1  0  0  0
  1  2  1  0  0  0
  1 22  1  0  0  0
 22 23  1  0  0  0
 22 36  1  0  0  0
 23 24  1  0  0  0
 24 25  2  0  0  0
 24 27  1  0  0  0
 27 28  1  0  0  0
 28 29  1  0  0  0
 28 35  1  0  0  0
 29 30  1  0  0  0
 30 31  1  0  0  0
 31 32  1  0  0  0
 31 35  1  0  0  0
 32 33  1  0  0  0
 33 34  1  0  0  0
 34 35  1  0  0  0
 36 42  1  0  0  0
 37 38  2  0  0  0
 37 42  1  0  0  0
 38 39  1  0  0  0
 39 40  2  0  0  0
 40 41  1  0  0  0
 41 42  2  0  0  0
  9 16  1  0  0  0
  9 17  1  0  0  0
  2  3  1  0  0  0
 23 26  1  0  0  0
M  END
> <minimizedAffinity>
-8.78363

$$$$
2F8G_017_B_401


 42 45  0  0  0  0  0  0  0  0999 V2000
   17.6233   22.7399   18.4279 C   0  0  0  0  0  0  0  0  0  0  0  0
   16.7061   22.9562   19.4850 O   0  0  0  0  0  0  0  0  0  0  0  0
   16.8431   22.2871   20.1739 H   0  0  0  0  0  0  0  0  0  0  0  0
   17.2624   21.2961   17.9007 C   0  0  0  0  0  0  0  0  0  0  0  0
   15.7971   21.3358   17.5226 N   0  0  0  0  0  0  0  0  0  0  0  0
   14.7246   20.8787   18.8459 S   0  0  0  0  0  0  0  0  0  0  0  0
   14.0031   22.1248   19.3458 O   0  0  0  0  0  0  0  0  0  0  0  0
   15.6348   20.1378   19.8546 O   0  0  0  0  0  0  0  0  0  0  0  0
   10.3653   17.0093   17.6927 N   0  0  0  0  0  0  0  0  0  0  0  0
   11.4000   17.8848   17.8899 C   0  0  0  0  0  0  0  0  0  0  0  0
   12.5799   17.4486   18.4877 C   0  0  0  0  0  0  0  0  0  0  0  0
   13.6061   18.3519   18.7534 C   0  0  0  0  0  0  0  0  0  0  0  0
   13.4660   19.6706   18.3009 C   0  0  0  0  0  0  0  0  0  0  0  0
   12.2651   20.1847   17.7842 C   0  0  0  0  0  0  0  0  0  0  0  0
   11.2245   19.2489   17.5476 C   0  0  0  0  0  0  0  0  0  0  0  0
   10.4733   16.0590   17.9259 H   0  0  0  0  0  0  0  0  0  0  0  0
    9.5135   17.3304   17.3177 H   0  0  0  0  0  0  0  0  0  0  0  0
   15.3111   22.4360   16.6339 C   0  0  0  0  0  0  0  0  0  0  0  0
   14.4101   21.8696   15.5229 C   0  0  0  0  0  0  0  0  0  0  0  0
   13.2301   22.7725   15.2640 C   0  0  0  0  0  0  0  0  0  0  0  0
   15.2170   21.5959   14.2748 C   0  0  0  0  0  0  0  0  0  0  0  0
   19.0777   22.9645   18.9247 C   0  0  0  0  0  0  0  0  0  0  0  0
   19.7295   23.9035   18.0326 N   0  0  0  0  0  0  0  0  0  0  0  0
   19.0136   24.9468   17.5492 C   0  0  0  0  0  0  0  0  0  0  0  0
   17.7857   25.2247   17.7221 O   0  0  0  0  0  0  0  0  0  0  0  0
   20.6745   23.7849   17.7829 H   0  0  0  0  0  0  0  0  0  0  0  0
   19.8579   25.7715   16.7887 O   0  0  0  0  0  0  0  0  0  0  0  0
   20.1360   25.3737   15.4041 C   0  0  0  0  0  0  0  0  0  0  0  0
   18.9886   25.9236   14.5534 C   0  0  0  0  0  0  0  0  0  0  0  0
   19.2461   27.3405   14.4112 O   0  0  0  0  0  0  0  0  0  0  0  0
   20.6716   27.4444   14.4717 C   0  0  0  0  0  0  0  0  0  0  0  0
   21.0525   28.5310   15.3093 O   0  0  0  0  0  0  0  0  0  0  0  0
   21.8610   27.9440   16.3514 C   0  0  0  0  0  0  0  0  0  0  0  0
   22.4383   26.6244   15.7760 C   0  0  0  0  0  0  0  0  0  0  0  0
   21.3236   26.1964   14.8769 C   0  0  0  0  0  0  0  0  0  0  0  0
   19.2182   23.5122   20.3758 C   0  0  0  0  0  0  0  0  0  0  0  0
   21.6788   23.0901   20.7560 C   0  0  0  0  0  0  0  0  0  0  0  0
   22.9515   23.5766   21.0819 C   0  0  0  0  0  0  0  0  0  0  0  0
   23.1647   24.9209   21.3786 C   0  0  0  0  0  0  0  0  0  0  0  0
   22.0881   25.8132   21.3298 C   0  0  0  0  0  0  0  0  0  0  0  0
   20.8128   25.3565   21.0223 C   0  0  0  0  0  0  0  0  0  0  0  0
   20.6287   24.0039   20.6834 C   0  0  0  0  0  0  0  0  0  0  0  0
  9 10  1  0  0  0
 10 11  2  0  0  0
 10 15  1  0  0  0
 11 12  1  0  0  0
 12 13  2  0  0  0
 13 14  1  0  0  0
 13  6  1  0  0  0
 14 15  2  0  0  0
  6  7  2  0  0  0
  6  8  2  0  0  0
  6  5  1  0  0  0
  5 18  1  0  0  0
  5  4  1  0  0  0
 18 19  1  0  0  0
 19 20  1  0  0  0
 19 21  1  0  0  0
  4  1  1  0  0  0
  1  2  1  0  0  0
  1 22  1  0  0  0
 22 23  1  0  0  0
 22 36  1  0  0  0
 23 24  1  0  0  0
 24 25  2  0  0  0
 24 27  1  0  0  0
 27 28  1  0  0  0
 28 29  1  0  0  0
 28 35  1  0  0  0
 29 30  1  0  0  0
 30 31  1  0  0  0
 31 32  1  0  0  0
 31 35  1  0  0  0
 32 33  1  0  0  0
 33 34  1  0  0  0
 34 35  1  0  0  0
 36 42  1  0  0  0
 37 38  2  0  0  0
 37 42  1  0  0  0
 38 39  1  0  0  0
 39 40  2  0  0  0
 40 41  1  0  0  0
 41 42  2  0  0  0
  9 16  1  0  0  0
  9 17  1  0  0  0
  2  3  1  0  0  0
 23 26  1  0  0  0
M  END
> <minimizedAffinity>
-8.75282

$$$$
