4TRC_ADE_A_301


 13 14  0  0  0  0  0  0  0  0999 V2000
   42.6674   37.4617  -10.1567 N   0  0  0  0  0  0  0  0  0  0  0  0
   41.7099   36.4998   -9.7330 C   0  0  0  0  0  0  0  0  0  0  0  0
   41.6485   35.5479  -10.6609 N   0  0  0  0  0  0  0  0  0  0  0  0
   42.5284   35.8727  -11.6522 C   0  0  0  0  0  0  0  0  0  0  0  0
   42.8656   35.2326  -12.8515 C   0  0  0  0  0  0  0  0  0  0  0  0
   42.2228   34.0181  -13.2150 N   0  0  0  0  0  0  0  0  0  0  0  0
   43.7968   35.7735  -13.6766 N   0  0  0  0  0  0  0  0  0  0  0  0
   44.3915   36.9335  -13.3428 C   0  0  0  0  0  0  0  0  0  0  0  0
   44.0592   37.6000  -12.0956 N   0  0  0  0  0  0  0  0  0  0  0  0
   43.1549   37.0757  -11.3079 C   0  0  0  0  0  0  0  0  0  0  0  0
   42.9202   38.2781   -9.6678 H   0  0  0  0  0  0  0  0  0  0  0  0
   41.5464   33.6217  -12.6195 H   0  0  0  0  0  0  0  0  0  0  0  0
   42.4540   33.5733  -14.0623 H   0  0  0  0  0  0  0  0  0  0  0  0
  1  2  1  0  0  0
  1 10  1  0  0  0
  2  3  2  0  0  0
  3  4  1  0  0  0
  4  5  1  0  0  0
  4 10  2  0  0  0
  5  6  1  0  0  0
  5  7  2  0  0  0
  7  8  1  0  0  0
  8  9  2  0  0  0
  9 10  1  0  0  0
  1 11  1  0  0  0
  6 12  1  0  0  0
  6 13  1  0  0  0
M  END
> <minimizedAffinity>
-5.30418

$$$$
4TRC_ADE_A_301


 13 14  0  0  0  0  0  0  0  0999 V2000
   42.2634   34.0826  -13.1581 N   0  0  0  0  0  0  0  0  0  0  0  0
   41.4340   33.8707  -12.0228 C   0  0  0  0  0  0  0  0  0  0  0  0
   41.6187   34.8886  -11.1858 N   0  0  0  0  0  0  0  0  0  0  0  0
   42.5319   35.7324  -11.7485 C   0  0  0  0  0  0  0  0  0  0  0  0
   43.0854   36.9413  -11.3080 C   0  0  0  0  0  0  0  0  0  0  0  0
   42.7109   37.4774  -10.0461 N   0  0  0  0  0  0  0  0  0  0  0  0
   43.9892   37.5994  -12.0766 N   0  0  0  0  0  0  0  0  0  0  0  0
   44.3592   37.0826  -13.2626 C   0  0  0  0  0  0  0  0  0  0  0  0
   43.7826   35.8360  -13.7355 N   0  0  0  0  0  0  0  0  0  0  0  0
   42.9164   35.2033  -12.9855 C   0  0  0  0  0  0  0  0  0  0  0  0
   42.3342   33.4882  -13.9397 H   0  0  0  0  0  0  0  0  0  0  0  0
   42.0554   37.0035   -9.4848 H   0  0  0  0  0  0  0  0  0  0  0  0
   43.1069   38.3227   -9.7333 H   0  0  0  0  0  0  0  0  0  0  0  0
  1  2  1  0  0  0
  1 10  1  0  0  0
  2  3  2  0  0  0
  3  4  1  0  0  0
  4  5  1  0  0  0
  4 10  2  0  0  0
  5  6  1  0  0  0
  5  7  2  0  0  0
  7  8  1  0  0  0
  8  9  2  0  0  0
  9 10  1  0  0  0
  1 11  1  0  0  0
  6 12  1  0  0  0
  6 13  1  0  0  0
M  END
> <minimizedAffinity>
-5.14303

$$$$
4TRC_ADE_A_301


 13 14  0  0  0  0  0  0  0  0999 V2000
   43.8192   35.8495  -13.8052 N   0  0  0  0  0  0  0  0  0  0  0  0
   44.4770   37.0619  -13.4602 C   0  0  0  0  0  0  0  0  0  0  0  0
   44.0276   37.4460  -12.2680 N   0  0  0  0  0  0  0  0  0  0  0  0
   43.1125   36.5243  -11.8492 C   0  0  0  0  0  0  0  0  0  0  0  0
   42.3405   36.4341  -10.6840 C   0  0  0  0  0  0  0  0  0  0  0  0
   42.4339   37.4443   -9.6885 N   0  0  0  0  0  0  0  0  0  0  0  0
   41.4921   35.3906  -10.5053 N   0  0  0  0  0  0  0  0  0  0  0  0
   41.3883   34.4441  -11.4561 C   0  0  0  0  0  0  0  0  0  0  0  0
   42.1932   34.5203  -12.6629 N   0  0  0  0  0  0  0  0  0  0  0  0
   43.0044   35.5335  -12.8315 C   0  0  0  0  0  0  0  0  0  0  0  0
   43.9537   35.3360  -14.6343 H   0  0  0  0  0  0  0  0  0  0  0  0
   43.0481   38.2035   -9.8137 H   0  0  0  0  0  0  0  0  0  0  0  0
   41.8844   37.3849   -8.8738 H   0  0  0  0  0  0  0  0  0  0  0  0
  1  2  1  0  0  0
  1 10  1  0  0  0
  2  3  2  0  0  0
  3  4  1  0  0  0
  4  5  1  0  0  0
  4 10  2  0  0  0
  5  6  1  0  0  0
  5  7  2  0  0  0
  7  8  1  0  0  0
  8  9  2  0  0  0
  9 10  1  0  0  0
  1 11  1  0  0  0
  6 12  1  0  0  0
  6 13  1  0  0  0
M  END
> <minimizedAffinity>
-4.94113

$$$$
4TRC_ADE_A_301


 13 14  0  0  0  0  0  0  0  0999 V2000
   40.9941   30.6890  -15.1723 N   0  0  0  0  0  0  0  0  0  0  0  0
   41.5267   31.0696  -13.9100 C   0  0  0  0  0  0  0  0  0  0  0  0
   40.6979   31.9584  -13.3678 N   0  0  0  0  0  0  0  0  0  0  0  0
   39.6654   32.1531  -14.2387 C   0  0  0  0  0  0  0  0  0  0  0  0
   38.5289   32.9694  -14.1758 C   0  0  0  0  0  0  0  0  0  0  0  0
   38.3157   33.8066  -13.0472 N   0  0  0  0  0  0  0  0  0  0  0  0
   37.6337   32.9743  -15.1953 N   0  0  0  0  0  0  0  0  0  0  0  0
   37.8449   32.1968  -16.2730 C   0  0  0  0  0  0  0  0  0  0  0  0
   39.0133   31.3367  -16.3439 N   0  0  0  0  0  0  0  0  0  0  0  0
   39.8761   31.3424  -15.3596 C   0  0  0  0  0  0  0  0  0  0  0  0
   41.3974   30.0446  -15.7978 H   0  0  0  0  0  0  0  0  0  0  0  0
   38.9625   33.8065  -12.3050 H   0  0  0  0  0  0  0  0  0  0  0  0
   37.5212   34.3867  -13.0077 H   0  0  0  0  0  0  0  0  0  0  0  0
  1  2  1  0  0  0
  1 10  1  0  0  0
  2  3  2  0  0  0
  3  4  1  0  0  0
  4  5  1  0  0  0
  4 10  2  0  0  0
  5  6  1  0  0  0
  5  7  2  0  0  0
  7  8  1  0  0  0
  8  9  2  0  0  0
  9 10  1  0  0  0
  1 11  1  0  0  0
  6 12  1  0  0  0
  6 13  1  0  0  0
M  END
> <minimizedAffinity>
-4.77152

$$$$
4TRC_ADE_A_301


 13 14  0  0  0  0  0  0  0  0999 V2000
   37.8399   33.2980  -15.2835 N   0  0  0  0  0  0  0  0  0  0  0  0
   37.6410   32.4467  -16.4049 C   0  0  0  0  0  0  0  0  0  0  0  0
   38.4636   31.4081  -16.2808 N   0  0  0  0  0  0  0  0  0  0  0  0
   39.1730   31.5720  -15.1265 C   0  0  0  0  0  0  0  0  0  0  0  0
   40.1614   30.7896  -14.5160 C   0  0  0  0  0  0  0  0  0  0  0  0
   40.5975   29.5855  -15.1326 N   0  0  0  0  0  0  0  0  0  0  0  0
   40.7154   31.1823  -13.3415 N   0  0  0  0  0  0  0  0  0  0  0  0
   40.3173   32.3321  -12.7670 C   0  0  0  0  0  0  0  0  0  0  0  0
   39.2840   33.1454  -13.3843 N   0  0  0  0  0  0  0  0  0  0  0  0
   38.7591   32.7636  -14.5209 C   0  0  0  0  0  0  0  0  0  0  0  0
   37.3673   34.1441  -15.1106 H   0  0  0  0  0  0  0  0  0  0  0  0
   40.1986   29.2964  -15.9850 H   0  0  0  0  0  0  0  0  0  0  0  0
   41.2986   29.0406  -14.7074 H   0  0  0  0  0  0  0  0  0  0  0  0
  1  2  1  0  0  0
  1 10  1  0  0  0
  2  3  2  0  0  0
  3  4  1  0  0  0
  4  5  1  0  0  0
  4 10  2  0  0  0
  5  6  1  0  0  0
  5  7  2  0  0  0
  7  8  1  0  0  0
  8  9  2  0  0  0
  9 10  1  0  0  0
  1 11  1  0  0  0
  6 12  1  0  0  0
  6 13  1  0  0  0
M  END
> <minimizedAffinity>
-4.76327

$$$$
4TRC_ADE_A_301


 13 14  0  0  0  0  0  0  0  0999 V2000
   39.1654   33.8648  -13.4148 N   0  0  0  0  0  0  0  0  0  0  0  0
   40.0948   33.1508  -12.6098 C   0  0  0  0  0  0  0  0  0  0  0  0
   40.2528   31.9416  -13.1425 N   0  0  0  0  0  0  0  0  0  0  0  0
   39.4593   31.8656  -14.2502 C   0  0  0  0  0  0  0  0  0  0  0  0
   39.2403   30.8379  -15.1762 C   0  0  0  0  0  0  0  0  0  0  0  0
   39.9035   29.5900  -15.0244 N   0  0  0  0  0  0  0  0  0  0  0  0
   38.3864   31.0235  -16.2141 N   0  0  0  0  0  0  0  0  0  0  0  0
   37.7429   32.1977  -16.3475 C   0  0  0  0  0  0  0  0  0  0  0  0
   37.9716   33.2752  -15.4005 N   0  0  0  0  0  0  0  0  0  0  0  0
   38.7916   33.0865  -14.3979 C   0  0  0  0  0  0  0  0  0  0  0  0
   38.8562   34.7864  -13.2593 H   0  0  0  0  0  0  0  0  0  0  0  0
   40.5240   29.4505  -14.2729 H   0  0  0  0  0  0  0  0  0  0  0  0
   39.7424   28.8650  -15.6707 H   0  0  0  0  0  0  0  0  0  0  0  0
  1  2  1  0  0  0
  1 10  1  0  0  0
  2  3  2  0  0  0
  3  4  1  0  0  0
  4  5  1  0  0  0
  4 10  2  0  0  0
  5  6  1  0  0  0
  5  7  2  0  0  0
  7  8  1  0  0  0
  8  9  2  0  0  0
  9 10  1  0  0  0
  1 11  1  0  0  0
  6 12  1  0  0  0
  6 13  1  0  0  0
M  END
> <minimizedAffinity>
-4.75486

$$$$
4TRC_ADE_A_301


 13 14  0  0  0  0  0  0  0  0999 V2000
   39.3161   31.0223  -15.3801 N   0  0  0  0  0  0  0  0  0  0  0  0
   38.5940   31.9755  -16.1493 C   0  0  0  0  0  0  0  0  0  0  0  0
   38.1933   32.9437  -15.3290 N   0  0  0  0  0  0  0  0  0  0  0  0
   38.6336   32.6375  -14.0741 C   0  0  0  0  0  0  0  0  0  0  0  0
   38.4983   33.2993  -12.8471 C   0  0  0  0  0  0  0  0  0  0  0  0
   37.7729   34.5194  -12.7728 N   0  0  0  0  0  0  0  0  0  0  0  0
   39.0474   32.7742  -11.7231 N   0  0  0  0  0  0  0  0  0  0  0  0
   39.7174   31.6091  -11.7888 C   0  0  0  0  0  0  0  0  0  0  0  0
   39.8751   30.9201  -13.0579 N   0  0  0  0  0  0  0  0  0  0  0  0
   39.3367   31.4293  -14.1368 C   0  0  0  0  0  0  0  0  0  0  0  0
   39.7296   30.1976  -15.7240 H   0  0  0  0  0  0  0  0  0  0  0  0
   37.3726   34.9043  -13.5857 H   0  0  0  0  0  0  0  0  0  0  0  0
   37.6707   34.9795  -11.9084 H   0  0  0  0  0  0  0  0  0  0  0  0
  1  2  1  0  0  0
  1 10  1  0  0  0
  2  3  2  0  0  0
  3  4  1  0  0  0
  4  5  1  0  0  0
  4 10  2  0  0  0
  5  6  1  0  0  0
  5  7  2  0  0  0
  7  8  1  0  0  0
  8  9  2  0  0  0
  9 10  1  0  0  0
  1 11  1  0  0  0
  6 12  1  0  0  0
  6 13  1  0  0  0
M  END
> <minimizedAffinity>
-4.56681

$$$$
4TRC_ADE_A_301


 13 14  0  0  0  0  0  0  0  0999 V2000
   41.7578   35.9317   -7.3537 N   0  0  0  0  0  0  0  0  0  0  0  0
   41.5476   36.8461   -8.4222 C   0  0  0  0  0  0  0  0  0  0  0  0
   40.4968   36.4237   -9.1209 N   0  0  0  0  0  0  0  0  0  0  0  0
   40.0377   35.2797   -8.5355 C   0  0  0  0  0  0  0  0  0  0  0  0
   38.9710   34.4290   -8.8523 C   0  0  0  0  0  0  0  0  0  0  0  0
   38.1552   34.7016   -9.9838 N   0  0  0  0  0  0  0  0  0  0  0  0
   38.7188   33.3358   -8.0893 N   0  0  0  0  0  0  0  0  0  0  0  0
   39.5027   33.0660   -7.0295 C   0  0  0  0  0  0  0  0  0  0  0  0
   40.6041   33.9479   -6.6838 N   0  0  0  0  0  0  0  0  0  0  0  0
   40.8455   34.9968   -7.4285 C   0  0  0  0  0  0  0  0  0  0  0  0
   42.4678   35.9918   -6.6743 H   0  0  0  0  0  0  0  0  0  0  0  0
   38.3343   35.4936  -10.5405 H   0  0  0  0  0  0  0  0  0  0  0  0
   37.4110   34.0983  -10.2109 H   0  0  0  0  0  0  0  0  0  0  0  0
  1  2  1  0  0  0
  1 10  1  0  0  0
  2  3  2  0  0  0
  3  4  1  0  0  0
  4  5  1  0  0  0
  4 10  2  0  0  0
  5  6  1  0  0  0
  5  7  2  0  0  0
  7  8  1  0  0  0
  8  9  2  0  0  0
  9 10  1  0  0  0
  1 11  1  0  0  0
  6 12  1  0  0  0
  6 13  1  0  0  0
M  END
> <minimizedAffinity>
-4.43671

$$$$
4TRC_ADE_A_301


 13 14  0  0  0  0  0  0  0  0999 V2000
   44.4601   37.4541  -13.0658 N   0  0  0  0  0  0  0  0  0  0  0  0
   44.4387   36.4601  -14.0823 C   0  0  0  0  0  0  0  0  0  0  0  0
   43.5694   35.5209  -13.7176 N   0  0  0  0  0  0  0  0  0  0  0  0
   43.0434   35.8835  -12.5117 C   0  0  0  0  0  0  0  0  0  0  0  0
   42.0964   35.2709  -11.6811 C   0  0  0  0  0  0  0  0  0  0  0  0
   41.5195   34.0272  -12.0562 N   0  0  0  0  0  0  0  0  0  0  0  0
   41.7346   35.8542  -10.5109 N   0  0  0  0  0  0  0  0  0  0  0  0
   42.2949   37.0217  -10.1455 C   0  0  0  0  0  0  0  0  0  0  0  0
   43.2687   37.6727  -11.0046 N   0  0  0  0  0  0  0  0  0  0  0  0
   43.6179   37.1007  -12.1289 C   0  0  0  0  0  0  0  0  0  0  0  0
   45.0134   38.2683  -13.0668 H   0  0  0  0  0  0  0  0  0  0  0  0
   41.7789   33.6001  -12.9044 H   0  0  0  0  0  0  0  0  0  0  0  0
   40.8605   33.5929  -11.4677 H   0  0  0  0  0  0  0  0  0  0  0  0
  1  2  1  0  0  0
  1 10  1  0  0  0
  2  3  2  0  0  0
  3  4  1  0  0  0
  4  5  1  0  0  0
  4 10  2  0  0  0
  5  6  1  0  0  0
  5  7  2  0  0  0
  7  8  1  0  0  0
  8  9  2  0  0  0
  9 10  1  0  0  0
  1 11  1  0  0  0
  6 12  1  0  0  0
  6 13  1  0  0  0
M  END
> <minimizedAffinity>
-4.33934

$$$$
4TRC_ADE_A_301


 13 14  0  0  0  0  0  0  0  0999 V2000
   42.6930   35.8726  -11.9221 N   0  0  0  0  0  0  0  0  0  0  0  0
   43.2606   37.0325  -11.3269 C   0  0  0  0  0  0  0  0  0  0  0  0
   42.5901   37.2866  -10.2059 N   0  0  0  0  0  0  0  0  0  0  0  0
   41.6225   36.3335  -10.0722 C   0  0  0  0  0  0  0  0  0  0  0  0
   40.6454   36.1227   -9.0910 C   0  0  0  0  0  0  0  0  0  0  0  0
   40.5383   37.0153   -7.9901 N   0  0  0  0  0  0  0  0  0  0  0  0
   39.7900   35.0746   -9.1924 N   0  0  0  0  0  0  0  0  0  0  0  0
   39.8778   34.2405  -10.2446 C   0  0  0  0  0  0  0  0  0  0  0  0
   40.8952   34.4417  -11.2618 N   0  0  0  0  0  0  0  0  0  0  0  0
   41.7125   35.4590  -11.1608 C   0  0  0  0  0  0  0  0  0  0  0  0
   42.9872   35.4528  -12.7626 H   0  0  0  0  0  0  0  0  0  0  0  0
   41.1568   37.7773   -7.9122 H   0  0  0  0  0  0  0  0  0  0  0  0
   39.8456   36.8715   -7.3054 H   0  0  0  0  0  0  0  0  0  0  0  0
  1  2  1  0  0  0
  1 10  1  0  0  0
  2  3  2  0  0  0
  3  4  1  0  0  0
  4  5  1  0  0  0
  4 10  2  0  0  0
  5  6  1  0  0  0
  5  7  2  0  0  0
  7  8  1  0  0  0
  8  9  2  0  0  0
  9 10  1  0  0  0
  1 11  1  0  0  0
  6 12  1  0  0  0
  6 13  1  0  0  0
M  END
> <minimizedAffinity>
-4.32062

$$$$
