4LAR_1WE_L_300


 12 12  0  0  0  0  0  0  0  0999 V2000
   -4.8933   -3.3965   16.4384 C   0  0  0  0  0  0  0  0  0  0  0  0
   -4.8273   -4.6821   16.8788 C   0  0  0  0  0  0  0  0  0  0  0  0
   -5.9254   -5.4942   16.8018 C   0  0  0  0  0  0  0  0  0  0  0  0
   -3.6870   -5.1367   17.4656 C   0  0  0  0  0  0  0  0  0  0  0  0
   -5.8731   -6.7708   17.2900 C   0  0  0  0  0  0  0  0  0  0  0  0
   -3.6293   -6.4006   17.9525 C   0  0  0  0  0  0  0  0  0  0  0  0
   -4.7296   -7.2337   17.8709 C   0  0  0  0  0  0  0  0  0  0  0  0
   -3.0815   -3.0717   14.7788 N   0  0  0  0  0  0  0  0  0  0  0  0
   -3.5532   -2.7597   16.0973 C   0  0  0  0  0  0  0  0  0  0  0  0
   -3.7542   -1.3210   16.0726 C   0  0  0  0  0  0  0  0  0  0  0  0
   -2.1840   -2.6134   14.6215 H   0  0  0  0  0  0  0  0  0  0  0  0
   -3.7570   -2.7422   14.0892 H   0  0  0  0  0  0  0  0  0  0  0  0
 10  9  1  0  0  0
  9  8  1  0  0  0
  9  1  1  0  0  0
  3  5  2  0  0  0
  3  2  1  0  0  0
  5  7  1  0  0  0
  1  2  1  0  0  0
  2  4  2  0  0  0
  7  6  2  0  0  0
  4  6  1  0  0  0
  8 11  1  0  0  0
  8 12  1  0  0  0
M  END
> <minimizedAffinity>
-7.74080

$$$$
4LAR_1WE_L_300


 12 12  0  0  0  0  0  0  0  0999 V2000
   -4.9087   -3.4092   16.4279 C   0  0  0  0  0  0  0  0  0  0  0  0
   -4.8511   -4.6706   16.9346 C   0  0  0  0  0  0  0  0  0  0  0  0
   -3.6892   -5.1409   17.4824 C   0  0  0  0  0  0  0  0  0  0  0  0
   -5.9314   -5.4907   16.8274 C   0  0  0  0  0  0  0  0  0  0  0  0
   -3.6176   -6.4255   17.9464 C   0  0  0  0  0  0  0  0  0  0  0  0
   -5.8662   -6.7654   17.2843 C   0  0  0  0  0  0  0  0  0  0  0  0
   -4.7005   -7.2483   17.8492 C   0  0  0  0  0  0  0  0  0  0  0  0
   -3.0773   -3.0965   14.7876 N   0  0  0  0  0  0  0  0  0  0  0  0
   -3.5611   -2.7810   16.1009 C   0  0  0  0  0  0  0  0  0  0  0  0
   -3.7528   -1.3411   16.0735 C   0  0  0  0  0  0  0  0  0  0  0  0
   -2.1753   -2.6439   14.6397 H   0  0  0  0  0  0  0  0  0  0  0  0
   -3.7434   -2.7630   14.0908 H   0  0  0  0  0  0  0  0  0  0  0  0
 10  9  1  0  0  0
  9  8  1  0  0  0
  9  1  1  0  0  0
  3  5  2  0  0  0
  3  2  1  0  0  0
  5  7  1  0  0  0
  1  2  1  0  0  0
  2  4  2  0  0  0
  7  6  2  0  0  0
  4  6  1  0  0  0
  8 11  1  0  0  0
  8 12  1  0  0  0
M  END
> <minimizedAffinity>
-7.72062

$$$$
4LAR_1WE_L_300


 12 12  0  0  0  0  0  0  0  0999 V2000
   -3.4764   -3.6895   16.9023 C   0  0  0  0  0  0  0  0  0  0  0  0
   -4.1907   -4.8308   17.0976 C   0  0  0  0  0  0  0  0  0  0  0  0
   -5.5352   -4.8539   16.8465 C   0  0  0  0  0  0  0  0  0  0  0  0
   -3.5782   -5.9299   17.6154 C   0  0  0  0  0  0  0  0  0  0  0  0
   -6.2617   -5.9869   17.0902 C   0  0  0  0  0  0  0  0  0  0  0  0
   -4.2931   -7.0555   17.8604 C   0  0  0  0  0  0  0  0  0  0  0  0
   -5.6504   -7.0936   17.6007 C   0  0  0  0  0  0  0  0  0  0  0  0
   -2.7355   -1.9891   15.2584 N   0  0  0  0  0  0  0  0  0  0  0  0
   -3.2251   -3.3246   15.4458 C   0  0  0  0  0  0  0  0  0  0  0  0
   -2.1436   -4.1705   14.9706 C   0  0  0  0  0  0  0  0  0  0  0  0
   -2.5910   -1.8164   14.2636 H   0  0  0  0  0  0  0  0  0  0  0  0
   -1.8512   -1.8784   15.7547 H   0  0  0  0  0  0  0  0  0  0  0  0
 10  9  1  0  0  0
  9  8  1  0  0  0
  9  1  1  0  0  0
  3  5  2  0  0  0
  3  2  1  0  0  0
  5  7  1  0  0  0
  1  2  1  0  0  0
  2  4  2  0  0  0
  7  6  2  0  0  0
  4  6  1  0  0  0
  8 11  1  0  0  0
  8 12  1  0  0  0
M  END
> <minimizedAffinity>
-7.61947

$$$$
4LAR_1WE_L_300


 12 12  0  0  0  0  0  0  0  0999 V2000
   -5.1494   -5.0344   16.7148 C   0  0  0  0  0  0  0  0  0  0  0  0
   -4.4049   -4.0092   16.2190 C   0  0  0  0  0  0  0  0  0  0  0  0
   -3.2949   -4.2666   15.4621 C   0  0  0  0  0  0  0  0  0  0  0  0
   -4.7244   -2.7264   16.5406 C   0  0  0  0  0  0  0  0  0  0  0  0
   -2.5190   -3.2369   15.0058 C   0  0  0  0  0  0  0  0  0  0  0  0
   -3.9584   -1.7014   16.0923 C   0  0  0  0  0  0  0  0  0  0  0  0
   -2.8403   -1.9491   15.3180 C   0  0  0  0  0  0  0  0  0  0  0  0
   -3.8685   -5.7926   18.6964 N   0  0  0  0  0  0  0  0  0  0  0  0
   -4.3552   -6.1422   17.3928 C   0  0  0  0  0  0  0  0  0  0  0  0
   -5.2730   -7.2414   17.6381 C   0  0  0  0  0  0  0  0  0  0  0  0
   -3.3489   -6.5785   19.0873 H   0  0  0  0  0  0  0  0  0  0  0  0
   -4.6562   -5.5695   19.3048 H   0  0  0  0  0  0  0  0  0  0  0  0
 10  9  1  0  0  0
  9  8  1  0  0  0
  9  1  1  0  0  0
  3  5  2  0  0  0
  3  2  1  0  0  0
  5  7  1  0  0  0
  1  2  1  0  0  0
  2  4  2  0  0  0
  7  6  2  0  0  0
  4  6  1  0  0  0
  8 11  1  0  0  0
  8 12  1  0  0  0
M  END
> <minimizedAffinity>
-7.12474

$$$$
4LAR_1WE_L_300


 12 12  0  0  0  0  0  0  0  0999 V2000
   -4.9687   -5.0053   16.8430 C   0  0  0  0  0  0  0  0  0  0  0  0
   -4.2599   -3.9556   16.3462 C   0  0  0  0  0  0  0  0  0  0  0  0
   -4.6620   -2.6723   16.5965 C   0  0  0  0  0  0  0  0  0  0  0  0
   -3.1913   -4.1861   15.5362 C   0  0  0  0  0  0  0  0  0  0  0  0
   -3.9778   -1.6187   16.0557 C   0  0  0  0  0  0  0  0  0  0  0  0
   -2.5098   -3.1459   14.9961 C   0  0  0  0  0  0  0  0  0  0  0  0
   -2.9009   -1.8445   15.2505 C   0  0  0  0  0  0  0  0  0  0  0  0
   -3.4279   -5.9138   18.5586 N   0  0  0  0  0  0  0  0  0  0  0  0
   -4.1306   -6.1769   17.3358 C   0  0  0  0  0  0  0  0  0  0  0  0
   -5.0490   -7.2499   17.6764 C   0  0  0  0  0  0  0  0  0  0  0  0
   -2.8908   -6.7385   18.8263 H   0  0  0  0  0  0  0  0  0  0  0  0
   -4.0980   -5.6908   19.2945 H   0  0  0  0  0  0  0  0  0  0  0  0
 10  9  1  0  0  0
  9  8  1  0  0  0
  9  1  1  0  0  0
  3  5  2  0  0  0
  3  2  1  0  0  0
  5  7  1  0  0  0
  1  2  1  0  0  0
  2  4  2  0  0  0
  7  6  2  0  0  0
  4  6  1  0  0  0
  8 11  1  0  0  0
  8 12  1  0  0  0
M  END
> <minimizedAffinity>
-7.10288

$$$$
4LAR_1WE_L_300


 12 12  0  0  0  0  0  0  0  0999 V2000
   -5.9620   -7.0257   17.6067 C   0  0  0  0  0  0  0  0  0  0  0  0
   -5.1044   -5.9790   17.4647 C   0  0  0  0  0  0  0  0  0  0  0  0
   -5.3870   -4.9710   16.5841 C   0  0  0  0  0  0  0  0  0  0  0  0
   -3.9270   -5.9742   18.1464 C   0  0  0  0  0  0  0  0  0  0  0  0
   -4.5010   -3.9445   16.4055 C   0  0  0  0  0  0  0  0  0  0  0  0
   -3.0440   -4.9602   17.9727 C   0  0  0  0  0  0  0  0  0  0  0  0
   -3.3237   -3.9309   17.0932 C   0  0  0  0  0  0  0  0  0  0  0  0
   -7.8513   -8.1092   16.4239 N   0  0  0  0  0  0  0  0  0  0  0  0
   -7.2961   -6.8711   16.8898 C   0  0  0  0  0  0  0  0  0  0  0  0
   -8.2583   -6.3953   17.8690 C   0  0  0  0  0  0  0  0  0  0  0  0
   -8.7397   -7.9290   15.9564 H   0  0  0  0  0  0  0  0  0  0  0  0
   -8.0045   -8.7327   17.2165 H   0  0  0  0  0  0  0  0  0  0  0  0
 10  9  1  0  0  0
  9  8  1  0  0  0
  9  1  1  0  0  0
  3  5  2  0  0  0
  3  2  1  0  0  0
  5  7  1  0  0  0
  1  2  1  0  0  0
  2  4  2  0  0  0
  7  6  2  0  0  0
  4  6  1  0  0  0
  8 11  1  0  0  0
  8 12  1  0  0  0
M  END
> <minimizedAffinity>
-6.97561

$$$$
4LAR_1WE_L_300


 12 12  0  0  0  0  0  0  0  0999 V2000
   -7.5054   -5.8982   17.6784 C   0  0  0  0  0  0  0  0  0  0  0  0
   -6.1611   -5.9091   17.4685 C   0  0  0  0  0  0  0  0  0  0  0  0
   -5.4087   -6.9768   17.8751 C   0  0  0  0  0  0  0  0  0  0  0  0
   -5.5551   -4.8215   16.9201 C   0  0  0  0  0  0  0  0  0  0  0  0
   -4.0512   -6.9654   17.7087 C   0  0  0  0  0  0  0  0  0  0  0  0
   -4.2097   -4.8037   16.7537 C   0  0  0  0  0  0  0  0  0  0  0  0
   -3.4404   -5.8813   17.1513 C   0  0  0  0  0  0  0  0  0  0  0  0
   -9.5533   -7.2788   17.8843 N   0  0  0  0  0  0  0  0  0  0  0  0
   -8.2210   -7.2031   17.3575 C   0  0  0  0  0  0  0  0  0  0  0  0
   -8.4043   -7.2504   15.9170 C   0  0  0  0  0  0  0  0  0  0  0  0
   -9.9685   -8.1755   17.6314 H   0  0  0  0  0  0  0  0  0  0  0  0
  -10.1161   -6.5219   17.4959 H   0  0  0  0  0  0  0  0  0  0  0  0
 10  9  1  0  0  0
  9  8  1  0  0  0
  9  1  1  0  0  0
  3  5  2  0  0  0
  3  2  1  0  0  0
  5  7  1  0  0  0
  1  2  1  0  0  0
  2  4  2  0  0  0
  7  6  2  0  0  0
  4  6  1  0  0  0
  8 11  1  0  0  0
  8 12  1  0  0  0
M  END
> <minimizedAffinity>
-6.86412

$$$$
4LAR_1WE_L_300


 12 12  0  0  0  0  0  0  0  0999 V2000
   -4.1584   -5.9470   17.5949 C   0  0  0  0  0  0  0  0  0  0  0  0
   -5.4638   -6.3295   17.6240 C   0  0  0  0  0  0  0  0  0  0  0  0
   -5.8329   -7.5575   17.1476 C   0  0  0  0  0  0  0  0  0  0  0  0
   -6.4128   -5.4574   18.0596 C   0  0  0  0  0  0  0  0  0  0  0  0
   -7.1512   -7.9217   17.1313 C   0  0  0  0  0  0  0  0  0  0  0  0
   -7.7213   -5.8120   18.0447 C   0  0  0  0  0  0  0  0  0  0  0  0
   -8.1050   -7.0544   17.5752 C   0  0  0  0  0  0  0  0  0  0  0  0
   -2.5889   -4.0302   17.5271 N   0  0  0  0  0  0  0  0  0  0  0  0
   -3.9202   -4.4845   17.2455 C   0  0  0  0  0  0  0  0  0  0  0  0
   -4.0408   -4.3616   15.8028 C   0  0  0  0  0  0  0  0  0  0  0  0
   -2.5034   -3.0470   17.2691 H   0  0  0  0  0  0  0  0  0  0  0  0
   -1.9204   -4.5821   16.9897 H   0  0  0  0  0  0  0  0  0  0  0  0
 10  9  1  0  0  0
  9  8  1  0  0  0
  9  1  1  0  0  0
  3  5  2  0  0  0
  3  2  1  0  0  0
  5  7  1  0  0  0
  1  2  1  0  0  0
  2  4  2  0  0  0
  7  6  2  0  0  0
  4  6  1  0  0  0
  8 11  1  0  0  0
  8 12  1  0  0  0
M  END
> <minimizedAffinity>
-6.81999

$$$$
4LAR_1WE_L_300


 12 12  0  0  0  0  0  0  0  0999 V2000
   -4.7846   -5.8836   18.2065 C   0  0  0  0  0  0  0  0  0  0  0  0
   -6.0122   -6.3617   17.8666 C   0  0  0  0  0  0  0  0  0  0  0  0
   -7.1409   -5.6697   18.2111 C   0  0  0  0  0  0  0  0  0  0  0  0
   -6.1187   -7.5688   17.2482 C   0  0  0  0  0  0  0  0  0  0  0  0
   -8.3762   -6.1754   17.9128 C   0  0  0  0  0  0  0  0  0  0  0  0
   -7.3404   -8.0760   16.9511 C   0  0  0  0  0  0  0  0  0  0  0  0
   -8.4876   -7.3806   17.2851 C   0  0  0  0  0  0  0  0  0  0  0  0
   -4.4562   -4.4983   16.1779 N   0  0  0  0  0  0  0  0  0  0  0  0
   -3.8917   -5.5014   17.0342 C   0  0  0  0  0  0  0  0  0  0  0  0
   -2.7038   -4.8720   17.5853 C   0  0  0  0  0  0  0  0  0  0  0  0
   -3.8060   -4.2939   15.4191 H   0  0  0  0  0  0  0  0  0  0  0  0
   -4.6282   -3.6492   16.7163 H   0  0  0  0  0  0  0  0  0  0  0  0
 10  9  1  0  0  0
  9  8  1  0  0  0
  9  1  1  0  0  0
  3  5  2  0  0  0
  3  2  1  0  0  0
  5  7  1  0  0  0
  1  2  1  0  0  0
  2  4  2  0  0  0
  7  6  2  0  0  0
  4  6  1  0  0  0
  8 11  1  0  0  0
  8 12  1  0  0  0
M  END
> <minimizedAffinity>
-6.80448

$$$$
4LAR_1WE_L_300


 12 12  0  0  0  0  0  0  0  0999 V2000
   -5.7425   -5.1111   16.7142 C   0  0  0  0  0  0  0  0  0  0  0  0
   -4.4183   -4.8154   16.6120 C   0  0  0  0  0  0  0  0  0  0  0  0
   -3.9181   -4.2839   15.4550 C   0  0  0  0  0  0  0  0  0  0  0  0
   -3.5780   -5.1194   17.6380 C   0  0  0  0  0  0  0  0  0  0  0  0
   -2.5789   -4.0332   15.3354 C   0  0  0  0  0  0  0  0  0  0  0  0
   -2.2494   -4.8744   17.5249 C   0  0  0  0  0  0  0  0  0  0  0  0
   -1.7341   -4.3279   16.3643 C   0  0  0  0  0  0  0  0  0  0  0  0
   -7.4103   -5.6136   18.4772 N   0  0  0  0  0  0  0  0  0  0  0  0
   -6.1274   -5.9459   17.9277 C   0  0  0  0  0  0  0  0  0  0  0  0
   -6.2781   -7.3184   17.4755 C   0  0  0  0  0  0  0  0  0  0  0  0
   -7.6000   -6.2100   19.2826 H   0  0  0  0  0  0  0  0  0  0  0  0
   -8.1309   -5.7582   17.7699 H   0  0  0  0  0  0  0  0  0  0  0  0
 10  9  1  0  0  0
  9  8  1  0  0  0
  9  1  1  0  0  0
  3  5  2  0  0  0
  3  2  1  0  0  0
  5  7  1  0  0  0
  1  2  1  0  0  0
  2  4  2  0  0  0
  7  6  2  0  0  0
  4  6  1  0  0  0
  8 11  1  0  0  0
  8 12  1  0  0  0
M  END
> <minimizedAffinity>
-6.48013

$$$$
