4HJ2_LZ6_A_301
  RCSB PDB12061712523D
Coordinates from PDB:4HJ2:A:301 Model:1 without hydrogens
 38 38  0  0  0  0            999 V2000
   20.2430   -9.3460   14.8090   O 0  0  0  0  0  0  0  0  0  0  0  0
   20.9510   -8.3690   15.1360   C 0  0  0  0  0  0  0  0  0  0  0  0
   20.5780   -7.1780   15.2000   O 0  0  0  0  0  0  0  0  0  0  0  0
   22.4090   -8.6620   15.5000   C 0  0  0  0  0  0  0  0  0  0  0  0
   23.2480   -7.5140   15.1270   N 0  0  0  0  0  0  0  0  0  0  0  0
   22.5270   -8.9150   17.0040   C 0  0  0  0  0  0  0  0  0  0  0  0
   21.7180  -10.1420   17.4290   C 0  0  0  0  0  0  0  0  0  0  0  0
   21.9160  -10.4330   18.9190   C 0  0  0  0  0  0  0  0  0  0  0  0
   22.6010   -9.6940   19.6240   O 0  0  0  0  0  0  0  0  0  0  0  0
   21.3050  -11.5220   19.3750   N 0  0  0  0  0  0  0  0  0  0  0  0
   21.4220  -11.9130   20.7870   C 0  0  0  0  0  0  0  0  0  0  0  0
   21.8320  -13.3830   20.8930   C 0  0  0  0  0  0  0  0  0  0  0  0
   21.2070  -14.2550   20.2880   O 0  0  0  0  0  0  0  0  0  0  0  0
   22.8730  -13.6170   21.6850   N 0  0  0  0  0  0  0  0  0  0  0  0
   23.4040  -14.9710   21.9030   C 0  0  0  0  0  0  0  0  0  0  0  0
   24.8550  -15.0430   21.4230   C 0  0  0  0  0  0  0  0  0  0  0  0
   25.4750  -16.1040   21.6540   O 0  0  0  0  0  0  0  0  0  0  0  0
   25.3080  -14.0370   20.8350   O 0  0  0  0  0  0  0  0  0  0  0  0
   20.0780  -11.7240   21.4920   C 0  0  0  0  0  0  0  0  0  0  0  0
   19.4430  -10.0090   21.4320   S 0  0  0  0  0  0  0  0  0  0  0  0
   18.3020  -10.1450   22.8530   C 0  0  0  0  0  0  0  0  0  0  0  0
   19.0720  -10.2350   24.1720   C 0  0  0  0  0  0  0  0  0  0  0  0
   19.7490   -8.9510   24.3910   N 0  0  0  0  0  0  0  0  0  0  0  0
   21.1630   -8.7720   24.0240   C 0  0  0  0  0  0  0  0  0  0  0  0
   22.0660   -9.5010   25.0210   C 0  0  0  0  0  0  0  0  0  0  0  0
   21.8450  -11.0150   24.9820  Cl 0  0  0  0  0  0  0  0  0  0  0  0
   19.0390   -7.9450   24.8940   C 0  0  0  0  0  0  0  0  0  0  0  0
   17.6980   -8.1610   25.1850   C 0  0  0  0  0  0  0  0  0  0  0  0
   16.9150   -7.1250   25.6790   C 0  0  0  0  0  0  0  0  0  0  0  0
   17.4790   -5.8710   25.8810   C 0  0  0  0  0  0  0  0  0  0  0  0
   18.8230   -5.6540   25.5950   C 0  0  0  0  0  0  0  0  0  0  0  0
   19.6060   -6.6920   25.1000   C 0  0  0  0  0  0  0  0  0  0  0  0
   16.5880   -4.7400   26.3940   C 0  0  0  0  0  0  0  0  0  0  0  0
   17.0720   -4.1870   27.7370   C 0  0  0  0  0  0  0  0  0  0  0  0
   16.0120   -3.2660   28.3460   C 0  0  0  0  0  0  0  0  0  0  0  0
   15.6090   -2.1410   27.3920   C 0  0  0  0  0  0  0  0  0  0  0  0
   15.1870   -2.4710   26.2620   O 0  0  0  0  0  0  0  0  0  0  0  0
   15.7120   -0.9690   27.8170   O 0  0  0  0  0  0  0  0  0  0  0  0
  1  2  2  0  0  0  0
  4  2  1  0  0  0  0
  2  3  1  0  0  0  0
  6  4  1  0  0  0  0
  4  5  1  0  0  0  0
  7  6  1  0  0  0  0
  8  7  1  0  0  0  0
 10  8  1  0  0  0  0
  8  9  2  0  0  0  0
 11 10  1  0  0  0  0
 12 11  1  0  0  0  0
 11 19  1  0  0  0  0
 14 12  1  0  0  0  0
 13 12  2  0  0  0  0
 15 14  1  0  0  0  0
 16 15  1  0  0  0  0
 18 16  2  0  0  0  0
 16 17  1  0  0  0  0
 20 19  1  0  0  0  0
 20 21  1  0  0  0  0
 22 21  1  0  0  0  0
 23 22  1  0  0  0  0
 24 23  1  0  0  0  0
 27 23  1  0  0  0  0
 25 24  1  0  0  0  0
 26 25  1  0  0  0  0
 28 27  2  0  0  0  0
 27 32  1  0  0  0  0
 29 28  1  0  0  0  0
 29 30  2  0  0  0  0
 33 30  1  0  0  0  0
 30 31  1  0  0  0  0
 31 32  2  0  0  0  0
 33 34  1  0  0  0  0
 35 34  1  0  0  0  0
 35 36  1  0  0  0  0
 37 36  2  0  0  0  0
 36 38  1  0  0  0  0
A    1
O37
A    2
C35
A    3
O36
A    4
C34
A    5
N38
A    6
C33
A    7
C32
A    8
C30
A    9
O31
A   10
N29
A   11
C21
A   12
C22
A   13
O28
A   14
N23
A   15
C24
A   16
C25
A   17
O27
A   18
O26
A   19
C20
A   20
S13
A   21
C12
A   22
C11
A   23
N7
A   24
C8
A   25
C9
A   26
CL10
A   27
C1
A   28
C6
A   29
C5
A   30
C4
A   31
C3
A   32
C2
A   33
C14
A   34
C15
A   35
C16
A   36
C17
A   37
O18
A   38
O19
M  END
>  <InstanceId>
4HJ2_LZ6_A_301

>  <ChemCompId>
LZ6

>  <PdbId>
4HJ2

>  <ChainId>
A

>  <ResidueNumber>
301

>  <InsertionCode>


>  <Model>
1

>  <AltIds>


>  <MissingHeavyAtoms>
0

>  <ObservedFormula>
C24 N4 O8 S Cl

>  <Name>
L-gamma-glutamyl-S-(2-{[4-(3-carboxypropyl)phenyl](2-chloroethyl)amino}ethyl)-L-cysteinylglycine

>  <SystematicName>
(2S)-2-amino-5-[[(2R)-1-(carboxymethylamino)-3-[2-[2-chloroethyl-[4-(4-hydroxy-4-oxo-butyl)phenyl]amino]ethylsulfanyl]-1-oxo-propan-2-yl]amino]-5-oxo-pentanoic acid

>  <Synonyms>
Chlorambucil-Glutathione Conjugate

>  <Type>
NON-POLYMER

>  <Formula>
C24 H35 Cl N4 O8 S

>  <MolecularWeight>
575.075

>  <ModifiedDate>
2011-06-04

>  <Parent>


>  <OneLetterCode>


>  <SubcomponentList>


>  <AmbiguousFlag>
N

>  <InChI>
InChI=1S/C24H35ClN4O8S/c25-10-11-29(17-6-4-16(5-7-17)2-1-3-21(31)32)12-13-38-15-19(23(35)27-14-22(33)34)28-20(30)9-8-18(26)24(36)37/h4-7,18-19H,1-3,8-15,26H2,(H,27,35)(H,28,30)(H,31,32)(H,33,34)(H,36,37)/t18-,19-/m0/s1

>  <InChIKey>
BQVGPQFUMPRIMA-OALUTQOASA-N

>  <SMILES>
c1cc(ccc1CCCC(=O)O)N(CCSC[C@@H](C(=O)NCC(=O)O)NC(=O)CC[C@@H](C(=O)O)N)CCCl

$$$$
