4HJ2_LZ6_A_301


 45 45  0  0  0  0  0  0  0  0999 V2000
   19.3095   -2.0931   16.1196 C   0  0  0  0  0  0  0  0  0  0  0  0
   18.9627   -2.2702   14.6402 C   0  0  0  0  0  0  0  0  0  0  0  0
   19.4180   -3.2166   13.9968 O   0  0  0  0  0  0  0  0  0  0  0  0
   18.1709   -1.3299   14.1355 N   0  0  0  0  0  0  0  0  0  0  0  0
   17.8656   -0.6003   14.7217 H   0  0  0  0  0  0  0  0  0  0  0  0
   17.7353   -1.3422   12.7309 C   0  0  0  0  0  0  0  0  0  0  0  0
   16.6294   -0.3059   12.5214 C   0  0  0  0  0  0  0  0  0  0  0  0
   16.4146    0.0620   11.3458 O   0  0  0  0  0  0  0  0  0  0  0  0
   16.0244    0.0913   13.5408 O   0  0  0  0  0  0  0  0  0  0  0  0
   16.9223   -0.2939   10.6433 H   0  0  0  0  0  0  0  0  0  0  0  0
   21.5435   -1.1280   16.1604 C   0  0  0  0  0  0  0  0  0  0  0  0
   22.0671   -2.2095   15.8988 O   0  0  0  0  0  0  0  0  0  0  0  0
   20.2311   -0.9609   16.2901 N   0  0  0  0  0  0  0  0  0  0  0  0
   19.8725   -0.0690   16.5026 H   0  0  0  0  0  0  0  0  0  0  0  0
   22.3904    0.1323   16.3570 C   0  0  0  0  0  0  0  0  0  0  0  0
   23.8594   -0.2312   16.5819 C   0  0  0  0  0  0  0  0  0  0  0  0
   24.7918    0.8600   16.0531 C   0  0  0  0  0  0  0  0  0  0  0  0
   24.2794    2.1795   16.4496 N   0  0  0  0  0  0  0  0  0  0  0  0
   23.3478    2.3145   16.0569 H   0  0  0  0  0  0  0  0  0  0  0  0
   24.9043    2.9060   16.1000 H   0  0  0  0  0  0  0  0  0  0  0  0
   24.1806    1.5992   13.8813 O   0  0  0  0  0  0  0  0  0  0  0  0
   24.8705    0.7801   14.5262 C   0  0  0  0  0  0  0  0  0  0  0  0
   25.6226   -0.0921   14.0411 O   0  0  0  0  0  0  0  0  0  0  0  0
   26.1027   -0.6641   14.6070 H   0  0  0  0  0  0  0  0  0  0  0  0
   18.0201   -1.8363   16.9009 C   0  0  0  0  0  0  0  0  0  0  0  0
   16.9423   -3.3065   17.0584 S   0  0  0  0  0  0  0  0  0  0  0  0
   16.1053   -2.8036   18.6031 C   0  0  0  0  0  0  0  0  0  0  0  0
   14.6494   -2.4139   18.3400 C   0  0  0  0  0  0  0  0  0  0  0  0
   14.4220   -1.0867   18.9245 N   0  0  0  0  0  0  0  0  0  0  0  0
   13.9791   -1.0200   20.1769 C   0  0  0  0  0  0  0  0  0  0  0  0
   14.5141   -0.0528   21.0182 C   0  0  0  0  0  0  0  0  0  0  0  0
   14.1022    0.0257   22.3428 C   0  0  0  0  0  0  0  0  0  0  0  0
   13.1521   -0.8677   22.8231 C   0  0  0  0  0  0  0  0  0  0  0  0
   12.6114   -1.8337   21.9808 C   0  0  0  0  0  0  0  0  0  0  0  0
   13.0249   -1.9117   20.6547 C   0  0  0  0  0  0  0  0  0  0  0  0
   12.7406   -0.7811   24.2925 C   0  0  0  0  0  0  0  0  0  0  0  0
   13.9450   -0.8507   25.2350 C   0  0  0  0  0  0  0  0  0  0  0  0
   13.7267    0.0606   26.4452 C   0  0  0  0  0  0  0  0  0  0  0  0
   12.4410   -0.2808   27.1994 C   0  0  0  0  0  0  0  0  0  0  0  0
   12.3994   -1.3805   27.7933 O   0  0  0  0  0  0  0  0  0  0  0  0
   11.5277    0.5738   27.1848 O   0  0  0  0  0  0  0  0  0  0  0  0
   11.6428    1.3747   26.7122 H   0  0  0  0  0  0  0  0  0  0  0  0
   14.6383    0.1337   18.1308 C   0  0  0  0  0  0  0  0  0  0  0  0
   13.2969    0.7391   17.7127 C   0  0  0  0  0  0  0  0  0  0  0  0
   13.0997    2.1380   18.3014 Cl  0  0  0  0  0  0  0  0  0  0  0  0
 21 22  2  0  0  0
 17 22  1  0  0  0
 22 23  1  0  0  0
 16 17  1  0  0  0
 17 18  1  0  0  0
 15 16  1  0  0  0
 11 15  1  0  0  0
 13 11  1  0  0  0
 11 12  2  0  0  0
  1 13  1  0  0  0
  2  1  1  0  0  0
  1 25  1  0  0  0
  4  2  1  0  0  0
  3  2  2  0  0  0
  6  4  1  0  0  0
  7  6  1  0  0  0
  9  7  2  0  0  0
  7  8  1  0  0  0
 26 25  1  0  0  0
 26 27  1  0  0  0
 28 27  1  0  0  0
 29 28  1  0  0  0
 43 29  1  0  0  0
 30 29  1  0  0  0
 44 43  1  0  0  0
 45 44  1  0  0  0
 31 30  2  0  0  0
 30 35  1  0  0  0
 32 31  1  0  0  0
 32 33  2  0  0  0
 36 33  1  0  0  0
 33 34  1  0  0  0
 34 35  2  0  0  0
 36 37  1  0  0  0
 38 37  1  0  0  0
 38 39  1  0  0  0
 40 39  2  0  0  0
 39 41  1  0  0  0
 23 24  1  0  0  0
 18 19  1  0  0  0
 18 20  1  0  0  0
 13 14  1  0  0  0
  4  5  1  0  0  0
  8 10  1  0  0  0
 41 42  1  0  0  0
M  END
> <minimizedAffinity>
-8.84100

$$$$
4HJ2_LZ6_A_301


 45 45  0  0  0  0  0  0  0  0999 V2000
   18.8551   -1.7324   16.6834 C   0  0  0  0  0  0  0  0  0  0  0  0
   17.7846   -1.9708   17.7499 C   0  0  0  0  0  0  0  0  0  0  0  0
   17.6672   -1.2025   18.7054 O   0  0  0  0  0  0  0  0  0  0  0  0
   17.0393   -3.0546   17.5609 N   0  0  0  0  0  0  0  0  0  0  0  0
   17.2138   -3.6205   16.7745 H   0  0  0  0  0  0  0  0  0  0  0  0
   15.9625   -3.4372   18.4867 C   0  0  0  0  0  0  0  0  0  0  0  0
   14.6278   -3.4824   17.7401 C   0  0  0  0  0  0  0  0  0  0  0  0
   13.6883   -4.0905   18.2977 O   0  0  0  0  0  0  0  0  0  0  0  0
   14.5786   -2.9060   16.6318 O   0  0  0  0  0  0  0  0  0  0  0  0
   13.8214   -4.4933   19.1332 H   0  0  0  0  0  0  0  0  0  0  0  0
   20.4024   -3.2859   15.6269 C   0  0  0  0  0  0  0  0  0  0  0  0
   21.3651   -2.5547   15.8526 O   0  0  0  0  0  0  0  0  0  0  0  0
   19.1561   -2.9877   15.9807 N   0  0  0  0  0  0  0  0  0  0  0  0
   18.4269   -3.6145   15.7696 H   0  0  0  0  0  0  0  0  0  0  0  0
   20.5798   -4.6253   14.9068 C   0  0  0  0  0  0  0  0  0  0  0  0
   21.2655   -5.6446   15.8187 C   0  0  0  0  0  0  0  0  0  0  0  0
   22.7743   -5.6892   15.5710 C   0  0  0  0  0  0  0  0  0  0  0  0
   23.1570   -7.0301   15.1057 N   0  0  0  0  0  0  0  0  0  0  0  0
   22.9129   -7.7193   15.8169 H   0  0  0  0  0  0  0  0  0  0  0  0
   24.1625   -7.0573   14.9368 H   0  0  0  0  0  0  0  0  0  0  0  0
   24.4262   -6.1576   17.2108 O   0  0  0  0  0  0  0  0  0  0  0  0
   23.5227   -5.3651   16.8668 C   0  0  0  0  0  0  0  0  0  0  0  0
   23.1786   -4.3307   17.4778 O   0  0  0  0  0  0  0  0  0  0  0  0
   22.4867   -3.7960   17.1412 H   0  0  0  0  0  0  0  0  0  0  0  0
   18.3376   -0.6913   15.6897 C   0  0  0  0  0  0  0  0  0  0  0  0
   16.7621   -1.1544   14.8826 S   0  0  0  0  0  0  0  0  0  0  0  0
   15.8301    0.3511   15.3350 C   0  0  0  0  0  0  0  0  0  0  0  0
   15.7754    0.5304   16.8534 C   0  0  0  0  0  0  0  0  0  0  0  0
   14.3688    0.4631   17.2681 N   0  0  0  0  0  0  0  0  0  0  0  0
   14.0953    0.0110   18.4887 C   0  0  0  0  0  0  0  0  0  0  0  0
   14.9348    0.3757   19.5337 C   0  0  0  0  0  0  0  0  0  0  0  0
   14.7020   -0.1045   20.8165 C   0  0  0  0  0  0  0  0  0  0  0  0
   13.6254   -0.9517   21.0503 C   0  0  0  0  0  0  0  0  0  0  0  0
   12.7806   -1.3140   20.0061 C   0  0  0  0  0  0  0  0  0  0  0  0
   13.0149   -0.8328   18.7219 C   0  0  0  0  0  0  0  0  0  0  0  0
   13.4109   -1.4922   22.4638 C   0  0  0  0  0  0  0  0  0  0  0  0
   13.8027   -0.4738   23.5376 C   0  0  0  0  0  0  0  0  0  0  0  0
   12.5711   -0.0457   24.3391 C   0  0  0  0  0  0  0  0  0  0  0  0
   12.6868   -0.4194   25.8173 C   0  0  0  0  0  0  0  0  0  0  0  0
   13.8354   -0.6181   26.2703 O   0  0  0  0  0  0  0  0  0  0  0  0
   11.6242   -0.4812   26.4745 O   0  0  0  0  0  0  0  0  0  0  0  0
   10.8031   -0.3172   26.0540 H   0  0  0  0  0  0  0  0  0  0  0  0
   13.2907    0.8457   16.3421 C   0  0  0  0  0  0  0  0  0  0  0  0
   12.9580    2.3307   16.5003 C   0  0  0  0  0  0  0  0  0  0  0  0
   12.4214    2.6442   17.8990 Cl  0  0  0  0  0  0  0  0  0  0  0  0
 21 22  2  0  0  0
 17 22  1  0  0  0
 22 23  1  0  0  0
 16 17  1  0  0  0
 17 18  1  0  0  0
 15 16  1  0  0  0
 11 15  1  0  0  0
 13 11  1  0  0  0
 11 12  2  0  0  0
  1 13  1  0  0  0
  2  1  1  0  0  0
  1 25  1  0  0  0
  4  2  1  0  0  0
  3  2  2  0  0  0
  6  4  1  0  0  0
  7  6  1  0  0  0
  9  7  2  0  0  0
  7  8  1  0  0  0
 26 25  1  0  0  0
 26 27  1  0  0  0
 28 27  1  0  0  0
 29 28  1  0  0  0
 43 29  1  0  0  0
 30 29  1  0  0  0
 44 43  1  0  0  0
 45 44  1  0  0  0
 31 30  2  0  0  0
 30 35  1  0  0  0
 32 31  1  0  0  0
 32 33  2  0  0  0
 36 33  1  0  0  0
 33 34  1  0  0  0
 34 35  2  0  0  0
 36 37  1  0  0  0
 38 37  1  0  0  0
 38 39  1  0  0  0
 40 39  2  0  0  0
 39 41  1  0  0  0
 23 24  1  0  0  0
 18 19  1  0  0  0
 18 20  1  0  0  0
 13 14  1  0  0  0
  4  5  1  0  0  0
  8 10  1  0  0  0
 41 42  1  0  0  0
M  END
> <minimizedAffinity>
-7.90174

$$$$
4HJ2_LZ6_A_301


 45 45  0  0  0  0  0  0  0  0999 V2000
   23.8577   -8.9910   17.9538 C   0  0  0  0  0  0  0  0  0  0  0  0
   22.9646   -8.9511   16.7124 C   0  0  0  0  0  0  0  0  0  0  0  0
   23.1947   -8.1589   15.7979 O   0  0  0  0  0  0  0  0  0  0  0  0
   21.9478   -9.8064   16.7280 N   0  0  0  0  0  0  0  0  0  0  0  0
   21.8324  -10.3938   17.5096 H   0  0  0  0  0  0  0  0  0  0  0  0
   20.9889   -9.9052   15.6173 C   0  0  0  0  0  0  0  0  0  0  0  0
   21.1328  -11.2629   14.9267 C   0  0  0  0  0  0  0  0  0  0  0  0
   22.2813  -11.5899   14.5560 O   0  0  0  0  0  0  0  0  0  0  0  0
   20.0920  -11.9415   14.7885 O   0  0  0  0  0  0  0  0  0  0  0  0
   23.0037  -11.0118   14.7041 H   0  0  0  0  0  0  0  0  0  0  0  0
   25.7166   -7.4271   18.1047 C   0  0  0  0  0  0  0  0  0  0  0  0
   26.5306   -8.2895   17.7792 O   0  0  0  0  0  0  0  0  0  0  0  0
   24.4122   -7.6560   18.2200 N   0  0  0  0  0  0  0  0  0  0  0  0
   23.8110   -6.9234   18.4866 H   0  0  0  0  0  0  0  0  0  0  0  0
   26.1625   -5.9934   18.4042 C   0  0  0  0  0  0  0  0  0  0  0  0
   25.9916   -5.1037   17.1714 C   0  0  0  0  0  0  0  0  0  0  0  0
   24.7897   -4.1691   17.3196 C   0  0  0  0  0  0  0  0  0  0  0  0
   24.3083   -4.2032   18.7081 N   0  0  0  0  0  0  0  0  0  0  0  0
   24.0260   -5.1539   18.9469 H   0  0  0  0  0  0  0  0  0  0  0  0
   23.5096   -3.5765   18.8066 H   0  0  0  0  0  0  0  0  0  0  0  0
   23.6607   -4.1172   15.2316 O   0  0  0  0  0  0  0  0  0  0  0  0
   23.6671   -4.6144   16.3785 C   0  0  0  0  0  0  0  0  0  0  0  0
   22.8476   -5.4453   16.8254 O   0  0  0  0  0  0  0  0  0  0  0  0
   22.9335   -5.7629   17.7028 H   0  0  0  0  0  0  0  0  0  0  0  0
   23.0218   -9.4544   19.1478 C   0  0  0  0  0  0  0  0  0  0  0  0
   23.7227   -8.9850   20.7715 S   0  0  0  0  0  0  0  0  0  0  0  0
   24.0076  -10.6812   21.3890 C   0  0  0  0  0  0  0  0  0  0  0  0
   23.0081  -11.6656   20.7784 C   0  0  0  0  0  0  0  0  0  0  0  0
   22.2756  -12.3084   21.8763 N   0  0  0  0  0  0  0  0  0  0  0  0
   21.2771  -11.6365   22.4426 C   0  0  0  0  0  0  0  0  0  0  0  0
   21.4577  -11.1393   23.7271 C   0  0  0  0  0  0  0  0  0  0  0  0
   20.4257  -10.4624   24.3652 C   0  0  0  0  0  0  0  0  0  0  0  0
   19.2114  -10.2846   23.7131 C   0  0  0  0  0  0  0  0  0  0  0  0
   19.0303  -10.7773   22.4249 C   0  0  0  0  0  0  0  0  0  0  0  0
   20.0642  -11.4553   21.7869 C   0  0  0  0  0  0  0  0  0  0  0  0
   18.0816   -9.5655   24.4498 C   0  0  0  0  0  0  0  0  0  0  0  0
   18.5014   -9.1130   25.8508 C   0  0  0  0  0  0  0  0  0  0  0  0
   17.5847   -7.9911   26.3443 C   0  0  0  0  0  0  0  0  0  0  0  0
   18.3022   -6.6418   26.3974 C   0  0  0  0  0  0  0  0  0  0  0  0
   19.3779   -6.5391   25.7679 O   0  0  0  0  0  0  0  0  0  0  0  0
   17.7518   -5.7289   27.0521 O   0  0  0  0  0  0  0  0  0  0  0  0
   16.9429   -5.8928   27.4957 H   0  0  0  0  0  0  0  0  0  0  0  0
   22.6644  -13.6418   22.3630 C   0  0  0  0  0  0  0  0  0  0  0  0
   22.7857  -14.6192   21.1921 C   0  0  0  0  0  0  0  0  0  0  0  0
   21.4438  -15.2785   20.8646 Cl  0  0  0  0  0  0  0  0  0  0  0  0
 21 22  2  0  0  0
 17 22  1  0  0  0
 22 23  1  0  0  0
 16 17  1  0  0  0
 17 18  1  0  0  0
 15 16  1  0  0  0
 11 15  1  0  0  0
 13 11  1  0  0  0
 11 12  2  0  0  0
  1 13  1  0  0  0
  2  1  1  0  0  0
  1 25  1  0  0  0
  4  2  1  0  0  0
  3  2  2  0  0  0
  6  4  1  0  0  0
  7  6  1  0  0  0
  9  7  2  0  0  0
  7  8  1  0  0  0
 26 25  1  0  0  0
 26 27  1  0  0  0
 28 27  1  0  0  0
 29 28  1  0  0  0
 43 29  1  0  0  0
 30 29  1  0  0  0
 44 43  1  0  0  0
 45 44  1  0  0  0
 31 30  2  0  0  0
 30 35  1  0  0  0
 32 31  1  0  0  0
 32 33  2  0  0  0
 36 33  1  0  0  0
 33 34  1  0  0  0
 34 35  2  0  0  0
 36 37  1  0  0  0
 38 37  1  0  0  0
 38 39  1  0  0  0
 40 39  2  0  0  0
 39 41  1  0  0  0
 23 24  1  0  0  0
 18 19  1  0  0  0
 18 20  1  0  0  0
 13 14  1  0  0  0
  4  5  1  0  0  0
  8 10  1  0  0  0
 41 42  1  0  0  0
M  END
> <minimizedAffinity>
-7.80732

$$$$
4HJ2_LZ6_A_301


 45 45  0  0  0  0  0  0  0  0999 V2000
   17.0578   -2.2988   16.1307 C   0  0  0  0  0  0  0  0  0  0  0  0
   16.7752   -2.5717   17.6092 C   0  0  0  0  0  0  0  0  0  0  0  0
   17.5595   -3.2373   18.2866 O   0  0  0  0  0  0  0  0  0  0  0  0
   15.6377   -2.0575   18.0648 N   0  0  0  0  0  0  0  0  0  0  0  0
   15.0638   -1.5502   17.4464 H   0  0  0  0  0  0  0  0  0  0  0  0
   15.2071   -2.2207   19.4615 C   0  0  0  0  0  0  0  0  0  0  0  0
   13.8118   -1.6212   19.6478 C   0  0  0  0  0  0  0  0  0  0  0  0
   13.0557   -2.1916   20.4642 O   0  0  0  0  0  0  0  0  0  0  0  0
   13.5361   -0.6064   18.9717 O   0  0  0  0  0  0  0  0  0  0  0  0
   13.3526   -2.9506   20.9264 H   0  0  0  0  0  0  0  0  0  0  0  0
   15.8161   -0.6596   14.8288 C   0  0  0  0  0  0  0  0  0  0  0  0
   15.2632   -1.5350   14.1653 O   0  0  0  0  0  0  0  0  0  0  0  0
   16.6937   -0.9152   15.7940 N   0  0  0  0  0  0  0  0  0  0  0  0
   17.1043   -0.1696   16.2887 H   0  0  0  0  0  0  0  0  0  0  0  0
   15.5209    0.8224   14.5828 C   0  0  0  0  0  0  0  0  0  0  0  0
   14.2006    1.2287   15.2402 C   0  0  0  0  0  0  0  0  0  0  0  0
   14.4380    2.0010   16.5391 C   0  0  0  0  0  0  0  0  0  0  0  0
   15.1561    1.1460   17.4954 N   0  0  0  0  0  0  0  0  0  0  0  0
   14.5977    0.3161   17.6953 H   0  0  0  0  0  0  0  0  0  0  0  0
   15.3175    1.6634   18.3595 H   0  0  0  0  0  0  0  0  0  0  0  0
   13.0979    2.7538   18.3486 O   0  0  0  0  0  0  0  0  0  0  0  0
   13.0967    2.4272   17.1419 C   0  0  0  0  0  0  0  0  0  0  0  0
   12.1053    2.4230   16.3812 O   0  0  0  0  0  0  0  0  0  0  0  0
   12.2021    2.1610   15.4868 H   0  0  0  0  0  0  0  0  0  0  0  0
   18.5467   -2.5245   15.8635 C   0  0  0  0  0  0  0  0  0  0  0  0
   19.5325   -0.9840   15.8072 S   0  0  0  0  0  0  0  0  0  0  0  0
   21.1345   -1.7285   16.2751 C   0  0  0  0  0  0  0  0  0  0  0  0
   21.3396   -3.0768   15.5817 C   0  0  0  0  0  0  0  0  0  0  0  0
   22.5675   -3.6794   16.1148 N   0  0  0  0  0  0  0  0  0  0  0  0
   22.5907   -4.9961   16.3012 C   0  0  0  0  0  0  0  0  0  0  0  0
   21.5969   -5.7664   15.7107 C   0  0  0  0  0  0  0  0  0  0  0  0
   21.5674   -7.1410   15.9108 C   0  0  0  0  0  0  0  0  0  0  0  0
   22.5365   -7.7427   16.7047 C   0  0  0  0  0  0  0  0  0  0  0  0
   23.5355   -6.9737   17.2928 C   0  0  0  0  0  0  0  0  0  0  0  0
   23.5639   -5.5973   17.0920 C   0  0  0  0  0  0  0  0  0  0  0  0
   22.4622   -9.2517   16.9358 C   0  0  0  0  0  0  0  0  0  0  0  0
   22.5641  -10.0422   15.6287 C   0  0  0  0  0  0  0  0  0  0  0  0
   21.1949  -10.6046   15.2392 C   0  0  0  0  0  0  0  0  0  0  0  0
   21.3027  -11.9820   14.5840 C   0  0  0  0  0  0  0  0  0  0  0  0
   20.2861  -12.7099   14.6088 O   0  0  0  0  0  0  0  0  0  0  0  0
   22.3959  -12.2762   14.0520 O   0  0  0  0  0  0  0  0  0  0  0  0
   23.1090  -11.6690   14.0801 H   0  0  0  0  0  0  0  0  0  0  0  0
   23.7243   -2.8426   16.4720 C   0  0  0  0  0  0  0  0  0  0  0  0
   24.4772   -2.4126   15.2114 C   0  0  0  0  0  0  0  0  0  0  0  0
   25.1026   -3.6091   14.4904 Cl  0  0  0  0  0  0  0  0  0  0  0  0
 21 22  2  0  0  0
 17 22  1  0  0  0
 22 23  1  0  0  0
 16 17  1  0  0  0
 17 18  1  0  0  0
 15 16  1  0  0  0
 11 15  1  0  0  0
 13 11  1  0  0  0
 11 12  2  0  0  0
  1 13  1  0  0  0
  2  1  1  0  0  0
  1 25  1  0  0  0
  4  2  1  0  0  0
  3  2  2  0  0  0
  6  4  1  0  0  0
  7  6  1  0  0  0
  9  7  2  0  0  0
  7  8  1  0  0  0
 26 25  1  0  0  0
 26 27  1  0  0  0
 28 27  1  0  0  0
 29 28  1  0  0  0
 43 29  1  0  0  0
 30 29  1  0  0  0
 44 43  1  0  0  0
 45 44  1  0  0  0
 31 30  2  0  0  0
 30 35  1  0  0  0
 32 31  1  0  0  0
 32 33  2  0  0  0
 36 33  1  0  0  0
 33 34  1  0  0  0
 34 35  2  0  0  0
 36 37  1  0  0  0
 38 37  1  0  0  0
 38 39  1  0  0  0
 40 39  2  0  0  0
 39 41  1  0  0  0
 23 24  1  0  0  0
 18 19  1  0  0  0
 18 20  1  0  0  0
 13 14  1  0  0  0
  4  5  1  0  0  0
  8 10  1  0  0  0
 41 42  1  0  0  0
M  END
> <minimizedAffinity>
-7.63773

$$$$
4HJ2_LZ6_A_301


 45 45  0  0  0  0  0  0  0  0999 V2000
   25.2675   -7.6592   18.4908 C   0  0  0  0  0  0  0  0  0  0  0  0
   24.2045   -8.2187   17.5437 C   0  0  0  0  0  0  0  0  0  0  0  0
   24.3296   -9.3405   17.0508 O   0  0  0  0  0  0  0  0  0  0  0  0
   23.1862   -7.4003   17.3007 N   0  0  0  0  0  0  0  0  0  0  0  0
   23.1762   -6.5136   17.7283 H   0  0  0  0  0  0  0  0  0  0  0  0
   22.0735   -7.7742   16.4147 C   0  0  0  0  0  0  0  0  0  0  0  0
   21.6437   -6.5645   15.5824 C   0  0  0  0  0  0  0  0  0  0  0  0
   22.2131   -6.4052   14.4806 O   0  0  0  0  0  0  0  0  0  0  0  0
   20.7552   -5.8303   16.0665 O   0  0  0  0  0  0  0  0  0  0  0  0
   22.8707   -7.0113   14.2011 H   0  0  0  0  0  0  0  0  0  0  0  0
   26.8336   -5.9441   17.7631 C   0  0  0  0  0  0  0  0  0  0  0  0
   27.7654   -6.7455   17.7213 O   0  0  0  0  0  0  0  0  0  0  0  0
   25.5966   -6.2756   18.1196 N   0  0  0  0  0  0  0  0  0  0  0  0
   24.8933   -5.5869   18.1352 H   0  0  0  0  0  0  0  0  0  0  0  0
   27.0407   -4.4725   17.3950 C   0  0  0  0  0  0  0  0  0  0  0  0
   26.0312   -4.0319   16.3332 C   0  0  0  0  0  0  0  0  0  0  0  0
   25.0165   -3.0402   16.9050 C   0  0  0  0  0  0  0  0  0  0  0  0
   25.2594   -2.8626   18.3439 N   0  0  0  0  0  0  0  0  0  0  0  0
   25.1571   -3.7593   18.8192 H   0  0  0  0  0  0  0  0  0  0  0  0
   24.5849   -2.1980   18.7231 H   0  0  0  0  0  0  0  0  0  0  0  0
   23.0112   -3.2044   15.6447 O   0  0  0  0  0  0  0  0  0  0  0  0
   23.5959   -3.5682   16.6879 C   0  0  0  0  0  0  0  0  0  0  0  0
   23.1320   -4.3274   17.5655 O   0  0  0  0  0  0  0  0  0  0  0  0
   23.6475   -4.5449   18.3171 H   0  0  0  0  0  0  0  0  0  0  0  0
   24.7245   -7.6990   19.9200 C   0  0  0  0  0  0  0  0  0  0  0  0
   25.1863   -9.2070   20.8478 S   0  0  0  0  0  0  0  0  0  0  0  0
   23.5910  -10.0789   20.6623 C   0  0  0  0  0  0  0  0  0  0  0  0
   23.5569  -11.3526   21.5092 C   0  0  0  0  0  0  0  0  0  0  0  0
   22.2170  -11.9406   21.3910 N   0  0  0  0  0  0  0  0  0  0  0  0
   21.2282  -11.3953   22.0939 C   0  0  0  0  0  0  0  0  0  0  0  0
   21.4849  -10.9969   23.3996 C   0  0  0  0  0  0  0  0  0  0  0  0
   20.4688  -10.4552   24.1770 C   0  0  0  0  0  0  0  0  0  0  0  0
   19.1936  -10.3134   23.6428 C   0  0  0  0  0  0  0  0  0  0  0  0
   18.9357  -10.7071   22.3337 C   0  0  0  0  0  0  0  0  0  0  0  0
   19.9539  -11.2498   21.5564 C   0  0  0  0  0  0  0  0  0  0  0  0
   18.0858   -9.7454   24.5296 C   0  0  0  0  0  0  0  0  0  0  0  0
   18.0146   -8.2178   24.4580 C   0  0  0  0  0  0  0  0  0  0  0  0
   17.0855   -7.6771   25.5476 C   0  0  0  0  0  0  0  0  0  0  0  0
   17.8560   -6.9730   26.6650 C   0  0  0  0  0  0  0  0  0  0  0  0
   17.7300   -5.7321   26.7547 O   0  0  0  0  0  0  0  0  0  0  0  0
   18.5439   -7.6917   27.4235 O   0  0  0  0  0  0  0  0  0  0  0  0
   18.5827   -8.6174   27.2838 H   0  0  0  0  0  0  0  0  0  0  0  0
   21.9855  -13.1263   20.5504 C   0  0  0  0  0  0  0  0  0  0  0  0
   22.2940  -14.4021   21.3365 C   0  0  0  0  0  0  0  0  0  0  0  0
   21.4556  -15.5851   20.8464 Cl  0  0  0  0  0  0  0  0  0  0  0  0
 21 22  2  0  0  0
 17 22  1  0  0  0
 22 23  1  0  0  0
 16 17  1  0  0  0
 17 18  1  0  0  0
 15 16  1  0  0  0
 11 15  1  0  0  0
 13 11  1  0  0  0
 11 12  2  0  0  0
  1 13  1  0  0  0
  2  1  1  0  0  0
  1 25  1  0  0  0
  4  2  1  0  0  0
  3  2  2  0  0  0
  6  4  1  0  0  0
  7  6  1  0  0  0
  9  7  2  0  0  0
  7  8  1  0  0  0
 26 25  1  0  0  0
 26 27  1  0  0  0
 28 27  1  0  0  0
 29 28  1  0  0  0
 43 29  1  0  0  0
 30 29  1  0  0  0
 44 43  1  0  0  0
 45 44  1  0  0  0
 31 30  2  0  0  0
 30 35  1  0  0  0
 32 31  1  0  0  0
 32 33  2  0  0  0
 36 33  1  0  0  0
 33 34  1  0  0  0
 34 35  2  0  0  0
 36 37  1  0  0  0
 38 37  1  0  0  0
 38 39  1  0  0  0
 40 39  2  0  0  0
 39 41  1  0  0  0
 23 24  1  0  0  0
 18 19  1  0  0  0
 18 20  1  0  0  0
 13 14  1  0  0  0
  4  5  1  0  0  0
  8 10  1  0  0  0
 41 42  1  0  0  0
M  END
> <minimizedAffinity>
-7.59662

$$$$
4HJ2_LZ6_A_301


 45 45  0  0  0  0  0  0  0  0999 V2000
   17.1665   -1.6919   15.8999 C   0  0  0  0  0  0  0  0  0  0  0  0
   16.4123   -2.4324   17.0058 C   0  0  0  0  0  0  0  0  0  0  0  0
   16.4294   -3.6626   17.0631 O   0  0  0  0  0  0  0  0  0  0  0  0
   15.7490   -1.6498   17.8504 N   0  0  0  0  0  0  0  0  0  0  0  0
   15.7800   -0.6745   17.7193 H   0  0  0  0  0  0  0  0  0  0  0  0
   14.9702   -2.1910   18.9744 C   0  0  0  0  0  0  0  0  0  0  0  0
   13.5887   -2.6301   18.4849 C   0  0  0  0  0  0  0  0  0  0  0  0
   13.4514   -3.8369   18.1877 O   0  0  0  0  0  0  0  0  0  0  0  0
   12.7034   -1.7496   18.4220 O   0  0  0  0  0  0  0  0  0  0  0  0
   14.1767   -4.4246   18.2677 H   0  0  0  0  0  0  0  0  0  0  0  0
   15.6424   -0.1600   14.7799 C   0  0  0  0  0  0  0  0  0  0  0  0
   15.2050   -1.0509   14.0538 O   0  0  0  0  0  0  0  0  0  0  0  0
   16.5838   -0.3578   15.6974 N   0  0  0  0  0  0  0  0  0  0  0  0
   16.8941    0.3976   16.2472 H   0  0  0  0  0  0  0  0  0  0  0  0
   15.1161    1.2739   14.6749 C   0  0  0  0  0  0  0  0  0  0  0  0
   14.7526    1.8206   16.0568 C   0  0  0  0  0  0  0  0  0  0  0  0
   13.3847    1.3129   16.5160 C   0  0  0  0  0  0  0  0  0  0  0  0
   12.3370    1.8669   15.6463 N   0  0  0  0  0  0  0  0  0  0  0  0
   12.3530    2.8853   15.7012 H   0  0  0  0  0  0  0  0  0  0  0  0
   11.4259    1.5243   15.9509 H   0  0  0  0  0  0  0  0  0  0  0  0
   12.3340    2.6935   18.1367 O   0  0  0  0  0  0  0  0  0  0  0  0
   13.1296    1.7452   17.9624 C   0  0  0  0  0  0  0  0  0  0  0  0
   13.7300    1.1137   18.8582 O   0  0  0  0  0  0  0  0  0  0  0  0
   14.3100    0.4141   18.6299 H   0  0  0  0  0  0  0  0  0  0  0  0
   18.6350   -1.5616   16.3067 C   0  0  0  0  0  0  0  0  0  0  0  0
   19.7120   -2.8775   15.6310 S   0  0  0  0  0  0  0  0  0  0  0  0
   21.3019   -2.1734   16.1930 C   0  0  0  0  0  0  0  0  0  0  0  0
   22.4321   -3.1976   16.0723 C   0  0  0  0  0  0  0  0  0  0  0  0
   23.7083   -2.4751   16.1367 N   0  0  0  0  0  0  0  0  0  0  0  0
   24.7993   -3.1572   16.4739 C   0  0  0  0  0  0  0  0  0  0  0  0
   25.9388   -3.0127   15.6928 C   0  0  0  0  0  0  0  0  0  0  0  0
   27.0872   -3.7350   15.9926 C   0  0  0  0  0  0  0  0  0  0  0  0
   27.0914   -4.6033   17.0777 C   0  0  0  0  0  0  0  0  0  0  0  0
   25.9528   -4.7457   17.8642 C   0  0  0  0  0  0  0  0  0  0  0  0
   24.8033   -4.0222   17.5629 C   0  0  0  0  0  0  0  0  0  0  0  0
   28.3567   -5.4108   17.3662 C   0  0  0  0  0  0  0  0  0  0  0  0
   28.0522   -6.7196   18.0997 C   0  0  0  0  0  0  0  0  0  0  0  0
   28.6986   -6.7144   19.4871 C   0  0  0  0  0  0  0  0  0  0  0  0
   27.6957   -7.0500   20.5915 C   0  0  0  0  0  0  0  0  0  0  0  0
   27.7131   -8.2143   21.0475 O   0  0  0  0  0  0  0  0  0  0  0  0
   26.9406   -6.1292   20.9747 O   0  0  0  0  0  0  0  0  0  0  0  0
   26.9944   -5.2828   20.5764 H   0  0  0  0  0  0  0  0  0  0  0  0
   23.7693   -1.0278   15.8764 C   0  0  0  0  0  0  0  0  0  0  0  0
   24.4368   -0.3058   17.0486 C   0  0  0  0  0  0  0  0  0  0  0  0
   25.1155    0.9911   16.6015 Cl  0  0  0  0  0  0  0  0  0  0  0  0
 21 22  2  0  0  0
 17 22  1  0  0  0
 22 23  1  0  0  0
 16 17  1  0  0  0
 17 18  1  0  0  0
 15 16  1  0  0  0
 11 15  1  0  0  0
 13 11  1  0  0  0
 11 12  2  0  0  0
  1 13  1  0  0  0
  2  1  1  0  0  0
  1 25  1  0  0  0
  4  2  1  0  0  0
  3  2  2  0  0  0
  6  4  1  0  0  0
  7  6  1  0  0  0
  9  7  2  0  0  0
  7  8  1  0  0  0
 26 25  1  0  0  0
 26 27  1  0  0  0
 28 27  1  0  0  0
 29 28  1  0  0  0
 43 29  1  0  0  0
 30 29  1  0  0  0
 44 43  1  0  0  0
 45 44  1  0  0  0
 31 30  2  0  0  0
 30 35  1  0  0  0
 32 31  1  0  0  0
 32 33  2  0  0  0
 36 33  1  0  0  0
 33 34  1  0  0  0
 34 35  2  0  0  0
 36 37  1  0  0  0
 38 37  1  0  0  0
 38 39  1  0  0  0
 40 39  2  0  0  0
 39 41  1  0  0  0
 23 24  1  0  0  0
 18 19  1  0  0  0
 18 20  1  0  0  0
 13 14  1  0  0  0
  4  5  1  0  0  0
  8 10  1  0  0  0
 41 42  1  0  0  0
M  END
> <minimizedAffinity>
-7.52996

$$$$
4HJ2_LZ6_A_301


 45 45  0  0  0  0  0  0  0  0999 V2000
   24.6554   -7.6139   18.7539 C   0  0  0  0  0  0  0  0  0  0  0  0
   24.2893   -8.6019   17.6448 C   0  0  0  0  0  0  0  0  0  0  0  0
   25.0728   -9.4921   17.3123 O   0  0  0  0  0  0  0  0  0  0  0  0
   23.1005   -8.3997   17.0865 N   0  0  0  0  0  0  0  0  0  0  0  0
   22.5455   -7.6525   17.4071 H   0  0  0  0  0  0  0  0  0  0  0  0
   22.5859   -9.2542   16.0059 C   0  0  0  0  0  0  0  0  0  0  0  0
   21.0702   -9.4100   16.1445 C   0  0  0  0  0  0  0  0  0  0  0  0
   20.6475  -10.5300   16.5055 O   0  0  0  0  0  0  0  0  0  0  0  0
   20.3715   -8.4053   15.8885 O   0  0  0  0  0  0  0  0  0  0  0  0
   21.2513  -11.2262   16.6753 H   0  0  0  0  0  0  0  0  0  0  0  0
   25.3032   -5.4633   17.8163 C   0  0  0  0  0  0  0  0  0  0  0  0
   26.4697   -5.8245   17.6709 O   0  0  0  0  0  0  0  0  0  0  0  0
   24.3531   -6.2405   18.3267 N   0  0  0  0  0  0  0  0  0  0  0  0
   23.4369   -5.8922   18.4195 H   0  0  0  0  0  0  0  0  0  0  0  0
   24.8548   -4.0581   17.4060 C   0  0  0  0  0  0  0  0  0  0  0  0
   23.4532   -4.0934   16.7937 C   0  0  0  0  0  0  0  0  0  0  0  0
   23.4017   -5.0095   15.5697 C   0  0  0  0  0  0  0  0  0  0  0  0
   24.0445   -4.3422   14.4284 N   0  0  0  0  0  0  0  0  0  0  0  0
   23.5506   -3.4745   14.2196 H   0  0  0  0  0  0  0  0  0  0  0  0
   24.0132   -4.9556   13.6141 H   0  0  0  0  0  0  0  0  0  0  0  0
   21.6032   -5.1748   14.0286 O   0  0  0  0  0  0  0  0  0  0  0  0
   21.9453   -5.3282   15.2211 C   0  0  0  0  0  0  0  0  0  0  0  0
   21.2118   -5.7235   16.1525 O   0  0  0  0  0  0  0  0  0  0  0  0
   21.5590   -5.8077   17.0187 H   0  0  0  0  0  0  0  0  0  0  0  0
   23.8488   -7.9582   20.0069 C   0  0  0  0  0  0  0  0  0  0  0  0
   23.8989   -9.7308   20.4581 S   0  0  0  0  0  0  0  0  0  0  0  0
   22.0921  -10.0031   20.4887 C   0  0  0  0  0  0  0  0  0  0  0  0
   21.7593  -11.4964   20.4875 C   0  0  0  0  0  0  0  0  0  0  0  0
   21.7160  -11.9531   21.8819 N   0  0  0  0  0  0  0  0  0  0  0  0
   20.9433  -11.2881   22.7363 C   0  0  0  0  0  0  0  0  0  0  0  0
   21.4941  -10.8714   23.9415 C   0  0  0  0  0  0  0  0  0  0  0  0
   20.7094  -10.2047   24.8744 C   0  0  0  0  0  0  0  0  0  0  0  0
   19.3705   -9.9562   24.5968 C   0  0  0  0  0  0  0  0  0  0  0  0
   18.8183  -10.3682   23.3883 C   0  0  0  0  0  0  0  0  0  0  0  0
   19.6049  -11.0361   22.4551 C   0  0  0  0  0  0  0  0  0  0  0  0
   18.5211   -9.2504   25.6535 C   0  0  0  0  0  0  0  0  0  0  0  0
   17.8767   -7.9699   25.1160 C   0  0  0  0  0  0  0  0  0  0  0  0
   18.9545   -6.9574   24.7212 C   0  0  0  0  0  0  0  0  0  0  0  0
   18.8827   -6.5874   23.2393 C   0  0  0  0  0  0  0  0  0  0  0  0
   19.8548   -5.9671   22.7553 O   0  0  0  0  0  0  0  0  0  0  0  0
   17.8636   -6.9488   22.6103 O   0  0  0  0  0  0  0  0  0  0  0  0
   17.1794   -7.4114   23.0529 H   0  0  0  0  0  0  0  0  0  0  0  0
   22.5380  -13.0890   22.3291 C   0  0  0  0  0  0  0  0  0  0  0  0
   23.4779  -13.5372   21.2082 C   0  0  0  0  0  0  0  0  0  0  0  0
   24.9354  -13.1878   21.5187 Cl  0  0  0  0  0  0  0  0  0  0  0  0
 21 22  2  0  0  0
 17 22  1  0  0  0
 22 23  1  0  0  0
 16 17  1  0  0  0
 17 18  1  0  0  0
 15 16  1  0  0  0
 11 15  1  0  0  0
 13 11  1  0  0  0
 11 12  2  0  0  0
  1 13  1  0  0  0
  2  1  1  0  0  0
  1 25  1  0  0  0
  4  2  1  0  0  0
  3  2  2  0  0  0
  6  4  1  0  0  0
  7  6  1  0  0  0
  9  7  2  0  0  0
  7  8  1  0  0  0
 26 25  1  0  0  0
 26 27  1  0  0  0
 28 27  1  0  0  0
 29 28  1  0  0  0
 43 29  1  0  0  0
 30 29  1  0  0  0
 44 43  1  0  0  0
 45 44  1  0  0  0
 31 30  2  0  0  0
 30 35  1  0  0  0
 32 31  1  0  0  0
 32 33  2  0  0  0
 36 33  1  0  0  0
 33 34  1  0  0  0
 34 35  2  0  0  0
 36 37  1  0  0  0
 38 37  1  0  0  0
 38 39  1  0  0  0
 40 39  2  0  0  0
 39 41  1  0  0  0
 23 24  1  0  0  0
 18 19  1  0  0  0
 18 20  1  0  0  0
 13 14  1  0  0  0
  4  5  1  0  0  0
  8 10  1  0  0  0
 41 42  1  0  0  0
M  END
> <minimizedAffinity>
-7.48057

$$$$
4HJ2_LZ6_A_301


 45 45  0  0  0  0  0  0  0  0999 V2000
   25.1080   -8.5865   19.2492 C   0  0  0  0  0  0  0  0  0  0  0  0
   25.6228   -7.2510   18.7090 C   0  0  0  0  0  0  0  0  0  0  0  0
   26.6523   -7.2006   18.0348 O   0  0  0  0  0  0  0  0  0  0  0  0
   24.8904   -6.1937   19.0427 N   0  0  0  0  0  0  0  0  0  0  0  0
   24.0887   -6.3267   19.5985 H   0  0  0  0  0  0  0  0  0  0  0  0
   25.2366   -4.8315   18.6098 C   0  0  0  0  0  0  0  0  0  0  0  0
   24.3625   -4.4267   17.4211 C   0  0  0  0  0  0  0  0  0  0  0  0
   23.2291   -3.9680   17.6829 O   0  0  0  0  0  0  0  0  0  0  0  0
   24.8494   -4.5833   16.2803 O   0  0  0  0  0  0  0  0  0  0  0  0
   22.9505   -3.8878   18.5739 H   0  0  0  0  0  0  0  0  0  0  0  0
   22.9391   -9.4445   18.5539 C   0  0  0  0  0  0  0  0  0  0  0  0
   22.4246   -9.1516   19.6318 O   0  0  0  0  0  0  0  0  0  0  0  0
   24.2171   -9.2190   18.2660 N   0  0  0  0  0  0  0  0  0  0  0  0
   24.5708   -9.4786   17.3847 H   0  0  0  0  0  0  0  0  0  0  0  0
   22.1198  -10.1035   17.4411 C   0  0  0  0  0  0  0  0  0  0  0  0
   22.3766   -9.4157   16.0988 C   0  0  0  0  0  0  0  0  0  0  0  0
   21.3959   -8.2655   15.8640 C   0  0  0  0  0  0  0  0  0  0  0  0
   20.6350   -8.5119   14.6306 N   0  0  0  0  0  0  0  0  0  0  0  0
   21.2778   -8.5717   13.8408 H   0  0  0  0  0  0  0  0  0  0  0  0
   19.9785   -7.7464   14.4775 H   0  0  0  0  0  0  0  0  0  0  0  0
   21.6422   -5.9370   16.2564 O   0  0  0  0  0  0  0  0  0  0  0  0
   22.1636   -6.9471   15.7361 C   0  0  0  0  0  0  0  0  0  0  0  0
   23.2549   -6.9820   15.1282 O   0  0  0  0  0  0  0  0  0  0  0  0
   23.5661   -7.7900   14.7702 H   0  0  0  0  0  0  0  0  0  0  0  0
   26.3033   -9.4983   19.5302 C   0  0  0  0  0  0  0  0  0  0  0  0
   26.5176   -9.9175   21.2983 S   0  0  0  0  0  0  0  0  0  0  0  0
   24.7727  -10.3405   21.6391 C   0  0  0  0  0  0  0  0  0  0  0  0
   24.6128  -11.8356   21.9222 C   0  0  0  0  0  0  0  0  0  0  0  0
   23.1772  -12.1405   21.9545 N   0  0  0  0  0  0  0  0  0  0  0  0
   22.4544  -11.6523   22.9587 C   0  0  0  0  0  0  0  0  0  0  0  0
   21.1665  -11.2054   22.6919 C   0  0  0  0  0  0  0  0  0  0  0  0
   20.3933  -10.6569   23.7077 C   0  0  0  0  0  0  0  0  0  0  0  0
   20.9138  -10.5570   24.9924 C   0  0  0  0  0  0  0  0  0  0  0  0
   22.2015  -11.0087   25.2627 C   0  0  0  0  0  0  0  0  0  0  0  0
   22.9750  -11.5573   24.2447 C   0  0  0  0  0  0  0  0  0  0  0  0
   20.0549   -9.9196   26.0843 C   0  0  0  0  0  0  0  0  0  0  0  0
   18.6593   -9.5466   25.5775 C   0  0  0  0  0  0  0  0  0  0  0  0
   18.2931   -8.1288   26.0229 C   0  0  0  0  0  0  0  0  0  0  0  0
   17.4797   -7.3839   24.9638 C   0  0  0  0  0  0  0  0  0  0  0  0
   17.6178   -7.7463   23.7749 O   0  0  0  0  0  0  0  0  0  0  0  0
   16.7181   -6.4760   25.3644 O   0  0  0  0  0  0  0  0  0  0  0  0
   16.6763   -6.2682   26.2771 H   0  0  0  0  0  0  0  0  0  0  0  0
   22.5652  -12.9977   20.9265 C   0  0  0  0  0  0  0  0  0  0  0  0
   22.5499  -14.4551   21.3917 C   0  0  0  0  0  0  0  0  0  0  0  0
   21.3997  -15.2397   20.7560 Cl  0  0  0  0  0  0  0  0  0  0  0  0
 21 22  2  0  0  0
 17 22  1  0  0  0
 22 23  1  0  0  0
 16 17  1  0  0  0
 17 18  1  0  0  0
 15 16  1  0  0  0
 11 15  1  0  0  0
 13 11  1  0  0  0
 11 12  2  0  0  0
  1 13  1  0  0  0
  2  1  1  0  0  0
  1 25  1  0  0  0
  4  2  1  0  0  0
  3  2  2  0  0  0
  6  4  1  0  0  0
  7  6  1  0  0  0
  9  7  2  0  0  0
  7  8  1  0  0  0
 26 25  1  0  0  0
 26 27  1  0  0  0
 28 27  1  0  0  0
 29 28  1  0  0  0
 43 29  1  0  0  0
 30 29  1  0  0  0
 44 43  1  0  0  0
 45 44  1  0  0  0
 31 30  2  0  0  0
 30 35  1  0  0  0
 32 31  1  0  0  0
 32 33  2  0  0  0
 36 33  1  0  0  0
 33 34  1  0  0  0
 34 35  2  0  0  0
 36 37  1  0  0  0
 38 37  1  0  0  0
 38 39  1  0  0  0
 40 39  2  0  0  0
 39 41  1  0  0  0
 23 24  1  0  0  0
 18 19  1  0  0  0
 18 20  1  0  0  0
 13 14  1  0  0  0
  4  5  1  0  0  0
  8 10  1  0  0  0
 41 42  1  0  0  0
M  END
> <minimizedAffinity>
-7.30195

$$$$
4HJ2_LZ6_A_301


 45 45  0  0  0  0  0  0  0  0999 V2000
   24.8002   -7.4244   17.9610 C   0  0  0  0  0  0  0  0  0  0  0  0
   23.5023   -7.5264   17.1577 C   0  0  0  0  0  0  0  0  0  0  0  0
   22.6963   -6.5951   17.1447 O   0  0  0  0  0  0  0  0  0  0  0  0
   23.3297   -8.6787   16.5189 N   0  0  0  0  0  0  0  0  0  0  0  0
   24.0217   -9.3745   16.5978 H   0  0  0  0  0  0  0  0  0  0  0  0
   22.1399   -8.9500   15.6982 C   0  0  0  0  0  0  0  0  0  0  0  0
   21.6437  -10.3738   15.9581 C   0  0  0  0  0  0  0  0  0  0  0  0
   21.7438  -10.8027   17.1284 O   0  0  0  0  0  0  0  0  0  0  0  0
   21.1743  -10.9975   14.9815 O   0  0  0  0  0  0  0  0  0  0  0  0
   22.1111  -10.2585   17.7969 H   0  0  0  0  0  0  0  0  0  0  0  0
   26.7341   -5.9633   17.7391 C   0  0  0  0  0  0  0  0  0  0  0  0
   27.5178   -6.9013   17.8745 O   0  0  0  0  0  0  0  0  0  0  0  0
   25.4123   -6.1024   17.7655 N   0  0  0  0  0  0  0  0  0  0  0  0
   24.8372   -5.3114   17.6530 H   0  0  0  0  0  0  0  0  0  0  0  0
   27.2417   -4.5352   17.5226 C   0  0  0  0  0  0  0  0  0  0  0  0
   27.1634   -4.1502   16.0440 C   0  0  0  0  0  0  0  0  0  0  0  0
   26.2546   -2.9385   15.8299 C   0  0  0  0  0  0  0  0  0  0  0  0
   25.2805   -2.8542   16.9277 N   0  0  0  0  0  0  0  0  0  0  0  0
   24.7126   -3.7013   16.9441 H   0  0  0  0  0  0  0  0  0  0  0  0
   24.6779   -2.0435   16.7860 H   0  0  0  0  0  0  0  0  0  0  0  0
   24.6397   -2.2166   14.2463 O   0  0  0  0  0  0  0  0  0  0  0  0
   25.5125   -3.0755   14.4978 C   0  0  0  0  0  0  0  0  0  0  0  0
   25.8400   -4.0301   13.7608 O   0  0  0  0  0  0  0  0  0  0  0  0
   26.5089   -4.6260   14.0355 H   0  0  0  0  0  0  0  0  0  0  0  0
   24.4815   -7.6360   19.4417 C   0  0  0  0  0  0  0  0  0  0  0  0
   25.1176   -9.2119   20.1201 S   0  0  0  0  0  0  0  0  0  0  0  0
   23.5137  -10.0845   20.1955 C   0  0  0  0  0  0  0  0  0  0  0  0
   23.4392  -10.9968   21.4214 C   0  0  0  0  0  0  0  0  0  0  0  0
   22.0784  -11.5418   21.4998 N   0  0  0  0  0  0  0  0  0  0  0  0
   21.2912  -11.1245   22.4873 C   0  0  0  0  0  0  0  0  0  0  0  0
   19.9847  -10.7623   22.1851 C   0  0  0  0  0  0  0  0  0  0  0  0
   19.1426  -10.2886   23.1836 C   0  0  0  0  0  0  0  0  0  0  0  0
   19.6129  -10.1785   24.4867 C   0  0  0  0  0  0  0  0  0  0  0  0
   20.9194  -10.5455   24.7924 C   0  0  0  0  0  0  0  0  0  0  0  0
   21.7619  -11.0193   23.7917 C   0  0  0  0  0  0  0  0  0  0  0  0
   18.6767   -9.6234   25.5599 C   0  0  0  0  0  0  0  0  0  0  0  0
   19.3151   -8.4752   26.3459 C   0  0  0  0  0  0  0  0  0  0  0  0
   19.0525   -7.1402   25.6448 C   0  0  0  0  0  0  0  0  0  0  0  0
   17.8077   -6.4384   26.1890 C   0  0  0  0  0  0  0  0  0  0  0  0
   16.8483   -6.2808   25.4025 O   0  0  0  0  0  0  0  0  0  0  0  0
   17.8299   -6.0882   27.3897 O   0  0  0  0  0  0  0  0  0  0  0  0
   18.5935   -6.2454   27.9095 H   0  0  0  0  0  0  0  0  0  0  0  0
   21.6147  -12.5532   20.5363 C   0  0  0  0  0  0  0  0  0  0  0  0
   22.0869  -13.9454   20.9604 C   0  0  0  0  0  0  0  0  0  0  0  0
   21.0302  -15.0138   20.6699 Cl  0  0  0  0  0  0  0  0  0  0  0  0
 21 22  2  0  0  0
 17 22  1  0  0  0
 22 23  1  0  0  0
 16 17  1  0  0  0
 17 18  1  0  0  0
 15 16  1  0  0  0
 11 15  1  0  0  0
 13 11  1  0  0  0
 11 12  2  0  0  0
  1 13  1  0  0  0
  2  1  1  0  0  0
  1 25  1  0  0  0
  4  2  1  0  0  0
  3  2  2  0  0  0
  6  4  1  0  0  0
  7  6  1  0  0  0
  9  7  2  0  0  0
  7  8  1  0  0  0
 26 25  1  0  0  0
 26 27  1  0  0  0
 28 27  1  0  0  0
 29 28  1  0  0  0
 43 29  1  0  0  0
 30 29  1  0  0  0
 44 43  1  0  0  0
 45 44  1  0  0  0
 31 30  2  0  0  0
 30 35  1  0  0  0
 32 31  1  0  0  0
 32 33  2  0  0  0
 36 33  1  0  0  0
 33 34  1  0  0  0
 34 35  2  0  0  0
 36 37  1  0  0  0
 38 37  1  0  0  0
 38 39  1  0  0  0
 40 39  2  0  0  0
 39 41  1  0  0  0
 23 24  1  0  0  0
 18 19  1  0  0  0
 18 20  1  0  0  0
 13 14  1  0  0  0
  4  5  1  0  0  0
  8 10  1  0  0  0
 41 42  1  0  0  0
M  END
> <minimizedAffinity>
-7.21041

$$$$
4HJ2_LZ6_A_301


 45 45  0  0  0  0  0  0  0  0999 V2000
   25.2027   -2.9015   17.1230 C   0  0  0  0  0  0  0  0  0  0  0  0
   24.0665   -3.9067   16.9263 C   0  0  0  0  0  0  0  0  0  0  0  0
   23.1424   -3.9775   17.7375 O   0  0  0  0  0  0  0  0  0  0  0  0
   24.1817   -4.6766   15.8493 N   0  0  0  0  0  0  0  0  0  0  0  0
   24.9637   -4.5597   15.2627 H   0  0  0  0  0  0  0  0  0  0  0  0
   23.1808   -5.6972   15.5039 C   0  0  0  0  0  0  0  0  0  0  0  0
   22.8596   -5.6245   14.0098 C   0  0  0  0  0  0  0  0  0  0  0  0
   23.7659   -5.9671   13.2193 O   0  0  0  0  0  0  0  0  0  0  0  0
   21.7157   -5.2307   13.6945 O   0  0  0  0  0  0  0  0  0  0  0  0
   24.5952   -6.2496   13.5515 H   0  0  0  0  0  0  0  0  0  0  0  0
   24.3821   -0.9813   15.8727 C   0  0  0  0  0  0  0  0  0  0  0  0
   24.5169   -1.5635   14.7979 O   0  0  0  0  0  0  0  0  0  0  0  0
   24.6818   -1.5293   17.0462 N   0  0  0  0  0  0  0  0  0  0  0  0
   24.5534   -1.0103   17.8729 H   0  0  0  0  0  0  0  0  0  0  0  0
   23.8433    0.4505   15.9329 C   0  0  0  0  0  0  0  0  0  0  0  0
   24.9905    1.4576   16.0346 C   0  0  0  0  0  0  0  0  0  0  0  0
   25.4473    1.9251   14.6516 C   0  0  0  0  0  0  0  0  0  0  0  0
   24.4303    1.5695   13.6515 N   0  0  0  0  0  0  0  0  0  0  0  0
   24.3047    0.5574   13.6393 H   0  0  0  0  0  0  0  0  0  0  0  0
   24.7341    1.8855   12.7305 H   0  0  0  0  0  0  0  0  0  0  0  0
   27.7463    1.4813   15.0448 O   0  0  0  0  0  0  0  0  0  0  0  0
   26.7757    1.2552   14.2901 C   0  0  0  0  0  0  0  0  0  0  0  0
   26.7872    0.5288   13.2733 O   0  0  0  0  0  0  0  0  0  0  0  0
   26.0063    0.4189   12.7672 H   0  0  0  0  0  0  0  0  0  0  0  0
   25.8401   -3.1399   18.4926 C   0  0  0  0  0  0  0  0  0  0  0  0
   27.5217   -2.4383   18.6610 S   0  0  0  0  0  0  0  0  0  0  0  0
   28.3859   -4.0124   18.9999 C   0  0  0  0  0  0  0  0  0  0  0  0
   27.9009   -5.1207   18.0633 C   0  0  0  0  0  0  0  0  0  0  0  0
   27.7838   -6.3573   18.8456 N   0  0  0  0  0  0  0  0  0  0  0  0
   26.6769   -7.0824   18.7111 C   0  0  0  0  0  0  0  0  0  0  0  0
   26.7773   -8.3453   18.1412 C   0  0  0  0  0  0  0  0  0  0  0  0
   25.6386   -9.1186   17.9523 C   0  0  0  0  0  0  0  0  0  0  0  0
   24.3980   -8.6235   18.3359 C   0  0  0  0  0  0  0  0  0  0  0  0
   24.2959   -7.3612   18.9115 C   0  0  0  0  0  0  0  0  0  0  0  0
   25.4368   -6.5875   19.0998 C   0  0  0  0  0  0  0  0  0  0  0  0
   23.1572   -9.4807   18.0868 C   0  0  0  0  0  0  0  0  0  0  0  0
   22.2964   -8.9333   16.9453 C   0  0  0  0  0  0  0  0  0  0  0  0
   21.6829  -10.0835   16.1432 C   0  0  0  0  0  0  0  0  0  0  0  0
   20.5608   -9.6080   15.2196 C   0  0  0  0  0  0  0  0  0  0  0  0
   20.5131   -8.3862   14.9572 O   0  0  0  0  0  0  0  0  0  0  0  0
   19.7802  -10.4789   14.7758 O   0  0  0  0  0  0  0  0  0  0  0  0
   19.8884  -11.3757   15.0250 H   0  0  0  0  0  0  0  0  0  0  0  0
   28.8444   -6.7595   19.7834 C   0  0  0  0  0  0  0  0  0  0  0  0
   28.2398   -7.1385   21.1368 C   0  0  0  0  0  0  0  0  0  0  0  0
   27.8617   -5.9008   21.9539 Cl  0  0  0  0  0  0  0  0  0  0  0  0
 21 22  2  0  0  0
 17 22  1  0  0  0
 22 23  1  0  0  0
 16 17  1  0  0  0
 17 18  1  0  0  0
 15 16  1  0  0  0
 11 15  1  0  0  0
 13 11  1  0  0  0
 11 12  2  0  0  0
  1 13  1  0  0  0
  2  1  1  0  0  0
  1 25  1  0  0  0
  4  2  1  0  0  0
  3  2  2  0  0  0
  6  4  1  0  0  0
  7  6  1  0  0  0
  9  7  2  0  0  0
  7  8  1  0  0  0
 26 25  1  0  0  0
 26 27  1  0  0  0
 28 27  1  0  0  0
 29 28  1  0  0  0
 43 29  1  0  0  0
 30 29  1  0  0  0
 44 43  1  0  0  0
 45 44  1  0  0  0
 31 30  2  0  0  0
 30 35  1  0  0  0
 32 31  1  0  0  0
 32 33  2  0  0  0
 36 33  1  0  0  0
 33 34  1  0  0  0
 34 35  2  0  0  0
 36 37  1  0  0  0
 38 37  1  0  0  0
 38 39  1  0  0  0
 40 39  2  0  0  0
 39 41  1  0  0  0
 23 24  1  0  0  0
 18 19  1  0  0  0
 18 20  1  0  0  0
 13 14  1  0  0  0
  4  5  1  0  0  0
  8 10  1  0  0  0
 41 42  1  0  0  0
M  END
> <minimizedAffinity>
-7.17923

$$$$
