2WVZ_KIF_A_801


 21 22  0  0  0  0  0  0  0  0999 V2000
  -14.8437  -21.6643   47.1816 C   0  0  0  0  0  0  0  0  0  0  0  0
  -15.9377  -22.4050   47.6614 O   0  0  0  0  0  0  0  0  0  0  0  0
  -15.1621  -20.1486   47.3272 C   0  0  0  0  0  0  0  0  0  0  0  0
  -15.9032  -19.6692   46.1712 O   0  0  0  0  0  0  0  0  0  0  0  0
  -13.8716  -19.3122   47.5355 C   0  0  0  0  0  0  0  0  0  0  0  0
  -14.0385  -17.9902   47.0300 O   0  0  0  0  0  0  0  0  0  0  0  0
  -12.6641  -20.0070   46.9088 C   0  0  0  0  0  0  0  0  0  0  0  0
  -11.4276  -19.1755   47.0999 N   0  0  0  0  0  0  0  0  0  0  0  0
  -10.7086  -19.7163   48.1110 C   0  0  0  0  0  0  0  0  0  0  0  0
   -9.6371  -19.3009   48.5755 O   0  0  0  0  0  0  0  0  0  0  0  0
  -11.3454  -20.8741   48.5809 C   0  0  0  0  0  0  0  0  0  0  0  0
  -10.9238  -21.5553   49.5135 O   0  0  0  0  0  0  0  0  0  0  0  0
  -12.5066  -21.1437   47.8208 N   0  0  0  0  0  0  0  0  0  0  0  0
  -13.6007  -22.1179   47.9796 C   0  0  0  0  0  0  0  0  0  0  0  0
  -16.0685  -22.2151   48.6036 H   0  0  0  0  0  0  0  0  0  0  0  0
  -15.3616  -19.7747   45.3735 H   0  0  0  0  0  0  0  0  0  0  0  0
  -14.2083  -18.0279   46.0757 H   0  0  0  0  0  0  0  0  0  0  0  0
  -11.1828  -18.3761   46.5800 H   0  0  0  0  0  0  0  0  0  0  0  0
  -13.1485  -23.5275   47.6149 C   0  0  0  0  0  0  0  0  0  0  0  0
  -13.6489  -23.7920   46.3147 O   0  0  0  0  0  0  0  0  0  0  0  0
  -14.6157  -23.7123   46.3180 H   0  0  0  0  0  0  0  0  0  0  0  0
  1  2  1  0  0  0
  1  3  1  0  0  0
  1 14  1  0  0  0
  3  4  1  0  0  0
  3  5  1  0  0  0
  5  6  1  0  0  0
  5  7  1  0  0  0
  7  8  1  0  0  0
  7 13  1  0  0  0
  8  9  1  0  0  0
  9 10  2  0  0  0
  9 11  1  0  0  0
 11 12  2  0  0  0
 11 13  1  0  0  0
 13 14  1  0  0  0
 14 19  1  0  0  0
 19 20  1  0  0  0
  2 15  1  0  0  0
  4 16  1  0  0  0
  6 17  1  0  0  0
  8 18  1  0  0  0
 20 21  1  0  0  0
M  END
> <minimizedAffinity>
-8.76912

$$$$
2WVZ_KIF_A_801


 21 22  0  0  0  0  0  0  0  0999 V2000
  -11.8672  -19.7979   48.2919 C   0  0  0  0  0  0  0  0  0  0  0  0
  -10.6402  -19.2819   48.7433 O   0  0  0  0  0  0  0  0  0  0  0  0
  -12.1343  -19.2694   46.8533 C   0  0  0  0  0  0  0  0  0  0  0  0
  -12.7798  -17.9669   46.8996 O   0  0  0  0  0  0  0  0  0  0  0  0
  -12.9826  -20.2716   46.0259 C   0  0  0  0  0  0  0  0  0  0  0  0
  -13.7543  -19.5889   45.0413 O   0  0  0  0  0  0  0  0  0  0  0  0
  -13.8610  -21.1259   46.9380 C   0  0  0  0  0  0  0  0  0  0  0  0
  -14.6910  -22.0753   46.1215 N   0  0  0  0  0  0  0  0  0  0  0  0
  -14.1208  -23.3007   46.1920 C   0  0  0  0  0  0  0  0  0  0  0  0
  -14.5031  -24.3393   45.6338 O   0  0  0  0  0  0  0  0  0  0  0  0
  -12.9985  -23.2553   47.0318 C   0  0  0  0  0  0  0  0  0  0  0  0
  -12.2750  -24.2230   47.2585 O   0  0  0  0  0  0  0  0  0  0  0  0
  -12.8440  -21.9622   47.5821 N   0  0  0  0  0  0  0  0  0  0  0  0
  -11.7749  -21.3378   48.3812 C   0  0  0  0  0  0  0  0  0  0  0  0
   -9.9253  -19.5991   48.1696 H   0  0  0  0  0  0  0  0  0  0  0  0
  -13.6396  -18.0476   47.3414 H   0  0  0  0  0  0  0  0  0  0  0  0
  -14.3701  -18.9800   45.4782 H   0  0  0  0  0  0  0  0  0  0  0  0
  -15.5077  -21.8459   45.6219 H   0  0  0  0  0  0  0  0  0  0  0  0
  -11.7849  -21.8462   49.8186 C   0  0  0  0  0  0  0  0  0  0  0  0
  -10.4391  -21.8307   50.2652 O   0  0  0  0  0  0  0  0  0  0  0  0
   -9.9000  -22.3929   49.6870 H   0  0  0  0  0  0  0  0  0  0  0  0
  1  2  1  0  0  0
  1  3  1  0  0  0
  1 14  1  0  0  0
  3  4  1  0  0  0
  3  5  1  0  0  0
  5  6  1  0  0  0
  5  7  1  0  0  0
  7  8  1  0  0  0
  7 13  1  0  0  0
  8  9  1  0  0  0
  9 10  2  0  0  0
  9 11  1  0  0  0
 11 12  2  0  0  0
 11 13  1  0  0  0
 13 14  1  0  0  0
 14 19  1  0  0  0
 19 20  1  0  0  0
  2 15  1  0  0  0
  4 16  1  0  0  0
  6 17  1  0  0  0
  8 18  1  0  0  0
 20 21  1  0  0  0
M  END
> <minimizedAffinity>
-6.49977

$$$$
2WVZ_KIF_A_801


 21 22  0  0  0  0  0  0  0  0999 V2000
  -10.7024  -19.5516   48.0250 C   0  0  0  0  0  0  0  0  0  0  0  0
  -10.1419  -18.2994   48.3310 O   0  0  0  0  0  0  0  0  0  0  0  0
  -10.5824  -20.4728   49.2727 C   0  0  0  0  0  0  0  0  0  0  0  0
   -9.2884  -21.1365   49.2948 O   0  0  0  0  0  0  0  0  0  0  0  0
  -11.7324  -21.5136   49.3258 C   0  0  0  0  0  0  0  0  0  0  0  0
  -11.3136  -22.6962   50.0019 O   0  0  0  0  0  0  0  0  0  0  0  0
  -12.2552  -21.8210   47.9238 C   0  0  0  0  0  0  0  0  0  0  0  0
  -13.3524  -22.8450   47.9901 N   0  0  0  0  0  0  0  0  0  0  0  0
  -14.5362  -22.2030   47.8554 C   0  0  0  0  0  0  0  0  0  0  0  0
  -15.6691  -22.7056   47.8788 O   0  0  0  0  0  0  0  0  0  0  0  0
  -14.3140  -20.8326   47.6568 C   0  0  0  0  0  0  0  0  0  0  0  0
  -15.2147  -20.0059   47.5275 O   0  0  0  0  0  0  0  0  0  0  0  0
  -12.9281  -20.5579   47.6064 N   0  0  0  0  0  0  0  0  0  0  0  0
  -12.1592  -19.3014   47.5747 C   0  0  0  0  0  0  0  0  0  0  0  0
  -10.6408  -17.8901   49.0552 H   0  0  0  0  0  0  0  0  0  0  0  0
   -9.2009  -21.7006   48.5105 H   0  0  0  0  0  0  0  0  0  0  0  0
  -10.5778  -23.1021   49.5176 H   0  0  0  0  0  0  0  0  0  0  0  0
  -13.2313  -23.8146   48.1105 H   0  0  0  0  0  0  0  0  0  0  0  0
  -12.2466  -18.6294   46.2089 C   0  0  0  0  0  0  0  0  0  0  0  0
  -13.2793  -17.6616   46.2966 O   0  0  0  0  0  0  0  0  0  0  0  0
  -14.1113  -18.0976   46.5385 H   0  0  0  0  0  0  0  0  0  0  0  0
  1  2  1  0  0  0
  1  3  1  0  0  0
  1 14  1  0  0  0
  3  4  1  0  0  0
  3  5  1  0  0  0
  5  6  1  0  0  0
  5  7  1  0  0  0
  7  8  1  0  0  0
  7 13  1  0  0  0
  8  9  1  0  0  0
  9 10  2  0  0  0
  9 11  1  0  0  0
 11 12  2  0  0  0
 11 13  1  0  0  0
 13 14  1  0  0  0
 14 19  1  0  0  0
 19 20  1  0  0  0
  2 15  1  0  0  0
  4 16  1  0  0  0
  6 17  1  0  0  0
  8 18  1  0  0  0
 20 21  1  0  0  0
M  END
> <minimizedAffinity>
-6.26727

$$$$
2WVZ_KIF_A_801


 21 22  0  0  0  0  0  0  0  0999 V2000
  -14.6309  -20.8403   47.2578 C   0  0  0  0  0  0  0  0  0  0  0  0
  -15.5507  -20.7191   46.2018 O   0  0  0  0  0  0  0  0  0  0  0  0
  -14.0890  -22.2983   47.2856 C   0  0  0  0  0  0  0  0  0  0  0  0
  -14.9759  -23.1581   48.0533 O   0  0  0  0  0  0  0  0  0  0  0  0
  -12.6444  -22.3591   47.8495 C   0  0  0  0  0  0  0  0  0  0  0  0
  -12.3978  -23.6158   48.4745 O   0  0  0  0  0  0  0  0  0  0  0  0
  -12.3812  -21.1944   48.8022 C   0  0  0  0  0  0  0  0  0  0  0  0
  -10.9871  -21.2792   49.3557 N   0  0  0  0  0  0  0  0  0  0  0  0
  -10.2157  -20.3868   48.6923 C   0  0  0  0  0  0  0  0  0  0  0  0
   -9.0043  -20.1778   48.8516 O   0  0  0  0  0  0  0  0  0  0  0  0
  -10.9968  -19.6770   47.7687 C   0  0  0  0  0  0  0  0  0  0  0  0
  -10.5487  -18.8178   47.0123 O   0  0  0  0  0  0  0  0  0  0  0  0
  -12.3504  -20.0759   47.8552 N   0  0  0  0  0  0  0  0  0  0  0  0
  -13.5353  -19.7741   47.0330 C   0  0  0  0  0  0  0  0  0  0  0  0
  -15.1000  -20.8878   45.3596 H   0  0  0  0  0  0  0  0  0  0  0  0
  -15.0134  -22.8468   48.9712 H   0  0  0  0  0  0  0  0  0  0  0  0
  -13.0055  -23.7300   49.2219 H   0  0  0  0  0  0  0  0  0  0  0  0
  -10.6869  -21.8796   50.0759 H   0  0  0  0  0  0  0  0  0  0  0  0
  -14.0356  -18.3547   47.2771 C   0  0  0  0  0  0  0  0  0  0  0  0
  -13.3353  -17.5152   46.3740 O   0  0  0  0  0  0  0  0  0  0  0  0
  -12.3816  -17.5942   46.5324 H   0  0  0  0  0  0  0  0  0  0  0  0
  1  2  1  0  0  0
  1  3  1  0  0  0
  1 14  1  0  0  0
  3  4  1  0  0  0
  3  5  1  0  0  0
  5  6  1  0  0  0
  5  7  1  0  0  0
  7  8  1  0  0  0
  7 13  1  0  0  0
  8  9  1  0  0  0
  9 10  2  0  0  0
  9 11  1  0  0  0
 11 12  2  0  0  0
 11 13  1  0  0  0
 13 14  1  0  0  0
 14 19  1  0  0  0
 19 20  1  0  0  0
  2 15  1  0  0  0
  4 16  1  0  0  0
  6 17  1  0  0  0
  8 18  1  0  0  0
 20 21  1  0  0  0
M  END
> <minimizedAffinity>
-5.88258

$$$$
2WVZ_KIF_A_801


 21 22  0  0  0  0  0  0  0  0999 V2000
  -10.1253  -20.4702   49.3535 C   0  0  0  0  0  0  0  0  0  0  0  0
   -8.7374  -20.6454   49.4908 O   0  0  0  0  0  0  0  0  0  0  0  0
  -10.3931  -19.5021   48.1656 C   0  0  0  0  0  0  0  0  0  0  0  0
  -10.3339  -18.1188   48.6110 O   0  0  0  0  0  0  0  0  0  0  0  0
  -11.7549  -19.7997   47.4833 C   0  0  0  0  0  0  0  0  0  0  0  0
  -12.2966  -18.6183   46.8986 O   0  0  0  0  0  0  0  0  0  0  0  0
  -12.7308  -20.4393   48.4692 C   0  0  0  0  0  0  0  0  0  0  0  0
  -14.0501  -20.7014   47.8001 N   0  0  0  0  0  0  0  0  0  0  0  0
  -14.1153  -22.0194   47.4996 C   0  0  0  0  0  0  0  0  0  0  0  0
  -15.0391  -22.6129   46.9243 O   0  0  0  0  0  0  0  0  0  0  0  0
  -12.9604  -22.6694   47.9585 C   0  0  0  0  0  0  0  0  0  0  0  0
  -12.7425  -23.8689   47.7996 O   0  0  0  0  0  0  0  0  0  0  0  0
  -12.1161  -21.7597   48.6354 N   0  0  0  0  0  0  0  0  0  0  0  0
  -10.7455  -21.8728   49.1644 C   0  0  0  0  0  0  0  0  0  0  0  0
   -8.3817  -21.0530   48.6857 H   0  0  0  0  0  0  0  0  0  0  0  0
  -11.0260  -17.9622   49.2723 H   0  0  0  0  0  0  0  0  0  0  0  0
  -12.4579  -17.9592   47.5918 H   0  0  0  0  0  0  0  0  0  0  0  0
  -14.7462  -20.0309   47.6128 H   0  0  0  0  0  0  0  0  0  0  0  0
  -10.7075  -22.7104   50.4378 C   0  0  0  0  0  0  0  0  0  0  0  0
  -10.6314  -21.7996   51.5220 O   0  0  0  0  0  0  0  0  0  0  0  0
   -9.8378  -21.2499   51.4275 H   0  0  0  0  0  0  0  0  0  0  0  0
  1  2  1  0  0  0
  1  3  1  0  0  0
  1 14  1  0  0  0
  3  4  1  0  0  0
  3  5  1  0  0  0
  5  6  1  0  0  0
  5  7  1  0  0  0
  7  8  1  0  0  0
  7 13  1  0  0  0
  8  9  1  0  0  0
  9 10  2  0  0  0
  9 11  1  0  0  0
 11 12  2  0  0  0
 11 13  1  0  0  0
 13 14  1  0  0  0
 14 19  1  0  0  0
 19 20  1  0  0  0
  2 15  1  0  0  0
  4 16  1  0  0  0
  6 17  1  0  0  0
  8 18  1  0  0  0
 20 21  1  0  0  0
M  END
> <minimizedAffinity>
-5.79765

$$$$
