4EA2_RWZ_A_301
  RCSB PDB12061712213D
Coordinates from PDB:4EA2:A:301 Model:1 without hydrogens
 24 26  0  0  0  0            999 V2000
  -28.1770  -10.5540   -7.8900   C 0  0  0  0  0  0  0  0  0  0  0  0
  -26.1730  -11.0390   -6.2920   C 0  0  0  0  0  0  0  0  0  0  0  0
  -24.6530  -15.7330   -8.8150   C 0  0  0  0  0  0  0  0  0  0  0  0
  -26.7430  -12.6270   -8.0540   C 0  0  0  0  0  0  0  0  0  0  0  0
  -22.4240  -14.6930   -8.8840   C 0  0  0  0  0  0  0  0  0  0  0  0
  -25.7230  -13.4570   -7.6630   C 0  0  0  0  0  0  0  0  0  0  0  0
  -21.4680  -13.7220   -8.8200   C 0  0  0  0  0  0  0  0  0  0  0  0
  -20.1210  -15.6310   -8.2750   C 0  0  0  0  0  0  0  0  0  0  0  0
  -21.3150  -16.3980   -7.8140   C 0  0  0  0  0  0  0  0  0  0  0  0
  -24.4350  -13.2160   -8.4240   C 0  0  0  0  0  0  0  0  0  0  0  0
  -23.1400  -20.2180   -5.9240   C 0  0  0  0  0  0  0  0  0  0  0  0
  -21.7110  -19.9430   -7.9030   C 0  0  0  0  0  0  0  0  0  0  0  0
  -24.1020  -20.0310   -8.1940   C 0  0  0  0  0  0  0  0  0  0  0  0
  -21.9710  -18.0740   -6.2480   C 0  0  0  0  0  0  0  0  0  0  0  0
  -24.3890  -18.2130   -6.4920   C 0  0  0  0  0  0  0  0  0  0  0  0
  -20.3520  -14.2200   -8.0310   N 0  0  0  0  0  0  0  0  0  0  0  0
  -21.6980  -17.2760   -8.8970   N 0  0  0  0  0  0  0  0  0  0  0  0
  -27.0420  -11.4490   -7.4370   C 0  0  0  0  0  0  0  0  0  0  0  0
  -23.7750  -14.5320   -8.7170   C 0  0  0  0  0  0  0  0  0  0  0  0
  -21.8840  -19.5830   -6.4350   C 0  0  0  0  0  0  0  0  0  0  0  0
  -24.2990  -19.6980   -6.7290   C 0  0  0  0  0  0  0  0  0  0  0  0
  -22.8530  -19.3720   -8.7100   C 0  0  0  0  0  0  0  0  0  0  0  0
  -23.1450  -17.5450   -7.0310   C 0  0  0  0  0  0  0  0  0  0  0  0
  -22.9470  -17.8780   -8.4970   C 0  0  0  0  0  0  0  0  0  0  0  0
  1 18  1  0  0  0  0
 18  2  1  0  0  0  0
  3 19  1  0  0  0  0
  4  6  1  0  0  0  0
  4 18  2  0  0  0  0
  5  7  1  0  0  0  0
  5 19  2  0  0  0  0
 10  6  1  0  0  0  0
  7 16  1  0  0  0  0
  8 16  1  0  0  0  0
  8  9  1  0  0  0  0
 17  9  1  0  0  0  0
 19 10  1  0  0  0  0
 21 11  1  0  0  0  0
 20 11  1  0  0  0  0
 22 12  1  0  0  0  0
 12 20  1  0  0  0  0
 22 13  1  0  0  0  0
 13 21  1  0  0  0  0
 23 14  1  0  0  0  0
 20 14  1  0  0  0  0
 23 15  1  0  0  0  0
 21 15  1  0  0  0  0
 17 24  1  0  0  0  0
 22 24  1  0  0  0  0
 24 23  1  0  0  0  0
A    1
CAA
A    2
CAB
A    3
CAC
A    4
CAD
A    5
CAE
A    6
CAF
A    7
CAG
A    8
CAH
A    9
CAI
A   10
CAJ
A   11
CAK
A   12
CAL
A   13
CAM
A   14
CAN
A   15
CAO
A   16
NAP
A   17
NAQ
A   18
CAR
A   19
CAS
A   20
CAT
A   21
CAU
A   22
CAV
A   23
CAW
A   24
CAX
M  END
>  <InstanceId>
4EA2_RWZ_A_301

>  <ChemCompId>
RWZ

>  <PdbId>
4EA2

>  <ChainId>
A

>  <ResidueNumber>
301

>  <InsertionCode>


>  <Model>
1

>  <AltIds>


>  <MissingHeavyAtoms>
0

>  <ObservedFormula>
C22 N2

>  <Name>
N-[(2Z)-3,7-dimethylocta-2,6-dien-1-yl]-N'-[(1R,3S,5R,7R)-tricyclo[3.3.1.1~3,7~]dec-2-yl]ethane-1,2-diamine

>  <SystematicName>
N'-(2-adamantyl)-N-[(2Z)-3,7-dimethylocta-2,6-dienyl]ethane-1,2-diamine

>  <Synonyms>


>  <Type>
NON-POLYMER

>  <Formula>
C22 H38 N2

>  <MolecularWeight>
330.551

>  <ModifiedDate>
2012-04-20

>  <Parent>


>  <OneLetterCode>


>  <SubcomponentList>


>  <AmbiguousFlag>
N

>  <InChI>
InChI=1S/C22H38N2/c1-16(2)5-4-6-17(3)7-8-23-9-10-24-22-20-12-18-11-19(14-20)15-21(22)13-18/h5,7,18-24H,4,6,8-15H2,1-3H3/b17-7-/t18-,19+,20-,21+,22-

>  <InChIKey>
JFIBVDBTCDTBRH-MDXVBTBDSA-N

>  <SMILES>
CC(=CCC/C(=C\CNCCNC1C2CC3CC(C2)CC1C3)/C)C

$$$$
