3HZM_KDO_B_303


 22 22  0  0  0  0  0  0  0  0999 V2000
   -6.5044    3.7209    2.9437 C   0  0  0  0  0  0  0  0  0  0  0  0
   -7.5012    2.9820    3.6826 O   0  0  0  0  0  0  0  0  0  0  0  0
   -6.8089    5.2327    2.8609 C   0  0  0  0  0  0  0  0  0  0  0  0
   -8.1705    5.4419    2.1837 C   0  0  0  0  0  0  0  0  0  0  0  0
   -8.4026    6.8635    2.0716 O   0  0  0  0  0  0  0  0  0  0  0  0
   -8.0881    4.8185    0.7832 C   0  0  0  0  0  0  0  0  0  0  0  0
   -7.0503    5.4676    0.0668 O   0  0  0  0  0  0  0  0  0  0  0  0
   -7.7152    3.3463    0.9402 C   0  0  0  0  0  0  0  0  0  0  0  0
   -6.4777    3.1776    1.6095 O   0  0  0  0  0  0  0  0  0  0  0  0
   -7.5482    3.3210    4.5902 H   0  0  0  0  0  0  0  0  0  0  0  0
   -7.6820    7.2697    1.5651 H   0  0  0  0  0  0  0  0  0  0  0  0
   -6.2135    5.3662    0.5469 H   0  0  0  0  0  0  0  0  0  0  0  0
   -5.1375    3.4835    3.5965 C   0  0  0  0  0  0  0  0  0  0  0  0
   -4.5478    2.3864    3.3926 O   0  0  0  0  0  0  0  0  0  0  0  0
   -4.7299    4.3798    4.3692 O   0  0  0  0  0  0  0  0  0  0  0  0
   -5.2222    5.1707    4.4703 H   0  0  0  0  0  0  0  0  0  0  0  0
   -7.5398    2.6975   -0.4504 C   0  0  0  0  0  0  0  0  0  0  0  0
   -6.3403    3.1550   -1.0864 O   0  0  0  0  0  0  0  0  0  0  0  0
   -6.3792    4.1181   -1.1953 H   0  0  0  0  0  0  0  0  0  0  0  0
   -8.7744    3.0678   -1.2974 C   0  0  0  0  0  0  0  0  0  0  0  0
   -8.4268    3.9916   -2.3524 O   0  0  0  0  0  0  0  0  0  0  0  0
   -8.0752    4.8081   -1.9643 H   0  0  0  0  0  0  0  0  0  0  0  0
 13 14  2  0  0  0
 13 15  1  0  0  0
 13  1  1  0  0  0
  1  2  1  0  0  0
  1  3  1  0  0  0
  1  9  1  0  0  0
  3  4  1  0  0  0
  4  5  1  0  0  0
  4  6  1  0  0  0
  6  7  1  0  0  0
  6  8  1  0  0  0
  8  9  1  0  0  0
  8 17  1  0  0  0
 17 18  1  0  0  0
 17 20  1  0  0  0
 20 21  1  0  0  0
 15 16  1  0  0  0
  2 10  1  0  0  0
  5 11  1  0  0  0
  7 12  1  0  0  0
 18 19  1  0  0  0
 21 22  1  0  0  0
M  END
> <minimizedAffinity>
-7.07612

$$$$
3HZM_KDO_B_303


 22 22  0  0  0  0  0  0  0  0999 V2000
   -8.2664    1.6114    1.1504 C   0  0  0  0  0  0  0  0  0  0  0  0
   -7.3342    1.0747    2.1140 O   0  0  0  0  0  0  0  0  0  0  0  0
   -7.6612    1.7546   -0.2632 C   0  0  0  0  0  0  0  0  0  0  0  0
   -6.4379    2.6799   -0.2024 C   0  0  0  0  0  0  0  0  0  0  0  0
   -5.9272    2.8377   -1.5446 O   0  0  0  0  0  0  0  0  0  0  0  0
   -6.9143    4.0374    0.3334 C   0  0  0  0  0  0  0  0  0  0  0  0
   -7.9012    4.5439   -0.5504 O   0  0  0  0  0  0  0  0  0  0  0  0
   -7.5626    3.8084    1.6966 C   0  0  0  0  0  0  0  0  0  0  0  0
   -8.6596    2.9146    1.6227 O   0  0  0  0  0  0  0  0  0  0  0  0
   -7.0457    0.1937    1.8288 H   0  0  0  0  0  0  0  0  0  0  0  0
   -6.6238    3.1983   -2.1153 H   0  0  0  0  0  0  0  0  0  0  0  0
   -8.6351    3.9126   -0.6116 H   0  0  0  0  0  0  0  0  0  0  0  0
   -9.5054    0.7090    1.1151 C   0  0  0  0  0  0  0  0  0  0  0  0
   -9.4679   -0.4004    1.7159 O   0  0  0  0  0  0  0  0  0  0  0  0
  -10.4596    1.1063    0.4094 O   0  0  0  0  0  0  0  0  0  0  0  0
  -10.4169    1.9444   -0.0074 H   0  0  0  0  0  0  0  0  0  0  0  0
   -8.1318    5.1383    2.2379 C   0  0  0  0  0  0  0  0  0  0  0  0
   -7.6279    6.2558    1.4963 O   0  0  0  0  0  0  0  0  0  0  0  0
   -6.6607    6.2803    1.5657 H   0  0  0  0  0  0  0  0  0  0  0  0
   -7.7275    5.2495    3.7222 C   0  0  0  0  0  0  0  0  0  0  0  0
   -6.3735    5.7339    3.8604 O   0  0  0  0  0  0  0  0  0  0  0  0
   -5.7631    5.1147    3.4303 H   0  0  0  0  0  0  0  0  0  0  0  0
 13 14  2  0  0  0
 13 15  1  0  0  0
 13  1  1  0  0  0
  1  2  1  0  0  0
  1  3  1  0  0  0
  1  9  1  0  0  0
  3  4  1  0  0  0
  4  5  1  0  0  0
  4  6  1  0  0  0
  6  7  1  0  0  0
  6  8  1  0  0  0
  8  9  1  0  0  0
  8 17  1  0  0  0
 17 18  1  0  0  0
 17 20  1  0  0  0
 20 21  1  0  0  0
 15 16  1  0  0  0
  2 10  1  0  0  0
  5 11  1  0  0  0
  7 12  1  0  0  0
 18 19  1  0  0  0
 21 22  1  0  0  0
M  END
> <minimizedAffinity>
-6.88230

$$$$
3HZM_KDO_B_303


 22 22  0  0  0  0  0  0  0  0999 V2000
   -5.6407    2.3802    3.1660 C   0  0  0  0  0  0  0  0  0  0  0  0
   -4.5092    1.5798    2.7603 O   0  0  0  0  0  0  0  0  0  0  0  0
   -6.8092    1.5385    3.7238 C   0  0  0  0  0  0  0  0  0  0  0  0
   -7.2767    0.5430    2.6530 C   0  0  0  0  0  0  0  0  0  0  0  0
   -8.4028   -0.1907    3.1830 O   0  0  0  0  0  0  0  0  0  0  0  0
   -7.7191    1.3578    1.4294 C   0  0  0  0  0  0  0  0  0  0  0  0
   -8.7719    2.2214    1.8260 O   0  0  0  0  0  0  0  0  0  0  0  0
   -6.5389    2.2151    0.9783 C   0  0  0  0  0  0  0  0  0  0  0  0
   -6.0953    3.0923    1.9989 O   0  0  0  0  0  0  0  0  0  0  0  0
   -4.1740    1.0835    3.5234 H   0  0  0  0  0  0  0  0  0  0  0  0
   -9.1062    0.4302    3.4294 H   0  0  0  0  0  0  0  0  0  0  0  0
   -8.4637    2.7998    2.5411 H   0  0  0  0  0  0  0  0  0  0  0  0
   -5.1681    3.4002    4.2087 C   0  0  0  0  0  0  0  0  0  0  0  0
   -4.0366    3.9401    4.0629 O   0  0  0  0  0  0  0  0  0  0  0  0
   -5.9173    3.5693    5.1969 O   0  0  0  0  0  0  0  0  0  0  0  0
   -6.7462    3.1340    5.2363 H   0  0  0  0  0  0  0  0  0  0  0  0
   -6.9643    3.1152   -0.2025 C   0  0  0  0  0  0  0  0  0  0  0  0
   -6.1071    2.9225   -1.3341 O   0  0  0  0  0  0  0  0  0  0  0  0
   -5.1943    3.1414   -1.0893 H   0  0  0  0  0  0  0  0  0  0  0  0
   -6.9003    4.5790    0.2796 C   0  0  0  0  0  0  0  0  0  0  0  0
   -8.1600    4.9972    0.8499 O   0  0  0  0  0  0  0  0  0  0  0  0
   -8.8561    4.9346    0.1773 H   0  0  0  0  0  0  0  0  0  0  0  0
 13 14  2  0  0  0
 13 15  1  0  0  0
 13  1  1  0  0  0
  1  2  1  0  0  0
  1  3  1  0  0  0
  1  9  1  0  0  0
  3  4  1  0  0  0
  4  5  1  0  0  0
  4  6  1  0  0  0
  6  7  1  0  0  0
  6  8  1  0  0  0
  8  9  1  0  0  0
  8 17  1  0  0  0
 17 18  1  0  0  0
 17 20  1  0  0  0
 20 21  1  0  0  0
 15 16  1  0  0  0
  2 10  1  0  0  0
  5 11  1  0  0  0
  7 12  1  0  0  0
 18 19  1  0  0  0
 21 22  1  0  0  0
M  END
> <minimizedAffinity>
-6.76002

$$$$
3HZM_KDO_B_303


 22 22  0  0  0  0  0  0  0  0999 V2000
   -8.4828    1.7916    1.2465 C   0  0  0  0  0  0  0  0  0  0  0  0
   -8.0833    2.6465    2.3397 O   0  0  0  0  0  0  0  0  0  0  0  0
   -7.4088    1.6785    0.1424 C   0  0  0  0  0  0  0  0  0  0  0  0
   -7.1051    3.0749   -0.4180 C   0  0  0  0  0  0  0  0  0  0  0  0
   -6.1397    2.9310   -1.4833 O   0  0  0  0  0  0  0  0  0  0  0  0
   -8.4170    3.6398   -0.9808 C   0  0  0  0  0  0  0  0  0  0  0  0
   -8.8792    2.7651   -1.9971 O   0  0  0  0  0  0  0  0  0  0  0  0
   -9.4483    3.6556    0.1449 C   0  0  0  0  0  0  0  0  0  0  0  0
   -9.6770    2.3627    0.6775 O   0  0  0  0  0  0  0  0  0  0  0  0
   -7.2786    2.2924    2.7496 H   0  0  0  0  0  0  0  0  0  0  0  0
   -6.4956    2.3389   -2.1643 H   0  0  0  0  0  0  0  0  0  0  0  0
   -9.0085    1.8782   -1.6262 H   0  0  0  0  0  0  0  0  0  0  0  0
   -8.8224    0.4064    1.8091 C   0  0  0  0  0  0  0  0  0  0  0  0
   -8.2709    0.0328    2.8811 O   0  0  0  0  0  0  0  0  0  0  0  0
   -9.5759   -0.3061    1.1084 O   0  0  0  0  0  0  0  0  0  0  0  0
   -9.9506    0.0401    0.3224 H   0  0  0  0  0  0  0  0  0  0  0  0
  -10.8108    4.1404   -0.3976 C   0  0  0  0  0  0  0  0  0  0  0  0
  -11.2013    5.3750    0.2155 O   0  0  0  0  0  0  0  0  0  0  0  0
  -11.2749    5.2506    1.1747 H   0  0  0  0  0  0  0  0  0  0  0  0
  -11.8496    3.0392   -0.1021 C   0  0  0  0  0  0  0  0  0  0  0  0
  -11.7247    1.9398   -1.0310 O   0  0  0  0  0  0  0  0  0  0  0  0
  -11.8778    2.2602   -1.9336 H   0  0  0  0  0  0  0  0  0  0  0  0
 13 14  2  0  0  0
 13 15  1  0  0  0
 13  1  1  0  0  0
  1  2  1  0  0  0
  1  3  1  0  0  0
  1  9  1  0  0  0
  3  4  1  0  0  0
  4  5  1  0  0  0
  4  6  1  0  0  0
  6  7  1  0  0  0
  6  8  1  0  0  0
  8  9  1  0  0  0
  8 17  1  0  0  0
 17 18  1  0  0  0
 17 20  1  0  0  0
 20 21  1  0  0  0
 15 16  1  0  0  0
  2 10  1  0  0  0
  5 11  1  0  0  0
  7 12  1  0  0  0
 18 19  1  0  0  0
 21 22  1  0  0  0
M  END
> <minimizedAffinity>
-6.73026

$$$$
3HZM_KDO_B_303


 22 22  0  0  0  0  0  0  0  0999 V2000
   -7.5780    4.0146    1.6524 C   0  0  0  0  0  0  0  0  0  0  0  0
   -8.7455    4.5536    2.3098 O   0  0  0  0  0  0  0  0  0  0  0  0
   -7.4670    4.4385    0.1715 C   0  0  0  0  0  0  0  0  0  0  0  0
   -8.7144    3.9666   -0.5885 C   0  0  0  0  0  0  0  0  0  0  0  0
   -8.5571    4.3288   -1.9783 O   0  0  0  0  0  0  0  0  0  0  0  0
   -8.7830    2.4387   -0.4561 C   0  0  0  0  0  0  0  0  0  0  0  0
   -7.6003    1.8894   -1.0138 O   0  0  0  0  0  0  0  0  0  0  0  0
   -8.8186    2.0924    1.0305 C   0  0  0  0  0  0  0  0  0  0  0  0
   -7.6799    2.5789    1.7194 O   0  0  0  0  0  0  0  0  0  0  0  0
   -8.7122    5.5227    2.2846 H   0  0  0  0  0  0  0  0  0  0  0  0
   -7.7477    3.9246   -2.3281 H   0  0  0  0  0  0  0  0  0  0  0  0
   -6.8274    2.2484   -0.5506 H   0  0  0  0  0  0  0  0  0  0  0  0
   -6.3328    4.4540    2.4315 C   0  0  0  0  0  0  0  0  0  0  0  0
   -6.3532    5.5607    3.0380 O   0  0  0  0  0  0  0  0  0  0  0  0
   -5.3321    3.7075    2.3424 O   0  0  0  0  0  0  0  0  0  0  0  0
   -5.3918    2.8979    1.8746 H   0  0  0  0  0  0  0  0  0  0  0  0
   -8.8046    0.5588    1.2133 C   0  0  0  0  0  0  0  0  0  0  0  0
   -9.5572   -0.0913    0.1821 O   0  0  0  0  0  0  0  0  0  0  0  0
  -10.4766    0.2168    0.2097 H   0  0  0  0  0  0  0  0  0  0  0  0
   -9.4076    0.2482    2.5986 C   0  0  0  0  0  0  0  0  0  0  0  0
   -9.5691   -1.1744    2.7914 O   0  0  0  0  0  0  0  0  0  0  0  0
  -10.1722   -1.5256    2.1178 H   0  0  0  0  0  0  0  0  0  0  0  0
 13 14  2  0  0  0
 13 15  1  0  0  0
 13  1  1  0  0  0
  1  2  1  0  0  0
  1  3  1  0  0  0
  1  9  1  0  0  0
  3  4  1  0  0  0
  4  5  1  0  0  0
  4  6  1  0  0  0
  6  7  1  0  0  0
  6  8  1  0  0  0
  8  9  1  0  0  0
  8 17  1  0  0  0
 17 18  1  0  0  0
 17 20  1  0  0  0
 20 21  1  0  0  0
 15 16  1  0  0  0
  2 10  1  0  0  0
  5 11  1  0  0  0
  7 12  1  0  0  0
 18 19  1  0  0  0
 21 22  1  0  0  0
M  END
> <minimizedAffinity>
-6.71776

$$$$
3HZM_KDO_B_303


 22 22  0  0  0  0  0  0  0  0999 V2000
   -7.9078    2.2253    0.5552 C   0  0  0  0  0  0  0  0  0  0  0  0
   -9.2687    2.4095    1.0021 O   0  0  0  0  0  0  0  0  0  0  0  0
   -7.2448    0.9584    1.1388 C   0  0  0  0  0  0  0  0  0  0  0  0
   -7.2462    1.0426    2.6715 C   0  0  0  0  0  0  0  0  0  0  0  0
   -6.5727   -0.1275    3.1861 O   0  0  0  0  0  0  0  0  0  0  0  0
   -6.4644    2.3044    3.0635 C   0  0  0  0  0  0  0  0  0  0  0  0
   -5.1458    2.1879    2.5542 O   0  0  0  0  0  0  0  0  0  0  0  0
   -7.1330    3.5034    2.3955 C   0  0  0  0  0  0  0  0  0  0  0  0
   -7.1617    3.3809    0.9841 O   0  0  0  0  0  0  0  0  0  0  0  0
   -9.8041    1.6476    0.7305 H   0  0  0  0  0  0  0  0  0  0  0  0
   -5.6720   -0.1657    2.8281 H   0  0  0  0  0  0  0  0  0  0  0  0
   -5.1797    2.0800    1.5908 H   0  0  0  0  0  0  0  0  0  0  0  0
   -7.8996    2.1782   -0.9772 C   0  0  0  0  0  0  0  0  0  0  0  0
   -7.6822    1.0754   -1.5512 O   0  0  0  0  0  0  0  0  0  0  0  0
   -8.0299    3.2753   -1.5654 O   0  0  0  0  0  0  0  0  0  0  0  0
   -8.1902    4.0554   -1.0718 H   0  0  0  0  0  0  0  0  0  0  0  0
   -6.3294    4.7879    2.6957 C   0  0  0  0  0  0  0  0  0  0  0  0
   -5.9007    4.8215    4.0623 O   0  0  0  0  0  0  0  0  0  0  0  0
   -6.6757    4.7961    4.6450 H   0  0  0  0  0  0  0  0  0  0  0  0
   -7.2420    5.9924    2.3870 C   0  0  0  0  0  0  0  0  0  0  0  0
   -7.1557    6.3705    0.9954 O   0  0  0  0  0  0  0  0  0  0  0  0
   -6.2436    6.6255    0.7855 H   0  0  0  0  0  0  0  0  0  0  0  0
 13 14  2  0  0  0
 13 15  1  0  0  0
 13  1  1  0  0  0
  1  2  1  0  0  0
  1  3  1  0  0  0
  1  9  1  0  0  0
  3  4  1  0  0  0
  4  5  1  0  0  0
  4  6  1  0  0  0
  6  7  1  0  0  0
  6  8  1  0  0  0
  8  9  1  0  0  0
  8 17  1  0  0  0
 17 18  1  0  0  0
 17 20  1  0  0  0
 20 21  1  0  0  0
 15 16  1  0  0  0
  2 10  1  0  0  0
  5 11  1  0  0  0
  7 12  1  0  0  0
 18 19  1  0  0  0
 21 22  1  0  0  0
M  END
> <minimizedAffinity>
-6.53291

$$$$
3HZM_KDO_B_303


 22 22  0  0  0  0  0  0  0  0999 V2000
   -7.7903    2.8387    0.5280 C   0  0  0  0  0  0  0  0  0  0  0  0
   -8.2572    4.0844    1.0900 O   0  0  0  0  0  0  0  0  0  0  0  0
   -8.7121    2.2928   -0.5843 C   0  0  0  0  0  0  0  0  0  0  0  0
  -10.1209    2.0722   -0.0161 C   0  0  0  0  0  0  0  0  0  0  0  0
  -10.9444    1.5115   -1.0625 O   0  0  0  0  0  0  0  0  0  0  0  0
   -9.9987    1.0696    1.1400 C   0  0  0  0  0  0  0  0  0  0  0  0
   -9.4538   -0.1359    0.6288 O   0  0  0  0  0  0  0  0  0  0  0  0
   -9.0211    1.6424    2.1634 C   0  0  0  0  0  0  0  0  0  0  0  0
   -7.7415    1.8814    1.6038 O   0  0  0  0  0  0  0  0  0  0  0  0
   -8.3034    4.7567    0.3922 H   0  0  0  0  0  0  0  0  0  0  0  0
  -10.5488    0.6834   -1.3765 H   0  0  0  0  0  0  0  0  0  0  0  0
   -8.5897    0.0447    0.2268 H   0  0  0  0  0  0  0  0  0  0  0  0
   -6.3686    3.0471   -0.0069 C   0  0  0  0  0  0  0  0  0  0  0  0
   -5.4156    3.1358    0.8158 O   0  0  0  0  0  0  0  0  0  0  0  0
   -6.2598    3.2006   -1.2442 O   0  0  0  0  0  0  0  0  0  0  0  0
   -7.0138    3.1196   -1.7945 H   0  0  0  0  0  0  0  0  0  0  0  0
   -8.8035    0.6277    3.3074 C   0  0  0  0  0  0  0  0  0  0  0  0
   -7.7070   -0.2482    3.0194 O   0  0  0  0  0  0  0  0  0  0  0  0
   -7.8894   -0.7363    2.2012 H   0  0  0  0  0  0  0  0  0  0  0  0
  -10.1086   -0.1778    3.4715 C   0  0  0  0  0  0  0  0  0  0  0  0
   -9.8857   -1.5866    3.2426 O   0  0  0  0  0  0  0  0  0  0  0  0
   -9.5643   -1.7202    2.3372 H   0  0  0  0  0  0  0  0  0  0  0  0
 13 14  2  0  0  0
 13 15  1  0  0  0
 13  1  1  0  0  0
  1  2  1  0  0  0
  1  3  1  0  0  0
  1  9  1  0  0  0
  3  4  1  0  0  0
  4  5  1  0  0  0
  4  6  1  0  0  0
  6  7  1  0  0  0
  6  8  1  0  0  0
  8  9  1  0  0  0
  8 17  1  0  0  0
 17 18  1  0  0  0
 17 20  1  0  0  0
 20 21  1  0  0  0
 15 16  1  0  0  0
  2 10  1  0  0  0
  5 11  1  0  0  0
  7 12  1  0  0  0
 18 19  1  0  0  0
 21 22  1  0  0  0
M  END
> <minimizedAffinity>
-6.52716

$$$$
3HZM_KDO_B_303


 22 22  0  0  0  0  0  0  0  0999 V2000
   -8.2482    2.9222   -0.3991 C   0  0  0  0  0  0  0  0  0  0  0  0
   -7.9448    1.6877   -1.0842 O   0  0  0  0  0  0  0  0  0  0  0  0
   -6.9873    3.6764    0.0770 C   0  0  0  0  0  0  0  0  0  0  0  0
   -6.1843    2.7774    1.0273 C   0  0  0  0  0  0  0  0  0  0  0  0
   -5.0426    3.5276    1.4975 O   0  0  0  0  0  0  0  0  0  0  0  0
   -7.0974    2.4278    2.2109 C   0  0  0  0  0  0  0  0  0  0  0  0
   -7.4848    3.6350    2.8467 O   0  0  0  0  0  0  0  0  0  0  0  0
   -8.3504    1.7516    1.6599 C   0  0  0  0  0  0  0  0  0  0  0  0
   -9.0491    2.5828    0.7495 O   0  0  0  0  0  0  0  0  0  0  0  0
   -7.4041    1.8768   -1.8670 H   0  0  0  0  0  0  0  0  0  0  0  0
   -5.3464    4.3368    1.9377 H   0  0  0  0  0  0  0  0  0  0  0  0
   -7.9400    4.2053    2.2076 H   0  0  0  0  0  0  0  0  0  0  0  0
   -9.0821    3.8067   -1.3334 C   0  0  0  0  0  0  0  0  0  0  0  0
  -10.2929    4.0210   -1.0489 O   0  0  0  0  0  0  0  0  0  0  0  0
   -8.5153    4.1960   -2.3791 O   0  0  0  0  0  0  0  0  0  0  0  0
   -7.6106    3.9990   -2.5228 H   0  0  0  0  0  0  0  0  0  0  0  0
   -9.3371    1.4559    2.8109 C   0  0  0  0  0  0  0  0  0  0  0  0
   -8.6438    1.2683    4.0504 O   0  0  0  0  0  0  0  0  0  0  0  0
   -8.0298    0.5220    3.9677 H   0  0  0  0  0  0  0  0  0  0  0  0
  -10.1246    0.1839    2.4355 C   0  0  0  0  0  0  0  0  0  0  0  0
   -9.5850   -0.4331    1.2459 O   0  0  0  0  0  0  0  0  0  0  0  0
   -9.6481    0.1872    0.5028 H   0  0  0  0  0  0  0  0  0  0  0  0
 13 14  2  0  0  0
 13 15  1  0  0  0
 13  1  1  0  0  0
  1  2  1  0  0  0
  1  3  1  0  0  0
  1  9  1  0  0  0
  3  4  1  0  0  0
  4  5  1  0  0  0
  4  6  1  0  0  0
  6  7  1  0  0  0
  6  8  1  0  0  0
  8  9  1  0  0  0
  8 17  1  0  0  0
 17 18  1  0  0  0
 17 20  1  0  0  0
 20 21  1  0  0  0
 15 16  1  0  0  0
  2 10  1  0  0  0
  5 11  1  0  0  0
  7 12  1  0  0  0
 18 19  1  0  0  0
 21 22  1  0  0  0
M  END
> <minimizedAffinity>
-6.51217

$$$$
3HZM_KDO_B_303


 22 22  0  0  0  0  0  0  0  0999 V2000
   -9.7756    1.1322    0.7995 C   0  0  0  0  0  0  0  0  0  0  0  0
   -9.6211    0.0223   -0.1114 O   0  0  0  0  0  0  0  0  0  0  0  0
  -10.9003    2.1053    0.3833 C   0  0  0  0  0  0  0  0  0  0  0  0
  -10.6005    2.6622   -1.0154 C   0  0  0  0  0  0  0  0  0  0  0  0
  -11.6387    3.6083   -1.3540 O   0  0  0  0  0  0  0  0  0  0  0  0
   -9.2468    3.3827   -0.9430 C   0  0  0  0  0  0  0  0  0  0  0  0
   -9.3462    4.4228    0.0162 O   0  0  0  0  0  0  0  0  0  0  0  0
   -8.2014    2.3810   -0.4586 C   0  0  0  0  0  0  0  0  0  0  0  0
   -8.5240    1.8457    0.8132 O   0  0  0  0  0  0  0  0  0  0  0  0
  -10.4477   -0.4841   -0.1473 H   0  0  0  0  0  0  0  0  0  0  0  0
  -11.6672    4.3102   -0.6851 H   0  0  0  0  0  0  0  0  0  0  0  0
   -9.5913    4.0470    0.8763 H   0  0  0  0  0  0  0  0  0  0  0  0
  -10.0383    0.5775    2.2045 C   0  0  0  0  0  0  0  0  0  0  0  0
   -9.1747    0.7670    3.1052 O   0  0  0  0  0  0  0  0  0  0  0  0
  -11.0747   -0.1104    2.3432 O   0  0  0  0  0  0  0  0  0  0  0  0
  -11.6722   -0.2068    1.6279 H   0  0  0  0  0  0  0  0  0  0  0  0
   -6.8369    3.0850   -0.2913 C   0  0  0  0  0  0  0  0  0  0  0  0
   -5.9916    2.8491   -1.4237 O   0  0  0  0  0  0  0  0  0  0  0  0
   -5.8400    1.8960   -1.5211 H   0  0  0  0  0  0  0  0  0  0  0  0
   -6.1829    2.5365    0.9934 C   0  0  0  0  0  0  0  0  0  0  0  0
   -5.1054    3.3903    1.4371 O   0  0  0  0  0  0  0  0  0  0  0  0
   -4.4226    3.4330    0.7494 H   0  0  0  0  0  0  0  0  0  0  0  0
 13 14  2  0  0  0
 13 15  1  0  0  0
 13  1  1  0  0  0
  1  2  1  0  0  0
  1  3  1  0  0  0
  1  9  1  0  0  0
  3  4  1  0  0  0
  4  5  1  0  0  0
  4  6  1  0  0  0
  6  7  1  0  0  0
  6  8  1  0  0  0
  8  9  1  0  0  0
  8 17  1  0  0  0
 17 18  1  0  0  0
 17 20  1  0  0  0
 20 21  1  0  0  0
 15 16  1  0  0  0
  2 10  1  0  0  0
  5 11  1  0  0  0
  7 12  1  0  0  0
 18 19  1  0  0  0
 21 22  1  0  0  0
M  END
> <minimizedAffinity>
-6.47350

$$$$
3HZM_KDO_B_303


 22 22  0  0  0  0  0  0  0  0999 V2000
   -7.8422    1.8047    2.8410 C   0  0  0  0  0  0  0  0  0  0  0  0
   -9.1343    2.4222    3.0285 O   0  0  0  0  0  0  0  0  0  0  0  0
   -6.6842    2.6274    3.4469 C   0  0  0  0  0  0  0  0  0  0  0  0
   -6.6560    4.0198    2.8013 C   0  0  0  0  0  0  0  0  0  0  0  0
   -5.5321    4.7452    3.3471 O   0  0  0  0  0  0  0  0  0  0  0  0
   -6.4612    3.8227    1.2913 C   0  0  0  0  0  0  0  0  0  0  0  0
   -5.2386    3.1337    1.0859 O   0  0  0  0  0  0  0  0  0  0  0  0
   -7.5995    2.9449    0.7767 C   0  0  0  0  0  0  0  0  0  0  0  0
   -7.6336    1.6831    1.4206 O   0  0  0  0  0  0  0  0  0  0  0  0
   -9.3108    2.5211    3.9771 H   0  0  0  0  0  0  0  0  0  0  0  0
   -4.7147    4.2518    3.1755 H   0  0  0  0  0  0  0  0  0  0  0  0
   -5.2647    2.2831    1.5513 H   0  0  0  0  0  0  0  0  0  0  0  0
   -7.8797    0.3992    3.4526 C   0  0  0  0  0  0  0  0  0  0  0  0
   -8.9257   -0.2946    3.3201 O   0  0  0  0  0  0  0  0  0  0  0  0
   -6.8801    0.0616    4.1257 O   0  0  0  0  0  0  0  0  0  0  0  0
   -6.1371    0.6301    4.1785 H   0  0  0  0  0  0  0  0  0  0  0  0
   -7.3983    2.6513   -0.7263 C   0  0  0  0  0  0  0  0  0  0  0  0
   -6.3103    3.4149   -1.2608 O   0  0  0  0  0  0  0  0  0  0  0  0
   -6.4944    4.3609   -1.1506 H   0  0  0  0  0  0  0  0  0  0  0  0
   -8.7130    3.0052   -1.4512 C   0  0  0  0  0  0  0  0  0  0  0  0
   -8.5459    4.1599   -2.3030 O   0  0  0  0  0  0  0  0  0  0  0  0
   -8.2869    4.9241   -1.7646 H   0  0  0  0  0  0  0  0  0  0  0  0
 13 14  2  0  0  0
 13 15  1  0  0  0
 13  1  1  0  0  0
  1  2  1  0  0  0
  1  3  1  0  0  0
  1  9  1  0  0  0
  3  4  1  0  0  0
  4  5  1  0  0  0
  4  6  1  0  0  0
  6  7  1  0  0  0
  6  8  1  0  0  0
  8  9  1  0  0  0
  8 17  1  0  0  0
 17 18  1  0  0  0
 17 20  1  0  0  0
 20 21  1  0  0  0
 15 16  1  0  0  0
  2 10  1  0  0  0
  5 11  1  0  0  0
  7 12  1  0  0  0
 18 19  1  0  0  0
 21 22  1  0  0  0
M  END
> <minimizedAffinity>
-6.39589

$$$$
