2AZR_982_A_301


 19 20  0  0  0  0  0  0  0  0999 V2000
   46.5398   12.1700    2.8540 C   0  0  0  0  0  0  0  0  0  0  0  0
   46.5822   10.9918    2.1029 C   0  0  0  0  0  0  0  0  0  0  0  0
   45.8968   10.9377    0.8980 C   0  0  0  0  0  0  0  0  0  0  0  0
   45.1730   11.9519    0.3727 N   0  0  0  0  0  0  0  0  0  0  0  0
   45.1631   13.0747    1.1311 C   0  0  0  0  0  0  0  0  0  0  0  0
   45.8017   13.2709    2.3616 C   0  0  0  0  0  0  0  0  0  0  0  0
   44.3077   14.4481    0.6075 S   0  0  0  0  0  0  0  0  0  0  0  0
   44.7552   15.3322    2.0064 C   0  0  0  0  0  0  0  0  0  0  0  0
   45.5633   14.5995    2.8649 C   0  0  0  0  0  0  0  0  0  0  0  0
   44.2590   16.8107    2.1708 C   0  0  0  0  0  0  0  0  0  0  0  0
   43.3536   17.1666    1.3606 O   0  0  0  0  0  0  0  0  0  0  0  0
   44.7826   17.5265    3.0782 O   0  0  0  0  0  0  0  0  0  0  0  0
   45.4501   17.1691    3.6301 H   0  0  0  0  0  0  0  0  0  0  0  0
   46.0562   15.0738    4.0534 O   0  0  0  0  0  0  0  0  0  0  0  0
   47.3950   15.5902    3.9866 C   0  0  0  0  0  0  0  0  0  0  0  0
   47.5410   16.8056    4.9195 C   0  0  0  0  0  0  0  0  0  0  0  0
   48.6893   17.2922    4.9744 O   0  0  0  0  0  0  0  0  0  0  0  0
   46.5257   17.1934    5.5473 O   0  0  0  0  0  0  0  0  0  0  0  0
   45.7067   16.7533    5.4313 H   0  0  0  0  0  0  0  0  0  0  0  0
  1  2  1  0  0  0
  1  6  2  0  0  0
  2  3  2  0  0  0
  3  4  1  0  0  0
  4  5  2  0  0  0
  5  6  1  0  0  0
  5  7  1  0  0  0
  6  9  1  0  0  0
  7  8  1  0  0  0
  8  9  2  0  0  0
  8 10  1  0  0  0
  9 14  1  0  0  0
 10 11  2  0  0  0
 10 12  1  0  0  0
 14 15  1  0  0  0
 15 16  1  0  0  0
 16 17  2  0  0  0
 16 18  1  0  0  0
 12 13  1  0  0  0
 18 19  1  0  0  0
M  END
> <minimizedAffinity>
-7.08649

$$$$
2AZR_982_A_301


 19 20  0  0  0  0  0  0  0  0999 V2000
   44.6408   12.8581    0.7849 C   0  0  0  0  0  0  0  0  0  0  0  0
   45.2330   11.6037    0.6120 C   0  0  0  0  0  0  0  0  0  0  0  0
   46.2297   11.2041    1.4905 C   0  0  0  0  0  0  0  0  0  0  0  0
   46.6896   11.9410    2.5267 N   0  0  0  0  0  0  0  0  0  0  0  0
   46.0851   13.1463    2.6593 C   0  0  0  0  0  0  0  0  0  0  0  0
   45.0740   13.6799    1.8509 C   0  0  0  0  0  0  0  0  0  0  0  0
   46.5395   14.1925    3.9206 S   0  0  0  0  0  0  0  0  0  0  0  0
   45.4133   15.3829    3.4176 C   0  0  0  0  0  0  0  0  0  0  0  0
   44.6808   14.9888    2.3063 C   0  0  0  0  0  0  0  0  0  0  0  0
   45.3021   16.7233    4.2241 C   0  0  0  0  0  0  0  0  0  0  0  0
   44.2783   16.8227    4.9622 O   0  0  0  0  0  0  0  0  0  0  0  0
   46.2191   17.5893    4.0863 O   0  0  0  0  0  0  0  0  0  0  0  0
   46.9403   17.4207    3.5123 H   0  0  0  0  0  0  0  0  0  0  0  0
   43.7176   15.7575    1.7046 O   0  0  0  0  0  0  0  0  0  0  0  0
   44.2227   16.8444    0.9128 C   0  0  0  0  0  0  0  0  0  0  0  0
   44.0009   16.5578   -0.5830 C   0  0  0  0  0  0  0  0  0  0  0  0
   44.5941   17.3329   -1.3612 O   0  0  0  0  0  0  0  0  0  0  0  0
   43.2492   15.6027   -0.8960 O   0  0  0  0  0  0  0  0  0  0  0  0
   42.8519   15.0805   -0.2272 H   0  0  0  0  0  0  0  0  0  0  0  0
  1  2  1  0  0  0
  1  6  2  0  0  0
  2  3  2  0  0  0
  3  4  1  0  0  0
  4  5  2  0  0  0
  5  6  1  0  0  0
  5  7  1  0  0  0
  6  9  1  0  0  0
  7  8  1  0  0  0
  8  9  2  0  0  0
  8 10  1  0  0  0
  9 14  1  0  0  0
 10 11  2  0  0  0
 10 12  1  0  0  0
 14 15  1  0  0  0
 15 16  1  0  0  0
 16 17  2  0  0  0
 16 18  1  0  0  0
 12 13  1  0  0  0
 18 19  1  0  0  0
M  END
> <minimizedAffinity>
-6.77050

$$$$
2AZR_982_A_301


 19 20  0  0  0  0  0  0  0  0999 V2000
   44.8936   11.7373    1.6002 C   0  0  0  0  0  0  0  0  0  0  0  0
   44.9655   10.5730    0.8300 C   0  0  0  0  0  0  0  0  0  0  0  0
   44.8256   10.6682   -0.5470 C   0  0  0  0  0  0  0  0  0  0  0  0
   44.6211   11.8191   -1.2267 N   0  0  0  0  0  0  0  0  0  0  0  0
   44.5626   12.9219   -0.4416 C   0  0  0  0  0  0  0  0  0  0  0  0
   44.6828   12.9763    0.9523 C   0  0  0  0  0  0  0  0  0  0  0  0
   44.3215   14.4531   -1.1412 S   0  0  0  0  0  0  0  0  0  0  0  0
   44.3598   15.2233    0.3898 C   0  0  0  0  0  0  0  0  0  0  0  0
   44.5696   14.3301    1.4314 C   0  0  0  0  0  0  0  0  0  0  0  0
   44.1867   16.7799    0.4700 C   0  0  0  0  0  0  0  0  0  0  0  0
   44.6358   17.4222   -0.5243 O   0  0  0  0  0  0  0  0  0  0  0  0
   43.6243   17.2734    1.4947 O   0  0  0  0  0  0  0  0  0  0  0  0
   43.3245   16.7107    2.1813 H   0  0  0  0  0  0  0  0  0  0  0  0
   44.6398   14.6888    2.7532 O   0  0  0  0  0  0  0  0  0  0  0  0
   45.9702   14.9142    3.2458 C   0  0  0  0  0  0  0  0  0  0  0  0
   46.1736   16.4077    3.5571 C   0  0  0  0  0  0  0  0  0  0  0  0
   45.1796   16.9840    4.0450 O   0  0  0  0  0  0  0  0  0  0  0  0
   47.2876   16.9202    3.2893 O   0  0  0  0  0  0  0  0  0  0  0  0
   47.9699   16.3930    2.9226 H   0  0  0  0  0  0  0  0  0  0  0  0
  1  2  1  0  0  0
  1  6  2  0  0  0
  2  3  2  0  0  0
  3  4  1  0  0  0
  4  5  2  0  0  0
  5  6  1  0  0  0
  5  7  1  0  0  0
  6  9  1  0  0  0
  7  8  1  0  0  0
  8  9  2  0  0  0
  8 10  1  0  0  0
  9 14  1  0  0  0
 10 11  2  0  0  0
 10 12  1  0  0  0
 14 15  1  0  0  0
 15 16  1  0  0  0
 16 17  2  0  0  0
 16 18  1  0  0  0
 12 13  1  0  0  0
 18 19  1  0  0  0
M  END
> <minimizedAffinity>
-6.52149

$$$$
2AZR_982_A_301


 19 20  0  0  0  0  0  0  0  0999 V2000
   44.4334   14.0141    0.0555 C   0  0  0  0  0  0  0  0  0  0  0  0
   44.0320   14.5763   -1.1597 C   0  0  0  0  0  0  0  0  0  0  0  0
   43.8814   15.9527   -1.2464 C   0  0  0  0  0  0  0  0  0  0  0  0
   44.0952   16.8204   -0.2317 N   0  0  0  0  0  0  0  0  0  0  0  0
   44.4866   16.2330    0.9249 C   0  0  0  0  0  0  0  0  0  0  0  0
   44.6756   14.8654    1.1582 C   0  0  0  0  0  0  0  0  0  0  0  0
   44.8081   17.1849    2.2969 S   0  0  0  0  0  0  0  0  0  0  0  0
   45.1953   15.8042    3.2363 C   0  0  0  0  0  0  0  0  0  0  0  0
   45.0979   14.6229    2.5140 C   0  0  0  0  0  0  0  0  0  0  0  0
   45.6216   15.9903    4.7340 C   0  0  0  0  0  0  0  0  0  0  0  0
   45.6647   17.1904    5.1350 O   0  0  0  0  0  0  0  0  0  0  0  0
   45.8848   14.9561    5.4203 O   0  0  0  0  0  0  0  0  0  0  0  0
   45.8232   14.1065    5.0299 H   0  0  0  0  0  0  0  0  0  0  0  0
   45.3518   13.3787    3.0317 O   0  0  0  0  0  0  0  0  0  0  0  0
   46.5990   12.7979    2.6187 C   0  0  0  0  0  0  0  0  0  0  0  0
   46.3612   11.3957    2.0305 C   0  0  0  0  0  0  0  0  0  0  0  0
   45.1861   11.1649    1.6782 O   0  0  0  0  0  0  0  0  0  0  0  0
   47.3371   10.6089    1.9666 O   0  0  0  0  0  0  0  0  0  0  0  0
   48.1824   10.8862    2.2606 H   0  0  0  0  0  0  0  0  0  0  0  0
  1  2  1  0  0  0
  1  6  2  0  0  0
  2  3  2  0  0  0
  3  4  1  0  0  0
  4  5  2  0  0  0
  5  6  1  0  0  0
  5  7  1  0  0  0
  6  9  1  0  0  0
  7  8  1  0  0  0
  8  9  2  0  0  0
  8 10  1  0  0  0
  9 14  1  0  0  0
 10 11  2  0  0  0
 10 12  1  0  0  0
 14 15  1  0  0  0
 15 16  1  0  0  0
 16 17  2  0  0  0
 16 18  1  0  0  0
 12 13  1  0  0  0
 18 19  1  0  0  0
M  END
> <minimizedAffinity>
-5.51340

$$$$
2AZR_982_A_301


 19 20  0  0  0  0  0  0  0  0999 V2000
   46.1498   14.2854    3.7781 C   0  0  0  0  0  0  0  0  0  0  0  0
   46.2830   15.0602    4.9339 C   0  0  0  0  0  0  0  0  0  0  0  0
   45.7186   16.3273    4.9625 C   0  0  0  0  0  0  0  0  0  0  0  0
   45.0325   16.8924    3.9435 N   0  0  0  0  0  0  0  0  0  0  0  0
   44.9243   16.1051    2.8461 C   0  0  0  0  0  0  0  0  0  0  0  0
   45.4422   14.8157    2.6747 C   0  0  0  0  0  0  0  0  0  0  0  0
   44.0810   16.6624    1.4785 S   0  0  0  0  0  0  0  0  0  0  0  0
   44.3926   15.2103    0.6223 C   0  0  0  0  0  0  0  0  0  0  0  0
   45.1202   14.2952    1.3706 C   0  0  0  0  0  0  0  0  0  0  0  0
   43.8408   15.0464   -0.8365 C   0  0  0  0  0  0  0  0  0  0  0  0
   42.8597   15.7921   -1.1266 O   0  0  0  0  0  0  0  0  0  0  0  0
   44.3997   14.2037   -1.6029 O   0  0  0  0  0  0  0  0  0  0  0  0
   45.1238   13.6964   -1.2926 H   0  0  0  0  0  0  0  0  0  0  0  0
   45.5026   13.0585    0.9179 O   0  0  0  0  0  0  0  0  0  0  0  0
   44.5988   11.9914    1.2465 C   0  0  0  0  0  0  0  0  0  0  0  0
   44.5988   10.9342    0.1280 C   0  0  0  0  0  0  0  0  0  0  0  0
   44.6271   11.3948   -1.0319 O   0  0  0  0  0  0  0  0  0  0  0  0
   44.5559    9.7243    0.4591 O   0  0  0  0  0  0  0  0  0  0  0  0
   44.5377    9.4869    1.3653 H   0  0  0  0  0  0  0  0  0  0  0  0
  1  2  1  0  0  0
  1  6  2  0  0  0
  2  3  2  0  0  0
  3  4  1  0  0  0
  4  5  2  0  0  0
  5  6  1  0  0  0
  5  7  1  0  0  0
  6  9  1  0  0  0
  7  8  1  0  0  0
  8  9  2  0  0  0
  8 10  1  0  0  0
  9 14  1  0  0  0
 10 11  2  0  0  0
 10 12  1  0  0  0
 14 15  1  0  0  0
 15 16  1  0  0  0
 16 17  2  0  0  0
 16 18  1  0  0  0
 12 13  1  0  0  0
 18 19  1  0  0  0
M  END
> <minimizedAffinity>
-5.39663

$$$$
2AZR_982_A_301


 19 20  0  0  0  0  0  0  0  0999 V2000
   44.6730   14.7343    2.4708 C   0  0  0  0  0  0  0  0  0  0  0  0
   44.4412   16.0936    2.7005 C   0  0  0  0  0  0  0  0  0  0  0  0
   44.1463   16.9166    1.6232 C   0  0  0  0  0  0  0  0  0  0  0  0
   44.0607   16.5078    0.3372 N   0  0  0  0  0  0  0  0  0  0  0  0
   44.2881   15.1837    0.1617 C   0  0  0  0  0  0  0  0  0  0  0  0
   44.5977   14.2397    1.1483 C   0  0  0  0  0  0  0  0  0  0  0  0
   44.2075   14.5052   -1.3956 S   0  0  0  0  0  0  0  0  0  0  0  0
   44.5922   12.9447   -0.7992 C   0  0  0  0  0  0  0  0  0  0  0  0
   44.7676   12.9279    0.5776 C   0  0  0  0  0  0  0  0  0  0  0  0
   44.6843   11.7418   -1.8011 C   0  0  0  0  0  0  0  0  0  0  0  0
   45.1020   12.0379   -2.9590 O   0  0  0  0  0  0  0  0  0  0  0  0
   44.3451   10.5889   -1.3940 O   0  0  0  0  0  0  0  0  0  0  0  0
   44.0473   10.4719   -0.5133 H   0  0  0  0  0  0  0  0  0  0  0  0
   45.0835   11.8070    1.3017 O   0  0  0  0  0  0  0  0  0  0  0  0
   46.4893   11.6072    1.5191 C   0  0  0  0  0  0  0  0  0  0  0  0
   46.8339   10.1109    1.4144 C   0  0  0  0  0  0  0  0  0  0  0  0
   46.2617    9.5024    0.4867 O   0  0  0  0  0  0  0  0  0  0  0  0
   47.6299    9.6280    2.2562 O   0  0  0  0  0  0  0  0  0  0  0  0
   48.0051   10.1781    2.9154 H   0  0  0  0  0  0  0  0  0  0  0  0
  1  2  1  0  0  0
  1  6  2  0  0  0
  2  3  2  0  0  0
  3  4  1  0  0  0
  4  5  2  0  0  0
  5  6  1  0  0  0
  5  7  1  0  0  0
  6  9  1  0  0  0
  7  8  1  0  0  0
  8  9  2  0  0  0
  8 10  1  0  0  0
  9 14  1  0  0  0
 10 11  2  0  0  0
 10 12  1  0  0  0
 14 15  1  0  0  0
 15 16  1  0  0  0
 16 17  2  0  0  0
 16 18  1  0  0  0
 12 13  1  0  0  0
 18 19  1  0  0  0
M  END
> <minimizedAffinity>
-5.19080

$$$$
2AZR_982_A_301


 19 20  0  0  0  0  0  0  0  0999 V2000
   43.9565   16.1181   -0.6238 C   0  0  0  0  0  0  0  0  0  0  0  0
   43.9102   16.6550   -1.9136 C   0  0  0  0  0  0  0  0  0  0  0  0
   44.2321   15.8433   -2.9917 C   0  0  0  0  0  0  0  0  0  0  0  0
   44.5954   14.5440   -2.9012 N   0  0  0  0  0  0  0  0  0  0  0  0
   44.6226   14.0644   -1.6343 C   0  0  0  0  0  0  0  0  0  0  0  0
   44.3277   14.7638   -0.4577 C   0  0  0  0  0  0  0  0  0  0  0  0
   45.0491   12.4435   -1.3466 S   0  0  0  0  0  0  0  0  0  0  0  0
   44.8632   12.6341    0.3469 C   0  0  0  0  0  0  0  0  0  0  0  0
   44.4644   13.9162    0.6991 C   0  0  0  0  0  0  0  0  0  0  0  0
   45.1235   11.4085    1.2900 C   0  0  0  0  0  0  0  0  0  0  0  0
   44.8109   10.2816    0.8050 O   0  0  0  0  0  0  0  0  0  0  0  0
   45.6160   11.6242    2.4393 O   0  0  0  0  0  0  0  0  0  0  0  0
   45.8143   12.4999    2.7072 H   0  0  0  0  0  0  0  0  0  0  0  0
   44.2476   14.3302    1.9883 O   0  0  0  0  0  0  0  0  0  0  0  0
   45.3387   15.0533    2.5798 C   0  0  0  0  0  0  0  0  0  0  0  0
   44.8011   16.1717    3.4903 C   0  0  0  0  0  0  0  0  0  0  0  0
   44.6687   17.2829    2.9371 O   0  0  0  0  0  0  0  0  0  0  0  0
   44.5587   15.8915    4.6895 O   0  0  0  0  0  0  0  0  0  0  0  0
   44.6940   15.0191    5.0033 H   0  0  0  0  0  0  0  0  0  0  0  0
  1  2  1  0  0  0
  1  6  2  0  0  0
  2  3  2  0  0  0
  3  4  1  0  0  0
  4  5  2  0  0  0
  5  6  1  0  0  0
  5  7  1  0  0  0
  6  9  1  0  0  0
  7  8  1  0  0  0
  8  9  2  0  0  0
  8 10  1  0  0  0
  9 14  1  0  0  0
 10 11  2  0  0  0
 10 12  1  0  0  0
 14 15  1  0  0  0
 15 16  1  0  0  0
 16 17  2  0  0  0
 16 18  1  0  0  0
 12 13  1  0  0  0
 18 19  1  0  0  0
M  END
> <minimizedAffinity>
-5.18032

$$$$
2AZR_982_A_301


 19 20  0  0  0  0  0  0  0  0999 V2000
   45.1154   11.6159    1.0601 C   0  0  0  0  0  0  0  0  0  0  0  0
   45.0260   10.3115    0.5656 C   0  0  0  0  0  0  0  0  0  0  0  0
   44.5967   10.1151   -0.7389 C   0  0  0  0  0  0  0  0  0  0  0  0
   44.2488   11.1011   -1.5963 N   0  0  0  0  0  0  0  0  0  0  0  0
   44.3547   12.3481   -1.0770 C   0  0  0  0  0  0  0  0  0  0  0  0
   44.7678   12.6950    0.2151 C   0  0  0  0  0  0  0  0  0  0  0  0
   43.9657   13.7025   -2.0290 S   0  0  0  0  0  0  0  0  0  0  0  0
   44.3255   14.7809   -0.7459 C   0  0  0  0  0  0  0  0  0  0  0  0
   44.7545   14.1237    0.3991 C   0  0  0  0  0  0  0  0  0  0  0  0
   44.1684   16.3244   -0.9741 C   0  0  0  0  0  0  0  0  0  0  0  0
   43.7317   16.6570   -2.1150 O   0  0  0  0  0  0  0  0  0  0  0  0
   44.4793   17.1100   -0.0275 O   0  0  0  0  0  0  0  0  0  0  0  0
   44.7952   16.7640    0.7839 H   0  0  0  0  0  0  0  0  0  0  0  0
   45.1025   14.7542    1.5661 O   0  0  0  0  0  0  0  0  0  0  0  0
   44.0019   15.0566    2.4382 C   0  0  0  0  0  0  0  0  0  0  0  0
   44.4063   16.1518    3.4411 C   0  0  0  0  0  0  0  0  0  0  0  0
   44.5239   15.7663    4.6226 O   0  0  0  0  0  0  0  0  0  0  0  0
   44.5671   17.3188    3.0080 O   0  0  0  0  0  0  0  0  0  0  0  0
   44.4531   17.4998    2.0957 H   0  0  0  0  0  0  0  0  0  0  0  0
  1  2  1  0  0  0
  1  6  2  0  0  0
  2  3  2  0  0  0
  3  4  1  0  0  0
  4  5  2  0  0  0
  5  6  1  0  0  0
  5  7  1  0  0  0
  6  9  1  0  0  0
  7  8  1  0  0  0
  8  9  2  0  0  0
  8 10  1  0  0  0
  9 14  1  0  0  0
 10 11  2  0  0  0
 10 12  1  0  0  0
 14 15  1  0  0  0
 15 16  1  0  0  0
 16 17  2  0  0  0
 16 18  1  0  0  0
 12 13  1  0  0  0
 18 19  1  0  0  0
M  END
> <minimizedAffinity>
-5.09162

$$$$
2AZR_982_A_301


 19 20  0  0  0  0  0  0  0  0999 V2000
   46.7375   13.2625    3.6397 C   0  0  0  0  0  0  0  0  0  0  0  0
   46.6627   14.5911    4.0677 C   0  0  0  0  0  0  0  0  0  0  0  0
   45.9044   15.4920    3.3340 C   0  0  0  0  0  0  0  0  0  0  0  0
   45.2129   15.1888    2.2123 N   0  0  0  0  0  0  0  0  0  0  0  0
   45.3101   13.8905    1.8369 C   0  0  0  0  0  0  0  0  0  0  0  0
   46.0365   12.8771    2.4738 C   0  0  0  0  0  0  0  0  0  0  0  0
   44.4903   13.3412    0.4519 S   0  0  0  0  0  0  0  0  0  0  0  0
   45.0885   11.7480    0.6581 C   0  0  0  0  0  0  0  0  0  0  0  0
   45.8958   11.6222    1.7803 C   0  0  0  0  0  0  0  0  0  0  0  0
   44.6764   10.6351   -0.3670 C   0  0  0  0  0  0  0  0  0  0  0  0
   44.6096   11.0140   -1.5732 O   0  0  0  0  0  0  0  0  0  0  0  0
   44.4463    9.4663    0.0699 O   0  0  0  0  0  0  0  0  0  0  0  0
   44.5232    9.2850    0.9860 H   0  0  0  0  0  0  0  0  0  0  0  0
   46.5006   10.4544    2.1689 O   0  0  0  0  0  0  0  0  0  0  0  0
   47.5683   10.0161    1.3138 C   0  0  0  0  0  0  0  0  0  0  0  0
   48.1310    8.6740    1.8148 C   0  0  0  0  0  0  0  0  0  0  0  0
   47.4069    7.6825    1.5893 O   0  0  0  0  0  0  0  0  0  0  0  0
   49.2367    8.6821    2.4086 O   0  0  0  0  0  0  0  0  0  0  0  0
   49.7003    9.4881    2.5246 H   0  0  0  0  0  0  0  0  0  0  0  0
  1  2  1  0  0  0
  1  6  2  0  0  0
  2  3  2  0  0  0
  3  4  1  0  0  0
  4  5  2  0  0  0
  5  6  1  0  0  0
  5  7  1  0  0  0
  6  9  1  0  0  0
  7  8  1  0  0  0
  8  9  2  0  0  0
  8 10  1  0  0  0
  9 14  1  0  0  0
 10 11  2  0  0  0
 10 12  1  0  0  0
 14 15  1  0  0  0
 15 16  1  0  0  0
 16 17  2  0  0  0
 16 18  1  0  0  0
 12 13  1  0  0  0
 18 19  1  0  0  0
M  END
> <minimizedAffinity>
-4.84039

$$$$
2AZR_982_A_301


 19 20  0  0  0  0  0  0  0  0999 V2000
   44.7875   12.8592    1.4920 C   0  0  0  0  0  0  0  0  0  0  0  0
   44.5123   14.2264    1.5877 C   0  0  0  0  0  0  0  0  0  0  0  0
   44.3156   14.9556    0.4240 C   0  0  0  0  0  0  0  0  0  0  0  0
   44.3676   14.4457   -0.8273 N   0  0  0  0  0  0  0  0  0  0  0  0
   44.6324   13.1176   -0.8726 C   0  0  0  0  0  0  0  0  0  0  0  0
   44.8548   12.2612    0.2125 C   0  0  0  0  0  0  0  0  0  0  0  0
   44.7211   12.3179   -2.3708 S   0  0  0  0  0  0  0  0  0  0  0  0
   45.0676   10.8183   -1.6159 C   0  0  0  0  0  0  0  0  0  0  0  0
   45.1024   10.9132   -0.2314 C   0  0  0  0  0  0  0  0  0  0  0  0
   45.2799    9.5433   -2.5039 C   0  0  0  0  0  0  0  0  0  0  0  0
   45.7076    9.7689   -3.6740 O   0  0  0  0  0  0  0  0  0  0  0  0
   45.0173    8.4075   -2.0031 O   0  0  0  0  0  0  0  0  0  0  0  0
   44.7036    8.3449   -1.1224 H   0  0  0  0  0  0  0  0  0  0  0  0
   45.3606    9.8601    0.6080 O   0  0  0  0  0  0  0  0  0  0  0  0
   46.7417    9.7036    0.9702 C   0  0  0  0  0  0  0  0  0  0  0  0
   47.1574    8.2268    0.8475 C   0  0  0  0  0  0  0  0  0  0  0  0
   47.4797    7.8645   -0.3028 O   0  0  0  0  0  0  0  0  0  0  0  0
   47.1263    7.5167    1.8819 O   0  0  0  0  0  0  0  0  0  0  0  0
   46.8675    7.8923    2.7004 H   0  0  0  0  0  0  0  0  0  0  0  0
  1  2  1  0  0  0
  1  6  2  0  0  0
  2  3  2  0  0  0
  3  4  1  0  0  0
  4  5  2  0  0  0
  5  6  1  0  0  0
  5  7  1  0  0  0
  6  9  1  0  0  0
  7  8  1  0  0  0
  8  9  2  0  0  0
  8 10  1  0  0  0
  9 14  1  0  0  0
 10 11  2  0  0  0
 10 12  1  0  0  0
 14 15  1  0  0  0
 15 16  1  0  0  0
 16 17  2  0  0  0
 16 18  1  0  0  0
 12 13  1  0  0  0
 18 19  1  0  0  0
M  END
> <minimizedAffinity>
-4.76698

$$$$
