1EOC_4NC_B_999


 13 13  0  0  0  0  0  0  0  0999 V2000
   10.3701  -12.8631   41.4724 C   0  0  0  0  0  0  0  0  0  0  0  0
   10.2291  -13.9365   40.6208 C   0  0  0  0  0  0  0  0  0  0  0  0
   11.3232  -14.6808   40.2361 C   0  0  0  0  0  0  0  0  0  0  0  0
   12.5728  -14.3413   40.7185 C   0  0  0  0  0  0  0  0  0  0  0  0
   12.7247  -13.2665   41.5786 C   0  0  0  0  0  0  0  0  0  0  0  0
   11.6197  -12.5304   41.9494 C   0  0  0  0  0  0  0  0  0  0  0  0
    9.2545  -12.1290   41.8480 O   0  0  0  0  0  0  0  0  0  0  0  0
    8.9573  -14.2494   40.1662 O   0  0  0  0  0  0  0  0  0  0  0  0
    8.4083  -12.3614   41.5194 H   0  0  0  0  0  0  0  0  0  0  0  0
    8.2231  -13.7339   40.4366 H   0  0  0  0  0  0  0  0  0  0  0  0
   13.7329  -15.1124   40.3113 N   0  0  0  0  0  0  0  0  0  0  0  0
   14.8284  -14.9883   40.8983 O   0  0  0  0  0  0  0  0  0  0  0  0
   13.6800  -15.9337   39.3700 O   0  0  0  0  0  0  0  0  0  0  0  0
  1  2  2  0  0  0
  1  6  1  0  0  0
  1  7  1  0  0  0
  2  3  1  0  0  0
  2  8  1  0  0  0
  3  4  2  0  0  0
  4  5  1  0  0  0
  4 11  1  0  0  0
  5  6  2  0  0  0
 11 12  2  0  0  0
 11 13  1  0  0  0
  7  9  1  0  0  0
  8 10  1  0  0  0
M  CHG 1  11   1
M  CHG 1  13  -1
M  END
> <minimizedAffinity>
-6.49506

$$$$
1EOC_4NC_B_999


 13 13  0  0  0  0  0  0  0  0999 V2000
   13.9602  -14.2190   41.2810 C   0  0  0  0  0  0  0  0  0  0  0  0
   13.1358  -14.7925   40.3383 C   0  0  0  0  0  0  0  0  0  0  0  0
   11.8069  -14.4379   40.2534 C   0  0  0  0  0  0  0  0  0  0  0  0
   11.3045  -13.4918   41.1263 C   0  0  0  0  0  0  0  0  0  0  0  0
   12.1260  -12.9061   42.0750 C   0  0  0  0  0  0  0  0  0  0  0  0
   13.4519  -13.2760   42.1484 C   0  0  0  0  0  0  0  0  0  0  0  0
   15.2954  -14.5897   41.3473 O   0  0  0  0  0  0  0  0  0  0  0  0
   13.6807  -15.7312   39.4757 O   0  0  0  0  0  0  0  0  0  0  0  0
   15.6334  -15.2314   40.7542 H   0  0  0  0  0  0  0  0  0  0  0  0
   14.5861  -15.9620   39.5459 H   0  0  0  0  0  0  0  0  0  0  0  0
    9.9039  -13.1190   41.0519 N   0  0  0  0  0  0  0  0  0  0  0  0
    9.0917  -13.7929   40.3838 O   0  0  0  0  0  0  0  0  0  0  0  0
    9.4551  -12.1214   41.6575 O   0  0  0  0  0  0  0  0  0  0  0  0
  1  2  2  0  0  0
  1  6  1  0  0  0
  1  7  1  0  0  0
  2  3  1  0  0  0
  2  8  1  0  0  0
  3  4  2  0  0  0
  4  5  1  0  0  0
  4 11  1  0  0  0
  5  6  2  0  0  0
 11 12  2  0  0  0
 11 13  1  0  0  0
  7  9  1  0  0  0
  8 10  1  0  0  0
M  CHG 1  11   1
M  CHG 1  13  -1
M  END
> <minimizedAffinity>
-6.47754

$$$$
1EOC_4NC_B_999


 13 13  0  0  0  0  0  0  0  0999 V2000
   13.9616  -14.2221   41.2496 C   0  0  0  0  0  0  0  0  0  0  0  0
   13.4420  -13.3306   42.1620 C   0  0  0  0  0  0  0  0  0  0  0  0
   12.1156  -12.9604   42.1106 C   0  0  0  0  0  0  0  0  0  0  0  0
   11.3032  -13.4979   41.1305 C   0  0  0  0  0  0  0  0  0  0  0  0
   11.8148  -14.3983   40.2110 C   0  0  0  0  0  0  0  0  0  0  0  0
   13.1451  -14.7540   40.2748 C   0  0  0  0  0  0  0  0  0  0  0  0
   15.2994  -14.5821   41.3213 O   0  0  0  0  0  0  0  0  0  0  0  0
   14.2881  -12.8209   43.1348 O   0  0  0  0  0  0  0  0  0  0  0  0
   15.8480  -14.2161   41.9869 H   0  0  0  0  0  0  0  0  0  0  0  0
   15.1877  -13.0821   43.1568 H   0  0  0  0  0  0  0  0  0  0  0  0
    9.9074  -13.1066   41.0614 N   0  0  0  0  0  0  0  0  0  0  0  0
    9.0845  -13.7676   40.3935 O   0  0  0  0  0  0  0  0  0  0  0  0
    9.4734  -12.1052   41.6716 O   0  0  0  0  0  0  0  0  0  0  0  0
  1  2  2  0  0  0
  1  6  1  0  0  0
  1  7  1  0  0  0
  2  3  1  0  0  0
  2  8  1  0  0  0
  3  4  2  0  0  0
  4  5  1  0  0  0
  4 11  1  0  0  0
  5  6  2  0  0  0
 11 12  2  0  0  0
 11 13  1  0  0  0
  7  9  1  0  0  0
  8 10  1  0  0  0
M  CHG 1  11   1
M  CHG 1  13  -1
M  END
> <minimizedAffinity>
-6.06859

$$$$
1EOC_4NC_B_999


 13 13  0  0  0  0  0  0  0  0999 V2000
   11.1549  -13.8554   40.4596 C   0  0  0  0  0  0  0  0  0  0  0  0
   10.8900  -13.1247   41.5968 C   0  0  0  0  0  0  0  0  0  0  0  0
   11.8938  -12.8212   42.4906 C   0  0  0  0  0  0  0  0  0  0  0  0
   13.1799  -13.2561   42.2332 C   0  0  0  0  0  0  0  0  0  0  0  0
   13.4577  -13.9879   41.0907 C   0  0  0  0  0  0  0  0  0  0  0  0
   12.4403  -14.2860   40.2096 C   0  0  0  0  0  0  0  0  0  0  0  0
   10.1293  -14.1478   39.5725 O   0  0  0  0  0  0  0  0  0  0  0  0
    9.5883  -12.6997   41.8138 O   0  0  0  0  0  0  0  0  0  0  0  0
    9.2581  -13.8516   39.7495 H   0  0  0  0  0  0  0  0  0  0  0  0
    8.9165  -12.9141   41.1968 H   0  0  0  0  0  0  0  0  0  0  0  0
   14.2422  -12.9506   43.1736 N   0  0  0  0  0  0  0  0  0  0  0  0
   13.9892  -12.6731   44.3648 O   0  0  0  0  0  0  0  0  0  0  0  0
   15.4456  -12.9629   42.8341 O   0  0  0  0  0  0  0  0  0  0  0  0
  1  2  2  0  0  0
  1  6  1  0  0  0
  1  7  1  0  0  0
  2  3  1  0  0  0
  2  8  1  0  0  0
  3  4  2  0  0  0
  4  5  1  0  0  0
  4 11  1  0  0  0
  5  6  2  0  0  0
 11 12  2  0  0  0
 11 13  1  0  0  0
  7  9  1  0  0  0
  8 10  1  0  0  0
M  CHG 1  11   1
M  CHG 1  13  -1
M  END
> <minimizedAffinity>
-6.05826

$$$$
1EOC_4NC_B_999


 13 13  0  0  0  0  0  0  0  0999 V2000
   11.8654  -14.0081   40.3861 C   0  0  0  0  0  0  0  0  0  0  0  0
   12.8778  -14.9161   40.1669 C   0  0  0  0  0  0  0  0  0  0  0  0
   14.0427  -14.8654   40.9013 C   0  0  0  0  0  0  0  0  0  0  0  0
   14.1870  -13.8905   41.8699 C   0  0  0  0  0  0  0  0  0  0  0  0
   13.1735  -12.9754   42.1010 C   0  0  0  0  0  0  0  0  0  0  0  0
   12.0167  -13.0384   41.3540 C   0  0  0  0  0  0  0  0  0  0  0  0
   10.7004  -14.0790   39.6363 O   0  0  0  0  0  0  0  0  0  0  0  0
   12.6901  -15.8837   39.1920 O   0  0  0  0  0  0  0  0  0  0  0  0
   10.6051  -14.7410   38.9801 H   0  0  0  0  0  0  0  0  0  0  0  0
   11.8924  -15.9053   38.7008 H   0  0  0  0  0  0  0  0  0  0  0  0
   15.4142  -13.8221   42.6416 N   0  0  0  0  0  0  0  0  0  0  0  0
   15.6010  -14.5706   43.6240 O   0  0  0  0  0  0  0  0  0  0  0  0
   16.3316  -13.0241   42.3501 O   0  0  0  0  0  0  0  0  0  0  0  0
  1  2  2  0  0  0
  1  6  1  0  0  0
  1  7  1  0  0  0
  2  3  1  0  0  0
  2  8  1  0  0  0
  3  4  2  0  0  0
  4  5  1  0  0  0
  4 11  1  0  0  0
  5  6  2  0  0  0
 11 12  2  0  0  0
 11 13  1  0  0  0
  7  9  1  0  0  0
  8 10  1  0  0  0
M  CHG 1  11   1
M  CHG 1  13  -1
M  END
> <minimizedAffinity>
-5.73853

$$$$
1EOC_4NC_B_999


 13 13  0  0  0  0  0  0  0  0999 V2000
   11.5261  -14.0008   40.2646 C   0  0  0  0  0  0  0  0  0  0  0  0
   12.7456  -14.6411   40.2583 C   0  0  0  0  0  0  0  0  0  0  0  0
   13.7149  -14.3225   41.1846 C   0  0  0  0  0  0  0  0  0  0  0  0
   13.4502  -13.3501   42.1300 C   0  0  0  0  0  0  0  0  0  0  0  0
   12.2257  -12.7033   42.1476 C   0  0  0  0  0  0  0  0  0  0  0  0
   11.2693  -13.0319   41.2107 C   0  0  0  0  0  0  0  0  0  0  0  0
   10.5642  -14.3390   39.3239 O   0  0  0  0  0  0  0  0  0  0  0  0
   12.9684  -15.6167   39.2988 O   0  0  0  0  0  0  0  0  0  0  0  0
   10.7463  -14.9987   38.6839 H   0  0  0  0  0  0  0  0  0  0  0  0
   12.2995  -15.8222   38.6756 H   0  0  0  0  0  0  0  0  0  0  0  0
   14.4680  -12.9999   43.1034 N   0  0  0  0  0  0  0  0  0  0  0  0
   15.6780  -12.9827   42.7937 O   0  0  0  0  0  0  0  0  0  0  0  0
   14.1761  -12.6934   44.2799 O   0  0  0  0  0  0  0  0  0  0  0  0
  1  2  2  0  0  0
  1  6  1  0  0  0
  1  7  1  0  0  0
  2  3  1  0  0  0
  2  8  1  0  0  0
  3  4  2  0  0  0
  4  5  1  0  0  0
  4 11  1  0  0  0
  5  6  2  0  0  0
 11 12  2  0  0  0
 11 13  1  0  0  0
  7  9  1  0  0  0
  8 10  1  0  0  0
M  CHG 1  11   1
M  CHG 1  13  -1
M  END
> <minimizedAffinity>
-5.73725

$$$$
1EOC_4NC_B_999


 13 13  0  0  0  0  0  0  0  0999 V2000
   13.2527  -14.8709   40.2551 C   0  0  0  0  0  0  0  0  0  0  0  0
   12.4989  -13.8266   40.7436 C   0  0  0  0  0  0  0  0  0  0  0  0
   12.9258  -13.0963   41.8313 C   0  0  0  0  0  0  0  0  0  0  0  0
   14.1278  -13.4201   42.4311 C   0  0  0  0  0  0  0  0  0  0  0  0
   14.8953  -14.4655   41.9451 C   0  0  0  0  0  0  0  0  0  0  0  0
   14.4507  -15.1881   40.8586 C   0  0  0  0  0  0  0  0  0  0  0  0
   12.8046  -15.5914   39.1576 O   0  0  0  0  0  0  0  0  0  0  0  0
   11.3034  -13.5284   40.1082 O   0  0  0  0  0  0  0  0  0  0  0  0
   11.9891  -15.3697   38.7528 H   0  0  0  0  0  0  0  0  0  0  0  0
   11.0265  -14.0342   39.3696 H   0  0  0  0  0  0  0  0  0  0  0  0
   14.5812  -12.6637   43.5837 N   0  0  0  0  0  0  0  0  0  0  0  0
   15.7427  -12.2076   43.6396 O   0  0  0  0  0  0  0  0  0  0  0  0
   13.8297  -12.4310   44.5555 O   0  0  0  0  0  0  0  0  0  0  0  0
  1  2  2  0  0  0
  1  6  1  0  0  0
  1  7  1  0  0  0
  2  3  1  0  0  0
  2  8  1  0  0  0
  3  4  2  0  0  0
  4  5  1  0  0  0
  4 11  1  0  0  0
  5  6  2  0  0  0
 11 12  2  0  0  0
 11 13  1  0  0  0
  7  9  1  0  0  0
  8 10  1  0  0  0
M  CHG 1  11   1
M  CHG 1  13  -1
M  END
> <minimizedAffinity>
-5.63431

$$$$
1EOC_4NC_B_999


 13 13  0  0  0  0  0  0  0  0999 V2000
   11.7167  -14.0377   40.3075 C   0  0  0  0  0  0  0  0  0  0  0  0
   11.8501  -13.1445   41.3475 C   0  0  0  0  0  0  0  0  0  0  0  0
   13.0163  -13.0818   42.0789 C   0  0  0  0  0  0  0  0  0  0  0  0
   14.0609  -13.9268   41.7559 C   0  0  0  0  0  0  0  0  0  0  0  0
   13.9384  -14.8257   40.7094 C   0  0  0  0  0  0  0  0  0  0  0  0
   12.7630  -14.8775   39.9912 C   0  0  0  0  0  0  0  0  0  0  0  0
   10.5343  -14.0822   39.5833 O   0  0  0  0  0  0  0  0  0  0  0  0
   10.7820  -12.3083   41.6339 O   0  0  0  0  0  0  0  0  0  0  0  0
    9.8275  -13.5081   39.8045 H   0  0  0  0  0  0  0  0  0  0  0  0
    9.9955  -12.3627   41.1275 H   0  0  0  0  0  0  0  0  0  0  0  0
   15.2894  -13.8759   42.5267 N   0  0  0  0  0  0  0  0  0  0  0  0
   16.1792  -13.0384   42.2677 O   0  0  0  0  0  0  0  0  0  0  0  0
   15.5008  -14.6559   43.4808 O   0  0  0  0  0  0  0  0  0  0  0  0
  1  2  2  0  0  0
  1  6  1  0  0  0
  1  7  1  0  0  0
  2  3  1  0  0  0
  2  8  1  0  0  0
  3  4  2  0  0  0
  4  5  1  0  0  0
  4 11  1  0  0  0
  5  6  2  0  0  0
 11 12  2  0  0  0
 11 13  1  0  0  0
  7  9  1  0  0  0
  8 10  1  0  0  0
M  CHG 1  11   1
M  CHG 1  13  -1
M  END
> <minimizedAffinity>
-5.62375

$$$$
1EOC_4NC_B_999


 13 13  0  0  0  0  0  0  0  0999 V2000
   15.8040  -13.5288   44.0079 C   0  0  0  0  0  0  0  0  0  0  0  0
   14.7329  -12.6772   44.1659 C   0  0  0  0  0  0  0  0  0  0  0  0
   13.7156  -12.6427   43.2371 C   0  0  0  0  0  0  0  0  0  0  0  0
   13.7772  -13.4786   42.1385 C   0  0  0  0  0  0  0  0  0  0  0  0
   14.8476  -14.3415   41.9724 C   0  0  0  0  0  0  0  0  0  0  0  0
   15.8585  -14.3597   42.9095 C   0  0  0  0  0  0  0  0  0  0  0  0
   16.8160  -13.5483   44.9566 O   0  0  0  0  0  0  0  0  0  0  0  0
   14.7047  -11.8610   45.2862 O   0  0  0  0  0  0  0  0  0  0  0  0
   16.7718  -12.9804   45.7006 H   0  0  0  0  0  0  0  0  0  0  0  0
   15.4039  -11.8959   45.9090 H   0  0  0  0  0  0  0  0  0  0  0  0
   12.7160  -13.4424   41.1491 N   0  0  0  0  0  0  0  0  0  0  0  0
   11.8702  -12.5234   41.1438 O   0  0  0  0  0  0  0  0  0  0  0  0
   12.6126  -14.3178   40.2623 O   0  0  0  0  0  0  0  0  0  0  0  0
  1  2  2  0  0  0
  1  6  1  0  0  0
  1  7  1  0  0  0
  2  3  1  0  0  0
  2  8  1  0  0  0
  3  4  2  0  0  0
  4  5  1  0  0  0
  4 11  1  0  0  0
  5  6  2  0  0  0
 11 12  2  0  0  0
 11 13  1  0  0  0
  7  9  1  0  0  0
  8 10  1  0  0  0
M  CHG 1  11   1
M  CHG 1  13  -1
M  END
> <minimizedAffinity>
-5.35783

$$$$
1EOC_4NC_B_999


 13 13  0  0  0  0  0  0  0  0999 V2000
   14.9968  -13.3184   43.6043 C   0  0  0  0  0  0  0  0  0  0  0  0
   15.5221  -14.3022   42.7959 C   0  0  0  0  0  0  0  0  0  0  0  0
   14.8561  -14.7145   41.6622 C   0  0  0  0  0  0  0  0  0  0  0  0
   13.6487  -14.1258   41.3380 C   0  0  0  0  0  0  0  0  0  0  0  0
   13.1139  -13.1328   42.1419 C   0  0  0  0  0  0  0  0  0  0  0  0
   13.7920  -12.7358   43.2745 C   0  0  0  0  0  0  0  0  0  0  0  0
   15.6855  -12.9175   44.7398 O   0  0  0  0  0  0  0  0  0  0  0  0
   16.7398  -14.8614   43.1515 O   0  0  0  0  0  0  0  0  0  0  0  0
   16.5040  -13.3183   44.9573 H   0  0  0  0  0  0  0  0  0  0  0  0
   17.1808  -14.5705   43.9254 H   0  0  0  0  0  0  0  0  0  0  0  0
   12.9343  -14.5602   40.1518 N   0  0  0  0  0  0  0  0  0  0  0  0
   11.9548  -13.9183   39.7175 O   0  0  0  0  0  0  0  0  0  0  0  0
   13.2745  -15.5813   39.5155 O   0  0  0  0  0  0  0  0  0  0  0  0
  1  2  2  0  0  0
  1  6  1  0  0  0
  1  7  1  0  0  0
  2  3  1  0  0  0
  2  8  1  0  0  0
  3  4  2  0  0  0
  4  5  1  0  0  0
  4 11  1  0  0  0
  5  6  2  0  0  0
 11 12  2  0  0  0
 11 13  1  0  0  0
  7  9  1  0  0  0
  8 10  1  0  0  0
M  CHG 1  11   1
M  CHG 1  13  -1
M  END
> <minimizedAffinity>
-5.14963

$$$$
