1PPH_0ZG_E_1


 34 36  0  0  0  0  0  0  0  0999 V2000
   -3.0250    3.4592   21.6681 C   0  0  0  0  0  0  0  0  0  0  0  0
   -3.9453    4.0177   23.9375 N   0  0  0  0  0  0  0  0  0  0  0  0
   -2.8868    5.0021   24.1856 C   0  0  0  0  0  0  0  0  0  0  0  0
   -2.2484    4.6083   25.4990 C   0  0  0  0  0  0  0  0  0  0  0  0
   -3.3109    4.4863   26.5808 C   0  0  0  0  0  0  0  0  0  0  0  0
   -4.3728    3.4911   26.1958 C   0  0  0  0  0  0  0  0  0  0  0  0
   -4.9986    4.0251   24.9375 C   0  0  0  0  0  0  0  0  0  0  0  0
   -4.0729    3.3209   22.7925 C   0  0  0  0  0  0  0  0  0  0  0  0
   -5.0604    2.5923   22.5952 O   0  0  0  0  0  0  0  0  0  0  0  0
   -2.5654    2.1630   21.1693 N   0  0  0  0  0  0  0  0  0  0  0  0
   -2.5861    2.2139   20.1508 H   0  0  0  0  0  0  0  0  0  0  0  0
   -1.0350    1.5952   21.5999 S   0  0  0  0  0  0  0  0  0  0  0  0
   -1.0005    0.1112   21.2682 O   0  0  0  0  0  0  0  0  0  0  0  0
    0.0040    2.4052   20.8345 O   0  0  0  0  0  0  0  0  0  0  0  0
   -0.7789    1.7224   23.3800 C   0  0  0  0  0  0  0  0  0  0  0  0
    0.3457    2.4206   23.7908 C   0  0  0  0  0  0  0  0  0  0  0  0
    0.7012    2.4332   25.1169 C   0  0  0  0  0  0  0  0  0  0  0  0
   -0.0822    1.7451   26.0241 C   0  0  0  0  0  0  0  0  0  0  0  0
   -1.2374    1.0716   25.6247 C   0  0  0  0  0  0  0  0  0  0  0  0
   -1.5946    1.0636   24.2867 C   0  0  0  0  0  0  0  0  0  0  0  0
    0.3610    1.7348   27.4894 C   0  0  0  0  0  0  0  0  0  0  0  0
   -3.5827    4.2835   20.4938 C   0  0  0  0  0  0  0  0  0  0  0  0
   -2.8224    5.5674   20.1398 C   0  0  0  0  0  0  0  0  0  0  0  0
   -3.4713    6.7830   20.0490 C   0  0  0  0  0  0  0  0  0  0  0  0
   -1.4690    5.5286   19.8615 C   0  0  0  0  0  0  0  0  0  0  0  0
   -2.8599    7.9699   19.6936 C   0  0  0  0  0  0  0  0  0  0  0  0
   -0.8259    6.6916   19.5103 C   0  0  0  0  0  0  0  0  0  0  0  0
   -1.4917    7.8977   19.4230 C   0  0  0  0  0  0  0  0  0  0  0  0
   -3.5672    9.1795   19.5878 C   0  0  0  0  0  0  0  0  0  0  0  0
   -4.8992    9.1787   19.7764 N   0  0  0  0  0  0  0  0  0  0  0  0
   -2.9167   10.3186   19.2793 N   0  0  0  0  0  0  0  0  0  0  0  0
   -5.3640    8.3405   20.0015 H   0  0  0  0  0  0  0  0  0  0  0  0
   -1.9417   10.3074   19.1434 H   0  0  0  0  0  0  0  0  0  0  0  0
   -3.4165   11.1621   19.1898 H   0  0  0  0  0  0  0  0  0  0  0  0
 12 13  2  0  0  0
 12 15  1  0  0  0
 15 16  2  0  0  0
 15 20  1  0  0  0
 16 17  1  0  0  0
 17 18  2  0  0  0
 18 19  1  0  0  0
 18 21  1  0  0  0
 19 20  2  0  0  0
  2  3  1  0  0  0
  2  7  1  0  0  0
  3  4  1  0  0  0
  4  5  1  0  0  0
  5  6  1  0  0  0
  6  7  1  0  0  0
 10  1  1  0  0  0
  1  8  1  0  0  0
  1 22  1  0  0  0
  8  9  2  0  0  0
 22 23  1  0  0  0
 23 24  2  0  0  0
 23 25  1  0  0  0
 24 26  1  0  0  0
 25 27  2  0  0  0
 26 28  2  0  0  0
 26 29  1  0  0  0
 27 28  1  0  0  0
 29 30  2  0  0  0
 29 31  1  0  0  0
 12 10  1  0  0  0
  2  8  1  0  0  0
 12 14  2  0  0  0
 10 11  1  0  0  0
 30 32  1  0  0  0
 31 33  1  0  0  0
 31 34  1  0  0  0
M  END
> <minimizedAffinity>
-8.02650

$$$$
1PPH_0ZG_E_1


 34 36  0  0  0  0  0  0  0  0999 V2000
   -3.8776    3.9439   21.7279 C   0  0  0  0  0  0  0  0  0  0  0  0
   -1.6824    3.6352   22.9092 N   0  0  0  0  0  0  0  0  0  0  0  0
   -1.3947    2.4017   22.1696 C   0  0  0  0  0  0  0  0  0  0  0  0
   -1.1152    1.3434   23.2134 C   0  0  0  0  0  0  0  0  0  0  0  0
   -0.0261    1.8199   24.1624 C   0  0  0  0  0  0  0  0  0  0  0  0
   -0.4047    3.1188   24.8224 C   0  0  0  0  0  0  0  0  0  0  0  0
   -0.5672    4.1137   23.7071 C   0  0  0  0  0  0  0  0  0  0  0  0
   -2.7787    4.3922   22.7144 C   0  0  0  0  0  0  0  0  0  0  0  0
   -2.9063    5.4895   23.2841 O   0  0  0  0  0  0  0  0  0  0  0  0
   -5.1742    4.5553   22.0193 N   0  0  0  0  0  0  0  0  0  0  0  0
   -5.3675    5.2127   21.2638 H   0  0  0  0  0  0  0  0  0  0  0  0
   -6.5424    3.5797   22.1810 S   0  0  0  0  0  0  0  0  0  0  0  0
   -6.0583    2.1976   22.5919 O   0  0  0  0  0  0  0  0  0  0  0  0
   -7.4644    4.2226   23.2096 O   0  0  0  0  0  0  0  0  0  0  0  0
   -7.3767    3.3737   20.5960 C   0  0  0  0  0  0  0  0  0  0  0  0
   -8.7251    3.6924   20.5654 C   0  0  0  0  0  0  0  0  0  0  0  0
   -9.4714    3.4182   19.4460 C   0  0  0  0  0  0  0  0  0  0  0  0
   -8.8530    2.8279   18.3600 C   0  0  0  0  0  0  0  0  0  0  0  0
   -7.4877    2.5390   18.3682 C   0  0  0  0  0  0  0  0  0  0  0  0
   -6.7375    2.8197   19.4979 C   0  0  0  0  0  0  0  0  0  0  0  0
   -9.7160    2.4889   17.1419 C   0  0  0  0  0  0  0  0  0  0  0  0
   -3.4806    4.2687   20.2766 C   0  0  0  0  0  0  0  0  0  0  0  0
   -2.7414    5.5935   20.0519 C   0  0  0  0  0  0  0  0  0  0  0  0
   -3.4263    6.7883   19.9499 C   0  0  0  0  0  0  0  0  0  0  0  0
   -1.3673    5.6153   19.9041 C   0  0  0  0  0  0  0  0  0  0  0  0
   -2.8312    8.0110   19.7053 C   0  0  0  0  0  0  0  0  0  0  0  0
   -0.7401    6.8150   19.6658 C   0  0  0  0  0  0  0  0  0  0  0  0
   -1.4418    7.9996   19.5653 C   0  0  0  0  0  0  0  0  0  0  0  0
   -3.5726    9.1984   19.5826 C   0  0  0  0  0  0  0  0  0  0  0  0
   -2.9320   10.3435   19.2855 N   0  0  0  0  0  0  0  0  0  0  0  0
   -4.9051    9.1876   19.7828 N   0  0  0  0  0  0  0  0  0  0  0  0
   -1.9581   10.3396   19.1412 H   0  0  0  0  0  0  0  0  0  0  0  0
   -5.3634    8.3437   19.9997 H   0  0  0  0  0  0  0  0  0  0  0  0
   -5.4203   10.0236   19.7122 H   0  0  0  0  0  0  0  0  0  0  0  0
 12 13  2  0  0  0
 12 15  1  0  0  0
 15 16  2  0  0  0
 15 20  1  0  0  0
 16 17  1  0  0  0
 17 18  2  0  0  0
 18 19  1  0  0  0
 18 21  1  0  0  0
 19 20  2  0  0  0
  2  3  1  0  0  0
  2  7  1  0  0  0
  3  4  1  0  0  0
  4  5  1  0  0  0
  5  6  1  0  0  0
  6  7  1  0  0  0
 10  1  1  0  0  0
  1  8  1  0  0  0
  1 22  1  0  0  0
  8  9  2  0  0  0
 22 23  1  0  0  0
 23 24  2  0  0  0
 23 25  1  0  0  0
 24 26  1  0  0  0
 25 27  2  0  0  0
 26 28  2  0  0  0
 26 29  1  0  0  0
 27 28  1  0  0  0
 29 30  2  0  0  0
 29 31  1  0  0  0
 12 10  1  0  0  0
  2  8  1  0  0  0
 12 14  2  0  0  0
 10 11  1  0  0  0
 30 32  1  0  0  0
 31 33  1  0  0  0
 31 34  1  0  0  0
M  END
> <minimizedAffinity>
-7.71484

$$$$
1PPH_0ZG_E_1


 34 36  0  0  0  0  0  0  0  0999 V2000
   -3.2978    3.2048   21.2464 C   0  0  0  0  0  0  0  0  0  0  0  0
   -1.9217    3.6557   23.2988 N   0  0  0  0  0  0  0  0  0  0  0  0
   -0.6681    3.3964   22.5829 C   0  0  0  0  0  0  0  0  0  0  0  0
    0.0612    2.3414   23.3845 C   0  0  0  0  0  0  0  0  0  0  0  0
    0.2014    2.7884   24.8317 C   0  0  0  0  0  0  0  0  0  0  0  0
   -1.1412    3.0786   25.4477 C   0  0  0  0  0  0  0  0  0  0  0  0
   -1.7332    4.1954   24.6339 C   0  0  0  0  0  0  0  0  0  0  0  0
   -3.1388    3.6201   22.7241 C   0  0  0  0  0  0  0  0  0  0  0  0
   -4.1524    3.9686   23.3535 O   0  0  0  0  0  0  0  0  0  0  0  0
   -4.0712    1.9728   21.0917 N   0  0  0  0  0  0  0  0  0  0  0  0
   -4.2904    1.8839   20.0995 H   0  0  0  0  0  0  0  0  0  0  0  0
   -3.4059    0.4999   21.5796 S   0  0  0  0  0  0  0  0  0  0  0  0
   -3.2206    0.5721   23.0875 O   0  0  0  0  0  0  0  0  0  0  0  0
   -4.3495   -0.6142   21.1439 O   0  0  0  0  0  0  0  0  0  0  0  0
   -1.7608    0.2729   20.8774 C   0  0  0  0  0  0  0  0  0  0  0  0
   -0.9794   -0.7178   21.4506 C   0  0  0  0  0  0  0  0  0  0  0  0
    0.3368   -0.8537   21.0842 C   0  0  0  0  0  0  0  0  0  0  0  0
    0.8581    0.0077   20.1373 C   0  0  0  0  0  0  0  0  0  0  0  0
    0.0681    0.9830   19.5273 C   0  0  0  0  0  0  0  0  0  0  0  0
   -1.2599    1.1152   19.8971 C   0  0  0  0  0  0  0  0  0  0  0  0
    2.3401   -0.1332   19.7803 C   0  0  0  0  0  0  0  0  0  0  0  0
   -3.9638    4.3255   20.4279 C   0  0  0  0  0  0  0  0  0  0  0  0
   -3.0944    5.5489   20.1128 C   0  0  0  0  0  0  0  0  0  0  0  0
   -3.6414    6.8140   20.0261 C   0  0  0  0  0  0  0  0  0  0  0  0
   -1.7420    5.4053   19.8662 C   0  0  0  0  0  0  0  0  0  0  0  0
   -2.9281    7.9527   19.7044 C   0  0  0  0  0  0  0  0  0  0  0  0
   -0.9991    6.5175   19.5491 C   0  0  0  0  0  0  0  0  0  0  0  0
   -1.5637    7.7744   19.4653 C   0  0  0  0  0  0  0  0  0  0  0  0
   -3.5333    9.2167   19.6012 C   0  0  0  0  0  0  0  0  0  0  0  0
   -2.7859   10.2735   19.2348 N   0  0  0  0  0  0  0  0  0  0  0  0
   -4.8414    9.3657   19.8883 N   0  0  0  0  0  0  0  0  0  0  0  0
   -1.8311   10.1529   19.0273 H   0  0  0  0  0  0  0  0  0  0  0  0
   -5.3788    8.5852   20.1555 H   0  0  0  0  0  0  0  0  0  0  0  0
   -5.2598   10.2550   19.8310 H   0  0  0  0  0  0  0  0  0  0  0  0
 12 13  2  0  0  0
 12 15  1  0  0  0
 15 16  2  0  0  0
 15 20  1  0  0  0
 16 17  1  0  0  0
 17 18  2  0  0  0
 18 19  1  0  0  0
 18 21  1  0  0  0
 19 20  2  0  0  0
  2  3  1  0  0  0
  2  7  1  0  0  0
  3  4  1  0  0  0
  4  5  1  0  0  0
  5  6  1  0  0  0
  6  7  1  0  0  0
 10  1  1  0  0  0
  1  8  1  0  0  0
  1 22  1  0  0  0
  8  9  2  0  0  0
 22 23  1  0  0  0
 23 24  2  0  0  0
 23 25  1  0  0  0
 24 26  1  0  0  0
 25 27  2  0  0  0
 26 28  2  0  0  0
 26 29  1  0  0  0
 27 28  1  0  0  0
 29 30  2  0  0  0
 29 31  1  0  0  0
 12 10  1  0  0  0
  2  8  1  0  0  0
 12 14  2  0  0  0
 10 11  1  0  0  0
 30 32  1  0  0  0
 31 33  1  0  0  0
 31 34  1  0  0  0
M  END
> <minimizedAffinity>
-7.64433

$$$$
1PPH_0ZG_E_1


 34 36  0  0  0  0  0  0  0  0999 V2000
   -2.9452    3.4567   21.6179 C   0  0  0  0  0  0  0  0  0  0  0  0
   -3.6561    3.8354   23.9971 N   0  0  0  0  0  0  0  0  0  0  0  0
   -2.4918    4.6851   24.2681 C   0  0  0  0  0  0  0  0  0  0  0  0
   -1.8111    4.0885   25.4798 C   0  0  0  0  0  0  0  0  0  0  0  0
   -2.8077    3.9415   26.6196 C   0  0  0  0  0  0  0  0  0  0  0  0
   -3.9853    3.0969   26.2121 C   0  0  0  0  0  0  0  0  0  0  0  0
   -4.6361    3.8248   25.0690 C   0  0  0  0  0  0  0  0  0  0  0  0
   -3.9261    3.2875   22.7971 C   0  0  0  0  0  0  0  0  0  0  0  0
   -4.9913    2.6785   22.5986 O   0  0  0  0  0  0  0  0  0  0  0  0
   -2.4886    2.1746   21.0816 N   0  0  0  0  0  0  0  0  0  0  0  0
   -2.5884    2.2258   20.0678 H   0  0  0  0  0  0  0  0  0  0  0  0
   -0.9144    1.6499   21.3926 S   0  0  0  0  0  0  0  0  0  0  0  0
    0.0027    2.8458   21.1876 O   0  0  0  0  0  0  0  0  0  0  0  0
   -0.8706    1.0966   22.8115 O   0  0  0  0  0  0  0  0  0  0  0  0
   -0.4017    0.4066   20.1918 C   0  0  0  0  0  0  0  0  0  0  0  0
    0.0976    0.8824   18.9897 C   0  0  0  0  0  0  0  0  0  0  0  0
    0.3641    0.0111   17.9626 C   0  0  0  0  0  0  0  0  0  0  0  0
    0.1305   -1.3376   18.1542 C   0  0  0  0  0  0  0  0  0  0  0  0
   -0.3356   -1.8294   19.3742 C   0  0  0  0  0  0  0  0  0  0  0  0
   -0.6005   -0.9479   20.4090 C   0  0  0  0  0  0  0  0  0  0  0  0
    0.3906   -2.2832   16.9787 C   0  0  0  0  0  0  0  0  0  0  0  0
   -3.5834    4.2799   20.4845 C   0  0  0  0  0  0  0  0  0  0  0  0
   -2.8413    5.5552   20.0665 C   0  0  0  0  0  0  0  0  0  0  0  0
   -3.4810    6.7787   20.0334 C   0  0  0  0  0  0  0  0  0  0  0  0
   -1.5179    5.5008   19.6714 C   0  0  0  0  0  0  0  0  0  0  0  0
   -2.8885    7.9588   19.6269 C   0  0  0  0  0  0  0  0  0  0  0  0
   -0.8938    6.6566   19.2664 C   0  0  0  0  0  0  0  0  0  0  0  0
   -1.5500    7.8707   19.2382 C   0  0  0  0  0  0  0  0  0  0  0  0
   -3.5877    9.1769   19.5839 C   0  0  0  0  0  0  0  0  0  0  0  0
   -4.9285    9.1676   19.6940 N   0  0  0  0  0  0  0  0  0  0  0  0
   -2.9196   10.3346   19.4123 N   0  0  0  0  0  0  0  0  0  0  0  0
   -5.4061    8.3159   19.8191 H   0  0  0  0  0  0  0  0  0  0  0  0
   -1.9384   10.3295   19.3329 H   0  0  0  0  0  0  0  0  0  0  0  0
   -3.4128   11.1854   19.3663 H   0  0  0  0  0  0  0  0  0  0  0  0
 12 13  2  0  0  0
 12 15  1  0  0  0
 15 16  2  0  0  0
 15 20  1  0  0  0
 16 17  1  0  0  0
 17 18  2  0  0  0
 18 19  1  0  0  0
 18 21  1  0  0  0
 19 20  2  0  0  0
  2  3  1  0  0  0
  2  7  1  0  0  0
  3  4  1  0  0  0
  4  5  1  0  0  0
  5  6  1  0  0  0
  6  7  1  0  0  0
 10  1  1  0  0  0
  1  8  1  0  0  0
  1 22  1  0  0  0
  8  9  2  0  0  0
 22 23  1  0  0  0
 23 24  2  0  0  0
 23 25  1  0  0  0
 24 26  1  0  0  0
 25 27  2  0  0  0
 26 28  2  0  0  0
 26 29  1  0  0  0
 27 28  1  0  0  0
 29 30  2  0  0  0
 29 31  1  0  0  0
 12 10  1  0  0  0
  2  8  1  0  0  0
 12 14  2  0  0  0
 10 11  1  0  0  0
 30 32  1  0  0  0
 31 33  1  0  0  0
 31 34  1  0  0  0
M  END
> <minimizedAffinity>
-7.49011

$$$$
1PPH_0ZG_E_1


 34 36  0  0  0  0  0  0  0  0999 V2000
   -2.7394    3.4903   21.3048 C   0  0  0  0  0  0  0  0  0  0  0  0
   -1.7806    1.1700   21.2276 N   0  0  0  0  0  0  0  0  0  0  0  0
   -2.7498    0.6769   22.2117 C   0  0  0  0  0  0  0  0  0  0  0  0
   -1.9372    0.0393   23.3166 C   0  0  0  0  0  0  0  0  0  0  0  0
   -0.9905   -1.0002   22.7360 C   0  0  0  0  0  0  0  0  0  0  0  0
   -0.0813   -0.3951   21.7000 C   0  0  0  0  0  0  0  0  0  0  0  0
   -0.9835    0.1222   20.6143 C   0  0  0  0  0  0  0  0  0  0  0  0
   -1.7618    2.4305   20.7547 C   0  0  0  0  0  0  0  0  0  0  0  0
   -0.9945    2.7549   19.8323 O   0  0  0  0  0  0  0  0  0  0  0  0
   -2.1266    4.3402   22.3256 N   0  0  0  0  0  0  0  0  0  0  0  0
   -2.3322    5.3057   22.0689 H   0  0  0  0  0  0  0  0  0  0  0  0
   -2.5720    4.1587   23.9439 S   0  0  0  0  0  0  0  0  0  0  0  0
   -2.7572    5.5563   24.5147 O   0  0  0  0  0  0  0  0  0  0  0  0
   -3.8409    3.3169   23.9949 O   0  0  0  0  0  0  0  0  0  0  0  0
   -1.2442    3.3949   24.8949 C   0  0  0  0  0  0  0  0  0  0  0  0
   -0.1297    2.9892   24.1780 C   0  0  0  0  0  0  0  0  0  0  0  0
    0.8570    2.2605   24.7948 C   0  0  0  0  0  0  0  0  0  0  0  0
    0.7176    1.9483   26.1339 C   0  0  0  0  0  0  0  0  0  0  0  0
   -0.3826    2.3856   26.8726 C   0  0  0  0  0  0  0  0  0  0  0  0
   -1.3745    3.1230   26.2478 C   0  0  0  0  0  0  0  0  0  0  0  0
    1.8079    1.0949   26.7872 C   0  0  0  0  0  0  0  0  0  0  0  0
   -3.2860    4.3765   20.1711 C   0  0  0  0  0  0  0  0  0  0  0  0
   -2.6089    5.7398   19.9843 C   0  0  0  0  0  0  0  0  0  0  0  0
   -3.3496    6.9021   19.8967 C   0  0  0  0  0  0  0  0  0  0  0  0
   -1.2356    5.8310   19.8572 C   0  0  0  0  0  0  0  0  0  0  0  0
   -2.8112    8.1570   19.6859 C   0  0  0  0  0  0  0  0  0  0  0  0
   -0.6642    7.0643   19.6527 C   0  0  0  0  0  0  0  0  0  0  0  0
   -1.4210    8.2155   19.5661 C   0  0  0  0  0  0  0  0  0  0  0  0
   -3.6075    9.3096   19.5766 C   0  0  0  0  0  0  0  0  0  0  0  0
   -4.9343    9.2112   19.7763 N   0  0  0  0  0  0  0  0  0  0  0  0
   -3.0462   10.4914   19.2538 N   0  0  0  0  0  0  0  0  0  0  0  0
   -5.3336    8.3427   20.0117 H   0  0  0  0  0  0  0  0  0  0  0  0
   -2.0741   10.5516   19.1099 H   0  0  0  0  0  0  0  0  0  0  0  0
   -3.6081   11.2945   19.1619 H   0  0  0  0  0  0  0  0  0  0  0  0
 12 13  2  0  0  0
 12 15  1  0  0  0
 15 16  2  0  0  0
 15 20  1  0  0  0
 16 17  1  0  0  0
 17 18  2  0  0  0
 18 19  1  0  0  0
 18 21  1  0  0  0
 19 20  2  0  0  0
  2  3  1  0  0  0
  2  7  1  0  0  0
  3  4  1  0  0  0
  4  5  1  0  0  0
  5  6  1  0  0  0
  6  7  1  0  0  0
 10  1  1  0  0  0
  1  8  1  0  0  0
  1 22  1  0  0  0
  8  9  2  0  0  0
 22 23  1  0  0  0
 23 24  2  0  0  0
 23 25  1  0  0  0
 24 26  1  0  0  0
 25 27  2  0  0  0
 26 28  2  0  0  0
 26 29  1  0  0  0
 27 28  1  0  0  0
 29 30  2  0  0  0
 29 31  1  0  0  0
 12 10  1  0  0  0
  2  8  1  0  0  0
 12 14  2  0  0  0
 10 11  1  0  0  0
 30 32  1  0  0  0
 31 33  1  0  0  0
 31 34  1  0  0  0
M  END
> <minimizedAffinity>
-7.48934

$$$$
1PPH_0ZG_E_1


 34 36  0  0  0  0  0  0  0  0999 V2000
   -3.6123    3.7268   21.9935 C   0  0  0  0  0  0  0  0  0  0  0  0
   -1.6201    2.2551   21.5758 N   0  0  0  0  0  0  0  0  0  0  0  0
   -2.3887    1.3709   20.6933 C   0  0  0  0  0  0  0  0  0  0  0  0
   -2.2143   -0.0263   21.2456 C   0  0  0  0  0  0  0  0  0  0  0  0
   -0.7351   -0.3509   21.3888 C   0  0  0  0  0  0  0  0  0  0  0  0
   -0.0374    0.6509   22.2697 C   0  0  0  0  0  0  0  0  0  0  0  0
   -0.1942    1.9795   21.5839 C   0  0  0  0  0  0  0  0  0  0  0  0
   -2.1222    3.3606   22.1577 C   0  0  0  0  0  0  0  0  0  0  0  0
   -1.3889    4.1354   22.7955 O   0  0  0  0  0  0  0  0  0  0  0  0
   -4.0705    4.6750   23.0089 N   0  0  0  0  0  0  0  0  0  0  0  0
   -4.8196    5.2226   22.5854 H   0  0  0  0  0  0  0  0  0  0  0  0
   -4.6570    4.1025   24.4848 S   0  0  0  0  0  0  0  0  0  0  0  0
   -6.1293    4.4773   24.5550 O   0  0  0  0  0  0  0  0  0  0  0  0
   -4.4174    2.5989   24.5392 O   0  0  0  0  0  0  0  0  0  0  0  0
   -3.8545    4.9409   25.8647 C   0  0  0  0  0  0  0  0  0  0  0  0
   -2.4926    4.7265   26.0059 C   0  0  0  0  0  0  0  0  0  0  0  0
   -1.8336    5.1973   27.1145 C   0  0  0  0  0  0  0  0  0  0  0  0
   -2.5505    5.8869   28.0741 C   0  0  0  0  0  0  0  0  0  0  0  0
   -3.9143    6.1404   27.9214 C   0  0  0  0  0  0  0  0  0  0  0  0
   -4.5752    5.6666   26.8003 C   0  0  0  0  0  0  0  0  0  0  0  0
   -1.8029    6.3605   29.3233 C   0  0  0  0  0  0  0  0  0  0  0  0
   -3.8847    4.3123   20.5961 C   0  0  0  0  0  0  0  0  0  0  0  0
   -3.0490    5.5335   20.1934 C   0  0  0  0  0  0  0  0  0  0  0  0
   -3.5944    6.8020   20.1782 C   0  0  0  0  0  0  0  0  0  0  0  0
   -1.7340    5.3846   19.7944 C   0  0  0  0  0  0  0  0  0  0  0  0
   -2.9151    7.9395   19.7861 C   0  0  0  0  0  0  0  0  0  0  0  0
   -1.0249    6.4953   19.4034 C   0  0  0  0  0  0  0  0  0  0  0  0
   -1.5876    7.7558   19.3930 C   0  0  0  0  0  0  0  0  0  0  0  0
   -3.5203    9.2074   19.7610 C   0  0  0  0  0  0  0  0  0  0  0  0
   -4.8606    9.2956   19.8353 N   0  0  0  0  0  0  0  0  0  0  0  0
   -2.7634   10.3159   19.6419 N   0  0  0  0  0  0  0  0  0  0  0  0
   -5.4037    8.4791   19.9221 H   0  0  0  0  0  0  0  0  0  0  0  0
   -1.7834   10.2394   19.5885 H   0  0  0  0  0  0  0  0  0  0  0  0
   -3.1906   11.2023   19.6084 H   0  0  0  0  0  0  0  0  0  0  0  0
 12 13  2  0  0  0
 12 15  1  0  0  0
 15 16  2  0  0  0
 15 20  1  0  0  0
 16 17  1  0  0  0
 17 18  2  0  0  0
 18 19  1  0  0  0
 18 21  1  0  0  0
 19 20  2  0  0  0
  2  3  1  0  0  0
  2  7  1  0  0  0
  3  4  1  0  0  0
  4  5  1  0  0  0
  5  6  1  0  0  0
  6  7  1  0  0  0
 10  1  1  0  0  0
  1  8  1  0  0  0
  1 22  1  0  0  0
  8  9  2  0  0  0
 22 23  1  0  0  0
 23 24  2  0  0  0
 23 25  1  0  0  0
 24 26  1  0  0  0
 25 27  2  0  0  0
 26 28  2  0  0  0
 26 29  1  0  0  0
 27 28  1  0  0  0
 29 30  2  0  0  0
 29 31  1  0  0  0
 12 10  1  0  0  0
  2  8  1  0  0  0
 12 14  2  0  0  0
 10 11  1  0  0  0
 30 32  1  0  0  0
 31 33  1  0  0  0
 31 34  1  0  0  0
M  END
> <minimizedAffinity>
-7.38423

$$$$
1PPH_0ZG_E_1


 34 36  0  0  0  0  0  0  0  0999 V2000
   -3.0816    3.9413   21.7098 C   0  0  0  0  0  0  0  0  0  0  0  0
   -3.0663    5.9856   20.2505 N   0  0  0  0  0  0  0  0  0  0  0  0
   -1.7847    5.6108   19.6438 C   0  0  0  0  0  0  0  0  0  0  0  0
   -0.8694    6.8003   19.8306 C   0  0  0  0  0  0  0  0  0  0  0  0
   -1.5254    8.0566   19.2780 C   0  0  0  0  0  0  0  0  0  0  0  0
   -2.8565    8.3126   19.9327 C   0  0  0  0  0  0  0  0  0  0  0  0
   -3.7098    7.1182   19.6082 C   0  0  0  0  0  0  0  0  0  0  0  0
   -3.7144    5.2388   21.1644 C   0  0  0  0  0  0  0  0  0  0  0  0
   -4.8545    5.5491   21.5500 O   0  0  0  0  0  0  0  0  0  0  0  0
   -3.3027    3.7718   23.1459 N   0  0  0  0  0  0  0  0  0  0  0  0
   -3.9359    2.9798   23.2561 H   0  0  0  0  0  0  0  0  0  0  0  0
   -1.9884    3.4936   24.1682 S   0  0  0  0  0  0  0  0  0  0  0  0
   -1.9277    1.9946   24.4183 O   0  0  0  0  0  0  0  0  0  0  0  0
   -0.7374    4.0400   23.4916 O   0  0  0  0  0  0  0  0  0  0  0  0
   -2.2497    4.2653   25.7766 C   0  0  0  0  0  0  0  0  0  0  0  0
   -3.1918    5.2806   25.8253 C   0  0  0  0  0  0  0  0  0  0  0  0
   -3.3417    6.0255   26.9688 C   0  0  0  0  0  0  0  0  0  0  0  0
   -2.5437    5.7399   28.0605 C   0  0  0  0  0  0  0  0  0  0  0  0
   -1.6195    4.6946   28.0329 C   0  0  0  0  0  0  0  0  0  0  0  0
   -1.4731    3.9433   26.8787 C   0  0  0  0  0  0  0  0  0  0  0  0
   -2.6965    6.6149   29.3074 C   0  0  0  0  0  0  0  0  0  0  0  0
   -3.6256    2.7083   20.9659 C   0  0  0  0  0  0  0  0  0  0  0  0
   -2.6733    1.5129   20.8395 C   0  0  0  0  0  0  0  0  0  0  0  0
   -1.4935    1.6084   20.1281 C   0  0  0  0  0  0  0  0  0  0  0  0
   -2.9972    0.2934   21.4038 C   0  0  0  0  0  0  0  0  0  0  0  0
   -0.6104    0.5631   19.9365 C   0  0  0  0  0  0  0  0  0  0  0  0
   -2.1391   -0.7677   21.2390 C   0  0  0  0  0  0  0  0  0  0  0  0
   -0.9645   -0.6539   20.5229 C   0  0  0  0  0  0  0  0  0  0  0  0
    0.5666    0.7002   19.1812 C   0  0  0  0  0  0  0  0  0  0  0  0
    0.5047    0.5781   17.8429 N   0  0  0  0  0  0  0  0  0  0  0  0
    1.7429    0.9291   19.7975 N   0  0  0  0  0  0  0  0  0  0  0  0
   -0.3602    0.4109   17.4033 H   0  0  0  0  0  0  0  0  0  0  0  0
    1.7763    1.0167   20.7775 H   0  0  0  0  0  0  0  0  0  0  0  0
    2.5688    1.0088   19.2677 H   0  0  0  0  0  0  0  0  0  0  0  0
 12 13  2  0  0  0
 12 15  1  0  0  0
 15 16  2  0  0  0
 15 20  1  0  0  0
 16 17  1  0  0  0
 17 18  2  0  0  0
 18 19  1  0  0  0
 18 21  1  0  0  0
 19 20  2  0  0  0
  2  3  1  0  0  0
  2  7  1  0  0  0
  3  4  1  0  0  0
  4  5  1  0  0  0
  5  6  1  0  0  0
  6  7  1  0  0  0
 10  1  1  0  0  0
  1  8  1  0  0  0
  1 22  1  0  0  0
  8  9  2  0  0  0
 22 23  1  0  0  0
 23 24  2  0  0  0
 23 25  1  0  0  0
 24 26  1  0  0  0
 25 27  2  0  0  0
 26 28  2  0  0  0
 26 29  1  0  0  0
 27 28  1  0  0  0
 29 30  2  0  0  0
 29 31  1  0  0  0
 12 10  1  0  0  0
  2  8  1  0  0  0
 12 14  2  0  0  0
 10 11  1  0  0  0
 30 32  1  0  0  0
 31 33  1  0  0  0
 31 34  1  0  0  0
M  END
> <minimizedAffinity>
-7.15995

$$$$
1PPH_0ZG_E_1


 34 36  0  0  0  0  0  0  0  0999 V2000
   -4.5337    3.9899   21.5978 C   0  0  0  0  0  0  0  0  0  0  0  0
   -6.8696    3.3232   20.9587 N   0  0  0  0  0  0  0  0  0  0  0  0
   -6.3826    2.2839   20.0456 C   0  0  0  0  0  0  0  0  0  0  0  0
   -7.0275    2.5668   18.7071 C   0  0  0  0  0  0  0  0  0  0  0  0
   -8.5376    2.6608   18.8639 C   0  0  0  0  0  0  0  0  0  0  0  0
   -8.9196    3.7199   19.8632 C   0  0  0  0  0  0  0  0  0  0  0  0
   -8.3065    3.2931   21.1678 C   0  0  0  0  0  0  0  0  0  0  0  0
   -6.0687    4.0968   21.7157 C   0  0  0  0  0  0  0  0  0  0  0  0
   -6.5449    4.8751   22.5597 O   0  0  0  0  0  0  0  0  0  0  0  0
   -4.0390    2.6537   21.9290 N   0  0  0  0  0  0  0  0  0  0  0  0
   -3.0588    2.6234   21.6485 H   0  0  0  0  0  0  0  0  0  0  0  0
   -4.1084    2.1071   23.5248 S   0  0  0  0  0  0  0  0  0  0  0  0
   -5.5759    1.8829   23.8558 O   0  0  0  0  0  0  0  0  0  0  0  0
   -3.2696    0.8395   23.6288 O   0  0  0  0  0  0  0  0  0  0  0  0
   -3.5198    3.3738   24.6649 C   0  0  0  0  0  0  0  0  0  0  0  0
   -2.1698    3.3406   24.9766 C   0  0  0  0  0  0  0  0  0  0  0  0
   -1.6687    4.1661   25.9526 C   0  0  0  0  0  0  0  0  0  0  0  0
   -2.5311    5.0255   26.6069 C   0  0  0  0  0  0  0  0  0  0  0  0
   -3.8843    5.0926   26.2727 C   0  0  0  0  0  0  0  0  0  0  0  0
   -4.3856    4.2606   25.2856 C   0  0  0  0  0  0  0  0  0  0  0  0
   -1.9577    5.9019   27.7235 C   0  0  0  0  0  0  0  0  0  0  0  0
   -4.0627    4.3662   20.1814 C   0  0  0  0  0  0  0  0  0  0  0  0
   -3.1753    5.6117   20.0662 C   0  0  0  0  0  0  0  0  0  0  0  0
   -3.7232    6.8741   19.9502 C   0  0  0  0  0  0  0  0  0  0  0  0
   -1.7986    5.4933   20.0341 C   0  0  0  0  0  0  0  0  0  0  0  0
   -2.9875    8.0338   19.7996 C   0  0  0  0  0  0  0  0  0  0  0  0
   -1.0340    6.6267   19.8916 C   0  0  0  0  0  0  0  0  0  0  0  0
   -1.5996    7.8805   19.7753 C   0  0  0  0  0  0  0  0  0  0  0  0
   -3.5902    9.2952   19.6580 C   0  0  0  0  0  0  0  0  0  0  0  0
   -2.8721   10.3112   19.1463 N   0  0  0  0  0  0  0  0  0  0  0  0
   -4.8649    9.4838   20.0521 N   0  0  0  0  0  0  0  0  0  0  0  0
   -1.9415   10.1620   18.8616 H   0  0  0  0  0  0  0  0  0  0  0  0
   -5.3810    8.7330   20.4251 H   0  0  0  0  0  0  0  0  0  0  0  0
   -5.2802   10.3724   19.9669 H   0  0  0  0  0  0  0  0  0  0  0  0
 12 13  2  0  0  0
 12 15  1  0  0  0
 15 16  2  0  0  0
 15 20  1  0  0  0
 16 17  1  0  0  0
 17 18  2  0  0  0
 18 19  1  0  0  0
 18 21  1  0  0  0
 19 20  2  0  0  0
  2  3  1  0  0  0
  2  7  1  0  0  0
  3  4  1  0  0  0
  4  5  1  0  0  0
  5  6  1  0  0  0
  6  7  1  0  0  0
 10  1  1  0  0  0
  1  8  1  0  0  0
  1 22  1  0  0  0
  8  9  2  0  0  0
 22 23  1  0  0  0
 23 24  2  0  0  0
 23 25  1  0  0  0
 24 26  1  0  0  0
 25 27  2  0  0  0
 26 28  2  0  0  0
 26 29  1  0  0  0
 27 28  1  0  0  0
 29 30  2  0  0  0
 29 31  1  0  0  0
 12 10  1  0  0  0
  2  8  1  0  0  0
 12 14  2  0  0  0
 10 11  1  0  0  0
 30 32  1  0  0  0
 31 33  1  0  0  0
 31 34  1  0  0  0
M  END
> <minimizedAffinity>
-7.13905

$$$$
1PPH_0ZG_E_1


 34 36  0  0  0  0  0  0  0  0999 V2000
   -3.0464    3.8594   21.8687 C   0  0  0  0  0  0  0  0  0  0  0  0
   -3.0688    5.8402   20.3243 N   0  0  0  0  0  0  0  0  0  0  0  0
   -1.7822    5.4617   19.7304 C   0  0  0  0  0  0  0  0  0  0  0  0
   -0.8868    6.6733   19.8642 C   0  0  0  0  0  0  0  0  0  0  0  0
   -1.5651    7.8938   19.2609 C   0  0  0  0  0  0  0  0  0  0  0  0
   -2.8991    8.1549   19.9079 C   0  0  0  0  0  0  0  0  0  0  0  0
   -3.7327    6.9336   19.6365 C   0  0  0  0  0  0  0  0  0  0  0  0
   -3.7022    5.1218   21.2707 C   0  0  0  0  0  0  0  0  0  0  0  0
   -4.8466    5.4290   21.6461 O   0  0  0  0  0  0  0  0  0  0  0  0
   -3.1157    3.8316   23.3296 N   0  0  0  0  0  0  0  0  0  0  0  0
   -3.7432    3.0678   23.5813 H   0  0  0  0  0  0  0  0  0  0  0  0
   -1.7037    3.6220   24.2309 S   0  0  0  0  0  0  0  0  0  0  0  0
   -0.6363    4.5017   23.5982 O   0  0  0  0  0  0  0  0  0  0  0  0
   -2.0055    3.9918   25.6778 O   0  0  0  0  0  0  0  0  0  0  0  0
   -1.1042    1.9265   24.1027 C   0  0  0  0  0  0  0  0  0  0  0  0
   -1.8914    0.9501   24.6924 C   0  0  0  0  0  0  0  0  0  0  0  0
   -1.4352   -0.3420   24.7785 C   0  0  0  0  0  0  0  0  0  0  0  0
   -0.1884   -0.6449   24.2646 C   0  0  0  0  0  0  0  0  0  0  0  0
    0.5943    0.3238   23.6349 C   0  0  0  0  0  0  0  0  0  0  0  0
    0.1296    1.6255   23.5473 C   0  0  0  0  0  0  0  0  0  0  0  0
    0.3179   -2.0819   24.4148 C   0  0  0  0  0  0  0  0  0  0  0  0
   -3.6974    2.5823   21.3076 C   0  0  0  0  0  0  0  0  0  0  0  0
   -2.7602    1.3963   21.0484 C   0  0  0  0  0  0  0  0  0  0  0  0
   -1.5586    1.5630   20.3886 C   0  0  0  0  0  0  0  0  0  0  0  0
   -3.1194    0.1190   21.4357 C   0  0  0  0  0  0  0  0  0  0  0  0
   -0.6864    0.5358   20.0831 C   0  0  0  0  0  0  0  0  0  0  0  0
   -2.2733   -0.9270   21.1540 C   0  0  0  0  0  0  0  0  0  0  0  0
   -1.0764   -0.7414   20.4917 C   0  0  0  0  0  0  0  0  0  0  0  0
    0.5143    0.7496   19.3853 C   0  0  0  0  0  0  0  0  0  0  0  0
    0.4766    1.3611   18.1876 N   0  0  0  0  0  0  0  0  0  0  0  0
    1.6832    0.3255   19.9046 N   0  0  0  0  0  0  0  0  0  0  0  0
   -0.3831    1.6669   17.8178 H   0  0  0  0  0  0  0  0  0  0  0  0
    1.6989   -0.1208   20.7820 H   0  0  0  0  0  0  0  0  0  0  0  0
    2.5214    0.4619   19.4066 H   0  0  0  0  0  0  0  0  0  0  0  0
 12 13  2  0  0  0
 12 15  1  0  0  0
 15 16  2  0  0  0
 15 20  1  0  0  0
 16 17  1  0  0  0
 17 18  2  0  0  0
 18 19  1  0  0  0
 18 21  1  0  0  0
 19 20  2  0  0  0
  2  3  1  0  0  0
  2  7  1  0  0  0
  3  4  1  0  0  0
  4  5  1  0  0  0
  5  6  1  0  0  0
  6  7  1  0  0  0
 10  1  1  0  0  0
  1  8  1  0  0  0
  1 22  1  0  0  0
  8  9  2  0  0  0
 22 23  1  0  0  0
 23 24  2  0  0  0
 23 25  1  0  0  0
 24 26  1  0  0  0
 25 27  2  0  0  0
 26 28  2  0  0  0
 26 29  1  0  0  0
 27 28  1  0  0  0
 29 30  2  0  0  0
 29 31  1  0  0  0
 12 10  1  0  0  0
  2  8  1  0  0  0
 12 14  2  0  0  0
 10 11  1  0  0  0
 30 32  1  0  0  0
 31 33  1  0  0  0
 31 34  1  0  0  0
M  END
> <minimizedAffinity>
-7.08840

$$$$
1PPH_0ZG_E_1


 34 36  0  0  0  0  0  0  0  0999 V2000
   -0.8268    2.5496   20.8430 C   0  0  0  0  0  0  0  0  0  0  0  0
   -0.8902    0.0937   20.3197 N   0  0  0  0  0  0  0  0  0  0  0  0
   -2.1992   -0.0658   20.9618 C   0  0  0  0  0  0  0  0  0  0  0  0
   -2.0340   -1.1719   21.9800 C   0  0  0  0  0  0  0  0  0  0  0  0
   -1.4635   -2.4147   21.3138 C   0  0  0  0  0  0  0  0  0  0  0  0
   -0.1487   -2.1213   20.6419 C   0  0  0  0  0  0  0  0  0  0  0  0
   -0.4455   -1.0838   19.5952 C   0  0  0  0  0  0  0  0  0  0  0  0
   -0.2452    1.2701   20.2057 C   0  0  0  0  0  0  0  0  0  0  0  0
    0.8028    1.3620   19.5439 O   0  0  0  0  0  0  0  0  0  0  0  0
    0.0635    3.1273   21.8499 N   0  0  0  0  0  0  0  0  0  0  0  0
   -0.0180    4.1409   21.7699 H   0  0  0  0  0  0  0  0  0  0  0  0
   -0.1565    2.7458   23.4796 S   0  0  0  0  0  0  0  0  0  0  0  0
   -0.0498    1.2335   23.6018 O   0  0  0  0  0  0  0  0  0  0  0  0
    0.9003    3.4889   24.2874 O   0  0  0  0  0  0  0  0  0  0  0  0
   -1.8191    3.1820   24.0238 C   0  0  0  0  0  0  0  0  0  0  0  0
   -2.7841    2.1945   23.9030 C   0  0  0  0  0  0  0  0  0  0  0  0
   -4.1031    2.4885   24.1456 C   0  0  0  0  0  0  0  0  0  0  0  0
   -4.4427    3.7766   24.5140 C   0  0  0  0  0  0  0  0  0  0  0  0
   -3.4730    4.7672   24.6752 C   0  0  0  0  0  0  0  0  0  0  0  0
   -2.1431    4.4662   24.4326 C   0  0  0  0  0  0  0  0  0  0  0  0
   -5.9248    4.0913   24.7329 C   0  0  0  0  0  0  0  0  0  0  0  0
   -1.1313    3.6101   19.7697 C   0  0  0  0  0  0  0  0  0  0  0  0
   -2.2210    4.6335   20.1118 C   0  0  0  0  0  0  0  0  0  0  0  0
   -2.0932    5.9622   19.7581 C   0  0  0  0  0  0  0  0  0  0  0  0
   -3.3436    4.2535   20.8230 C   0  0  0  0  0  0  0  0  0  0  0  0
   -3.0125    6.9453   20.0703 C   0  0  0  0  0  0  0  0  0  0  0  0
   -4.2829    5.2037   21.1462 C   0  0  0  0  0  0  0  0  0  0  0  0
   -4.1372    6.5281   20.7854 C   0  0  0  0  0  0  0  0  0  0  0  0
   -2.8268    8.2914   19.7123 C   0  0  0  0  0  0  0  0  0  0  0  0
   -3.8868    9.1197   19.7035 N   0  0  0  0  0  0  0  0  0  0  0  0
   -1.6038    8.7355   19.3619 N   0  0  0  0  0  0  0  0  0  0  0  0
   -4.7758    8.7843   19.9614 H   0  0  0  0  0  0  0  0  0  0  0  0
   -0.8351    8.1204   19.3719 H   0  0  0  0  0  0  0  0  0  0  0  0
   -1.4789    9.6751   19.0958 H   0  0  0  0  0  0  0  0  0  0  0  0
 12 13  2  0  0  0
 12 15  1  0  0  0
 15 16  2  0  0  0
 15 20  1  0  0  0
 16 17  1  0  0  0
 17 18  2  0  0  0
 18 19  1  0  0  0
 18 21  1  0  0  0
 19 20  2  0  0  0
  2  3  1  0  0  0
  2  7  1  0  0  0
  3  4  1  0  0  0
  4  5  1  0  0  0
  5  6  1  0  0  0
  6  7  1  0  0  0
 10  1  1  0  0  0
  1  8  1  0  0  0
  1 22  1  0  0  0
  8  9  2  0  0  0
 22 23  1  0  0  0
 23 24  2  0  0  0
 23 25  1  0  0  0
 24 26  1  0  0  0
 25 27  2  0  0  0
 26 28  2  0  0  0
 26 29  1  0  0  0
 27 28  1  0  0  0
 29 30  2  0  0  0
 29 31  1  0  0  0
 12 10  1  0  0  0
  2  8  1  0  0  0
 12 14  2  0  0  0
 10 11  1  0  0  0
 30 32  1  0  0  0
 31 33  1  0  0  0
 31 34  1  0  0  0
M  END
> <minimizedAffinity>
-6.98856

$$$$
