5OP5_3FE_A_301
  RCSB PDB12061719193D
Coordinates from PDB:5OP5:A:301 Model:1 without hydrogens
 23 26  0  0  0  0            999 V2000
    4.1470   -1.7160   20.2460   N 0  0  0  0  0  0  0  0  0  0  0  0
    8.0950   -4.5060   16.8190   C 0  0  0  0  0  0  0  0  0  0  0  0
    2.8320   -3.4320   19.5530   N 0  0  0  0  0  0  0  0  0  0  0  0
    6.2950   -3.3740   18.1030   C 0  0  0  0  0  0  0  0  0  0  0  0
    5.8540   -4.5800   16.0280   C 0  0  0  0  0  0  0  0  0  0  0  0
    5.1880   -2.1410   19.5330   C 0  0  0  0  0  0  0  0  0  0  0  0
    2.0870   -5.3590   17.8870   C 0  0  0  0  0  0  0  0  0  0  0  0
    7.1060   -2.3280   18.5460   C 0  0  0  0  0  0  0  0  0  0  0  0
   11.0560   -5.7140   15.5820   N 0  0  0  0  0  0  0  0  0  0  0  0
    4.5390   -6.0590   17.9610   C 0  0  0  0  0  0  0  0  0  0  0  0
    6.2900   -5.3350   14.9150   C 0  0  0  0  0  0  0  0  0  0  0  0
    7.6400   -5.6660   14.7530   C 0  0  0  0  0  0  0  0  0  0  0  0
    8.5430   -5.2500   15.7220   C 0  0  0  0  0  0  0  0  0  0  0  0
    6.7680   -4.2520   17.0270   C 0  0  0  0  0  0  0  0  0  0  0  0
    6.3980   -1.6130   19.4030   N 0  0  0  0  0  0  0  0  0  0  0  0
    5.0540   -3.2470   18.7210   C 0  0  0  0  0  0  0  0  0  0  0  0
    3.8140   -3.8850   18.7490   C 0  0  0  0  0  0  0  0  0  0  0  0
    2.9790   -2.3380   20.2970   C 0  0  0  0  0  0  0  0  0  0  0  0
    3.4950   -5.0230   18.0810   N 0  0  0  0  0  0  0  0  0  0  0  0
    1.9830   -6.4150   16.7690   C 0  0  0  0  0  0  0  0  0  0  0  0
    2.8020   -7.5060   16.9470   O 0  0  0  0  0  0  0  0  0  0  0  0
    4.1880   -7.2060   17.0090   C 0  0  0  0  0  0  0  0  0  0  0  0
    9.9310   -5.5290   15.6200   C 0  0  0  0  0  0  0  0  0  0  0  0
  9 23  3  0  0  0  0
 23 13  1  0  0  0  0
 13 12  2  0  0  0  0
 13  2  1  0  0  0  0
 12 11  1  0  0  0  0
  2 14  2  0  0  0  0
 11  5  2  0  0  0  0
 20 21  1  0  0  0  0
 20  7  1  0  0  0  0
 14  5  1  0  0  0  0
 14  4  1  0  0  0  0
 21 22  1  0  0  0  0
  7 19  1  0  0  0  0
  4  8  2  0  0  0  0
  4 16  1  0  0  0  0
  8 15  1  0  0  0  0
 22 10  1  0  0  0  0
 19 10  1  0  0  0  0
 19 17  1  0  0  0  0
 16 17  2  0  0  0  0
 16  6  1  0  0  0  0
 15  6  1  0  0  0  0
 17  3  1  0  0  0  0
  6  1  2  0  0  0  0
  3 18  2  0  0  0  0
  1 18  1  0  0  0  0
A    1
N3
A    2
C4
A    3
N2
A    4
C7
A    5
C6
A    6
C9
A    7
C13
A    8
C8
A    9
N5
A   10
C16
A   11
C1
A   12
C2
A   13
C3
A   14
C5
A   15
N1
A   16
C10
A   17
C11
A   18
C12
A   19
N4
A   20
C14
A   21
O1
A   22
C15
A   23
C17
M  END
>  <InstanceId>
5OP5_3FE_A_301

>  <ChemCompId>
3FE

>  <PdbId>
5OP5

>  <ChainId>
A

>  <ResidueNumber>
301

>  <InsertionCode>


>  <Model>
1

>  <AltIds>


>  <MissingHeavyAtoms>
0

>  <ObservedFormula>
C17 N5 O

>  <Name>
3-[4-(morpholin-4-yl)-7H-pyrrolo[2,3-d]pyrimidin-5-yl]benzonitrile

>  <SystematicName>
3-(4-morpholin-4-yl-7H-pyrrolo[2,3-d]pyrimidin-5-yl)benzenecarbonitrile

>  <Synonyms>


>  <Type>
NON-POLYMER

>  <Formula>
C17 H15 N5 O

>  <MolecularWeight>
305.334

>  <ModifiedDate>
2015-03-13

>  <Parent>


>  <OneLetterCode>


>  <SubcomponentList>


>  <AmbiguousFlag>
N

>  <InChI>
InChI=1S/C17H15N5O/c18-9-12-2-1-3-13(8-12)14-10-19-16-15(14)17(21-11-20-16)22-4-6-23-7-5-22/h1-3,8,10-11H,4-7H2,(H,19,20,21)

>  <InChIKey>
BHTWDJBVZQBRKP-UHFFFAOYSA-N

>  <SMILES>
c1cc(cc(c1)c2c[nH]c3c2c(ncn3)N4CCOCC4)C#N

$$$$
