4NNR_FK5_A_201
  RCSB PDB12061713553D
Coordinates from PDB:4NNR:A:201 Model:1 without hydrogens
 57 60  0  0  0  0            999 V2000
   19.6430   32.8710    8.8290   C 0  0  0  0  0  0  0  0  0  0  0  0
   18.2570   32.5570    9.3250   C 0  0  0  0  0  0  0  0  0  0  0  0
   17.3360   32.4120    8.1180   C 0  0  0  0  0  0  0  0  0  0  0  0
   16.9890   33.7310    7.4870   C 0  0  0  0  0  0  0  0  0  0  0  0
   16.3970   34.7020    8.4950   C 0  0  0  0  0  0  0  0  0  0  0  0
   17.2720   34.8560    9.7260   C 0  0  0  0  0  0  0  0  0  0  0  0
   17.5350   33.2240   11.5450   C 0  0  0  0  0  0  0  0  0  0  0  0
   16.9740   34.1170   12.4130   C 0  0  0  0  0  0  0  0  0  0  0  0
   17.7890   35.1120   13.2100   C 0  0  0  0  0  0  0  0  0  0  0  0
   19.0970   34.5010   13.6960   C 0  0  0  0  0  0  0  0  0  0  0  0
   19.9880   35.6290   14.2530   C 0  0  0  0  0  0  0  0  0  0  0  0
   20.1300   36.7240   13.2080   C 0  0  0  0  0  0  0  0  0  0  0  0
   18.7450   37.2790   12.9210   C 0  0  0  0  0  0  0  0  0  0  0  0
   18.6890   38.4930   11.9820   C 0  0  0  0  0  0  0  0  0  0  0  0
   19.5150   38.3700   10.6830   C 0  0  0  0  0  0  0  0  0  0  0  0
   19.3050   39.5640    9.7370   C 0  0  0  0  0  0  0  0  0  0  0  0
   20.2630   40.7340   10.0420   C 0  0  0  0  0  0  0  0  0  0  0  0
   21.6460   40.4330    9.4950   C 0  0  0  0  0  0  0  0  0  0  0  0
   22.6700   39.8760   10.3790   C 0  0  0  0  0  0  0  0  0  0  0  0
   23.9950   39.3620    9.9190   C 0  0  0  0  0  0  0  0  0  0  0  0
   23.8240   37.9460    9.4940   C 0  0  0  0  0  0  0  0  0  0  0  0
   23.5680   37.5580    8.0720   C 0  0  0  0  0  0  0  0  0  0  0  0
   23.2190   36.0750    8.0250   C 0  0  0  0  0  0  0  0  0  0  0  0
   21.8380   35.6670    8.6240   C 0  0  0  0  0  0  0  0  0  0  0  0
   21.5570   34.1490    8.5930   C 0  0  0  0  0  0  0  0  0  0  0  0
   22.6140   33.4740    9.3980   C 0  0  0  0  0  0  0  0  0  0  0  0
   23.5280   32.5510    8.7550   C 0  0  0  0  0  0  0  0  0  0  0  0
   24.6690   31.9270    9.5170   C 0  0  0  0  0  0  0  0  0  0  0  0
   24.6130   30.4010    9.3480   C 0  0  0  0  0  0  0  0  0  0  0  0
   25.8290   29.7650   10.0010   C 0  0  0  0  0  0  0  0  0  0  0  0
   27.0590   30.2730    9.2400   C 0  0  0  0  0  0  0  0  0  0  0  0
   27.1930   31.7840    9.4530   C 0  0  0  0  0  0  0  0  0  0  0  0
   25.9550   32.5360    8.9780   C 0  0  0  0  0  0  0  0  0  0  0  0
   18.9030   33.4160   14.7400   C 0  0  0  0  0  0  0  0  0  0  0  0
   17.8460   40.0410    9.8090   C 0  0  0  0  0  0  0  0  0  0  0  0
   21.9330   40.7190    8.0550   C 0  0  0  0  0  0  0  0  0  0  0  0
   24.9810   39.2780   11.0930   C 0  0  0  0  0  0  0  0  0  0  0  0
   25.4620   40.6480   11.4910   C 0  0  0  0  0  0  0  0  0  0  0  0
   26.8360   41.0450   11.1860   C 0  0  0  0  0  0  0  0  0  0  0  0
   20.6350   36.3690    7.9870   C 0  0  0  0  0  0  0  0  0  0  0  0
   22.7060   33.7730   10.8560   C 0  0  0  0  0  0  0  0  0  0  0  0
   22.3320   37.1310   13.7480   C 0  0  0  0  0  0  0  0  0  0  0  0
   18.0340   40.2590   13.3870   C 0  0  0  0  0  0  0  0  0  0  0  0
   25.4650   27.7910    8.7800   C 0  0  0  0  0  0  0  0  0  0  0  0
   17.6950   33.5480   10.2510   N 0  0  0  0  0  0  0  0  0  0  0  0
   20.2950   33.8880    9.1880   O 0  0  0  0  0  0  0  0  0  0  0  0
   20.1780   31.9580    7.9400   O 0  0  0  0  0  0  0  0  0  0  0  0
   17.8770   31.9670   12.0460   O 0  0  0  0  0  0  0  0  0  0  0  0
   15.6000   34.1250   12.5060   O 0  0  0  0  0  0  0  0  0  0  0  0
   18.0190   36.2150   12.3400   O 0  0  0  0  0  0  0  0  0  0  0  0
   17.0330   35.5660   14.3550   O 0  0  0  0  0  0  0  0  0  0  0  0
   21.0410   37.7000   13.6500   O 0  0  0  0  0  0  0  0  0  0  0  0
   19.0920   39.6430   12.7000   O 0  0  0  0  0  0  0  0  0  0  0  0
   23.9030   36.9400   10.4620   O 0  0  0  0  0  0  0  0  0  0  0  0
   23.2690   35.8460    6.6420   O 0  0  0  0  0  0  0  0  0  0  0  0
   25.6900   28.3550   10.0580   O 0  0  0  0  0  0  0  0  0  0  0  0
   28.2630   29.6740    9.6640   O 0  0  0  0  0  0  0  0  0  0  0  0
  1  2  1  0  0  0  0
  1 46  1  0  0  0  0
  1 47  2  0  0  0  0
  2  3  1  0  0  0  0
  2 45  1  0  0  0  0
  3  4  1  0  0  0  0
  4  5  1  0  0  0  0
  5  6  1  0  0  0  0
  6 45  1  0  0  0  0
  7  8  1  0  0  0  0
  7 45  1  0  0  0  0
  7 48  2  0  0  0  0
  8  9  1  0  0  0  0
  8 49  2  0  0  0  0
  9 10  1  0  0  0  0
  9 50  1  0  0  0  0
  9 51  1  0  0  0  0
 10 11  1  0  0  0  0
 10 34  1  0  0  0  0
 11 12  1  0  0  0  0
 12 13  1  0  0  0  0
 12 52  1  0  0  0  0
 13 14  1  0  0  0  0
 13 50  1  0  0  0  0
 14 15  1  0  0  0  0
 14 53  1  0  0  0  0
 15 16  1  0  0  0  0
 16 17  1  0  0  0  0
 16 35  1  0  0  0  0
 17 18  1  0  0  0  0
 18 19  2  0  0  0  0
 18 36  1  0  0  0  0
 19 20  1  0  0  0  0
 20 21  1  0  0  0  0
 20 37  1  0  0  0  0
 21 22  1  0  0  0  0
 21 54  2  0  0  0  0
 22 23  1  0  0  0  0
 23 24  1  0  0  0  0
 23 55  1  0  0  0  0
 24 25  1  0  0  0  0
 24 40  1  0  0  0  0
 25 26  1  0  0  0  0
 25 46  1  0  0  0  0
 26 27  2  0  0  0  0
 26 41  1  0  0  0  0
 27 28  1  0  0  0  0
 28 29  1  0  0  0  0
 28 33  1  0  0  0  0
 29 30  1  0  0  0  0
 30 31  1  0  0  0  0
 30 56  1  0  0  0  0
 31 32  1  0  0  0  0
 31 57  1  0  0  0  0
 32 33  1  0  0  0  0
 37 38  1  0  0  0  0
 38 39  2  0  0  0  0
 42 52  1  0  0  0  0
 43 53  1  0  0  0  0
 44 56  1  0  0  0  0
A    1
C1
A    2
C2
A    3
C3
A    4
C4
A    5
C5
A    6
C6
A    7
C8
A    8
C9
A    9
C10
A   10
C11
A   11
C12
A   12
C13
A   13
C14
A   14
C15
A   15
C16
A   16
C17
A   17
C18
A   18
C19
A   19
C20
A   20
C21
A   21
C22
A   22
C23
A   23
C24
A   24
C25
A   25
C26
A   26
C27
A   27
C28
A   28
C29
A   29
C30
A   30
C31
A   31
C32
A   32
C33
A   33
C34
A   34
C35
A   35
C36
A   36
C37
A   37
C38
A   38
C39
A   39
C40
A   40
C41
A   41
C42
A   42
C43
A   43
C44
A   44
C45
A   45
N7
A   46
O1
A   47
O2
A   48
O3
A   49
O4
A   50
O5
A   51
O6
A   52
O7
A   53
O8
A   54
O9
A   55
O10
A   56
O11
A   57
O12
M  END
>  <InstanceId>
4NNR_FK5_A_201

>  <ChemCompId>
FK5

>  <PdbId>
4NNR

>  <ChainId>
A

>  <ResidueNumber>
201

>  <InsertionCode>


>  <Model>
1

>  <AltIds>


>  <MissingHeavyAtoms>
0

>  <ObservedFormula>
C44 N O12

>  <Name>
8-DEETHYL-8-[BUT-3-ENYL]-ASCOMYCIN

>  <SystematicName>


>  <Synonyms>
K506

>  <Type>
NON-POLYMER

>  <Formula>
C44 H69 N O12

>  <MolecularWeight>
804.018

>  <ModifiedDate>
2011-06-04

>  <Parent>


>  <OneLetterCode>


>  <SubcomponentList>


>  <AmbiguousFlag>
N

>  <InChI>
InChI=1S/C44H69NO12/c1-10-13-31-19-25(2)18-26(3)20-37(54-8)40-38(55-9)22-28(5)44(52,57-40)41(49)42(50)45-17-12-11-14-32(45)43(51)56-39(29(6)34(47)24-35(31)48)27(4)21-30-15-16-33(46)36(23-30)53-7/h10,19,21,26,28-34,36-40,46-47,52H,1,11-18,20,22-24H2,2-9H3/b25-19+,27-21+/t26-,28+,29+,30-,31+,32-,33+,34-,36+,37-,38-,39+,40+,44+/m0/s1

>  <InChIKey>
QJJXYPPXXYFBGM-LFZNUXCKSA-N

>  <SMILES>
C[C@@H]1C[C@@H]([C@@H]2[C@H](C[C@H]([C@@](O2)(C(=O)C(=O)N3CCCC[C@H]3C(=O)O[C@@H]([C@@H]([C@H](CC(=O)[C@@H](\C=C(\C1)/C)CC=C)O)C)/C(=C/[C@@H]4CC[C@H]([C@@H](C4)OC)O)/C)O)C)OC)OC

$$$$
