1GHZ_120_A_246


 25 27  0  0  0  0  0  0  0  0999 V2000
   45.5385   19.2648   52.6933 C   0  0  0  0  0  0  0  0  0  0  0  0
   44.6085   18.8955   51.6708 C   0  0  0  0  0  0  0  0  0  0  0  0
   44.1679   19.7939   50.6942 C   0  0  0  0  0  0  0  0  0  0  0  0
   44.6801   21.0514   50.7677 C   0  0  0  0  0  0  0  0  0  0  0  0
   45.5670   21.4604   51.7103 C   0  0  0  0  0  0  0  0  0  0  0  0
   46.0296   20.6075   52.7025 C   0  0  0  0  0  0  0  0  0  0  0  0
   44.4509   22.0599   49.9992 N   0  0  0  0  0  0  0  0  0  0  0  0
   45.9040   22.7401   51.5668 N   0  0  0  0  0  0  0  0  0  0  0  0
   45.1640   23.0284   50.4849 C   0  0  0  0  0  0  0  0  0  0  0  0
   43.8607   22.0891   49.2118 H   0  0  0  0  0  0  0  0  0  0  0  0
   45.2048   24.2716   49.8117 C   0  0  0  0  0  0  0  0  0  0  0  0
   45.1749   25.4481   50.5400 C   0  0  0  0  0  0  0  0  0  0  0  0
   45.2140   26.6590   49.8979 C   0  0  0  0  0  0  0  0  0  0  0  0
   45.2878   26.7460   48.5222 C   0  0  0  0  0  0  0  0  0  0  0  0
   45.3139   25.5972   47.8573 N   0  0  0  0  0  0  0  0  0  0  0  0
   45.2825   24.3676   48.3730 C   0  0  0  0  0  0  0  0  0  0  0  0
   45.3074   23.3793   47.6573 O   0  0  0  0  0  0  0  0  0  0  0  0
   45.3618   25.6598   46.8759 H   0  0  0  0  0  0  0  0  0  0  0  0
   45.9458   18.3156   53.6277 C   0  0  0  0  0  0  0  0  0  0  0  0
   45.3733   17.1514   53.6369 N   0  0  0  0  0  0  0  0  0  0  0  0
   46.8836   18.5969   54.4922 N   0  0  0  0  0  0  0  0  0  0  0  0
   44.6670   16.9450   52.9828 H   0  0  0  0  0  0  0  0  0  0  0  0
   45.6451   16.4744   54.2980 H   0  0  0  0  0  0  0  0  0  0  0  0
   47.3146   19.4820   54.4805 H   0  0  0  0  0  0  0  0  0  0  0  0
   47.1595   17.9239   55.1556 H   0  0  0  0  0  0  0  0  0  0  0  0
  1  2  1  0  0  0
  1  6  2  0  0  0
  1 19  1  0  0  0
  2  3  2  0  0  0
  3  4  1  0  0  0
  4  5  2  0  0  0
  4  7  1  0  0  0
  5  6  1  0  0  0
  5  8  1  0  0  0
 19 20  1  0  0  0
 19 21  2  0  0  0
  7  9  1  0  0  0
  8  9  2  0  0  0
  9 11  1  0  0  0
 11 12  2  0  0  0
 11 16  1  0  0  0
 12 13  1  0  0  0
 13 14  2  0  0  0
 14 15  1  0  0  0
 15 16  1  0  0  0
 16 17  2  0  0  0
 20 22  1  0  0  0
 20 23  1  0  0  0
 21 24  1  0  0  0
 21 25  1  0  0  0
  7 10  1  0  0  0
 15 18  1  0  0  0
M  CHG 1  21   1
M  END
> <minimizedAffinity>
-8.27046

$$$$
1GHZ_120_A_246


 25 27  0  0  0  0  0  0  0  0999 V2000
   45.5564   19.9515   52.9302 C   0  0  0  0  0  0  0  0  0  0  0  0
   45.7932   21.1119   53.7329 C   0  0  0  0  0  0  0  0  0  0  0  0
   45.7204   22.4101   53.2188 C   0  0  0  0  0  0  0  0  0  0  0  0
   45.4051   22.5113   51.8999 C   0  0  0  0  0  0  0  0  0  0  0  0
   45.1662   21.4497   51.0886 C   0  0  0  0  0  0  0  0  0  0  0  0
   45.2313   20.1428   51.5511 C   0  0  0  0  0  0  0  0  0  0  0  0
   45.2676   23.5741   51.1846 N   0  0  0  0  0  0  0  0  0  0  0  0
   44.8888   21.8189   49.8402 N   0  0  0  0  0  0  0  0  0  0  0  0
   44.9763   23.1493   49.9941 C   0  0  0  0  0  0  0  0  0  0  0  0
   45.3633   24.5088   51.4787 H   0  0  0  0  0  0  0  0  0  0  0  0
   44.6737   24.0814   48.9743 C   0  0  0  0  0  0  0  0  0  0  0  0
   45.4720   24.1475   47.8458 C   0  0  0  0  0  0  0  0  0  0  0  0
   45.1881   25.0472   46.8507 C   0  0  0  0  0  0  0  0  0  0  0  0
   44.1088   25.9036   46.9366 C   0  0  0  0  0  0  0  0  0  0  0  0
   43.3664   25.8118   48.0333 N   0  0  0  0  0  0  0  0  0  0  0  0
   43.5456   24.9787   49.0593 C   0  0  0  0  0  0  0  0  0  0  0  0
   42.7958   24.9888   50.0223 O   0  0  0  0  0  0  0  0  0  0  0  0
   42.5996   26.4261   48.0962 H   0  0  0  0  0  0  0  0  0  0  0  0
   45.6323   18.6874   53.5099 C   0  0  0  0  0  0  0  0  0  0  0  0
   46.5546   18.4502   54.3908 N   0  0  0  0  0  0  0  0  0  0  0  0
   44.7937   17.7479   53.1627 N   0  0  0  0  0  0  0  0  0  0  0  0
   47.1839   19.1621   54.6486 H   0  0  0  0  0  0  0  0  0  0  0  0
   46.6253   17.5583   54.8016 H   0  0  0  0  0  0  0  0  0  0  0  0
   44.0958   17.9337   52.4936 H   0  0  0  0  0  0  0  0  0  0  0  0
   44.8596   16.8541   53.5701 H   0  0  0  0  0  0  0  0  0  0  0  0
  1  2  1  0  0  0
  1  6  2  0  0  0
  1 19  1  0  0  0
  2  3  2  0  0  0
  3  4  1  0  0  0
  4  5  2  0  0  0
  4  7  1  0  0  0
  5  6  1  0  0  0
  5  8  1  0  0  0
 19 20  1  0  0  0
 19 21  2  0  0  0
  7  9  1  0  0  0
  8  9  2  0  0  0
  9 11  1  0  0  0
 11 12  2  0  0  0
 11 16  1  0  0  0
 12 13  1  0  0  0
 13 14  2  0  0  0
 14 15  1  0  0  0
 15 16  1  0  0  0
 16 17  2  0  0  0
 20 22  1  0  0  0
 20 23  1  0  0  0
 21 24  1  0  0  0
 21 25  1  0  0  0
  7 10  1  0  0  0
 15 18  1  0  0  0
M  CHG 1  21   1
M  END
> <minimizedAffinity>
-7.67382

$$$$
1GHZ_120_A_246


 25 27  0  0  0  0  0  0  0  0999 V2000
   44.4533   24.9482   48.8569 C   0  0  0  0  0  0  0  0  0  0  0  0
   43.1555   24.9214   49.4585 C   0  0  0  0  0  0  0  0  0  0  0  0
   42.7537   23.9101   50.3364 C   0  0  0  0  0  0  0  0  0  0  0  0
   43.6754   22.9440   50.5933 C   0  0  0  0  0  0  0  0  0  0  0  0
   44.9221   22.9164   50.0571 C   0  0  0  0  0  0  0  0  0  0  0  0
   45.3648   23.8943   49.1775 C   0  0  0  0  0  0  0  0  0  0  0  0
   43.5695   21.9142   51.3605 N   0  0  0  0  0  0  0  0  0  0  0  0
   45.6238   21.8601   50.4615 N   0  0  0  0  0  0  0  0  0  0  0  0
   44.7062   21.2971   51.2630 C   0  0  0  0  0  0  0  0  0  0  0  0
   42.7919   21.6518   51.9043 H   0  0  0  0  0  0  0  0  0  0  0  0
   44.9517   20.1546   52.0597 C   0  0  0  0  0  0  0  0  0  0  0  0
   45.8775   20.2197   53.0864 C   0  0  0  0  0  0  0  0  0  0  0  0
   46.1235   19.1182   53.8653 C   0  0  0  0  0  0  0  0  0  0  0  0
   45.4627   17.9240   53.6582 C   0  0  0  0  0  0  0  0  0  0  0  0
   44.5827   17.8992   52.6645 N   0  0  0  0  0  0  0  0  0  0  0  0
   44.2626   18.9035   51.8474 C   0  0  0  0  0  0  0  0  0  0  0  0
   43.4363   18.7604   50.9607 O   0  0  0  0  0  0  0  0  0  0  0  0
   44.1152   17.0459   52.5142 H   0  0  0  0  0  0  0  0  0  0  0  0
   44.7931   25.9932   48.0012 C   0  0  0  0  0  0  0  0  0  0  0  0
   44.8739   25.7656   46.7265 N   0  0  0  0  0  0  0  0  0  0  0  0
   45.0395   27.1848   48.4760 N   0  0  0  0  0  0  0  0  0  0  0  0
   44.6870   24.8655   46.3744 H   0  0  0  0  0  0  0  0  0  0  0  0
   45.1222   26.4931   46.1114 H   0  0  0  0  0  0  0  0  0  0  0  0
   44.9766   27.3516   49.4442 H   0  0  0  0  0  0  0  0  0  0  0  0
   45.2882   27.9162   47.8657 H   0  0  0  0  0  0  0  0  0  0  0  0
  1  2  1  0  0  0
  1  6  2  0  0  0
  1 19  1  0  0  0
  2  3  2  0  0  0
  3  4  1  0  0  0
  4  5  2  0  0  0
  4  7  1  0  0  0
  5  6  1  0  0  0
  5  8  1  0  0  0
 19 20  1  0  0  0
 19 21  2  0  0  0
  7  9  1  0  0  0
  8  9  2  0  0  0
  9 11  1  0  0  0
 11 12  2  0  0  0
 11 16  1  0  0  0
 12 13  1  0  0  0
 13 14  2  0  0  0
 14 15  1  0  0  0
 15 16  1  0  0  0
 16 17  2  0  0  0
 20 22  1  0  0  0
 20 23  1  0  0  0
 21 24  1  0  0  0
 21 25  1  0  0  0
  7 10  1  0  0  0
 15 18  1  0  0  0
M  CHG 1  21   1
M  END
> <minimizedAffinity>
-7.00287

$$$$
1GHZ_120_A_246


 25 27  0  0  0  0  0  0  0  0999 V2000
   45.1809   19.2201   52.5237 C   0  0  0  0  0  0  0  0  0  0  0  0
   44.6664   19.6253   51.2517 C   0  0  0  0  0  0  0  0  0  0  0  0
   44.8884   20.8999   50.7214 C   0  0  0  0  0  0  0  0  0  0  0  0
   45.6316   21.7421   51.4877 C   0  0  0  0  0  0  0  0  0  0  0  0
   46.1495   21.4154   52.6990 C   0  0  0  0  0  0  0  0  0  0  0  0
   45.9524   20.1654   53.2689 C   0  0  0  0  0  0  0  0  0  0  0  0
   45.9868   22.9552   51.2378 N   0  0  0  0  0  0  0  0  0  0  0  0
   46.8288   22.4205   53.2469 N   0  0  0  0  0  0  0  0  0  0  0  0
   46.6724   23.3305   52.2729 C   0  0  0  0  0  0  0  0  0  0  0  0
   45.7815   23.4842   50.4332 H   0  0  0  0  0  0  0  0  0  0  0  0
   47.2885   24.6037   52.2788 C   0  0  0  0  0  0  0  0  0  0  0  0
   48.6088   24.7256   52.6754 C   0  0  0  0  0  0  0  0  0  0  0  0
   49.2163   25.9549   52.6850 C   0  0  0  0  0  0  0  0  0  0  0  0
   48.5430   27.0972   52.3010 C   0  0  0  0  0  0  0  0  0  0  0  0
   47.2786   26.9415   51.9277 N   0  0  0  0  0  0  0  0  0  0  0  0
   46.5886   25.8012   51.8774 C   0  0  0  0  0  0  0  0  0  0  0  0
   45.4218   25.7817   51.5198 O   0  0  0  0  0  0  0  0  0  0  0  0
   46.7974   27.7571   51.6584 H   0  0  0  0  0  0  0  0  0  0  0  0
   44.9332   17.9300   52.9863 C   0  0  0  0  0  0  0  0  0  0  0  0
   45.7407   17.4039   53.8547 N   0  0  0  0  0  0  0  0  0  0  0  0
   43.9080   17.2527   52.5430 N   0  0  0  0  0  0  0  0  0  0  0  0
   46.5117   17.9191   54.1853 H   0  0  0  0  0  0  0  0  0  0  0  0
   45.5825   16.4893   54.1831 H   0  0  0  0  0  0  0  0  0  0  0  0
   43.2986   17.6572   51.8840 H   0  0  0  0  0  0  0  0  0  0  0  0
   43.7448   16.3378   52.8678 H   0  0  0  0  0  0  0  0  0  0  0  0
  1  2  1  0  0  0
  1  6  2  0  0  0
  1 19  1  0  0  0
  2  3  2  0  0  0
  3  4  1  0  0  0
  4  5  2  0  0  0
  4  7  1  0  0  0
  5  6  1  0  0  0
  5  8  1  0  0  0
 19 20  1  0  0  0
 19 21  2  0  0  0
  7  9  1  0  0  0
  8  9  2  0  0  0
  9 11  1  0  0  0
 11 12  2  0  0  0
 11 16  1  0  0  0
 12 13  1  0  0  0
 13 14  2  0  0  0
 14 15  1  0  0  0
 15 16  1  0  0  0
 16 17  2  0  0  0
 20 22  1  0  0  0
 20 23  1  0  0  0
 21 24  1  0  0  0
 21 25  1  0  0  0
  7 10  1  0  0  0
 15 18  1  0  0  0
M  CHG 1  21   1
M  END
> <minimizedAffinity>
-6.94215

$$$$
1GHZ_120_A_246


 25 27  0  0  0  0  0  0  0  0999 V2000
   45.1857   20.3668   52.5462 C   0  0  0  0  0  0  0  0  0  0  0  0
   45.5628   21.3796   53.4837 C   0  0  0  0  0  0  0  0  0  0  0  0
   45.1436   22.7082   53.3653 C   0  0  0  0  0  0  0  0  0  0  0  0
   44.3456   22.9880   52.3005 C   0  0  0  0  0  0  0  0  0  0  0  0
   43.9512   22.0712   51.3805 C   0  0  0  0  0  0  0  0  0  0  0  0
   44.3450   20.7424   51.4525 C   0  0  0  0  0  0  0  0  0  0  0  0
   43.8202   24.1149   51.9627 N   0  0  0  0  0  0  0  0  0  0  0  0
   43.1817   22.6031   50.4335 N   0  0  0  0  0  0  0  0  0  0  0  0
   43.1569   23.8703   50.8752 C   0  0  0  0  0  0  0  0  0  0  0  0
   43.9041   24.9773   52.4301 H   0  0  0  0  0  0  0  0  0  0  0  0
   42.3813   24.8948   50.2843 C   0  0  0  0  0  0  0  0  0  0  0  0
   41.0268   24.9745   50.5573 C   0  0  0  0  0  0  0  0  0  0  0  0
   40.2651   25.9637   49.9901 C   0  0  0  0  0  0  0  0  0  0  0  0
   40.8155   26.9038   49.1422 C   0  0  0  0  0  0  0  0  0  0  0  0
   42.1169   26.7953   48.9033 N   0  0  0  0  0  0  0  0  0  0  0  0
   42.9525   25.8807   49.3973 C   0  0  0  0  0  0  0  0  0  0  0  0
   44.1364   25.8779   49.1006 O   0  0  0  0  0  0  0  0  0  0  0  0
   42.5080   27.4631   48.2948 H   0  0  0  0  0  0  0  0  0  0  0  0
   45.6282   19.0592   52.7316 C   0  0  0  0  0  0  0  0  0  0  0  0
   46.4861   18.8096   53.6722 N   0  0  0  0  0  0  0  0  0  0  0  0
   45.1951   18.0977   51.9608 N   0  0  0  0  0  0  0  0  0  0  0  0
   46.8090   19.5383   54.2500 H   0  0  0  0  0  0  0  0  0  0  0  0
   46.8143   17.8914   53.8081 H   0  0  0  0  0  0  0  0  0  0  0  0
   44.5440   18.2931   51.2487 H   0  0  0  0  0  0  0  0  0  0  0  0
   45.5197   17.1776   52.0921 H   0  0  0  0  0  0  0  0  0  0  0  0
  1  2  1  0  0  0
  1  6  2  0  0  0
  1 19  1  0  0  0
  2  3  2  0  0  0
  3  4  1  0  0  0
  4  5  2  0  0  0
  4  7  1  0  0  0
  5  6  1  0  0  0
  5  8  1  0  0  0
 19 20  1  0  0  0
 19 21  2  0  0  0
  7  9  1  0  0  0
  8  9  2  0  0  0
  9 11  1  0  0  0
 11 12  2  0  0  0
 11 16  1  0  0  0
 12 13  1  0  0  0
 13 14  2  0  0  0
 14 15  1  0  0  0
 15 16  1  0  0  0
 16 17  2  0  0  0
 20 22  1  0  0  0
 20 23  1  0  0  0
 21 24  1  0  0  0
 21 25  1  0  0  0
  7 10  1  0  0  0
 15 18  1  0  0  0
M  CHG 1  21   1
M  END
> <minimizedAffinity>
-6.88592

$$$$
1GHZ_120_A_246


 25 27  0  0  0  0  0  0  0  0999 V2000
   42.7426   25.7786   49.3315 C   0  0  0  0  0  0  0  0  0  0  0  0
   43.8797   25.5432   48.4956 C   0  0  0  0  0  0  0  0  0  0  0  0
   44.7317   24.4491   48.6748 C   0  0  0  0  0  0  0  0  0  0  0  0
   44.4151   23.6091   49.6962 C   0  0  0  0  0  0  0  0  0  0  0  0
   43.3494   23.7768   50.5199 C   0  0  0  0  0  0  0  0  0  0  0  0
   42.4787   24.8490   50.3851 C   0  0  0  0  0  0  0  0  0  0  0  0
   45.0201   22.5354   50.0720 N   0  0  0  0  0  0  0  0  0  0  0  0
   43.2683   22.8216   51.4434 N   0  0  0  0  0  0  0  0  0  0  0  0
   44.3434   22.1004   51.0895 C   0  0  0  0  0  0  0  0  0  0  0  0
   45.8241   22.1316   49.6724 H   0  0  0  0  0  0  0  0  0  0  0  0
   44.7002   20.8716   51.6921 C   0  0  0  0  0  0  0  0  0  0  0  0
   45.3466   20.8692   52.9158 C   0  0  0  0  0  0  0  0  0  0  0  0
   45.6972   19.6838   53.5093 C   0  0  0  0  0  0  0  0  0  0  0  0
   45.4179   18.4683   52.9174 C   0  0  0  0  0  0  0  0  0  0  0  0
   44.7978   18.5101   51.7443 N   0  0  0  0  0  0  0  0  0  0  0  0
   44.4097   19.5978   51.0771 C   0  0  0  0  0  0  0  0  0  0  0  0
   43.8481   19.5119   49.9970 O   0  0  0  0  0  0  0  0  0  0  0  0
   44.6031   17.6431   51.3204 H   0  0  0  0  0  0  0  0  0  0  0  0
   41.9275   26.8816   49.0888 C   0  0  0  0  0  0  0  0  0  0  0  0
   40.6935   26.8558   49.4882 N   0  0  0  0  0  0  0  0  0  0  0  0
   42.3951   27.9245   48.4563 N   0  0  0  0  0  0  0  0  0  0  0  0
   40.3466   26.0671   49.9645 H   0  0  0  0  0  0  0  0  0  0  0  0
   40.1039   27.6250   49.3150 H   0  0  0  0  0  0  0  0  0  0  0  0
   43.3324   27.9384   48.1556 H   0  0  0  0  0  0  0  0  0  0  0  0
   41.8101   28.6965   48.2803 H   0  0  0  0  0  0  0  0  0  0  0  0
  1  2  1  0  0  0
  1  6  2  0  0  0
  1 19  1  0  0  0
  2  3  2  0  0  0
  3  4  1  0  0  0
  4  5  2  0  0  0
  4  7  1  0  0  0
  5  6  1  0  0  0
  5  8  1  0  0  0
 19 20  1  0  0  0
 19 21  2  0  0  0
  7  9  1  0  0  0
  8  9  2  0  0  0
  9 11  1  0  0  0
 11 12  2  0  0  0
 11 16  1  0  0  0
 12 13  1  0  0  0
 13 14  2  0  0  0
 14 15  1  0  0  0
 15 16  1  0  0  0
 16 17  2  0  0  0
 20 22  1  0  0  0
 20 23  1  0  0  0
 21 24  1  0  0  0
 21 25  1  0  0  0
  7 10  1  0  0  0
 15 18  1  0  0  0
M  CHG 1  21   1
M  END
> <minimizedAffinity>
-6.56128

$$$$
1GHZ_120_A_246


 25 27  0  0  0  0  0  0  0  0999 V2000
   44.0881   25.7043   48.7773 C   0  0  0  0  0  0  0  0  0  0  0  0
   45.3187   26.1116   49.3829 C   0  0  0  0  0  0  0  0  0  0  0  0
   46.0117   25.3076   50.2931 C   0  0  0  0  0  0  0  0  0  0  0  0
   45.4479   24.1020   50.5719 C   0  0  0  0  0  0  0  0  0  0  0  0
   44.2862   23.6585   50.0276 C   0  0  0  0  0  0  0  0  0  0  0  0
   43.5602   24.4217   49.1241 C   0  0  0  0  0  0  0  0  0  0  0  0
   45.8753   23.1767   51.3601 N   0  0  0  0  0  0  0  0  0  0  0  0
   43.9472   22.4508   50.4730 N   0  0  0  0  0  0  0  0  0  0  0  0
   44.9872   22.2337   51.2930 C   0  0  0  0  0  0  0  0  0  0  0  0
   46.6996   23.1839   51.8983 H   0  0  0  0  0  0  0  0  0  0  0  0
   45.2036   21.0196   51.9856 C   0  0  0  0  0  0  0  0  0  0  0  0
   45.0088   19.8139   51.3347 C   0  0  0  0  0  0  0  0  0  0  0  0
   45.2156   18.6307   51.9962 C   0  0  0  0  0  0  0  0  0  0  0  0
   45.6236   18.6011   53.3147 C   0  0  0  0  0  0  0  0  0  0  0  0
   45.7995   19.7766   53.9061 N   0  0  0  0  0  0  0  0  0  0  0  0
   45.6308   20.9836   53.3644 C   0  0  0  0  0  0  0  0  0  0  0  0
   45.8195   22.0008   54.0119 O   0  0  0  0  0  0  0  0  0  0  0  0
   46.0858   19.7549   54.8478 H   0  0  0  0  0  0  0  0  0  0  0  0
   43.4566   26.5494   47.8680 C   0  0  0  0  0  0  0  0  0  0  0  0
   42.9219   27.6515   48.2953 N   0  0  0  0  0  0  0  0  0  0  0  0
   43.3921   26.2316   46.6027 N   0  0  0  0  0  0  0  0  0  0  0  0
   42.9737   27.8858   49.2501 H   0  0  0  0  0  0  0  0  0  0  0  0
   42.4644   28.2534   47.6648 H   0  0  0  0  0  0  0  0  0  0  0  0
   43.7998   25.3940   46.2841 H   0  0  0  0  0  0  0  0  0  0  0  0
   42.9359   26.8297   45.9675 H   0  0  0  0  0  0  0  0  0  0  0  0
  1  2  1  0  0  0
  1  6  2  0  0  0
  1 19  1  0  0  0
  2  3  2  0  0  0
  3  4  1  0  0  0
  4  5  2  0  0  0
  4  7  1  0  0  0
  5  6  1  0  0  0
  5  8  1  0  0  0
 19 20  1  0  0  0
 19 21  2  0  0  0
  7  9  1  0  0  0
  8  9  2  0  0  0
  9 11  1  0  0  0
 11 12  2  0  0  0
 11 16  1  0  0  0
 12 13  1  0  0  0
 13 14  2  0  0  0
 14 15  1  0  0  0
 15 16  1  0  0  0
 16 17  2  0  0  0
 20 22  1  0  0  0
 20 23  1  0  0  0
 21 24  1  0  0  0
 21 25  1  0  0  0
  7 10  1  0  0  0
 15 18  1  0  0  0
M  CHG 1  21   1
M  END
> <minimizedAffinity>
-6.40886

$$$$
1GHZ_120_A_246


 25 27  0  0  0  0  0  0  0  0999 V2000
   45.2524   22.4831   52.3911 C   0  0  0  0  0  0  0  0  0  0  0  0
   43.9535   22.0757   51.9506 C   0  0  0  0  0  0  0  0  0  0  0  0
   43.3833   22.5379   50.7606 C   0  0  0  0  0  0  0  0  0  0  0  0
   44.1405   23.4028   50.0342 C   0  0  0  0  0  0  0  0  0  0  0  0
   45.3790   23.8232   50.3970 C   0  0  0  0  0  0  0  0  0  0  0  0
   45.9846   23.3968   51.5707 C   0  0  0  0  0  0  0  0  0  0  0  0
   43.8619   23.9680   48.9104 N   0  0  0  0  0  0  0  0  0  0  0  0
   45.9020   24.6752   49.5182 N   0  0  0  0  0  0  0  0  0  0  0  0
   44.8924   24.7058   48.6344 C   0  0  0  0  0  0  0  0  0  0  0  0
   43.0422   23.8625   48.3755 H   0  0  0  0  0  0  0  0  0  0  0  0
   44.9432   25.4035   47.4052 C   0  0  0  0  0  0  0  0  0  0  0  0
   44.9257   26.7874   47.4000 C   0  0  0  0  0  0  0  0  0  0  0  0
   44.9745   27.4742   46.2141 C   0  0  0  0  0  0  0  0  0  0  0  0
   45.0460   26.8188   45.0013 C   0  0  0  0  0  0  0  0  0  0  0  0
   45.0602   25.4920   45.0456 N   0  0  0  0  0  0  0  0  0  0  0  0
   45.0187   24.7224   46.1341 C   0  0  0  0  0  0  0  0  0  0  0  0
   45.0329   23.5049   46.0504 O   0  0  0  0  0  0  0  0  0  0  0  0
   45.1065   25.0250   44.1802 H   0  0  0  0  0  0  0  0  0  0  0  0
   45.7660   21.9733   53.5811 C   0  0  0  0  0  0  0  0  0  0  0  0
   45.9962   22.7828   54.5684 N   0  0  0  0  0  0  0  0  0  0  0  0
   46.0248   20.6984   53.6986 N   0  0  0  0  0  0  0  0  0  0  0  0
   45.7991   23.7428   54.4741 H   0  0  0  0  0  0  0  0  0  0  0  0
   46.3679   22.4371   55.4120 H   0  0  0  0  0  0  0  0  0  0  0  0
   45.8481   20.0889   52.9459 H   0  0  0  0  0  0  0  0  0  0  0  0
   46.3966   20.3471   54.5397 H   0  0  0  0  0  0  0  0  0  0  0  0
  1  2  1  0  0  0
  1  6  2  0  0  0
  1 19  1  0  0  0
  2  3  2  0  0  0
  3  4  1  0  0  0
  4  5  2  0  0  0
  4  7  1  0  0  0
  5  6  1  0  0  0
  5  8  1  0  0  0
 19 20  1  0  0  0
 19 21  2  0  0  0
  7  9  1  0  0  0
  8  9  2  0  0  0
  9 11  1  0  0  0
 11 12  2  0  0  0
 11 16  1  0  0  0
 12 13  1  0  0  0
 13 14  2  0  0  0
 14 15  1  0  0  0
 15 16  1  0  0  0
 16 17  2  0  0  0
 20 22  1  0  0  0
 20 23  1  0  0  0
 21 24  1  0  0  0
 21 25  1  0  0  0
  7 10  1  0  0  0
 15 18  1  0  0  0
M  CHG 1  21   1
M  END
> <minimizedAffinity>
-5.96323

$$$$
1GHZ_120_A_246


 25 27  0  0  0  0  0  0  0  0999 V2000
   44.6195   26.0910   52.3020 C   0  0  0  0  0  0  0  0  0  0  0  0
   45.5813   25.8590   51.2685 C   0  0  0  0  0  0  0  0  0  0  0  0
   46.0706   24.5840   50.9683 C   0  0  0  0  0  0  0  0  0  0  0  0
   45.5742   23.5641   51.7182 C   0  0  0  0  0  0  0  0  0  0  0  0
   44.6591   23.7200   52.7085 C   0  0  0  0  0  0  0  0  0  0  0  0
   44.1479   24.9652   53.0465 C   0  0  0  0  0  0  0  0  0  0  0  0
   45.8462   22.3067   51.6473 N   0  0  0  0  0  0  0  0  0  0  0  0
   44.3460   22.5667   53.2946 N   0  0  0  0  0  0  0  0  0  0  0  0
   45.1296   21.7495   52.5739 C   0  0  0  0  0  0  0  0  0  0  0  0
   46.4654   21.8636   51.0233 H   0  0  0  0  0  0  0  0  0  0  0  0
   45.1316   20.3413   52.7067 C   0  0  0  0  0  0  0  0  0  0  0  0
   45.7247   19.7569   53.8120 C   0  0  0  0  0  0  0  0  0  0  0  0
   45.7325   18.3927   53.9512 C   0  0  0  0  0  0  0  0  0  0  0  0
   45.1535   17.5664   53.0090 C   0  0  0  0  0  0  0  0  0  0  0  0
   44.5950   18.1626   51.9625 N   0  0  0  0  0  0  0  0  0  0  0  0
   44.5267   19.4730   51.7242 C   0  0  0  0  0  0  0  0  0  0  0  0
   43.9884   19.9071   50.7185 O   0  0  0  0  0  0  0  0  0  0  0  0
   44.1864   17.5726   51.2886 H   0  0  0  0  0  0  0  0  0  0  0  0
   44.1644   27.3857   52.5395 C   0  0  0  0  0  0  0  0  0  0  0  0
   44.7454   28.1026   53.4513 N   0  0  0  0  0  0  0  0  0  0  0  0
   43.1574   27.8686   51.8621 N   0  0  0  0  0  0  0  0  0  0  0  0
   45.5040   27.7333   53.9588 H   0  0  0  0  0  0  0  0  0  0  0  0
   44.4278   29.0160   53.6359 H   0  0  0  0  0  0  0  0  0  0  0  0
   42.7204   27.3199   51.1714 H   0  0  0  0  0  0  0  0  0  0  0  0
   42.8354   28.7814   52.0423 H   0  0  0  0  0  0  0  0  0  0  0  0
  1  2  1  0  0  0
  1  6  2  0  0  0
  1 19  1  0  0  0
  2  3  2  0  0  0
  3  4  1  0  0  0
  4  5  2  0  0  0
  4  7  1  0  0  0
  5  6  1  0  0  0
  5  8  1  0  0  0
 19 20  1  0  0  0
 19 21  2  0  0  0
  7  9  1  0  0  0
  8  9  2  0  0  0
  9 11  1  0  0  0
 11 12  2  0  0  0
 11 16  1  0  0  0
 12 13  1  0  0  0
 13 14  2  0  0  0
 14 15  1  0  0  0
 15 16  1  0  0  0
 16 17  2  0  0  0
 20 22  1  0  0  0
 20 23  1  0  0  0
 21 24  1  0  0  0
 21 25  1  0  0  0
  7 10  1  0  0  0
 15 18  1  0  0  0
M  CHG 1  21   1
M  END
> <minimizedAffinity>
-5.72857

$$$$
1GHZ_120_A_246


 25 27  0  0  0  0  0  0  0  0999 V2000
   45.0177   20.1607   52.3748 C   0  0  0  0  0  0  0  0  0  0  0  0
   44.2456   21.0160   51.5267 C   0  0  0  0  0  0  0  0  0  0  0  0
   44.1525   22.3957   51.7334 C   0  0  0  0  0  0  0  0  0  0  0  0
   44.8467   22.8868   52.7945 C   0  0  0  0  0  0  0  0  0  0  0  0
   45.5986   22.1279   53.6320 C   0  0  0  0  0  0  0  0  0  0  0  0
   45.7177   20.7547   53.4707 C   0  0  0  0  0  0  0  0  0  0  0  0
   44.9380   24.1057   53.2020 N   0  0  0  0  0  0  0  0  0  0  0  0
   46.1674   22.8492   54.5953 N   0  0  0  0  0  0  0  0  0  0  0  0
   45.7011   24.0594   54.2498 C   0  0  0  0  0  0  0  0  0  0  0  0
   44.5183   24.9020   52.8032 H   0  0  0  0  0  0  0  0  0  0  0  0
   46.0757   25.2609   54.8950 C   0  0  0  0  0  0  0  0  0  0  0  0
   47.4057   25.4896   55.2020 C   0  0  0  0  0  0  0  0  0  0  0  0
   47.7803   26.6509   55.8275 C   0  0  0  0  0  0  0  0  0  0  0  0
   46.8576   27.6209   56.1644 C   0  0  0  0  0  0  0  0  0  0  0  0
   45.5919   27.3665   55.8550 N   0  0  0  0  0  0  0  0  0  0  0  0
   45.1144   26.2786   55.2489 C   0  0  0  0  0  0  0  0  0  0  0  0
   43.9224   26.1530   55.0190 O   0  0  0  0  0  0  0  0  0  0  0  0
   44.9337   28.0564   56.0998 H   0  0  0  0  0  0  0  0  0  0  0  0
   45.0778   18.7959   52.1034 C   0  0  0  0  0  0  0  0  0  0  0  0
   44.9205   17.9507   53.0750 N   0  0  0  0  0  0  0  0  0  0  0  0
   45.3021   18.3712   50.8888 N   0  0  0  0  0  0  0  0  0  0  0  0
   44.7517   18.2766   53.9885 H   0  0  0  0  0  0  0  0  0  0  0  0
   44.9698   16.9834   52.8988 H   0  0  0  0  0  0  0  0  0  0  0  0
   45.4207   19.0173   50.1554 H   0  0  0  0  0  0  0  0  0  0  0  0
   45.3525   17.4050   50.7065 H   0  0  0  0  0  0  0  0  0  0  0  0
  1  2  1  0  0  0
  1  6  2  0  0  0
  1 19  1  0  0  0
  2  3  2  0  0  0
  3  4  1  0  0  0
  4  5  2  0  0  0
  4  7  1  0  0  0
  5  6  1  0  0  0
  5  8  1  0  0  0
 19 20  1  0  0  0
 19 21  2  0  0  0
  7  9  1  0  0  0
  8  9  2  0  0  0
  9 11  1  0  0  0
 11 12  2  0  0  0
 11 16  1  0  0  0
 12 13  1  0  0  0
 13 14  2  0  0  0
 14 15  1  0  0  0
 15 16  1  0  0  0
 16 17  2  0  0  0
 20 22  1  0  0  0
 20 23  1  0  0  0
 21 24  1  0  0  0
 21 25  1  0  0  0
  7 10  1  0  0  0
 15 18  1  0  0  0
M  CHG 1  21   1
M  END
> <minimizedAffinity>
-5.61206

$$$$
