1GHZ_120_A_246
  RCSB PDB12061702363D
Coordinates from PDB:1GHZ:A:246 Model:1 without hydrogens
 19 21  0  0  0  0            999 V2000
   45.5210   19.3220   52.9710   C 0  0  0  0  0  0  0  0  0  0  0  0
   44.9600   18.9450   51.7100   C 0  0  0  0  0  0  0  0  0  0  0  0
   44.6630   19.8760   50.7100   C 0  0  0  0  0  0  0  0  0  0  0  0
   44.9430   21.1740   51.0030   C 0  0  0  0  0  0  0  0  0  0  0  0
   45.4780   21.5930   52.1780   C 0  0  0  0  0  0  0  0  0  0  0  0
   45.7850   20.7080   53.2020   C 0  0  0  0  0  0  0  0  0  0  0  0
   45.8050   18.3410   53.9180   C 0  0  0  0  0  0  0  0  0  0  0  0
   46.5150   18.6530   54.9580   N 0  0  0  0  0  0  0  0  0  0  0  0
   45.3730   17.1190   53.7560   N 0  3  0  0  0  0  0  0  0  0  0  0
   44.7760   22.2190   50.2680   N 0  0  0  0  0  0  0  0  0  0  0  0
   45.6450   22.9130   52.2160   N 0  0  0  0  0  0  0  0  0  0  0  0
   45.1820   23.2150   50.9930   C 0  0  0  0  0  0  0  0  0  0  0  0
   45.2120   24.5160   50.4390   C 0  0  0  0  0  0  0  0  0  0  0  0
   45.9180   25.5190   51.0800   C 0  0  0  0  0  0  0  0  0  0  0  0
   45.9540   26.7840   50.5520   C 0  0  0  0  0  0  0  0  0  0  0  0
   45.3000   27.0960   49.3770   C 0  0  0  0  0  0  0  0  0  0  0  0
   44.6330   26.1090   48.7910   N 0  0  0  0  0  0  0  0  0  0  0  0
   44.5300   24.8470   49.2100   C 0  0  0  0  0  0  0  0  0  0  0  0
   43.8810   24.0230   48.5860   O 0  0  0  0  0  0  0  0  0  0  0  0
  1  2  1  0  0  0  0
  1  6  2  0  0  0  0
  1  7  1  0  0  0  0
  2  3  2  0  0  0  0
  3  4  1  0  0  0  0
  4  5  2  0  0  0  0
  4 10  1  0  0  0  0
  5  6  1  0  0  0  0
  5 11  1  0  0  0  0
  7  8  1  0  0  0  0
  7  9  2  0  0  0  0
 10 12  1  0  0  0  0
 11 12  2  0  0  0  0
 12 13  1  0  0  0  0
 13 14  2  0  0  0  0
 13 18  1  0  0  0  0
 14 15  1  0  0  0  0
 15 16  2  0  0  0  0
 16 17  1  0  0  0  0
 17 18  1  0  0  0  0
 18 19  2  0  0  0  0
M  CHG  1   9   1
A    1
C1
A    2
C2
A    3
C3
A    4
C4
A    5
C5
A    6
C6
A    7
C7
A    8
N1
A    9
N2
A   10
N3
A   11
N4
A   12
C8
A   13
C1'
A   14
C2'
A   15
C3'
A   16
C4'
A   17
N5'
A   18
C6'
A   19
O6'
M  END
>  <InstanceId>
1GHZ_120_A_246

>  <ChemCompId>
120

>  <PdbId>
1GHZ

>  <ChainId>
A

>  <ResidueNumber>
246

>  <InsertionCode>


>  <Model>
1

>  <AltIds>


>  <MissingHeavyAtoms>
0

>  <ObservedFormula>
C13 N5 O

>  <Name>
2-(2-OXO-1,2-DIHYDRO-PYRIDIN-3-YL)-1H-BENZOIMIDAZOLE-5-CARBOXAMIDINE

>  <SystematicName>
[amino-[2-(2-oxo-1H-pyridin-3-yl)-1H-benzimidazol-5-yl]methylidene]azanium

>  <Synonyms>


>  <Type>
NON-POLYMER

>  <Formula>
C13 H12 N5 O

>  <MolecularWeight>
254.267

>  <ModifiedDate>
2011-06-04

>  <Parent>


>  <OneLetterCode>


>  <SubcomponentList>


>  <AmbiguousFlag>
N

>  <InChI>
InChI=1S/C13H11N5O/c14-11(15)7-3-4-9-10(6-7)18-12(17-9)8-2-1-5-16-13(8)19/h1-6H,(H3,14,15)(H,16,19)(H,17,18)/p+1

>  <InChIKey>
PUOKYJMONGPAIM-UHFFFAOYSA-O

>  <SMILES>
c1cc2c(cc1C(=[NH2+])N)nc([nH]2)C3=CC=CNC3=O

$$$$
