2NSJ_C2R_A_242


 29 30  0  0  0  0  0  0  0  0999 V2000
   13.1390  -13.8955  -12.8372 C   0  0  0  0  0  0  0  0  0  0  0  0
   12.0884  -14.4832  -13.6086 O   0  0  0  0  0  0  0  0  0  0  0  0
   12.5903  -12.8205  -11.8972 C   0  0  0  0  0  0  0  0  0  0  0  0
   11.3607  -12.3012  -12.4095 O   0  0  0  0  0  0  0  0  0  0  0  0
   13.6725  -11.7367  -11.9612 C   0  0  0  0  0  0  0  0  0  0  0  0
   14.7299  -12.2919  -12.7616 O   0  0  0  0  0  0  0  0  0  0  0  0
   14.0066  -13.0328  -13.7509 C   0  0  0  0  0  0  0  0  0  0  0  0
   11.6045  -13.7868  -14.0795 H   0  0  0  0  0  0  0  0  0  0  0  0
   11.5012  -11.9654  -13.3086 H   0  0  0  0  0  0  0  0  0  0  0  0
   14.8638  -13.9248  -14.5615 N   0  0  0  0  0  0  0  0  0  0  0  0
   14.5859  -14.3892  -15.7753 C   0  0  0  0  0  0  0  0  0  0  0  0
   15.5725  -15.3105  -16.0973 C   0  0  0  0  0  0  0  0  0  0  0  0
   16.4337  -15.3554  -15.0855 N   0  0  0  0  0  0  0  0  0  0  0  0
   15.9928  -14.5064  -14.1584 C   0  0  0  0  0  0  0  0  0  0  0  0
   13.6139  -13.9591  -16.5731 N   0  0  0  0  0  0  0  0  0  0  0  0
   12.9616  -13.2998  -16.2430 H   0  0  0  0  0  0  0  0  0  0  0  0
   13.5462  -14.3000  -17.4942 H   0  0  0  0  0  0  0  0  0  0  0  0
   15.6078  -16.1890  -17.3482 C   0  0  0  0  0  0  0  0  0  0  0  0
   16.5897  -16.9476  -17.4973 O   0  0  0  0  0  0  0  0  0  0  0  0
   14.6641  -16.0868  -18.1620 O   0  0  0  0  0  0  0  0  0  0  0  0
   17.2635  -16.9751  -16.8467 H   0  0  0  0  0  0  0  0  0  0  0  0
   14.1804  -11.4008  -10.5586 C   0  0  0  0  0  0  0  0  0  0  0  0
   15.2767  -12.2530  -10.2227 O   0  0  0  0  0  0  0  0  0  0  0  0
   16.0597  -12.0671   -8.8288 P   0  0  0  0  0  0  0  0  0  0  0  0
   14.9645  -11.6287   -7.7355 O   0  0  0  0  0  0  0  0  0  0  0  0
   16.7829  -13.2937   -8.4251 O   0  0  0  0  0  0  0  0  0  0  0  0
   17.0439  -10.8101   -9.0255 O   0  0  0  0  0  0  0  0  0  0  0  0
   17.2389  -13.1378   -7.5833 H   0  0  0  0  0  0  0  0  0  0  0  0
   17.5409  -10.6574   -8.2066 H   0  0  0  0  0  0  0  0  0  0  0  0
 24 25  2  0  0  0
 24 26  1  0  0  0
 24 27  1  0  0  0
 24 23  1  0  0  0
 23 22  1  0  0  0
  1  2  1  0  0  0
  1  3  1  0  0  0
  1  7  1  0  0  0
  3  4  1  0  0  0
  3  5  1  0  0  0
 22  5  1  0  0  0
  5  6  1  0  0  0
  6  7  1  0  0  0
  7 10  1  0  0  0
 10 11  1  0  0  0
 10 14  1  0  0  0
 11 12  2  0  0  0
 11 15  1  0  0  0
 12 13  1  0  0  0
 12 18  1  0  0  0
 13 14  2  0  0  0
 18 19  1  0  0  0
 18 20  2  0  0  0
 26 28  1  0  0  0
 27 29  1  0  0  0
  2  8  1  0  0  0
  4  9  1  0  0  0
 15 16  1  0  0  0
 15 17  1  0  0  0
 19 21  1  0  0  0
M  END
> <minimizedAffinity>
-9.47238

$$$$
2NSJ_C2R_A_242


 29 30  0  0  0  0  0  0  0  0999 V2000
   13.2565  -14.0444  -12.8457 C   0  0  0  0  0  0  0  0  0  0  0  0
   12.1677  -14.4646  -13.6716 O   0  0  0  0  0  0  0  0  0  0  0  0
   12.7892  -13.0286  -11.8016 C   0  0  0  0  0  0  0  0  0  0  0  0
   11.6093  -12.3627  -12.2581 O   0  0  0  0  0  0  0  0  0  0  0  0
   13.9557  -12.0350  -11.7567 C   0  0  0  0  0  0  0  0  0  0  0  0
   14.9708  -12.5905  -12.6098 O   0  0  0  0  0  0  0  0  0  0  0  0
   14.1976  -13.1671  -13.6683 C   0  0  0  0  0  0  0  0  0  0  0  0
   11.7451  -13.6875  -14.0696 H   0  0  0  0  0  0  0  0  0  0  0  0
   11.7832  -11.9505  -13.1188 H   0  0  0  0  0  0  0  0  0  0  0  0
   14.9862  -14.0395  -14.5653 N   0  0  0  0  0  0  0  0  0  0  0  0
   14.6225  -14.4548  -15.7742 C   0  0  0  0  0  0  0  0  0  0  0  0
   15.5716  -15.3763  -16.1936 C   0  0  0  0  0  0  0  0  0  0  0  0
   16.4962  -15.4700  -15.2431 N   0  0  0  0  0  0  0  0  0  0  0  0
   16.1300  -14.6504  -14.2587 C   0  0  0  0  0  0  0  0  0  0  0  0
   13.6072  -13.9829  -16.4902 N   0  0  0  0  0  0  0  0  0  0  0  0
   12.9881  -13.3278  -16.0942 H   0  0  0  0  0  0  0  0  0  0  0  0
   13.4742  -14.2883  -17.4166 H   0  0  0  0  0  0  0  0  0  0  0  0
   15.5116  -16.2081  -17.4751 C   0  0  0  0  0  0  0  0  0  0  0  0
   16.4473  -17.0074  -17.6927 O   0  0  0  0  0  0  0  0  0  0  0  0
   14.5417  -16.0298  -18.2438 O   0  0  0  0  0  0  0  0  0  0  0  0
   17.1449  -17.0920  -17.0730 H   0  0  0  0  0  0  0  0  0  0  0  0
   14.4785  -11.8841  -10.3278 C   0  0  0  0  0  0  0  0  0  0  0  0
   15.8117  -11.3713  -10.3507 O   0  0  0  0  0  0  0  0  0  0  0  0
   16.0962   -9.8187  -10.0365 P   0  0  0  0  0  0  0  0  0  0  0  0
   16.9364   -9.7682   -8.6659 O   0  0  0  0  0  0  0  0  0  0  0  0
   16.8075   -9.1444  -11.1455 O   0  0  0  0  0  0  0  0  0  0  0  0
   14.6669   -9.1493   -9.7263 O   0  0  0  0  0  0  0  0  0  0  0  0
   16.9580   -8.2142  -10.9150 H   0  0  0  0  0  0  0  0  0  0  0  0
   14.7870   -8.2070   -9.5297 H   0  0  0  0  0  0  0  0  0  0  0  0
 24 25  2  0  0  0
 24 26  1  0  0  0
 24 27  1  0  0  0
 24 23  1  0  0  0
 23 22  1  0  0  0
  1  2  1  0  0  0
  1  3  1  0  0  0
  1  7  1  0  0  0
  3  4  1  0  0  0
  3  5  1  0  0  0
 22  5  1  0  0  0
  5  6  1  0  0  0
  6  7  1  0  0  0
  7 10  1  0  0  0
 10 11  1  0  0  0
 10 14  1  0  0  0
 11 12  2  0  0  0
 11 15  1  0  0  0
 12 13  1  0  0  0
 12 18  1  0  0  0
 13 14  2  0  0  0
 18 19  1  0  0  0
 18 20  2  0  0  0
 26 28  1  0  0  0
 27 29  1  0  0  0
  2  8  1  0  0  0
  4  9  1  0  0  0
 15 16  1  0  0  0
 15 17  1  0  0  0
 19 21  1  0  0  0
M  END
> <minimizedAffinity>
-9.17536

$$$$
2NSJ_C2R_A_242


 29 30  0  0  0  0  0  0  0  0999 V2000
   13.2719  -13.9928  -12.8229 C   0  0  0  0  0  0  0  0  0  0  0  0
   12.1814  -14.4794  -13.6091 O   0  0  0  0  0  0  0  0  0  0  0  0
   12.7937  -12.9461  -11.8149 C   0  0  0  0  0  0  0  0  0  0  0  0
   11.5870  -12.3345  -12.2772 O   0  0  0  0  0  0  0  0  0  0  0  0
   13.9313  -11.9188  -11.8350 C   0  0  0  0  0  0  0  0  0  0  0  0
   14.9470  -12.4820  -12.6824 O   0  0  0  0  0  0  0  0  0  0  0  0
   14.1723  -13.1260  -13.7002 C   0  0  0  0  0  0  0  0  0  0  0  0
   11.7293  -13.7327  -14.0321 H   0  0  0  0  0  0  0  0  0  0  0  0
   11.7335  -11.9555  -13.1580 H   0  0  0  0  0  0  0  0  0  0  0  0
   14.9700  -14.0139  -14.5736 N   0  0  0  0  0  0  0  0  0  0  0  0
   14.6261  -14.4370  -15.7855 C   0  0  0  0  0  0  0  0  0  0  0  0
   15.5745  -15.3712  -16.1778 C   0  0  0  0  0  0  0  0  0  0  0  0
   16.4794  -15.4646  -15.2085 N   0  0  0  0  0  0  0  0  0  0  0  0
   16.1017  -14.6325  -14.2390 C   0  0  0  0  0  0  0  0  0  0  0  0
   13.6295  -13.9623  -16.5256 N   0  0  0  0  0  0  0  0  0  0  0  0
   13.0090  -13.2978  -16.1478 H   0  0  0  0  0  0  0  0  0  0  0  0
   13.5118  -14.2751  -17.4517 H   0  0  0  0  0  0  0  0  0  0  0  0
   15.5317  -16.2142  -17.4526 C   0  0  0  0  0  0  0  0  0  0  0  0
   16.4890  -16.9877  -17.6695 O   0  0  0  0  0  0  0  0  0  0  0  0
   14.5529  -16.0700  -18.2172 O   0  0  0  0  0  0  0  0  0  0  0  0
   17.1922  -17.0472  -17.0530 H   0  0  0  0  0  0  0  0  0  0  0  0
   14.4747  -11.6909  -10.4240 C   0  0  0  0  0  0  0  0  0  0  0  0
   13.4063  -11.3370   -9.5441 O   0  0  0  0  0  0  0  0  0  0  0  0
   12.8031   -9.8448   -9.5490 P   0  0  0  0  0  0  0  0  0  0  0  0
   12.3463   -9.5233   -8.0406 O   0  0  0  0  0  0  0  0  0  0  0  0
   13.7746   -8.8500  -10.0558 O   0  0  0  0  0  0  0  0  0  0  0  0
   11.4618   -9.9006  -10.4351 O   0  0  0  0  0  0  0  0  0  0  0  0
   13.3713   -7.9679  -10.0416 H   0  0  0  0  0  0  0  0  0  0  0  0
   11.0592   -9.0187  -10.4680 H   0  0  0  0  0  0  0  0  0  0  0  0
 24 25  2  0  0  0
 24 26  1  0  0  0
 24 27  1  0  0  0
 24 23  1  0  0  0
 23 22  1  0  0  0
  1  2  1  0  0  0
  1  3  1  0  0  0
  1  7  1  0  0  0
  3  4  1  0  0  0
  3  5  1  0  0  0
 22  5  1  0  0  0
  5  6  1  0  0  0
  6  7  1  0  0  0
  7 10  1  0  0  0
 10 11  1  0  0  0
 10 14  1  0  0  0
 11 12  2  0  0  0
 11 15  1  0  0  0
 12 13  1  0  0  0
 12 18  1  0  0  0
 13 14  2  0  0  0
 18 19  1  0  0  0
 18 20  2  0  0  0
 26 28  1  0  0  0
 27 29  1  0  0  0
  2  8  1  0  0  0
  4  9  1  0  0  0
 15 16  1  0  0  0
 15 17  1  0  0  0
 19 21  1  0  0  0
M  END
> <minimizedAffinity>
-8.99163

$$$$
2NSJ_C2R_A_242


 29 30  0  0  0  0  0  0  0  0999 V2000
   13.6937  -13.4009  -12.3975 C   0  0  0  0  0  0  0  0  0  0  0  0
   13.1299  -14.6655  -12.0409 O   0  0  0  0  0  0  0  0  0  0  0  0
   12.8517  -12.2513  -11.8409 C   0  0  0  0  0  0  0  0  0  0  0  0
   11.5054  -12.6850  -11.6324 O   0  0  0  0  0  0  0  0  0  0  0  0
   12.8911  -11.2264  -12.9801 C   0  0  0  0  0  0  0  0  0  0  0  0
   13.7899  -11.7714  -13.9608 O   0  0  0  0  0  0  0  0  0  0  0  0
   13.5001  -13.1723  -13.8949 C   0  0  0  0  0  0  0  0  0  0  0  0
   12.2064  -14.7023  -12.3354 H   0  0  0  0  0  0  0  0  0  0  0  0
   11.1460  -13.0345  -12.4628 H   0  0  0  0  0  0  0  0  0  0  0  0
   14.4751  -14.0101  -14.6262 N   0  0  0  0  0  0  0  0  0  0  0  0
   14.3508  -14.4499  -15.8741 C   0  0  0  0  0  0  0  0  0  0  0  0
   15.4017  -15.3261  -16.1063 C   0  0  0  0  0  0  0  0  0  0  0  0
   16.1472  -15.3685  -15.0066 N   0  0  0  0  0  0  0  0  0  0  0  0
   15.5745  -14.5620  -14.1141 C   0  0  0  0  0  0  0  0  0  0  0  0
   13.4567  -14.0327  -16.7645 N   0  0  0  0  0  0  0  0  0  0  0  0
   12.7471  -13.4066  -16.4932 H   0  0  0  0  0  0  0  0  0  0  0  0
   13.5040  -14.3499  -17.6953 H   0  0  0  0  0  0  0  0  0  0  0  0
   15.6084  -16.1673  -17.3662 C   0  0  0  0  0  0  0  0  0  0  0  0
   16.6275  -16.8887  -17.4217 O   0  0  0  0  0  0  0  0  0  0  0  0
   14.7589  -16.0734  -18.2787 O   0  0  0  0  0  0  0  0  0  0  0  0
   17.2247  -16.9123  -16.7001 H   0  0  0  0  0  0  0  0  0  0  0  0
   13.4034   -9.8781  -12.4724 C   0  0  0  0  0  0  0  0  0  0  0  0
   12.3063   -9.0789  -12.0266 O   0  0  0  0  0  0  0  0  0  0  0  0
   11.6456   -7.9809  -13.0003 P   0  0  0  0  0  0  0  0  0  0  0  0
   12.7914   -6.9008  -13.3280 O   0  0  0  0  0  0  0  0  0  0  0  0
   11.0892   -8.5865  -14.2308 O   0  0  0  0  0  0  0  0  0  0  0  0
   10.5275   -7.2180  -12.1312 O   0  0  0  0  0  0  0  0  0  0  0  0
   10.7025   -7.8919  -14.7867 H   0  0  0  0  0  0  0  0  0  0  0  0
   10.0983   -6.5419  -12.6785 H   0  0  0  0  0  0  0  0  0  0  0  0
 24 25  2  0  0  0
 24 26  1  0  0  0
 24 27  1  0  0  0
 24 23  1  0  0  0
 23 22  1  0  0  0
  1  2  1  0  0  0
  1  3  1  0  0  0
  1  7  1  0  0  0
  3  4  1  0  0  0
  3  5  1  0  0  0
 22  5  1  0  0  0
  5  6  1  0  0  0
  6  7  1  0  0  0
  7 10  1  0  0  0
 10 11  1  0  0  0
 10 14  1  0  0  0
 11 12  2  0  0  0
 11 15  1  0  0  0
 12 13  1  0  0  0
 12 18  1  0  0  0
 13 14  2  0  0  0
 18 19  1  0  0  0
 18 20  2  0  0  0
 26 28  1  0  0  0
 27 29  1  0  0  0
  2  8  1  0  0  0
  4  9  1  0  0  0
 15 16  1  0  0  0
 15 17  1  0  0  0
 19 21  1  0  0  0
M  END
> <minimizedAffinity>
-8.29211

$$$$
2NSJ_C2R_A_242


 29 30  0  0  0  0  0  0  0  0999 V2000
   13.1993  -13.0465  -13.5421 C   0  0  0  0  0  0  0  0  0  0  0  0
   11.8795  -13.1877  -13.0107 O   0  0  0  0  0  0  0  0  0  0  0  0
   13.6108  -14.2970  -14.3213 C   0  0  0  0  0  0  0  0  0  0  0  0
   12.8715  -15.4296  -13.8580 O   0  0  0  0  0  0  0  0  0  0  0  0
   15.0874  -14.4564  -13.9416 C   0  0  0  0  0  0  0  0  0  0  0  0
   15.4101  -13.3020  -13.1478 O   0  0  0  0  0  0  0  0  0  0  0  0
   14.2074  -13.1028  -12.3964 C   0  0  0  0  0  0  0  0  0  0  0  0
   11.8315  -13.9946  -12.4745 H   0  0  0  0  0  0  0  0  0  0  0  0
   13.0032  -15.5329  -12.9026 H   0  0  0  0  0  0  0  0  0  0  0  0
   14.1704  -11.8113  -11.6765 N   0  0  0  0  0  0  0  0  0  0  0  0
   14.4611  -11.6198  -10.3939 C   0  0  0  0  0  0  0  0  0  0  0  0
   14.1420  -10.3030  -10.0937 C   0  0  0  0  0  0  0  0  0  0  0  0
   13.6971   -9.7278  -11.2065 N   0  0  0  0  0  0  0  0  0  0  0  0
   13.7211  -10.6550  -12.1629 C   0  0  0  0  0  0  0  0  0  0  0  0
   15.0573  -12.4930   -9.5887 N   0  0  0  0  0  0  0  0  0  0  0  0
   15.2386  -13.4082   -9.9030 H   0  0  0  0  0  0  0  0  0  0  0  0
   15.3176  -12.2246   -8.6780 H   0  0  0  0  0  0  0  0  0  0  0  0
   14.1982   -9.6583   -8.7084 C   0  0  0  0  0  0  0  0  0  0  0  0
   14.3311  -10.4136   -7.7216 O   0  0  0  0  0  0  0  0  0  0  0  0
   14.0889   -8.4149   -8.6365 O   0  0  0  0  0  0  0  0  0  0  0  0
   14.4078  -11.3391   -7.8469 H   0  0  0  0  0  0  0  0  0  0  0  0
   15.9620  -14.5080  -15.1948 C   0  0  0  0  0  0  0  0  0  0  0  0
   15.1411  -14.6698  -16.3528 O   0  0  0  0  0  0  0  0  0  0  0  0
   15.1172  -16.0682  -17.1493 P   0  0  0  0  0  0  0  0  0  0  0  0
   14.2118  -17.0792  -16.2860 O   0  0  0  0  0  0  0  0  0  0  0  0
   14.6108  -15.9165  -18.5317 O   0  0  0  0  0  0  0  0  0  0  0  0
   16.6194  -16.6415  -17.1046 O   0  0  0  0  0  0  0  0  0  0  0  0
   14.6134  -16.7800  -18.9736 H   0  0  0  0  0  0  0  0  0  0  0  0
   16.6561  -17.4892  -17.5748 H   0  0  0  0  0  0  0  0  0  0  0  0
 24 25  2  0  0  0
 24 26  1  0  0  0
 24 27  1  0  0  0
 24 23  1  0  0  0
 23 22  1  0  0  0
  1  2  1  0  0  0
  1  3  1  0  0  0
  1  7  1  0  0  0
  3  4  1  0  0  0
  3  5  1  0  0  0
 22  5  1  0  0  0
  5  6  1  0  0  0
  6  7  1  0  0  0
  7 10  1  0  0  0
 10 11  1  0  0  0
 10 14  1  0  0  0
 11 12  2  0  0  0
 11 15  1  0  0  0
 12 13  1  0  0  0
 12 18  1  0  0  0
 13 14  2  0  0  0
 18 19  1  0  0  0
 18 20  2  0  0  0
 26 28  1  0  0  0
 27 29  1  0  0  0
  2  8  1  0  0  0
  4  9  1  0  0  0
 15 16  1  0  0  0
 15 17  1  0  0  0
 19 21  1  0  0  0
M  END
> <minimizedAffinity>
-8.13879

$$$$
2NSJ_C2R_A_242


 29 30  0  0  0  0  0  0  0  0999 V2000
   14.3297  -13.0043  -12.1758 C   0  0  0  0  0  0  0  0  0  0  0  0
   15.3198  -12.4861  -11.2840 O   0  0  0  0  0  0  0  0  0  0  0  0
   14.9637  -13.9262  -13.2191 C   0  0  0  0  0  0  0  0  0  0  0  0
   16.3433  -13.5943  -13.3942 O   0  0  0  0  0  0  0  0  0  0  0  0
   14.1849  -13.5756  -14.4921 C   0  0  0  0  0  0  0  0  0  0  0  0
   13.1616  -12.6543  -14.0788 O   0  0  0  0  0  0  0  0  0  0  0  0
   13.8347  -11.8784  -13.0809 C   0  0  0  0  0  0  0  0  0  0  0  0
   16.0176  -12.0474  -11.7953 H   0  0  0  0  0  0  0  0  0  0  0  0
   16.4225  -12.6581  -13.6353 H   0  0  0  0  0  0  0  0  0  0  0  0
   12.9271  -11.0127  -12.2972 N   0  0  0  0  0  0  0  0  0  0  0  0
   11.6346  -11.2284  -12.0756 C   0  0  0  0  0  0  0  0  0  0  0  0
   11.1339  -10.1006  -11.4405 C   0  0  0  0  0  0  0  0  0  0  0  0
   12.1403   -9.2493  -11.2689 N   0  0  0  0  0  0  0  0  0  0  0  0
   13.2263   -9.8164  -11.7922 C   0  0  0  0  0  0  0  0  0  0  0  0
   10.9795  -12.3606  -12.3110 N   0  0  0  0  0  0  0  0  0  0  0  0
   11.4313  -13.1040  -12.7719 H   0  0  0  0  0  0  0  0  0  0  0  0
   10.0425  -12.4558  -12.0245 H   0  0  0  0  0  0  0  0  0  0  0  0
    9.6679   -9.8427  -11.0910 C   0  0  0  0  0  0  0  0  0  0  0  0
    8.8451  -10.7520  -11.3320 O   0  0  0  0  0  0  0  0  0  0  0  0
    9.3695   -8.7313  -10.6022 O   0  0  0  0  0  0  0  0  0  0  0  0
    9.1372  -11.5628  -11.6997 H   0  0  0  0  0  0  0  0  0  0  0  0
   13.5622  -14.8308  -15.1041 C   0  0  0  0  0  0  0  0  0  0  0  0
   13.9361  -14.9368  -16.4789 O   0  0  0  0  0  0  0  0  0  0  0  0
   14.9501  -16.0887  -16.9641 P   0  0  0  0  0  0  0  0  0  0  0  0
   16.4192  -15.6492  -16.4785 O   0  0  0  0  0  0  0  0  0  0  0  0
   14.5725  -17.4221  -16.4446 O   0  0  0  0  0  0  0  0  0  0  0  0
   14.9607  -16.0360  -18.5717 O   0  0  0  0  0  0  0  0  0  0  0  0
   15.2077  -18.0838  -16.7601 H   0  0  0  0  0  0  0  0  0  0  0  0
   15.5617  -16.7164  -18.9135 H   0  0  0  0  0  0  0  0  0  0  0  0
 24 25  2  0  0  0
 24 26  1  0  0  0
 24 27  1  0  0  0
 24 23  1  0  0  0
 23 22  1  0  0  0
  1  2  1  0  0  0
  1  3  1  0  0  0
  1  7  1  0  0  0
  3  4  1  0  0  0
  3  5  1  0  0  0
 22  5  1  0  0  0
  5  6  1  0  0  0
  6  7  1  0  0  0
  7 10  1  0  0  0
 10 11  1  0  0  0
 10 14  1  0  0  0
 11 12  2  0  0  0
 11 15  1  0  0  0
 12 13  1  0  0  0
 12 18  1  0  0  0
 13 14  2  0  0  0
 18 19  1  0  0  0
 18 20  2  0  0  0
 26 28  1  0  0  0
 27 29  1  0  0  0
  2  8  1  0  0  0
  4  9  1  0  0  0
 15 16  1  0  0  0
 15 17  1  0  0  0
 19 21  1  0  0  0
M  END
> <minimizedAffinity>
-7.54880

$$$$
2NSJ_C2R_A_242


 29 30  0  0  0  0  0  0  0  0999 V2000
   13.1794  -12.1980  -12.4838 C   0  0  0  0  0  0  0  0  0  0  0  0
   12.3552  -11.5192  -13.4346 O   0  0  0  0  0  0  0  0  0  0  0  0
   13.6716  -11.2349  -11.4020 C   0  0  0  0  0  0  0  0  0  0  0  0
   13.6747   -9.8953  -11.9016 O   0  0  0  0  0  0  0  0  0  0  0  0
   15.1137  -11.7008  -11.1709 C   0  0  0  0  0  0  0  0  0  0  0  0
   15.2733  -12.8810  -11.9761 O   0  0  0  0  0  0  0  0  0  0  0  0
   14.5085  -12.5596  -13.1433 C   0  0  0  0  0  0  0  0  0  0  0  0
   12.8394  -10.7626  -13.8004 H   0  0  0  0  0  0  0  0  0  0  0  0
   14.2155   -9.8514  -12.7056 H   0  0  0  0  0  0  0  0  0  0  0  0
   14.2874  -13.7157  -14.0389 N   0  0  0  0  0  0  0  0  0  0  0  0
   15.1727  -14.2337  -14.8839 C   0  0  0  0  0  0  0  0  0  0  0  0
   14.5082  -15.1908  -15.6378 C   0  0  0  0  0  0  0  0  0  0  0  0
   13.2511  -15.2463  -15.2090 N   0  0  0  0  0  0  0  0  0  0  0  0
   13.1298  -14.3458  -14.2348 C   0  0  0  0  0  0  0  0  0  0  0  0
   16.4743  -13.9670  -14.9130 N   0  0  0  0  0  0  0  0  0  0  0  0
   16.8457  -13.2632  -14.3333 H   0  0  0  0  0  0  0  0  0  0  0  0
   17.0672  -14.4732  -15.5142 H   0  0  0  0  0  0  0  0  0  0  0  0
   15.0917  -15.9701  -16.8167 C   0  0  0  0  0  0  0  0  0  0  0  0
   14.4904  -15.9048  -17.9104 O   0  0  0  0  0  0  0  0  0  0  0  0
   16.1256  -16.6446  -16.6183 O   0  0  0  0  0  0  0  0  0  0  0  0
   13.7191  -15.3788  -17.9903 H   0  0  0  0  0  0  0  0  0  0  0  0
   15.3443  -12.0229   -9.6941 C   0  0  0  0  0  0  0  0  0  0  0  0
   16.5699  -11.4346   -9.2549 O   0  0  0  0  0  0  0  0  0  0  0  0
   17.4872  -12.1769   -8.1604 P   0  0  0  0  0  0  0  0  0  0  0  0
   16.9491  -13.6887   -8.0514 O   0  0  0  0  0  0  0  0  0  0  0  0
   18.9250  -12.1260   -8.5079 O   0  0  0  0  0  0  0  0  0  0  0  0
   17.1707  -11.4718   -6.7498 O   0  0  0  0  0  0  0  0  0  0  0  0
   19.4392  -12.5834   -7.8242 H   0  0  0  0  0  0  0  0  0  0  0  0
   17.7033  -11.8875   -6.0538 H   0  0  0  0  0  0  0  0  0  0  0  0
 24 25  2  0  0  0
 24 26  1  0  0  0
 24 27  1  0  0  0
 24 23  1  0  0  0
 23 22  1  0  0  0
  1  2  1  0  0  0
  1  3  1  0  0  0
  1  7  1  0  0  0
  3  4  1  0  0  0
  3  5  1  0  0  0
 22  5  1  0  0  0
  5  6  1  0  0  0
  6  7  1  0  0  0
  7 10  1  0  0  0
 10 11  1  0  0  0
 10 14  1  0  0  0
 11 12  2  0  0  0
 11 15  1  0  0  0
 12 13  1  0  0  0
 12 18  1  0  0  0
 13 14  2  0  0  0
 18 19  1  0  0  0
 18 20  2  0  0  0
 26 28  1  0  0  0
 27 29  1  0  0  0
  2  8  1  0  0  0
  4  9  1  0  0  0
 15 16  1  0  0  0
 15 17  1  0  0  0
 19 21  1  0  0  0
M  END
> <minimizedAffinity>
-7.28125

$$$$
2NSJ_C2R_A_242


 29 30  0  0  0  0  0  0  0  0999 V2000
   14.2256  -13.1342  -12.3198 C   0  0  0  0  0  0  0  0  0  0  0  0
   15.2426  -12.5842  -11.4788 O   0  0  0  0  0  0  0  0  0  0  0  0
   14.8233  -14.1183  -13.3271 C   0  0  0  0  0  0  0  0  0  0  0  0
   16.2027  -13.8156  -13.5500 O   0  0  0  0  0  0  0  0  0  0  0  0
   14.0201  -13.8236  -14.5990 C   0  0  0  0  0  0  0  0  0  0  0  0
   13.0186  -12.8675  -14.2121 O   0  0  0  0  0  0  0  0  0  0  0  0
   13.7246  -12.0502  -13.2716 C   0  0  0  0  0  0  0  0  0  0  0  0
   15.9341  -12.1828  -12.0279 H   0  0  0  0  0  0  0  0  0  0  0  0
   16.2885  -12.8945  -13.8418 H   0  0  0  0  0  0  0  0  0  0  0  0
   12.8466  -11.1318  -12.5145 N   0  0  0  0  0  0  0  0  0  0  0  0
   12.4159   -9.9431  -12.9239 C   0  0  0  0  0  0  0  0  0  0  0  0
   11.7598   -9.3537  -11.8524 C   0  0  0  0  0  0  0  0  0  0  0  0
   11.7852  -10.2117  -10.8374 N   0  0  0  0  0  0  0  0  0  0  0  0
   12.4472  -11.2905  -11.2533 C   0  0  0  0  0  0  0  0  0  0  0  0
   12.4963   -9.4664  -14.1619 N   0  0  0  0  0  0  0  0  0  0  0  0
   12.9896   -9.9673  -14.8511 H   0  0  0  0  0  0  0  0  0  0  0  0
   12.0625   -8.6125  -14.3897 H   0  0  0  0  0  0  0  0  0  0  0  0
   11.1962   -7.9329  -11.8153 C   0  0  0  0  0  0  0  0  0  0  0  0
   11.9026   -7.0158  -12.2862 O   0  0  0  0  0  0  0  0  0  0  0  0
   10.0700   -7.7631  -11.2994 O   0  0  0  0  0  0  0  0  0  0  0  0
   12.7392   -7.2132  -12.6592 H   0  0  0  0  0  0  0  0  0  0  0  0
   13.3671  -15.1001  -15.1302 C   0  0  0  0  0  0  0  0  0  0  0  0
   14.3608  -16.1078  -15.3264 O   0  0  0  0  0  0  0  0  0  0  0  0
   15.3677  -16.0303  -16.5796 P   0  0  0  0  0  0  0  0  0  0  0  0
   14.5206  -15.4583  -17.8215 O   0  0  0  0  0  0  0  0  0  0  0  0
   16.5568  -15.1975  -16.2916 O   0  0  0  0  0  0  0  0  0  0  0  0
   15.7545  -17.5482  -16.9452 O   0  0  0  0  0  0  0  0  0  0  0  0
   17.1344  -15.1783  -17.0707 H   0  0  0  0  0  0  0  0  0  0  0  0
   16.3640  -17.5538  -17.6998 H   0  0  0  0  0  0  0  0  0  0  0  0
 24 25  2  0  0  0
 24 26  1  0  0  0
 24 27  1  0  0  0
 24 23  1  0  0  0
 23 22  1  0  0  0
  1  2  1  0  0  0
  1  3  1  0  0  0
  1  7  1  0  0  0
  3  4  1  0  0  0
  3  5  1  0  0  0
 22  5  1  0  0  0
  5  6  1  0  0  0
  6  7  1  0  0  0
  7 10  1  0  0  0
 10 11  1  0  0  0
 10 14  1  0  0  0
 11 12  2  0  0  0
 11 15  1  0  0  0
 12 13  1  0  0  0
 12 18  1  0  0  0
 13 14  2  0  0  0
 18 19  1  0  0  0
 18 20  2  0  0  0
 26 28  1  0  0  0
 27 29  1  0  0  0
  2  8  1  0  0  0
  4  9  1  0  0  0
 15 16  1  0  0  0
 15 17  1  0  0  0
 19 21  1  0  0  0
M  END
> <minimizedAffinity>
-7.21249

$$$$
2NSJ_C2R_A_242


 29 30  0  0  0  0  0  0  0  0999 V2000
   13.1325  -12.1366  -11.0029 C   0  0  0  0  0  0  0  0  0  0  0  0
   13.6435  -11.2085  -10.0429 O   0  0  0  0  0  0  0  0  0  0  0  0
   14.2721  -12.8364  -11.7459 C   0  0  0  0  0  0  0  0  0  0  0  0
   15.4483  -12.0242  -11.7178 O   0  0  0  0  0  0  0  0  0  0  0  0
   13.7365  -12.9163  -13.1800 C   0  0  0  0  0  0  0  0  0  0  0  0
   12.3893  -12.4181  -13.1187 O   0  0  0  0  0  0  0  0  0  0  0  0
   12.4978  -11.3631  -12.1564 C   0  0  0  0  0  0  0  0  0  0  0  0
   14.2412  -10.5842  -10.4831 H   0  0  0  0  0  0  0  0  0  0  0  0
   15.2478  -11.1518  -12.0915 H   0  0  0  0  0  0  0  0  0  0  0  0
   11.1895  -10.8407  -11.7059 N   0  0  0  0  0  0  0  0  0  0  0  0
   10.9875   -9.7273  -11.0091 C   0  0  0  0  0  0  0  0  0  0  0  0
    9.6441   -9.6992  -10.6618 C   0  0  0  0  0  0  0  0  0  0  0  0
    9.0664  -10.7775  -11.1821 N   0  0  0  0  0  0  0  0  0  0  0  0
   10.0164  -11.4628  -11.8167 C   0  0  0  0  0  0  0  0  0  0  0  0
   11.8809   -8.7673  -10.7933 N   0  0  0  0  0  0  0  0  0  0  0  0
   12.8142   -8.8896  -11.0816 H   0  0  0  0  0  0  0  0  0  0  0  0
   11.6093   -7.9338  -10.3452 H   0  0  0  0  0  0  0  0  0  0  0  0
    8.9709   -8.6652   -9.7589 C   0  0  0  0  0  0  0  0  0  0  0  0
    9.2634   -7.4629   -9.9348 O   0  0  0  0  0  0  0  0  0  0  0  0
    8.1809   -9.0792   -8.8826 O   0  0  0  0  0  0  0  0  0  0  0  0
    9.8643   -7.2212  -10.6118 H   0  0  0  0  0  0  0  0  0  0  0  0
   13.7526  -14.3612  -13.6800 C   0  0  0  0  0  0  0  0  0  0  0  0
   13.2059  -14.4244  -14.9984 O   0  0  0  0  0  0  0  0  0  0  0  0
   14.1720  -14.5570  -16.2788 P   0  0  0  0  0  0  0  0  0  0  0  0
   14.2637  -16.1237  -16.6314 O   0  0  0  0  0  0  0  0  0  0  0  0
   13.6902  -13.7594  -17.4286 O   0  0  0  0  0  0  0  0  0  0  0  0
   15.6372  -14.1077  -15.7901 O   0  0  0  0  0  0  0  0  0  0  0  0
   14.2996  -13.8679  -18.1754 H   0  0  0  0  0  0  0  0  0  0  0  0
   16.2590  -14.1711  -16.5319 H   0  0  0  0  0  0  0  0  0  0  0  0
 24 25  2  0  0  0
 24 26  1  0  0  0
 24 27  1  0  0  0
 24 23  1  0  0  0
 23 22  1  0  0  0
  1  2  1  0  0  0
  1  3  1  0  0  0
  1  7  1  0  0  0
  3  4  1  0  0  0
  3  5  1  0  0  0
 22  5  1  0  0  0
  5  6  1  0  0  0
  6  7  1  0  0  0
  7 10  1  0  0  0
 10 11  1  0  0  0
 10 14  1  0  0  0
 11 12  2  0  0  0
 11 15  1  0  0  0
 12 13  1  0  0  0
 12 18  1  0  0  0
 13 14  2  0  0  0
 18 19  1  0  0  0
 18 20  2  0  0  0
 26 28  1  0  0  0
 27 29  1  0  0  0
  2  8  1  0  0  0
  4  9  1  0  0  0
 15 16  1  0  0  0
 15 17  1  0  0  0
 19 21  1  0  0  0
M  END
> <minimizedAffinity>
-6.95741

$$$$
2NSJ_C2R_A_242


 29 30  0  0  0  0  0  0  0  0999 V2000
   14.3717   -9.4487  -11.4639 C   0  0  0  0  0  0  0  0  0  0  0  0
   15.1978   -8.2844  -11.5405 O   0  0  0  0  0  0  0  0  0  0  0  0
   13.0620   -9.2399  -12.2264 C   0  0  0  0  0  0  0  0  0  0  0  0
   12.7606   -7.8449  -12.3118 O   0  0  0  0  0  0  0  0  0  0  0  0
   12.0355   -9.9333  -11.3233 C   0  0  0  0  0  0  0  0  0  0  0  0
   12.7980  -10.5488  -10.2714 O   0  0  0  0  0  0  0  0  0  0  0  0
   13.8330   -9.5860  -10.0416 C   0  0  0  0  0  0  0  0  0  0  0  0
   14.7006   -7.5138  -11.2246 H   0  0  0  0  0  0  0  0  0  0  0  0
   12.7303   -7.4654  -11.4196 H   0  0  0  0  0  0  0  0  0  0  0  0
   14.9216  -10.0877   -9.1752 N   0  0  0  0  0  0  0  0  0  0  0  0
   15.2921  -11.3564   -9.0365 C   0  0  0  0  0  0  0  0  0  0  0  0
   16.2309  -11.3999   -8.0154 C   0  0  0  0  0  0  0  0  0  0  0  0
   16.4241  -10.1565   -7.5866 N   0  0  0  0  0  0  0  0  0  0  0  0
   15.6236   -9.3672   -8.3013 C   0  0  0  0  0  0  0  0  0  0  0  0
   14.9200  -12.3687   -9.8131 N   0  0  0  0  0  0  0  0  0  0  0  0
   14.2412  -12.2290  -10.5124 H   0  0  0  0  0  0  0  0  0  0  0  0
   15.3232  -13.2582   -9.6892 H   0  0  0  0  0  0  0  0  0  0  0  0
   16.8562  -12.6631   -7.4230 C   0  0  0  0  0  0  0  0  0  0  0  0
   17.0824  -12.6773   -6.1939 O   0  0  0  0  0  0  0  0  0  0  0  0
   17.1249  -13.6038   -8.2016 O   0  0  0  0  0  0  0  0  0  0  0  0
   16.8553  -11.9365   -5.6672 H   0  0  0  0  0  0  0  0  0  0  0  0
   11.2546  -10.9878  -12.1084 C   0  0  0  0  0  0  0  0  0  0  0  0
   12.1330  -11.6793  -12.9980 O   0  0  0  0  0  0  0  0  0  0  0  0
   12.7802  -13.0908  -12.5750 P   0  0  0  0  0  0  0  0  0  0  0  0
   14.3512  -13.0001  -12.9081 O   0  0  0  0  0  0  0  0  0  0  0  0
   12.5353  -13.4150  -11.1518 O   0  0  0  0  0  0  0  0  0  0  0  0
   12.1602  -14.1910  -13.5713 O   0  0  0  0  0  0  0  0  0  0  0  0
   12.9409  -14.2704  -10.9406 H   0  0  0  0  0  0  0  0  0  0  0  0
   12.5226  -15.0643  -13.3545 H   0  0  0  0  0  0  0  0  0  0  0  0
 24 25  2  0  0  0
 24 26  1  0  0  0
 24 27  1  0  0  0
 24 23  1  0  0  0
 23 22  1  0  0  0
  1  2  1  0  0  0
  1  3  1  0  0  0
  1  7  1  0  0  0
  3  4  1  0  0  0
  3  5  1  0  0  0
 22  5  1  0  0  0
  5  6  1  0  0  0
  6  7  1  0  0  0
  7 10  1  0  0  0
 10 11  1  0  0  0
 10 14  1  0  0  0
 11 12  2  0  0  0
 11 15  1  0  0  0
 12 13  1  0  0  0
 12 18  1  0  0  0
 13 14  2  0  0  0
 18 19  1  0  0  0
 18 20  2  0  0  0
 26 28  1  0  0  0
 27 29  1  0  0  0
  2  8  1  0  0  0
  4  9  1  0  0  0
 15 16  1  0  0  0
 15 17  1  0  0  0
 19 21  1  0  0  0
M  END
> <minimizedAffinity>
-6.54178

$$$$
