2AYR_L4G_A_201
  RCSB PDB12061705043D
Coordinates from PDB:2AYR:A:201 Model:1 without hydrogens
 37 41  0  0  0  0            999 V2000
   32.2070    0.4660   28.2400   C 0  0  0  0  0  0  0  0  0  0  0  0
   29.8570    1.3550   28.2530   C 0  0  0  0  0  0  0  0  0  0  0  0
   27.9180   -0.0290   27.6560   C 0  0  0  0  0  0  0  0  0  0  0  0
   28.2180   -2.4130   27.0040   C 0  0  0  0  0  0  0  0  0  0  0  0
   32.8720    1.6290   27.7200   C 0  0  0  0  0  0  0  0  0  0  0  0
   26.5200   -0.1610   27.4720   C 0  0  0  0  0  0  0  0  0  0  0  0
   32.6480   -3.1980   25.8070   C 0  0  0  0  0  0  0  0  0  0  0  0
   34.2670    1.8030   27.9250   C 0  0  0  0  0  0  0  0  0  0  0  0
   33.2880   -3.2900   24.5500   C 0  0  0  0  0  0  0  0  0  0  0  0
   31.9560   -1.3950   23.7080   C 0  0  0  0  0  0  0  0  0  0  0  0
   35.0090    0.8240   28.6360   C 0  0  0  0  0  0  0  0  0  0  0  0
   32.9480   -2.3840   23.4780   C 0  0  0  0  0  0  0  0  0  0  0  0
   30.2020   -1.0240   27.5980   C 0  0  0  0  0  0  0  0  0  0  0  0
   30.7510    0.2590   28.0310   C 0  0  0  0  0  0  0  0  0  0  0  0
   28.7900   -1.1620   27.4180   C 0  0  0  0  0  0  0  0  0  0  0  0
   31.0320   -2.1570   27.3520   O 0  0  0  0  0  0  0  0  0  0  0  0
   31.6570   -2.2140   26.0460   C 0  0  0  0  0  0  0  0  0  0  0  0
   32.9800   -0.5030   28.9590   C 0  0  0  0  0  0  0  0  0  0  0  0
   28.4600    1.2130   28.0670   C 0  0  0  0  0  0  0  0  0  0  0  0
   26.8220   -2.5290   26.8260   C 0  0  0  0  0  0  0  0  0  0  0  0
   31.3180   -1.3050   24.9650   C 0  0  0  0  0  0  0  0  0  0  0  0
   34.3670   -0.3240   29.1540   C 0  0  0  0  0  0  0  0  0  0  0  0
   25.9730   -1.4110   27.0580   C 0  0  0  0  0  0  0  0  0  0  0  0
   24.6510   -1.5330   26.8790   O 0  0  0  0  0  0  0  0  0  0  0  0
   36.7580    1.0300   28.9080   S 0  0  0  0  0  0  0  0  0  0  0  0
   33.5370   -2.4060   22.1890   O 0  0  0  0  0  0  0  0  0  0  0  0
   38.0420   -0.2180   28.5040   C 0  0  0  0  0  0  0  0  0  0  0  0
   36.9320    1.3850   30.3880   O 0  0  0  0  0  0  0  0  0  0  0  0
   37.1800    2.3840   28.3060   O 0  0  0  0  0  0  0  0  0  0  0  0
   34.2630   -3.5730   21.7600   C 0  0  0  0  0  0  0  0  0  0  0  0
   33.2780   -4.5520   21.0860   C 0  0  0  0  0  0  0  0  0  0  0  0
   32.5200   -4.1440   19.9020   N 0  0  0  0  0  0  0  0  0  0  0  0
   33.4010   -3.4750   18.9190   C 0  0  0  0  0  0  0  0  0  0  0  0
   31.3630   -3.2510   20.2030   C 0  0  0  0  0  0  0  0  0  0  0  0
   32.6540   -3.3240   17.5790   C 0  0  0  0  0  0  0  0  0  0  0  0
   30.4990   -3.0460   18.9390   C 0  0  0  0  0  0  0  0  0  0  0  0
   31.3680   -2.4930   17.7890   C 0  0  0  0  0  0  0  0  0  0  0  0
  1  5  1  0  0  0  0
  1 14  1  0  0  0  0
  1 18  2  0  0  0  0
  2 14  1  0  0  0  0
  2 19  2  0  0  0  0
  3  6  2  0  0  0  0
  3 15  1  0  0  0  0
  3 19  1  0  0  0  0
  4 15  2  0  0  0  0
  4 20  1  0  0  0  0
  5  8  2  0  0  0  0
  6 23  1  0  0  0  0
  7  9  2  0  0  0  0
  7 17  1  0  0  0  0
  8 11  1  0  0  0  0
  9 12  1  0  0  0  0
 10 12  2  0  0  0  0
 10 21  1  0  0  0  0
 11 22  2  0  0  0  0
 11 25  1  0  0  0  0
 12 26  1  0  0  0  0
 13 14  2  0  0  0  0
 13 15  1  0  0  0  0
 13 16  1  0  0  0  0
 16 17  1  0  0  0  0
 17 21  2  0  0  0  0
 18 22  1  0  0  0  0
 20 23  2  0  0  0  0
 23 24  1  0  0  0  0
 25 27  1  0  0  0  0
 25 28  2  0  0  0  0
 25 29  2  0  0  0  0
 26 30  1  0  0  0  0
 30 31  1  0  0  0  0
 31 32  1  0  0  0  0
 32 33  1  0  0  0  0
 32 34  1  0  0  0  0
 33 35  1  0  0  0  0
 34 36  1  0  0  0  0
 35 37  1  0  0  0  0
 36 37  1  0  0  0  0
A    1
C5
A    2
C6
A    3
C7
A    4
C8
A    5
C10
A    6
C13
A    7
C15
A    8
C17
A    9
C20
A   10
C21
A   11
C22
A   12
C24
A   13
C1
A   14
C2
A   15
C3
A   16
O4
A   17
C9
A   18
C11
A   19
C12
A   20
C14
A   21
C16
A   22
C18
A   23
C19
A   24
O23
A   25
S25
A   26
O26
A   27
C27
A   28
O28
A   29
O29
A   30
C30
A   31
C31
A   32
N32
A   33
C33
A   34
C34
A   35
C35
A   36
C36
A   37
C37
M  END
>  <InstanceId>
2AYR_L4G_A_201

>  <ChemCompId>
L4G

>  <PdbId>
2AYR

>  <ChainId>
A

>  <ResidueNumber>
201

>  <InsertionCode>


>  <Model>
1

>  <AltIds>


>  <MissingHeavyAtoms>
0

>  <ObservedFormula>
C30 N O5 S

>  <Name>
6-(4-METHYLSULFONYL-PHENYL)-5-[4-(2-PIPERIDIN-1-YLETHOXY)PHENOXY]NAPHTHALEN-2-OL

>  <SystematicName>
6-(4-methylsulfonylphenyl)-5-[4-(2-piperidin-1-ylethoxy)phenoxy]naphthalen-2-ol

>  <Synonyms>


>  <Type>
NON-POLYMER

>  <Formula>
C30 H31 N O5 S

>  <MolecularWeight>
517.636

>  <ModifiedDate>
2011-06-04

>  <Parent>


>  <OneLetterCode>


>  <SubcomponentList>


>  <AmbiguousFlag>
N

>  <InChI>
InChI=1S/C30H31NO5S/c1-37(33,34)27-13-5-22(6-14-27)28-15-7-23-21-24(32)8-16-29(23)30(28)36-26-11-9-25(10-12-26)35-20-19-31-17-3-2-4-18-31/h5-16,21,32H,2-4,17-20H2,1H3

>  <InChIKey>
NJVFOFMHUJJIMB-UHFFFAOYSA-N

>  <SMILES>
CS(=O)(=O)c1ccc(cc1)c2ccc3cc(ccc3c2Oc4ccc(cc4)OCCN5CCCCC5)O

$$$$
