4GBD_MCF_A_501
  RCSB PDB12061712413D
Coordinates from PDB:4GBD:A:501 Model:1 without hydrogens
 21 23  0  0  0  0            999 V2000
  -35.5780   -7.0800   34.8530   O 0  0  0  0  0  0  0  0  0  0  0  0
  -35.8050   -5.8390   35.5840   C 0  0  0  0  0  0  0  0  0  0  0  0
  -34.6410   -5.3150   36.4420   C 0  0  0  0  0  0  0  0  0  0  0  0
  -34.0390   -6.4000   37.1760   N 0  0  0  0  0  0  0  0  0  0  0  0
  -34.5740   -6.9340   38.2860   C 0  0  0  0  0  0  0  0  0  0  0  0
  -35.8160   -7.0470   38.5650   N 0  0  0  0  0  0  0  0  0  0  0  0
  -36.9180   -6.6400   37.8450   C 0  0  0  0  0  0  0  0  0  0  0  0
  -36.9290   -6.0630   36.4870   C 0  0  0  0  0  0  0  0  0  0  0  0
  -38.2360   -5.7820   36.2680   N 0  0  0  0  0  0  0  0  0  0  0  0
  -38.9560   -6.1350   37.3750   C 0  0  0  0  0  0  0  0  0  0  0  0
  -38.1440   -6.6500   38.3340   N 0  0  0  0  0  0  0  0  0  0  0  0
  -38.5820   -7.0930   39.6750   C 0  0  0  0  0  0  0  0  0  0  0  0
  -40.0820   -6.9430   39.8460   C 0  0  0  0  0  0  0  0  0  0  0  0
  -40.4370   -5.5960   40.1340   O 0  0  0  0  0  0  0  0  0  0  0  0
  -38.3700   -8.4710   39.7770   O 0  0  0  0  0  0  0  0  0  0  0  0
  -39.4080   -9.0550   40.5560   C 0  0  0  0  0  0  0  0  0  0  0  0
  -40.3870   -7.9590   40.9310   C 0  0  0  0  0  0  0  0  0  0  0  0
  -40.1130   -7.3130   42.1690   O 0  0  0  0  0  0  0  0  0  0  0  0
  -39.9100  -10.3440   39.9280   C 0  0  0  0  0  0  0  0  0  0  0  0
  -40.2260  -11.4770   41.2240   S 0  0  0  0  0  0  0  0  0  0  0  0
  -38.9150  -12.6430   41.1720   C 0  0  0  0  0  0  0  0  0  0  0  0
  2  1  1  0  0  0  0
  3  2  1  0  0  0  0
  2  8  1  0  0  0  0
  3  4  1  0  0  0  0
  4  5  1  0  0  0  0
  5  6  2  0  0  0  0
  6  7  1  0  0  0  0
  8  7  2  0  0  0  0
  7 11  1  0  0  0  0
  8  9  1  0  0  0  0
  9 10  2  0  0  0  0
 10 11  1  0  0  0  0
 11 12  1  0  0  0  0
 15 12  1  0  0  0  0
 12 13  1  0  0  0  0
 13 17  1  0  0  0  0
 13 14  1  0  0  0  0
 15 16  1  0  0  0  0
 19 16  1  0  0  0  0
 16 17  1  0  0  0  0
 17 18  1  0  0  0  0
 19 20  1  0  0  0  0
 20 21  1  0  0  0  0
A    1
O8
A    2
C8
A    3
C7
A    4
N6
A    5
C5
A    6
N4
A    7
C10
A    8
C9
A    9
N1
A   10
C2
A   11
N3
A   12
C1S
A   13
C2S
A   14
O2S
A   15
O4S
A   16
C4S
A   17
C3S
A   18
O3S
A   19
C5S
A   20
S5S
A   21
C6S
M  END
>  <InstanceId>
4GBD_MCF_A_501

>  <ChemCompId>
MCF

>  <PdbId>
4GBD

>  <ChainId>
A

>  <ResidueNumber>
501

>  <InsertionCode>


>  <Model>
1

>  <AltIds>


>  <MissingHeavyAtoms>
0

>  <ObservedFormula>
C12 N4 O4 S

>  <Name>
(8R)-3-(5-S-methyl-5-thio-beta-D-ribofuranosyl)-3,6,7,8-tetrahydroimidazo[4,5-d][1,3]diazepin-8-ol

>  <SystematicName>
(2R,3R,4S,5S)-2-[(8R)-8-hydroxy-7,8-dihydro-6H-imidazo[5,4-d][1,3]diazepin-3-yl]-5-(methylsulfanylmethyl)oxolane-3,4-diol

>  <Synonyms>


>  <Type>
NON-POLYMER

>  <Formula>
C12 H18 N4 O4 S

>  <MolecularWeight>
314.361

>  <ModifiedDate>
2011-06-04

>  <Parent>


>  <OneLetterCode>


>  <SubcomponentList>


>  <AmbiguousFlag>
N

>  <InChI>
InChI=1S/C12H18N4O4S/c1-21-3-7-9(18)10(19)12(20-7)16-5-15-8-6(17)2-13-4-14-11(8)16/h4-7,9-10,12,17-19H,2-3H2,1H3,(H,13,14)/t6-,7-,9-,10-,12-/m1/s1

>  <InChIKey>
QLPPCUVJNCMYFD-SANHVUMCSA-N

>  <SMILES>
CSC[C@@H]1[C@H]([C@H]([C@@H](O1)n2cnc3c2N=CNC[C@H]3O)O)O

$$$$
