4GBD_MCF_A_501


 25 27  0  0  0  0  0  0  0  0999 V2000
  -35.6874   -6.9279   35.0282 O   0  0  0  0  0  0  0  0  0  0  0  0
  -35.9715   -5.7133   35.7832 C   0  0  0  0  0  0  0  0  0  0  0  0
  -34.8156   -5.1209   36.6070 C   0  0  0  0  0  0  0  0  0  0  0  0
  -34.1158   -6.1705   37.3049 N   0  0  0  0  0  0  0  0  0  0  0  0
  -34.5735   -6.7518   38.4257 C   0  0  0  0  0  0  0  0  0  0  0  0
  -35.7942   -6.9521   38.7463 N   0  0  0  0  0  0  0  0  0  0  0  0
  -36.9462   -6.6131   38.0708 C   0  0  0  0  0  0  0  0  0  0  0  0
  -37.0447   -6.0232   36.7218 C   0  0  0  0  0  0  0  0  0  0  0  0
  -38.3747   -5.8294   36.5524 N   0  0  0  0  0  0  0  0  0  0  0  0
  -39.0292   -6.2427   37.6790 C   0  0  0  0  0  0  0  0  0  0  0  0
  -38.1505   -6.7119   38.6021 N   0  0  0  0  0  0  0  0  0  0  0  0
  -34.9752   -6.7545   34.3928 H   0  0  0  0  0  0  0  0  0  0  0  0
  -33.2548   -6.4780   36.9397 H   0  0  0  0  0  0  0  0  0  0  0  0
  -38.5093   -7.1984   39.9515 C   0  0  0  0  0  0  0  0  0  0  0  0
  -39.9343   -6.8253   40.3147 C   0  0  0  0  0  0  0  0  0  0  0  0
  -40.0214   -5.4704   40.7392 O   0  0  0  0  0  0  0  0  0  0  0  0
  -38.5253   -8.5961   39.9283 O   0  0  0  0  0  0  0  0  0  0  0  0
  -39.5568   -9.0737   40.7845 C   0  0  0  0  0  0  0  0  0  0  0  0
  -40.2883   -7.8731   41.3535 C   0  0  0  0  0  0  0  0  0  0  0  0
  -39.7755   -7.3945   42.5917 O   0  0  0  0  0  0  0  0  0  0  0  0
  -39.4182   -5.3259   41.4850 H   0  0  0  0  0  0  0  0  0  0  0  0
  -38.8370   -7.1721   42.4887 H   0  0  0  0  0  0  0  0  0  0  0  0
  -40.3361  -10.2029   40.1322 C   0  0  0  0  0  0  0  0  0  0  0  0
  -40.5295  -11.4706   41.3233 S   0  0  0  0  0  0  0  0  0  0  0  0
  -39.0246  -12.3739   41.3111 C   0  0  0  0  0  0  0  0  0  0  0  0
  2  1  1  0  0  0
  3  2  1  0  0  0
  2  8  1  0  0  0
  3  4  1  0  0  0
  4  5  1  0  0  0
  5  6  2  0  0  0
  6  7  1  0  0  0
  8  7  2  0  0  0
  7 11  1  0  0  0
  8  9  1  0  0  0
  9 10  2  0  0  0
 10 11  1  0  0  0
 11 14  1  0  0  0
 17 14  1  0  0  0
 14 15  1  0  0  0
 15 19  1  0  0  0
 15 16  1  0  0  0
 17 18  1  0  0  0
 23 18  1  0  0  0
 18 19  1  0  0  0
 19 20  1  0  0  0
 23 24  1  0  0  0
 24 25  1  0  0  0
  1 12  1  0  0  0
  4 13  1  0  0  0
 16 21  1  0  0  0
 20 22  1  0  0  0
M  END
> <minimizedAffinity>
-9.34396

$$$$
