4Z84_NVX_A_401


 27 30  0  0  0  0  0  0  0  0999 V2000
  -25.4089   -6.9800   22.2420 C   0  0  0  0  0  0  0  0  0  0  0  0
  -23.8681   -6.8370   22.1930 C   0  0  0  0  0  0  0  0  0  0  0  0
  -23.5709   -5.5137   21.6320 N   0  0  0  0  0  0  0  0  0  0  0  0
  -24.7737   -5.0792   20.9038 C   0  0  0  0  0  0  0  0  0  0  0  0
  -25.8351   -6.1953   20.9695 C   0  0  0  0  0  0  0  0  0  0  0  0
  -22.7769   -5.5731   20.9943 H   0  0  0  0  0  0  0  0  0  0  0  0
  -25.7832   -9.2690   21.2246 C   0  0  0  0  0  0  0  0  0  0  0  0
  -25.9638  -10.6480   21.3783 C   0  0  0  0  0  0  0  0  0  0  0  0
  -25.8366  -11.4578   20.2473 N   0  0  0  0  0  0  0  0  0  0  0  0
  -25.9165  -12.7587   20.4412 C   0  0  0  0  0  0  0  0  0  0  0  0
  -26.1177  -13.3516   21.6385 N   0  0  0  0  0  0  0  0  0  0  0  0
  -26.2940  -12.6342   22.8080 C   0  0  0  0  0  0  0  0  0  0  0  0
  -26.4604  -13.1861   23.8922 O   0  0  0  0  0  0  0  0  0  0  0  0
  -26.2212  -11.1746   22.6502 C   0  0  0  0  0  0  0  0  0  0  0  0
  -26.3625  -10.3163   23.7376 C   0  0  0  0  0  0  0  0  0  0  0  0
  -26.1860   -8.9575   23.5682 C   0  0  0  0  0  0  0  0  0  0  0  0
  -25.8578   -8.4232   22.3325 C   0  0  0  0  0  0  0  0  0  0  0  0
  -26.1396  -14.3349   21.6803 H   0  0  0  0  0  0  0  0  0  0  0  0
  -27.2498   -5.6429   21.0136 C   0  0  0  0  0  0  0  0  0  0  0  0
  -27.9284   -5.7740   22.0195 O   0  0  0  0  0  0  0  0  0  0  0  0
  -27.7782   -4.9268   19.8171 C   0  0  0  0  0  0  0  0  0  0  0  0
  -26.9652   -4.3984   18.8144 C   0  0  0  0  0  0  0  0  0  0  0  0
  -27.5546   -3.7638   17.7388 C   0  0  0  0  0  0  0  0  0  0  0  0
  -26.5455   -3.0242   16.5366 Cl  0  0  0  0  0  0  0  0  0  0  0  0
  -28.9220   -3.6620   17.6061 C   0  0  0  0  0  0  0  0  0  0  0  0
  -29.7242   -4.1790   18.6069 C   0  0  0  0  0  0  0  0  0  0  0  0
  -29.1594   -4.7991   19.7055 C   0  0  0  0  0  0  0  0  0  0  0  0
  7  8  1  0  0  0
  7 17  2  0  0  0
  8  9  1  0  0  0
  8 14  2  0  0  0
  9 10  2  0  0  0
 10 11  1  0  0  0
 11 12  1  0  0  0
 12 13  2  0  0  0
 12 14  1  0  0  0
 14 15  1  0  0  0
 15 16  2  0  0  0
 16 17  1  0  0  0
 17  1  1  0  0  0
  1  2  1  0  0  0
  1  5  1  0  0  0
  2  3  1  0  0  0
  3  4  1  0  0  0
  4  5  1  0  0  0
  5 19  1  0  0  0
 19 20  2  0  0  0
 19 21  1  0  0  0
 21 22  1  0  0  0
 21 27  2  0  0  0
 22 23  2  0  0  0
 23 24  1  0  0  0
 23 25  1  0  0  0
 25 26  2  0  0  0
 26 27  1  0  0  0
 11 18  1  0  0  0
  3  6  1  0  0  0
M  END
> <minimizedAffinity>
-10.71063

$$$$
4Z84_NVX_A_401


 27 30  0  0  0  0  0  0  0  0999 V2000
  -24.4254   -5.0999   21.1657 C   0  0  0  0  0  0  0  0  0  0  0  0
  -23.1352   -4.7161   21.9305 C   0  0  0  0  0  0  0  0  0  0  0  0
  -23.1820   -5.3937   23.2316 N   0  0  0  0  0  0  0  0  0  0  0  0
  -24.5911   -5.7345   23.4845 C   0  0  0  0  0  0  0  0  0  0  0  0
  -25.4560   -5.2016   22.3250 C   0  0  0  0  0  0  0  0  0  0  0  0
  -22.8342   -4.7736   23.9630 H   0  0  0  0  0  0  0  0  0  0  0  0
  -25.5872   -4.5034   18.9955 C   0  0  0  0  0  0  0  0  0  0  0  0
  -26.0778   -3.5374   18.1100 C   0  0  0  0  0  0  0  0  0  0  0  0
  -26.9451   -3.9539   17.0974 N   0  0  0  0  0  0  0  0  0  0  0  0
  -27.4652   -3.0089   16.3405 C   0  0  0  0  0  0  0  0  0  0  0  0
  -27.2142   -1.6877   16.4706 N   0  0  0  0  0  0  0  0  0  0  0  0
  -26.3408   -1.1820   17.4166 C   0  0  0  0  0  0  0  0  0  0  0  0
  -26.1338    0.0227   17.5344 O   0  0  0  0  0  0  0  0  0  0  0  0
  -25.7246   -2.1938   18.2867 C   0  0  0  0  0  0  0  0  0  0  0  0
  -24.8357   -1.8405   19.2988 C   0  0  0  0  0  0  0  0  0  0  0  0
  -24.3569   -2.8065   20.1612 C   0  0  0  0  0  0  0  0  0  0  0  0
  -24.7517   -4.1300   20.0496 C   0  0  0  0  0  0  0  0  0  0  0  0
  -27.6719   -1.0588   15.8671 H   0  0  0  0  0  0  0  0  0  0  0  0
  -26.6460   -6.1002   22.0338 C   0  0  0  0  0  0  0  0  0  0  0  0
  -27.7054   -5.6162   21.6691 O   0  0  0  0  0  0  0  0  0  0  0  0
  -26.4854   -7.5750   22.1845 C   0  0  0  0  0  0  0  0  0  0  0  0
  -26.1240   -8.4215   21.1364 C   0  0  0  0  0  0  0  0  0  0  0  0
  -25.9885   -9.7735   21.3833 C   0  0  0  0  0  0  0  0  0  0  0  0
  -25.6301  -10.8421   20.0641 Cl  0  0  0  0  0  0  0  0  0  0  0  0
  -26.1679  -10.3117   22.6386 C   0  0  0  0  0  0  0  0  0  0  0  0
  -26.5353   -9.4706   23.6730 C   0  0  0  0  0  0  0  0  0  0  0  0
  -26.6998   -8.1167   23.4483 C   0  0  0  0  0  0  0  0  0  0  0  0
  7  8  1  0  0  0
  7 17  2  0  0  0
  8  9  1  0  0  0
  8 14  2  0  0  0
  9 10  2  0  0  0
 10 11  1  0  0  0
 11 12  1  0  0  0
 12 13  2  0  0  0
 12 14  1  0  0  0
 14 15  1  0  0  0
 15 16  2  0  0  0
 16 17  1  0  0  0
 17  1  1  0  0  0
  1  2  1  0  0  0
  1  5  1  0  0  0
  2  3  1  0  0  0
  3  4  1  0  0  0
  4  5  1  0  0  0
  5 19  1  0  0  0
 19 20  2  0  0  0
 19 21  1  0  0  0
 21 22  1  0  0  0
 21 27  2  0  0  0
 22 23  2  0  0  0
 23 24  1  0  0  0
 23 25  1  0  0  0
 25 26  2  0  0  0
 26 27  1  0  0  0
 11 18  1  0  0  0
  3  6  1  0  0  0
M  END
> <minimizedAffinity>
-9.84113

$$$$
4Z84_NVX_A_401


 27 30  0  0  0  0  0  0  0  0999 V2000
  -24.0571   -4.5746   21.1538 C   0  0  0  0  0  0  0  0  0  0  0  0
  -23.2150   -4.2286   22.4058 C   0  0  0  0  0  0  0  0  0  0  0  0
  -23.7161   -5.0553   23.5103 N   0  0  0  0  0  0  0  0  0  0  0  0
  -25.0747   -5.4830   23.1404 C   0  0  0  0  0  0  0  0  0  0  0  0
  -25.4505   -4.8552   21.7834 C   0  0  0  0  0  0  0  0  0  0  0  0
  -23.7421   -4.5108   24.3724 H   0  0  0  0  0  0  0  0  0  0  0  0
  -23.6023   -3.7937   18.7877 C   0  0  0  0  0  0  0  0  0  0  0  0
  -23.7836   -2.8549   17.7661 C   0  0  0  0  0  0  0  0  0  0  0  0
  -23.4143   -3.2159   16.4683 N   0  0  0  0  0  0  0  0  0  0  0  0
  -23.6861   -2.3482   15.5146 C   0  0  0  0  0  0  0  0  0  0  0  0
  -24.2806   -1.1500   15.7053 N   0  0  0  0  0  0  0  0  0  0  0  0
  -24.6471   -0.6877   16.9564 C   0  0  0  0  0  0  0  0  0  0  0  0
  -25.2011    0.3969   17.1139 O   0  0  0  0  0  0  0  0  0  0  0  0
  -24.3610   -1.6136   18.0615 C   0  0  0  0  0  0  0  0  0  0  0  0
  -24.6863   -1.2990   19.3785 C   0  0  0  0  0  0  0  0  0  0  0  0
  -24.4967   -2.2349   20.3757 C   0  0  0  0  0  0  0  0  0  0  0  0
  -23.9956   -3.4955   20.0933 C   0  0  0  0  0  0  0  0  0  0  0  0
  -24.4603   -0.5824   14.9212 H   0  0  0  0  0  0  0  0  0  0  0  0
  -26.3449   -5.7633   20.9566 C   0  0  0  0  0  0  0  0  0  0  0  0
  -26.2600   -6.9756   21.0692 O   0  0  0  0  0  0  0  0  0  0  0  0
  -27.3327   -5.1444   20.0267 C   0  0  0  0  0  0  0  0  0  0  0  0
  -26.9770   -4.5064   18.8384 C   0  0  0  0  0  0  0  0  0  0  0  0
  -27.9706   -3.9764   18.0390 C   0  0  0  0  0  0  0  0  0  0  0  0
  -27.5274   -3.1014   16.6077 Cl  0  0  0  0  0  0  0  0  0  0  0  0
  -29.3060   -4.0838   18.3600 C   0  0  0  0  0  0  0  0  0  0  0  0
  -29.6539   -4.7088   19.5435 C   0  0  0  0  0  0  0  0  0  0  0  0
  -28.6779   -5.2281   20.3732 C   0  0  0  0  0  0  0  0  0  0  0  0
  7  8  1  0  0  0
  7 17  2  0  0  0
  8  9  1  0  0  0
  8 14  2  0  0  0
  9 10  2  0  0  0
 10 11  1  0  0  0
 11 12  1  0  0  0
 12 13  2  0  0  0
 12 14  1  0  0  0
 14 15  1  0  0  0
 15 16  2  0  0  0
 16 17  1  0  0  0
 17  1  1  0  0  0
  1  2  1  0  0  0
  1  5  1  0  0  0
  2  3  1  0  0  0
  3  4  1  0  0  0
  4  5  1  0  0  0
  5 19  1  0  0  0
 19 20  2  0  0  0
 19 21  1  0  0  0
 21 22  1  0  0  0
 21 27  2  0  0  0
 22 23  2  0  0  0
 23 24  1  0  0  0
 23 25  1  0  0  0
 25 26  2  0  0  0
 26 27  1  0  0  0
 11 18  1  0  0  0
  3  6  1  0  0  0
M  END
> <minimizedAffinity>
-9.82673

$$$$
4Z84_NVX_A_401


 27 30  0  0  0  0  0  0  0  0999 V2000
  -25.2473   -5.9846   22.1578 C   0  0  0  0  0  0  0  0  0  0  0  0
  -25.5809   -5.0656   23.3582 C   0  0  0  0  0  0  0  0  0  0  0  0
  -25.2986   -5.8264   24.5812 N   0  0  0  0  0  0  0  0  0  0  0  0
  -25.3010   -7.2499   24.2080 C   0  0  0  0  0  0  0  0  0  0  0  0
  -25.6507   -7.3798   22.7122 C   0  0  0  0  0  0  0  0  0  0  0  0
  -26.0184   -5.6458   25.2809 H   0  0  0  0  0  0  0  0  0  0  0  0
  -27.3144   -5.5538   20.7591 C   0  0  0  0  0  0  0  0  0  0  0  0
  -27.9347   -4.9168   19.6786 C   0  0  0  0  0  0  0  0  0  0  0  0
  -29.3305   -4.9201   19.6266 N   0  0  0  0  0  0  0  0  0  0  0  0
  -29.8861   -4.2307   18.6507 C   0  0  0  0  0  0  0  0  0  0  0  0
  -29.2081   -3.5392   17.7085 N   0  0  0  0  0  0  0  0  0  0  0  0
  -27.8263   -3.5077   17.6536 C   0  0  0  0  0  0  0  0  0  0  0  0
  -27.2225   -2.8623   16.8011 O   0  0  0  0  0  0  0  0  0  0  0  0
  -27.1518   -4.2667   18.7164 C   0  0  0  0  0  0  0  0  0  0  0  0
  -25.7631   -4.3180   18.8062 C   0  0  0  0  0  0  0  0  0  0  0  0
  -25.1666   -4.9548   19.8761 C   0  0  0  0  0  0  0  0  0  0  0  0
  -25.9237   -5.5405   20.8780 C   0  0  0  0  0  0  0  0  0  0  0  0
  -29.7187   -3.0369   17.0331 H   0  0  0  0  0  0  0  0  0  0  0  0
  -24.9393   -8.5497   22.0538 C   0  0  0  0  0  0  0  0  0  0  0  0
  -23.9074   -8.3668   21.4282 O   0  0  0  0  0  0  0  0  0  0  0  0
  -25.5156   -9.9168   22.2043 C   0  0  0  0  0  0  0  0  0  0  0  0
  -25.4761  -10.8841   21.2001 C   0  0  0  0  0  0  0  0  0  0  0  0
  -26.0277  -12.1264   21.4444 C   0  0  0  0  0  0  0  0  0  0  0  0
  -26.0636  -13.3013   20.1680 Cl  0  0  0  0  0  0  0  0  0  0  0  0
  -26.5889  -12.4541   22.6590 C   0  0  0  0  0  0  0  0  0  0  0  0
  -26.6346  -11.4893   23.6487 C   0  0  0  0  0  0  0  0  0  0  0  0
  -26.1101  -10.2305   23.4228 C   0  0  0  0  0  0  0  0  0  0  0  0
  7  8  1  0  0  0
  7 17  2  0  0  0
  8  9  1  0  0  0
  8 14  2  0  0  0
  9 10  2  0  0  0
 10 11  1  0  0  0
 11 12  1  0  0  0
 12 13  2  0  0  0
 12 14  1  0  0  0
 14 15  1  0  0  0
 15 16  2  0  0  0
 16 17  1  0  0  0
 17  1  1  0  0  0
  1  2  1  0  0  0
  1  5  1  0  0  0
  2  3  1  0  0  0
  3  4  1  0  0  0
  4  5  1  0  0  0
  5 19  1  0  0  0
 19 20  2  0  0  0
 19 21  1  0  0  0
 21 22  1  0  0  0
 21 27  2  0  0  0
 22 23  2  0  0  0
 23 24  1  0  0  0
 23 25  1  0  0  0
 25 26  2  0  0  0
 26 27  1  0  0  0
 11 18  1  0  0  0
  3  6  1  0  0  0
M  END
> <minimizedAffinity>
-9.77982

$$$$
4Z84_NVX_A_401


 27 30  0  0  0  0  0  0  0  0999 V2000
  -24.7138   -5.8912   22.3818 C   0  0  0  0  0  0  0  0  0  0  0  0
  -25.3342   -5.1258   23.5760 C   0  0  0  0  0  0  0  0  0  0  0  0
  -25.5057   -6.0895   24.6696 N   0  0  0  0  0  0  0  0  0  0  0  0
  -25.4998   -7.4298   24.0617 C   0  0  0  0  0  0  0  0  0  0  0  0
  -25.3747   -7.2902   22.5315 C   0  0  0  0  0  0  0  0  0  0  0  0
  -26.3919   -5.9246   25.1469 H   0  0  0  0  0  0  0  0  0  0  0  0
  -23.9153   -4.3873   20.5067 C   0  0  0  0  0  0  0  0  0  0  0  0
  -24.0204   -3.9391   19.1853 C   0  0  0  0  0  0  0  0  0  0  0  0
  -22.9674   -3.1860   18.6609 N   0  0  0  0  0  0  0  0  0  0  0  0
  -23.0518   -2.8611   17.3867 C   0  0  0  0  0  0  0  0  0  0  0  0
  -24.0744   -3.1949   16.5693 N   0  0  0  0  0  0  0  0  0  0  0  0
  -25.1791   -3.9045   17.0049 C   0  0  0  0  0  0  0  0  0  0  0  0
  -26.0944   -4.2150   16.2475 O   0  0  0  0  0  0  0  0  0  0  0  0
  -25.1421   -4.2887   18.4232 C   0  0  0  0  0  0  0  0  0  0  0  0
  -26.1731   -5.0206   19.0069 C   0  0  0  0  0  0  0  0  0  0  0  0
  -26.0560   -5.4512   20.3135 C   0  0  0  0  0  0  0  0  0  0  0  0
  -24.9219   -5.1793   21.0617 C   0  0  0  0  0  0  0  0  0  0  0  0
  -24.0317   -2.9218   15.6244 H   0  0  0  0  0  0  0  0  0  0  0  0
  -24.5846   -8.4305   21.9119 C   0  0  0  0  0  0  0  0  0  0  0  0
  -23.4100   -8.2747   21.6191 O   0  0  0  0  0  0  0  0  0  0  0  0
  -25.2661   -9.7380   21.6893 C   0  0  0  0  0  0  0  0  0  0  0  0
  -25.5709  -10.6322   22.7154 C   0  0  0  0  0  0  0  0  0  0  0  0
  -26.2165  -11.8130   22.4054 C   0  0  0  0  0  0  0  0  0  0  0  0
  -26.5147  -12.9694   23.6643 Cl  0  0  0  0  0  0  0  0  0  0  0  0
  -26.5987  -12.1246   21.1191 C   0  0  0  0  0  0  0  0  0  0  0  0
  -26.2863  -11.2397   20.1033 C   0  0  0  0  0  0  0  0  0  0  0  0
  -25.6204  -10.0612   20.3829 C   0  0  0  0  0  0  0  0  0  0  0  0
  7  8  1  0  0  0
  7 17  2  0  0  0
  8  9  1  0  0  0
  8 14  2  0  0  0
  9 10  2  0  0  0
 10 11  1  0  0  0
 11 12  1  0  0  0
 12 13  2  0  0  0
 12 14  1  0  0  0
 14 15  1  0  0  0
 15 16  2  0  0  0
 16 17  1  0  0  0
 17  1  1  0  0  0
  1  2  1  0  0  0
  1  5  1  0  0  0
  2  3  1  0  0  0
  3  4  1  0  0  0
  4  5  1  0  0  0
  5 19  1  0  0  0
 19 20  2  0  0  0
 19 21  1  0  0  0
 21 22  1  0  0  0
 21 27  2  0  0  0
 22 23  2  0  0  0
 23 24  1  0  0  0
 23 25  1  0  0  0
 25 26  2  0  0  0
 26 27  1  0  0  0
 11 18  1  0  0  0
  3  6  1  0  0  0
M  END
> <minimizedAffinity>
-9.63176

$$$$
4Z84_NVX_A_401


 27 30  0  0  0  0  0  0  0  0999 V2000
  -25.0376   -1.7769   16.5306 C   0  0  0  0  0  0  0  0  0  0  0  0
  -24.1499   -1.9357   15.2722 C   0  0  0  0  0  0  0  0  0  0  0  0
  -25.0477   -2.1258   14.1267 N   0  0  0  0  0  0  0  0  0  0  0  0
  -26.3393   -2.5785   14.6677 C   0  0  0  0  0  0  0  0  0  0  0  0
  -26.2224   -2.7266   16.1978 C   0  0  0  0  0  0  0  0  0  0  0  0
  -24.6659   -2.8295   13.4947 H   0  0  0  0  0  0  0  0  0  0  0  0
  -24.1589   -1.0741   18.7998 C   0  0  0  0  0  0  0  0  0  0  0  0
  -23.6821   -1.4110   20.0715 C   0  0  0  0  0  0  0  0  0  0  0  0
  -23.6158   -0.4036   21.0368 N   0  0  0  0  0  0  0  0  0  0  0  0
  -23.2549   -0.7715   22.2495 C   0  0  0  0  0  0  0  0  0  0  0  0
  -22.9422   -2.0344   22.6140 N   0  0  0  0  0  0  0  0  0  0  0  0
  -22.9407   -3.0916   21.7218 C   0  0  0  0  0  0  0  0  0  0  0  0
  -22.6697   -4.2376   22.0698 O   0  0  0  0  0  0  0  0  0  0  0  0
  -23.3300   -2.7377   20.3494 C   0  0  0  0  0  0  0  0  0  0  0  0
  -23.3926   -3.6950   19.3399 C   0  0  0  0  0  0  0  0  0  0  0  0
  -23.8609   -3.3452   18.0891 C   0  0  0  0  0  0  0  0  0  0  0  0
  -24.2841   -2.0547   17.8143 C   0  0  0  0  0  0  0  0  0  0  0  0
  -22.7057   -2.2095   23.5535 H   0  0  0  0  0  0  0  0  0  0  0  0
  -27.5211   -2.3882   16.9100 C   0  0  0  0  0  0  0  0  0  0  0  0
  -28.1124   -1.3531   16.6484 O   0  0  0  0  0  0  0  0  0  0  0  0
  -28.0612   -3.3502   17.9132 C   0  0  0  0  0  0  0  0  0  0  0  0
  -27.2873   -3.9306   18.9181 C   0  0  0  0  0  0  0  0  0  0  0  0
  -27.8868   -4.8007   19.8073 C   0  0  0  0  0  0  0  0  0  0  0  0
  -26.9101   -5.5962   21.0006 Cl  0  0  0  0  0  0  0  0  0  0  0  0
  -29.2323   -5.0916   19.7551 C   0  0  0  0  0  0  0  0  0  0  0  0
  -29.9942   -4.5214   18.7517 C   0  0  0  0  0  0  0  0  0  0  0  0
  -29.4145   -3.6648   17.8347 C   0  0  0  0  0  0  0  0  0  0  0  0
  7  8  1  0  0  0
  7 17  2  0  0  0
  8  9  1  0  0  0
  8 14  2  0  0  0
  9 10  2  0  0  0
 10 11  1  0  0  0
 11 12  1  0  0  0
 12 13  2  0  0  0
 12 14  1  0  0  0
 14 15  1  0  0  0
 15 16  2  0  0  0
 16 17  1  0  0  0
 17  1  1  0  0  0
  1  2  1  0  0  0
  1  5  1  0  0  0
  2  3  1  0  0  0
  3  4  1  0  0  0
  4  5  1  0  0  0
  5 19  1  0  0  0
 19 20  2  0  0  0
 19 21  1  0  0  0
 21 22  1  0  0  0
 21 27  2  0  0  0
 22 23  2  0  0  0
 23 24  1  0  0  0
 23 25  1  0  0  0
 25 26  2  0  0  0
 26 27  1  0  0  0
 11 18  1  0  0  0
  3  6  1  0  0  0
M  END
> <minimizedAffinity>
-9.55386

$$$$
4Z84_NVX_A_401


 27 30  0  0  0  0  0  0  0  0999 V2000
  -27.9880   -4.8833   18.8851 C   0  0  0  0  0  0  0  0  0  0  0  0
  -29.4393   -4.9003   19.4237 C   0  0  0  0  0  0  0  0  0  0  0  0
  -30.2737   -4.1852   18.4507 N   0  0  0  0  0  0  0  0  0  0  0  0
  -29.3701   -3.3407   17.6532 C   0  0  0  0  0  0  0  0  0  0  0  0
  -27.9317   -3.4961   18.1856 C   0  0  0  0  0  0  0  0  0  0  0  0
  -30.9593   -3.6057   18.9351 H   0  0  0  0  0  0  0  0  0  0  0  0
  -26.6698   -6.4395   20.3870 C   0  0  0  0  0  0  0  0  0  0  0  0
  -25.5577   -6.6840   21.2002 C   0  0  0  0  0  0  0  0  0  0  0  0
  -25.2825   -8.0059   21.5576 N   0  0  0  0  0  0  0  0  0  0  0  0
  -24.1761   -8.2138   22.2424 C   0  0  0  0  0  0  0  0  0  0  0  0
  -23.3088   -7.2500   22.6225 N   0  0  0  0  0  0  0  0  0  0  0  0
  -23.5142   -5.9094   22.3500 C   0  0  0  0  0  0  0  0  0  0  0  0
  -22.7098   -5.0451   22.6877 O   0  0  0  0  0  0  0  0  0  0  0  0
  -24.7393   -5.6172   21.5923 C   0  0  0  0  0  0  0  0  0  0  0  0
  -25.0772   -4.3167   21.2268 C   0  0  0  0  0  0  0  0  0  0  0  0
  -26.1807   -4.0920   20.4279 C   0  0  0  0  0  0  0  0  0  0  0  0
  -26.9613   -5.1403   19.9679 C   0  0  0  0  0  0  0  0  0  0  0  0
  -22.4971   -7.5127   23.1137 H   0  0  0  0  0  0  0  0  0  0  0  0
  -26.8940   -3.3885   17.0811 C   0  0  0  0  0  0  0  0  0  0  0  0
  -27.2147   -3.5731   15.9181 O   0  0  0  0  0  0  0  0  0  0  0  0
  -25.4915   -3.0369   17.4458 C   0  0  0  0  0  0  0  0  0  0  0  0
  -25.1407   -1.8649   18.1160 C   0  0  0  0  0  0  0  0  0  0  0  0
  -23.8127   -1.6387   18.4199 C   0  0  0  0  0  0  0  0  0  0  0  0
  -23.3603   -0.1410   19.1701 Cl  0  0  0  0  0  0  0  0  0  0  0  0
  -22.8242   -2.5471   18.1110 C   0  0  0  0  0  0  0  0  0  0  0  0
  -23.1749   -3.7034   17.4383 C   0  0  0  0  0  0  0  0  0  0  0  0
  -24.4938   -3.9440   17.1019 C   0  0  0  0  0  0  0  0  0  0  0  0
  7  8  1  0  0  0
  7 17  2  0  0  0
  8  9  1  0  0  0
  8 14  2  0  0  0
  9 10  2  0  0  0
 10 11  1  0  0  0
 11 12  1  0  0  0
 12 13  2  0  0  0
 12 14  1  0  0  0
 14 15  1  0  0  0
 15 16  2  0  0  0
 16 17  1  0  0  0
 17  1  1  0  0  0
  1  2  1  0  0  0
  1  5  1  0  0  0
  2  3  1  0  0  0
  3  4  1  0  0  0
  4  5  1  0  0  0
  5 19  1  0  0  0
 19 20  2  0  0  0
 19 21  1  0  0  0
 21 22  1  0  0  0
 21 27  2  0  0  0
 22 23  2  0  0  0
 23 24  1  0  0  0
 23 25  1  0  0  0
 25 26  2  0  0  0
 26 27  1  0  0  0
 11 18  1  0  0  0
  3  6  1  0  0  0
M  END
> <minimizedAffinity>
-9.44583

$$$$
4Z84_NVX_A_401


 27 30  0  0  0  0  0  0  0  0999 V2000
  -25.5069   -5.8017   22.0348 C   0  0  0  0  0  0  0  0  0  0  0  0
  -24.1337   -5.5189   22.6914 C   0  0  0  0  0  0  0  0  0  0  0  0
  -23.6119   -4.2832   22.0956 N   0  0  0  0  0  0  0  0  0  0  0  0
  -24.3188   -4.0938   20.8187 C   0  0  0  0  0  0  0  0  0  0  0  0
  -25.2734   -5.2822   20.5884 C   0  0  0  0  0  0  0  0  0  0  0  0
  -22.6088   -4.3688   21.9321 H   0  0  0  0  0  0  0  0  0  0  0  0
  -25.8317   -8.1349   21.1044 C   0  0  0  0  0  0  0  0  0  0  0  0
  -25.9927   -9.5095   21.3105 C   0  0  0  0  0  0  0  0  0  0  0  0
  -25.8376  -10.3612   20.2143 N   0  0  0  0  0  0  0  0  0  0  0  0
  -25.8997  -11.6545   20.4587 C   0  0  0  0  0  0  0  0  0  0  0  0
  -26.1076  -12.2028   21.6760 N   0  0  0  0  0  0  0  0  0  0  0  0
  -26.3109  -11.4427   22.8137 C   0  0  0  0  0  0  0  0  0  0  0  0
  -26.4831  -11.9539   23.9168 O   0  0  0  0  0  0  0  0  0  0  0  0
  -26.2588   -9.9895   22.5990 C   0  0  0  0  0  0  0  0  0  0  0  0
  -26.4282   -9.0912   23.6495 C   0  0  0  0  0  0  0  0  0  0  0  0
  -26.2707   -7.7375   23.4285 C   0  0  0  0  0  0  0  0  0  0  0  0
  -25.9344   -7.2473   22.1768 C   0  0  0  0  0  0  0  0  0  0  0  0
  -26.1147  -13.1840   21.7566 H   0  0  0  0  0  0  0  0  0  0  0  0
  -26.5384   -4.8708   19.8541 C   0  0  0  0  0  0  0  0  0  0  0  0
  -27.6278   -5.0015   20.3886 O   0  0  0  0  0  0  0  0  0  0  0  0
  -26.4175   -4.2917   18.4854 C   0  0  0  0  0  0  0  0  0  0  0  0
  -25.3082   -4.4856   17.6622 C   0  0  0  0  0  0  0  0  0  0  0  0
  -25.2997   -3.9162   16.4041 C   0  0  0  0  0  0  0  0  0  0  0  0
  -23.8847   -4.0768   15.4129 Cl  0  0  0  0  0  0  0  0  0  0  0  0
  -26.3646   -3.1877   15.9211 C   0  0  0  0  0  0  0  0  0  0  0  0
  -27.4584   -2.9899   16.7438 C   0  0  0  0  0  0  0  0  0  0  0  0
  -27.4832   -3.5297   18.0160 C   0  0  0  0  0  0  0  0  0  0  0  0
  7  8  1  0  0  0
  7 17  2  0  0  0
  8  9  1  0  0  0
  8 14  2  0  0  0
  9 10  2  0  0  0
 10 11  1  0  0  0
 11 12  1  0  0  0
 12 13  2  0  0  0
 12 14  1  0  0  0
 14 15  1  0  0  0
 15 16  2  0  0  0
 16 17  1  0  0  0
 17  1  1  0  0  0
  1  2  1  0  0  0
  1  5  1  0  0  0
  2  3  1  0  0  0
  3  4  1  0  0  0
  4  5  1  0  0  0
  5 19  1  0  0  0
 19 20  2  0  0  0
 19 21  1  0  0  0
 21 22  1  0  0  0
 21 27  2  0  0  0
 22 23  2  0  0  0
 23 24  1  0  0  0
 23 25  1  0  0  0
 25 26  2  0  0  0
 26 27  1  0  0  0
 11 18  1  0  0  0
  3  6  1  0  0  0
M  END
> <minimizedAffinity>
-9.43796

$$$$
4Z84_NVX_A_401


 27 30  0  0  0  0  0  0  0  0999 V2000
  -28.2404   -4.3799   18.2782 C   0  0  0  0  0  0  0  0  0  0  0  0
  -29.4725   -4.2055   19.1992 C   0  0  0  0  0  0  0  0  0  0  0  0
  -30.4507   -3.3907   18.4689 N   0  0  0  0  0  0  0  0  0  0  0  0
  -29.7096   -2.6740   17.4187 C   0  0  0  0  0  0  0  0  0  0  0  0
  -28.2106   -3.0143   17.5361 C   0  0  0  0  0  0  0  0  0  0  0  0
  -30.8950   -2.7251   19.1013 H   0  0  0  0  0  0  0  0  0  0  0  0
  -25.9443   -3.8579   19.2111 C   0  0  0  0  0  0  0  0  0  0  0  0
  -24.9137   -4.1325   20.1169 C   0  0  0  0  0  0  0  0  0  0  0  0
  -23.9113   -3.1740   20.2826 N   0  0  0  0  0  0  0  0  0  0  0  0
  -23.0090   -3.4186   21.2112 C   0  0  0  0  0  0  0  0  0  0  0  0
  -22.9840   -4.5188   21.9950 N   0  0  0  0  0  0  0  0  0  0  0  0
  -23.9095   -5.5404   21.8796 C   0  0  0  0  0  0  0  0  0  0  0  0
  -23.8845   -6.5279   22.6092 O   0  0  0  0  0  0  0  0  0  0  0  0
  -24.9383   -5.3240   20.8525 C   0  0  0  0  0  0  0  0  0  0  0  0
  -25.9497   -6.2544   20.6269 C   0  0  0  0  0  0  0  0  0  0  0  0
  -26.9566   -5.9701   19.7260 C   0  0  0  0  0  0  0  0  0  0  0  0
  -26.9913   -4.7654   19.0423 C   0  0  0  0  0  0  0  0  0  0  0  0
  -22.2778   -4.5967   22.6765 H   0  0  0  0  0  0  0  0  0  0  0  0
  -27.5197   -3.0467   16.1833 C   0  0  0  0  0  0  0  0  0  0  0  0
  -28.1395   -3.3789   15.1858 O   0  0  0  0  0  0  0  0  0  0  0  0
  -26.0850   -2.6487   16.1005 C   0  0  0  0  0  0  0  0  0  0  0  0
  -25.1006   -3.4359   15.5030 C   0  0  0  0  0  0  0  0  0  0  0  0
  -23.8010   -2.9702   15.4662 C   0  0  0  0  0  0  0  0  0  0  0  0
  -22.5574   -3.9853   14.8076 Cl  0  0  0  0  0  0  0  0  0  0  0  0
  -23.4483   -1.7385   15.9725 C   0  0  0  0  0  0  0  0  0  0  0  0
  -24.4254   -0.9652   16.5724 C   0  0  0  0  0  0  0  0  0  0  0  0
  -25.7296   -1.4174   16.6429 C   0  0  0  0  0  0  0  0  0  0  0  0
  7  8  1  0  0  0
  7 17  2  0  0  0
  8  9  1  0  0  0
  8 14  2  0  0  0
  9 10  2  0  0  0
 10 11  1  0  0  0
 11 12  1  0  0  0
 12 13  2  0  0  0
 12 14  1  0  0  0
 14 15  1  0  0  0
 15 16  2  0  0  0
 16 17  1  0  0  0
 17  1  1  0  0  0
  1  2  1  0  0  0
  1  5  1  0  0  0
  2  3  1  0  0  0
  3  4  1  0  0  0
  4  5  1  0  0  0
  5 19  1  0  0  0
 19 20  2  0  0  0
 19 21  1  0  0  0
 21 22  1  0  0  0
 21 27  2  0  0  0
 22 23  2  0  0  0
 23 24  1  0  0  0
 23 25  1  0  0  0
 25 26  2  0  0  0
 26 27  1  0  0  0
 11 18  1  0  0  0
  3  6  1  0  0  0
M  END
> <minimizedAffinity>
-9.37170

$$$$
4Z84_NVX_A_401


 27 30  0  0  0  0  0  0  0  0999 V2000
  -24.5662   -5.2254   21.2479 C   0  0  0  0  0  0  0  0  0  0  0  0
  -23.4084   -4.5625   22.0332 C   0  0  0  0  0  0  0  0  0  0  0  0
  -23.5340   -4.9841   23.4335 N   0  0  0  0  0  0  0  0  0  0  0  0
  -24.9247   -5.4270   23.6224 C   0  0  0  0  0  0  0  0  0  0  0  0
  -25.7034   -5.2221   22.3077 C   0  0  0  0  0  0  0  0  0  0  0  0
  -23.3272   -4.2024   24.0552 H   0  0  0  0  0  0  0  0  0  0  0  0
  -23.9606   -3.5982   19.4038 C   0  0  0  0  0  0  0  0  0  0  0  0
  -24.1144   -3.1462   18.0885 C   0  0  0  0  0  0  0  0  0  0  0  0
  -23.1669   -2.2514   17.5859 N   0  0  0  0  0  0  0  0  0  0  0  0
  -23.2842   -1.9196   16.3161 C   0  0  0  0  0  0  0  0  0  0  0  0
  -24.2474   -2.3726   15.4838 N   0  0  0  0  0  0  0  0  0  0  0  0
  -25.2512   -3.2296   15.8980 C   0  0  0  0  0  0  0  0  0  0  0  0
  -26.1116   -3.6462   15.1272 O   0  0  0  0  0  0  0  0  0  0  0  0
  -25.1741   -3.6289   17.3104 C   0  0  0  0  0  0  0  0  0  0  0  0
  -26.1030   -4.5005   17.8730 C   0  0  0  0  0  0  0  0  0  0  0  0
  -25.9395   -4.9333   19.1738 C   0  0  0  0  0  0  0  0  0  0  0  0
  -24.8572   -4.5257   19.9370 C   0  0  0  0  0  0  0  0  0  0  0  0
  -24.2343   -2.0807   14.5437 H   0  0  0  0  0  0  0  0  0  0  0  0
  -26.7661   -6.2871   22.0958 C   0  0  0  0  0  0  0  0  0  0  0  0
  -27.9248   -5.9647   21.8886 O   0  0  0  0  0  0  0  0  0  0  0  0
  -26.3607   -7.7217   22.1280 C   0  0  0  0  0  0  0  0  0  0  0  0
  -26.6747   -8.5875   23.1756 C   0  0  0  0  0  0  0  0  0  0  0  0
  -26.2633   -9.9039   23.1032 C   0  0  0  0  0  0  0  0  0  0  0  0
  -26.5706  -10.9607   24.4446 Cl  0  0  0  0  0  0  0  0  0  0  0  0
  -25.5792  -10.4000   22.0153 C   0  0  0  0  0  0  0  0  0  0  0  0
  -25.2617   -9.5363   20.9830 C   0  0  0  0  0  0  0  0  0  0  0  0
  -25.6416   -8.2085   21.0405 C   0  0  0  0  0  0  0  0  0  0  0  0
  7  8  1  0  0  0
  7 17  2  0  0  0
  8  9  1  0  0  0
  8 14  2  0  0  0
  9 10  2  0  0  0
 10 11  1  0  0  0
 11 12  1  0  0  0
 12 13  2  0  0  0
 12 14  1  0  0  0
 14 15  1  0  0  0
 15 16  2  0  0  0
 16 17  1  0  0  0
 17  1  1  0  0  0
  1  2  1  0  0  0
  1  5  1  0  0  0
  2  3  1  0  0  0
  3  4  1  0  0  0
  4  5  1  0  0  0
  5 19  1  0  0  0
 19 20  2  0  0  0
 19 21  1  0  0  0
 21 22  1  0  0  0
 21 27  2  0  0  0
 22 23  2  0  0  0
 23 24  1  0  0  0
 23 25  1  0  0  0
 25 26  2  0  0  0
 26 27  1  0  0  0
 11 18  1  0  0  0
  3  6  1  0  0  0
M  END
> <minimizedAffinity>
-9.24851

$$$$
