4Z84_NVX_A_401
  RCSB PDB12061716353D
Coordinates from PDB:4Z84:A:401 Model:1 without hydrogens
 25 28  0  0  0  0            999 V2000
  -25.5669  -10.1614   21.1908   C 0  0  0  0  0  0  0  0  0  0  0  0
  -25.7999  -11.5411   21.1789   C 0  0  0  0  0  0  0  0  0  0  0  0
  -25.7234  -12.2102   19.9552   N 0  0  0  0  0  0  0  0  0  0  0  0
  -25.8520  -13.5211   19.9906   C 0  0  0  0  0  0  0  0  0  0  0  0
  -26.0573  -14.2484   21.1106   N 0  0  0  0  0  0  0  0  0  0  0  0
  -26.1860  -13.6738   22.3623   C 0  0  0  0  0  0  0  0  0  0  0  0
  -26.3567  -14.3479   23.3744   O 0  0  0  0  0  0  0  0  0  0  0  0
  -26.0575  -12.2097   22.3822   C 0  0  0  0  0  0  0  0  0  0  0  0
  -26.1469  -11.4865   23.5689   C 0  0  0  0  0  0  0  0  0  0  0  0
  -25.9190  -10.1248   23.5628   C 0  0  0  0  0  0  0  0  0  0  0  0
  -25.5898   -9.4557   22.3949   C 0  0  0  0  0  0  0  0  0  0  0  0
  -25.0851   -8.0302   22.4718   C 0  0  0  0  0  0  0  0  0  0  0  0
  -23.5394   -7.9453   22.4894   C 0  0  0  0  0  0  0  0  0  0  0  0
  -23.1730   -6.5840   22.0809   N 0  0  0  0  0  0  0  0  0  0  0  0
  -24.3310   -6.0280   21.3628   C 0  0  0  0  0  0  0  0  0  0  0  0
  -25.4344   -7.1011   21.2754   C 0  0  0  0  0  0  0  0  0  0  0  0
  -26.8285   -6.4995   21.3302   C 0  0  0  0  0  0  0  0  0  0  0  0
  -27.5200   -6.6436   22.3255   O 0  0  0  0  0  0  0  0  0  0  0  0
  -27.3204   -5.7202   20.1579   C 0  0  0  0  0  0  0  0  0  0  0  0
  -28.5488   -5.0599   20.1326   C 0  0  0  0  0  0  0  0  0  0  0  0
  -28.9065   -4.3532   19.0013   C 0  0  0  0  0  0  0  0  0  0  0  0
  -30.4718   -3.6080   18.9296  Cl 0  0  0  0  0  0  0  0  0  0  0  0
  -28.0765   -4.2518   17.9065   C 0  0  0  0  0  0  0  0  0  0  0  0
  -26.8636   -4.9156   17.9319   C 0  0  0  0  0  0  0  0  0  0  0  0
  -26.4909   -5.6488   19.0428   C 0  0  0  0  0  0  0  0  0  0  0  0
  1  2  1  0  0  0  0
  1 11  2  0  0  0  0
  2  3  1  0  0  0  0
  2  8  2  0  0  0  0
  3  4  2  0  0  0  0
  4  5  1  0  0  0  0
  5  6  1  0  0  0  0
  6  7  2  0  0  0  0
  6  8  1  0  0  0  0
  8  9  1  0  0  0  0
  9 10  2  0  0  0  0
 10 11  1  0  0  0  0
 11 12  1  0  0  0  0
 12 13  1  0  0  0  0
 12 16  1  0  0  0  0
 13 14  1  0  0  0  0
 14 15  1  0  0  0  0
 15 16  1  0  0  0  0
 16 17  1  0  0  0  0
 17 18  2  0  0  0  0
 17 19  1  0  0  0  0
 19 20  1  0  0  0  0
 19 25  2  0  0  0  0
 20 21  2  0  0  0  0
 21 22  1  0  0  0  0
 21 23  1  0  0  0  0
 23 24  2  0  0  0  0
 24 25  1  0  0  0  0
A    1
CAK
A    2
CAV
A    3
NAO
A    4
CAI
A    5
NAP
A    6
CAU
A    7
OAB
A    8
CAW
A    9
CAH
A   10
CAG
A   11
CAT
A   12
CAY
A   13
CAM
A   14
NAN
A   15
CAL
A   16
CAX
A   17
CAQ
A   18
OAA
A   19
CAS
A   20
CAJ
A   21
CAR
A   22
CL
A   23
CAE
A   24
CAD
A   25
CAF
M  END
>  <InstanceId>
4Z84_NVX_A_401

>  <ChemCompId>
NVX

>  <PdbId>
4Z84

>  <ChainId>
A

>  <ResidueNumber>
401

>  <InsertionCode>


>  <Model>
1

>  <AltIds>


>  <MissingHeavyAtoms>
0

>  <ObservedFormula>
C19 N3 O2 Cl

>  <Name>
7-[(3S,4R)-4-(3-chlorophenyl)carbonylpyrrolidin-3-yl]-3H-quinazolin-4-one

>  <SystematicName>
7-[(3S,4R)-4-(3-chlorophenyl)carbonylpyrrolidin-3-yl]-3H-quinazolin-4-one

>  <Synonyms>


>  <Type>
non-polymer

>  <Formula>
C19 H16 Cl N3 O2

>  <MolecularWeight>
353.802

>  <ModifiedDate>
2015-11-27

>  <Parent>


>  <OneLetterCode>


>  <SubcomponentList>


>  <AmbiguousFlag>
N

>  <InChI>
InChI=1S/C19H16ClN3O2/c20-13-3-1-2-12(6-13)18(24)16-9-21-8-15(16)11-4-5-14-17(7-11)22-10-23-19(14)25/h1-7,10,15-16,21H,8-9H2,(H,22,23,25)/t15-,16+/m1/s1

>  <InChIKey>
SWYGPPMJBPTZSH-CVEARBPZSA-N

>  <SMILES>
c1cc(cc(c1)Cl)C(=O)[C@H]2CNC[C@@H]2c3ccc4c(c3)N=CNC4=O

$$$$
