3O9I_A61_A_200


 44 48  0  0  0  0  0  0  0  0999 V2000
   19.9612   29.2890   15.4914 C   0  0  0  0  0  0  0  0  0  0  0  0
   20.0552   28.1968   16.4269 O   0  0  0  0  0  0  0  0  0  0  0  0
   19.1905   27.7646   16.5072 H   0  0  0  0  0  0  0  0  0  0  0  0
   18.9523   30.3058   16.0421 C   0  0  0  0  0  0  0  0  0  0  0  0
   19.2209   31.6327   15.4595 N   0  0  0  0  0  0  0  0  0  0  0  0
   17.9756   32.3373   14.6760 S   0  0  0  0  0  0  0  0  0  0  0  0
   18.5388   33.2354   13.7302 O   0  0  0  0  0  0  0  0  0  0  0  0
   17.1649   31.3128   14.1408 O   0  0  0  0  0  0  0  0  0  0  0  0
   15.8271   36.5116   18.9544 C   0  0  0  0  0  0  0  0  0  0  0  0
   15.2243   35.3135   18.8657 N   0  0  0  0  0  0  0  0  0  0  0  0
   17.1260   36.7725   17.8274 S   0  0  0  0  0  0  0  0  0  0  0  0
   15.7626   34.5292   17.8836 C   0  0  0  0  0  0  0  0  0  0  0  0
   16.8128   35.1962   17.2527 C   0  0  0  0  0  0  0  0  0  0  0  0
   17.4877   34.5280   16.2116 C   0  0  0  0  0  0  0  0  0  0  0  0
   17.1455   33.2134   15.7961 C   0  0  0  0  0  0  0  0  0  0  0  0
   16.0688   32.5915   16.4345 C   0  0  0  0  0  0  0  0  0  0  0  0
   15.4010   33.2571   17.4574 C   0  0  0  0  0  0  0  0  0  0  0  0
   20.0223   32.5530   16.3009 C   0  0  0  0  0  0  0  0  0  0  0  0
   21.5300   32.4406   16.0653 C   0  0  0  0  0  0  0  0  0  0  0  0
   21.9625   32.6765   14.6142 C   0  0  0  0  0  0  0  0  0  0  0  0
   23.4369   32.4028   14.3869 C   0  0  0  0  0  0  0  0  0  0  0  0
   22.2419   33.3810   17.0583 C   0  0  0  0  0  0  0  0  0  0  0  0
   21.8868   34.8494   16.9218 C   0  0  0  0  0  0  0  0  0  0  0  0
   19.5915   28.7467   14.1022 C   0  0  0  0  0  0  0  0  0  0  0  0
   20.6783   27.9048   13.6414 N   0  0  0  0  0  0  0  0  0  0  0  0
   21.8069   28.3360   13.1185 C   0  0  0  0  0  0  0  0  0  0  0  0
   22.2016   29.4683   12.9606 O   0  0  0  0  0  0  0  0  0  0  0  0
   20.5627   26.9308   13.7265 H   0  0  0  0  0  0  0  0  0  0  0  0
   22.6387   27.2444   12.7425 O   0  0  0  0  0  0  0  0  0  0  0  0
   23.4902   27.4300   11.6185 C   0  0  0  0  0  0  0  0  0  0  0  0
   24.8011   26.7777   12.0310 C   0  0  0  0  0  0  0  0  0  0  0  0
   24.5645   25.3873   11.8687 O   0  0  0  0  0  0  0  0  0  0  0  0
   23.6450   25.1706   10.8114 C   0  0  0  0  0  0  0  0  0  0  0  0
   22.6302   24.2745   11.2214 O   0  0  0  0  0  0  0  0  0  0  0  0
   21.3621   24.9229   11.3125 C   0  0  0  0  0  0  0  0  0  0  0  0
   21.5088   26.2150   10.5224 C   0  0  0  0  0  0  0  0  0  0  0  0
   23.0004   26.5118   10.5194 C   0  0  0  0  0  0  0  0  0  0  0  0
   18.2957   27.9280   14.0601 C   0  0  0  0  0  0  0  0  0  0  0  0
   17.9535   26.1645   12.2970 C   0  0  0  0  0  0  0  0  0  0  0  0
   17.6904   25.7742   10.9847 C   0  0  0  0  0  0  0  0  0  0  0  0
   17.3977   26.7370   10.0290 C   0  0  0  0  0  0  0  0  0  0  0  0
   17.3901   28.0840   10.3673 C   0  0  0  0  0  0  0  0  0  0  0  0
   17.6694   28.4808   11.6661 C   0  0  0  0  0  0  0  0  0  0  0  0
   17.9745   27.5194   12.6335 C   0  0  0  0  0  0  0  0  0  0  0  0
  9 10  2  0  0  0
  9 11  1  0  0  0
 10 12  1  0  0  0
 11 13  1  0  0  0
 12 13  2  0  0  0
 12 17  1  0  0  0
 13 14  1  0  0  0
 14 15  2  0  0  0
 15 16  1  0  0  0
 15  6  1  0  0  0
 16 17  2  0  0  0
  6  7  2  0  0  0
  6  8  2  0  0  0
  6  5  1  0  0  0
  5 18  1  0  0  0
  5  4  1  0  0  0
 18 19  1  0  0  0
 19 20  1  0  0  0
 19 22  1  0  0  0
 20 21  1  0  0  0
 22 23  1  0  0  0
  4  1  1  0  0  0
  1  2  1  0  0  0
  1 24  1  0  0  0
 24 25  1  0  0  0
 24 38  1  0  0  0
 25 26  1  0  0  0
 26 27  2  0  0  0
 26 29  1  0  0  0
 29 30  1  0  0  0
 30 31  1  0  0  0
 30 37  1  0  0  0
 31 32  1  0  0  0
 32 33  1  0  0  0
 33 34  1  0  0  0
 33 37  1  0  0  0
 34 35  1  0  0  0
 35 36  1  0  0  0
 36 37  1  0  0  0
 38 44  1  0  0  0
 39 40  2  0  0  0
 39 44  1  0  0  0
 40 41  1  0  0  0
 41 42  2  0  0  0
 42 43  1  0  0  0
 43 44  2  0  0  0
  2  3  1  0  0  0
 25 28  1  0  0  0
M  END
> <minimizedAffinity>
-10.26947

$$$$
3O9I_A61_A_200


 44 48  0  0  0  0  0  0  0  0999 V2000
   20.5661   31.3355   16.3470 C   0  0  0  0  0  0  0  0  0  0  0  0
   20.8866   30.5883   17.5370 O   0  0  0  0  0  0  0  0  0  0  0  0
   21.8323   30.6808   17.7319 H   0  0  0  0  0  0  0  0  0  0  0  0
   21.3688   30.7449   15.1800 C   0  0  0  0  0  0  0  0  0  0  0  0
   20.4438   30.1931   14.1741 N   0  0  0  0  0  0  0  0  0  0  0  0
   20.8923   30.3674   12.6154 S   0  0  0  0  0  0  0  0  0  0  0  0
   19.7022   30.5557   11.8625 O   0  0  0  0  0  0  0  0  0  0  0  0
   21.8316   31.4193   12.5498 O   0  0  0  0  0  0  0  0  0  0  0  0
   22.2967   24.5182   10.5758 C   0  0  0  0  0  0  0  0  0  0  0  0
   23.2259   25.1979   11.2696 N   0  0  0  0  0  0  0  0  0  0  0  0
   20.8092   25.3745   10.2942 S   0  0  0  0  0  0  0  0  0  0  0  0
   22.8059   26.4523   11.6155 C   0  0  0  0  0  0  0  0  0  0  0  0
   21.5058   26.6702   11.1596 C   0  0  0  0  0  0  0  0  0  0  0  0
   20.9113   27.9181   11.4340 C   0  0  0  0  0  0  0  0  0  0  0  0
   21.5786   28.9425   12.1572 C   0  0  0  0  0  0  0  0  0  0  0  0
   22.8904   28.6945   12.5712 C   0  0  0  0  0  0  0  0  0  0  0  0
   23.4759   27.4637   12.2927 C   0  0  0  0  0  0  0  0  0  0  0  0
   19.8495   28.8755   14.5028 C   0  0  0  0  0  0  0  0  0  0  0  0
   18.3195   28.8832   14.5253 C   0  0  0  0  0  0  0  0  0  0  0  0
   17.6934   30.2808   14.4695 C   0  0  0  0  0  0  0  0  0  0  0  0
   17.0005   30.6681   15.7619 C   0  0  0  0  0  0  0  0  0  0  0  0
   17.8187   27.9618   13.3951 C   0  0  0  0  0  0  0  0  0  0  0  0
   17.1001   28.6669   12.2605 C   0  0  0  0  0  0  0  0  0  0  0  0
   20.8384   32.8283   16.5874 C   0  0  0  0  0  0  0  0  0  0  0  0
   19.6301   33.4288   17.1181 N   0  0  0  0  0  0  0  0  0  0  0  0
   18.5967   33.8209   16.4030 C   0  0  0  0  0  0  0  0  0  0  0  0
   18.4011   33.7269   15.2131 O   0  0  0  0  0  0  0  0  0  0  0  0
   19.5782   33.5536   18.0933 H   0  0  0  0  0  0  0  0  0  0  0  0
   17.5965   34.3974   17.2348 O   0  0  0  0  0  0  0  0  0  0  0  0
   16.2616   34.4000   16.7437 C   0  0  0  0  0  0  0  0  0  0  0  0
   15.4850   33.5864   17.7679 C   0  0  0  0  0  0  0  0  0  0  0  0
   15.2953   34.4821   18.8530 O   0  0  0  0  0  0  0  0  0  0  0  0
   15.2007   35.8131   18.3740 C   0  0  0  0  0  0  0  0  0  0  0  0
   16.0428   36.6651   19.1263 O   0  0  0  0  0  0  0  0  0  0  0  0
   17.1280   37.1578   18.3413 C   0  0  0  0  0  0  0  0  0  0  0  0
   16.7215   36.9239   16.8938 C   0  0  0  0  0  0  0  0  0  0  0  0
   15.7053   35.7934   16.9441 C   0  0  0  0  0  0  0  0  0  0  0  0
   21.9886   33.1196   17.5586 C   0  0  0  0  0  0  0  0  0  0  0  0
   21.9744   34.9765   19.2576 C   0  0  0  0  0  0  0  0  0  0  0  0
   21.9703   36.3279   19.6005 C   0  0  0  0  0  0  0  0  0  0  0  0
   22.0643   37.2883   18.6031 C   0  0  0  0  0  0  0  0  0  0  0  0
   22.1370   36.9111   17.2685 C   0  0  0  0  0  0  0  0  0  0  0  0
   22.1225   35.5694   16.9187 C   0  0  0  0  0  0  0  0  0  0  0  0
   22.0187   34.5951   17.9153 C   0  0  0  0  0  0  0  0  0  0  0  0
  9 10  2  0  0  0
  9 11  1  0  0  0
 10 12  1  0  0  0
 11 13  1  0  0  0
 12 13  2  0  0  0
 12 17  1  0  0  0
 13 14  1  0  0  0
 14 15  2  0  0  0
 15 16  1  0  0  0
 15  6  1  0  0  0
 16 17  2  0  0  0
  6  7  2  0  0  0
  6  8  2  0  0  0
  6  5  1  0  0  0
  5 18  1  0  0  0
  5  4  1  0  0  0
 18 19  1  0  0  0
 19 20  1  0  0  0
 19 22  1  0  0  0
 20 21  1  0  0  0
 22 23  1  0  0  0
  4  1  1  0  0  0
  1  2  1  0  0  0
  1 24  1  0  0  0
 24 25  1  0  0  0
 24 38  1  0  0  0
 25 26  1  0  0  0
 26 27  2  0  0  0
 26 29  1  0  0  0
 29 30  1  0  0  0
 30 31  1  0  0  0
 30 37  1  0  0  0
 31 32  1  0  0  0
 32 33  1  0  0  0
 33 34  1  0  0  0
 33 37  1  0  0  0
 34 35  1  0  0  0
 35 36  1  0  0  0
 36 37  1  0  0  0
 38 44  1  0  0  0
 39 40  2  0  0  0
 39 44  1  0  0  0
 40 41  1  0  0  0
 41 42  2  0  0  0
 42 43  1  0  0  0
 43 44  2  0  0  0
  2  3  1  0  0  0
 25 28  1  0  0  0
M  END
> <minimizedAffinity>
-9.51599

$$$$
3O9I_A61_A_200


 44 48  0  0  0  0  0  0  0  0999 V2000
   18.6325   30.0602   15.0001 C   0  0  0  0  0  0  0  0  0  0  0  0
   17.5292   29.8793   15.9095 O   0  0  0  0  0  0  0  0  0  0  0  0
   17.8699   29.6761   16.7947 H   0  0  0  0  0  0  0  0  0  0  0  0
   19.4195   28.7444   14.9341 C   0  0  0  0  0  0  0  0  0  0  0  0
   19.3705   28.2083   13.5621 N   0  0  0  0  0  0  0  0  0  0  0  0
   17.9043   28.2001   12.8473 S   0  0  0  0  0  0  0  0  0  0  0  0
   16.9762   27.7315   13.8156 O   0  0  0  0  0  0  0  0  0  0  0  0
   17.6611   29.4958   12.3422 O   0  0  0  0  0  0  0  0  0  0  0  0
   18.0078   25.0146    7.3530 C   0  0  0  0  0  0  0  0  0  0  0  0
   17.8540   24.3225    8.4950 N   0  0  0  0  0  0  0  0  0  0  0  0
   18.1987   26.7324    7.5479 S   0  0  0  0  0  0  0  0  0  0  0  0
   17.8849   25.1258    9.6010 C   0  0  0  0  0  0  0  0  0  0  0  0
   18.0520   26.4590    9.2262 C   0  0  0  0  0  0  0  0  0  0  0  0
   18.1019   27.4295   10.2468 C   0  0  0  0  0  0  0  0  0  0  0  0
   17.9796   27.1011   11.6234 C   0  0  0  0  0  0  0  0  0  0  0  0
   17.8425   25.7510   11.9580 C   0  0  0  0  0  0  0  0  0  0  0  0
   17.8001   24.7954   10.9479 C   0  0  0  0  0  0  0  0  0  0  0  0
   20.4884   28.6104   12.6755 C   0  0  0  0  0  0  0  0  0  0  0  0
   21.5885   27.5530   12.5606 C   0  0  0  0  0  0  0  0  0  0  0  0
   21.5393   26.7272   11.2706 C   0  0  0  0  0  0  0  0  0  0  0  0
   21.4702   25.2342   11.5290 C   0  0  0  0  0  0  0  0  0  0  0  0
   22.9476   28.2505   12.7686 C   0  0  0  0  0  0  0  0  0  0  0  0
   24.1367   27.5415   12.1485 C   0  0  0  0  0  0  0  0  0  0  0  0
   19.4789   31.2609   15.4499 C   0  0  0  0  0  0  0  0  0  0  0  0
   18.6201   32.1706   16.1829 N   0  0  0  0  0  0  0  0  0  0  0  0
   17.9543   33.1783   15.6591 C   0  0  0  0  0  0  0  0  0  0  0  0
   17.8640   33.5270   14.5045 O   0  0  0  0  0  0  0  0  0  0  0  0
   18.5272   32.0224   17.1517 H   0  0  0  0  0  0  0  0  0  0  0  0
   17.2376   33.8866   16.6638 O   0  0  0  0  0  0  0  0  0  0  0  0
   15.8515   34.1133   16.4392 C   0  0  0  0  0  0  0  0  0  0  0  0
   15.1592   33.2936   17.5174 C   0  0  0  0  0  0  0  0  0  0  0  0
   15.2968   34.0775   18.6932 O   0  0  0  0  0  0  0  0  0  0  0  0
   15.3128   35.4554   18.3598 C   0  0  0  0  0  0  0  0  0  0  0  0
   16.3896   36.1035   19.0091 O   0  0  0  0  0  0  0  0  0  0  0  0
   17.3782   36.5409   18.0775 C   0  0  0  0  0  0  0  0  0  0  0  0
   16.6920   36.5256   16.7196 C   0  0  0  0  0  0  0  0  0  0  0  0
   15.5477   35.5341   16.8637 C   0  0  0  0  0  0  0  0  0  0  0  0
   20.6740   30.9022   16.3410 C   0  0  0  0  0  0  0  0  0  0  0  0
   22.2220   32.8639   16.6415 C   0  0  0  0  0  0  0  0  0  0  0  0
   23.3240   33.6288   16.2613 C   0  0  0  0  0  0  0  0  0  0  0  0
   24.1246   33.2024   15.2110 C   0  0  0  0  0  0  0  0  0  0  0  0
   23.8198   32.0347   14.5237 C   0  0  0  0  0  0  0  0  0  0  0  0
   22.7146   31.2789   14.8839 C   0  0  0  0  0  0  0  0  0  0  0  0
   21.8969   31.7049   15.9342 C   0  0  0  0  0  0  0  0  0  0  0  0
  9 10  2  0  0  0
  9 11  1  0  0  0
 10 12  1  0  0  0
 11 13  1  0  0  0
 12 13  2  0  0  0
 12 17  1  0  0  0
 13 14  1  0  0  0
 14 15  2  0  0  0
 15 16  1  0  0  0
 15  6  1  0  0  0
 16 17  2  0  0  0
  6  7  2  0  0  0
  6  8  2  0  0  0
  6  5  1  0  0  0
  5 18  1  0  0  0
  5  4  1  0  0  0
 18 19  1  0  0  0
 19 20  1  0  0  0
 19 22  1  0  0  0
 20 21  1  0  0  0
 22 23  1  0  0  0
  4  1  1  0  0  0
  1  2  1  0  0  0
  1 24  1  0  0  0
 24 25  1  0  0  0
 24 38  1  0  0  0
 25 26  1  0  0  0
 26 27  2  0  0  0
 26 29  1  0  0  0
 29 30  1  0  0  0
 30 31  1  0  0  0
 30 37  1  0  0  0
 31 32  1  0  0  0
 32 33  1  0  0  0
 33 34  1  0  0  0
 33 37  1  0  0  0
 34 35  1  0  0  0
 35 36  1  0  0  0
 36 37  1  0  0  0
 38 44  1  0  0  0
 39 40  2  0  0  0
 39 44  1  0  0  0
 40 41  1  0  0  0
 41 42  2  0  0  0
 42 43  1  0  0  0
 43 44  2  0  0  0
  2  3  1  0  0  0
 25 28  1  0  0  0
M  END
> <minimizedAffinity>
-9.48901

$$$$
3O9I_A61_A_200


 44 48  0  0  0  0  0  0  0  0999 V2000
   20.8295   30.9892   13.7403 C   0  0  0  0  0  0  0  0  0  0  0  0
   21.6036   32.0438   13.1359 O   0  0  0  0  0  0  0  0  0  0  0  0
   21.0412   32.5513   12.5301 H   0  0  0  0  0  0  0  0  0  0  0  0
   20.3397   30.0553   12.6253 C   0  0  0  0  0  0  0  0  0  0  0  0
   19.8848   28.7823   13.2122 N   0  0  0  0  0  0  0  0  0  0  0  0
   18.3073   28.4211   13.0069 S   0  0  0  0  0  0  0  0  0  0  0  0
   17.8523   27.8529   14.2270 O   0  0  0  0  0  0  0  0  0  0  0  0
   17.6438   29.5967   12.5935 O   0  0  0  0  0  0  0  0  0  0  0  0
   17.9306   24.9993    7.6689 C   0  0  0  0  0  0  0  0  0  0  0  0
   17.7327   24.3799    8.8453 N   0  0  0  0  0  0  0  0  0  0  0  0
   18.3088   26.6934    7.7782 S   0  0  0  0  0  0  0  0  0  0  0  0
   17.8773   25.2241    9.9111 C   0  0  0  0  0  0  0  0  0  0  0  0
   18.1764   26.5132    9.4703 C   0  0  0  0  0  0  0  0  0  0  0  0
   18.3555   27.5176   10.4425 C   0  0  0  0  0  0  0  0  0  0  0  0
   18.2338   27.2665   11.8352 C   0  0  0  0  0  0  0  0  0  0  0  0
   17.9617   25.9555   12.2362 C   0  0  0  0  0  0  0  0  0  0  0  0
   17.7919   24.9656   11.2736 C   0  0  0  0  0  0  0  0  0  0  0  0
   20.8082   27.6341   13.0496 C   0  0  0  0  0  0  0  0  0  0  0  0
   21.9176   27.8818   12.0253 C   0  0  0  0  0  0  0  0  0  0  0  0
   23.3010   28.1249   12.6380 C   0  0  0  0  0  0  0  0  0  0  0  0
   24.4066   27.3859   11.9086 C   0  0  0  0  0  0  0  0  0  0  0  0
   21.9101   26.7142   11.0185 C   0  0  0  0  0  0  0  0  0  0  0  0
   21.4934   25.3728   11.5915 C   0  0  0  0  0  0  0  0  0  0  0  0
   19.6929   31.5985   14.5754 C   0  0  0  0  0  0  0  0  0  0  0  0
   20.2471   32.6697   15.3802 N   0  0  0  0  0  0  0  0  0  0  0  0
   20.7943   32.5248   16.5687 C   0  0  0  0  0  0  0  0  0  0  0  0
   21.0012   31.5176   17.2057 O   0  0  0  0  0  0  0  0  0  0  0  0
   20.2112   33.5801   15.0073 H   0  0  0  0  0  0  0  0  0  0  0  0
   21.2039   33.7827   17.0928 O   0  0  0  0  0  0  0  0  0  0  0  0
   20.3462   34.8944   16.8659 C   0  0  0  0  0  0  0  0  0  0  0  0
   19.0636   34.5327   17.5995 C   0  0  0  0  0  0  0  0  0  0  0  0
   19.3586   34.7895   18.9643 O   0  0  0  0  0  0  0  0  0  0  0  0
   20.2873   35.8556   19.0689 C   0  0  0  0  0  0  0  0  0  0  0  0
   21.3385   35.5045   19.9479 O   0  0  0  0  0  0  0  0  0  0  0  0
   22.5781   35.3643   19.2547 C   0  0  0  0  0  0  0  0  0  0  0  0
   22.3780   36.0641   17.9186 C   0  0  0  0  0  0  0  0  0  0  0  0
   20.8751   36.0523   17.6849 C   0  0  0  0  0  0  0  0  0  0  0  0
   18.5291   32.1651   13.7535 C   0  0  0  0  0  0  0  0  0  0  0  0
   17.0306   33.9748   14.6561 C   0  0  0  0  0  0  0  0  0  0  0  0
   16.0279   34.4255   15.5136 C   0  0  0  0  0  0  0  0  0  0  0  0
   15.3765   33.5217   16.3411 C   0  0  0  0  0  0  0  0  0  0  0  0
   15.7348   32.1798   16.3367 C   0  0  0  0  0  0  0  0  0  0  0  0
   16.7440   31.7278   15.5003 C   0  0  0  0  0  0  0  0  0  0  0  0
   17.4123   32.6319   14.6701 C   0  0  0  0  0  0  0  0  0  0  0  0
  9 10  2  0  0  0
  9 11  1  0  0  0
 10 12  1  0  0  0
 11 13  1  0  0  0
 12 13  2  0  0  0
 12 17  1  0  0  0
 13 14  1  0  0  0
 14 15  2  0  0  0
 15 16  1  0  0  0
 15  6  1  0  0  0
 16 17  2  0  0  0
  6  7  2  0  0  0
  6  8  2  0  0  0
  6  5  1  0  0  0
  5 18  1  0  0  0
  5  4  1  0  0  0
 18 19  1  0  0  0
 19 20  1  0  0  0
 19 22  1  0  0  0
 20 21  1  0  0  0
 22 23  1  0  0  0
  4  1  1  0  0  0
  1  2  1  0  0  0
  1 24  1  0  0  0
 24 25  1  0  0  0
 24 38  1  0  0  0
 25 26  1  0  0  0
 26 27  2  0  0  0
 26 29  1  0  0  0
 29 30  1  0  0  0
 30 31  1  0  0  0
 30 37  1  0  0  0
 31 32  1  0  0  0
 32 33  1  0  0  0
 33 34  1  0  0  0
 33 37  1  0  0  0
 34 35  1  0  0  0
 35 36  1  0  0  0
 36 37  1  0  0  0
 38 44  1  0  0  0
 39 40  2  0  0  0
 39 44  1  0  0  0
 40 41  1  0  0  0
 41 42  2  0  0  0
 42 43  1  0  0  0
 43 44  2  0  0  0
  2  3  1  0  0  0
 25 28  1  0  0  0
M  END
> <minimizedAffinity>
-9.21252

$$$$
3O9I_A61_A_200


 44 48  0  0  0  0  0  0  0  0999 V2000
   19.8372   32.2640   16.6256 C   0  0  0  0  0  0  0  0  0  0  0  0
   21.0942   32.1991   17.3275 O   0  0  0  0  0  0  0  0  0  0  0  0
   21.6425   32.9599   17.0799 H   0  0  0  0  0  0  0  0  0  0  0  0
   20.1252   32.1934   15.1199 C   0  0  0  0  0  0  0  0  0  0  0  0
   19.7870   30.8507   14.6152 N   0  0  0  0  0  0  0  0  0  0  0  0
   18.7451   30.7973   13.3613 S   0  0  0  0  0  0  0  0  0  0  0  0
   17.5049   31.3045   13.8338 O   0  0  0  0  0  0  0  0  0  0  0  0
   19.3256   31.5030   12.2851 O   0  0  0  0  0  0  0  0  0  0  0  0
   18.1930   25.0815   10.6465 C   0  0  0  0  0  0  0  0  0  0  0  0
   17.7460   25.2422   11.9039 N   0  0  0  0  0  0  0  0  0  0  0  0
   18.9140   26.4931    9.9306 S   0  0  0  0  0  0  0  0  0  0  0  0
   17.9582   26.5077   12.3761 C   0  0  0  0  0  0  0  0  0  0  0  0
   18.5719   27.2921   11.3995 C   0  0  0  0  0  0  0  0  0  0  0  0
   18.8619   28.6339   11.7176 C   0  0  0  0  0  0  0  0  0  0  0  0
   18.5458   29.2084   12.9777 C   0  0  0  0  0  0  0  0  0  0  0  0
   17.9577   28.3807   13.9382 C   0  0  0  0  0  0  0  0  0  0  0  0
   17.6789   27.0548   13.6224 C   0  0  0  0  0  0  0  0  0  0  0  0
   20.9177   29.8968   14.5207 C   0  0  0  0  0  0  0  0  0  0  0  0
   22.0941   30.4225   13.6952 C   0  0  0  0  0  0  0  0  0  0  0  0
   23.3036   30.8623   14.5270 C   0  0  0  0  0  0  0  0  0  0  0  0
   23.5928   32.3464   14.4075 C   0  0  0  0  0  0  0  0  0  0  0  0
   22.4535   29.3573   12.6403 C   0  0  0  0  0  0  0  0  0  0  0  0
   22.1804   27.9236   13.0540 C   0  0  0  0  0  0  0  0  0  0  0  0
   19.0769   33.5307   17.0474 C   0  0  0  0  0  0  0  0  0  0  0  0
   20.0473   34.5787   17.2971 N   0  0  0  0  0  0  0  0  0  0  0  0
   20.1545   35.2674   18.4139 C   0  0  0  0  0  0  0  0  0  0  0  0
   19.5423   35.1563   19.4511 O   0  0  0  0  0  0  0  0  0  0  0  0
   20.6778   34.7928   16.5719 H   0  0  0  0  0  0  0  0  0  0  0  0
   21.1877   36.2402   18.3100 O   0  0  0  0  0  0  0  0  0  0  0  0
   20.9694   37.3317   17.4244 C   0  0  0  0  0  0  0  0  0  0  0  0
   19.7957   38.0809   18.0369 C   0  0  0  0  0  0  0  0  0  0  0  0
   20.3707   38.8122   19.1094 O   0  0  0  0  0  0  0  0  0  0  0  0
   21.7089   39.1614   18.7976 C   0  0  0  0  0  0  0  0  0  0  0  0
   22.5624   38.8439   19.8801 O   0  0  0  0  0  0  0  0  0  0  0  0
   23.4569   37.7820   19.5499 C   0  0  0  0  0  0  0  0  0  0  0  0
   23.4402   37.6941   18.0310 C   0  0  0  0  0  0  0  0  0  0  0  0
   22.1124   38.3061   17.6121 C   0  0  0  0  0  0  0  0  0  0  0  0
   18.0676   34.0441   16.0135 C   0  0  0  0  0  0  0  0  0  0  0  0
   15.8081   33.8202   17.0995 C   0  0  0  0  0  0  0  0  0  0  0  0
   14.6794   34.3647   17.7108 C   0  0  0  0  0  0  0  0  0  0  0  0
   14.6329   35.7263   17.9751 C   0  0  0  0  0  0  0  0  0  0  0  0
   15.6910   36.5495   17.6123 C   0  0  0  0  0  0  0  0  0  0  0  0
   16.8085   36.0180   16.9870 C   0  0  0  0  0  0  0  0  0  0  0  0
   16.8608   34.6495   16.7081 C   0  0  0  0  0  0  0  0  0  0  0  0
  9 10  2  0  0  0
  9 11  1  0  0  0
 10 12  1  0  0  0
 11 13  1  0  0  0
 12 13  2  0  0  0
 12 17  1  0  0  0
 13 14  1  0  0  0
 14 15  2  0  0  0
 15 16  1  0  0  0
 15  6  1  0  0  0
 16 17  2  0  0  0
  6  7  2  0  0  0
  6  8  2  0  0  0
  6  5  1  0  0  0
  5 18  1  0  0  0
  5  4  1  0  0  0
 18 19  1  0  0  0
 19 20  1  0  0  0
 19 22  1  0  0  0
 20 21  1  0  0  0
 22 23  1  0  0  0
  4  1  1  0  0  0
  1  2  1  0  0  0
  1 24  1  0  0  0
 24 25  1  0  0  0
 24 38  1  0  0  0
 25 26  1  0  0  0
 26 27  2  0  0  0
 26 29  1  0  0  0
 29 30  1  0  0  0
 30 31  1  0  0  0
 30 37  1  0  0  0
 31 32  1  0  0  0
 32 33  1  0  0  0
 33 34  1  0  0  0
 33 37  1  0  0  0
 34 35  1  0  0  0
 35 36  1  0  0  0
 36 37  1  0  0  0
 38 44  1  0  0  0
 39 40  2  0  0  0
 39 44  1  0  0  0
 40 41  1  0  0  0
 41 42  2  0  0  0
 42 43  1  0  0  0
 43 44  2  0  0  0
  2  3  1  0  0  0
 25 28  1  0  0  0
M  END
> <minimizedAffinity>
-9.14739

$$$$
3O9I_A61_A_200


 44 48  0  0  0  0  0  0  0  0999 V2000
   19.9167   30.2060   14.7752 C   0  0  0  0  0  0  0  0  0  0  0  0
   18.9979   29.9395   15.8530 O   0  0  0  0  0  0  0  0  0  0  0  0
   18.0935   30.1370   15.5631 H   0  0  0  0  0  0  0  0  0  0  0  0
   19.8266   31.6979   14.4269 C   0  0  0  0  0  0  0  0  0  0  0  0
   20.1089   32.5031   15.6285 N   0  0  0  0  0  0  0  0  0  0  0  0
   21.6602   32.9635   15.8352 S   0  0  0  0  0  0  0  0  0  0  0  0
   22.3233   31.8939   16.4944 O   0  0  0  0  0  0  0  0  0  0  0  0
   22.1785   33.3196   14.5712 O   0  0  0  0  0  0  0  0  0  0  0  0
   21.7966   38.6684   18.6245 C   0  0  0  0  0  0  0  0  0  0  0  0
   21.9005   37.5726   19.3959 N   0  0  0  0  0  0  0  0  0  0  0  0
   21.5972   38.3611   16.9242 S   0  0  0  0  0  0  0  0  0  0  0  0
   21.8214   36.4150   18.6726 C   0  0  0  0  0  0  0  0  0  0  0  0
   21.6706   36.7015   17.3158 C   0  0  0  0  0  0  0  0  0  0  0  0
   21.5761   35.6180   16.4196 C   0  0  0  0  0  0  0  0  0  0  0  0
   21.6384   34.2641   16.8447 C   0  0  0  0  0  0  0  0  0  0  0  0
   21.7609   34.0201   18.2155 C   0  0  0  0  0  0  0  0  0  0  0  0
   21.8474   35.0924   19.0976 C   0  0  0  0  0  0  0  0  0  0  0  0
   19.1062   33.5455   15.9530 C   0  0  0  0  0  0  0  0  0  0  0  0
   18.2048   33.1803   17.1344 C   0  0  0  0  0  0  0  0  0  0  0  0
   18.0581   34.2875   18.1836 C   0  0  0  0  0  0  0  0  0  0  0  0
   18.0968   35.6790   17.5812 C   0  0  0  0  0  0  0  0  0  0  0  0
   16.8481   32.7084   16.5743 C   0  0  0  0  0  0  0  0  0  0  0  0
   16.3814   33.4301   15.3243 C   0  0  0  0  0  0  0  0  0  0  0  0
   19.6044   29.2783   13.5911 C   0  0  0  0  0  0  0  0  0  0  0  0
   20.7547   28.4235   13.3705 N   0  0  0  0  0  0  0  0  0  0  0  0
   21.7885   28.7185   12.6108 C   0  0  0  0  0  0  0  0  0  0  0  0
   22.0328   29.7333   11.9997 O   0  0  0  0  0  0  0  0  0  0  0  0
   20.7633   27.5509   13.8264 H   0  0  0  0  0  0  0  0  0  0  0  0
   22.7215   27.6444   12.5884 O   0  0  0  0  0  0  0  0  0  0  0  0
   23.6275   27.5899   11.4932 C   0  0  0  0  0  0  0  0  0  0  0  0
   24.8599   26.9028   12.0615 C   0  0  0  0  0  0  0  0  0  0  0  0
   24.5089   25.5276   12.0926 O   0  0  0  0  0  0  0  0  0  0  0  0
   23.6141   25.2300   11.0339 C   0  0  0  0  0  0  0  0  0  0  0  0
   22.5102   24.4906   11.5193 O   0  0  0  0  0  0  0  0  0  0  0  0
   21.3012   25.2458   11.4512 C   0  0  0  0  0  0  0  0  0  0  0  0
   21.5896   26.3887   10.4890 C   0  0  0  0  0  0  0  0  0  0  0  0
   23.1006   26.5600   10.5171 C   0  0  0  0  0  0  0  0  0  0  0  0
   18.3716   28.3875   13.7852 C   0  0  0  0  0  0  0  0  0  0  0  0
   17.9187   26.2739   12.4957 C   0  0  0  0  0  0  0  0  0  0  0  0
   17.6379   25.5935   11.3116 C   0  0  0  0  0  0  0  0  0  0  0  0
   17.4196   26.3112   10.1441 C   0  0  0  0  0  0  0  0  0  0  0  0
   17.5040   27.6975   10.1448 C   0  0  0  0  0  0  0  0  0  0  0  0
   17.8016   28.3798   11.3145 C   0  0  0  0  0  0  0  0  0  0  0  0
   18.0322   27.6654   12.4934 C   0  0  0  0  0  0  0  0  0  0  0  0
  9 10  2  0  0  0
  9 11  1  0  0  0
 10 12  1  0  0  0
 11 13  1  0  0  0
 12 13  2  0  0  0
 12 17  1  0  0  0
 13 14  1  0  0  0
 14 15  2  0  0  0
 15 16  1  0  0  0
 15  6  1  0  0  0
 16 17  2  0  0  0
  6  7  2  0  0  0
  6  8  2  0  0  0
  6  5  1  0  0  0
  5 18  1  0  0  0
  5  4  1  0  0  0
 18 19  1  0  0  0
 19 20  1  0  0  0
 19 22  1  0  0  0
 20 21  1  0  0  0
 22 23  1  0  0  0
  4  1  1  0  0  0
  1  2  1  0  0  0
  1 24  1  0  0  0
 24 25  1  0  0  0
 24 38  1  0  0  0
 25 26  1  0  0  0
 26 27  2  0  0  0
 26 29  1  0  0  0
 29 30  1  0  0  0
 30 31  1  0  0  0
 30 37  1  0  0  0
 31 32  1  0  0  0
 32 33  1  0  0  0
 33 34  1  0  0  0
 33 37  1  0  0  0
 34 35  1  0  0  0
 35 36  1  0  0  0
 36 37  1  0  0  0
 38 44  1  0  0  0
 39 40  2  0  0  0
 39 44  1  0  0  0
 40 41  1  0  0  0
 41 42  2  0  0  0
 42 43  1  0  0  0
 43 44  2  0  0  0
  2  3  1  0  0  0
 25 28  1  0  0  0
M  END
> <minimizedAffinity>
-9.14249

$$$$
3O9I_A61_A_200


 44 48  0  0  0  0  0  0  0  0999 V2000
   19.5997   30.1282   15.9823 C   0  0  0  0  0  0  0  0  0  0  0  0
   19.7359   29.5974   17.3152 O   0  0  0  0  0  0  0  0  0  0  0  0
   19.3744   30.2314   17.9542 H   0  0  0  0  0  0  0  0  0  0  0  0
   20.4118   31.4277   15.8990 C   0  0  0  0  0  0  0  0  0  0  0  0
   21.4556   31.2920   14.8674 N   0  0  0  0  0  0  0  0  0  0  0  0
   22.6326   32.4213   14.8852 S   0  0  0  0  0  0  0  0  0  0  0  0
   23.8403   31.7530   15.2216 O   0  0  0  0  0  0  0  0  0  0  0  0
   22.6229   33.0770   13.6349 O   0  0  0  0  0  0  0  0  0  0  0  0
   21.2684   37.3831   18.6088 C   0  0  0  0  0  0  0  0  0  0  0  0
   21.6317   36.2255   19.1873 N   0  0  0  0  0  0  0  0  0  0  0  0
   21.1853   37.3491   16.8718 S   0  0  0  0  0  0  0  0  0  0  0  0
   21.8617   35.2344   18.2737 C   0  0  0  0  0  0  0  0  0  0  0  0
   21.6689   35.7158   16.9788 C   0  0  0  0  0  0  0  0  0  0  0  0
   21.8685   34.8229   15.9069 C   0  0  0  0  0  0  0  0  0  0  0  0
   22.2633   33.4719   16.0982 C   0  0  0  0  0  0  0  0  0  0  0  0
   22.4178   33.0216   17.4123 C   0  0  0  0  0  0  0  0  0  0  0  0
   22.2135   33.9044   18.4679 C   0  0  0  0  0  0  0  0  0  0  0  0
   21.9279   29.9107   14.6097 C   0  0  0  0  0  0  0  0  0  0  0  0
   21.3085   29.2751   13.3632 C   0  0  0  0  0  0  0  0  0  0  0  0
   21.5724   30.0437   12.0641 C   0  0  0  0  0  0  0  0  0  0  0  0
   20.5680   31.1541   11.8219 C   0  0  0  0  0  0  0  0  0  0  0  0
   21.7752   27.8075   13.2911 C   0  0  0  0  0  0  0  0  0  0  0  0
   21.3750   27.0659   12.0298 C   0  0  0  0  0  0  0  0  0  0  0  0
   18.1108   30.3114   15.6507 C   0  0  0  0  0  0  0  0  0  0  0  0
   17.6041   31.4165   16.4408 N   0  0  0  0  0  0  0  0  0  0  0  0
   16.3821   31.9020   16.3760 C   0  0  0  0  0  0  0  0  0  0  0  0
   15.4362   31.5271   15.7222 O   0  0  0  0  0  0  0  0  0  0  0  0
   18.2247   31.8384   17.0779 H   0  0  0  0  0  0  0  0  0  0  0  0
   16.2297   33.0055   17.2613 O   0  0  0  0  0  0  0  0  0  0  0  0
   15.6276   34.1832   16.7381 C   0  0  0  0  0  0  0  0  0  0  0  0
   14.5280   34.5154   17.7353 C   0  0  0  0  0  0  0  0  0  0  0  0
   15.2144   35.1146   18.8241 O   0  0  0  0  0  0  0  0  0  0  0  0
   16.3619   35.8032   18.3558 C   0  0  0  0  0  0  0  0  0  0  0  0
   17.4907   35.4607   19.1365 O   0  0  0  0  0  0  0  0  0  0  0  0
   18.4428   34.7109   18.3827 C   0  0  0  0  0  0  0  0  0  0  0  0
   18.0767   34.9394   16.9236 C   0  0  0  0  0  0  0  0  0  0  0  0
   16.6047   35.3218   16.9384 C   0  0  0  0  0  0  0  0  0  0  0  0
   17.8159   30.5991   14.1737 C   0  0  0  0  0  0  0  0  0  0  0  0
   17.8393   28.0848   14.0600 C   0  0  0  0  0  0  0  0  0  0  0  0
   17.8186   26.8870   13.3467 C   0  0  0  0  0  0  0  0  0  0  0  0
   17.6633   26.9132   11.9679 C   0  0  0  0  0  0  0  0  0  0  0  0
   17.5539   28.1235   11.2955 C   0  0  0  0  0  0  0  0  0  0  0  0
   17.5927   29.3193   11.9963 C   0  0  0  0  0  0  0  0  0  0  0  0
   17.7581   29.3036   13.3839 C   0  0  0  0  0  0  0  0  0  0  0  0
  9 10  2  0  0  0
  9 11  1  0  0  0
 10 12  1  0  0  0
 11 13  1  0  0  0
 12 13  2  0  0  0
 12 17  1  0  0  0
 13 14  1  0  0  0
 14 15  2  0  0  0
 15 16  1  0  0  0
 15  6  1  0  0  0
 16 17  2  0  0  0
  6  7  2  0  0  0
  6  8  2  0  0  0
  6  5  1  0  0  0
  5 18  1  0  0  0
  5  4  1  0  0  0
 18 19  1  0  0  0
 19 20  1  0  0  0
 19 22  1  0  0  0
 20 21  1  0  0  0
 22 23  1  0  0  0
  4  1  1  0  0  0
  1  2  1  0  0  0
  1 24  1  0  0  0
 24 25  1  0  0  0
 24 38  1  0  0  0
 25 26  1  0  0  0
 26 27  2  0  0  0
 26 29  1  0  0  0
 29 30  1  0  0  0
 30 31  1  0  0  0
 30 37  1  0  0  0
 31 32  1  0  0  0
 32 33  1  0  0  0
 33 34  1  0  0  0
 33 37  1  0  0  0
 34 35  1  0  0  0
 35 36  1  0  0  0
 36 37  1  0  0  0
 38 44  1  0  0  0
 39 40  2  0  0  0
 39 44  1  0  0  0
 40 41  1  0  0  0
 41 42  2  0  0  0
 42 43  1  0  0  0
 43 44  2  0  0  0
  2  3  1  0  0  0
 25 28  1  0  0  0
M  END
> <minimizedAffinity>
-9.11703

$$$$
3O9I_A61_A_200


 44 48  0  0  0  0  0  0  0  0999 V2000
   21.0201   30.1901   14.3147 C   0  0  0  0  0  0  0  0  0  0  0  0
   22.1271   29.4383   14.8496 O   0  0  0  0  0  0  0  0  0  0  0  0
   22.9568   29.7746   14.4763 H   0  0  0  0  0  0  0  0  0  0  0  0
   20.9933   29.9866   12.7938 C   0  0  0  0  0  0  0  0  0  0  0  0
   20.4745   28.6422   12.4849 N   0  0  0  0  0  0  0  0  0  0  0  0
   18.8514   28.5009   12.4046 S   0  0  0  0  0  0  0  0  0  0  0  0
   18.4065   28.1157   13.6978 O   0  0  0  0  0  0  0  0  0  0  0  0
   18.3338   29.7203   11.9166 O   0  0  0  0  0  0  0  0  0  0  0  0
   17.5333   24.7248    7.4701 C   0  0  0  0  0  0  0  0  0  0  0  0
   17.4191   24.2236    8.7120 N   0  0  0  0  0  0  0  0  0  0  0  0
   18.0768   26.3748    7.3842 S   0  0  0  0  0  0  0  0  0  0  0  0
   17.7657   25.1301    9.6752 C   0  0  0  0  0  0  0  0  0  0  0  0
   18.1286   26.3432    9.0899 C   0  0  0  0  0  0  0  0  0  0  0  0
   18.5132   27.3975    9.9422 C   0  0  0  0  0  0  0  0  0  0  0  0
   18.5338   27.2709   11.3568 C   0  0  0  0  0  0  0  0  0  0  0  0
   18.1908   26.0303   11.9016 C   0  0  0  0  0  0  0  0  0  0  0  0
   17.8180   24.9901   11.0566 C   0  0  0  0  0  0  0  0  0  0  0  0
   21.2128   27.8936   11.4400 C   0  0  0  0  0  0  0  0  0  0  0  0
   22.2122   26.8813   12.0038 C   0  0  0  0  0  0  0  0  0  0  0  0
   21.8942   25.4216   11.6624 C   0  0  0  0  0  0  0  0  0  0  0  0
   21.5814   25.2150   10.1928 C   0  0  0  0  0  0  0  0  0  0  0  0
   23.6259   27.3024   11.5554 C   0  0  0  0  0  0  0  0  0  0  0  0
   24.7344   26.3370   11.9298 C   0  0  0  0  0  0  0  0  0  0  0  0
   21.1461   31.6623   14.7359 C   0  0  0  0  0  0  0  0  0  0  0  0
   19.9291   32.0408   15.4272 N   0  0  0  0  0  0  0  0  0  0  0  0
   19.3165   31.3187   16.3417 C   0  0  0  0  0  0  0  0  0  0  0  0
   19.6359   30.2596   16.8307 O   0  0  0  0  0  0  0  0  0  0  0  0
   19.5280   32.9089   15.1935 H   0  0  0  0  0  0  0  0  0  0  0  0
   18.1329   31.9694   16.7895 O   0  0  0  0  0  0  0  0  0  0  0  0
   17.2913   32.5469   15.7989 C   0  0  0  0  0  0  0  0  0  0  0  0
   15.9255   31.9321   16.0645 C   0  0  0  0  0  0  0  0  0  0  0  0
   15.4311   32.6519   17.1839 O   0  0  0  0  0  0  0  0  0  0  0  0
   15.9284   33.9795   17.1666 C   0  0  0  0  0  0  0  0  0  0  0  0
   16.4416   34.3264   18.4382 O   0  0  0  0  0  0  0  0  0  0  0  0
   17.8583   34.4952   18.4048 C   0  0  0  0  0  0  0  0  0  0  0  0
   18.2134   34.6598   16.9344 C   0  0  0  0  0  0  0  0  0  0  0  0
   17.0749   33.9972   16.1741 C   0  0  0  0  0  0  0  0  0  0  0  0
   22.3364   31.9645   15.6540 C   0  0  0  0  0  0  0  0  0  0  0  0
   21.8447   34.4328   15.6817 C   0  0  0  0  0  0  0  0  0  0  0  0
   21.6651   35.6422   16.3517 C   0  0  0  0  0  0  0  0  0  0  0  0
   21.6990   35.6688   17.7388 C   0  0  0  0  0  0  0  0  0  0  0  0
   21.9349   34.5048   18.4588 C   0  0  0  0  0  0  0  0  0  0  0  0
   22.1332   33.3018   17.7986 C   0  0  0  0  0  0  0  0  0  0  0  0
   22.1103   33.2665   16.4017 C   0  0  0  0  0  0  0  0  0  0  0  0
  9 10  2  0  0  0
  9 11  1  0  0  0
 10 12  1  0  0  0
 11 13  1  0  0  0
 12 13  2  0  0  0
 12 17  1  0  0  0
 13 14  1  0  0  0
 14 15  2  0  0  0
 15 16  1  0  0  0
 15  6  1  0  0  0
 16 17  2  0  0  0
  6  7  2  0  0  0
  6  8  2  0  0  0
  6  5  1  0  0  0
  5 18  1  0  0  0
  5  4  1  0  0  0
 18 19  1  0  0  0
 19 20  1  0  0  0
 19 22  1  0  0  0
 20 21  1  0  0  0
 22 23  1  0  0  0
  4  1  1  0  0  0
  1  2  1  0  0  0
  1 24  1  0  0  0
 24 25  1  0  0  0
 24 38  1  0  0  0
 25 26  1  0  0  0
 26 27  2  0  0  0
 26 29  1  0  0  0
 29 30  1  0  0  0
 30 31  1  0  0  0
 30 37  1  0  0  0
 31 32  1  0  0  0
 32 33  1  0  0  0
 33 34  1  0  0  0
 33 37  1  0  0  0
 34 35  1  0  0  0
 35 36  1  0  0  0
 36 37  1  0  0  0
 38 44  1  0  0  0
 39 40  2  0  0  0
 39 44  1  0  0  0
 40 41  1  0  0  0
 41 42  2  0  0  0
 42 43  1  0  0  0
 43 44  2  0  0  0
  2  3  1  0  0  0
 25 28  1  0  0  0
M  END
> <minimizedAffinity>
-9.06350

$$$$
3O9I_A61_A_200


 44 48  0  0  0  0  0  0  0  0999 V2000
   19.8691   30.8445   16.0051 C   0  0  0  0  0  0  0  0  0  0  0  0
   20.1776   30.1218   17.2132 O   0  0  0  0  0  0  0  0  0  0  0  0
   19.7353   30.5455   17.9654 H   0  0  0  0  0  0  0  0  0  0  0  0
   20.4082   32.2739   16.1512 C   0  0  0  0  0  0  0  0  0  0  0  0
   21.8816   32.2466   16.1654 N   0  0  0  0  0  0  0  0  0  0  0  0
   22.6167   32.4576   14.7246 S   0  0  0  0  0  0  0  0  0  0  0  0
   22.0992   33.6588   14.1697 O   0  0  0  0  0  0  0  0  0  0  0  0
   24.0115   32.4343   14.9421 O   0  0  0  0  0  0  0  0  0  0  0  0
   21.9562   27.0547   11.4507 C   0  0  0  0  0  0  0  0  0  0  0  0
   21.1875   28.1061   11.1186 N   0  0  0  0  0  0  0  0  0  0  0  0
   23.0302   27.3172   12.7935 S   0  0  0  0  0  0  0  0  0  0  0  0
   21.4070   29.1891   11.9240 C   0  0  0  0  0  0  0  0  0  0  0  0
   22.3940   28.8993   12.8661 C   0  0  0  0  0  0  0  0  0  0  0  0
   22.7506   29.9110   13.7801 C   0  0  0  0  0  0  0  0  0  0  0  0
   22.1541   31.2001   13.7675 C   0  0  0  0  0  0  0  0  0  0  0  0
   21.1491   31.4402   12.8262 C   0  0  0  0  0  0  0  0  0  0  0  0
   20.7955   30.4366   11.9300 C   0  0  0  0  0  0  0  0  0  0  0  0
   22.5260   32.9536   17.2978 C   0  0  0  0  0  0  0  0  0  0  0  0
   21.7914   34.2275   17.7210 C   0  0  0  0  0  0  0  0  0  0  0  0
   21.7242   34.4447   19.2364 C   0  0  0  0  0  0  0  0  0  0  0  0
   22.6212   35.5721   19.7105 C   0  0  0  0  0  0  0  0  0  0  0  0
   22.4290   35.4181   16.9774 C   0  0  0  0  0  0  0  0  0  0  0  0
   21.4634   36.5156   16.5719 C   0  0  0  0  0  0  0  0  0  0  0  0
   18.3572   30.7817   15.7396 C   0  0  0  0  0  0  0  0  0  0  0  0
   17.7182   31.8282   16.5135 N   0  0  0  0  0  0  0  0  0  0  0  0
   16.4411   32.1432   16.4603 C   0  0  0  0  0  0  0  0  0  0  0  0
   15.5445   31.6282   15.8328 O   0  0  0  0  0  0  0  0  0  0  0  0
   18.2859   32.3456   17.1293 H   0  0  0  0  0  0  0  0  0  0  0  0
   16.1547   33.2381   17.3229 O   0  0  0  0  0  0  0  0  0  0  0  0
   15.5320   34.3787   16.7446 C   0  0  0  0  0  0  0  0  0  0  0  0
   14.4020   34.7150   17.7057 C   0  0  0  0  0  0  0  0  0  0  0  0
   15.0474   35.3722   18.7861 O   0  0  0  0  0  0  0  0  0  0  0  0
   16.1854   36.0758   18.3171 C   0  0  0  0  0  0  0  0  0  0  0  0
   17.3058   35.7938   19.1333 O   0  0  0  0  0  0  0  0  0  0  0  0
   18.2946   35.0449   18.4275 C   0  0  0  0  0  0  0  0  0  0  0  0
   17.9546   35.2103   16.9537 C   0  0  0  0  0  0  0  0  0  0  0  0
   16.4726   35.5510   16.9237 C   0  0  0  0  0  0  0  0  0  0  0  0
   17.9589   30.9575   14.2693 C   0  0  0  0  0  0  0  0  0  0  0  0
   18.3986   28.4796   14.2264 C   0  0  0  0  0  0  0  0  0  0  0  0
   18.3877   27.2408   13.5867 C   0  0  0  0  0  0  0  0  0  0  0  0
   17.8387   27.1301   12.3170 C   0  0  0  0  0  0  0  0  0  0  0  0
   17.3246   28.2483   11.6733 C   0  0  0  0  0  0  0  0  0  0  0  0
   17.3493   29.4870   12.2957 C   0  0  0  0  0  0  0  0  0  0  0  0
   17.9086   29.6104   13.5705 C   0  0  0  0  0  0  0  0  0  0  0  0
  9 10  2  0  0  0
  9 11  1  0  0  0
 10 12  1  0  0  0
 11 13  1  0  0  0
 12 13  2  0  0  0
 12 17  1  0  0  0
 13 14  1  0  0  0
 14 15  2  0  0  0
 15 16  1  0  0  0
 15  6  1  0  0  0
 16 17  2  0  0  0
  6  7  2  0  0  0
  6  8  2  0  0  0
  6  5  1  0  0  0
  5 18  1  0  0  0
  5  4  1  0  0  0
 18 19  1  0  0  0
 19 20  1  0  0  0
 19 22  1  0  0  0
 20 21  1  0  0  0
 22 23  1  0  0  0
  4  1  1  0  0  0
  1  2  1  0  0  0
  1 24  1  0  0  0
 24 25  1  0  0  0
 24 38  1  0  0  0
 25 26  1  0  0  0
 26 27  2  0  0  0
 26 29  1  0  0  0
 29 30  1  0  0  0
 30 31  1  0  0  0
 30 37  1  0  0  0
 31 32  1  0  0  0
 32 33  1  0  0  0
 33 34  1  0  0  0
 33 37  1  0  0  0
 34 35  1  0  0  0
 35 36  1  0  0  0
 36 37  1  0  0  0
 38 44  1  0  0  0
 39 40  2  0  0  0
 39 44  1  0  0  0
 40 41  1  0  0  0
 41 42  2  0  0  0
 42 43  1  0  0  0
 43 44  2  0  0  0
  2  3  1  0  0  0
 25 28  1  0  0  0
M  END
> <minimizedAffinity>
-8.82648

$$$$
3O9I_A61_A_200


 44 48  0  0  0  0  0  0  0  0999 V2000
   19.2404   29.9808   15.7515 C   0  0  0  0  0  0  0  0  0  0  0  0
   19.5108   29.5642   17.1043 O   0  0  0  0  0  0  0  0  0  0  0  0
   19.2367   30.2629   17.7188 H   0  0  0  0  0  0  0  0  0  0  0  0
   20.0677   31.2410   15.4640 C   0  0  0  0  0  0  0  0  0  0  0  0
   21.3942   30.8541   14.9514 N   0  0  0  0  0  0  0  0  0  0  0  0
   21.5576   30.8328   13.3285 S   0  0  0  0  0  0  0  0  0  0  0  0
   20.2842   31.1460   12.7817 O   0  0  0  0  0  0  0  0  0  0  0  0
   22.6051   31.7155   12.9868 O   0  0  0  0  0  0  0  0  0  0  0  0
   24.1771   25.3953   11.3491 C   0  0  0  0  0  0  0  0  0  0  0  0
   22.8480   25.4350   11.5453 N   0  0  0  0  0  0  0  0  0  0  0  0
   25.0234   26.8714   11.7098 S   0  0  0  0  0  0  0  0  0  0  0  0
   22.4234   26.6514   12.0032 C   0  0  0  0  0  0  0  0  0  0  0  0
   23.5027   27.5270   12.1227 C   0  0  0  0  0  0  0  0  0  0  0  0
   23.2435   28.8343   12.5807 C   0  0  0  0  0  0  0  0  0  0  0  0
   21.9378   29.2861   12.9104 C   0  0  0  0  0  0  0  0  0  0  0  0
   20.8885   28.3689   12.8044 C   0  0  0  0  0  0  0  0  0  0  0  0
   21.1494   27.0775   12.3580 C   0  0  0  0  0  0  0  0  0  0  0  0
   22.5543   31.4174   15.6823 C   0  0  0  0  0  0  0  0  0  0  0  0
   22.3178   32.8362   16.2044 C   0  0  0  0  0  0  0  0  0  0  0  0
   22.1423   32.9296   17.7238 C   0  0  0  0  0  0  0  0  0  0  0  0
   22.0588   34.3603   18.2205 C   0  0  0  0  0  0  0  0  0  0  0  0
   23.4555   33.7355   15.6809 C   0  0  0  0  0  0  0  0  0  0  0  0
   24.6658   32.9955   15.1438 C   0  0  0  0  0  0  0  0  0  0  0  0
   17.7285   30.1827   15.5675 C   0  0  0  0  0  0  0  0  0  0  0  0
   17.3222   31.3171   16.3739 N   0  0  0  0  0  0  0  0  0  0  0  0
   16.1321   31.8794   16.3530 C   0  0  0  0  0  0  0  0  0  0  0  0
   15.1410   31.5660   15.7346 O   0  0  0  0  0  0  0  0  0  0  0  0
   17.9912   31.6981   16.9875 H   0  0  0  0  0  0  0  0  0  0  0  0
   16.0824   32.9896   17.2417 O   0  0  0  0  0  0  0  0  0  0  0  0
   15.5571   34.2096   16.7329 C   0  0  0  0  0  0  0  0  0  0  0  0
   14.5108   34.6219   17.7571 C   0  0  0  0  0  0  0  0  0  0  0  0
   15.2671   35.1669   18.8279 O   0  0  0  0  0  0  0  0  0  0  0  0
   16.4507   35.7684   18.3304 C   0  0  0  0  0  0  0  0  0  0  0  0
   17.5700   35.3416   19.0827 O   0  0  0  0  0  0  0  0  0  0  0  0
   18.4442   34.5236   18.3059 C   0  0  0  0  0  0  0  0  0  0  0  0
   18.0597   34.7805   16.8563 C   0  0  0  0  0  0  0  0  0  0  0  0
   16.6213   35.2717   16.9077 C   0  0  0  0  0  0  0  0  0  0  0  0
   17.2894   30.4374   14.1206 C   0  0  0  0  0  0  0  0  0  0  0  0
   17.4134   29.2394   11.9105 C   0  0  0  0  0  0  0  0  0  0  0  0
   17.4767   28.0751   11.1461 C   0  0  0  0  0  0  0  0  0  0  0  0
   17.5725   26.8439   11.7793 C   0  0  0  0  0  0  0  0  0  0  0  0
   17.5803   26.7652   13.1659 C   0  0  0  0  0  0  0  0  0  0  0  0
   17.4986   27.9175   13.9327 C   0  0  0  0  0  0  0  0  0  0  0  0
   17.3924   29.1613   13.3043 C   0  0  0  0  0  0  0  0  0  0  0  0
  9 10  2  0  0  0
  9 11  1  0  0  0
 10 12  1  0  0  0
 11 13  1  0  0  0
 12 13  2  0  0  0
 12 17  1  0  0  0
 13 14  1  0  0  0
 14 15  2  0  0  0
 15 16  1  0  0  0
 15  6  1  0  0  0
 16 17  2  0  0  0
  6  7  2  0  0  0
  6  8  2  0  0  0
  6  5  1  0  0  0
  5 18  1  0  0  0
  5  4  1  0  0  0
 18 19  1  0  0  0
 19 20  1  0  0  0
 19 22  1  0  0  0
 20 21  1  0  0  0
 22 23  1  0  0  0
  4  1  1  0  0  0
  1  2  1  0  0  0
  1 24  1  0  0  0
 24 25  1  0  0  0
 24 38  1  0  0  0
 25 26  1  0  0  0
 26 27  2  0  0  0
 26 29  1  0  0  0
 29 30  1  0  0  0
 30 31  1  0  0  0
 30 37  1  0  0  0
 31 32  1  0  0  0
 32 33  1  0  0  0
 33 34  1  0  0  0
 33 37  1  0  0  0
 34 35  1  0  0  0
 35 36  1  0  0  0
 36 37  1  0  0  0
 38 44  1  0  0  0
 39 40  2  0  0  0
 39 44  1  0  0  0
 40 41  1  0  0  0
 41 42  2  0  0  0
 42 43  1  0  0  0
 43 44  2  0  0  0
  2  3  1  0  0  0
 25 28  1  0  0  0
M  END
> <minimizedAffinity>
-8.74073

$$$$
