1JMF_UMP_A_317


 24 25  0  0  0  0  0  0  0  0999 V2000
   16.5004   47.2659  -52.6080 C   0  0  0  0  0  0  0  0  0  0  0  0
   17.6708   46.3499  -52.9793 C   0  0  0  0  0  0  0  0  0  0  0  0
   18.4874   47.1478  -53.9802 C   0  0  0  0  0  0  0  0  0  0  0  0
   17.4791   47.9175  -54.8431 C   0  0  0  0  0  0  0  0  0  0  0  0
   19.2990   48.0778  -53.2733 O   0  0  0  0  0  0  0  0  0  0  0  0
   16.1955   47.7650  -54.0010 O   0  0  0  0  0  0  0  0  0  0  0  0
   18.7355   48.6527  -52.7321 H   0  0  0  0  0  0  0  0  0  0  0  0
   15.5402   46.6751  -51.6026 N   0  0  0  0  0  0  0  0  0  0  0  0
   14.6692   45.6812  -52.0804 C   0  0  0  0  0  0  0  0  0  0  0  0
   13.6090   45.2440  -51.3339 N   0  0  0  0  0  0  0  0  0  0  0  0
   13.2960   45.6988  -50.0865 C   0  0  0  0  0  0  0  0  0  0  0  0
   14.2397   46.7559  -49.5752 C   0  0  0  0  0  0  0  0  0  0  0  0
   15.3555   47.2046  -50.3742 C   0  0  0  0  0  0  0  0  0  0  0  0
   14.7581   45.0975  -53.1427 O   0  0  0  0  0  0  0  0  0  0  0  0
   12.3201   45.1531  -49.5610 O   0  0  0  0  0  0  0  0  0  0  0  0
   13.0300   44.5508  -51.7256 H   0  0  0  0  0  0  0  0  0  0  0  0
   17.3596   47.2626  -56.2195 C   0  0  0  0  0  0  0  0  0  0  0  0
   17.1275   48.2964  -57.2644 O   0  0  0  0  0  0  0  0  0  0  0  0
   15.6410   48.8828  -57.4952 P   0  0  0  0  0  0  0  0  0  0  0  0
   15.5669   50.3627  -57.3953 O   0  0  0  0  0  0  0  0  0  0  0  0
   15.3630   48.4607  -58.8705 O   0  0  0  0  0  0  0  0  0  0  0  0
   14.6874   48.2403  -56.5808 O   0  0  0  0  0  0  0  0  0  0  0  0
   15.9934   48.8858  -59.4728 H   0  0  0  0  0  0  0  0  0  0  0  0
   14.8728   48.5208  -55.6710 H   0  0  0  0  0  0  0  0  0  0  0  0
  8  9  1  0  0  0
  8 13  1  0  0  0
  8  1  1  0  0  0
  9 10  1  0  0  0
  9 14  2  0  0  0
 10 11  1  0  0  0
 11 12  1  0  0  0
 11 15  2  0  0  0
 12 13  2  0  0  0
  1  2  1  0  0  0
  1  6  1  0  0  0
  2  3  1  0  0  0
  3  4  1  0  0  0
  3  5  1  0  0  0
  4  6  1  0  0  0
  4 17  1  0  0  0
 17 18  1  0  0  0
 18 19  1  0  0  0
 19 20  2  0  0  0
 19 21  1  0  0  0
 19 22  1  0  0  0
 10 16  1  0  0  0
  5  7  1  0  0  0
 21 23  1  0  0  0
 22 24  1  0  0  0
M  END
> <minimizedAffinity>
-7.59419

$$$$
1JMF_UMP_A_317


 24 25  0  0  0  0  0  0  0  0999 V2000
   17.1016   46.9631  -51.3970 C   0  0  0  0  0  0  0  0  0  0  0  0
   18.2160   45.9497  -51.6762 C   0  0  0  0  0  0  0  0  0  0  0  0
   19.3268   46.7600  -52.3204 C   0  0  0  0  0  0  0  0  0  0  0  0
   18.6391   47.7955  -53.2195 C   0  0  0  0  0  0  0  0  0  0  0  0
   20.0511   47.4380  -51.3011 O   0  0  0  0  0  0  0  0  0  0  0  0
   17.1863   47.7101  -52.7075 O   0  0  0  0  0  0  0  0  0  0  0  0
   19.4455   48.0010  -50.7941 H   0  0  0  0  0  0  0  0  0  0  0  0
   15.8743   46.3760  -50.7407 N   0  0  0  0  0  0  0  0  0  0  0  0
   15.0145   45.6379  -51.5717 C   0  0  0  0  0  0  0  0  0  0  0  0
   13.7678   45.2611  -51.1520 N   0  0  0  0  0  0  0  0  0  0  0  0
   13.2433   45.5400  -49.9240 C   0  0  0  0  0  0  0  0  0  0  0  0
   14.1739   46.3216  -49.0337 C   0  0  0  0  0  0  0  0  0  0  0  0
   15.4875   46.7094  -49.4906 C   0  0  0  0  0  0  0  0  0  0  0  0
   15.2648   45.2392  -52.6922 O   0  0  0  0  0  0  0  0  0  0  0  0
   12.1139   45.0818  -49.7219 O   0  0  0  0  0  0  0  0  0  0  0  0
   13.2087   44.7516  -51.7821 H   0  0  0  0  0  0  0  0  0  0  0  0
   18.7696   47.3850  -54.6865 C   0  0  0  0  0  0  0  0  0  0  0  0
   17.7011   48.0274  -55.4990 O   0  0  0  0  0  0  0  0  0  0  0  0
   16.5097   47.1266  -56.1121 P   0  0  0  0  0  0  0  0  0  0  0  0
   15.9048   47.7023  -57.3401 O   0  0  0  0  0  0  0  0  0  0  0  0
   17.2122   45.8827  -56.4376 O   0  0  0  0  0  0  0  0  0  0  0  0
   15.4877   46.8619  -55.0905 O   0  0  0  0  0  0  0  0  0  0  0  0
   17.8865   46.0592  -57.1122 H   0  0  0  0  0  0  0  0  0  0  0  0
   15.0236   47.6862  -54.8762 H   0  0  0  0  0  0  0  0  0  0  0  0
  8  9  1  0  0  0
  8 13  1  0  0  0
  8  1  1  0  0  0
  9 10  1  0  0  0
  9 14  2  0  0  0
 10 11  1  0  0  0
 11 12  1  0  0  0
 11 15  2  0  0  0
 12 13  2  0  0  0
  1  2  1  0  0  0
  1  6  1  0  0  0
  2  3  1  0  0  0
  3  4  1  0  0  0
  3  5  1  0  0  0
  4  6  1  0  0  0
  4 17  1  0  0  0
 17 18  1  0  0  0
 18 19  1  0  0  0
 19 20  2  0  0  0
 19 21  1  0  0  0
 19 22  1  0  0  0
 10 16  1  0  0  0
  5  7  1  0  0  0
 21 23  1  0  0  0
 22 24  1  0  0  0
M  END
> <minimizedAffinity>
-7.39622

$$$$
1JMF_UMP_A_317


 24 25  0  0  0  0  0  0  0  0999 V2000
   14.9110   46.0123  -50.0475 C   0  0  0  0  0  0  0  0  0  0  0  0
   13.9350   46.6076  -51.0671 C   0  0  0  0  0  0  0  0  0  0  0  0
   14.2825   45.9300  -52.3807 C   0  0  0  0  0  0  0  0  0  0  0  0
   15.8090   45.7776  -52.3963 C   0  0  0  0  0  0  0  0  0  0  0  0
   13.6866   44.6387  -52.4030 O   0  0  0  0  0  0  0  0  0  0  0  0
   16.1466   46.0517  -50.9161 O   0  0  0  0  0  0  0  0  0  0  0  0
   13.9992   44.1251  -51.6418 H   0  0  0  0  0  0  0  0  0  0  0  0
   14.7464   46.5426  -48.6427 N   0  0  0  0  0  0  0  0  0  0  0  0
   13.5025   46.3133  -48.0305 C   0  0  0  0  0  0  0  0  0  0  0  0
   13.1551   46.9416  -46.8657 N   0  0  0  0  0  0  0  0  0  0  0  0
   13.9499   47.8195  -46.1885 C   0  0  0  0  0  0  0  0  0  0  0  0
   15.2863   48.0526  -46.8437 C   0  0  0  0  0  0  0  0  0  0  0  0
   15.6389   47.3798  -48.0716 C   0  0  0  0  0  0  0  0  0  0  0  0
   12.6395   45.5511  -48.4194 O   0  0  0  0  0  0  0  0  0  0  0  0
   13.4704   48.2538  -45.1360 O   0  0  0  0  0  0  0  0  0  0  0  0
   12.2670   46.7457  -46.4888 H   0  0  0  0  0  0  0  0  0  0  0  0
   16.4291   46.8080  -53.3404 C   0  0  0  0  0  0  0  0  0  0  0  0
   15.8702   46.6540  -54.7110 O   0  0  0  0  0  0  0  0  0  0  0  0
   16.7588   47.0772  -55.9909 P   0  0  0  0  0  0  0  0  0  0  0  0
   17.7776   48.1140  -55.6869 O   0  0  0  0  0  0  0  0  0  0  0  0
   17.4183   45.8131  -56.3285 O   0  0  0  0  0  0  0  0  0  0  0  0
   15.8931   47.4929  -57.1027 O   0  0  0  0  0  0  0  0  0  0  0  0
   17.9894   45.5400  -55.5936 H   0  0  0  0  0  0  0  0  0  0  0  0
   15.4573   48.3298  -56.8776 H   0  0  0  0  0  0  0  0  0  0  0  0
  8  9  1  0  0  0
  8 13  1  0  0  0
  8  1  1  0  0  0
  9 10  1  0  0  0
  9 14  2  0  0  0
 10 11  1  0  0  0
 11 12  1  0  0  0
 11 15  2  0  0  0
 12 13  2  0  0  0
  1  2  1  0  0  0
  1  6  1  0  0  0
  2  3  1  0  0  0
  3  4  1  0  0  0
  3  5  1  0  0  0
  4  6  1  0  0  0
  4 17  1  0  0  0
 17 18  1  0  0  0
 18 19  1  0  0  0
 19 20  2  0  0  0
 19 21  1  0  0  0
 19 22  1  0  0  0
 10 16  1  0  0  0
  5  7  1  0  0  0
 21 23  1  0  0  0
 22 24  1  0  0  0
M  END
> <minimizedAffinity>
-7.16965

$$$$
1JMF_UMP_A_317


 24 25  0  0  0  0  0  0  0  0999 V2000
   17.0236   46.0058  -52.0802 C   0  0  0  0  0  0  0  0  0  0  0  0
   15.9560   46.8673  -52.7618 C   0  0  0  0  0  0  0  0  0  0  0  0
   15.5955   46.1113  -54.0283 C   0  0  0  0  0  0  0  0  0  0  0  0
   16.9015   45.4997  -54.5515 C   0  0  0  0  0  0  0  0  0  0  0  0
   14.6923   45.0638  -53.6964 O   0  0  0  0  0  0  0  0  0  0  0  0
   17.8162   45.6628  -53.3199 O   0  0  0  0  0  0  0  0  0  0  0  0
   15.1005   44.4819  -53.0363 H   0  0  0  0  0  0  0  0  0  0  0  0
   17.5378   46.5660  -50.7750 N   0  0  0  0  0  0  0  0  0  0  0  0
   17.7143   45.6464  -49.7272 C   0  0  0  0  0  0  0  0  0  0  0  0
   17.9464   46.0634  -48.4448 N   0  0  0  0  0  0  0  0  0  0  0  0
   18.0389   47.3676  -48.0557 C   0  0  0  0  0  0  0  0  0  0  0  0
   17.8600   48.3483  -49.1852 C   0  0  0  0  0  0  0  0  0  0  0  0
   17.6184   47.8922  -50.5336 C   0  0  0  0  0  0  0  0  0  0  0  0
   17.7119   44.4351  -49.8258 O   0  0  0  0  0  0  0  0  0  0  0  0
   18.2887   47.5392  -46.8581 O   0  0  0  0  0  0  0  0  0  0  0  0
   18.0546   45.3718  -47.7526 H   0  0  0  0  0  0  0  0  0  0  0  0
   17.4013   46.2880  -55.7624 C   0  0  0  0  0  0  0  0  0  0  0  0
   16.2520   46.7533  -56.5853 O   0  0  0  0  0  0  0  0  0  0  0  0
   15.9932   48.3352  -56.7785 P   0  0  0  0  0  0  0  0  0  0  0  0
   14.5675   48.7236  -56.6311 O   0  0  0  0  0  0  0  0  0  0  0  0
   16.7814   48.9035  -55.6819 O   0  0  0  0  0  0  0  0  0  0  0  0
   16.5380   48.7917  -58.0642 O   0  0  0  0  0  0  0  0  0  0  0  0
   16.4205   48.6011  -54.8338 H   0  0  0  0  0  0  0  0  0  0  0  0
   16.0151   48.4147  -58.7891 H   0  0  0  0  0  0  0  0  0  0  0  0
  8  9  1  0  0  0
  8 13  1  0  0  0
  8  1  1  0  0  0
  9 10  1  0  0  0
  9 14  2  0  0  0
 10 11  1  0  0  0
 11 12  1  0  0  0
 11 15  2  0  0  0
 12 13  2  0  0  0
  1  2  1  0  0  0
  1  6  1  0  0  0
  2  3  1  0  0  0
  3  4  1  0  0  0
  3  5  1  0  0  0
  4  6  1  0  0  0
  4 17  1  0  0  0
 17 18  1  0  0  0
 18 19  1  0  0  0
 19 20  2  0  0  0
 19 21  1  0  0  0
 19 22  1  0  0  0
 10 16  1  0  0  0
  5  7  1  0  0  0
 21 23  1  0  0  0
 22 24  1  0  0  0
M  END
> <minimizedAffinity>
-7.06783

$$$$
1JMF_UMP_A_317


 24 25  0  0  0  0  0  0  0  0999 V2000
   15.6401   46.6634  -50.2192 C   0  0  0  0  0  0  0  0  0  0  0  0
   16.4924   45.5145  -50.7673 C   0  0  0  0  0  0  0  0  0  0  0  0
   17.2277   46.1077  -51.9560 C   0  0  0  0  0  0  0  0  0  0  0  0
   16.2417   47.0642  -52.6390 C   0  0  0  0  0  0  0  0  0  0  0  0
   18.3431   46.8518  -51.4812 O   0  0  0  0  0  0  0  0  0  0  0  0
   15.1598   47.1992  -51.5476 O   0  0  0  0  0  0  0  0  0  0  0  0
   18.0364   47.5401  -50.8704 H   0  0  0  0  0  0  0  0  0  0  0  0
   14.8112   46.3031  -49.0089 N   0  0  0  0  0  0  0  0  0  0  0  0
   13.5417   45.7564  -49.2619 C   0  0  0  0  0  0  0  0  0  0  0  0
   12.6167   45.6112  -48.2640 N   0  0  0  0  0  0  0  0  0  0  0  0
   12.8182   45.9580  -46.9602 C   0  0  0  0  0  0  0  0  0  0  0  0
   14.1848   46.5331  -46.6931 C   0  0  0  0  0  0  0  0  0  0  0  0
   15.1507   46.6773  -47.7566 C   0  0  0  0  0  0  0  0  0  0  0  0
   13.1377   45.3410  -50.3302 O   0  0  0  0  0  0  0  0  0  0  0  0
   11.8729   45.7154  -46.2027 O   0  0  0  0  0  0  0  0  0  0  0  0
   11.7421   45.2285  -48.5045 H   0  0  0  0  0  0  0  0  0  0  0  0
   15.7041   46.4333  -53.9238 C   0  0  0  0  0  0  0  0  0  0  0  0
   15.8473   47.3802  -55.0628 O   0  0  0  0  0  0  0  0  0  0  0  0
   17.1924   47.3622  -55.9556 P   0  0  0  0  0  0  0  0  0  0  0  0
   18.4060   47.7737  -55.2051 O   0  0  0  0  0  0  0  0  0  0  0  0
   17.2887   45.9471  -56.3231 O   0  0  0  0  0  0  0  0  0  0  0  0
   17.0161   48.1744  -57.1669 O   0  0  0  0  0  0  0  0  0  0  0  0
   17.4051   45.4122  -55.5223 H   0  0  0  0  0  0  0  0  0  0  0  0
   16.9526   49.1108  -56.9219 H   0  0  0  0  0  0  0  0  0  0  0  0
  8  9  1  0  0  0
  8 13  1  0  0  0
  8  1  1  0  0  0
  9 10  1  0  0  0
  9 14  2  0  0  0
 10 11  1  0  0  0
 11 12  1  0  0  0
 11 15  2  0  0  0
 12 13  2  0  0  0
  1  2  1  0  0  0
  1  6  1  0  0  0
  2  3  1  0  0  0
  3  4  1  0  0  0
  3  5  1  0  0  0
  4  6  1  0  0  0
  4 17  1  0  0  0
 17 18  1  0  0  0
 18 19  1  0  0  0
 19 20  2  0  0  0
 19 21  1  0  0  0
 19 22  1  0  0  0
 10 16  1  0  0  0
  5  7  1  0  0  0
 21 23  1  0  0  0
 22 24  1  0  0  0
M  END
> <minimizedAffinity>
-7.04638

$$$$
1JMF_UMP_A_317


 24 25  0  0  0  0  0  0  0  0999 V2000
   16.6505   46.2754  -52.1535 C   0  0  0  0  0  0  0  0  0  0  0  0
   17.7921   46.9900  -51.4235 C   0  0  0  0  0  0  0  0  0  0  0  0
   17.9885   46.2013  -50.1411 C   0  0  0  0  0  0  0  0  0  0  0  0
   16.5891   45.7748  -49.6789 C   0  0  0  0  0  0  0  0  0  0  0  0
   18.7564   45.0393  -50.4297 O   0  0  0  0  0  0  0  0  0  0  0  0
   15.7627   46.0509  -50.9519 O   0  0  0  0  0  0  0  0  0  0  0  0
   18.3044   44.5131  -51.1076 H   0  0  0  0  0  0  0  0  0  0  0  0
   16.2773   46.8905  -53.4817 N   0  0  0  0  0  0  0  0  0  0  0  0
   15.9013   45.9977  -54.4996 C   0  0  0  0  0  0  0  0  0  0  0  0
   15.7709   46.4110  -55.7975 N   0  0  0  0  0  0  0  0  0  0  0  0
   15.9736   47.6885  -56.2311 C   0  0  0  0  0  0  0  0  0  0  0  0
   16.3655   48.6431  -55.1336 C   0  0  0  0  0  0  0  0  0  0  0  0
   16.4963   48.1918  -53.7683 C   0  0  0  0  0  0  0  0  0  0  0  0
   15.6321   44.8208  -54.3604 O   0  0  0  0  0  0  0  0  0  0  0  0
   15.7709   47.8697  -57.4362 O   0  0  0  0  0  0  0  0  0  0  0  0
   15.5118   45.7375  -56.4672 H   0  0  0  0  0  0  0  0  0  0  0  0
   16.1450   46.6317  -48.4931 C   0  0  0  0  0  0  0  0  0  0  0  0
   15.0866   45.9300  -47.7172 O   0  0  0  0  0  0  0  0  0  0  0  0
   13.5434   46.3744  -47.8834 P   0  0  0  0  0  0  0  0  0  0  0  0
   13.3226   47.8298  -47.6870 O   0  0  0  0  0  0  0  0  0  0  0  0
   13.2763   46.0127  -49.2779 O   0  0  0  0  0  0  0  0  0  0  0  0
   12.6819   45.5819  -46.9957 O   0  0  0  0  0  0  0  0  0  0  0  0
   13.8458   46.5368  -49.8626 H   0  0  0  0  0  0  0  0  0  0  0  0
   12.8599   45.8225  -46.0730 H   0  0  0  0  0  0  0  0  0  0  0  0
  8  9  1  0  0  0
  8 13  1  0  0  0
  8  1  1  0  0  0
  9 10  1  0  0  0
  9 14  2  0  0  0
 10 11  1  0  0  0
 11 12  1  0  0  0
 11 15  2  0  0  0
 12 13  2  0  0  0
  1  2  1  0  0  0
  1  6  1  0  0  0
  2  3  1  0  0  0
  3  4  1  0  0  0
  3  5  1  0  0  0
  4  6  1  0  0  0
  4 17  1  0  0  0
 17 18  1  0  0  0
 18 19  1  0  0  0
 19 20  2  0  0  0
 19 21  1  0  0  0
 19 22  1  0  0  0
 10 16  1  0  0  0
  5  7  1  0  0  0
 21 23  1  0  0  0
 22 24  1  0  0  0
M  END
> <minimizedAffinity>
-7.02249

$$$$
1JMF_UMP_A_317


 24 25  0  0  0  0  0  0  0  0999 V2000
   15.7419   46.3593  -52.2123 C   0  0  0  0  0  0  0  0  0  0  0  0
   16.7129   46.8710  -51.1437 C   0  0  0  0  0  0  0  0  0  0  0  0
   16.4079   46.0400  -49.9101 C   0  0  0  0  0  0  0  0  0  0  0  0
   14.8877   45.8340  -49.8944 C   0  0  0  0  0  0  0  0  0  0  0  0
   17.0465   44.7755  -50.0388 O   0  0  0  0  0  0  0  0  0  0  0  0
   14.5190   46.2592  -51.3308 O   0  0  0  0  0  0  0  0  0  0  0  0
   16.7396   44.3393  -50.8490 H   0  0  0  0  0  0  0  0  0  0  0  0
   15.8677   47.0479  -53.5509 N   0  0  0  0  0  0  0  0  0  0  0  0
   15.7134   46.2361  -54.6875 C   0  0  0  0  0  0  0  0  0  0  0  0
   16.0348   46.6915  -55.9372 N   0  0  0  0  0  0  0  0  0  0  0  0
   16.5133   47.9392  -56.2111 C   0  0  0  0  0  0  0  0  0  0  0  0
   16.6659   48.8084  -54.9901 C   0  0  0  0  0  0  0  0  0  0  0  0
   16.3198   48.3139  -53.6785 C   0  0  0  0  0  0  0  0  0  0  0  0
   15.2737   45.1033  -54.7076 O   0  0  0  0  0  0  0  0  0  0  0  0
   16.7100   48.1723  -57.4083 O   0  0  0  0  0  0  0  0  0  0  0  0
   15.9117   46.0736  -56.6937 H   0  0  0  0  0  0  0  0  0  0  0  0
   14.2481   46.7310  -48.8342 C   0  0  0  0  0  0  0  0  0  0  0  0
   13.1242   47.5072  -49.4248 O   0  0  0  0  0  0  0  0  0  0  0  0
   13.2286   49.1149  -49.5298 P   0  0  0  0  0  0  0  0  0  0  0  0
   13.7064   49.7594  -48.2801 O   0  0  0  0  0  0  0  0  0  0  0  0
   14.2260   49.2814  -50.5902 O   0  0  0  0  0  0  0  0  0  0  0  0
   11.9471   49.6858  -49.9655 O   0  0  0  0  0  0  0  0  0  0  0  0
   15.0715   48.9040  -50.3009 H   0  0  0  0  0  0  0  0  0  0  0  0
   11.2880   49.5748  -49.2626 H   0  0  0  0  0  0  0  0  0  0  0  0
  8  9  1  0  0  0
  8 13  1  0  0  0
  8  1  1  0  0  0
  9 10  1  0  0  0
  9 14  2  0  0  0
 10 11  1  0  0  0
 11 12  1  0  0  0
 11 15  2  0  0  0
 12 13  2  0  0  0
  1  2  1  0  0  0
  1  6  1  0  0  0
  2  3  1  0  0  0
  3  4  1  0  0  0
  3  5  1  0  0  0
  4  6  1  0  0  0
  4 17  1  0  0  0
 17 18  1  0  0  0
 18 19  1  0  0  0
 19 20  2  0  0  0
 19 21  1  0  0  0
 19 22  1  0  0  0
 10 16  1  0  0  0
  5  7  1  0  0  0
 21 23  1  0  0  0
 22 24  1  0  0  0
M  END
> <minimizedAffinity>
-7.01999

$$$$
1JMF_UMP_A_317


 24 25  0  0  0  0  0  0  0  0999 V2000
   15.0995   46.4773  -52.6144 C   0  0  0  0  0  0  0  0  0  0  0  0
   15.6851   45.3211  -51.7978 C   0  0  0  0  0  0  0  0  0  0  0  0
   14.6270   45.0050  -50.7557 C   0  0  0  0  0  0  0  0  0  0  0  0
   14.0225   46.3504  -50.3335 C   0  0  0  0  0  0  0  0  0  0  0  0
   13.6134   44.2089  -51.3573 O   0  0  0  0  0  0  0  0  0  0  0  0
   14.5449   47.2718  -51.4551 O   0  0  0  0  0  0  0  0  0  0  0  0
   13.2380   44.6824  -52.1161 H   0  0  0  0  0  0  0  0  0  0  0  0
   15.9898   46.9653  -53.7328 N   0  0  0  0  0  0  0  0  0  0  0  0
   16.0257   46.1733  -54.8930 C   0  0  0  0  0  0  0  0  0  0  0  0
   16.9617   46.3815  -55.8692 N   0  0  0  0  0  0  0  0  0  0  0  0
   17.9220   47.3497  -55.8321 C   0  0  0  0  0  0  0  0  0  0  0  0
   17.8714   48.2025  -54.5912 C   0  0  0  0  0  0  0  0  0  0  0  0
   16.8756   47.9717  -53.5715 C   0  0  0  0  0  0  0  0  0  0  0  0
   15.2574   45.2745  -55.1739 O   0  0  0  0  0  0  0  0  0  0  0  0
   18.6522   47.3999  -56.8273 O   0  0  0  0  0  0  0  0  0  0  0  0
   16.9406   45.7895  -56.6555 H   0  0  0  0  0  0  0  0  0  0  0  0
   14.5460   46.7503  -48.9537 C   0  0  0  0  0  0  0  0  0  0  0  0
   13.4249   47.2108  -48.0902 O   0  0  0  0  0  0  0  0  0  0  0  0
   13.1069   46.4368  -46.7094 P   0  0  0  0  0  0  0  0  0  0  0  0
   14.3259   46.0283  -45.9661 O   0  0  0  0  0  0  0  0  0  0  0  0
   12.3805   47.4601  -45.9531 O   0  0  0  0  0  0  0  0  0  0  0  0
   12.2250   45.2880  -46.9556 O   0  0  0  0  0  0  0  0  0  0  0  0
   12.9641   48.2178  -45.7914 H   0  0  0  0  0  0  0  0  0  0  0  0
   12.7073   44.6115  -47.4563 H   0  0  0  0  0  0  0  0  0  0  0  0
  8  9  1  0  0  0
  8 13  1  0  0  0
  8  1  1  0  0  0
  9 10  1  0  0  0
  9 14  2  0  0  0
 10 11  1  0  0  0
 11 12  1  0  0  0
 11 15  2  0  0  0
 12 13  2  0  0  0
  1  2  1  0  0  0
  1  6  1  0  0  0
  2  3  1  0  0  0
  3  4  1  0  0  0
  3  5  1  0  0  0
  4  6  1  0  0  0
  4 17  1  0  0  0
 17 18  1  0  0  0
 18 19  1  0  0  0
 19 20  2  0  0  0
 19 21  1  0  0  0
 19 22  1  0  0  0
 10 16  1  0  0  0
  5  7  1  0  0  0
 21 23  1  0  0  0
 22 24  1  0  0  0
M  END
> <minimizedAffinity>
-6.97408

$$$$
1JMF_UMP_A_317


 24 25  0  0  0  0  0  0  0  0999 V2000
   15.4937   46.4662  -52.4578 C   0  0  0  0  0  0  0  0  0  0  0  0
   15.7054   45.5263  -51.2668 C   0  0  0  0  0  0  0  0  0  0  0  0
   14.3120   45.2677  -50.7221 C   0  0  0  0  0  0  0  0  0  0  0  0
   13.5446   46.5894  -50.8565 C   0  0  0  0  0  0  0  0  0  0  0  0
   13.6802   44.2799  -51.5273 O   0  0  0  0  0  0  0  0  0  0  0  0
   14.4708   47.3708  -51.8112 O   0  0  0  0  0  0  0  0  0  0  0  0
   13.6537   44.5823  -52.4486 H   0  0  0  0  0  0  0  0  0  0  0  0
   16.7635   46.8629  -53.1732 N   0  0  0  0  0  0  0  0  0  0  0  0
   17.2142   45.9884  -54.1766 C   0  0  0  0  0  0  0  0  0  0  0  0
   18.4610   46.1160  -54.7257 N   0  0  0  0  0  0  0  0  0  0  0  0
   19.3680   47.0751  -54.3815 C   0  0  0  0  0  0  0  0  0  0  0  0
   18.8750   48.0163  -53.3135 C   0  0  0  0  0  0  0  0  0  0  0  0
   17.5554   47.8698  -52.7460 C   0  0  0  0  0  0  0  0  0  0  0  0
   16.5807   45.0789  -54.6752 O   0  0  0  0  0  0  0  0  0  0  0  0
   20.4265   47.0457  -55.0178 O   0  0  0  0  0  0  0  0  0  0  0  0
   18.7225   45.4686  -55.4197 H   0  0  0  0  0  0  0  0  0  0  0  0
   13.4113   47.2595  -49.4887 C   0  0  0  0  0  0  0  0  0  0  0  0
   13.9156   48.6583  -49.5482 O   0  0  0  0  0  0  0  0  0  0  0  0
   12.9171   49.8846  -49.2225 P   0  0  0  0  0  0  0  0  0  0  0  0
   13.4955   51.2167  -49.5329 O   0  0  0  0  0  0  0  0  0  0  0  0
   11.7959   49.6050  -50.1234 O   0  0  0  0  0  0  0  0  0  0  0  0
   12.4574   49.8167  -47.8289 O   0  0  0  0  0  0  0  0  0  0  0  0
   12.1011   49.6501  -51.0431 H   0  0  0  0  0  0  0  0  0  0  0  0
   13.2007   50.0020  -47.2338 H   0  0  0  0  0  0  0  0  0  0  0  0
  8  9  1  0  0  0
  8 13  1  0  0  0
  8  1  1  0  0  0
  9 10  1  0  0  0
  9 14  2  0  0  0
 10 11  1  0  0  0
 11 12  1  0  0  0
 11 15  2  0  0  0
 12 13  2  0  0  0
  1  2  1  0  0  0
  1  6  1  0  0  0
  2  3  1  0  0  0
  3  4  1  0  0  0
  3  5  1  0  0  0
  4  6  1  0  0  0
  4 17  1  0  0  0
 17 18  1  0  0  0
 18 19  1  0  0  0
 19 20  2  0  0  0
 19 21  1  0  0  0
 19 22  1  0  0  0
 10 16  1  0  0  0
  5  7  1  0  0  0
 21 23  1  0  0  0
 22 24  1  0  0  0
M  END
> <minimizedAffinity>
-6.79173

$$$$
1JMF_UMP_A_317


 24 25  0  0  0  0  0  0  0  0999 V2000
   17.1141   47.1995  -51.4603 C   0  0  0  0  0  0  0  0  0  0  0  0
   17.9436   45.9487  -51.7671 C   0  0  0  0  0  0  0  0  0  0  0  0
   19.2526   46.4770  -52.3264 C   0  0  0  0  0  0  0  0  0  0  0  0
   18.8940   47.6997  -53.1808 C   0  0  0  0  0  0  0  0  0  0  0  0
   20.0795   46.8918  -51.2459 O   0  0  0  0  0  0  0  0  0  0  0  0
   17.4462   47.9658  -52.7194 O   0  0  0  0  0  0  0  0  0  0  0  0
   19.6158   47.5652  -50.7240 H   0  0  0  0  0  0  0  0  0  0  0  0
   15.7491   46.9160  -50.8789 N   0  0  0  0  0  0  0  0  0  0  0  0
   15.6592   46.8979  -49.4767 C   0  0  0  0  0  0  0  0  0  0  0  0
   14.5434   46.4261  -48.8403 N   0  0  0  0  0  0  0  0  0  0  0  0
   13.4322   45.9480  -49.4706 C   0  0  0  0  0  0  0  0  0  0  0  0
   13.5301   45.9803  -50.9736 C   0  0  0  0  0  0  0  0  0  0  0  0
   14.7134   46.4838  -51.6301 C   0  0  0  0  0  0  0  0  0  0  0  0
   16.4996   47.3017  -48.6972 O   0  0  0  0  0  0  0  0  0  0  0  0
   12.5142   45.6010  -48.7201 O   0  0  0  0  0  0  0  0  0  0  0  0
   14.5426   46.4323  -47.8558 H   0  0  0  0  0  0  0  0  0  0  0  0
   18.9813   47.3455  -54.6656 C   0  0  0  0  0  0  0  0  0  0  0  0
   17.8782   48.0020  -55.4183 O   0  0  0  0  0  0  0  0  0  0  0  0
   16.6430   47.1170  -55.9642 P   0  0  0  0  0  0  0  0  0  0  0  0
   15.9954   47.6874  -57.1728 O   0  0  0  0  0  0  0  0  0  0  0  0
   17.3055   45.8545  -56.3016 O   0  0  0  0  0  0  0  0  0  0  0  0
   15.6627   46.8879  -54.8944 O   0  0  0  0  0  0  0  0  0  0  0  0
   17.9524   46.0075  -57.0081 H   0  0  0  0  0  0  0  0  0  0  0  0
   15.2250   47.7245  -54.6722 H   0  0  0  0  0  0  0  0  0  0  0  0
  8  9  1  0  0  0
  8 13  1  0  0  0
  8  1  1  0  0  0
  9 10  1  0  0  0
  9 14  2  0  0  0
 10 11  1  0  0  0
 11 12  1  0  0  0
 11 15  2  0  0  0
 12 13  2  0  0  0
  1  2  1  0  0  0
  1  6  1  0  0  0
  2  3  1  0  0  0
  3  4  1  0  0  0
  3  5  1  0  0  0
  4  6  1  0  0  0
  4 17  1  0  0  0
 17 18  1  0  0  0
 18 19  1  0  0  0
 19 20  2  0  0  0
 19 21  1  0  0  0
 19 22  1  0  0  0
 10 16  1  0  0  0
  5  7  1  0  0  0
 21 23  1  0  0  0
 22 24  1  0  0  0
M  END
> <minimizedAffinity>
-6.78997

$$$$
