4WKN_TDI_A_301


 24 26  0  0  0  0  0  0  0  0999 V2000
    7.7237   49.0196  -36.9991 C   0  0  0  0  0  0  0  0  0  0  0  0
    9.3800   49.0310  -35.3587 C   0  0  0  0  0  0  0  0  0  0  0  0
    9.9021   50.2104  -35.8636 C   0  0  0  0  0  0  0  0  0  0  0  0
    9.2806   50.7838  -36.9763 C   0  0  0  0  0  0  0  0  0  0  0  0
   10.1543   48.6056  -34.2729 C   0  0  0  0  0  0  0  0  0  0  0  0
   11.1340   49.5892  -34.1346 C   0  0  0  0  0  0  0  0  0  0  0  0
   10.9553   50.5367  -35.0973 N   0  0  0  0  0  0  0  0  0  0  0  0
    9.7444   51.9476  -37.5137 N   0  0  0  0  0  0  0  0  0  0  0  0
    8.1966   50.1722  -37.5214 N   0  0  0  0  0  0  0  0  0  0  0  0
    8.2980   48.4371  -35.9273 N   0  0  0  0  0  0  0  0  0  0  0  0
   11.5138   51.3391  -35.2134 H   0  0  0  0  0  0  0  0  0  0  0  0
   10.5296   52.3927  -37.1207 H   0  0  0  0  0  0  0  0  0  0  0  0
    9.2941   52.3429  -38.2948 H   0  0  0  0  0  0  0  0  0  0  0  0
    9.9849   47.4164  -33.3461 C   0  0  0  0  0  0  0  0  0  0  0  0
   12.1632   45.1870  -35.2574 C   0  0  0  0  0  0  0  0  0  0  0  0
   12.0240   46.3172  -34.2285 C   0  0  0  0  0  0  0  0  0  0  0  0
   10.6839   46.1580  -33.6152 N   0  0  0  0  0  0  0  0  0  0  0  0
    9.9119   45.2640  -34.5252 C   0  0  0  0  0  0  0  0  0  0  0  0
   10.9782   44.2804  -34.9798 C   0  0  0  0  0  0  0  0  0  0  0  0
   11.3101   43.3756  -33.9167 O   0  0  0  0  0  0  0  0  0  0  0  0
   11.5908   43.8810  -33.1378 H   0  0  0  0  0  0  0  0  0  0  0  0
   12.1381   45.7697  -36.6745 C   0  0  0  0  0  0  0  0  0  0  0  0
   14.4944   44.4621  -37.5007 C   0  0  0  0  0  0  0  0  0  0  0  0
   12.7765   44.6506  -37.8683 S   0  0  0  0  0  0  0  0  0  0  0  0
  1  9  2  0  0  0
  1 10  1  0  0  0
  2  3  1  0  0  0
  2  5  1  0  0  0
  2 10  2  0  0  0
  3  4  2  0  0  0
  3  7  1  0  0  0
  4  8  1  0  0  0
  4  9  1  0  0  0
 23 24  1  0  0  0
 24 22  1  0  0  0
 22 15  1  0  0  0
 15 16  1  0  0  0
 15 19  1  0  0  0
 16 17  1  0  0  0
 17 14  1  0  0  0
 17 18  1  0  0  0
 14  5  1  0  0  0
  5  6  2  0  0  0
  6  7  1  0  0  0
 18 19  1  0  0  0
 19 20  1  0  0  0
  7 11  1  0  0  0
  8 12  1  0  0  0
  8 13  1  0  0  0
 20 21  1  0  0  0
M  END
> <minimizedAffinity>
-9.45938

$$$$
