456C_CBP_A_1


 30 32  0  0  0  0  0  0  0  0999 V2000
   -5.8366   28.3583   56.4730 S   0  0  0  0  0  0  0  0  0  0  0  0
   -5.8128   27.3986   57.5324 O   0  0  0  0  0  0  0  0  0  0  0  0
   -6.6790   29.4994   56.6508 O   0  0  0  0  0  0  0  0  0  0  0  0
   -4.1214   28.9119   56.2214 C   0  0  0  0  0  0  0  0  0  0  0  0
   -4.1069   30.4449   55.9852 C   0  0  0  0  0  0  0  0  0  0  0  0
   -2.7139   31.0386   56.1486 C   0  0  0  0  0  0  0  0  0  0  0  0
   -2.2575   30.7611   57.4654 O   0  0  0  0  0  0  0  0  0  0  0  0
   -2.0758   29.3947   57.7720 C   0  0  0  0  0  0  0  0  0  0  0  0
   -3.3972   28.6178   57.5784 C   0  0  0  0  0  0  0  0  0  0  0  0
   -3.4389   28.0976   55.0707 C   0  0  0  0  0  0  0  0  0  0  0  0
   -2.7703   24.5304   55.8443 O   0  0  0  0  0  0  0  0  0  0  0  0
   -3.3699   25.6587   55.2693 N   0  0  0  0  0  0  0  0  0  0  0  0
   -2.6855   26.7882   55.3926 C   0  0  0  0  0  0  0  0  0  0  0  0
   -1.5222   26.7305   55.8010 O   0  0  0  0  0  0  0  0  0  0  0  0
   -3.3384   23.7564   55.7058 H   0  0  0  0  0  0  0  0  0  0  0  0
   -4.2378   25.6161   54.8065 H   0  0  0  0  0  0  0  0  0  0  0  0
   -6.4688   27.5746   55.0027 C   0  0  0  0  0  0  0  0  0  0  0  0
   -6.6217   26.2026   54.9283 C   0  0  0  0  0  0  0  0  0  0  0  0
   -7.1999   25.6448   53.8027 C   0  0  0  0  0  0  0  0  0  0  0  0
   -7.6177   26.4415   52.7450 C   0  0  0  0  0  0  0  0  0  0  0  0
   -7.3904   27.8228   52.7982 C   0  0  0  0  0  0  0  0  0  0  0  0
   -6.8209   28.3801   53.9312 C   0  0  0  0  0  0  0  0  0  0  0  0
   -8.2952   25.7621   51.7342 O   0  0  0  0  0  0  0  0  0  0  0  0
   -8.6027   26.3604   50.5256 C   0  0  0  0  0  0  0  0  0  0  0  0
   -9.8741   26.1261   50.0128 C   0  0  0  0  0  0  0  0  0  0  0  0
  -10.2214   26.6092   48.7529 C   0  0  0  0  0  0  0  0  0  0  0  0
   -9.2643   27.3430   48.0503 C   0  0  0  0  0  0  0  0  0  0  0  0
   -8.0018   27.6149   48.5597 C   0  0  0  0  0  0  0  0  0  0  0  0
   -7.6674   27.1096   49.8053 C   0  0  0  0  0  0  0  0  0  0  0  0
   -9.6236   27.8968   46.4673 Cl  0  0  0  0  0  0  0  0  0  0  0  0
 11 12  1  0  0  0
 12 13  1  0  0  0
 13 14  2  0  0  0
 13 10  1  0  0  0
 10  4  1  0  0  0
  4  5  1  0  0  0
  4  9  1  0  0  0
  4  1  1  0  0  0
  5  6  1  0  0  0
  6  7  1  0  0  0
  7  8  1  0  0  0
  8  9  1  0  0  0
  1  2  2  0  0  0
  1  3  2  0  0  0
  1 17  1  0  0  0
 17 18  2  0  0  0
 17 22  1  0  0  0
 18 19  1  0  0  0
 19 20  2  0  0  0
 20 21  1  0  0  0
 20 23  1  0  0  0
 21 22  2  0  0  0
 23 24  1  0  0  0
 24 25  2  0  0  0
 24 29  1  0  0  0
 25 26  1  0  0  0
 26 27  2  0  0  0
 27 28  1  0  0  0
 27 30  1  0  0  0
 28 29  2  0  0  0
 11 15  1  0  0  0
 12 16  1  0  0  0
M  END
> <minimizedAffinity>
-9.90457

$$$$
456C_CBP_A_1


 30 32  0  0  0  0  0  0  0  0999 V2000
   -5.3404   28.3076   56.2257 S   0  0  0  0  0  0  0  0  0  0  0  0
   -5.7402   27.6926   57.4529 O   0  0  0  0  0  0  0  0  0  0  0  0
   -5.5522   29.7163   56.1074 O   0  0  0  0  0  0  0  0  0  0  0  0
   -3.5706   27.9463   56.0043 C   0  0  0  0  0  0  0  0  0  0  0  0
   -2.8345   28.1413   57.3557 C   0  0  0  0  0  0  0  0  0  0  0  0
   -1.4528   27.5005   57.3554 C   0  0  0  0  0  0  0  0  0  0  0  0
   -1.6005   26.1113   57.0963 O   0  0  0  0  0  0  0  0  0  0  0  0
   -2.1219   25.7803   55.8264 C   0  0  0  0  0  0  0  0  0  0  0  0
   -3.5108   26.4274   55.6279 C   0  0  0  0  0  0  0  0  0  0  0  0
   -2.9712   28.8037   54.8387 C   0  0  0  0  0  0  0  0  0  0  0  0
   -2.3120   32.4220   55.3325 O   0  0  0  0  0  0  0  0  0  0  0  0
   -2.9934   31.1978   55.3488 N   0  0  0  0  0  0  0  0  0  0  0  0
   -2.2370   30.1262   55.1511 C   0  0  0  0  0  0  0  0  0  0  0  0
   -1.0101   30.2586   55.1761 O   0  0  0  0  0  0  0  0  0  0  0  0
   -2.9413   33.1443   55.4845 H   0  0  0  0  0  0  0  0  0  0  0  0
   -3.9648   31.1372   55.4966 H   0  0  0  0  0  0  0  0  0  0  0  0
   -6.2983   27.6095   54.8951 C   0  0  0  0  0  0  0  0  0  0  0  0
   -6.7899   26.3192   54.9631 C   0  0  0  0  0  0  0  0  0  0  0  0
   -7.6037   25.8492   53.9485 C   0  0  0  0  0  0  0  0  0  0  0  0
   -7.9235   26.6503   52.8605 C   0  0  0  0  0  0  0  0  0  0  0  0
   -7.3602   27.9293   52.7642 C   0  0  0  0  0  0  0  0  0  0  0  0
   -6.5542   28.4015   53.7869 C   0  0  0  0  0  0  0  0  0  0  0  0
   -8.8506   26.0961   51.9797 O   0  0  0  0  0  0  0  0  0  0  0  0
   -8.8533   26.3988   50.6301 C   0  0  0  0  0  0  0  0  0  0  0  0
   -7.7200   27.0261   50.1235 C   0  0  0  0  0  0  0  0  0  0  0  0
   -7.6898   27.4546   48.7980 C   0  0  0  0  0  0  0  0  0  0  0  0
   -8.8157   27.2123   48.0095 C   0  0  0  0  0  0  0  0  0  0  0  0
   -9.9429   26.5585   48.4884 C   0  0  0  0  0  0  0  0  0  0  0  0
   -9.9627   26.1575   49.8141 C   0  0  0  0  0  0  0  0  0  0  0  0
   -8.8502   27.7845   46.3930 Cl  0  0  0  0  0  0  0  0  0  0  0  0
 11 12  1  0  0  0
 12 13  1  0  0  0
 13 14  2  0  0  0
 13 10  1  0  0  0
 10  4  1  0  0  0
  4  5  1  0  0  0
  4  9  1  0  0  0
  4  1  1  0  0  0
  5  6  1  0  0  0
  6  7  1  0  0  0
  7  8  1  0  0  0
  8  9  1  0  0  0
  1  2  2  0  0  0
  1  3  2  0  0  0
  1 17  1  0  0  0
 17 18  2  0  0  0
 17 22  1  0  0  0
 18 19  1  0  0  0
 19 20  2  0  0  0
 20 21  1  0  0  0
 20 23  1  0  0  0
 21 22  2  0  0  0
 23 24  1  0  0  0
 24 25  2  0  0  0
 24 29  1  0  0  0
 25 26  1  0  0  0
 26 27  2  0  0  0
 27 28  1  0  0  0
 27 30  1  0  0  0
 28 29  2  0  0  0
 11 15  1  0  0  0
 12 16  1  0  0  0
M  END
> <minimizedAffinity>
-9.00172

$$$$
456C_CBP_A_1


 30 32  0  0  0  0  0  0  0  0999 V2000
   -5.5158   26.8482   54.7926 S   0  0  0  0  0  0  0  0  0  0  0  0
   -4.1834   26.4999   54.4087 O   0  0  0  0  0  0  0  0  0  0  0  0
   -6.1314   26.0431   55.8007 O   0  0  0  0  0  0  0  0  0  0  0  0
   -5.4703   28.5793   55.3520 C   0  0  0  0  0  0  0  0  0  0  0  0
   -6.6474   29.3574   54.7078 C   0  0  0  0  0  0  0  0  0  0  0  0
   -6.9102   30.6847   55.4069 C   0  0  0  0  0  0  0  0  0  0  0  0
   -7.2094   30.4237   56.7713 O   0  0  0  0  0  0  0  0  0  0  0  0
   -6.1624   29.8508   57.5260 C   0  0  0  0  0  0  0  0  0  0  0  0
   -5.7139   28.5126   56.8975 C   0  0  0  0  0  0  0  0  0  0  0  0
   -4.0695   29.2182   55.0647 C   0  0  0  0  0  0  0  0  0  0  0  0
   -1.5019   27.7667   57.3167 O   0  0  0  0  0  0  0  0  0  0  0  0
   -2.3027   27.9431   56.1805 N   0  0  0  0  0  0  0  0  0  0  0  0
   -2.9393   29.1048   56.1114 C   0  0  0  0  0  0  0  0  0  0  0  0
   -2.6309   29.9938   56.9100 O   0  0  0  0  0  0  0  0  0  0  0  0
   -1.0785   26.8947   57.2816 H   0  0  0  0  0  0  0  0  0  0  0  0
   -2.3870   27.2536   55.4829 H   0  0  0  0  0  0  0  0  0  0  0  0
   -6.5857   26.6698   53.3788 C   0  0  0  0  0  0  0  0  0  0  0  0
   -7.5144   25.6484   53.3042 C   0  0  0  0  0  0  0  0  0  0  0  0
   -8.3853   25.6007   52.2310 C   0  0  0  0  0  0  0  0  0  0  0  0
   -8.3319   26.5562   51.2249 C   0  0  0  0  0  0  0  0  0  0  0  0
   -7.3390   27.5433   51.2715 C   0  0  0  0  0  0  0  0  0  0  0  0
   -6.4750   27.5952   52.3529 C   0  0  0  0  0  0  0  0  0  0  0  0
   -9.3461   26.4600   50.2738 O   0  0  0  0  0  0  0  0  0  0  0  0
   -9.1654   26.8660   48.9640 C   0  0  0  0  0  0  0  0  0  0  0  0
   -8.0903   27.7110   48.7095 C   0  0  0  0  0  0  0  0  0  0  0  0
   -7.9044   28.2440   47.4357 C   0  0  0  0  0  0  0  0  0  0  0  0
   -8.8132   27.8832   46.4398 C   0  0  0  0  0  0  0  0  0  0  0  0
   -9.8728   27.0154   46.6668 C   0  0  0  0  0  0  0  0  0  0  0  0
  -10.0536   26.5110   47.9441 C   0  0  0  0  0  0  0  0  0  0  0  0
   -8.6642   28.5703   44.8754 Cl  0  0  0  0  0  0  0  0  0  0  0  0
 11 12  1  0  0  0
 12 13  1  0  0  0
 13 14  2  0  0  0
 13 10  1  0  0  0
 10  4  1  0  0  0
  4  5  1  0  0  0
  4  9  1  0  0  0
  4  1  1  0  0  0
  5  6  1  0  0  0
  6  7  1  0  0  0
  7  8  1  0  0  0
  8  9  1  0  0  0
  1  2  2  0  0  0
  1  3  2  0  0  0
  1 17  1  0  0  0
 17 18  2  0  0  0
 17 22  1  0  0  0
 18 19  1  0  0  0
 19 20  2  0  0  0
 20 21  1  0  0  0
 20 23  1  0  0  0
 21 22  2  0  0  0
 23 24  1  0  0  0
 24 25  2  0  0  0
 24 29  1  0  0  0
 25 26  1  0  0  0
 26 27  2  0  0  0
 27 28  1  0  0  0
 27 30  1  0  0  0
 28 29  2  0  0  0
 11 15  1  0  0  0
 12 16  1  0  0  0
M  END
> <minimizedAffinity>
-8.45965

$$$$
456C_CBP_A_1


 30 32  0  0  0  0  0  0  0  0999 V2000
   -7.6565   26.5192   53.7816 S   0  0  0  0  0  0  0  0  0  0  0  0
   -6.9491   25.3048   54.0440 O   0  0  0  0  0  0  0  0  0  0  0  0
   -8.9564   26.6506   54.3617 O   0  0  0  0  0  0  0  0  0  0  0  0
   -6.6002   27.8832   54.3610 C   0  0  0  0  0  0  0  0  0  0  0  0
   -7.3224   29.2329   54.1106 C   0  0  0  0  0  0  0  0  0  0  0  0
   -6.6958   30.3751   54.8994 C   0  0  0  0  0  0  0  0  0  0  0  0
   -6.7606   30.0562   56.2826 O   0  0  0  0  0  0  0  0  0  0  0  0
   -6.0149   28.9259   56.6830 C   0  0  0  0  0  0  0  0  0  0  0  0
   -6.4774   27.6720   55.9078 C   0  0  0  0  0  0  0  0  0  0  0  0
   -5.1814   27.8039   53.7023 C   0  0  0  0  0  0  0  0  0  0  0  0
   -3.1452   25.3863   55.6464 O   0  0  0  0  0  0  0  0  0  0  0  0
   -4.0556   25.8719   54.6984 N   0  0  0  0  0  0  0  0  0  0  0  0
   -4.0023   27.1792   54.4802 C   0  0  0  0  0  0  0  0  0  0  0  0
   -3.0552   27.8165   54.9495 O   0  0  0  0  0  0  0  0  0  0  0  0
   -3.2562   24.4272   55.7395 H   0  0  0  0  0  0  0  0  0  0  0  0
   -4.6900   25.2844   54.2277 H   0  0  0  0  0  0  0  0  0  0  0  0
   -7.9469   26.6469   52.0281 C   0  0  0  0  0  0  0  0  0  0  0  0
   -7.0754   27.3335   51.2032 C   0  0  0  0  0  0  0  0  0  0  0  0
   -7.2908   27.3311   49.8371 C   0  0  0  0  0  0  0  0  0  0  0  0
   -8.3737   26.6591   49.2861 C   0  0  0  0  0  0  0  0  0  0  0  0
   -9.2921   26.0294   50.1361 C   0  0  0  0  0  0  0  0  0  0  0  0
   -9.0682   26.0243   51.5029 C   0  0  0  0  0  0  0  0  0  0  0  0
   -8.3979   26.6340   47.8928 O   0  0  0  0  0  0  0  0  0  0  0  0
   -8.6169   27.7744   47.1414 C   0  0  0  0  0  0  0  0  0  0  0  0
   -9.7212   27.7687   46.2959 C   0  0  0  0  0  0  0  0  0  0  0  0
   -9.9485   28.8387   45.4329 C   0  0  0  0  0  0  0  0  0  0  0  0
   -9.0498   29.9060   45.4683 C   0  0  0  0  0  0  0  0  0  0  0  0
   -7.9608   29.9443   46.3285 C   0  0  0  0  0  0  0  0  0  0  0  0
   -7.7395   28.8628   47.1651 C   0  0  0  0  0  0  0  0  0  0  0  0
   -9.2505   31.2119   44.3747 Cl  0  0  0  0  0  0  0  0  0  0  0  0
 11 12  1  0  0  0
 12 13  1  0  0  0
 13 14  2  0  0  0
 13 10  1  0  0  0
 10  4  1  0  0  0
  4  5  1  0  0  0
  4  9  1  0  0  0
  4  1  1  0  0  0
  5  6  1  0  0  0
  6  7  1  0  0  0
  7  8  1  0  0  0
  8  9  1  0  0  0
  1  2  2  0  0  0
  1  3  2  0  0  0
  1 17  1  0  0  0
 17 18  2  0  0  0
 17 22  1  0  0  0
 18 19  1  0  0  0
 19 20  2  0  0  0
 20 21  1  0  0  0
 20 23  1  0  0  0
 21 22  2  0  0  0
 23 24  1  0  0  0
 24 25  2  0  0  0
 24 29  1  0  0  0
 25 26  1  0  0  0
 26 27  2  0  0  0
 27 28  1  0  0  0
 27 30  1  0  0  0
 28 29  2  0  0  0
 11 15  1  0  0  0
 12 16  1  0  0  0
M  END
> <minimizedAffinity>
-8.42648

$$$$
456C_CBP_A_1


 30 32  0  0  0  0  0  0  0  0999 V2000
   -5.7341   29.0889   56.9499 S   0  0  0  0  0  0  0  0  0  0  0  0
   -5.4117   28.1794   58.0048 O   0  0  0  0  0  0  0  0  0  0  0  0
   -6.7779   30.0320   57.2035 O   0  0  0  0  0  0  0  0  0  0  0  0
   -4.2044   29.9837   56.5362 C   0  0  0  0  0  0  0  0  0  0  0  0
   -3.3577   30.1735   57.8220 C   0  0  0  0  0  0  0  0  0  0  0  0
   -1.9177   30.5592   57.5103 C   0  0  0  0  0  0  0  0  0  0  0  0
   -1.3394   29.5349   56.7131 O   0  0  0  0  0  0  0  0  0  0  0  0
   -1.9196   29.3540   55.4385 C   0  0  0  0  0  0  0  0  0  0  0  0
   -3.4240   29.0283   55.5716 C   0  0  0  0  0  0  0  0  0  0  0  0
   -4.5298   31.3274   55.8002 C   0  0  0  0  0  0  0  0  0  0  0  0
   -5.9963   34.1733   57.6765 O   0  0  0  0  0  0  0  0  0  0  0  0
   -5.8089   32.8648   57.2117 N   0  0  0  0  0  0  0  0  0  0  0  0
   -4.6507   32.6397   56.6056 C   0  0  0  0  0  0  0  0  0  0  0  0
   -3.7712   33.5028   56.6767 O   0  0  0  0  0  0  0  0  0  0  0  0
   -6.8648   34.2437   58.1027 H   0  0  0  0  0  0  0  0  0  0  0  0
   -6.4887   32.1621   57.3269 H   0  0  0  0  0  0  0  0  0  0  0  0
   -6.3193   28.1576   55.5479 C   0  0  0  0  0  0  0  0  0  0  0  0
   -6.2375   26.7779   55.5164 C   0  0  0  0  0  0  0  0  0  0  0  0
   -6.7853   26.0902   54.4488 C   0  0  0  0  0  0  0  0  0  0  0  0
   -7.4049   26.7662   53.4062 C   0  0  0  0  0  0  0  0  0  0  0  0
   -7.4167   28.1670   53.4110 C   0  0  0  0  0  0  0  0  0  0  0  0
   -6.8769   28.8529   54.4865 C   0  0  0  0  0  0  0  0  0  0  0  0
   -8.0216   25.9459   52.4632 O   0  0  0  0  0  0  0  0  0  0  0  0
   -8.3512   26.3996   51.1988 C   0  0  0  0  0  0  0  0  0  0  0  0
   -9.5932   26.0228   50.6989 C   0  0  0  0  0  0  0  0  0  0  0  0
   -9.9533   26.3543   49.3944 C   0  0  0  0  0  0  0  0  0  0  0  0
   -9.0405   27.0855   48.6327 C   0  0  0  0  0  0  0  0  0  0  0  0
   -7.8101   27.4987   49.1254 C   0  0  0  0  0  0  0  0  0  0  0  0
   -7.4610   27.1429   50.4178 C   0  0  0  0  0  0  0  0  0  0  0  0
   -9.4121   27.4549   46.9996 Cl  0  0  0  0  0  0  0  0  0  0  0  0
 11 12  1  0  0  0
 12 13  1  0  0  0
 13 14  2  0  0  0
 13 10  1  0  0  0
 10  4  1  0  0  0
  4  5  1  0  0  0
  4  9  1  0  0  0
  4  1  1  0  0  0
  5  6  1  0  0  0
  6  7  1  0  0  0
  7  8  1  0  0  0
  8  9  1  0  0  0
  1  2  2  0  0  0
  1  3  2  0  0  0
  1 17  1  0  0  0
 17 18  2  0  0  0
 17 22  1  0  0  0
 18 19  1  0  0  0
 19 20  2  0  0  0
 20 21  1  0  0  0
 20 23  1  0  0  0
 21 22  2  0  0  0
 23 24  1  0  0  0
 24 25  2  0  0  0
 24 29  1  0  0  0
 25 26  1  0  0  0
 26 27  2  0  0  0
 27 28  1  0  0  0
 27 30  1  0  0  0
 28 29  2  0  0  0
 11 15  1  0  0  0
 12 16  1  0  0  0
M  END
> <minimizedAffinity>
-8.34366

$$$$
456C_CBP_A_1


 30 32  0  0  0  0  0  0  0  0999 V2000
   -5.7751   29.5815   56.4751 S   0  0  0  0  0  0  0  0  0  0  0  0
   -4.3709   29.7987   56.3177 O   0  0  0  0  0  0  0  0  0  0  0  0
   -6.2012   28.9423   57.6806 O   0  0  0  0  0  0  0  0  0  0  0  0
   -6.5808   31.2079   56.3413 C   0  0  0  0  0  0  0  0  0  0  0  0
   -5.8042   32.0824   55.3223 C   0  0  0  0  0  0  0  0  0  0  0  0
   -6.6127   33.2905   54.8680 C   0  0  0  0  0  0  0  0  0  0  0  0
   -7.8163   32.8284   54.2705 O   0  0  0  0  0  0  0  0  0  0  0  0
   -8.6993   32.1409   55.1316 C   0  0  0  0  0  0  0  0  0  0  0  0
   -8.0002   30.9100   55.7507 C   0  0  0  0  0  0  0  0  0  0  0  0
   -6.7242   31.8734   57.7519 C   0  0  0  0  0  0  0  0  0  0  0  0
   -4.2769   34.4796   58.7463 O   0  0  0  0  0  0  0  0  0  0  0  0
   -5.5047   33.8871   58.4227 N   0  0  0  0  0  0  0  0  0  0  0  0
   -5.5072   32.5607   58.4091 C   0  0  0  0  0  0  0  0  0  0  0  0
   -4.5283   31.9652   58.8680 O   0  0  0  0  0  0  0  0  0  0  0  0
   -4.3699   35.4450   58.7316 H   0  0  0  0  0  0  0  0  0  0  0  0
   -6.3088   34.4177   58.2198 H   0  0  0  0  0  0  0  0  0  0  0  0
   -6.3358   28.4913   55.1819 C   0  0  0  0  0  0  0  0  0  0  0  0
   -6.5521   27.1465   55.4186 C   0  0  0  0  0  0  0  0  0  0  0  0
   -7.0730   26.3557   54.4108 C   0  0  0  0  0  0  0  0  0  0  0  0
   -7.3706   26.8909   53.1646 C   0  0  0  0  0  0  0  0  0  0  0  0
   -7.0783   28.2373   52.9114 C   0  0  0  0  0  0  0  0  0  0  0  0
   -6.5666   29.0297   53.9258 C   0  0  0  0  0  0  0  0  0  0  0  0
   -8.0051   26.0125   52.2882 O   0  0  0  0  0  0  0  0  0  0  0  0
   -8.4197   26.4041   51.0281 C   0  0  0  0  0  0  0  0  0  0  0  0
   -9.7027   26.0297   50.6430 C   0  0  0  0  0  0  0  0  0  0  0  0
  -10.1530   26.2978   49.3520 C   0  0  0  0  0  0  0  0  0  0  0  0
   -9.2858   26.9649   48.4853 C   0  0  0  0  0  0  0  0  0  0  0  0
   -8.0143   27.3755   48.8620 C   0  0  0  0  0  0  0  0  0  0  0  0
   -7.5763   27.0827   50.1431 C   0  0  0  0  0  0  0  0  0  0  0  0
   -9.7715   27.2533   46.8658 Cl  0  0  0  0  0  0  0  0  0  0  0  0
 11 12  1  0  0  0
 12 13  1  0  0  0
 13 14  2  0  0  0
 13 10  1  0  0  0
 10  4  1  0  0  0
  4  5  1  0  0  0
  4  9  1  0  0  0
  4  1  1  0  0  0
  5  6  1  0  0  0
  6  7  1  0  0  0
  7  8  1  0  0  0
  8  9  1  0  0  0
  1  2  2  0  0  0
  1  3  2  0  0  0
  1 17  1  0  0  0
 17 18  2  0  0  0
 17 22  1  0  0  0
 18 19  1  0  0  0
 19 20  2  0  0  0
 20 21  1  0  0  0
 20 23  1  0  0  0
 21 22  2  0  0  0
 23 24  1  0  0  0
 24 25  2  0  0  0
 24 29  1  0  0  0
 25 26  1  0  0  0
 26 27  2  0  0  0
 27 28  1  0  0  0
 27 30  1  0  0  0
 28 29  2  0  0  0
 11 15  1  0  0  0
 12 16  1  0  0  0
M  END
> <minimizedAffinity>
-8.26393

$$$$
456C_CBP_A_1


 30 32  0  0  0  0  0  0  0  0999 V2000
   -6.8054   31.8908   57.3709 S   0  0  0  0  0  0  0  0  0  0  0  0
   -5.8649   31.8710   58.4474 O   0  0  0  0  0  0  0  0  0  0  0  0
   -8.1911   31.9182   57.7210 O   0  0  0  0  0  0  0  0  0  0  0  0
   -6.4148   33.3481   56.3532 C   0  0  0  0  0  0  0  0  0  0  0  0
   -5.4273   34.2623   57.1246 C   0  0  0  0  0  0  0  0  0  0  0  0
   -4.7595   35.2845   56.2142 C   0  0  0  0  0  0  0  0  0  0  0  0
   -4.0571   34.5882   55.1940 O   0  0  0  0  0  0  0  0  0  0  0  0
   -4.8573   33.8290   54.3125 C   0  0  0  0  0  0  0  0  0  0  0  0
   -5.6756   32.7783   55.0958 C   0  0  0  0  0  0  0  0  0  0  0  0
   -7.7254   34.0815   55.9087 C   0  0  0  0  0  0  0  0  0  0  0  0
   -9.4378   34.0228   52.6171 O   0  0  0  0  0  0  0  0  0  0  0  0
   -8.4898   34.3429   53.5980 N   0  0  0  0  0  0  0  0  0  0  0  0
   -8.5145   33.5769   54.6806 C   0  0  0  0  0  0  0  0  0  0  0  0
   -9.1981   32.5495   54.6596 O   0  0  0  0  0  0  0  0  0  0  0  0
   -9.3457   34.6315   51.8675 H   0  0  0  0  0  0  0  0  0  0  0  0
   -7.8505   35.0840   53.4911 H   0  0  0  0  0  0  0  0  0  0  0  0
   -6.6248   30.3926   56.4232 C   0  0  0  0  0  0  0  0  0  0  0  0
   -7.1906   30.2629   55.1685 C   0  0  0  0  0  0  0  0  0  0  0  0
   -6.9498   29.1180   54.4310 C   0  0  0  0  0  0  0  0  0  0  0  0
   -6.1584   28.0956   54.9374 C   0  0  0  0  0  0  0  0  0  0  0  0
   -5.6514   28.2042   56.2388 C   0  0  0  0  0  0  0  0  0  0  0  0
   -5.8851   29.3565   56.9710 C   0  0  0  0  0  0  0  0  0  0  0  0
   -5.8971   27.0609   54.0411 O   0  0  0  0  0  0  0  0  0  0  0  0
   -6.7147   26.8060   52.9550 C   0  0  0  0  0  0  0  0  0  0  0  0
   -6.5410   27.6106   51.8339 C   0  0  0  0  0  0  0  0  0  0  0  0
   -7.3951   27.4827   50.7405 C   0  0  0  0  0  0  0  0  0  0  0  0
   -8.3996   26.5159   50.8085 C   0  0  0  0  0  0  0  0  0  0  0  0
   -8.5676   25.6816   51.9052 C   0  0  0  0  0  0  0  0  0  0  0  0
   -7.7217   25.8367   52.9911 C   0  0  0  0  0  0  0  0  0  0  0  0
   -9.5172   26.3711   49.5156 Cl  0  0  0  0  0  0  0  0  0  0  0  0
 11 12  1  0  0  0
 12 13  1  0  0  0
 13 14  2  0  0  0
 13 10  1  0  0  0
 10  4  1  0  0  0
  4  5  1  0  0  0
  4  9  1  0  0  0
  4  1  1  0  0  0
  5  6  1  0  0  0
  6  7  1  0  0  0
  7  8  1  0  0  0
  8  9  1  0  0  0
  1  2  2  0  0  0
  1  3  2  0  0  0
  1 17  1  0  0  0
 17 18  2  0  0  0
 17 22  1  0  0  0
 18 19  1  0  0  0
 19 20  2  0  0  0
 20 21  1  0  0  0
 20 23  1  0  0  0
 21 22  2  0  0  0
 23 24  1  0  0  0
 24 25  2  0  0  0
 24 29  1  0  0  0
 25 26  1  0  0  0
 26 27  2  0  0  0
 27 28  1  0  0  0
 27 30  1  0  0  0
 28 29  2  0  0  0
 11 15  1  0  0  0
 12 16  1  0  0  0
M  END
> <minimizedAffinity>
-8.01079

$$$$
456C_CBP_A_1


 30 32  0  0  0  0  0  0  0  0999 V2000
   -5.5814   27.5707   55.7634 S   0  0  0  0  0  0  0  0  0  0  0  0
   -4.1887   27.3178   55.5624 O   0  0  0  0  0  0  0  0  0  0  0  0
   -6.2212   26.8651   56.8293 O   0  0  0  0  0  0  0  0  0  0  0  0
   -5.7604   29.3610   56.0363 C   0  0  0  0  0  0  0  0  0  0  0  0
   -5.9686   29.6307   57.5496 C   0  0  0  0  0  0  0  0  0  0  0  0
   -5.7441   31.0935   57.9090 C   0  0  0  0  0  0  0  0  0  0  0  0
   -4.4168   31.4480   57.5462 O   0  0  0  0  0  0  0  0  0  0  0  0
   -4.1280   31.3959   56.1650 C   0  0  0  0  0  0  0  0  0  0  0  0
   -4.3834   29.9754   55.6135 C   0  0  0  0  0  0  0  0  0  0  0  0
   -6.8998   29.9479   55.1361 C   0  0  0  0  0  0  0  0  0  0  0  0
   -9.3648   32.5038   56.2138 O   0  0  0  0  0  0  0  0  0  0  0  0
   -8.6655   31.2904   56.1716 N   0  0  0  0  0  0  0  0  0  0  0  0
   -7.5322   31.3137   55.4828 C   0  0  0  0  0  0  0  0  0  0  0  0
   -7.0855   32.4059   55.1207 O   0  0  0  0  0  0  0  0  0  0  0  0
  -10.1748   32.3923   56.7357 H   0  0  0  0  0  0  0  0  0  0  0  0
   -8.9922   30.4779   56.6214 H   0  0  0  0  0  0  0  0  0  0  0  0
   -6.4731   27.0621   54.3068 C   0  0  0  0  0  0  0  0  0  0  0  0
   -6.9401   25.7687   54.1648 C   0  0  0  0  0  0  0  0  0  0  0  0
   -7.7048   25.4412   53.0599 C   0  0  0  0  0  0  0  0  0  0  0  0
   -7.9994   26.3891   52.0890 C   0  0  0  0  0  0  0  0  0  0  0  0
   -7.4594   27.6766   52.2044 C   0  0  0  0  0  0  0  0  0  0  0  0
   -6.7029   28.0048   53.3172 C   0  0  0  0  0  0  0  0  0  0  0  0
   -8.8805   25.9570   51.0994 O   0  0  0  0  0  0  0  0  0  0  0  0
   -8.9061   26.5266   49.8392 C   0  0  0  0  0  0  0  0  0  0  0  0
  -10.0362   26.2892   49.0640 C   0  0  0  0  0  0  0  0  0  0  0  0
  -10.0908   26.7426   47.7477 C   0  0  0  0  0  0  0  0  0  0  0  0
   -8.9927   27.4507   47.2568 C   0  0  0  0  0  0  0  0  0  0  0  0
   -7.8700   27.7257   48.0258 C   0  0  0  0  0  0  0  0  0  0  0  0
   -7.8251   27.2498   49.3259 C   0  0  0  0  0  0  0  0  0  0  0  0
   -8.9868   27.9667   45.6211 Cl  0  0  0  0  0  0  0  0  0  0  0  0
 11 12  1  0  0  0
 12 13  1  0  0  0
 13 14  2  0  0  0
 13 10  1  0  0  0
 10  4  1  0  0  0
  4  5  1  0  0  0
  4  9  1  0  0  0
  4  1  1  0  0  0
  5  6  1  0  0  0
  6  7  1  0  0  0
  7  8  1  0  0  0
  8  9  1  0  0  0
  1  2  2  0  0  0
  1  3  2  0  0  0
  1 17  1  0  0  0
 17 18  2  0  0  0
 17 22  1  0  0  0
 18 19  1  0  0  0
 19 20  2  0  0  0
 20 21  1  0  0  0
 20 23  1  0  0  0
 21 22  2  0  0  0
 23 24  1  0  0  0
 24 25  2  0  0  0
 24 29  1  0  0  0
 25 26  1  0  0  0
 26 27  2  0  0  0
 27 28  1  0  0  0
 27 30  1  0  0  0
 28 29  2  0  0  0
 11 15  1  0  0  0
 12 16  1  0  0  0
M  END
> <minimizedAffinity>
-8.00978

$$$$
456C_CBP_A_1


 30 32  0  0  0  0  0  0  0  0999 V2000
   -3.2616   29.3438   57.2458 S   0  0  0  0  0  0  0  0  0  0  0  0
   -3.7658   29.3977   58.5825 O   0  0  0  0  0  0  0  0  0  0  0  0
   -3.2540   30.5669   56.5060 O   0  0  0  0  0  0  0  0  0  0  0  0
   -1.5652   28.6925   57.3457 C   0  0  0  0  0  0  0  0  0  0  0  0
   -0.8245   28.9851   56.0146 C   0  0  0  0  0  0  0  0  0  0  0  0
    0.6841   28.8248   56.1490 C   0  0  0  0  0  0  0  0  0  0  0  0
    1.1449   29.7210   57.1508 O   0  0  0  0  0  0  0  0  0  0  0  0
    0.6658   29.4746   58.4560 C   0  0  0  0  0  0  0  0  0  0  0  0
   -0.8783   29.5226   58.4821 C   0  0  0  0  0  0  0  0  0  0  0  0
   -1.5759   27.1747   57.7324 C   0  0  0  0  0  0  0  0  0  0  0  0
   -2.3754   24.3619   55.4478 O   0  0  0  0  0  0  0  0  0  0  0  0
   -2.5511   25.5245   56.2099 N   0  0  0  0  0  0  0  0  0  0  0  0
   -1.4328   26.0970   56.6353 C   0  0  0  0  0  0  0  0  0  0  0  0
   -0.3575   25.7036   56.1743 O   0  0  0  0  0  0  0  0  0  0  0  0
   -3.2416   24.0153   55.1824 H   0  0  0  0  0  0  0  0  0  0  0  0
   -3.4417   25.8906   56.4152 H   0  0  0  0  0  0  0  0  0  0  0  0
   -4.2984   28.2592   56.2846 C   0  0  0  0  0  0  0  0  0  0  0  0
   -5.3547   27.5777   56.8600 C   0  0  0  0  0  0  0  0  0  0  0  0
   -6.1879   26.8177   56.0596 C   0  0  0  0  0  0  0  0  0  0  0  0
   -5.9715   26.7218   54.6914 C   0  0  0  0  0  0  0  0  0  0  0  0
   -4.8554   27.3553   54.1297 C   0  0  0  0  0  0  0  0  0  0  0  0
   -4.0287   28.1246   54.9318 C   0  0  0  0  0  0  0  0  0  0  0  0
   -6.9573   26.0285   53.9914 O   0  0  0  0  0  0  0  0  0  0  0  0
   -7.3699   26.4138   52.7287 C   0  0  0  0  0  0  0  0  0  0  0  0
   -8.4630   25.7422   52.1915 C   0  0  0  0  0  0  0  0  0  0  0  0
   -8.8726   26.0025   50.8855 C   0  0  0  0  0  0  0  0  0  0  0  0
   -8.1661   26.9637   50.1608 C   0  0  0  0  0  0  0  0  0  0  0  0
   -7.0935   27.6676   50.6912 C   0  0  0  0  0  0  0  0  0  0  0  0
   -6.6879   27.3812   51.9843 C   0  0  0  0  0  0  0  0  0  0  0  0
   -8.5907   27.2661   48.5268 Cl  0  0  0  0  0  0  0  0  0  0  0  0
 11 12  1  0  0  0
 12 13  1  0  0  0
 13 14  2  0  0  0
 13 10  1  0  0  0
 10  4  1  0  0  0
  4  5  1  0  0  0
  4  9  1  0  0  0
  4  1  1  0  0  0
  5  6  1  0  0  0
  6  7  1  0  0  0
  7  8  1  0  0  0
  8  9  1  0  0  0
  1  2  2  0  0  0
  1  3  2  0  0  0
  1 17  1  0  0  0
 17 18  2  0  0  0
 17 22  1  0  0  0
 18 19  1  0  0  0
 19 20  2  0  0  0
 20 21  1  0  0  0
 20 23  1  0  0  0
 21 22  2  0  0  0
 23 24  1  0  0  0
 24 25  2  0  0  0
 24 29  1  0  0  0
 25 26  1  0  0  0
 26 27  2  0  0  0
 27 28  1  0  0  0
 27 30  1  0  0  0
 28 29  2  0  0  0
 11 15  1  0  0  0
 12 16  1  0  0  0
M  END
> <minimizedAffinity>
-7.98197

$$$$
456C_CBP_A_1


 30 32  0  0  0  0  0  0  0  0999 V2000
   -5.8402   31.2888   57.3017 S   0  0  0  0  0  0  0  0  0  0  0  0
   -5.1657   30.7455   58.4392 O   0  0  0  0  0  0  0  0  0  0  0  0
   -7.2007   31.6877   57.4841 O   0  0  0  0  0  0  0  0  0  0  0  0
   -4.8653   32.7198   56.7416 C   0  0  0  0  0  0  0  0  0  0  0  0
   -5.2673   33.9692   57.5682 C   0  0  0  0  0  0  0  0  0  0  0  0
   -4.2518   35.0966   57.4368 C   0  0  0  0  0  0  0  0  0  0  0  0
   -2.9902   34.6212   57.8859 O   0  0  0  0  0  0  0  0  0  0  0  0
   -2.4270   33.5744   57.1237 C   0  0  0  0  0  0  0  0  0  0  0  0
   -3.3810   32.3597   57.0873 C   0  0  0  0  0  0  0  0  0  0  0  0
   -5.0141   32.9211   55.1955 C   0  0  0  0  0  0  0  0  0  0  0  0
   -8.3511   33.7546   53.8025 O   0  0  0  0  0  0  0  0  0  0  0  0
   -7.3751   33.1161   54.5790 N   0  0  0  0  0  0  0  0  0  0  0  0
   -6.2018   33.7325   54.6328 C   0  0  0  0  0  0  0  0  0  0  0  0
   -6.1191   34.8811   54.1886 O   0  0  0  0  0  0  0  0  0  0  0  0
   -9.1701   33.2353   53.8215 H   0  0  0  0  0  0  0  0  0  0  0  0
   -7.5479   32.2697   55.0513 H   0  0  0  0  0  0  0  0  0  0  0  0
   -5.9181   30.0419   56.0310 C   0  0  0  0  0  0  0  0  0  0  0  0
   -4.9044   29.1160   55.8691 C   0  0  0  0  0  0  0  0  0  0  0  0
   -5.0475   28.1110   54.9300 C   0  0  0  0  0  0  0  0  0  0  0  0
   -6.1879   28.0266   54.1425 C   0  0  0  0  0  0  0  0  0  0  0  0
   -7.1758   29.0125   54.2621 C   0  0  0  0  0  0  0  0  0  0  0  0
   -7.0349   30.0118   55.2108 C   0  0  0  0  0  0  0  0  0  0  0  0
   -6.2545   26.8958   53.3304 O   0  0  0  0  0  0  0  0  0  0  0  0
   -7.1206   26.8139   52.2551 C   0  0  0  0  0  0  0  0  0  0  0  0
   -8.2065   25.9547   52.3856 C   0  0  0  0  0  0  0  0  0  0  0  0
   -9.0641   25.7408   51.3085 C   0  0  0  0  0  0  0  0  0  0  0  0
   -8.8043   26.4294   50.1226 C   0  0  0  0  0  0  0  0  0  0  0  0
   -7.7449   27.3158   49.9840 C   0  0  0  0  0  0  0  0  0  0  0  0
   -6.8912   27.5007   51.0590 C   0  0  0  0  0  0  0  0  0  0  0  0
   -9.7918   26.1436   48.7498 Cl  0  0  0  0  0  0  0  0  0  0  0  0
 11 12  1  0  0  0
 12 13  1  0  0  0
 13 14  2  0  0  0
 13 10  1  0  0  0
 10  4  1  0  0  0
  4  5  1  0  0  0
  4  9  1  0  0  0
  4  1  1  0  0  0
  5  6  1  0  0  0
  6  7  1  0  0  0
  7  8  1  0  0  0
  8  9  1  0  0  0
  1  2  2  0  0  0
  1  3  2  0  0  0
  1 17  1  0  0  0
 17 18  2  0  0  0
 17 22  1  0  0  0
 18 19  1  0  0  0
 19 20  2  0  0  0
 20 21  1  0  0  0
 20 23  1  0  0  0
 21 22  2  0  0  0
 23 24  1  0  0  0
 24 25  2  0  0  0
 24 29  1  0  0  0
 25 26  1  0  0  0
 26 27  2  0  0  0
 27 28  1  0  0  0
 27 30  1  0  0  0
 28 29  2  0  0  0
 11 15  1  0  0  0
 12 16  1  0  0  0
M  END
> <minimizedAffinity>
-7.92240

$$$$
