456C_CBP_A_1
  RCSB PDB12061711343D
Coordinates from PDB:456C:A:1 Model:1 without hydrogens
 28 30  0  0  0  0            999 V2000
   -2.5660   24.3950   54.5570   O 0  0  0  0  0  0  0  0  0  0  0  0
   -2.9440   25.2310   55.6160   N 0  0  0  0  0  0  0  0  0  0  0  0
   -2.8230   26.5310   55.3820   C 0  0  0  0  0  0  0  0  0  0  0  0
   -2.5970   26.9030   54.2270   O 0  0  0  0  0  0  0  0  0  0  0  0
   -2.9130   27.4700   56.6050   C 0  0  0  0  0  0  0  0  0  0  0  0
   -3.8810   28.7010   56.5780   C 0  0  0  0  0  0  0  0  0  0  0  0
   -3.7240   29.5820   55.3110   C 0  0  0  0  0  0  0  0  0  0  0  0
   -2.4250   30.3770   55.3210   C 0  0  0  0  0  0  0  0  0  0  0  0
   -2.4130   31.2060   56.4750   O 0  0  0  0  0  0  0  0  0  0  0  0
   -2.3980   30.5270   57.7130   C 0  0  0  0  0  0  0  0  0  0  0  0
   -3.6280   29.6000   57.8350   C 0  0  0  0  0  0  0  0  0  0  0  0
   -5.6130   28.1620   56.7250   S 0  0  0  0  0  0  0  0  0  0  0  0
   -5.6520   27.1610   57.7450   O 0  0  0  0  0  0  0  0  0  0  0  0
   -6.4490   29.3070   56.9080   O 0  0  0  0  0  0  0  0  0  0  0  0
   -6.1830   27.4460   55.1960   C 0  0  0  0  0  0  0  0  0  0  0  0
   -6.3180   26.0780   55.0490   C 0  0  0  0  0  0  0  0  0  0  0  0
   -6.8490   25.5710   53.8770   C 0  0  0  0  0  0  0  0  0  0  0  0
   -7.2370   26.4150   52.8450   C 0  0  0  0  0  0  0  0  0  0  0  0
   -7.0270   27.7940   52.9740   C 0  0  0  0  0  0  0  0  0  0  0  0
   -6.5050   28.3000   54.1530   C 0  0  0  0  0  0  0  0  0  0  0  0
   -7.8700   25.7800   51.7780   O 0  0  0  0  0  0  0  0  0  0  0  0
   -8.2050   26.4530   50.6170   C 0  0  0  0  0  0  0  0  0  0  0  0
   -9.5010   26.2820   50.1420   C 0  0  0  0  0  0  0  0  0  0  0  0
   -9.8810   26.8440   48.9250   C 0  0  0  0  0  0  0  0  0  0  0  0
   -8.9300   27.5900   48.2270   C 0  0  0  0  0  0  0  0  0  0  0  0
   -7.6420   27.7990   48.7010   C 0  0  0  0  0  0  0  0  0  0  0  0
   -7.2760   27.2160   49.9030   C 0  0  0  0  0  0  0  0  0  0  0  0
   -9.3320   28.2410   46.6920  Cl 0  0  0  0  0  0  0  0  0  0  0  0
  1  2  1  0  0  0  0
  2  3  1  0  0  0  0
  3  4  2  0  0  0  0
  3  5  1  0  0  0  0
  5  6  1  0  0  0  0
  6  7  1  0  0  0  0
  6 11  1  0  0  0  0
  6 12  1  0  0  0  0
  7  8  1  0  0  0  0
  8  9  1  0  0  0  0
  9 10  1  0  0  0  0
 10 11  1  0  0  0  0
 12 13  2  0  0  0  0
 12 14  2  0  0  0  0
 12 15  1  0  0  0  0
 15 16  2  0  0  0  0
 15 20  1  0  0  0  0
 16 17  1  0  0  0  0
 17 18  2  0  0  0  0
 18 19  1  0  0  0  0
 18 21  1  0  0  0  0
 19 20  2  0  0  0  0
 21 22  1  0  0  0  0
 22 23  2  0  0  0  0
 22 27  1  0  0  0  0
 23 24  1  0  0  0  0
 24 25  2  0  0  0  0
 25 26  1  0  0  0  0
 25 28  1  0  0  0  0
 26 27  2  0  0  0  0
A    1
O1
A    2
N2
A    3
C3
A    4
O4
A    5
C5
A    6
C6
A    7
C7
A    8
C8
A    9
O9
A   10
C10
A   11
C11
A   12
S12
A   13
O13
A   14
O14
A   15
C15
A   16
C16
A   17
C17
A   18
C18
A   19
C19
A   20
C20
A   21
O21
A   22
C22
A   23
C23
A   24
C24
A   25
C25
A   26
C26
A   27
C27
A   28
CL28
M  END
>  <InstanceId>
456C_CBP_A_1

>  <ChemCompId>
CBP

>  <PdbId>
456C

>  <ChainId>
A

>  <ResidueNumber>
1

>  <InsertionCode>


>  <Model>
1

>  <AltIds>


>  <MissingHeavyAtoms>
0

>  <ObservedFormula>
C19 N O6 S Cl

>  <Name>
2-{4-[4-(4-CHLORO-PHENOXY)-BENZENESULFONYL]-TETRAHYDRO-PYRAN-4-YL}-N-HYDROXY-ACETAMIDE

>  <SystematicName>
2-[4-[4-(4-chlorophenoxy)phenyl]sulfonyloxan-4-yl]-N-hydroxy-ethanamide

>  <Synonyms>


>  <Type>
NON-POLYMER

>  <Formula>
C19 H20 Cl N O6 S

>  <MolecularWeight>
425.883

>  <ModifiedDate>
2011-06-04

>  <Parent>


>  <OneLetterCode>


>  <SubcomponentList>


>  <AmbiguousFlag>
N

>  <InChI>
InChI=1S/C19H20ClNO6S/c20-14-1-3-15(4-2-14)27-16-5-7-17(8-6-16)28(24,25)19(13-18(22)21-23)9-11-26-12-10-19/h1-8,23H,9-13H2,(H,21,22)

>  <InChIKey>
QOPFTBAEAJQKSY-UHFFFAOYSA-N

>  <SMILES>
c1cc(ccc1Oc2ccc(cc2)Cl)S(=O)(=O)C3(CCOCC3)CC(=O)NO

$$$$
