2CA8_GSH_A_1212
  RCSB PDB12061705133D
Coordinates from PDB:2CA8:A:1212 Model:1 without hydrogens
 20 19  0  0  0  0            999 V2000
    2.3080   11.7480   45.4910   N 0  0  0  0  0  0  0  0  0  0  0  0
    2.9750   11.5810   44.2050   C 0  0  0  0  0  0  0  0  0  0  0  0
    2.4810   12.6830   43.3080   C 0  0  0  0  0  0  0  0  0  0  0  0
    1.3950   12.4470   42.7320   O 0  0  0  0  0  0  0  0  0  0  0  0
    3.0620   13.7770   43.1150   O 0  0  0  0  0  0  0  0  0  0  0  0
    4.4960   11.3880   44.3380   C 0  0  0  0  0  0  0  0  0  0  0  0
    5.2740   11.5260   43.0410   C 0  0  0  0  0  0  0  0  0  0  0  0
    6.2530   10.3940   42.8220   C 0  0  0  0  0  0  0  0  0  0  0  0
    6.0640    9.1260   43.3980   O 0  0  0  0  0  0  0  0  0  0  0  0
    7.2810   10.6760   42.0320   N 0  0  0  0  0  0  0  0  0  0  0  0
    8.1550    9.6890   41.4380   C 0  0  0  0  0  0  0  0  0  0  0  0
    9.5330   10.2040   41.5850   C 0  0  0  0  0  0  0  0  0  0  0  0
    9.6970   11.5960   41.4990   O 0  0  0  0  0  0  0  0  0  0  0  0
    7.9220    9.5420   39.9430   C 0  0  0  0  0  0  0  0  0  0  0  0
    6.2420    8.9890   39.5710   S 0  0  0  0  0  0  0  0  0  0  0  0
   10.5000    9.3110   41.7800   N 0  0  0  0  0  0  0  0  0  0  0  0
   11.8710    9.5590   41.3660   C 0  0  0  0  0  0  0  0  0  0  0  0
   12.6540   10.1250   42.5210   C 0  0  0  0  0  0  0  0  0  0  0  0
   13.7860   10.6260   42.3610   O 0  0  0  0  0  0  0  0  0  0  0  0
   12.1630   10.1010   43.6650   O 0  0  0  0  0  0  0  0  0  0  0  0
  1  2  1  0  0  0  0
  2  3  1  0  0  0  0
  2  6  1  0  0  0  0
  3  4  2  0  0  0  0
  3  5  1  0  0  0  0
  6  7  1  0  0  0  0
  7  8  1  0  0  0  0
  8  9  2  0  0  0  0
  8 10  1  0  0  0  0
 10 11  1  0  0  0  0
 11 12  1  0  0  0  0
 11 14  1  0  0  0  0
 12 13  2  0  0  0  0
 12 16  1  0  0  0  0
 14 15  1  0  0  0  0
 16 17  1  0  0  0  0
 17 18  1  0  0  0  0
 18 19  2  0  0  0  0
 18 20  1  0  0  0  0
A    1
N1
A    2
CA1
A    3
C1
A    4
O11
A    5
O12
A    6
CB1
A    7
CG1
A    8
CD1
A    9
OE1
A   10
N2
A   11
CA2
A   12
C2
A   13
O2
A   14
CB2
A   15
SG2
A   16
N3
A   17
CA3
A   18
C3
A   19
O31
A   20
O32
M  END
>  <InstanceId>
2CA8_GSH_A_1212

>  <ChemCompId>
GSH

>  <PdbId>
2CA8

>  <ChainId>
A

>  <ResidueNumber>
1212

>  <InsertionCode>


>  <Model>
1

>  <AltIds>


>  <MissingHeavyAtoms>
0

>  <ObservedFormula>
C10 N3 O6 S

>  <Name>
GLUTATHIONE

>  <SystematicName>
(2S)-2-azanyl-5-[[(2R)-1-(2-hydroxy-2-oxoethylamino)-1-oxidanylidene-3-sulfanyl-propan-2-yl]amino]-5-oxidanylidene-pentanoic acid

>  <Synonyms>


>  <Type>
NON-POLYMER

>  <Formula>
C10 H17 N3 O6 S

>  <MolecularWeight>
307.323

>  <ModifiedDate>
2014-04-22

>  <Parent>


>  <OneLetterCode>


>  <SubcomponentList>


>  <AmbiguousFlag>
N

>  <InChI>
InChI=1S/C10H17N3O6S/c11-5(10(18)19)1-2-7(14)13-6(4-20)9(17)12-3-8(15)16/h5-6,20H,1-4,11H2,(H,12,17)(H,13,14)(H,15,16)(H,18,19)/t5-,6-/m0/s1

>  <InChIKey>
RWSXRVCMGQZWBV-WDSKDSINSA-N

>  <SMILES>
C(CC(=O)N[C@@H](CS)C(=O)NCC(=O)O)[C@@H](C(=O)O)N

$$$$
