1E2K_TMC_A_500


 21 23  0  0  0  0  0  0  0  0999 V2000
   51.0952   34.9680   -1.1554 O   0  0  0  0  0  0  0  0  0  0  0  0
   50.2030   32.9410    0.0590 C   0  0  0  0  0  0  0  0  0  0  0  0
   49.9871   34.3008   -0.6111 C   0  0  0  0  0  0  0  0  0  0  0  0
   48.7198   34.2321   -1.4243 C   0  0  0  0  0  0  0  0  0  0  0  0
   48.0316   32.9048   -1.1012 C   0  0  0  0  0  0  0  0  0  0  0  0
   48.9502   32.0755   -0.1552 C   0  0  0  0  0  0  0  0  0  0  0  0
   50.2597   31.7441   -0.8379 C   0  0  0  0  0  0  0  0  0  0  0  0
   51.8338   34.9337   -0.5276 H   0  0  0  0  0  0  0  0  0  0  0  0
   45.7028   31.3976   -1.3307 O   0  0  0  0  0  0  0  0  0  0  0  0
   43.4289   33.9384    1.6765 O   0  0  0  0  0  0  0  0  0  0  0  0
   46.7335   33.2720   -0.4115 N   0  0  0  0  0  0  0  0  0  0  0  0
   44.6153   32.6877    0.2278 N   0  0  0  0  0  0  0  0  0  0  0  0
   45.7295   32.3704   -0.6021 C   0  0  0  0  0  0  0  0  0  0  0  0
   44.5474   33.7945    1.0641 C   0  0  0  0  0  0  0  0  0  0  0  0
   45.6290   34.6825    1.1876 C   0  0  0  0  0  0  0  0  0  0  0  0
   46.7251   34.3741    0.4224 C   0  0  0  0  0  0  0  0  0  0  0  0
   45.6366   35.8932    2.0977 C   0  0  0  0  0  0  0  0  0  0  0  0
   43.8405   32.0806    0.2069 H   0  0  0  0  0  0  0  0  0  0  0  0
   51.5141   34.1186    1.7072 O   0  0  0  0  0  0  0  0  0  0  0  0
   50.8293   32.8790    1.4156 C   0  0  0  0  0  0  0  0  0  0  0  0
   51.9158   34.0665    2.5886 H   0  0  0  0  0  0  0  0  0  0  0  0
 19 20  1  0  0  0
  1  3  1  0  0  0
  9 13  2  0  0  0
 10 14  2  0  0  0
 11  5  1  0  0  0
 11 13  1  0  0  0
 11 16  1  0  0  0
 12 13  1  0  0  0
 12 14  1  0  0  0
  2  3  1  0  0  0
  2  6  1  0  0  0
  2  7  1  0  0  0
  2 20  1  0  0  0
  3  4  1  0  0  0
  4  5  1  0  0  0
  5  6  1  0  0  0
  6  7  1  0  0  0
 14 15  1  0  0  0
 15 16  2  0  0  0
 15 17  1  0  0  0
 19 21  1  0  0  0
  1  8  1  0  0  0
 12 18  1  0  0  0
M  END
> <minimizedAffinity>
-9.31842

$$$$
1E2K_TMC_A_500


 21 23  0  0  0  0  0  0  0  0999 V2000
   51.4589   34.0505    1.6710 O   0  0  0  0  0  0  0  0  0  0  0  0
   50.1103   33.2021   -0.2889 C   0  0  0  0  0  0  0  0  0  0  0  0
   50.1972   33.8821    1.0803 C   0  0  0  0  0  0  0  0  0  0  0  0
   49.2375   35.0445    1.0935 C   0  0  0  0  0  0  0  0  0  0  0  0
   48.3999   34.9702   -0.1843 C   0  0  0  0  0  0  0  0  0  0  0  0
   48.9303   33.8037   -1.0699 C   0  0  0  0  0  0  0  0  0  0  0  0
   50.3617   34.0598   -1.4895 C   0  0  0  0  0  0  0  0  0  0  0  0
   51.9664   33.2279    1.5895 H   0  0  0  0  0  0  0  0  0  0  0  0
   46.8912   32.8104   -1.0825 O   0  0  0  0  0  0  0  0  0  0  0  0
   43.4216   33.7121    1.7136 O   0  0  0  0  0  0  0  0  0  0  0  0
   46.9794   34.7033    0.2703 N   0  0  0  0  0  0  0  0  0  0  0  0
   45.1863   33.2858    0.3815 N   0  0  0  0  0  0  0  0  0  0  0  0
   46.4391   33.5609   -0.2397 C   0  0  0  0  0  0  0  0  0  0  0  0
   44.5812   34.1031    1.3275 C   0  0  0  0  0  0  0  0  0  0  0  0
   45.2068   35.2743    1.7863 C   0  0  0  0  0  0  0  0  0  0  0  0
   46.4308   35.5379    1.2255 C   0  0  0  0  0  0  0  0  0  0  0  0
   44.6202   36.1984    2.8333 C   0  0  0  0  0  0  0  0  0  0  0  0
   44.7176   32.4597    0.1222 H   0  0  0  0  0  0  0  0  0  0  0  0
   51.0779   31.3882   -1.5520 O   0  0  0  0  0  0  0  0  0  0  0  0
   50.2865   31.7204   -0.3884 C   0  0  0  0  0  0  0  0  0  0  0  0
   51.1853   30.4256   -1.6059 H   0  0  0  0  0  0  0  0  0  0  0  0
 19 20  1  0  0  0
  1  3  1  0  0  0
  9 13  2  0  0  0
 10 14  2  0  0  0
 11  5  1  0  0  0
 11 13  1  0  0  0
 11 16  1  0  0  0
 12 13  1  0  0  0
 12 14  1  0  0  0
  2  3  1  0  0  0
  2  6  1  0  0  0
  2  7  1  0  0  0
  2 20  1  0  0  0
  3  4  1  0  0  0
  4  5  1  0  0  0
  5  6  1  0  0  0
  6  7  1  0  0  0
 14 15  1  0  0  0
 15 16  2  0  0  0
 15 17  1  0  0  0
 19 21  1  0  0  0
  1  8  1  0  0  0
 12 18  1  0  0  0
M  END
> <minimizedAffinity>
-7.64314

$$$$
1E2K_TMC_A_500


 21 23  0  0  0  0  0  0  0  0999 V2000
   52.1543   34.4968   -1.6511 O   0  0  0  0  0  0  0  0  0  0  0  0
   50.9324   34.7246    0.5478 C   0  0  0  0  0  0  0  0  0  0  0  0
   50.9702   34.3022   -0.9236 C   0  0  0  0  0  0  0  0  0  0  0  0
   50.2553   32.9817   -1.0556 C   0  0  0  0  0  0  0  0  0  0  0  0
   49.5903   32.6768    0.2877 C   0  0  0  0  0  0  0  0  0  0  0  0
   49.9987   33.7740    1.3152 C   0  0  0  0  0  0  0  0  0  0  0  0
   51.4945   33.7603    1.5450 C   0  0  0  0  0  0  0  0  0  0  0  0
   52.5024   35.3841   -1.4708 H   0  0  0  0  0  0  0  0  0  0  0  0
   48.2504   30.6978   -1.1391 O   0  0  0  0  0  0  0  0  0  0  0  0
   44.1562   32.5124   -0.3547 O   0  0  0  0  0  0  0  0  0  0  0  0
   48.0985   32.7087    0.0245 N   0  0  0  0  0  0  0  0  0  0  0  0
   46.2041   31.6327   -0.6756 N   0  0  0  0  0  0  0  0  0  0  0  0
   47.6286   31.6149   -0.6388 C   0  0  0  0  0  0  0  0  0  0  0  0
   45.4167   32.6536   -0.1594 C   0  0  0  0  0  0  0  0  0  0  0  0
   45.9896   33.7549    0.4983 C   0  0  0  0  0  0  0  0  0  0  0  0
   47.3593   33.7385    0.5750 C   0  0  0  0  0  0  0  0  0  0  0  0
   45.1941   34.8903    1.1083 C   0  0  0  0  0  0  0  0  0  0  0  0
   45.7468   30.8688   -1.0959 H   0  0  0  0  0  0  0  0  0  0  0  0
   51.7073   36.9536    0.0442 O   0  0  0  0  0  0  0  0  0  0  0  0
   50.8351   36.1757    0.8957 C   0  0  0  0  0  0  0  0  0  0  0  0
   51.6357   37.8920    0.2790 H   0  0  0  0  0  0  0  0  0  0  0  0
 19 20  1  0  0  0
  1  3  1  0  0  0
  9 13  2  0  0  0
 10 14  2  0  0  0
 11  5  1  0  0  0
 11 13  1  0  0  0
 11 16  1  0  0  0
 12 13  1  0  0  0
 12 14  1  0  0  0
  2  3  1  0  0  0
  2  6  1  0  0  0
  2  7  1  0  0  0
  2 20  1  0  0  0
  3  4  1  0  0  0
  4  5  1  0  0  0
  5  6  1  0  0  0
  6  7  1  0  0  0
 14 15  1  0  0  0
 15 16  2  0  0  0
 15 17  1  0  0  0
 19 21  1  0  0  0
  1  8  1  0  0  0
 12 18  1  0  0  0
M  END
> <minimizedAffinity>
-6.44009

$$$$
1E2K_TMC_A_500


 21 23  0  0  0  0  0  0  0  0999 V2000
   51.6734   33.7151    1.8088 O   0  0  0  0  0  0  0  0  0  0  0  0
   50.2709   33.2083   -0.2298 C   0  0  0  0  0  0  0  0  0  0  0  0
   50.3938   33.6132    1.2418 C   0  0  0  0  0  0  0  0  0  0  0  0
   49.3977   34.7109    1.5156 C   0  0  0  0  0  0  0  0  0  0  0  0
   48.5091   34.8515    0.2785 C   0  0  0  0  0  0  0  0  0  0  0  0
   49.0394   33.9012   -0.8361 C   0  0  0  0  0  0  0  0  0  0  0  0
   50.4423   34.2917   -1.2481 C   0  0  0  0  0  0  0  0  0  0  0  0
   52.2038   32.9452    1.5504 H   0  0  0  0  0  0  0  0  0  0  0  0
   47.1961   36.0137    2.4401 O   0  0  0  0  0  0  0  0  0  0  0  0
   43.3418   33.7221    1.6900 O   0  0  0  0  0  0  0  0  0  0  0  0
   47.1190   34.4440    0.7223 N   0  0  0  0  0  0  0  0  0  0  0  0
   45.2599   34.8631    1.9893 N   0  0  0  0  0  0  0  0  0  0  0  0
   46.6312   35.1775    1.7622 C   0  0  0  0  0  0  0  0  0  0  0  0
   44.5466   33.9012    1.2859 C   0  0  0  0  0  0  0  0  0  0  0  0
   45.1365   33.1797    0.2346 C   0  0  0  0  0  0  0  0  0  0  0  0
   46.4470   33.4935   -0.0227 C   0  0  0  0  0  0  0  0  0  0  0  0
   44.4139   32.1366   -0.5924 C   0  0  0  0  0  0  0  0  0  0  0  0
   44.7857   35.3620    2.6932 H   0  0  0  0  0  0  0  0  0  0  0  0
   50.7730   31.6916   -2.0381 O   0  0  0  0  0  0  0  0  0  0  0  0
   50.4916   31.7823   -0.6228 C   0  0  0  0  0  0  0  0  0  0  0  0
   50.9141   30.7631   -2.2809 H   0  0  0  0  0  0  0  0  0  0  0  0
 19 20  1  0  0  0
  1  3  1  0  0  0
  9 13  2  0  0  0
 10 14  2  0  0  0
 11  5  1  0  0  0
 11 13  1  0  0  0
 11 16  1  0  0  0
 12 13  1  0  0  0
 12 14  1  0  0  0
  2  3  1  0  0  0
  2  6  1  0  0  0
  2  7  1  0  0  0
  2 20  1  0  0  0
  3  4  1  0  0  0
  4  5  1  0  0  0
  5  6  1  0  0  0
  6  7  1  0  0  0
 14 15  1  0  0  0
 15 16  2  0  0  0
 15 17  1  0  0  0
 19 21  1  0  0  0
  1  8  1  0  0  0
 12 18  1  0  0  0
M  END
> <minimizedAffinity>
-6.43956

$$$$
1E2K_TMC_A_500


 21 23  0  0  0  0  0  0  0  0999 V2000
   45.0936   33.2790    0.1782 O   0  0  0  0  0  0  0  0  0  0  0  0
   46.7208   31.8705   -1.1439 C   0  0  0  0  0  0  0  0  0  0  0  0
   46.4054   33.0995   -0.2868 C   0  0  0  0  0  0  0  0  0  0  0  0
   47.5442   33.3086    0.6784 C   0  0  0  0  0  0  0  0  0  0  0  0
   48.6652   32.3427    0.2909 C   0  0  0  0  0  0  0  0  0  0  0  0
   48.1677   31.4288   -0.8683 C   0  0  0  0  0  0  0  0  0  0  0  0
   46.9913   30.5892   -0.4191 C   0  0  0  0  0  0  0  0  0  0  0  0
   44.4687   33.1128   -0.5448 H   0  0  0  0  0  0  0  0  0  0  0  0
   50.4217   31.6111   -1.7406 O   0  0  0  0  0  0  0  0  0  0  0  0
   52.6013   35.6004   -1.6747 O   0  0  0  0  0  0  0  0  0  0  0  0
   49.8195   33.2133   -0.1623 N   0  0  0  0  0  0  0  0  0  0  0  0
   51.4591   33.6599   -1.6950 N   0  0  0  0  0  0  0  0  0  0  0  0
   50.5222   32.7010   -1.2116 C   0  0  0  0  0  0  0  0  0  0  0  0
   51.6626   34.9134   -1.1327 C   0  0  0  0  0  0  0  0  0  0  0  0
   50.8995   35.3545   -0.0388 C   0  0  0  0  0  0  0  0  0  0  0  0
   49.9671   34.4584    0.4191 C   0  0  0  0  0  0  0  0  0  0  0  0
   51.0474   36.7158    0.6087 C   0  0  0  0  0  0  0  0  0  0  0  0
   51.9991   33.4172   -2.4816 H   0  0  0  0  0  0  0  0  0  0  0  0
   44.8380   31.6919   -2.6424 O   0  0  0  0  0  0  0  0  0  0  0  0
   46.2753   31.8332   -2.5710 C   0  0  0  0  0  0  0  0  0  0  0  0
   44.5612   31.6688   -3.5718 H   0  0  0  0  0  0  0  0  0  0  0  0
 19 20  1  0  0  0
  1  3  1  0  0  0
  9 13  2  0  0  0
 10 14  2  0  0  0
 11  5  1  0  0  0
 11 13  1  0  0  0
 11 16  1  0  0  0
 12 13  1  0  0  0
 12 14  1  0  0  0
  2  3  1  0  0  0
  2  6  1  0  0  0
  2  7  1  0  0  0
  2 20  1  0  0  0
  3  4  1  0  0  0
  4  5  1  0  0  0
  5  6  1  0  0  0
  6  7  1  0  0  0
 14 15  1  0  0  0
 15 16  2  0  0  0
 15 17  1  0  0  0
 19 21  1  0  0  0
  1  8  1  0  0  0
 12 18  1  0  0  0
M  END
> <minimizedAffinity>
-6.34724

$$$$
1E2K_TMC_A_500


 21 23  0  0  0  0  0  0  0  0999 V2000
   47.3612   29.3060   -0.6314 O   0  0  0  0  0  0  0  0  0  0  0  0
   46.4791   31.5668   -1.3317 C   0  0  0  0  0  0  0  0  0  0  0  0
   47.5032   30.7016   -0.5919 C   0  0  0  0  0  0  0  0  0  0  0  0
   48.8722   31.2905   -0.8181 C   0  0  0  0  0  0  0  0  0  0  0  0
   48.6888   32.6362   -1.5219 C   0  0  0  0  0  0  0  0  0  0  0  0
   47.1786   32.8351   -1.8478 C   0  0  0  0  0  0  0  0  0  0  0  0
   46.6920   31.7640   -2.8000 C   0  0  0  0  0  0  0  0  0  0  0  0
   46.4340   29.0707   -0.4705 H   0  0  0  0  0  0  0  0  0  0  0  0
   51.2102   33.8066   -1.6624 O   0  0  0  0  0  0  0  0  0  0  0  0
   50.3605   36.7077    1.7334 O   0  0  0  0  0  0  0  0  0  0  0  0
   49.1741   33.6832   -0.5401 N   0  0  0  0  0  0  0  0  0  0  0  0
   50.7124   35.2790    0.0288 N   0  0  0  0  0  0  0  0  0  0  0  0
   50.4141   34.1740   -0.8203 C   0  0  0  0  0  0  0  0  0  0  0  0
   49.8775   35.7446    1.0363 C   0  0  0  0  0  0  0  0  0  0  0  0
   48.6176   35.1664    1.2645 C   0  0  0  0  0  0  0  0  0  0  0  0
   48.2972   34.1230    0.4334 C   0  0  0  0  0  0  0  0  0  0  0  0
   47.6445   35.6373    2.3255 C   0  0  0  0  0  0  0  0  0  0  0  0
   51.5691   35.7443   -0.1082 H   0  0  0  0  0  0  0  0  0  0  0  0
   44.1041   31.4482   -1.7415 O   0  0  0  0  0  0  0  0  0  0  0  0
   45.1133   31.7509   -0.7511 C   0  0  0  0  0  0  0  0  0  0  0  0
   43.2235   31.5711   -1.3537 H   0  0  0  0  0  0  0  0  0  0  0  0
 19 20  1  0  0  0
  1  3  1  0  0  0
  9 13  2  0  0  0
 10 14  2  0  0  0
 11  5  1  0  0  0
 11 13  1  0  0  0
 11 16  1  0  0  0
 12 13  1  0  0  0
 12 14  1  0  0  0
  2  3  1  0  0  0
  2  6  1  0  0  0
  2  7  1  0  0  0
  2 20  1  0  0  0
  3  4  1  0  0  0
  4  5  1  0  0  0
  5  6  1  0  0  0
  6  7  1  0  0  0
 14 15  1  0  0  0
 15 16  2  0  0  0
 15 17  1  0  0  0
 19 21  1  0  0  0
  1  8  1  0  0  0
 12 18  1  0  0  0
M  END
> <minimizedAffinity>
-6.33654

$$$$
