5XVA_8FU_A_601


 30 33  0  0  0  0  0  0  0  0999 V2000
   -6.8265  -12.3525   18.9776 C   0  0  0  0  0  0  0  0  0  0  0  0
   -6.8471  -13.7573   18.5951 C   0  0  0  0  0  0  0  0  0  0  0  0
   -6.0417  -14.2205   17.4835 C   0  0  0  0  0  0  0  0  0  0  0  0
   -5.2325  -13.3254   16.7949 N   0  0  0  0  0  0  0  0  0  0  0  0
   -6.0677  -11.5168   18.3171 N   0  0  0  0  0  0  0  0  0  0  0  0
   -5.2373  -12.0158   17.1917 C   0  0  0  0  0  0  0  0  0  0  0  0
   -7.6489  -14.6124   19.2751 C   0  0  0  0  0  0  0  0  0  0  0  0
   -7.6499  -16.0489   18.8447 C   0  0  0  0  0  0  0  0  0  0  0  0
   -6.9125  -16.4830   17.8481 C   0  0  0  0  0  0  0  0  0  0  0  0
   -6.0380  -15.5339   17.0948 C   0  0  0  0  0  0  0  0  0  0  0  0
   -8.6513  -17.1654   19.7006 Cl  0  0  0  0  0  0  0  0  0  0  0  0
   -4.3604  -11.0004   16.5012 C   0  0  0  0  0  0  0  0  0  0  0  0
   -4.0402   -8.9713   15.1673 C   0  0  0  0  0  0  0  0  0  0  0  0
   -4.6034   -7.5504   15.2756 C   0  0  0  0  0  0  0  0  0  0  0  0
   -6.7877   -8.3298   15.6979 C   0  0  0  0  0  0  0  0  0  0  0  0
   -6.3980   -9.7923   15.6700 C   0  0  0  0  0  0  0  0  0  0  0  0
   -3.7692   -6.6602   14.4185 C   0  0  0  0  0  0  0  0  0  0  0  0
   -4.9582   -9.9157   15.7792 N   0  0  0  0  0  0  0  0  0  0  0  0
   -5.9559   -7.5779   14.8051 N   0  0  0  0  0  0  0  0  0  0  0  0
   -3.1534  -11.0990   16.6096 O   0  0  0  0  0  0  0  0  0  0  0  0
   -5.9803   -8.0096   13.8813 H   0  0  0  0  0  0  0  0  0  0  0  0
   -7.6249  -11.9078   20.0577 N   0  0  0  0  0  0  0  0  0  0  0  0
   -8.2605  -12.5396   20.4652 H   0  0  0  0  0  0  0  0  0  0  0  0
   -7.5475  -10.5751   20.5845 C   0  0  0  0  0  0  0  0  0  0  0  0
   -6.6643   -9.5066   20.2885 C   0  0  0  0  0  0  0  0  0  0  0  0
   -7.0494   -8.4397   21.0769 C   0  0  0  0  0  0  0  0  0  0  0  0
   -6.4278   -7.0363   21.1519 C   0  0  0  0  0  0  0  0  0  0  0  0
   -8.1355   -8.8414   21.8375 N   0  0  0  0  0  0  0  0  0  0  0  0
   -8.4338  -10.1532   21.5284 N   0  0  0  0  0  0  0  0  0  0  0  0
   -8.6156   -8.2830   22.4909 H   0  0  0  0  0  0  0  0  0  0  0  0
 17 14  1  0  0  0
 19 14  1  0  0  0
 19 15  1  0  0  0
 13 14  1  0  0  0
 13 18  1  0  0  0
 15 16  1  0  0  0
 16 18  1  0  0  0
 18 12  1  0  0  0
 12 20  2  0  0  0
 12  6  1  0  0  0
  4  6  2  0  0  0
  4  3  1  0  0  0
 10  3  2  0  0  0
 10  9  1  0  0  0
  6  5  1  0  0  0
  3  2  1  0  0  0
  9  8  2  0  0  0
  5  1  2  0  0  0
  2  1  1  0  0  0
  2  7  2  0  0  0
  8  7  1  0  0  0
  8 11  1  0  0  0
  1 22  1  0  0  0
 22 24  1  0  0  0
 25 24  1  0  0  0
 25 26  2  0  0  0
 24 29  2  0  0  0
 27 26  1  0  0  0
 26 28  1  0  0  0
 29 28  1  0  0  0
 22 23  1  0  0  0
 28 30  1  0  0  0
 19 21  1  0  0  0
M  END
> <minimizedAffinity>
-9.48772

$$$$
5XVA_8FU_A_601


 30 33  0  0  0  0  0  0  0  0999 V2000
   -6.7828  -10.5682   16.4261 C   0  0  0  0  0  0  0  0  0  0  0  0
   -6.6789  -10.5283   17.8779 C   0  0  0  0  0  0  0  0  0  0  0  0
   -6.6536  -11.7605   18.6395 C   0  0  0  0  0  0  0  0  0  0  0  0
   -6.7078  -12.9824   17.9807 N   0  0  0  0  0  0  0  0  0  0  0  0
   -6.8419  -11.7238   15.8167 N   0  0  0  0  0  0  0  0  0  0  0  0
   -6.7975  -12.9749   16.6153 C   0  0  0  0  0  0  0  0  0  0  0  0
   -6.6347   -9.3259   18.5015 C   0  0  0  0  0  0  0  0  0  0  0  0
   -6.5379   -9.3266   19.9979 C   0  0  0  0  0  0  0  0  0  0  0  0
   -6.4992  -10.4375   20.6977 C   0  0  0  0  0  0  0  0  0  0  0  0
   -6.5588  -11.7608   20.0060 C   0  0  0  0  0  0  0  0  0  0  0  0
   -6.4663   -7.8098   20.8202 Cl  0  0  0  0  0  0  0  0  0  0  0  0
   -6.8332  -14.2690   15.8403 C   0  0  0  0  0  0  0  0  0  0  0  0
   -6.0051  -16.5226   15.3558 C   0  0  0  0  0  0  0  0  0  0  0  0
   -5.7010  -17.7362   16.2405 C   0  0  0  0  0  0  0  0  0  0  0  0
   -4.6057  -16.4198   17.8604 C   0  0  0  0  0  0  0  0  0  0  0  0
   -4.8581  -15.1127   17.1398 C   0  0  0  0  0  0  0  0  0  0  0  0
   -5.5845  -18.9306   15.3556 C   0  0  0  0  0  0  0  0  0  0  0  0
   -5.8820  -15.3011   16.1317 N   0  0  0  0  0  0  0  0  0  0  0  0
   -4.4623  -17.4875   16.9150 N   0  0  0  0  0  0  0  0  0  0  0  0
   -7.7044  -14.4286   15.0072 O   0  0  0  0  0  0  0  0  0  0  0  0
   -3.7522  -17.2336   16.2283 H   0  0  0  0  0  0  0  0  0  0  0  0
   -6.8177   -9.3592   15.6920 N   0  0  0  0  0  0  0  0  0  0  0  0
   -7.6926   -8.9933   15.4279 H   0  0  0  0  0  0  0  0  0  0  0  0
   -5.6318   -8.6436   15.3159 C   0  0  0  0  0  0  0  0  0  0  0  0
   -5.1071   -7.4073   15.7693 C   0  0  0  0  0  0  0  0  0  0  0  0
   -3.9277   -7.1974   15.0815 C   0  0  0  0  0  0  0  0  0  0  0  0
   -2.9597   -6.0087   15.1893 C   0  0  0  0  0  0  0  0  0  0  0  0
   -3.7346   -8.2715   14.2280 N   0  0  0  0  0  0  0  0  0  0  0  0
   -4.7855   -9.1537   14.3789 N   0  0  0  0  0  0  0  0  0  0  0  0
   -2.9730   -8.3867   13.6148 H   0  0  0  0  0  0  0  0  0  0  0  0
 17 14  1  0  0  0
 19 14  1  0  0  0
 19 15  1  0  0  0
 13 14  1  0  0  0
 13 18  1  0  0  0
 15 16  1  0  0  0
 16 18  1  0  0  0
 18 12  1  0  0  0
 12 20  2  0  0  0
 12  6  1  0  0  0
  4  6  2  0  0  0
  4  3  1  0  0  0
 10  3  2  0  0  0
 10  9  1  0  0  0
  6  5  1  0  0  0
  3  2  1  0  0  0
  9  8  2  0  0  0
  5  1  2  0  0  0
  2  1  1  0  0  0
  2  7  2  0  0  0
  8  7  1  0  0  0
  8 11  1  0  0  0
  1 22  1  0  0  0
 22 24  1  0  0  0
 25 24  1  0  0  0
 25 26  2  0  0  0
 24 29  2  0  0  0
 27 26  1  0  0  0
 26 28  1  0  0  0
 29 28  1  0  0  0
 22 23  1  0  0  0
 28 30  1  0  0  0
 19 21  1  0  0  0
M  END
> <minimizedAffinity>
-8.94114

$$$$
5XVA_8FU_A_601


 30 33  0  0  0  0  0  0  0  0999 V2000
   -6.5336   -9.7513   16.1609 C   0  0  0  0  0  0  0  0  0  0  0  0
   -6.5321  -10.0564   17.5846 C   0  0  0  0  0  0  0  0  0  0  0  0
   -6.5621  -11.4336   18.0334 C   0  0  0  0  0  0  0  0  0  0  0  0
   -6.5715  -12.4648   17.1024 N   0  0  0  0  0  0  0  0  0  0  0  0
   -6.5513  -10.7295   15.2931 N   0  0  0  0  0  0  0  0  0  0  0  0
   -6.5649  -12.1342   15.7746 C   0  0  0  0  0  0  0  0  0  0  0  0
   -6.5303   -9.0358   18.4761 C   0  0  0  0  0  0  0  0  0  0  0  0
   -6.5391   -9.3907   19.9329 C   0  0  0  0  0  0  0  0  0  0  0  0
   -6.5511  -10.6358   20.3515 C   0  0  0  0  0  0  0  0  0  0  0  0
   -6.5637  -11.7575   19.3643 C   0  0  0  0  0  0  0  0  0  0  0  0
   -6.5234   -8.1119   21.0933 Cl  0  0  0  0  0  0  0  0  0  0  0  0
   -6.5477  -13.2085   14.7152 C   0  0  0  0  0  0  0  0  0  0  0  0
   -5.4658  -14.4203   12.8822 C   0  0  0  0  0  0  0  0  0  0  0  0
   -4.0808  -15.0567   12.7248 C   0  0  0  0  0  0  0  0  0  0  0  0
   -2.9960  -13.1990   13.6887 C   0  0  0  0  0  0  0  0  0  0  0  0
   -4.2786  -12.4430   13.9623 C   0  0  0  0  0  0  0  0  0  0  0  0
   -4.1263  -15.9672   11.5450 C   0  0  0  0  0  0  0  0  0  0  0  0
   -5.4084  -13.3443   13.8558 N   0  0  0  0  0  0  0  0  0  0  0  0
   -3.1358  -14.0022   12.5098 N   0  0  0  0  0  0  0  0  0  0  0  0
   -7.4907  -13.9724   14.6408 O   0  0  0  0  0  0  0  0  0  0  0  0
   -3.4586  -13.4149   11.7409 H   0  0  0  0  0  0  0  0  0  0  0  0
   -6.5151   -8.4030   15.7325 N   0  0  0  0  0  0  0  0  0  0  0  0
   -7.3702   -7.9211   15.6558 H   0  0  0  0  0  0  0  0  0  0  0  0
   -5.3030   -7.7079   15.4050 C   0  0  0  0  0  0  0  0  0  0  0  0
   -4.5633   -6.7361   16.1246 C   0  0  0  0  0  0  0  0  0  0  0  0
   -3.4655   -6.4151   15.3501 C   0  0  0  0  0  0  0  0  0  0  0  0
   -2.3414   -5.4135   15.6579 C   0  0  0  0  0  0  0  0  0  0  0  0
   -3.5299   -7.1654   14.1871 N   0  0  0  0  0  0  0  0  0  0  0  0
   -4.6609   -7.9555   14.2299 N   0  0  0  0  0  0  0  0  0  0  0  0
   -2.8764   -7.1392   13.4512 H   0  0  0  0  0  0  0  0  0  0  0  0
 17 14  1  0  0  0
 19 14  1  0  0  0
 19 15  1  0  0  0
 13 14  1  0  0  0
 13 18  1  0  0  0
 15 16  1  0  0  0
 16 18  1  0  0  0
 18 12  1  0  0  0
 12 20  2  0  0  0
 12  6  1  0  0  0
  4  6  2  0  0  0
  4  3  1  0  0  0
 10  3  2  0  0  0
 10  9  1  0  0  0
  6  5  1  0  0  0
  3  2  1  0  0  0
  9  8  2  0  0  0
  5  1  2  0  0  0
  2  1  1  0  0  0
  2  7  2  0  0  0
  8  7  1  0  0  0
  8 11  1  0  0  0
  1 22  1  0  0  0
 22 24  1  0  0  0
 25 24  1  0  0  0
 25 26  2  0  0  0
 24 29  2  0  0  0
 27 26  1  0  0  0
 26 28  1  0  0  0
 29 28  1  0  0  0
 22 23  1  0  0  0
 28 30  1  0  0  0
 19 21  1  0  0  0
M  END
> <minimizedAffinity>
-8.58852

$$$$
5XVA_8FU_A_601


 30 33  0  0  0  0  0  0  0  0999 V2000
   -6.8651  -11.1796   17.0167 C   0  0  0  0  0  0  0  0  0  0  0  0
   -6.6246  -10.3367   18.1794 C   0  0  0  0  0  0  0  0  0  0  0  0
   -6.6807  -10.9024   19.5120 C   0  0  0  0  0  0  0  0  0  0  0  0
   -6.9440  -12.2563   19.6786 N   0  0  0  0  0  0  0  0  0  0  0  0
   -7.1206  -12.4511   17.1854 N   0  0  0  0  0  0  0  0  0  0  0  0
   -7.1566  -13.0138   18.5591 C   0  0  0  0  0  0  0  0  0  0  0  0
   -6.3769   -9.0172   17.9954 C   0  0  0  0  0  0  0  0  0  0  0  0
   -6.1444   -8.1806   19.2180 C   0  0  0  0  0  0  0  0  0  0  0  0
   -6.1779   -8.6855   20.4302 C   0  0  0  0  0  0  0  0  0  0  0  0
   -6.4620  -10.1392   20.6282 C   0  0  0  0  0  0  0  0  0  0  0  0
   -5.8129   -6.4981   19.0150 Cl  0  0  0  0  0  0  0  0  0  0  0  0
   -7.4212  -14.4950   18.6722 C   0  0  0  0  0  0  0  0  0  0  0  0
   -6.8859  -16.8315   18.1690 C   0  0  0  0  0  0  0  0  0  0  0  0
   -5.5910  -17.6469   18.2484 C   0  0  0  0  0  0  0  0  0  0  0  0
   -4.3166  -15.9255   17.2638 C   0  0  0  0  0  0  0  0  0  0  0  0
   -5.4827  -14.9672   17.1487 C   0  0  0  0  0  0  0  0  0  0  0  0
   -5.9538  -19.0913   18.1766 C   0  0  0  0  0  0  0  0  0  0  0  0
   -6.5748  -15.4251   17.9840 N   0  0  0  0  0  0  0  0  0  0  0  0
   -4.7718  -17.2783   17.1329 N   0  0  0  0  0  0  0  0  0  0  0  0
   -8.3282  -14.8748   19.3873 O   0  0  0  0  0  0  0  0  0  0  0  0
   -5.3154  -17.3671   16.2744 H   0  0  0  0  0  0  0  0  0  0  0  0
   -6.8188  -10.6156   15.7200 N   0  0  0  0  0  0  0  0  0  0  0  0
   -7.6319  -10.1923   15.3609 H   0  0  0  0  0  0  0  0  0  0  0  0
   -5.6371  -10.6344   14.9057 C   0  0  0  0  0  0  0  0  0  0  0  0
   -4.9207  -11.7130   14.3290 C   0  0  0  0  0  0  0  0  0  0  0  0
   -3.8669  -11.1623   13.6259 C   0  0  0  0  0  0  0  0  0  0  0  0
   -2.7798  -11.8856   12.8155 C   0  0  0  0  0  0  0  0  0  0  0  0
   -3.9317   -9.7857   13.7687 N   0  0  0  0  0  0  0  0  0  0  0  0
   -5.0213   -9.4713   14.5558 N   0  0  0  0  0  0  0  0  0  0  0  0
   -3.3039   -9.1383   13.3738 H   0  0  0  0  0  0  0  0  0  0  0  0
 17 14  1  0  0  0
 19 14  1  0  0  0
 19 15  1  0  0  0
 13 14  1  0  0  0
 13 18  1  0  0  0
 15 16  1  0  0  0
 16 18  1  0  0  0
 18 12  1  0  0  0
 12 20  2  0  0  0
 12  6  1  0  0  0
  4  6  2  0  0  0
  4  3  1  0  0  0
 10  3  2  0  0  0
 10  9  1  0  0  0
  6  5  1  0  0  0
  3  2  1  0  0  0
  9  8  2  0  0  0
  5  1  2  0  0  0
  2  1  1  0  0  0
  2  7  2  0  0  0
  8  7  1  0  0  0
  8 11  1  0  0  0
  1 22  1  0  0  0
 22 24  1  0  0  0
 25 24  1  0  0  0
 25 26  2  0  0  0
 24 29  2  0  0  0
 27 26  1  0  0  0
 26 28  1  0  0  0
 29 28  1  0  0  0
 22 23  1  0  0  0
 28 30  1  0  0  0
 19 21  1  0  0  0
M  END
> <minimizedAffinity>
-8.49611

$$$$
5XVA_8FU_A_601


 30 33  0  0  0  0  0  0  0  0999 V2000
   -5.8236  -10.5986   17.8726 C   0  0  0  0  0  0  0  0  0  0  0  0
   -6.4709  -10.1478   19.0965 C   0  0  0  0  0  0  0  0  0  0  0  0
   -7.2092  -11.0862   19.9170 C   0  0  0  0  0  0  0  0  0  0  0  0
   -7.2818  -12.4228   19.5450 N   0  0  0  0  0  0  0  0  0  0  0  0
   -5.9055  -11.8573   17.5272 N   0  0  0  0  0  0  0  0  0  0  0  0
   -6.6531  -12.8056   18.3915 C   0  0  0  0  0  0  0  0  0  0  0  0
   -6.3942   -8.8385   19.4374 C   0  0  0  0  0  0  0  0  0  0  0  0
   -7.0822   -8.4116   20.6995 C   0  0  0  0  0  0  0  0  0  0  0  0
   -7.7418   -9.2563   21.4590 C   0  0  0  0  0  0  0  0  0  0  0  0
   -7.8322  -10.6971   21.0732 C   0  0  0  0  0  0  0  0  0  0  0  0
   -6.9910   -6.7519   21.1675 Cl  0  0  0  0  0  0  0  0  0  0  0  0
   -6.6729  -14.2476   17.9475 C   0  0  0  0  0  0  0  0  0  0  0  0
   -6.5481  -15.9800   16.2206 C   0  0  0  0  0  0  0  0  0  0  0  0
   -5.5606  -16.2487   15.0801 C   0  0  0  0  0  0  0  0  0  0  0  0
   -5.4962  -13.9772   14.4531 C   0  0  0  0  0  0  0  0  0  0  0  0
   -6.4290  -13.5244   15.5560 C   0  0  0  0  0  0  0  0  0  0  0  0
   -5.7842  -17.6421   14.5991 C   0  0  0  0  0  0  0  0  0  0  0  0
   -6.5446  -14.5670   16.5559 N   0  0  0  0  0  0  0  0  0  0  0  0
   -5.8309  -15.3068   14.0354 N   0  0  0  0  0  0  0  0  0  0  0  0
   -6.7534  -15.1190   18.7916 O   0  0  0  0  0  0  0  0  0  0  0  0
   -6.8224  -15.3440   13.7993 H   0  0  0  0  0  0  0  0  0  0  0  0
   -5.1140   -9.6724   17.0724 N   0  0  0  0  0  0  0  0  0  0  0  0
   -4.9587   -8.7665   17.4253 H   0  0  0  0  0  0  0  0  0  0  0  0
   -4.6108   -9.9972   15.7681 C   0  0  0  0  0  0  0  0  0  0  0  0
   -3.7911  -11.0657   15.3257 C   0  0  0  0  0  0  0  0  0  0  0  0
   -3.6256  -10.9050   13.9638 C   0  0  0  0  0  0  0  0  0  0  0  0
   -2.8252  -11.7843   12.9903 C   0  0  0  0  0  0  0  0  0  0  0  0
   -4.3206   -9.7694   13.5805 N   0  0  0  0  0  0  0  0  0  0  0  0
   -4.9219   -9.2191   14.6946 N   0  0  0  0  0  0  0  0  0  0  0  0
   -4.3765   -9.4134   12.6643 H   0  0  0  0  0  0  0  0  0  0  0  0
 17 14  1  0  0  0
 19 14  1  0  0  0
 19 15  1  0  0  0
 13 14  1  0  0  0
 13 18  1  0  0  0
 15 16  1  0  0  0
 16 18  1  0  0  0
 18 12  1  0  0  0
 12 20  2  0  0  0
 12  6  1  0  0  0
  4  6  2  0  0  0
  4  3  1  0  0  0
 10  3  2  0  0  0
 10  9  1  0  0  0
  6  5  1  0  0  0
  3  2  1  0  0  0
  9  8  2  0  0  0
  5  1  2  0  0  0
  2  1  1  0  0  0
  2  7  2  0  0  0
  8  7  1  0  0  0
  8 11  1  0  0  0
  1 22  1  0  0  0
 22 24  1  0  0  0
 25 24  1  0  0  0
 25 26  2  0  0  0
 24 29  2  0  0  0
 27 26  1  0  0  0
 26 28  1  0  0  0
 29 28  1  0  0  0
 22 23  1  0  0  0
 28 30  1  0  0  0
 19 21  1  0  0  0
M  END
> <minimizedAffinity>
-8.41601

$$$$
5XVA_8FU_A_601


 30 33  0  0  0  0  0  0  0  0999 V2000
   -5.8710  -10.7680   17.4840 C   0  0  0  0  0  0  0  0  0  0  0  0
   -6.4459  -10.4220   18.7763 C   0  0  0  0  0  0  0  0  0  0  0  0
   -7.2355  -11.3940   19.5049 C   0  0  0  0  0  0  0  0  0  0  0  0
   -7.4265  -12.6652   18.9780 N   0  0  0  0  0  0  0  0  0  0  0  0
   -6.0643  -11.9647   16.9933 N   0  0  0  0  0  0  0  0  0  0  0  0
   -6.8626  -12.9512   17.7644 C   0  0  0  0  0  0  0  0  0  0  0  0
   -6.2539   -9.1742   19.2689 C   0  0  0  0  0  0  0  0  0  0  0  0
   -6.8702   -8.8534   20.5977 C   0  0  0  0  0  0  0  0  0  0  0  0
   -7.5754   -9.7313   21.2741 C   0  0  0  0  0  0  0  0  0  0  0  0
   -7.7930  -11.1026   20.7216 C   0  0  0  0  0  0  0  0  0  0  0  0
   -6.6318   -7.2757   21.2578 Cl  0  0  0  0  0  0  0  0  0  0  0  0
   -7.0117  -14.3219   17.1516 C   0  0  0  0  0  0  0  0  0  0  0  0
   -7.4145  -16.7321   17.3173 C   0  0  0  0  0  0  0  0  0  0  0  0
   -8.4942  -17.5650   18.0163 C   0  0  0  0  0  0  0  0  0  0  0  0
   -8.3771  -16.2693   19.9821 C   0  0  0  0  0  0  0  0  0  0  0  0
   -7.3361  -15.3171   19.4333 C   0  0  0  0  0  0  0  0  0  0  0  0
   -8.4385  -18.9472   17.4600 C   0  0  0  0  0  0  0  0  0  0  0  0
   -7.2590  -15.4560   17.9928 N   0  0  0  0  0  0  0  0  0  0  0  0
   -8.2008  -17.5752   19.4182 N   0  0  0  0  0  0  0  0  0  0  0  0
   -6.9626  -14.4307   15.9416 O   0  0  0  0  0  0  0  0  0  0  0  0
   -7.2347  -17.8718   19.5559 H   0  0  0  0  0  0  0  0  0  0  0  0
   -5.1106   -9.8083   16.7751 N   0  0  0  0  0  0  0  0  0  0  0  0
   -4.9653   -8.9253   17.1857 H   0  0  0  0  0  0  0  0  0  0  0  0
   -4.5419  -10.0672   15.4831 C   0  0  0  0  0  0  0  0  0  0  0  0
   -3.8642  -11.2037   14.9747 C   0  0  0  0  0  0  0  0  0  0  0  0
   -3.5442  -10.9234   13.6605 C   0  0  0  0  0  0  0  0  0  0  0  0
   -2.8039  -11.8125   12.6490 C   0  0  0  0  0  0  0  0  0  0  0  0
   -4.0087   -9.6508   13.3703 N   0  0  0  0  0  0  0  0  0  0  0  0
   -4.6194   -9.1334   14.4949 N   0  0  0  0  0  0  0  0  0  0  0  0
   -3.9182   -9.1912   12.5044 H   0  0  0  0  0  0  0  0  0  0  0  0
 17 14  1  0  0  0
 19 14  1  0  0  0
 19 15  1  0  0  0
 13 14  1  0  0  0
 13 18  1  0  0  0
 15 16  1  0  0  0
 16 18  1  0  0  0
 18 12  1  0  0  0
 12 20  2  0  0  0
 12  6  1  0  0  0
  4  6  2  0  0  0
  4  3  1  0  0  0
 10  3  2  0  0  0
 10  9  1  0  0  0
  6  5  1  0  0  0
  3  2  1  0  0  0
  9  8  2  0  0  0
  5  1  2  0  0  0
  2  1  1  0  0  0
  2  7  2  0  0  0
  8  7  1  0  0  0
  8 11  1  0  0  0
  1 22  1  0  0  0
 22 24  1  0  0  0
 25 24  1  0  0  0
 25 26  2  0  0  0
 24 29  2  0  0  0
 27 26  1  0  0  0
 26 28  1  0  0  0
 29 28  1  0  0  0
 22 23  1  0  0  0
 28 30  1  0  0  0
 19 21  1  0  0  0
M  END
> <minimizedAffinity>
-8.40592

$$$$
5XVA_8FU_A_601


 30 33  0  0  0  0  0  0  0  0999 V2000
   -7.1169  -12.7469   18.3076 C   0  0  0  0  0  0  0  0  0  0  0  0
   -6.8394  -11.3223   18.4250 C   0  0  0  0  0  0  0  0  0  0  0  0
   -6.4777  -10.5526   17.2521 C   0  0  0  0  0  0  0  0  0  0  0  0
   -6.4159  -11.1718   16.0100 N   0  0  0  0  0  0  0  0  0  0  0  0
   -7.0475  -13.3215   17.1349 N   0  0  0  0  0  0  0  0  0  0  0  0
   -6.6914  -12.5105   15.9430 C   0  0  0  0  0  0  0  0  0  0  0  0
   -6.8979  -10.7393   19.6469 C   0  0  0  0  0  0  0  0  0  0  0  0
   -6.5958   -9.2728   19.7281 C   0  0  0  0  0  0  0  0  0  0  0  0
   -6.2814   -8.5618   18.6693 C   0  0  0  0  0  0  0  0  0  0  0  0
   -6.2080   -9.2117   17.3257 C   0  0  0  0  0  0  0  0  0  0  0  0
   -6.6753   -8.4986   21.2696 Cl  0  0  0  0  0  0  0  0  0  0  0  0
   -6.6670  -13.2349   14.6196 C   0  0  0  0  0  0  0  0  0  0  0  0
   -5.6384  -13.7559   12.4587 C   0  0  0  0  0  0  0  0  0  0  0  0
   -4.2200  -14.1663   12.0489 C   0  0  0  0  0  0  0  0  0  0  0  0
   -3.2290  -12.5473   13.4466 C   0  0  0  0  0  0  0  0  0  0  0  0
   -4.5466  -12.0443   13.9963 C   0  0  0  0  0  0  0  0  0  0  0  0
   -4.2825  -14.7076   10.6610 C   0  0  0  0  0  0  0  0  0  0  0  0
   -5.5961  -12.9976   13.6965 N   0  0  0  0  0  0  0  0  0  0  0  0
   -3.3945  -12.9968   12.0957 N   0  0  0  0  0  0  0  0  0  0  0  0
   -7.5407  -14.0457   14.3798 O   0  0  0  0  0  0  0  0  0  0  0  0
   -3.8320  -12.2561   11.5476 H   0  0  0  0  0  0  0  0  0  0  0  0
   -7.4587  -13.4922   19.4606 N   0  0  0  0  0  0  0  0  0  0  0  0
   -7.7040  -13.0058   20.2807 H   0  0  0  0  0  0  0  0  0  0  0  0
   -7.4632  -14.9272   19.4856 C   0  0  0  0  0  0  0  0  0  0  0  0
   -6.3974  -15.8618   19.4889 C   0  0  0  0  0  0  0  0  0  0  0  0
   -6.9684  -17.1188   19.5350 C   0  0  0  0  0  0  0  0  0  0  0  0
   -6.2653  -18.4851   19.5555 C   0  0  0  0  0  0  0  0  0  0  0  0
   -8.3447  -16.9618   19.5565 N   0  0  0  0  0  0  0  0  0  0  0  0
   -8.6388  -15.6134   19.5258 N   0  0  0  0  0  0  0  0  0  0  0  0
   -9.0045  -17.6918   19.5883 H   0  0  0  0  0  0  0  0  0  0  0  0
 17 14  1  0  0  0
 19 14  1  0  0  0
 19 15  1  0  0  0
 13 14  1  0  0  0
 13 18  1  0  0  0
 15 16  1  0  0  0
 16 18  1  0  0  0
 18 12  1  0  0  0
 12 20  2  0  0  0
 12  6  1  0  0  0
  4  6  2  0  0  0
  4  3  1  0  0  0
 10  3  2  0  0  0
 10  9  1  0  0  0
  6  5  1  0  0  0
  3  2  1  0  0  0
  9  8  2  0  0  0
  5  1  2  0  0  0
  2  1  1  0  0  0
  2  7  2  0  0  0
  8  7  1  0  0  0
  8 11  1  0  0  0
  1 22  1  0  0  0
 22 24  1  0  0  0
 25 24  1  0  0  0
 25 26  2  0  0  0
 24 29  2  0  0  0
 27 26  1  0  0  0
 26 28  1  0  0  0
 29 28  1  0  0  0
 22 23  1  0  0  0
 28 30  1  0  0  0
 19 21  1  0  0  0
M  END
> <minimizedAffinity>
-8.27548

$$$$
5XVA_8FU_A_601


 30 33  0  0  0  0  0  0  0  0999 V2000
   -6.3383  -12.0323   16.7778 C   0  0  0  0  0  0  0  0  0  0  0  0
   -6.4693  -13.4705   16.9638 C   0  0  0  0  0  0  0  0  0  0  0  0
   -6.8998  -14.0025   18.2408 C   0  0  0  0  0  0  0  0  0  0  0  0
   -7.2078  -13.1368   19.2828 N   0  0  0  0  0  0  0  0  0  0  0  0
   -6.6225  -11.2268   17.7680 N   0  0  0  0  0  0  0  0  0  0  0  0
   -7.0782  -11.7924   19.0632 C   0  0  0  0  0  0  0  0  0  0  0  0
   -6.1567  -14.2978   15.9371 C   0  0  0  0  0  0  0  0  0  0  0  0
   -6.2950  -15.7725   16.1711 C   0  0  0  0  0  0  0  0  0  0  0  0
   -6.6987  -16.2656   17.3197 C   0  0  0  0  0  0  0  0  0  0  0  0
   -7.0321  -15.3494   18.4522 C   0  0  0  0  0  0  0  0  0  0  0  0
   -5.9169  -16.8517   14.8772 Cl  0  0  0  0  0  0  0  0  0  0  0  0
   -7.4226  -10.8000   20.1464 C   0  0  0  0  0  0  0  0  0  0  0  0
   -7.2596   -8.5865   21.1820 C   0  0  0  0  0  0  0  0  0  0  0  0
   -7.4166   -7.1635   20.6355 C   0  0  0  0  0  0  0  0  0  0  0  0
   -6.1401   -7.6428   18.7126 C   0  0  0  0  0  0  0  0  0  0  0  0
   -5.9220   -9.0962   19.0756 C   0  0  0  0  0  0  0  0  0  0  0  0
   -7.5760   -6.2417   21.7965 C   0  0  0  0  0  0  0  0  0  0  0  0
   -6.8539   -9.4845   20.1153 N   0  0  0  0  0  0  0  0  0  0  0  0
   -6.2306   -6.8436   19.8989 N   0  0  0  0  0  0  0  0  0  0  0  0
   -8.2176  -11.1252   21.0070 O   0  0  0  0  0  0  0  0  0  0  0  0
   -5.4146   -7.0204   20.4848 H   0  0  0  0  0  0  0  0  0  0  0  0
   -5.9067  -11.5229   15.5304 N   0  0  0  0  0  0  0  0  0  0  0  0
   -5.7939  -12.1491   14.7791 H   0  0  0  0  0  0  0  0  0  0  0  0
   -5.6263  -10.1322   15.3135 C   0  0  0  0  0  0  0  0  0  0  0  0
   -4.4101   -9.4067   15.3757 C   0  0  0  0  0  0  0  0  0  0  0  0
   -4.7103   -8.0957   15.0610 C   0  0  0  0  0  0  0  0  0  0  0  0
   -3.7584   -6.8917   14.9840 C   0  0  0  0  0  0  0  0  0  0  0  0
   -6.0715   -8.0167   14.8154 N   0  0  0  0  0  0  0  0  0  0  0  0
   -6.6250   -9.2714   14.9729 N   0  0  0  0  0  0  0  0  0  0  0  0
   -6.5631   -7.2001   14.5690 H   0  0  0  0  0  0  0  0  0  0  0  0
 17 14  1  0  0  0
 19 14  1  0  0  0
 19 15  1  0  0  0
 13 14  1  0  0  0
 13 18  1  0  0  0
 15 16  1  0  0  0
 16 18  1  0  0  0
 18 12  1  0  0  0
 12 20  2  0  0  0
 12  6  1  0  0  0
  4  6  2  0  0  0
  4  3  1  0  0  0
 10  3  2  0  0  0
 10  9  1  0  0  0
  6  5  1  0  0  0
  3  2  1  0  0  0
  9  8  2  0  0  0
  5  1  2  0  0  0
  2  1  1  0  0  0
  2  7  2  0  0  0
  8  7  1  0  0  0
  8 11  1  0  0  0
  1 22  1  0  0  0
 22 24  1  0  0  0
 25 24  1  0  0  0
 25 26  2  0  0  0
 24 29  2  0  0  0
 27 26  1  0  0  0
 26 28  1  0  0  0
 29 28  1  0  0  0
 22 23  1  0  0  0
 28 30  1  0  0  0
 19 21  1  0  0  0
M  END
> <minimizedAffinity>
-8.23550

$$$$
5XVA_8FU_A_601


 30 33  0  0  0  0  0  0  0  0999 V2000
   -6.7386  -12.4708   17.1574 C   0  0  0  0  0  0  0  0  0  0  0  0
   -6.6754  -11.4689   18.2120 C   0  0  0  0  0  0  0  0  0  0  0  0
   -6.9776  -11.8338   19.5811 C   0  0  0  0  0  0  0  0  0  0  0  0
   -7.3081  -13.1473   19.8903 N   0  0  0  0  0  0  0  0  0  0  0  0
   -7.0592  -13.7025   17.4582 N   0  0  0  0  0  0  0  0  0  0  0  0
   -7.3488  -14.0587   18.8704 C   0  0  0  0  0  0  0  0  0  0  0  0
   -6.3582  -10.1918   17.8880 C   0  0  0  0  0  0  0  0  0  0  0  0
   -6.3133   -9.1874   19.0004 C   0  0  0  0  0  0  0  0  0  0  0  0
   -6.5707   -9.5099   20.2475 C   0  0  0  0  0  0  0  0  0  0  0  0
   -6.9302  -10.9173   20.5980 C   0  0  0  0  0  0  0  0  0  0  0  0
   -5.8990   -7.5545   18.6208 Cl  0  0  0  0  0  0  0  0  0  0  0  0
   -7.6753  -15.5059   19.1455 C   0  0  0  0  0  0  0  0  0  0  0  0
   -7.0876  -17.8831   19.1964 C   0  0  0  0  0  0  0  0  0  0  0  0
   -5.8876  -18.6504   19.7616 C   0  0  0  0  0  0  0  0  0  0  0  0
   -4.3441  -17.0907   18.9003 C   0  0  0  0  0  0  0  0  0  0  0  0
   -5.4065  -16.1857   18.3138 C   0  0  0  0  0  0  0  0  0  0  0  0
   -6.2567  -20.0935   19.8283 C   0  0  0  0  0  0  0  0  0  0  0  0
   -6.6985  -16.5205   18.8783 N   0  0  0  0  0  0  0  0  0  0  0  0
   -4.7832  -18.4547   18.8708 N   0  0  0  0  0  0  0  0  0  0  0  0
   -8.7543  -15.7799   19.6345 O   0  0  0  0  0  0  0  0  0  0  0  0
   -5.0720  -18.6931   17.9220 H   0  0  0  0  0  0  0  0  0  0  0  0
   -6.4523  -12.1022   15.8217 N   0  0  0  0  0  0  0  0  0  0  0  0
   -6.8828  -11.2976   15.4522 H   0  0  0  0  0  0  0  0  0  0  0  0
   -5.5610  -12.8514   14.9825 C   0  0  0  0  0  0  0  0  0  0  0  0
   -5.7936  -13.5650   13.7800 C   0  0  0  0  0  0  0  0  0  0  0  0
   -4.5777  -14.0873   13.3838 C   0  0  0  0  0  0  0  0  0  0  0  0
   -4.2660  -14.9456   12.1478 C   0  0  0  0  0  0  0  0  0  0  0  0
   -3.6262  -13.7085   14.3168 N   0  0  0  0  0  0  0  0  0  0  0  0
   -4.2391  -12.9504   15.2941 N   0  0  0  0  0  0  0  0  0  0  0  0
   -2.6701  -13.9416   14.2876 H   0  0  0  0  0  0  0  0  0  0  0  0
 17 14  1  0  0  0
 19 14  1  0  0  0
 19 15  1  0  0  0
 13 14  1  0  0  0
 13 18  1  0  0  0
 15 16  1  0  0  0
 16 18  1  0  0  0
 18 12  1  0  0  0
 12 20  2  0  0  0
 12  6  1  0  0  0
  4  6  2  0  0  0
  4  3  1  0  0  0
 10  3  2  0  0  0
 10  9  1  0  0  0
  6  5  1  0  0  0
  3  2  1  0  0  0
  9  8  2  0  0  0
  5  1  2  0  0  0
  2  1  1  0  0  0
  2  7  2  0  0  0
  8  7  1  0  0  0
  8 11  1  0  0  0
  1 22  1  0  0  0
 22 24  1  0  0  0
 25 24  1  0  0  0
 25 26  2  0  0  0
 24 29  2  0  0  0
 27 26  1  0  0  0
 26 28  1  0  0  0
 29 28  1  0  0  0
 22 23  1  0  0  0
 28 30  1  0  0  0
 19 21  1  0  0  0
M  END
> <minimizedAffinity>
-8.00745

$$$$
5XVA_8FU_A_601


 30 33  0  0  0  0  0  0  0  0999 V2000
   -6.1024  -12.5949   14.1890 C   0  0  0  0  0  0  0  0  0  0  0  0
   -4.9413  -12.7168   13.3189 C   0  0  0  0  0  0  0  0  0  0  0  0
   -4.0588  -11.5850   13.1207 C   0  0  0  0  0  0  0  0  0  0  0  0
   -4.3105  -10.3877   13.7790 N   0  0  0  0  0  0  0  0  0  0  0  0
   -6.3347  -11.4606   14.7970 N   0  0  0  0  0  0  0  0  0  0  0  0
   -5.4081  -10.3183   14.5931 C   0  0  0  0  0  0  0  0  0  0  0  0
   -4.7181  -13.8911   12.6805 C   0  0  0  0  0  0  0  0  0  0  0  0
   -3.5178  -13.9738   11.7854 C   0  0  0  0  0  0  0  0  0  0  0  0
   -2.7025  -12.9590   11.6098 C   0  0  0  0  0  0  0  0  0  0  0  0
   -2.9590  -11.6629   12.3080 C   0  0  0  0  0  0  0  0  0  0  0  0
   -3.1993  -15.4615   10.9685 Cl  0  0  0  0  0  0  0  0  0  0  0  0
   -5.7205   -9.0545   15.3560 C   0  0  0  0  0  0  0  0  0  0  0  0
   -6.4045   -7.8679   17.3865 C   0  0  0  0  0  0  0  0  0  0  0  0
   -5.9428   -7.9429   18.8457 C   0  0  0  0  0  0  0  0  0  0  0  0
   -5.9156  -10.3000   18.8315 C   0  0  0  0  0  0  0  0  0  0  0  0
   -6.3245  -10.4134   17.3784 C   0  0  0  0  0  0  0  0  0  0  0  0
   -6.4528   -6.7321   19.5505 C   0  0  0  0  0  0  0  0  0  0  0  0
   -6.1503   -9.1336   16.7212 N   0  0  0  0  0  0  0  0  0  0  0  0
   -6.4988   -9.1309   19.4209 N   0  0  0  0  0  0  0  0  0  0  0  0
   -5.5569   -7.9828   14.8054 O   0  0  0  0  0  0  0  0  0  0  0  0
   -7.5059   -9.1414   19.2594 H   0  0  0  0  0  0  0  0  0  0  0  0
   -6.9643  -13.7026   14.3677 N   0  0  0  0  0  0  0  0  0  0  0  0
   -7.5862  -13.9378   13.6416 H   0  0  0  0  0  0  0  0  0  0  0  0
   -6.9706  -14.4980   15.5623 C   0  0  0  0  0  0  0  0  0  0  0  0
   -6.7518  -14.1446   16.9175 C   0  0  0  0  0  0  0  0  0  0  0  0
   -6.8926  -15.3010   17.6598 C   0  0  0  0  0  0  0  0  0  0  0  0
   -6.7562  -15.4807   19.1799 C   0  0  0  0  0  0  0  0  0  0  0  0
   -7.1863  -16.3356   16.7863 N   0  0  0  0  0  0  0  0  0  0  0  0
   -7.2320  -15.8331   15.5015 N   0  0  0  0  0  0  0  0  0  0  0  0
   -7.3376  -17.2746   17.0403 H   0  0  0  0  0  0  0  0  0  0  0  0
 17 14  1  0  0  0
 19 14  1  0  0  0
 19 15  1  0  0  0
 13 14  1  0  0  0
 13 18  1  0  0  0
 15 16  1  0  0  0
 16 18  1  0  0  0
 18 12  1  0  0  0
 12 20  2  0  0  0
 12  6  1  0  0  0
  4  6  2  0  0  0
  4  3  1  0  0  0
 10  3  2  0  0  0
 10  9  1  0  0  0
  6  5  1  0  0  0
  3  2  1  0  0  0
  9  8  2  0  0  0
  5  1  2  0  0  0
  2  1  1  0  0  0
  2  7  2  0  0  0
  8  7  1  0  0  0
  8 11  1  0  0  0
  1 22  1  0  0  0
 22 24  1  0  0  0
 25 24  1  0  0  0
 25 26  2  0  0  0
 24 29  2  0  0  0
 27 26  1  0  0  0
 26 28  1  0  0  0
 29 28  1  0  0  0
 22 23  1  0  0  0
 28 30  1  0  0  0
 19 21  1  0  0  0
M  END
> <minimizedAffinity>
-7.75354

$$$$
