3CL0_G39_A_800
  RCSB PDB12061708113D
Coordinates from PDB:3CL0:A:800 Model:1 without hydrogens
 20 20  0  0  0  0            999 V2000
  -30.3740  -53.1430    6.1220   C 0  0  0  0  0  0  0  0  0  0  0  0
  -31.4390  -52.5330    5.8500   O 0  0  0  0  0  0  0  0  0  0  0  0
  -29.2570  -52.6250    5.8790   O 0  0  0  0  0  0  0  0  0  0  0  0
  -30.4370  -54.4860    6.7250   C 0  0  0  0  0  0  0  0  0  0  0  0
  -29.1590  -55.1880    7.1320   C 0  0  0  0  0  0  0  0  0  0  0  0
  -29.3800  -56.1620    8.2940   C 0  0  0  0  0  0  0  0  0  0  0  0
  -30.6270  -57.0330    8.0970   C 0  0  0  0  0  0  0  0  0  0  0  0
  -30.8030  -57.9550    9.2060   N 0  0  0  0  0  0  0  0  0  0  0  0
  -30.6830  -59.2830    9.0870   C 0  0  0  0  0  0  0  0  0  0  0  0
  -30.6290  -59.8630    8.0100   O 0  0  0  0  0  0  0  0  0  0  0  0
  -30.6110  -60.0400   10.3800   C 0  0  0  0  0  0  0  0  0  0  0  0
  -31.8830  -56.1780    7.9370   C 0  0  0  0  0  0  0  0  0  0  0  0
  -31.6320  -55.0930    6.9010   C 0  0  0  0  0  0  0  0  0  0  0  0
  -33.0070  -56.9890    7.5310   O 0  0  0  0  0  0  0  0  0  0  0  0
  -34.1580  -56.9050    8.3980   C 0  0  0  0  0  0  0  0  0  0  0  0
  -34.8790  -55.5530    8.2830   C 0  0  0  0  0  0  0  0  0  0  0  0
  -35.1530  -58.0200    8.0790   C 0  0  0  0  0  0  0  0  0  0  0  0
  -34.6540  -59.3950    8.4670   C 0  0  0  0  0  0  0  0  0  0  0  0
  -35.4250  -55.2790    6.8910   C 0  0  0  0  0  0  0  0  0  0  0  0
  -28.1950  -56.9940    8.4300   N 0  0  0  0  0  0  0  0  0  0  0  0
  1  2  2  0  0  0  0
  1  3  1  0  0  0  0
  1  4  1  0  0  0  0
  4  5  1  0  0  0  0
  4 13  2  0  0  0  0
  5  6  1  0  0  0  0
  6  7  1  0  0  0  0
  6 20  1  0  0  0  0
  7  8  1  0  0  0  0
  7 12  1  0  0  0  0
  8  9  1  0  0  0  0
  9 10  2  0  0  0  0
  9 11  1  0  0  0  0
 12 13  1  0  0  0  0
 12 14  1  0  0  0  0
 14 15  1  0  0  0  0
 15 16  1  0  0  0  0
 15 17  1  0  0  0  0
 16 19  1  0  0  0  0
 17 18  1  0  0  0  0
A    1
C1
A    2
O1A
A    3
O1B
A    4
C2
A    5
C3
A    6
C4
A    7
C5
A    8
N5
A    9
C10
A   10
O10
A   11
C11
A   12
C6
A   13
C7
A   14
O7
A   15
C8
A   16
C9
A   17
C81
A   18
C82
A   19
C91
A   20
N4
M  END
>  <InstanceId>
3CL0_G39_A_800

>  <ChemCompId>
G39

>  <PdbId>
3CL0

>  <ChainId>
A

>  <ResidueNumber>
800

>  <InsertionCode>


>  <Model>
1

>  <AltIds>


>  <MissingHeavyAtoms>
0

>  <ObservedFormula>
C14 N2 O4

>  <Name>
(3R,4R,5S)-4-(acetylamino)-5-amino-3-(pentan-3-yloxy)cyclohex-1-ene-1-carboxylic acid

>  <SystematicName>
(3R,4R,5S)-4-acetamido-5-azanyl-3-pentan-3-yloxy-cyclohexene-1-carboxylic acid

>  <Synonyms>
Oseltamivir carboxylate

>  <Type>
NON-POLYMER

>  <Formula>
C14 H24 N2 O4

>  <MolecularWeight>
284.351

>  <ModifiedDate>
2011-06-04

>  <Parent>


>  <OneLetterCode>


>  <SubcomponentList>


>  <AmbiguousFlag>
N

>  <InChI>
InChI=1S/C14H24N2O4/c1-4-10(5-2)20-12-7-9(14(18)19)6-11(15)13(12)16-8(3)17/h7,10-13H,4-6,15H2,1-3H3,(H,16,17)(H,18,19)/t11-,12+,13+/m0/s1

>  <InChIKey>
NENPYTRHICXVCS-YNEHKIRRSA-N

>  <SMILES>
CCC(CC)O[C@@H]1C=C(C[C@@H]([C@H]1NC(=O)C)N)C(=O)O

$$$$
