3KMC_403_B_485


 26 27  0  0  0  0  0  0  0  0999 V2000
   49.9818   31.7607   38.9426 C   0  0  0  0  0  0  0  0  0  0  0  0
   51.3403   32.1843   39.0457 O   0  0  0  0  0  0  0  0  0  0  0  0
   51.4365   32.7800   39.8051 H   0  0  0  0  0  0  0  0  0  0  0  0
   49.4757   30.9093   40.1204 C   0  0  0  0  0  0  0  0  0  0  0  0
   48.6715   30.0105   39.9417 O   0  0  0  0  0  0  0  0  0  0  0  0
   49.9123   31.3049   41.3668 N   0  0  0  0  0  0  0  0  0  0  0  0
   50.7635   31.7964   41.4225 H   0  0  0  0  0  0  0  0  0  0  0  0
   49.1982   31.0434   42.5995 C   0  0  0  0  0  0  0  0  0  0  0  0
   49.7451   31.9716   43.6621 C   0  0  0  0  0  0  0  0  0  0  0  0
   50.8671   31.1756   46.1596 S   0  0  0  0  0  0  0  0  0  0  0  0
   49.5149   31.4739   45.0765 C   0  0  0  0  0  0  0  0  0  0  0  0
   49.7639   30.6333   47.4413 C   0  0  0  0  0  0  0  0  0  0  0  0
   48.2834   31.1750   45.6734 C   0  0  0  0  0  0  0  0  0  0  0  0
   48.4328   30.7030   47.0148 C   0  0  0  0  0  0  0  0  0  0  0  0
   49.1298   33.0256   38.7820 C   0  0  0  0  0  0  0  0  0  0  0  0
   47.9643   33.0144   39.6248 O   0  0  0  0  0  0  0  0  0  0  0  0
   48.2371   32.9431   40.5529 H   0  0  0  0  0  0  0  0  0  0  0  0
   50.0310   34.2090   39.2810 C   0  0  0  0  0  0  0  0  0  0  0  0
   50.6328   34.9680   38.2451 N   0  0  0  0  0  0  0  0  0  0  0  0
   52.0748   36.4718   36.2644 N   0  0  0  0  0  0  0  0  0  0  0  0
   50.2518   34.3886   40.5170 O   0  0  0  0  0  0  0  0  0  0  0  0
   50.0429   35.1266   36.8872 C   0  0  0  0  0  0  0  0  0  0  0  0
   51.2881   36.2199   38.6600 C   0  0  0  0  0  0  0  0  0  0  0  0
   52.4940   36.4024   37.7068 C   0  0  0  0  0  0  0  0  0  0  0  0
   51.2126   35.3140   35.8738 C   0  0  0  0  0  0  0  0  0  0  0  0
   52.9099   36.4726   35.6787 H   0  0  0  0  0  0  0  0  0  0  0  0
 15 18  1  0  0  0
 15  1  1  0  0  0
 15 16  1  0  0  0
 18 19  1  0  0  0
 18 21  2  0  0  0
  1  4  1  0  0  0
  1  2  1  0  0  0
 19 22  1  0  0  0
 19 23  1  0  0  0
 20 24  1  0  0  0
 20 25  1  0  0  0
  4  5  2  0  0  0
  4  6  1  0  0  0
 10 11  1  0  0  0
 10 12  1  0  0  0
 11 13  2  0  0  0
 11  9  1  0  0  0
 22 25  1  0  0  0
 23 24  1  0  0  0
 12 14  2  0  0  0
 13 14  1  0  0  0
  6  8  1  0  0  0
  9  8  1  0  0  0
 20 26  1  0  0  0
  6  7  1  0  0  0
 16 17  1  0  0  0
  2  3  1  0  0  0
M  END
> <minimizedAffinity>
-7.06184

$$$$
3KMC_403_B_485


 26 27  0  0  0  0  0  0  0  0999 V2000
   48.3560   31.9500   40.1015 C   0  0  0  0  0  0  0  0  0  0  0  0
   47.6785   30.7584   40.4972 O   0  0  0  0  0  0  0  0  0  0  0  0
   48.2615   30.2272   41.0617 H   0  0  0  0  0  0  0  0  0  0  0  0
   48.7012   32.9132   41.2509 C   0  0  0  0  0  0  0  0  0  0  0  0
   49.7390   33.5529   41.2399 O   0  0  0  0  0  0  0  0  0  0  0  0
   47.8180   32.9111   42.3096 N   0  0  0  0  0  0  0  0  0  0  0  0
   46.8878   32.6410   42.1334 H   0  0  0  0  0  0  0  0  0  0  0  0
   48.1719   33.2811   43.6646 C   0  0  0  0  0  0  0  0  0  0  0  0
   48.0081   32.0582   44.5405 C   0  0  0  0  0  0  0  0  0  0  0  0
   50.6888   31.1548   44.1828 S   0  0  0  0  0  0  0  0  0  0  0  0
   49.3044   31.5907   45.1748 C   0  0  0  0  0  0  0  0  0  0  0  0
   51.6332   30.7343   45.6267 C   0  0  0  0  0  0  0  0  0  0  0  0
   49.5602   31.4241   46.5418 C   0  0  0  0  0  0  0  0  0  0  0  0
   50.8833   30.9422   46.7900 C   0  0  0  0  0  0  0  0  0  0  0  0
   49.6248   31.5169   39.3570 C   0  0  0  0  0  0  0  0  0  0  0  0
   50.0908   30.2210   39.7722 O   0  0  0  0  0  0  0  0  0  0  0  0
   49.3986   29.5612   39.6099 H   0  0  0  0  0  0  0  0  0  0  0  0
   49.2061   31.3801   37.8512 C   0  0  0  0  0  0  0  0  0  0  0  0
   49.5334   32.5002   37.0451 N   0  0  0  0  0  0  0  0  0  0  0  0
   49.9544   34.7710   35.3334 N   0  0  0  0  0  0  0  0  0  0  0  0
   48.5514   30.3740   37.4418 O   0  0  0  0  0  0  0  0  0  0  0  0
   50.6771   33.4121   37.3227 C   0  0  0  0  0  0  0  0  0  0  0  0
   49.3742   32.3180   35.5925 C   0  0  0  0  0  0  0  0  0  0  0  0
   48.9439   33.6975   35.0375 C   0  0  0  0  0  0  0  0  0  0  0  0
   50.3045   34.8276   36.7862 C   0  0  0  0  0  0  0  0  0  0  0  0
   49.5686   35.6725   35.0526 H   0  0  0  0  0  0  0  0  0  0  0  0
 15 18  1  0  0  0
 15  1  1  0  0  0
 15 16  1  0  0  0
 18 19  1  0  0  0
 18 21  2  0  0  0
  1  4  1  0  0  0
  1  2  1  0  0  0
 19 22  1  0  0  0
 19 23  1  0  0  0
 20 24  1  0  0  0
 20 25  1  0  0  0
  4  5  2  0  0  0
  4  6  1  0  0  0
 10 11  1  0  0  0
 10 12  1  0  0  0
 11 13  2  0  0  0
 11  9  1  0  0  0
 22 25  1  0  0  0
 23 24  1  0  0  0
 12 14  2  0  0  0
 13 14  1  0  0  0
  6  8  1  0  0  0
  9  8  1  0  0  0
 20 26  1  0  0  0
  6  7  1  0  0  0
 16 17  1  0  0  0
  2  3  1  0  0  0
M  END
> <minimizedAffinity>
-6.94550

$$$$
3KMC_403_B_485


 26 27  0  0  0  0  0  0  0  0999 V2000
   50.1342   34.3575   39.4078 C   0  0  0  0  0  0  0  0  0  0  0  0
   49.7202   35.6828   39.7358 O   0  0  0  0  0  0  0  0  0  0  0  0
   48.7822   35.6767   39.9830 H   0  0  0  0  0  0  0  0  0  0  0  0
   50.0872   33.3548   40.5743 C   0  0  0  0  0  0  0  0  0  0  0  0
   51.0057   32.5765   40.7668 O   0  0  0  0  0  0  0  0  0  0  0  0
   48.9112   33.3393   41.2937 N   0  0  0  0  0  0  0  0  0  0  0  0
   48.3668   34.1595   41.3049 H   0  0  0  0  0  0  0  0  0  0  0  0
   48.4259   32.1928   42.0341 C   0  0  0  0  0  0  0  0  0  0  0  0
   48.1604   32.6340   43.4570 C   0  0  0  0  0  0  0  0  0  0  0  0
   50.6114   31.2587   43.9382 S   0  0  0  0  0  0  0  0  0  0  0  0
   49.1278   32.0415   44.4642 C   0  0  0  0  0  0  0  0  0  0  0  0
   51.0427   30.8735   45.6173 C   0  0  0  0  0  0  0  0  0  0  0  0
   48.9780   32.0095   45.8565 C   0  0  0  0  0  0  0  0  0  0  0  0
   50.0693   31.3495   46.5030 C   0  0  0  0  0  0  0  0  0  0  0  0
   49.2463   33.8851   38.2501 C   0  0  0  0  0  0  0  0  0  0  0  0
   48.6706   34.9801   37.5164 O   0  0  0  0  0  0  0  0  0  0  0  0
   49.3792   35.5346   37.1541 H   0  0  0  0  0  0  0  0  0  0  0  0
   50.2056   33.1378   37.2587 C   0  0  0  0  0  0  0  0  0  0  0  0
   50.2687   31.7335   37.4467 N   0  0  0  0  0  0  0  0  0  0  0  0
   50.6499   28.9107   37.8344 N   0  0  0  0  0  0  0  0  0  0  0  0
   50.9180   33.7787   36.4279 O   0  0  0  0  0  0  0  0  0  0  0  0
   49.1519   30.9238   38.0068 C   0  0  0  0  0  0  0  0  0  0  0  0
   50.9661   30.9729   36.3961 C   0  0  0  0  0  0  0  0  0  0  0  0
   51.6431   29.7810   37.1153 C   0  0  0  0  0  0  0  0  0  0  0  0
   49.7703   29.7009   38.7501 C   0  0  0  0  0  0  0  0  0  0  0  0
   51.1572   28.2167   38.3833 H   0  0  0  0  0  0  0  0  0  0  0  0
 15 18  1  0  0  0
 15  1  1  0  0  0
 15 16  1  0  0  0
 18 19  1  0  0  0
 18 21  2  0  0  0
  1  4  1  0  0  0
  1  2  1  0  0  0
 19 22  1  0  0  0
 19 23  1  0  0  0
 20 24  1  0  0  0
 20 25  1  0  0  0
  4  5  2  0  0  0
  4  6  1  0  0  0
 10 11  1  0  0  0
 10 12  1  0  0  0
 11 13  2  0  0  0
 11  9  1  0  0  0
 22 25  1  0  0  0
 23 24  1  0  0  0
 12 14  2  0  0  0
 13 14  1  0  0  0
  6  8  1  0  0  0
  9  8  1  0  0  0
 20 26  1  0  0  0
  6  7  1  0  0  0
 16 17  1  0  0  0
  2  3  1  0  0  0
M  END
> <minimizedAffinity>
-6.89235

$$$$
3KMC_403_B_485


 26 27  0  0  0  0  0  0  0  0999 V2000
   50.1123   33.2815   38.5800 C   0  0  0  0  0  0  0  0  0  0  0  0
   49.1129   33.0049   37.6001 O   0  0  0  0  0  0  0  0  0  0  0  0
   48.5552   32.2722   37.9050 H   0  0  0  0  0  0  0  0  0  0  0  0
   49.5756   33.7896   39.9299 C   0  0  0  0  0  0  0  0  0  0  0  0
   50.2186   34.5787   40.6009 O   0  0  0  0  0  0  0  0  0  0  0  0
   48.3957   33.2144   40.3515 N   0  0  0  0  0  0  0  0  0  0  0  0
   47.7891   32.8516   39.6662 H   0  0  0  0  0  0  0  0  0  0  0  0
   47.9921   33.1100   41.7387 C   0  0  0  0  0  0  0  0  0  0  0  0
   48.2318   31.6854   42.1889 C   0  0  0  0  0  0  0  0  0  0  0  0
   50.5794   31.2603   43.7503 S   0  0  0  0  0  0  0  0  0  0  0  0
   48.8614   31.5841   43.5653 C   0  0  0  0  0  0  0  0  0  0  0  0
   50.4250   31.2720   45.5195 C   0  0  0  0  0  0  0  0  0  0  0  0
   48.2090   31.6982   44.7995 C   0  0  0  0  0  0  0  0  0  0  0  0
   49.1026   31.5240   45.9021 C   0  0  0  0  0  0  0  0  0  0  0  0
   50.9225   31.9932   38.7685 C   0  0  0  0  0  0  0  0  0  0  0  0
   51.2405   31.7404   40.1483 O   0  0  0  0  0  0  0  0  0  0  0  0
   50.4202   31.6657   40.6607 H   0  0  0  0  0  0  0  0  0  0  0  0
   49.9786   30.8283   38.3065 C   0  0  0  0  0  0  0  0  0  0  0  0
   50.4451   30.1044   37.1797 N   0  0  0  0  0  0  0  0  0  0  0  0
   51.1623   28.6761   34.7902 N   0  0  0  0  0  0  0  0  0  0  0  0
   48.8557   30.6346   38.8635 O   0  0  0  0  0  0  0  0  0  0  0  0
   51.8852   29.9515   36.8340 C   0  0  0  0  0  0  0  0  0  0  0  0
   49.7155   28.8652   36.8619 C   0  0  0  0  0  0  0  0  0  0  0  0
   49.7563   28.7336   35.3201 C   0  0  0  0  0  0  0  0  0  0  0  0
   51.9960   29.8149   35.2851 C   0  0  0  0  0  0  0  0  0  0  0  0
   51.1316   28.7093   33.7712 H   0  0  0  0  0  0  0  0  0  0  0  0
 15 18  1  0  0  0
 15  1  1  0  0  0
 15 16  1  0  0  0
 18 19  1  0  0  0
 18 21  2  0  0  0
  1  4  1  0  0  0
  1  2  1  0  0  0
 19 22  1  0  0  0
 19 23  1  0  0  0
 20 24  1  0  0  0
 20 25  1  0  0  0
  4  5  2  0  0  0
  4  6  1  0  0  0
 10 11  1  0  0  0
 10 12  1  0  0  0
 11 13  2  0  0  0
 11  9  1  0  0  0
 22 25  1  0  0  0
 23 24  1  0  0  0
 12 14  2  0  0  0
 13 14  1  0  0  0
  6  8  1  0  0  0
  9  8  1  0  0  0
 20 26  1  0  0  0
  6  7  1  0  0  0
 16 17  1  0  0  0
  2  3  1  0  0  0
M  END
> <minimizedAffinity>
-6.83382

$$$$
3KMC_403_B_485


 26 27  0  0  0  0  0  0  0  0999 V2000
   49.9689   34.9164   38.4030 C   0  0  0  0  0  0  0  0  0  0  0  0
   48.9367   34.7916   37.4260 O   0  0  0  0  0  0  0  0  0  0  0  0
   48.8938   33.8733   37.1165 H   0  0  0  0  0  0  0  0  0  0  0  0
   49.7352   34.1217   39.7000 C   0  0  0  0  0  0  0  0  0  0  0  0
   50.2455   34.4744   40.7495 O   0  0  0  0  0  0  0  0  0  0  0  0
   49.0119   32.9567   39.5575 N   0  0  0  0  0  0  0  0  0  0  0  0
   48.3848   32.8930   38.8012 H   0  0  0  0  0  0  0  0  0  0  0  0
   49.1160   31.8205   40.4498 C   0  0  0  0  0  0  0  0  0  0  0  0
   48.1074   32.0065   41.5624 C   0  0  0  0  0  0  0  0  0  0  0  0
   50.3930   31.4233   43.1643 S   0  0  0  0  0  0  0  0  0  0  0  0
   48.7027   31.8563   42.9496 C   0  0  0  0  0  0  0  0  0  0  0  0
   50.2055   31.4327   44.9303 C   0  0  0  0  0  0  0  0  0  0  0  0
   48.0351   32.0030   44.1722 C   0  0  0  0  0  0  0  0  0  0  0  0
   48.8945   31.7652   45.2899 C   0  0  0  0  0  0  0  0  0  0  0  0
   51.2769   34.4837   37.7296 C   0  0  0  0  0  0  0  0  0  0  0  0
   51.2276   33.1276   37.2529 O   0  0  0  0  0  0  0  0  0  0  0  0
   50.5063   33.0367   36.6107 H   0  0  0  0  0  0  0  0  0  0  0  0
   51.4235   35.3979   36.4631 C   0  0  0  0  0  0  0  0  0  0  0  0
   51.9264   36.6969   36.7297 N   0  0  0  0  0  0  0  0  0  0  0  0
   52.7469   39.4213   37.1404 N   0  0  0  0  0  0  0  0  0  0  0  0
   51.0316   35.0053   35.3225 O   0  0  0  0  0  0  0  0  0  0  0  0
   52.8281   37.0158   37.8707 C   0  0  0  0  0  0  0  0  0  0  0  0
   52.3001   37.4982   35.5519 C   0  0  0  0  0  0  0  0  0  0  0  0
   51.9883   38.9681   35.9238 C   0  0  0  0  0  0  0  0  0  0  0  0
   52.5609   38.4914   38.2968 C   0  0  0  0  0  0  0  0  0  0  0  0
   52.4167   40.3487   37.4074 H   0  0  0  0  0  0  0  0  0  0  0  0
 15 18  1  0  0  0
 15  1  1  0  0  0
 15 16  1  0  0  0
 18 19  1  0  0  0
 18 21  2  0  0  0
  1  4  1  0  0  0
  1  2  1  0  0  0
 19 22  1  0  0  0
 19 23  1  0  0  0
 20 24  1  0  0  0
 20 25  1  0  0  0
  4  5  2  0  0  0
  4  6  1  0  0  0
 10 11  1  0  0  0
 10 12  1  0  0  0
 11 13  2  0  0  0
 11  9  1  0  0  0
 22 25  1  0  0  0
 23 24  1  0  0  0
 12 14  2  0  0  0
 13 14  1  0  0  0
  6  8  1  0  0  0
  9  8  1  0  0  0
 20 26  1  0  0  0
  6  7  1  0  0  0
 16 17  1  0  0  0
  2  3  1  0  0  0
M  END
> <minimizedAffinity>
-6.69593

$$$$
3KMC_403_B_485


 26 27  0  0  0  0  0  0  0  0999 V2000
   48.7059   33.1964   38.8889 C   0  0  0  0  0  0  0  0  0  0  0  0
   48.7390   32.3832   37.7171 O   0  0  0  0  0  0  0  0  0  0  0  0
   49.4525   31.7308   37.7964 H   0  0  0  0  0  0  0  0  0  0  0  0
   48.3537   32.4501   40.1879 C   0  0  0  0  0  0  0  0  0  0  0  0
   47.7132   32.9975   41.0691 O   0  0  0  0  0  0  0  0  0  0  0  0
   48.8970   31.1891   40.3113 N   0  0  0  0  0  0  0  0  0  0  0  0
   49.1172   30.6992   39.4862 H   0  0  0  0  0  0  0  0  0  0  0  0
   49.1645   30.5392   41.5779 C   0  0  0  0  0  0  0  0  0  0  0  0
   50.3025   31.2762   42.2498 C   0  0  0  0  0  0  0  0  0  0  0  0
   48.7254   32.0376   44.5000 S   0  0  0  0  0  0  0  0  0  0  0  0
   50.1654   31.3539   43.7586 C   0  0  0  0  0  0  0  0  0  0  0  0
   49.3983   31.7799   46.1231 C   0  0  0  0  0  0  0  0  0  0  0  0
   51.1083   30.9472   44.7112 C   0  0  0  0  0  0  0  0  0  0  0  0
   50.6645   31.1884   46.0489 C   0  0  0  0  0  0  0  0  0  0  0  0
   50.0788   33.8696   39.0051 C   0  0  0  0  0  0  0  0  0  0  0  0
   50.6087   33.8113   40.3409 O   0  0  0  0  0  0  0  0  0  0  0  0
   50.6964   32.8847   40.6138 H   0  0  0  0  0  0  0  0  0  0  0  0
   51.0435   33.0217   38.1040 C   0  0  0  0  0  0  0  0  0  0  0  0
   51.4426   33.6623   36.9033 N   0  0  0  0  0  0  0  0  0  0  0  0
   52.1783   34.7507   34.3464 N   0  0  0  0  0  0  0  0  0  0  0  0
   51.3501   31.8303   38.4124 O   0  0  0  0  0  0  0  0  0  0  0  0
   51.5365   35.1400   36.7469 C   0  0  0  0  0  0  0  0  0  0  0  0
   52.5245   33.0054   36.1506 C   0  0  0  0  0  0  0  0  0  0  0  0
   52.2279   33.2802   34.6564 C   0  0  0  0  0  0  0  0  0  0  0  0
   51.2446   35.4850   35.2549 C   0  0  0  0  0  0  0  0  0  0  0  0
   51.8651   34.8736   33.3835 H   0  0  0  0  0  0  0  0  0  0  0  0
 15 18  1  0  0  0
 15  1  1  0  0  0
 15 16  1  0  0  0
 18 19  1  0  0  0
 18 21  2  0  0  0
  1  4  1  0  0  0
  1  2  1  0  0  0
 19 22  1  0  0  0
 19 23  1  0  0  0
 20 24  1  0  0  0
 20 25  1  0  0  0
  4  5  2  0  0  0
  4  6  1  0  0  0
 10 11  1  0  0  0
 10 12  1  0  0  0
 11 13  2  0  0  0
 11  9  1  0  0  0
 22 25  1  0  0  0
 23 24  1  0  0  0
 12 14  2  0  0  0
 13 14  1  0  0  0
  6  8  1  0  0  0
  9  8  1  0  0  0
 20 26  1  0  0  0
  6  7  1  0  0  0
 16 17  1  0  0  0
  2  3  1  0  0  0
M  END
> <minimizedAffinity>
-6.64932

$$$$
3KMC_403_B_485


 26 27  0  0  0  0  0  0  0  0999 V2000
   48.4986   30.2735   41.1558 C   0  0  0  0  0  0  0  0  0  0  0  0
   47.0867   30.1617   41.3275 O   0  0  0  0  0  0  0  0  0  0  0  0
   46.6364   30.5280   40.5504 H   0  0  0  0  0  0  0  0  0  0  0  0
   49.0791   29.4475   39.9943 C   0  0  0  0  0  0  0  0  0  0  0  0
   49.7547   28.4557   40.2094 O   0  0  0  0  0  0  0  0  0  0  0  0
   48.8671   29.9672   38.7351 N   0  0  0  0  0  0  0  0  0  0  0  0
   48.0865   30.5526   38.6034 H   0  0  0  0  0  0  0  0  0  0  0  0
   49.7199   29.7067   37.5936 C   0  0  0  0  0  0  0  0  0  0  0  0
   50.8974   30.6544   37.6644 C   0  0  0  0  0  0  0  0  0  0  0  0
   49.4090   32.6265   36.2412 S   0  0  0  0  0  0  0  0  0  0  0  0
   50.5097   32.1130   37.5123 C   0  0  0  0  0  0  0  0  0  0  0  0
   49.5557   34.3208   36.7528 C   0  0  0  0  0  0  0  0  0  0  0  0
   50.9601   33.1888   38.2880 C   0  0  0  0  0  0  0  0  0  0  0  0
   50.4119   34.4360   37.8538 C   0  0  0  0  0  0  0  0  0  0  0  0
   48.8100   31.7636   40.9706 C   0  0  0  0  0  0  0  0  0  0  0  0
   47.9990   32.3723   39.9505 O   0  0  0  0  0  0  0  0  0  0  0  0
   47.0622   32.2806   40.1847 H   0  0  0  0  0  0  0  0  0  0  0  0
   48.4147   32.4500   42.3249 C   0  0  0  0  0  0  0  0  0  0  0  0
   49.2350   32.0953   43.4261 N   0  0  0  0  0  0  0  0  0  0  0  0
   50.6842   31.3214   45.7851 N   0  0  0  0  0  0  0  0  0  0  0  0
   47.3863   33.1874   42.4102 O   0  0  0  0  0  0  0  0  0  0  0  0
   50.6600   31.6838   43.2963 C   0  0  0  0  0  0  0  0  0  0  0  0
   49.0490   32.8906   44.6515 C   0  0  0  0  0  0  0  0  0  0  0  0
   49.3053   31.9194   45.8293 C   0  0  0  0  0  0  0  0  0  0  0  0
   50.9835   30.6974   44.4593 C   0  0  0  0  0  0  0  0  0  0  0  0
   50.7562   30.6065   46.5090 H   0  0  0  0  0  0  0  0  0  0  0  0
 15 18  1  0  0  0
 15  1  1  0  0  0
 15 16  1  0  0  0
 18 19  1  0  0  0
 18 21  2  0  0  0
  1  4  1  0  0  0
  1  2  1  0  0  0
 19 22  1  0  0  0
 19 23  1  0  0  0
 20 24  1  0  0  0
 20 25  1  0  0  0
  4  5  2  0  0  0
  4  6  1  0  0  0
 10 11  1  0  0  0
 10 12  1  0  0  0
 11 13  2  0  0  0
 11  9  1  0  0  0
 22 25  1  0  0  0
 23 24  1  0  0  0
 12 14  2  0  0  0
 13 14  1  0  0  0
  6  8  1  0  0  0
  9  8  1  0  0  0
 20 26  1  0  0  0
  6  7  1  0  0  0
 16 17  1  0  0  0
  2  3  1  0  0  0
M  END
> <minimizedAffinity>
-6.50087

$$$$
3KMC_403_B_485


 26 27  0  0  0  0  0  0  0  0999 V2000
   50.1052   33.5286   39.1060 C   0  0  0  0  0  0  0  0  0  0  0  0
   49.3856   34.0877   40.2037 O   0  0  0  0  0  0  0  0  0  0  0  0
   48.4803   34.2958   39.9245 H   0  0  0  0  0  0  0  0  0  0  0  0
   49.5748   32.1741   38.6039 C   0  0  0  0  0  0  0  0  0  0  0  0
   48.6678   32.1206   37.7908 O   0  0  0  0  0  0  0  0  0  0  0  0
   50.1210   31.0633   39.2109 N   0  0  0  0  0  0  0  0  0  0  0  0
   51.0230   31.1456   39.5968 H   0  0  0  0  0  0  0  0  0  0  0  0
   49.4521   29.7829   39.3167 C   0  0  0  0  0  0  0  0  0  0  0  0
   49.4871   29.3562   40.7681 C   0  0  0  0  0  0  0  0  0  0  0  0
   50.5669   31.1801   42.6754 S   0  0  0  0  0  0  0  0  0  0  0  0
   49.2453   30.4961   41.7394 C   0  0  0  0  0  0  0  0  0  0  0  0
   49.4566   32.3075   43.4816 C   0  0  0  0  0  0  0  0  0  0  0  0
   48.0191   31.1071   42.0313 C   0  0  0  0  0  0  0  0  0  0  0  0
   48.1479   32.1353   43.0166 C   0  0  0  0  0  0  0  0  0  0  0  0
   50.0847   34.5702   37.9807 C   0  0  0  0  0  0  0  0  0  0  0  0
   48.7770   35.1331   37.7761 O   0  0  0  0  0  0  0  0  0  0  0  0
   48.4764   35.5584   38.5944 H   0  0  0  0  0  0  0  0  0  0  0  0
   51.0042   35.7425   38.4723 C   0  0  0  0  0  0  0  0  0  0  0  0
   52.1160   36.0101   37.6335 N   0  0  0  0  0  0  0  0  0  0  0  0
   54.5156   36.5374   36.1410 N   0  0  0  0  0  0  0  0  0  0  0  0
   50.7903   36.3229   39.5796 O   0  0  0  0  0  0  0  0  0  0  0  0
   52.1296   35.7423   36.1689 C   0  0  0  0  0  0  0  0  0  0  0  0
   52.8638   37.2442   37.9278 C   0  0  0  0  0  0  0  0  0  0  0  0
   54.3406   36.9374   37.5798 C   0  0  0  0  0  0  0  0  0  0  0  0
   53.5974   35.4228   35.7523 C   0  0  0  0  0  0  0  0  0  0  0  0
   55.4792   36.2348   35.9985 H   0  0  0  0  0  0  0  0  0  0  0  0
 15 18  1  0  0  0
 15  1  1  0  0  0
 15 16  1  0  0  0
 18 19  1  0  0  0
 18 21  2  0  0  0
  1  4  1  0  0  0
  1  2  1  0  0  0
 19 22  1  0  0  0
 19 23  1  0  0  0
 20 24  1  0  0  0
 20 25  1  0  0  0
  4  5  2  0  0  0
  4  6  1  0  0  0
 10 11  1  0  0  0
 10 12  1  0  0  0
 11 13  2  0  0  0
 11  9  1  0  0  0
 22 25  1  0  0  0
 23 24  1  0  0  0
 12 14  2  0  0  0
 13 14  1  0  0  0
  6  8  1  0  0  0
  9  8  1  0  0  0
 20 26  1  0  0  0
  6  7  1  0  0  0
 16 17  1  0  0  0
  2  3  1  0  0  0
M  END
> <minimizedAffinity>
-6.48336

$$$$
3KMC_403_B_485


 26 27  0  0  0  0  0  0  0  0999 V2000
   49.7506   32.5259   41.5674 C   0  0  0  0  0  0  0  0  0  0  0  0
   49.0674   33.2348   42.6000 O   0  0  0  0  0  0  0  0  0  0  0  0
   48.1252   33.0049   42.5812 H   0  0  0  0  0  0  0  0  0  0  0  0
   49.7615   30.9954   41.7277 C   0  0  0  0  0  0  0  0  0  0  0  0
   50.6254   30.4422   42.3864 O   0  0  0  0  0  0  0  0  0  0  0  0
   48.8063   30.3178   41.0002 N   0  0  0  0  0  0  0  0  0  0  0  0
   47.9812   30.7990   40.7616 H   0  0  0  0  0  0  0  0  0  0  0  0
   48.9397   28.9428   40.5646 C   0  0  0  0  0  0  0  0  0  0  0  0
   48.7911   28.9134   39.0591 C   0  0  0  0  0  0  0  0  0  0  0  0
   50.7953   29.2428   37.0579 S   0  0  0  0  0  0  0  0  0  0  0  0
   50.0011   28.3438   38.3430 C   0  0  0  0  0  0  0  0  0  0  0  0
   51.9562   27.9226   36.8065 C   0  0  0  0  0  0  0  0  0  0  0  0
   50.6016   27.0982   38.5660 C   0  0  0  0  0  0  0  0  0  0  0  0
   51.7113   26.8686   37.6940 C   0  0  0  0  0  0  0  0  0  0  0  0
   49.0958   32.9278   40.2403 C   0  0  0  0  0  0  0  0  0  0  0  0
   47.7340   33.3594   40.4074 O   0  0  0  0  0  0  0  0  0  0  0  0
   47.7076   34.1217   41.0067 H   0  0  0  0  0  0  0  0  0  0  0  0
   49.9008   34.1748   39.7317 C   0  0  0  0  0  0  0  0  0  0  0  0
   50.2261   34.1427   38.3517 N   0  0  0  0  0  0  0  0  0  0  0  0
   51.1264   34.1249   35.6217 N   0  0  0  0  0  0  0  0  0  0  0  0
   50.2884   35.0766   40.5349 O   0  0  0  0  0  0  0  0  0  0  0  0
   49.4135   33.4304   37.3275 C   0  0  0  0  0  0  0  0  0  0  0  0
   50.7682   35.3904   37.7876 C   0  0  0  0  0  0  0  0  0  0  0  0
   51.7737   34.9582   36.6930 C   0  0  0  0  0  0  0  0  0  0  0  0
   50.3734   32.9649   36.1908 C   0  0  0  0  0  0  0  0  0  0  0  0
   51.8510   33.7720   34.9965 H   0  0  0  0  0  0  0  0  0  0  0  0
 15 18  1  0  0  0
 15  1  1  0  0  0
 15 16  1  0  0  0
 18 19  1  0  0  0
 18 21  2  0  0  0
  1  4  1  0  0  0
  1  2  1  0  0  0
 19 22  1  0  0  0
 19 23  1  0  0  0
 20 24  1  0  0  0
 20 25  1  0  0  0
  4  5  2  0  0  0
  4  6  1  0  0  0
 10 11  1  0  0  0
 10 12  1  0  0  0
 11 13  2  0  0  0
 11  9  1  0  0  0
 22 25  1  0  0  0
 23 24  1  0  0  0
 12 14  2  0  0  0
 13 14  1  0  0  0
  6  8  1  0  0  0
  9  8  1  0  0  0
 20 26  1  0  0  0
  6  7  1  0  0  0
 16 17  1  0  0  0
  2  3  1  0  0  0
M  END
> <minimizedAffinity>
-6.37660

$$$$
3KMC_403_B_485


 26 27  0  0  0  0  0  0  0  0999 V2000
   48.4780   29.7493   38.7279 C   0  0  0  0  0  0  0  0  0  0  0  0
   47.8354   28.5835   38.2145 O   0  0  0  0  0  0  0  0  0  0  0  0
   48.4201   27.8173   38.3237 H   0  0  0  0  0  0  0  0  0  0  0  0
   48.7469   29.7288   40.2430 C   0  0  0  0  0  0  0  0  0  0  0  0
   48.9393   28.6773   40.8293 O   0  0  0  0  0  0  0  0  0  0  0  0
   48.6490   30.9488   40.8775 N   0  0  0  0  0  0  0  0  0  0  0  0
   48.8072   31.7603   40.3432 H   0  0  0  0  0  0  0  0  0  0  0  0
   48.3281   31.1122   42.2805 C   0  0  0  0  0  0  0  0  0  0  0  0
   49.5530   31.6616   42.9788 C   0  0  0  0  0  0  0  0  0  0  0  0
   51.0566   31.1141   45.3388 S   0  0  0  0  0  0  0  0  0  0  0  0
   49.5553   31.4185   44.4762 C   0  0  0  0  0  0  0  0  0  0  0  0
   50.1769   30.9211   46.8694 C   0  0  0  0  0  0  0  0  0  0  0  0
   48.4409   31.3769   45.3237 C   0  0  0  0  0  0  0  0  0  0  0  0
   48.8018   31.0985   46.6789 C   0  0  0  0  0  0  0  0  0  0  0  0
   49.7866   29.9193   37.9468 C   0  0  0  0  0  0  0  0  0  0  0  0
   49.9968   28.8663   36.9899 O   0  0  0  0  0  0  0  0  0  0  0  0
   49.2610   28.8521   36.3580 H   0  0  0  0  0  0  0  0  0  0  0  0
   49.6191   31.2445   37.1237 C   0  0  0  0  0  0  0  0  0  0  0  0
   50.0392   32.4165   37.8030 N   0  0  0  0  0  0  0  0  0  0  0  0
   50.6643   34.8928   39.1224 N   0  0  0  0  0  0  0  0  0  0  0  0
   49.0676   31.2413   35.9816 O   0  0  0  0  0  0  0  0  0  0  0  0
   51.0970   32.4301   38.8506 C   0  0  0  0  0  0  0  0  0  0  0  0
   50.1204   33.6403   36.9879 C   0  0  0  0  0  0  0  0  0  0  0  0
   49.7455   34.8055   37.9353 C   0  0  0  0  0  0  0  0  0  0  0  0
   50.7750   33.5875   39.8440 C   0  0  0  0  0  0  0  0  0  0  0  0
   50.3029   35.5956   39.7673 H   0  0  0  0  0  0  0  0  0  0  0  0
 15 18  1  0  0  0
 15  1  1  0  0  0
 15 16  1  0  0  0
 18 19  1  0  0  0
 18 21  2  0  0  0
  1  4  1  0  0  0
  1  2  1  0  0  0
 19 22  1  0  0  0
 19 23  1  0  0  0
 20 24  1  0  0  0
 20 25  1  0  0  0
  4  5  2  0  0  0
  4  6  1  0  0  0
 10 11  1  0  0  0
 10 12  1  0  0  0
 11 13  2  0  0  0
 11  9  1  0  0  0
 22 25  1  0  0  0
 23 24  1  0  0  0
 12 14  2  0  0  0
 13 14  1  0  0  0
  6  8  1  0  0  0
  9  8  1  0  0  0
 20 26  1  0  0  0
  6  7  1  0  0  0
 16 17  1  0  0  0
  2  3  1  0  0  0
M  END
> <minimizedAffinity>
-6.34873

$$$$
