4IVD_15T_A_1201


 27 30  0  0  0  0  0  0  0  0999 V2000
    8.6773   57.6325   -0.4732 C   0  0  0  0  0  0  0  0  0  0  0  0
    7.5304   57.2812    0.1768 N   0  0  0  0  0  0  0  0  0  0  0  0
    6.7458   58.4277    0.2584 C   0  0  0  0  0  0  0  0  0  0  0  0
    7.4934   59.4363   -0.3799 C   0  0  0  0  0  0  0  0  0  0  0  0
    8.6487   58.8772   -0.7925 N   0  0  0  0  0  0  0  0  0  0  0  0
    6.9855   60.7322   -0.4831 C   0  0  0  0  0  0  0  0  0  0  0  0
    5.8070   61.0498    0.0019 N   0  0  0  0  0  0  0  0  0  0  0  0
    5.0421   60.1459    0.6084 C   0  0  0  0  0  0  0  0  0  0  0  0
    5.4784   58.8080    0.7645 C   0  0  0  0  0  0  0  0  0  0  0  0
    4.3929   58.1253    1.4557 C   0  0  0  0  0  0  0  0  0  0  0  0
    3.4121   59.0216    1.6618 C   0  0  0  0  0  0  0  0  0  0  0  0
    3.8056   60.2406    1.1646 N   0  0  0  0  0  0  0  0  0  0  0  0
    3.2687   61.0648    1.2055 H   0  0  0  0  0  0  0  0  0  0  0  0
    7.2652   55.9166    0.6775 C   0  0  0  0  0  0  0  0  0  0  0  0
    6.9592   55.9486    2.1827 C   0  0  0  0  0  0  0  0  0  0  0  0
    6.7313   54.5149    2.6984 C   0  0  0  0  0  0  0  0  0  0  0  0
    5.6353   53.7745    1.9047 C   0  0  0  0  0  0  0  0  0  0  0  0
    5.9480   53.7879    0.3967 C   0  0  0  0  0  0  0  0  0  0  0  0
    6.1321   55.2274   -0.1022 C   0  0  0  0  0  0  0  0  0  0  0  0
    5.5888   52.3372    2.4594 C   0  0  0  0  0  0  0  0  0  0  0  0
    4.8101   51.3532    1.5721 C   0  0  0  0  0  0  0  0  0  0  0  0
    3.7239   50.7126    2.3285 C   0  0  0  0  0  0  0  0  0  0  0  0
    2.9120   50.2715    2.9960 N   0  0  0  0  0  0  0  0  0  0  0  0
   10.6663   57.2667   -1.9286 C   0  0  0  0  0  0  0  0  0  0  0  0
    9.8304   56.7101   -0.7746 C   0  0  0  0  0  0  0  0  0  0  0  0
   10.5966   56.5552    0.4398 O   0  0  0  0  0  0  0  0  0  0  0  0
   10.9138   57.4230    0.7348 H   0  0  0  0  0  0  0  0  0  0  0  0
 24 25  1  0  0  0
  5  1  2  0  0  0
  5  4  1  0  0  0
 25  1  1  0  0  0
 25 26  1  0  0  0
  6  4  1  0  0  0
  6  7  2  0  0  0
  1  2  1  0  0  0
  4  3  2  0  0  0
 19 18  1  0  0  0
 19 14  1  0  0  0
  7  8  1  0  0  0
 23 22  3  0  0  0
  2  3  1  0  0  0
  2 14  1  0  0  0
  3  9  1  0  0  0
 18 17  1  0  0  0
  8  9  2  0  0  0
  8 12  1  0  0  0
 14 15  1  0  0  0
  9 10  1  0  0  0
 12 11  1  0  0  0
 22 21  1  0  0  0
 10 11  2  0  0  0
 17 20  1  0  0  0
 17 16  1  0  0  0
 15 16  1  0  0  0
 21 20  1  0  0  0
 26 27  1  0  0  0
 12 13  1  0  0  0
M  END
> <minimizedAffinity>
-9.32111

$$$$
4IVD_15T_A_1201


 27 30  0  0  0  0  0  0  0  0999 V2000
    9.7294   55.2251    0.4454 C   0  0  0  0  0  0  0  0  0  0  0  0
    8.3743   55.3433    0.5503 N   0  0  0  0  0  0  0  0  0  0  0  0
    8.0606   56.6661    0.2530 C   0  0  0  0  0  0  0  0  0  0  0  0
    9.2930   57.2855   -0.0324 C   0  0  0  0  0  0  0  0  0  0  0  0
   10.2529   56.3493    0.1078 N   0  0  0  0  0  0  0  0  0  0  0  0
    9.3391   58.6359   -0.3822 C   0  0  0  0  0  0  0  0  0  0  0  0
    8.2489   59.3640   -0.4597 N   0  0  0  0  0  0  0  0  0  0  0  0
    7.0498   58.8428   -0.2136 C   0  0  0  0  0  0  0  0  0  0  0  0
    6.9073   57.4830    0.1546 C   0  0  0  0  0  0  0  0  0  0  0  0
    5.4761   57.2785    0.3329 C   0  0  0  0  0  0  0  0  0  0  0  0
    4.8610   58.4451    0.0713 C   0  0  0  0  0  0  0  0  0  0  0  0
    5.8065   59.3906   -0.2450 N   0  0  0  0  0  0  0  0  0  0  0  0
    5.6111   60.3306   -0.4631 H   0  0  0  0  0  0  0  0  0  0  0  0
    7.4877   54.2236    0.9291 C   0  0  0  0  0  0  0  0  0  0  0  0
    6.8561   54.4829    2.3054 C   0  0  0  0  0  0  0  0  0  0  0  0
    5.9721   53.2865    2.7065 C   0  0  0  0  0  0  0  0  0  0  0  0
    4.9084   52.9604    1.6382 C   0  0  0  0  0  0  0  0  0  0  0  0
    5.5643   52.7401    0.2621 C   0  0  0  0  0  0  0  0  0  0  0  0
    6.4073   53.9598   -0.1339 C   0  0  0  0  0  0  0  0  0  0  0  0
    4.1747   51.6947    2.1234 C   0  0  0  0  0  0  0  0  0  0  0  0
    3.2672   51.0560    1.0603 C   0  0  0  0  0  0  0  0  0  0  0  0
    2.8504   49.7065    1.4696 C   0  0  0  0  0  0  0  0  0  0  0  0
    2.6115   48.6251    1.7395 N   0  0  0  0  0  0  0  0  0  0  0  0
   11.2583   53.5434   -0.5757 C   0  0  0  0  0  0  0  0  0  0  0  0
   10.5205   53.9670    0.6957 C   0  0  0  0  0  0  0  0  0  0  0  0
   11.4184   54.2258    1.7968 O   0  0  0  0  0  0  0  0  0  0  0  0
   12.0040   54.9651    1.5696 H   0  0  0  0  0  0  0  0  0  0  0  0
 24 25  1  0  0  0
  5  1  2  0  0  0
  5  4  1  0  0  0
 25  1  1  0  0  0
 25 26  1  0  0  0
  6  4  1  0  0  0
  6  7  2  0  0  0
  1  2  1  0  0  0
  4  3  2  0  0  0
 19 18  1  0  0  0
 19 14  1  0  0  0
  7  8  1  0  0  0
 23 22  3  0  0  0
  2  3  1  0  0  0
  2 14  1  0  0  0
  3  9  1  0  0  0
 18 17  1  0  0  0
  8  9  2  0  0  0
  8 12  1  0  0  0
 14 15  1  0  0  0
  9 10  1  0  0  0
 12 11  1  0  0  0
 22 21  1  0  0  0
 10 11  2  0  0  0
 17 20  1  0  0  0
 17 16  1  0  0  0
 15 16  1  0  0  0
 21 20  1  0  0  0
 26 27  1  0  0  0
 12 13  1  0  0  0
M  END
> <minimizedAffinity>
-8.57120

$$$$
4IVD_15T_A_1201


 27 30  0  0  0  0  0  0  0  0999 V2000
    5.3840   58.4005    0.8635 C   0  0  0  0  0  0  0  0  0  0  0  0
    6.3363   57.4448    0.6604 N   0  0  0  0  0  0  0  0  0  0  0  0
    7.3275   58.0239   -0.1262 C   0  0  0  0  0  0  0  0  0  0  0  0
    6.8991   59.3468   -0.3501 C   0  0  0  0  0  0  0  0  0  0  0  0
    5.7158   59.4957    0.2785 N   0  0  0  0  0  0  0  0  0  0  0  0
    7.6780   60.2212   -1.1097 C   0  0  0  0  0  0  0  0  0  0  0  0
    8.8234   59.8458   -1.6313 N   0  0  0  0  0  0  0  0  0  0  0  0
    9.2947   58.6147   -1.4523 C   0  0  0  0  0  0  0  0  0  0  0  0
    8.5695   57.6581   -0.7013 C   0  0  0  0  0  0  0  0  0  0  0  0
    9.3870   56.4525   -0.7182 C   0  0  0  0  0  0  0  0  0  0  0  0
   10.4992   56.7229   -1.4236 C   0  0  0  0  0  0  0  0  0  0  0  0
   10.4399   58.0187   -1.8770 N   0  0  0  0  0  0  0  0  0  0  0  0
   11.1286   58.4532   -2.4303 H   0  0  0  0  0  0  0  0  0  0  0  0
    6.2401   56.0735    1.2021 C   0  0  0  0  0  0  0  0  0  0  0  0
    6.2063   55.0475    0.0591 C   0  0  0  0  0  0  0  0  0  0  0  0
    6.0589   53.6274    0.6381 C   0  0  0  0  0  0  0  0  0  0  0  0
    7.1556   53.3000    1.6722 C   0  0  0  0  0  0  0  0  0  0  0  0
    7.1915   54.3622    2.7869 C   0  0  0  0  0  0  0  0  0  0  0  0
    7.3783   55.7635    2.1896 C   0  0  0  0  0  0  0  0  0  0  0  0
    6.8250   51.9031    2.2333 C   0  0  0  0  0  0  0  0  0  0  0  0
    5.3228   51.6580    2.4458 C   0  0  0  0  0  0  0  0  0  0  0  0
    5.0950   50.7580    3.5862 C   0  0  0  0  0  0  0  0  0  0  0  0
    4.9394   50.1402    4.5314 N   0  0  0  0  0  0  0  0  0  0  0  0
    3.4024   59.5584    1.8334 C   0  0  0  0  0  0  0  0  0  0  0  0
    4.1117   58.2155    1.6499 C   0  0  0  0  0  0  0  0  0  0  0  0
    3.2984   57.2512    0.9468 O   0  0  0  0  0  0  0  0  0  0  0  0
    3.1101   57.5775    0.0530 H   0  0  0  0  0  0  0  0  0  0  0  0
 24 25  1  0  0  0
  5  1  2  0  0  0
  5  4  1  0  0  0
 25  1  1  0  0  0
 25 26  1  0  0  0
  6  4  1  0  0  0
  6  7  2  0  0  0
  1  2  1  0  0  0
  4  3  2  0  0  0
 19 18  1  0  0  0
 19 14  1  0  0  0
  7  8  1  0  0  0
 23 22  3  0  0  0
  2  3  1  0  0  0
  2 14  1  0  0  0
  3  9  1  0  0  0
 18 17  1  0  0  0
  8  9  2  0  0  0
  8 12  1  0  0  0
 14 15  1  0  0  0
  9 10  1  0  0  0
 12 11  1  0  0  0
 22 21  1  0  0  0
 10 11  2  0  0  0
 17 20  1  0  0  0
 17 16  1  0  0  0
 15 16  1  0  0  0
 21 20  1  0  0  0
 26 27  1  0  0  0
 12 13  1  0  0  0
M  END
> <minimizedAffinity>
-8.21288

$$$$
4IVD_15T_A_1201


 27 30  0  0  0  0  0  0  0  0999 V2000
    9.6320   52.8074    1.5296 C   0  0  0  0  0  0  0  0  0  0  0  0
    8.2933   53.0533    1.6233 N   0  0  0  0  0  0  0  0  0  0  0  0
    7.6885   51.8563    1.9952 C   0  0  0  0  0  0  0  0  0  0  0  0
    8.7419   50.9292    2.1159 C   0  0  0  0  0  0  0  0  0  0  0  0
    9.8838   51.5801    1.8162 N   0  0  0  0  0  0  0  0  0  0  0  0
    8.4807   49.6098    2.4887 C   0  0  0  0  0  0  0  0  0  0  0  0
    7.2602   49.1947    2.7399 N   0  0  0  0  0  0  0  0  0  0  0  0
    6.2185   50.0179    2.6558 C   0  0  0  0  0  0  0  0  0  0  0  0
    6.3876   51.3721    2.2784 C   0  0  0  0  0  0  0  0  0  0  0  0
    5.0508   51.9502    2.3025 C   0  0  0  0  0  0  0  0  0  0  0  0
    4.1946   50.9842    2.6784 C   0  0  0  0  0  0  0  0  0  0  0  0
    4.8929   49.8178    2.8789 N   0  0  0  0  0  0  0  0  0  0  0  0
    4.4904   48.9600    3.1461 H   0  0  0  0  0  0  0  0  0  0  0  0
    7.6880   54.3728    1.3482 C   0  0  0  0  0  0  0  0  0  0  0  0
    6.7576   54.2911    0.1283 C   0  0  0  0  0  0  0  0  0  0  0  0
    6.1713   55.6834   -0.1737 C   0  0  0  0  0  0  0  0  0  0  0  0
    5.4617   56.2979    1.0503 C   0  0  0  0  0  0  0  0  0  0  0  0
    6.4043   56.3354    2.2678 C   0  0  0  0  0  0  0  0  0  0  0  0
    6.9448   54.9320    2.5736 C   0  0  0  0  0  0  0  0  0  0  0  0
    5.0197   57.7147    0.6342 C   0  0  0  0  0  0  0  0  0  0  0  0
    6.0736   58.4804   -0.1812 C   0  0  0  0  0  0  0  0  0  0  0  0
    5.9508   59.9299    0.0339 C   0  0  0  0  0  0  0  0  0  0  0  0
    5.9582   61.0584    0.1943 N   0  0  0  0  0  0  0  0  0  0  0  0
   12.0702   53.3203    1.5466 C   0  0  0  0  0  0  0  0  0  0  0  0
   10.6818   53.8151    1.1372 C   0  0  0  0  0  0  0  0  0  0  0  0
   10.5692   54.0335   -0.2859 O   0  0  0  0  0  0  0  0  0  0  0  0
   10.7015   53.1939   -0.7534 H   0  0  0  0  0  0  0  0  0  0  0  0
 24 25  1  0  0  0
  5  1  2  0  0  0
  5  4  1  0  0  0
 25  1  1  0  0  0
 25 26  1  0  0  0
  6  4  1  0  0  0
  6  7  2  0  0  0
  1  2  1  0  0  0
  4  3  2  0  0  0
 19 18  1  0  0  0
 19 14  1  0  0  0
  7  8  1  0  0  0
 23 22  3  0  0  0
  2  3  1  0  0  0
  2 14  1  0  0  0
  3  9  1  0  0  0
 18 17  1  0  0  0
  8  9  2  0  0  0
  8 12  1  0  0  0
 14 15  1  0  0  0
  9 10  1  0  0  0
 12 11  1  0  0  0
 22 21  1  0  0  0
 10 11  2  0  0  0
 17 20  1  0  0  0
 17 16  1  0  0  0
 15 16  1  0  0  0
 21 20  1  0  0  0
 26 27  1  0  0  0
 12 13  1  0  0  0
M  END
> <minimizedAffinity>
-8.18915

$$$$
4IVD_15T_A_1201


 27 30  0  0  0  0  0  0  0  0999 V2000
    5.6446   51.4100    1.8355 C   0  0  0  0  0  0  0  0  0  0  0  0
    6.4623   52.4858    1.6477 N   0  0  0  0  0  0  0  0  0  0  0  0
    7.7686   52.0063    1.6586 C   0  0  0  0  0  0  0  0  0  0  0  0
    7.6528   50.6158    1.8510 C   0  0  0  0  0  0  0  0  0  0  0  0
    6.3382   50.3341    1.9510 N   0  0  0  0  0  0  0  0  0  0  0  0
    8.7939   49.8140    1.9050 C   0  0  0  0  0  0  0  0  0  0  0  0
    9.9982   50.3219    1.7760 N   0  0  0  0  0  0  0  0  0  0  0  0
   10.1823   51.6250    1.5816 C   0  0  0  0  0  0  0  0  0  0  0  0
    9.0833   52.5155    1.5195 C   0  0  0  0  0  0  0  0  0  0  0  0
    9.6645   53.8321    1.2940 C   0  0  0  0  0  0  0  0  0  0  0  0
   10.9989   53.6832    1.2248 C   0  0  0  0  0  0  0  0  0  0  0  0
   11.3136   52.3586    1.4103 N   0  0  0  0  0  0  0  0  0  0  0  0
   12.2277   51.9932    1.4181 H   0  0  0  0  0  0  0  0  0  0  0  0
    5.9637   53.8674    1.4866 C   0  0  0  0  0  0  0  0  0  0  0  0
    6.3676   54.7265    2.6946 C   0  0  0  0  0  0  0  0  0  0  0  0
    5.8011   56.1501    2.5339 C   0  0  0  0  0  0  0  0  0  0  0  0
    6.2214   56.8004    1.1999 C   0  0  0  0  0  0  0  0  0  0  0  0
    5.8371   55.9031    0.0085 C   0  0  0  0  0  0  0  0  0  0  0  0
    6.4445   54.5032    0.1708 C   0  0  0  0  0  0  0  0  0  0  0  0
    5.5067   58.1644    1.1336 C   0  0  0  0  0  0  0  0  0  0  0  0
    5.5200   58.8062   -0.2627 C   0  0  0  0  0  0  0  0  0  0  0  0
    6.1663   60.1266   -0.2262 C   0  0  0  0  0  0  0  0  0  0  0  0
    6.6547   61.1482   -0.0959 N   0  0  0  0  0  0  0  0  0  0  0  0
    3.5281   50.8946    0.6260 C   0  0  0  0  0  0  0  0  0  0  0  0
    4.1400   51.4564    1.9105 C   0  0  0  0  0  0  0  0  0  0  0  0
    3.7370   50.7184    3.0847 O   0  0  0  0  0  0  0  0  0  0  0  0
    4.0535   49.8041    3.0164 H   0  0  0  0  0  0  0  0  0  0  0  0
 24 25  1  0  0  0
  5  1  2  0  0  0
  5  4  1  0  0  0
 25  1  1  0  0  0
 25 26  1  0  0  0
  6  4  1  0  0  0
  6  7  2  0  0  0
  1  2  1  0  0  0
  4  3  2  0  0  0
 19 18  1  0  0  0
 19 14  1  0  0  0
  7  8  1  0  0  0
 23 22  3  0  0  0
  2  3  1  0  0  0
  2 14  1  0  0  0
  3  9  1  0  0  0
 18 17  1  0  0  0
  8  9  2  0  0  0
  8 12  1  0  0  0
 14 15  1  0  0  0
  9 10  1  0  0  0
 12 11  1  0  0  0
 22 21  1  0  0  0
 10 11  2  0  0  0
 17 20  1  0  0  0
 17 16  1  0  0  0
 15 16  1  0  0  0
 21 20  1  0  0  0
 26 27  1  0  0  0
 12 13  1  0  0  0
M  END
> <minimizedAffinity>
-8.14025

$$$$
4IVD_15T_A_1201


 27 30  0  0  0  0  0  0  0  0999 V2000
    9.4937   55.1234    0.2633 C   0  0  0  0  0  0  0  0  0  0  0  0
    8.1677   54.9772    0.5493 N   0  0  0  0  0  0  0  0  0  0  0  0
    7.9281   53.6112    0.6643 C   0  0  0  0  0  0  0  0  0  0  0  0
    9.1747   52.9949    0.4407 C   0  0  0  0  0  0  0  0  0  0  0  0
   10.0688   53.9756    0.2033 N   0  0  0  0  0  0  0  0  0  0  0  0
    9.2934   51.6051    0.4914 C   0  0  0  0  0  0  0  0  0  0  0  0
    8.2609   50.8356    0.7497 N   0  0  0  0  0  0  0  0  0  0  0  0
    7.0557   51.3494    0.9810 C   0  0  0  0  0  0  0  0  0  0  0  0
    6.8399   52.7482    0.9439 C   0  0  0  0  0  0  0  0  0  0  0  0
    5.4266   52.9298    1.2467 C   0  0  0  0  0  0  0  0  0  0  0  0
    4.8926   51.7126    1.4492 C   0  0  0  0  0  0  0  0  0  0  0  0
    5.8676   50.7598    1.2772 N   0  0  0  0  0  0  0  0  0  0  0  0
    5.7257   49.7888    1.3572 H   0  0  0  0  0  0  0  0  0  0  0  0
    7.2339   56.1150    0.6790 C   0  0  0  0  0  0  0  0  0  0  0  0
    6.2423   56.1302   -0.4945 C   0  0  0  0  0  0  0  0  0  0  0  0
    5.3066   57.3477   -0.3697 C   0  0  0  0  0  0  0  0  0  0  0  0
    4.5853   57.3947    0.9929 C   0  0  0  0  0  0  0  0  0  0  0  0
    5.5993   57.3423    2.1510 C   0  0  0  0  0  0  0  0  0  0  0  0
    6.4939   56.1015    2.0276 C   0  0  0  0  0  0  0  0  0  0  0  0
    3.7721   58.7038    1.0127 C   0  0  0  0  0  0  0  0  0  0  0  0
    4.5683   59.9230    1.5041 C   0  0  0  0  0  0  0  0  0  0  0  0
    5.3354   60.5259    0.4038 C   0  0  0  0  0  0  0  0  0  0  0  0
    6.0058   61.0088   -0.3814 N   0  0  0  0  0  0  0  0  0  0  0  0
    9.8109   57.0187   -1.3227 C   0  0  0  0  0  0  0  0  0  0  0  0
   10.2009   56.4348    0.0363 C   0  0  0  0  0  0  0  0  0  0  0  0
    9.8621   57.3109    1.1333 O   0  0  0  0  0  0  0  0  0  0  0  0
    8.9005   57.4352    1.1626 H   0  0  0  0  0  0  0  0  0  0  0  0
 24 25  1  0  0  0
  5  1  2  0  0  0
  5  4  1  0  0  0
 25  1  1  0  0  0
 25 26  1  0  0  0
  6  4  1  0  0  0
  6  7  2  0  0  0
  1  2  1  0  0  0
  4  3  2  0  0  0
 19 18  1  0  0  0
 19 14  1  0  0  0
  7  8  1  0  0  0
 23 22  3  0  0  0
  2  3  1  0  0  0
  2 14  1  0  0  0
  3  9  1  0  0  0
 18 17  1  0  0  0
  8  9  2  0  0  0
  8 12  1  0  0  0
 14 15  1  0  0  0
  9 10  1  0  0  0
 12 11  1  0  0  0
 22 21  1  0  0  0
 10 11  2  0  0  0
 17 20  1  0  0  0
 17 16  1  0  0  0
 15 16  1  0  0  0
 21 20  1  0  0  0
 26 27  1  0  0  0
 12 13  1  0  0  0
M  END
> <minimizedAffinity>
-7.43192

$$$$
4IVD_15T_A_1201


 27 30  0  0  0  0  0  0  0  0999 V2000
    6.1593   56.6376    1.4810 C   0  0  0  0  0  0  0  0  0  0  0  0
    7.2625   56.6484    0.6784 N   0  0  0  0  0  0  0  0  0  0  0  0
    7.3288   57.9128    0.1010 C   0  0  0  0  0  0  0  0  0  0  0  0
    6.2236   58.6163    0.6180 C   0  0  0  0  0  0  0  0  0  0  0  0
    5.5652   57.7767    1.4422 N   0  0  0  0  0  0  0  0  0  0  0  0
    5.9926   59.9407    0.2431 C   0  0  0  0  0  0  0  0  0  0  0  0
    6.7898   60.5687   -0.5906 N   0  0  0  0  0  0  0  0  0  0  0  0
    7.8581   59.9697   -1.1100 C   0  0  0  0  0  0  0  0  0  0  0  0
    8.1673   58.6252   -0.7915 C   0  0  0  0  0  0  0  0  0  0  0  0
    9.3866   58.3234   -1.5293 C   0  0  0  0  0  0  0  0  0  0  0  0
    9.7390   59.4304   -2.2063 C   0  0  0  0  0  0  0  0  0  0  0  0
    8.8141   60.4177   -1.9659 N   0  0  0  0  0  0  0  0  0  0  0  0
    8.8402   61.3206   -2.3575 H   0  0  0  0  0  0  0  0  0  0  0  0
    8.1534   55.4823    0.5057 C   0  0  0  0  0  0  0  0  0  0  0  0
    9.3570   55.5830    1.4552 C   0  0  0  0  0  0  0  0  0  0  0  0
   10.2993   54.3850    1.2302 C   0  0  0  0  0  0  0  0  0  0  0  0
    9.5703   53.0327    1.3677 C   0  0  0  0  0  0  0  0  0  0  0  0
    8.3483   52.9720    0.4320 C   0  0  0  0  0  0  0  0  0  0  0  0
    7.4052   54.1524    0.7009 C   0  0  0  0  0  0  0  0  0  0  0  0
   10.6024   51.9419    1.0206 C   0  0  0  0  0  0  0  0  0  0  0  0
   11.7049   52.4125    0.0588 C   0  0  0  0  0  0  0  0  0  0  0  0
   11.4469   51.9346   -1.3077 C   0  0  0  0  0  0  0  0  0  0  0  0
   11.1719   51.6344   -2.3724 N   0  0  0  0  0  0  0  0  0  0  0  0
    6.3372   55.4786    3.6794 C   0  0  0  0  0  0  0  0  0  0  0  0
    5.6818   55.4641    2.2973 C   0  0  0  0  0  0  0  0  0  0  0  0
    4.2411   55.5360    2.3668 O   0  0  0  0  0  0  0  0  0  0  0  0
    3.9786   56.3747    2.7774 H   0  0  0  0  0  0  0  0  0  0  0  0
 24 25  1  0  0  0
  5  1  2  0  0  0
  5  4  1  0  0  0
 25  1  1  0  0  0
 25 26  1  0  0  0
  6  4  1  0  0  0
  6  7  2  0  0  0
  1  2  1  0  0  0
  4  3  2  0  0  0
 19 18  1  0  0  0
 19 14  1  0  0  0
  7  8  1  0  0  0
 23 22  3  0  0  0
  2  3  1  0  0  0
  2 14  1  0  0  0
  3  9  1  0  0  0
 18 17  1  0  0  0
  8  9  2  0  0  0
  8 12  1  0  0  0
 14 15  1  0  0  0
  9 10  1  0  0  0
 12 11  1  0  0  0
 22 21  1  0  0  0
 10 11  2  0  0  0
 17 20  1  0  0  0
 17 16  1  0  0  0
 15 16  1  0  0  0
 21 20  1  0  0  0
 26 27  1  0  0  0
 12 13  1  0  0  0
M  END
> <minimizedAffinity>
-7.04754

$$$$
4IVD_15T_A_1201


 27 30  0  0  0  0  0  0  0  0999 V2000
    5.5981   56.5913    1.4532 C   0  0  0  0  0  0  0  0  0  0  0  0
    6.7388   56.5821    0.7048 N   0  0  0  0  0  0  0  0  0  0  0  0
    6.8869   57.8622    0.1794 C   0  0  0  0  0  0  0  0  0  0  0  0
    5.7884   58.5948    0.6698 C   0  0  0  0  0  0  0  0  0  0  0  0
    5.0555   57.7562    1.4295 N   0  0  0  0  0  0  0  0  0  0  0  0
    5.6325   59.9407    0.3348 C   0  0  0  0  0  0  0  0  0  0  0  0
    6.4955   60.5623   -0.4358 N   0  0  0  0  0  0  0  0  0  0  0  0
    7.5616   59.9357   -0.9263 C   0  0  0  0  0  0  0  0  0  0  0  0
    7.7976   58.5683   -0.6446 C   0  0  0  0  0  0  0  0  0  0  0  0
    9.0377   58.2396   -1.3347 C   0  0  0  0  0  0  0  0  0  0  0  0
    9.4694   59.3534   -1.9518 C   0  0  0  0  0  0  0  0  0  0  0  0
    8.5765   60.3714   -1.7183 N   0  0  0  0  0  0  0  0  0  0  0  0
    8.6601   61.2856   -2.0738 H   0  0  0  0  0  0  0  0  0  0  0  0
    7.5868   55.3847    0.5305 C   0  0  0  0  0  0  0  0  0  0  0  0
    8.7157   55.3719    1.5726 C   0  0  0  0  0  0  0  0  0  0  0  0
    9.6176   54.1431    1.3482 C   0  0  0  0  0  0  0  0  0  0  0  0
    8.8196   52.8232    1.3490 C   0  0  0  0  0  0  0  0  0  0  0  0
    7.6733   52.8759    0.3216 C   0  0  0  0  0  0  0  0  0  0  0  0
    6.7663   54.0847    0.5885 C   0  0  0  0  0  0  0  0  0  0  0  0
    9.8254   51.7036    1.0163 C   0  0  0  0  0  0  0  0  0  0  0  0
    9.1783   50.3228    0.8259 C   0  0  0  0  0  0  0  0  0  0  0  0
    8.5682   49.8529    2.0787 C   0  0  0  0  0  0  0  0  0  0  0  0
    8.1651   49.4131    3.0499 N   0  0  0  0  0  0  0  0  0  0  0  0
    5.7941   55.1987    3.5099 C   0  0  0  0  0  0  0  0  0  0  0  0
    5.0319   55.4116    2.2008 C   0  0  0  0  0  0  0  0  0  0  0  0
    3.6255   55.6616    2.4133 O   0  0  0  0  0  0  0  0  0  0  0  0
    3.5158   56.4804    2.9218 H   0  0  0  0  0  0  0  0  0  0  0  0
 24 25  1  0  0  0
  5  1  2  0  0  0
  5  4  1  0  0  0
 25  1  1  0  0  0
 25 26  1  0  0  0
  6  4  1  0  0  0
  6  7  2  0  0  0
  1  2  1  0  0  0
  4  3  2  0  0  0
 19 18  1  0  0  0
 19 14  1  0  0  0
  7  8  1  0  0  0
 23 22  3  0  0  0
  2  3  1  0  0  0
  2 14  1  0  0  0
  3  9  1  0  0  0
 18 17  1  0  0  0
  8  9  2  0  0  0
  8 12  1  0  0  0
 14 15  1  0  0  0
  9 10  1  0  0  0
 12 11  1  0  0  0
 22 21  1  0  0  0
 10 11  2  0  0  0
 17 20  1  0  0  0
 17 16  1  0  0  0
 15 16  1  0  0  0
 21 20  1  0  0  0
 26 27  1  0  0  0
 12 13  1  0  0  0
M  END
> <minimizedAffinity>
-6.95853

$$$$
4IVD_15T_A_1201


 27 30  0  0  0  0  0  0  0  0999 V2000
    8.7439   57.7087   -0.9658 C   0  0  0  0  0  0  0  0  0  0  0  0
    8.1166   56.7372   -0.2419 N   0  0  0  0  0  0  0  0  0  0  0  0
    6.8956   57.2644    0.1677 C   0  0  0  0  0  0  0  0  0  0  0  0
    6.8570   58.5686   -0.3626 C   0  0  0  0  0  0  0  0  0  0  0  0
    8.0109   58.7623   -1.0323 N   0  0  0  0  0  0  0  0  0  0  0  0
    5.7479   59.3868   -0.1423 C   0  0  0  0  0  0  0  0  0  0  0  0
    4.7147   58.9721    0.5545 N   0  0  0  0  0  0  0  0  0  0  0  0
    4.6782   57.7490    1.0764 C   0  0  0  0  0  0  0  0  0  0  0  0
    5.7612   56.8522    0.9095 C   0  0  0  0  0  0  0  0  0  0  0  0
    5.3640   55.6332    1.6010 C   0  0  0  0  0  0  0  0  0  0  0  0
    4.1363   55.8341    2.1108 C   0  0  0  0  0  0  0  0  0  0  0  0
    3.7271   57.1103    1.8076 N   0  0  0  0  0  0  0  0  0  0  0  0
    2.8679   57.5056    2.0810 H   0  0  0  0  0  0  0  0  0  0  0  0
    8.7077   55.4082    0.0187 C   0  0  0  0  0  0  0  0  0  0  0  0
    9.5128   55.4276    1.3271 C   0  0  0  0  0  0  0  0  0  0  0  0
   10.1605   54.0494    1.5604 C   0  0  0  0  0  0  0  0  0  0  0  0
    9.1263   52.9052    1.5388 C   0  0  0  0  0  0  0  0  0  0  0  0
    8.3095   52.9302    0.2333 C   0  0  0  0  0  0  0  0  0  0  0  0
    7.6421   54.2988    0.0419 C   0  0  0  0  0  0  0  0  0  0  0  0
    9.9223   51.5932    1.6823 C   0  0  0  0  0  0  0  0  0  0  0  0
    9.4133   50.4556    0.7830 C   0  0  0  0  0  0  0  0  0  0  0  0
    9.5546   49.1545    1.4536 C   0  0  0  0  0  0  0  0  0  0  0  0
    9.6495   48.1955    2.0623 N   0  0  0  0  0  0  0  0  0  0  0  0
   10.3366   58.7324   -2.5855 C   0  0  0  0  0  0  0  0  0  0  0  0
   10.1070   57.5875   -1.5972 C   0  0  0  0  0  0  0  0  0  0  0  0
   11.0830   57.5706   -0.5329 O   0  0  0  0  0  0  0  0  0  0  0  0
   11.0112   58.3878   -0.0153 H   0  0  0  0  0  0  0  0  0  0  0  0
 24 25  1  0  0  0
  5  1  2  0  0  0
  5  4  1  0  0  0
 25  1  1  0  0  0
 25 26  1  0  0  0
  6  4  1  0  0  0
  6  7  2  0  0  0
  1  2  1  0  0  0
  4  3  2  0  0  0
 19 18  1  0  0  0
 19 14  1  0  0  0
  7  8  1  0  0  0
 23 22  3  0  0  0
  2  3  1  0  0  0
  2 14  1  0  0  0
  3  9  1  0  0  0
 18 17  1  0  0  0
  8  9  2  0  0  0
  8 12  1  0  0  0
 14 15  1  0  0  0
  9 10  1  0  0  0
 12 11  1  0  0  0
 22 21  1  0  0  0
 10 11  2  0  0  0
 17 20  1  0  0  0
 17 16  1  0  0  0
 15 16  1  0  0  0
 21 20  1  0  0  0
 26 27  1  0  0  0
 12 13  1  0  0  0
M  END
> <minimizedAffinity>
-6.87711

$$$$
4IVD_15T_A_1201


 27 30  0  0  0  0  0  0  0  0999 V2000
    6.8245   59.1470   -0.1622 C   0  0  0  0  0  0  0  0  0  0  0  0
    7.5074   57.9661   -0.1834 N   0  0  0  0  0  0  0  0  0  0  0  0
    8.6230   58.1599   -0.9924 C   0  0  0  0  0  0  0  0  0  0  0  0
    8.5455   59.5002   -1.4181 C   0  0  0  0  0  0  0  0  0  0  0  0
    7.4298   60.0281   -0.8758 N   0  0  0  0  0  0  0  0  0  0  0  0
    9.5298   60.0333   -2.2517 C   0  0  0  0  0  0  0  0  0  0  0  0
   10.5502   59.3136   -2.6588 N   0  0  0  0  0  0  0  0  0  0  0  0
   10.6931   58.0439   -2.2880 C   0  0  0  0  0  0  0  0  0  0  0  0
    9.7401   57.4176   -1.4488 C   0  0  0  0  0  0  0  0  0  0  0  0
   10.2269   56.0579   -1.2581 C   0  0  0  0  0  0  0  0  0  0  0  0
   11.3807   55.9380   -1.9379 C   0  0  0  0  0  0  0  0  0  0  0  0
   11.6564   57.1272   -2.5686 N   0  0  0  0  0  0  0  0  0  0  0  0
   12.4397   57.2916   -3.1418 H   0  0  0  0  0  0  0  0  0  0  0  0
    7.0609   56.7560    0.5374 C   0  0  0  0  0  0  0  0  0  0  0  0
    6.6765   55.6510   -0.4584 C   0  0  0  0  0  0  0  0  0  0  0  0
    6.1695   54.4137    0.3069 C   0  0  0  0  0  0  0  0  0  0  0  0
    7.1866   53.9154    1.3539 C   0  0  0  0  0  0  0  0  0  0  0  0
    7.5817   55.0508    2.3168 C   0  0  0  0  0  0  0  0  0  0  0  0
    8.1201   56.2567    1.5352 C   0  0  0  0  0  0  0  0  0  0  0  0
    6.5094   52.7503    2.1018 C   0  0  0  0  0  0  0  0  0  0  0  0
    6.4393   51.4473    1.2899 C   0  0  0  0  0  0  0  0  0  0  0  0
    7.7545   51.1109    0.7246 C   0  0  0  0  0  0  0  0  0  0  0  0
    8.7994   50.8140    0.3792 N   0  0  0  0  0  0  0  0  0  0  0  0
    5.1654   60.8825    0.5038 C   0  0  0  0  0  0  0  0  0  0  0  0
    5.5364   59.4003    0.5781 C   0  0  0  0  0  0  0  0  0  0  0  0
    4.5244   58.5466    0.0011 O   0  0  0  0  0  0  0  0  0  0  0  0
    4.4289   58.7505   -0.9424 H   0  0  0  0  0  0  0  0  0  0  0  0
 24 25  1  0  0  0
  5  1  2  0  0  0
  5  4  1  0  0  0
 25  1  1  0  0  0
 25 26  1  0  0  0
  6  4  1  0  0  0
  6  7  2  0  0  0
  1  2  1  0  0  0
  4  3  2  0  0  0
 19 18  1  0  0  0
 19 14  1  0  0  0
  7  8  1  0  0  0
 23 22  3  0  0  0
  2  3  1  0  0  0
  2 14  1  0  0  0
  3  9  1  0  0  0
 18 17  1  0  0  0
  8  9  2  0  0  0
  8 12  1  0  0  0
 14 15  1  0  0  0
  9 10  1  0  0  0
 12 11  1  0  0  0
 22 21  1  0  0  0
 10 11  2  0  0  0
 17 20  1  0  0  0
 17 16  1  0  0  0
 15 16  1  0  0  0
 21 20  1  0  0  0
 26 27  1  0  0  0
 12 13  1  0  0  0
M  END
> <minimizedAffinity>
-6.74919

$$$$
