6D5G_FVD_B_2001
  RCSB PDB09151803293D
Coordinates from PDB:6D5G:B:2001 Model:1 without hydrogens
 32 36  0  0  0  0            999 V2000
   34.1780   28.6840   22.8260   N 0  0  0  0  0  0  0  0  0  0  0  0
   36.4760   26.6120   18.8340   N 0  0  0  0  0  0  0  0  0  0  0  0
   32.7880   30.0900   21.2450   C 0  0  0  0  0  0  0  0  0  0  0  0
   33.0170   28.7920   21.9660   C 0  0  0  0  0  0  0  0  0  0  0  0
   35.3930   28.0880   22.5860   C 0  0  0  0  0  0  0  0  0  0  0  0
   36.6320   26.4590   21.2480   C 0  0  0  0  0  0  0  0  0  0  0  0
   36.4040   25.7060   19.9650   C 0  0  0  0  0  0  0  0  0  0  0  0
   35.4900   28.4220   20.1470   C 0  0  0  0  0  0  0  0  0  0  0  0
   36.9650   28.3770   26.6040   C 0  0  0  0  0  0  0  0  0  0  0  0
   39.3930   28.0250   26.5260   C 0  0  0  0  0  0  0  0  0  0  0  0
   36.9430   28.0280   28.0490   C 0  0  0  0  0  0  0  0  0  0  0  0
   33.1930   29.5760   24.9440   C 0  0  0  0  0  0  0  0  0  0  0  0
   34.1610   28.9990   24.1540   C 0  0  0  0  0  0  0  0  0  0  0  0
   33.4200   31.2610   21.6170   C 0  0  0  0  0  0  0  0  0  0  0  0
   33.8740   33.7060   21.3510   C 0  0  0  0  0  0  0  0  0  0  0  0
   38.0710   28.2990   25.9050   C 0  0  0  0  0  0  0  0  0  0  0  0
   39.3560   28.1650   27.9750   N 0  0  0  0  0  0  0  0  0  0  0  0
   38.2330   27.4660   28.5990   C 0  0  0  0  0  0  0  0  0  0  0  0
   35.6870   28.8130   26.0010   C 0  0  0  0  0  0  0  0  0  0  0  0
   34.7180   29.3710   26.8020   C 0  0  0  0  0  0  0  0  0  0  0  0
   33.4950   29.7590   26.2780   C 0  0  0  0  0  0  0  0  0  0  0  0
   32.3110   30.4740   27.3390  Cl 0  0  0  0  0  0  0  0  0  0  0  0
   35.3920   28.6150   24.6540   C 0  0  0  0  0  0  0  0  0  0  0  0
   36.1480   28.0650   23.6410   N 0  0  0  0  0  0  0  0  0  0  0  0
   35.7730   27.6420   21.3540   N 0  0  0  0  0  0  0  0  0  0  0  0
   35.3790   27.5600   18.9100   C 0  0  0  0  0  0  0  0  0  0  0  0
   31.8780   30.1160   20.2100   C 0  0  0  0  0  0  0  0  0  0  0  0
   31.6090   31.2730   19.5170   C 0  0  0  0  0  0  0  0  0  0  0  0
   30.6300   31.2710   18.3840   C 0  0  0  0  0  0  0  0  0  0  0  0
   32.2690   32.4130   19.9090   C 0  0  0  0  0  0  0  0  0  0  0  0
   32.0140   33.5390   19.2410   F 0  0  0  0  0  0  0  0  0  0  0  0
   33.1600   32.4520   20.9610   C 0  0  0  0  0  0  0  0  0  0  0  0
 29 28  1  0  0  0  0
  2 26  1  0  0  0  0
  2  7  1  0  0  0  0
 26  8  1  0  0  0  0
 31 30  1  0  0  0  0
 28 30  2  0  0  0  0
 28 27  1  0  0  0  0
 30 32  1  0  0  0  0
  7  6  1  0  0  0  0
  8 25  1  0  0  0  0
 27  3  2  0  0  0  0
 32 15  1  0  0  0  0
 32 14  2  0  0  0  0
  3 14  1  0  0  0  0
  3  4  1  0  0  0  0
  6 25  1  0  0  0  0
 25  5  1  0  0  0  0
  4  1  1  0  0  0  0
  5  1  1  0  0  0  0
  5 24  2  0  0  0  0
  1 13  1  0  0  0  0
 24 23  1  0  0  0  0
 13 23  2  0  0  0  0
 13 12  1  0  0  0  0
 23 19  1  0  0  0  0
 12 21  2  0  0  0  0
 16 10  1  0  0  0  0
 16  9  2  0  0  0  0
 19  9  1  0  0  0  0
 19 20  2  0  0  0  0
 21 20  1  0  0  0  0
 21 22  1  0  0  0  0
 10 17  1  0  0  0  0
  9 11  1  0  0  0  0
 17 18  1  0  0  0  0
 11 18  1  0  0  0  0
A    1
N1
A    2
N3
A    3
C4
A    4
C5
A    5
C6
A    6
C7
A    7
C8
A    8
C10
A    9
C13
A   10
C15
A   11
C17
A   12
C20
A   13
C21
A   14
C22
A   15
C24
A   16
C14
A   17
N5
A   18
C16
A   19
C12
A   20
C18
A   21
C19
A   22
CL1
A   23
C11
A   24
N4
A   25
N2
A   26
C9
A   27
C3
A   28
C2
A   29
C1
A   30
C25
A   31
F1
A   32
C23
M  END
>  <InstanceId>
6D5G_FVD_B_2001

>  <ChemCompId>
FVD

>  <PdbId>
6D5G

>  <ChainId>
B

>  <ResidueNumber>
2001

>  <InsertionCode>


>  <Model>
1

>  <AltIds>


>  <MissingHeavyAtoms>
0

>  <ObservedFormula>
C25 N5 F Cl

>  <Name>
6-chloro-1-[(4-fluoro-3,5-dimethylphenyl)methyl]-2-(piperazin-1-yl)-4-(1,2,3,6-tetrahydropyridin-4-yl)-1H-benzimidazole

>  <SystematicName>
6-chloranyl-1-[(4-fluoranyl-3,5-dimethyl-phenyl)methyl]-2-piperazin-1-yl-4-(1,2,3,6-tetrahydropyridin-4-yl)benzimidazole

>  <Synonyms>


>  <Type>
NON-POLYMER

>  <Formula>
C25 H29 Cl F N5

>  <MolecularWeight>
453.983

>  <ModifiedDate>
2018-09-14

>  <Parent>


>  <OneLetterCode>


>  <SubcomponentList>


>  <AmbiguousFlag>
N

>  <InChI>
InChI=1S/C25H29ClFN5/c1-16-11-18(12-17(2)23(16)27)15-32-22-14-20(26)13-21(19-3-5-28-6-4-19)24(22)30-25(32)31-9-7-29-8-10-31/h3,11-14,28-29H,4-10,15H2,1-2H3

>  <InChIKey>
AICGXPKTEXWHDK-UHFFFAOYSA-N

>  <SMILES>
Cc1cc(cc(c1F)C)Cn2c3cc(cc(c3nc2N4CCNCC4)C5=CCNCC5)Cl

$$$$
