6D5G_FVD_B_2001


 34 38  0  0  0  0  0  0  0  0999 V2000
   34.0265   28.8223   22.7093 N   0  0  0  0  0  0  0  0  0  0  0  0
   35.2565   28.2496   22.4900 C   0  0  0  0  0  0  0  0  0  0  0  0
   32.9914   29.7010   24.8088 C   0  0  0  0  0  0  0  0  0  0  0  0
   33.9827   29.1408   24.0358 C   0  0  0  0  0  0  0  0  0  0  0  0
   35.4831   28.9904   25.9068 C   0  0  0  0  0  0  0  0  0  0  0  0
   34.4911   29.5316   26.6909 C   0  0  0  0  0  0  0  0  0  0  0  0
   33.2690   29.8939   26.1467 C   0  0  0  0  0  0  0  0  0  0  0  0
   32.0548   30.5886   27.1869 Cl  0  0  0  0  0  0  0  0  0  0  0  0
   35.2130   28.7826   24.5560 C   0  0  0  0  0  0  0  0  0  0  0  0
   35.9953   28.2446   23.5567 N   0  0  0  0  0  0  0  0  0  0  0  0
   36.6147   26.8394   18.8028 N   0  0  0  0  0  0  0  0  0  0  0  0
   36.8570   28.3935   20.6470 C   0  0  0  0  0  0  0  0  0  0  0  0
   37.5595   27.4218   19.7374 C   0  0  0  0  0  0  0  0  0  0  0  0
   34.8367   26.8902   20.4787 C   0  0  0  0  0  0  0  0  0  0  0  0
   35.6643   27.8075   21.2655 N   0  0  0  0  0  0  0  0  0  0  0  0
   35.6517   26.0360   19.5344 C   0  0  0  0  0  0  0  0  0  0  0  0
   36.1282   27.5829   18.3020 H   0  0  0  0  0  0  0  0  0  0  0  0
   36.7599   28.5814   26.5309 C   0  0  0  0  0  0  0  0  0  0  0  0
   39.2073   28.3936   26.5434 C   0  0  0  0  0  0  0  0  0  0  0  0
   36.6979   28.0963   27.9349 C   0  0  0  0  0  0  0  0  0  0  0  0
   37.8985   28.6406   25.8843 C   0  0  0  0  0  0  0  0  0  0  0  0
   39.0968   28.3930   27.9954 N   0  0  0  0  0  0  0  0  0  0  0  0
   37.9975   27.5680   28.4954 C   0  0  0  0  0  0  0  0  0  0  0  0
   38.9490   29.3524   28.3086 H   0  0  0  0  0  0  0  0  0  0  0  0
   32.8771   28.9048   21.8310 C   0  0  0  0  0  0  0  0  0  0  0  0
   32.6722   30.1717   21.0499 C   0  0  0  0  0  0  0  0  0  0  0  0
   33.2698   31.3643   21.4101 C   0  0  0  0  0  0  0  0  0  0  0  0
   33.7092   33.8035   21.0756 C   0  0  0  0  0  0  0  0  0  0  0  0
   31.8188   30.1466   19.9677 C   0  0  0  0  0  0  0  0  0  0  0  0
   31.5741   31.2731   19.2178 C   0  0  0  0  0  0  0  0  0  0  0  0
   30.6574   31.2154   18.0352 C   0  0  0  0  0  0  0  0  0  0  0  0
   32.1989   32.4358   19.6006 C   0  0  0  0  0  0  0  0  0  0  0  0
   31.9672   33.5324   18.8776 F   0  0  0  0  0  0  0  0  0  0  0  0
   33.0316   32.5262   20.6963 C   0  0  0  0  0  0  0  0  0  0  0  0
 31 30  1  0  0  0
 11 16  1  0  0  0
 11 13  1  0  0  0
 16 14  1  0  0  0
 33 32  1  0  0  0
 30 32  2  0  0  0
 30 29  1  0  0  0
 32 34  1  0  0  0
 13 12  1  0  0  0
 14 15  1  0  0  0
 29 26  2  0  0  0
 34 28  1  0  0  0
 34 27  2  0  0  0
 26 27  1  0  0  0
 26 25  1  0  0  0
 12 15  1  0  0  0
 15  2  1  0  0  0
 25  1  1  0  0  0
  2  1  1  0  0  0
  2 10  2  0  0  0
  1  4  1  0  0  0
 10  9  1  0  0  0
  4  9  2  0  0  0
  4  3  1  0  0  0
  9  5  1  0  0  0
  3  7  2  0  0  0
 21 19  1  0  0  0
 21 18  2  0  0  0
  5 18  1  0  0  0
  5  6  2  0  0  0
  7  6  1  0  0  0
  7  8  1  0  0  0
 19 22  1  0  0  0
 18 20  1  0  0  0
 22 23  1  0  0  0
 20 23  1  0  0  0
 11 17  1  0  0  0
 22 24  1  0  0  0
M  END
> <minimizedAffinity>
-10.91405

$$$$
6D5G_FVD_B_2001


 34 38  0  0  0  0  0  0  0  0999 V2000
   34.5661   29.1395   22.4723 N   0  0  0  0  0  0  0  0  0  0  0  0
   35.1440   29.5098   23.6630 C   0  0  0  0  0  0  0  0  0  0  0  0
   35.5970   28.2998   20.3547 C   0  0  0  0  0  0  0  0  0  0  0  0
   35.5864   28.7382   21.6592 C   0  0  0  0  0  0  0  0  0  0  0  0
   37.9692   28.4969   21.8558 C   0  0  0  0  0  0  0  0  0  0  0  0
   37.9914   28.0766   20.5463 C   0  0  0  0  0  0  0  0  0  0  0  0
   36.8212   27.9667   19.8119 C   0  0  0  0  0  0  0  0  0  0  0  0
   36.9099   27.4146   18.1608 Cl  0  0  0  0  0  0  0  0  0  0  0  0
   36.7408   28.8443   22.4135 C   0  0  0  0  0  0  0  0  0  0  0  0
   36.4264   29.3126   23.6712 N   0  0  0  0  0  0  0  0  0  0  0  0
   32.9235   30.7673   26.9671 N   0  0  0  0  0  0  0  0  0  0  0  0
   32.9772   29.7389   24.7729 C   0  0  0  0  0  0  0  0  0  0  0  0
   32.4608   29.6377   26.1829 C   0  0  0  0  0  0  0  0  0  0  0  0
   35.0384   30.8244   25.7440 C   0  0  0  0  0  0  0  0  0  0  0  0
   34.4251   29.9635   24.7301 N   0  0  0  0  0  0  0  0  0  0  0  0
   34.3683   30.7020   27.0936 C   0  0  0  0  0  0  0  0  0  0  0  0
   32.6608   31.6361   26.5015 H   0  0  0  0  0  0  0  0  0  0  0  0
   39.2424   28.6376   22.5949 C   0  0  0  0  0  0  0  0  0  0  0  0
   41.1143   29.9696   23.4592 C   0  0  0  0  0  0  0  0  0  0  0  0
   39.7193   27.4470   23.3467 C   0  0  0  0  0  0  0  0  0  0  0  0
   39.9256   29.7562   22.5932 C   0  0  0  0  0  0  0  0  0  0  0  0
   41.2287   28.9493   24.4919 N   0  0  0  0  0  0  0  0  0  0  0  0
   41.0827   27.5862   23.9825 C   0  0  0  0  0  0  0  0  0  0  0  0
   40.5028   29.1130   25.1895 H   0  0  0  0  0  0  0  0  0  0  0  0
   33.2033   29.3163   22.0133 C   0  0  0  0  0  0  0  0  0  0  0  0
   32.8978   30.5009   21.1411 C   0  0  0  0  0  0  0  0  0  0  0  0
   33.3748   31.7665   21.4236 C   0  0  0  0  0  0  0  0  0  0  0  0
   33.5930   34.2070   20.9223 C   0  0  0  0  0  0  0  0  0  0  0  0
   32.0727   30.3204   20.0518 C   0  0  0  0  0  0  0  0  0  0  0  0
   31.7400   31.3640   19.2201 C   0  0  0  0  0  0  0  0  0  0  0  0
   30.8570   31.1382   18.0321 C   0  0  0  0  0  0  0  0  0  0  0  0
   32.2464   32.6041   19.5278 C   0  0  0  0  0  0  0  0  0  0  0  0
   31.9289   33.6210   18.7253 F   0  0  0  0  0  0  0  0  0  0  0  0
   33.0446   32.8484   20.6256 C   0  0  0  0  0  0  0  0  0  0  0  0
 31 30  1  0  0  0
 11 16  1  0  0  0
 11 13  1  0  0  0
 16 14  1  0  0  0
 33 32  1  0  0  0
 30 32  2  0  0  0
 30 29  1  0  0  0
 32 34  1  0  0  0
 13 12  1  0  0  0
 14 15  1  0  0  0
 29 26  2  0  0  0
 34 28  1  0  0  0
 34 27  2  0  0  0
 26 27  1  0  0  0
 26 25  1  0  0  0
 12 15  1  0  0  0
 15  2  1  0  0  0
 25  1  1  0  0  0
  2  1  1  0  0  0
  2 10  2  0  0  0
  1  4  1  0  0  0
 10  9  1  0  0  0
  4  9  2  0  0  0
  4  3  1  0  0  0
  9  5  1  0  0  0
  3  7  2  0  0  0
 21 19  1  0  0  0
 21 18  2  0  0  0
  5 18  1  0  0  0
  5  6  2  0  0  0
  7  6  1  0  0  0
  7  8  1  0  0  0
 19 22  1  0  0  0
 18 20  1  0  0  0
 22 23  1  0  0  0
 20 23  1  0  0  0
 11 17  1  0  0  0
 22 24  1  0  0  0
M  END
> <minimizedAffinity>
-10.35525

$$$$
6D5G_FVD_B_2001


 34 38  0  0  0  0  0  0  0  0999 V2000
   34.5059   28.9321   22.6311 N   0  0  0  0  0  0  0  0  0  0  0  0
   35.1333   29.1787   23.8289 C   0  0  0  0  0  0  0  0  0  0  0  0
   35.4459   28.3095   20.3994 C   0  0  0  0  0  0  0  0  0  0  0  0
   35.4903   28.6133   21.7410 C   0  0  0  0  0  0  0  0  0  0  0  0
   37.8776   28.3488   21.8154 C   0  0  0  0  0  0  0  0  0  0  0  0
   37.8447   28.0633   20.4703 C   0  0  0  0  0  0  0  0  0  0  0  0
   36.6453   28.0308   19.7765 C   0  0  0  0  0  0  0  0  0  0  0  0
   36.6643   27.6487   18.0758 Cl  0  0  0  0  0  0  0  0  0  0  0  0
   36.6747   28.6402   22.4547 C   0  0  0  0  0  0  0  0  0  0  0  0
   36.4138   28.9792   23.7651 N   0  0  0  0  0  0  0  0  0  0  0  0
   33.1011   30.3659   27.2770 N   0  0  0  0  0  0  0  0  0  0  0  0
   35.2020   30.0691   26.1051 C   0  0  0  0  0  0  0  0  0  0  0  0
   34.3602   31.0006   26.9351 C   0  0  0  0  0  0  0  0  0  0  0  0
   33.0436   29.1933   25.1337 C   0  0  0  0  0  0  0  0  0  0  0  0
   34.4605   29.5233   24.9646 N   0  0  0  0  0  0  0  0  0  0  0  0
   32.3313   30.1471   26.0657 C   0  0  0  0  0  0  0  0  0  0  0  0
   33.2828   29.4712   27.7319 H   0  0  0  0  0  0  0  0  0  0  0  0
   39.1802   28.4113   22.5127 C   0  0  0  0  0  0  0  0  0  0  0  0
   41.1540   27.3579   23.5226 C   0  0  0  0  0  0  0  0  0  0  0  0
   39.7931   29.7561   22.6746 C   0  0  0  0  0  0  0  0  0  0  0  0
   39.7746   27.3364   22.9700 C   0  0  0  0  0  0  0  0  0  0  0  0
   41.8477   28.6003   23.2130 N   0  0  0  0  0  0  0  0  0  0  0  0
   41.0568   29.7963   23.5016 C   0  0  0  0  0  0  0  0  0  0  0  0
   42.0829   28.6003   22.2205 H   0  0  0  0  0  0  0  0  0  0  0  0
   33.1269   29.1573   22.2480 C   0  0  0  0  0  0  0  0  0  0  0  0
   32.8261   30.3059   21.3274 C   0  0  0  0  0  0  0  0  0  0  0  0
   32.0735   30.1521   20.1789 C   0  0  0  0  0  0  0  0  0  0  0  0
   31.0026   31.0482   18.1040 C   0  0  0  0  0  0  0  0  0  0  0  0
   33.3638   31.5411   21.6192 C   0  0  0  0  0  0  0  0  0  0  0  0
   33.1412   32.6319   20.8117 C   0  0  0  0  0  0  0  0  0  0  0  0
   33.7210   33.9676   21.1607 C   0  0  0  0  0  0  0  0  0  0  0  0
   32.3758   32.4401   19.6865 C   0  0  0  0  0  0  0  0  0  0  0  0
   32.1548   33.4937   18.8988 F   0  0  0  0  0  0  0  0  0  0  0  0
   31.8455   31.2189   19.3267 C   0  0  0  0  0  0  0  0  0  0  0  0
 31 30  1  0  0  0
 11 16  1  0  0  0
 11 13  1  0  0  0
 16 14  1  0  0  0
 33 32  1  0  0  0
 30 32  2  0  0  0
 30 29  1  0  0  0
 32 34  1  0  0  0
 13 12  1  0  0  0
 14 15  1  0  0  0
 29 26  2  0  0  0
 34 28  1  0  0  0
 34 27  2  0  0  0
 26 27  1  0  0  0
 26 25  1  0  0  0
 12 15  1  0  0  0
 15  2  1  0  0  0
 25  1  1  0  0  0
  2  1  1  0  0  0
  2 10  2  0  0  0
  1  4  1  0  0  0
 10  9  1  0  0  0
  4  9  2  0  0  0
  4  3  1  0  0  0
  9  5  1  0  0  0
  3  7  2  0  0  0
 21 19  1  0  0  0
 21 18  2  0  0  0
  5 18  1  0  0  0
  5  6  2  0  0  0
  7  6  1  0  0  0
  7  8  1  0  0  0
 19 22  1  0  0  0
 18 20  1  0  0  0
 22 23  1  0  0  0
 20 23  1  0  0  0
 11 17  1  0  0  0
 22 24  1  0  0  0
M  END
> <minimizedAffinity>
-10.17940

$$$$
6D5G_FVD_B_2001


 34 38  0  0  0  0  0  0  0  0999 V2000
   35.5933   29.0007   22.4279 N   0  0  0  0  0  0  0  0  0  0  0  0
   36.7176   29.6720   22.8454 C   0  0  0  0  0  0  0  0  0  0  0  0
   35.3394   27.0686   20.8613 C   0  0  0  0  0  0  0  0  0  0  0  0
   36.0250   28.0144   21.5888 C   0  0  0  0  0  0  0  0  0  0  0  0
   38.1487   27.2184   20.7945 C   0  0  0  0  0  0  0  0  0  0  0  0
   37.4705   26.2825   20.0489 C   0  0  0  0  0  0  0  0  0  0  0  0
   36.0877   26.2005   20.0928 C   0  0  0  0  0  0  0  0  0  0  0  0
   35.2838   24.9843   19.1370 Cl  0  0  0  0  0  0  0  0  0  0  0  0
   37.4048   28.1064   21.5683 C   0  0  0  0  0  0  0  0  0  0  0  0
   37.8082   29.1436   22.3818 N   0  0  0  0  0  0  0  0  0  0  0  0
   36.4827   32.9529   25.4163 N   0  0  0  0  0  0  0  0  0  0  0  0
   37.0150   32.0696   23.2228 C   0  0  0  0  0  0  0  0  0  0  0  0
   36.2981   33.1475   23.9903 C   0  0  0  0  0  0  0  0  0  0  0  0
   36.4773   30.5243   25.1444 C   0  0  0  0  0  0  0  0  0  0  0  0
   36.6768   30.7283   23.7078 N   0  0  0  0  0  0  0  0  0  0  0  0
   35.8364   31.7164   25.8179 C   0  0  0  0  0  0  0  0  0  0  0  0
   37.4793   32.9010   25.6271 H   0  0  0  0  0  0  0  0  0  0  0  0
   39.6218   27.2996   20.6921 C   0  0  0  0  0  0  0  0  0  0  0  0
   41.8848   26.6775   21.4109 C   0  0  0  0  0  0  0  0  0  0  0  0
   40.1757   28.0370   19.5260 C   0  0  0  0  0  0  0  0  0  0  0  0
   40.4105   26.7500   21.5830 C   0  0  0  0  0  0  0  0  0  0  0  0
   42.2924   26.9912   20.0485 N   0  0  0  0  0  0  0  0  0  0  0  0
   41.6767   28.2091   19.5224 C   0  0  0  0  0  0  0  0  0  0  0  0
   42.0317   26.2110   19.4455 H   0  0  0  0  0  0  0  0  0  0  0  0
   34.1961   29.3382   22.6094 C   0  0  0  0  0  0  0  0  0  0  0  0
   33.5630   30.2847   21.6293 C   0  0  0  0  0  0  0  0  0  0  0  0
   32.8542   29.8412   20.5294 C   0  0  0  0  0  0  0  0  0  0  0  0
   31.5227   30.2443   18.4510 C   0  0  0  0  0  0  0  0  0  0  0  0
   33.7416   31.6390   21.8133 C   0  0  0  0  0  0  0  0  0  0  0  0
   33.2027   32.5605   20.9463 C   0  0  0  0  0  0  0  0  0  0  0  0
   33.3951   34.0271   21.1787 C   0  0  0  0  0  0  0  0  0  0  0  0
   32.4926   32.0788   19.8726 C   0  0  0  0  0  0  0  0  0  0  0  0
   31.9661   32.9665   19.0278 F   0  0  0  0  0  0  0  0  0  0  0  0
   32.3154   30.7347   19.6196 C   0  0  0  0  0  0  0  0  0  0  0  0
 31 30  1  0  0  0
 11 16  1  0  0  0
 11 13  1  0  0  0
 16 14  1  0  0  0
 33 32  1  0  0  0
 30 32  2  0  0  0
 30 29  1  0  0  0
 32 34  1  0  0  0
 13 12  1  0  0  0
 14 15  1  0  0  0
 29 26  2  0  0  0
 34 28  1  0  0  0
 34 27  2  0  0  0
 26 27  1  0  0  0
 26 25  1  0  0  0
 12 15  1  0  0  0
 15  2  1  0  0  0
 25  1  1  0  0  0
  2  1  1  0  0  0
  2 10  2  0  0  0
  1  4  1  0  0  0
 10  9  1  0  0  0
  4  9  2  0  0  0
  4  3  1  0  0  0
  9  5  1  0  0  0
  3  7  2  0  0  0
 21 19  1  0  0  0
 21 18  2  0  0  0
  5 18  1  0  0  0
  5  6  2  0  0  0
  7  6  1  0  0  0
  7  8  1  0  0  0
 19 22  1  0  0  0
 18 20  1  0  0  0
 22 23  1  0  0  0
 20 23  1  0  0  0
 11 17  1  0  0  0
 22 24  1  0  0  0
M  END
> <minimizedAffinity>
-9.49779

$$$$
6D5G_FVD_B_2001


 34 38  0  0  0  0  0  0  0  0999 V2000
   36.1487   28.1291   24.9517 N   0  0  0  0  0  0  0  0  0  0  0  0
   36.4520   28.2100   23.6136 C   0  0  0  0  0  0  0  0  0  0  0  0
   34.1959   29.0196   26.2345 C   0  0  0  0  0  0  0  0  0  0  0  0
   34.9533   28.7678   25.1133 C   0  0  0  0  0  0  0  0  0  0  0  0
   33.3616   29.8591   23.6813 C   0  0  0  0  0  0  0  0  0  0  0  0
   32.6080   30.1322   24.7991 C   0  0  0  0  0  0  0  0  0  0  0  0
   33.0128   29.7066   26.0544 C   0  0  0  0  0  0  0  0  0  0  0  0
   32.0091   30.0696   27.4327 Cl  0  0  0  0  0  0  0  0  0  0  0  0
   34.5625   29.1735   23.8501 C   0  0  0  0  0  0  0  0  0  0  0  0
   35.5149   28.7913   22.9298 N   0  0  0  0  0  0  0  0  0  0  0  0
   39.9620   26.5453   22.0849 N   0  0  0  0  0  0  0  0  0  0  0  0
   38.8371   28.4262   23.1200 C   0  0  0  0  0  0  0  0  0  0  0  0
   40.0413   27.5241   23.1530 C   0  0  0  0  0  0  0  0  0  0  0  0
   37.5293   26.4343   22.2885 C   0  0  0  0  0  0  0  0  0  0  0  0
   37.5821   27.6704   23.0724 N   0  0  0  0  0  0  0  0  0  0  0  0
   38.8312   25.6667   22.3241 C   0  0  0  0  0  0  0  0  0  0  0  0
   39.8393   27.0237   21.1924 H   0  0  0  0  0  0  0  0  0  0  0  0
   32.9158   30.3626   22.3642 C   0  0  0  0  0  0  0  0  0  0  0  0
   32.8962   32.0456   20.5775 C   0  0  0  0  0  0  0  0  0  0  0  0
   32.1375   29.4243   21.5132 C   0  0  0  0  0  0  0  0  0  0  0  0
   33.1895   31.5781   21.9573 C   0  0  0  0  0  0  0  0  0  0  0  0
   32.5764   30.9421   19.6827 N   0  0  0  0  0  0  0  0  0  0  0  0
   31.5906   30.0127   20.2337 C   0  0  0  0  0  0  0  0  0  0  0  0
   33.4339   30.4253   19.4877 H   0  0  0  0  0  0  0  0  0  0  0  0
   36.9688   27.6802   26.0585 C   0  0  0  0  0  0  0  0  0  0  0  0
   36.7938   26.2688   26.5428 C   0  0  0  0  0  0  0  0  0  0  0  0
   35.9609   25.9499   27.5981 C   0  0  0  0  0  0  0  0  0  0  0  0
   34.9202   24.3082   29.1718 C   0  0  0  0  0  0  0  0  0  0  0  0
   37.5299   25.2708   25.9412 C   0  0  0  0  0  0  0  0  0  0  0  0
   37.4298   23.9598   26.3445 C   0  0  0  0  0  0  0  0  0  0  0  0
   38.2261   22.8910   25.6621 C   0  0  0  0  0  0  0  0  0  0  0  0
   36.5797   23.6823   27.3882 C   0  0  0  0  0  0  0  0  0  0  0  0
   36.4766   22.4129   27.7844 F   0  0  0  0  0  0  0  0  0  0  0  0
   35.8491   24.6464   28.0506 C   0  0  0  0  0  0  0  0  0  0  0  0
 31 30  1  0  0  0
 11 16  1  0  0  0
 11 13  1  0  0  0
 16 14  1  0  0  0
 33 32  1  0  0  0
 30 32  2  0  0  0
 30 29  1  0  0  0
 32 34  1  0  0  0
 13 12  1  0  0  0
 14 15  1  0  0  0
 29 26  2  0  0  0
 34 28  1  0  0  0
 34 27  2  0  0  0
 26 27  1  0  0  0
 26 25  1  0  0  0
 12 15  1  0  0  0
 15  2  1  0  0  0
 25  1  1  0  0  0
  2  1  1  0  0  0
  2 10  2  0  0  0
  1  4  1  0  0  0
 10  9  1  0  0  0
  4  9  2  0  0  0
  4  3  1  0  0  0
  9  5  1  0  0  0
  3  7  2  0  0  0
 21 19  1  0  0  0
 21 18  2  0  0  0
  5 18  1  0  0  0
  5  6  2  0  0  0
  7  6  1  0  0  0
  7  8  1  0  0  0
 19 22  1  0  0  0
 18 20  1  0  0  0
 22 23  1  0  0  0
 20 23  1  0  0  0
 11 17  1  0  0  0
 22 24  1  0  0  0
M  END
> <minimizedAffinity>
-8.94680

$$$$
6D5G_FVD_B_2001


 34 38  0  0  0  0  0  0  0  0999 V2000
   36.2121   28.1350   24.9765 N   0  0  0  0  0  0  0  0  0  0  0  0
   36.5125   28.2059   23.6372 C   0  0  0  0  0  0  0  0  0  0  0  0
   34.2539   29.0207   26.2543 C   0  0  0  0  0  0  0  0  0  0  0  0
   35.0116   28.7650   25.1342 C   0  0  0  0  0  0  0  0  0  0  0  0
   33.4084   29.8292   23.6949 C   0  0  0  0  0  0  0  0  0  0  0  0
   32.6542   30.1064   24.8113 C   0  0  0  0  0  0  0  0  0  0  0  0
   33.0647   29.6960   26.0699 C   0  0  0  0  0  0  0  0  0  0  0  0
   32.0602   30.0633   27.4464 Cl  0  0  0  0  0  0  0  0  0  0  0  0
   34.6153   29.1555   23.8680 C   0  0  0  0  0  0  0  0  0  0  0  0
   35.5694   28.7728   22.9496 N   0  0  0  0  0  0  0  0  0  0  0  0
   40.0330   26.5542   22.1183 N   0  0  0  0  0  0  0  0  0  0  0  0
   38.9008   28.4265   23.1613 C   0  0  0  0  0  0  0  0  0  0  0  0
   40.1049   27.5242   23.1949 C   0  0  0  0  0  0  0  0  0  0  0  0
   37.5989   26.4412   22.3049 C   0  0  0  0  0  0  0  0  0  0  0  0
   37.6463   27.6709   23.0992 N   0  0  0  0  0  0  0  0  0  0  0  0
   38.9007   25.6735   22.3429 C   0  0  0  0  0  0  0  0  0  0  0  0
   39.9161   27.0398   21.2290 H   0  0  0  0  0  0  0  0  0  0  0  0
   32.9561   30.3167   22.3739 C   0  0  0  0  0  0  0  0  0  0  0  0
   32.9060   31.9902   20.5790 C   0  0  0  0  0  0  0  0  0  0  0  0
   32.2013   29.3576   21.5249 C   0  0  0  0  0  0  0  0  0  0  0  0
   33.2047   31.5358   21.9620 C   0  0  0  0  0  0  0  0  0  0  0  0
   32.6132   30.8758   19.6885 N   0  0  0  0  0  0  0  0  0  0  0  0
   31.6460   29.9278   20.2408 C   0  0  0  0  0  0  0  0  0  0  0  0
   33.4824   30.3769   19.4988 H   0  0  0  0  0  0  0  0  0  0  0  0
   37.0378   27.7033   26.0861 C   0  0  0  0  0  0  0  0  0  0  0  0
   36.9461   26.2682   26.5208 C   0  0  0  0  0  0  0  0  0  0  0  0
   37.6589   25.2623   25.8969 C   0  0  0  0  0  0  0  0  0  0  0  0
   38.3255   22.8665   25.6307 C   0  0  0  0  0  0  0  0  0  0  0  0
   36.0823   25.9450   27.5452 C   0  0  0  0  0  0  0  0  0  0  0  0
   35.9379   24.6494   27.9832 C   0  0  0  0  0  0  0  0  0  0  0  0
   35.0067   24.3268   29.1106 C   0  0  0  0  0  0  0  0  0  0  0  0
   36.6751   23.6804   27.3457 C   0  0  0  0  0  0  0  0  0  0  0  0
   36.5411   22.4215   27.7656 F   0  0  0  0  0  0  0  0  0  0  0  0
   37.5249   23.9421   26.2914 C   0  0  0  0  0  0  0  0  0  0  0  0
 31 30  1  0  0  0
 11 16  1  0  0  0
 11 13  1  0  0  0
 16 14  1  0  0  0
 33 32  1  0  0  0
 30 32  2  0  0  0
 30 29  1  0  0  0
 32 34  1  0  0  0
 13 12  1  0  0  0
 14 15  1  0  0  0
 29 26  2  0  0  0
 34 28  1  0  0  0
 34 27  2  0  0  0
 26 27  1  0  0  0
 26 25  1  0  0  0
 12 15  1  0  0  0
 15  2  1  0  0  0
 25  1  1  0  0  0
  2  1  1  0  0  0
  2 10  2  0  0  0
  1  4  1  0  0  0
 10  9  1  0  0  0
  4  9  2  0  0  0
  4  3  1  0  0  0
  9  5  1  0  0  0
  3  7  2  0  0  0
 21 19  1  0  0  0
 21 18  2  0  0  0
  5 18  1  0  0  0
  5  6  2  0  0  0
  7  6  1  0  0  0
  7  8  1  0  0  0
 19 22  1  0  0  0
 18 20  1  0  0  0
 22 23  1  0  0  0
 20 23  1  0  0  0
 11 17  1  0  0  0
 22 24  1  0  0  0
M  END
> <minimizedAffinity>
-8.91445

$$$$
6D5G_FVD_B_2001


 34 38  0  0  0  0  0  0  0  0999 V2000
   36.6047   30.7683   24.7023 N   0  0  0  0  0  0  0  0  0  0  0  0
   37.6457   29.8751   24.6157 C   0  0  0  0  0  0  0  0  0  0  0  0
   34.4779   30.6667   26.0131 C   0  0  0  0  0  0  0  0  0  0  0  0
   35.7074   30.2279   25.5774 C   0  0  0  0  0  0  0  0  0  0  0  0
   35.5852   28.2501   26.9369 C   0  0  0  0  0  0  0  0  0  0  0  0
   34.3470   28.6713   27.3626 C   0  0  0  0  0  0  0  0  0  0  0  0
   33.8082   29.8682   26.9177 C   0  0  0  0  0  0  0  0  0  0  0  0
   32.2408   30.3574   27.5032 Cl  0  0  0  0  0  0  0  0  0  0  0  0
   36.2684   29.0427   26.0172 C   0  0  0  0  0  0  0  0  0  0  0  0
   37.4923   28.8605   25.4097 N   0  0  0  0  0  0  0  0  0  0  0  0
   41.0798   30.4528   22.3130 N   0  0  0  0  0  0  0  0  0  0  0  0
   39.7601   31.0496   24.2566 C   0  0  0  0  0  0  0  0  0  0  0  0
   41.1292   30.6933   23.7430 C   0  0  0  0  0  0  0  0  0  0  0  0
   38.8370   29.4988   22.4923 C   0  0  0  0  0  0  0  0  0  0  0  0
   38.7425   30.0839   23.8317 N   0  0  0  0  0  0  0  0  0  0  0  0
   40.2668   29.2783   22.0533 C   0  0  0  0  0  0  0  0  0  0  0  0
   40.6701   31.2614   21.8452 H   0  0  0  0  0  0  0  0  0  0  0  0
   36.1100   26.9490   27.4047 C   0  0  0  0  0  0  0  0  0  0  0  0
   36.1185   24.4945   27.4292 C   0  0  0  0  0  0  0  0  0  0  0  0
   37.3470   26.9792   28.2288 C   0  0  0  0  0  0  0  0  0  0  0  0
   35.5189   25.8166   27.1112 C   0  0  0  0  0  0  0  0  0  0  0  0
   37.5222   24.6059   27.8005 N   0  0  0  0  0  0  0  0  0  0  0  0
   37.7808   25.6472   28.7944 C   0  0  0  0  0  0  0  0  0  0  0  0
   38.0624   24.8186   26.9618 H   0  0  0  0  0  0  0  0  0  0  0  0
   36.3295   31.9453   23.9034 C   0  0  0  0  0  0  0  0  0  0  0  0
   35.2020   31.8809   22.9125 C   0  0  0  0  0  0  0  0  0  0  0  0
   34.6533   30.6826   22.4975 C   0  0  0  0  0  0  0  0  0  0  0  0
   33.0339   29.3497   21.1352 C   0  0  0  0  0  0  0  0  0  0  0  0
   34.7381   33.0584   22.3663 C   0  0  0  0  0  0  0  0  0  0  0  0
   33.7192   33.0712   21.4428 C   0  0  0  0  0  0  0  0  0  0  0  0
   33.2202   34.3652   20.8784 C   0  0  0  0  0  0  0  0  0  0  0  0
   33.1909   31.8593   21.0671 C   0  0  0  0  0  0  0  0  0  0  0  0
   32.2016   31.8637   20.1725 F   0  0  0  0  0  0  0  0  0  0  0  0
   33.6422   30.6498   21.5525 C   0  0  0  0  0  0  0  0  0  0  0  0
 31 30  1  0  0  0
 11 16  1  0  0  0
 11 13  1  0  0  0
 16 14  1  0  0  0
 33 32  1  0  0  0
 30 32  2  0  0  0
 30 29  1  0  0  0
 32 34  1  0  0  0
 13 12  1  0  0  0
 14 15  1  0  0  0
 29 26  2  0  0  0
 34 28  1  0  0  0
 34 27  2  0  0  0
 26 27  1  0  0  0
 26 25  1  0  0  0
 12 15  1  0  0  0
 15  2  1  0  0  0
 25  1  1  0  0  0
  2  1  1  0  0  0
  2 10  2  0  0  0
  1  4  1  0  0  0
 10  9  1  0  0  0
  4  9  2  0  0  0
  4  3  1  0  0  0
  9  5  1  0  0  0
  3  7  2  0  0  0
 21 19  1  0  0  0
 21 18  2  0  0  0
  5 18  1  0  0  0
  5  6  2  0  0  0
  7  6  1  0  0  0
  7  8  1  0  0  0
 19 22  1  0  0  0
 18 20  1  0  0  0
 22 23  1  0  0  0
 20 23  1  0  0  0
 11 17  1  0  0  0
 22 24  1  0  0  0
M  END
> <minimizedAffinity>
-8.81826

$$$$
6D5G_FVD_B_2001


 34 38  0  0  0  0  0  0  0  0999 V2000
   35.8150   27.6914   21.7878 N   0  0  0  0  0  0  0  0  0  0  0  0
   35.5971   27.7957   20.4348 C   0  0  0  0  0  0  0  0  0  0  0  0
   34.8188   28.9589   23.6990 C   0  0  0  0  0  0  0  0  0  0  0  0
   34.9939   28.6069   22.3802 C   0  0  0  0  0  0  0  0  0  0  0  0
   33.3411   30.1881   21.6435 C   0  0  0  0  0  0  0  0  0  0  0  0
   33.1738   30.5600   22.9572 C   0  0  0  0  0  0  0  0  0  0  0  0
   33.8920   29.9447   23.9703 C   0  0  0  0  0  0  0  0  0  0  0  0
   33.6272   30.4481   25.6181 Cl  0  0  0  0  0  0  0  0  0  0  0  0
   34.2796   29.1999   21.3550 C   0  0  0  0  0  0  0  0  0  0  0  0
   34.6678   28.6551   20.1497 N   0  0  0  0  0  0  0  0  0  0  0  0
   37.6946   25.4623   17.6807 N   0  0  0  0  0  0  0  0  0  0  0  0
   37.0944   27.6608   18.5063 C   0  0  0  0  0  0  0  0  0  0  0  0
   38.2161   26.7619   18.0604 C   0  0  0  0  0  0  0  0  0  0  0  0
   35.9642   25.5894   19.4017 C   0  0  0  0  0  0  0  0  0  0  0  0
   36.2434   27.0228   19.5149 N   0  0  0  0  0  0  0  0  0  0  0  0
   37.1370   24.8100   18.8517 C   0  0  0  0  0  0  0  0  0  0  0  0
   36.9660   25.5798   16.9765 H   0  0  0  0  0  0  0  0  0  0  0  0
   32.5844   30.8940   20.5871 C   0  0  0  0  0  0  0  0  0  0  0  0
   32.1393   32.8534   19.1773 C   0  0  0  0  0  0  0  0  0  0  0  0
   31.6020   30.0911   19.8121 C   0  0  0  0  0  0  0  0  0  0  0  0
   32.7648   32.1681   20.3381 C   0  0  0  0  0  0  0  0  0  0  0  0
   31.5868   31.9084   18.2170 N   0  0  0  0  0  0  0  0  0  0  0  0
   30.7583   30.8713   18.8313 C   0  0  0  0  0  0  0  0  0  0  0  0
   32.3591   31.4568   17.7271 H   0  0  0  0  0  0  0  0  0  0  0  0
   36.8376   26.9563   22.5041 C   0  0  0  0  0  0  0  0  0  0  0  0
   37.8628   27.7381   23.2753 C   0  0  0  0  0  0  0  0  0  0  0  0
   38.0924   27.5256   24.6211 C   0  0  0  0  0  0  0  0  0  0  0  0
   39.2781   28.0274   26.7652 C   0  0  0  0  0  0  0  0  0  0  0  0
   38.5590   28.7330   22.6228 C   0  0  0  0  0  0  0  0  0  0  0  0
   39.5007   29.4968   23.2717 C   0  0  0  0  0  0  0  0  0  0  0  0
   40.2571   30.5590   22.5358 C   0  0  0  0  0  0  0  0  0  0  0  0
   39.7093   29.2444   24.6065 C   0  0  0  0  0  0  0  0  0  0  0  0
   40.6219   29.9806   25.2424 F   0  0  0  0  0  0  0  0  0  0  0  0
   39.0146   28.2881   25.3171 C   0  0  0  0  0  0  0  0  0  0  0  0
 31 30  1  0  0  0
 11 16  1  0  0  0
 11 13  1  0  0  0
 16 14  1  0  0  0
 33 32  1  0  0  0
 30 32  2  0  0  0
 30 29  1  0  0  0
 32 34  1  0  0  0
 13 12  1  0  0  0
 14 15  1  0  0  0
 29 26  2  0  0  0
 34 28  1  0  0  0
 34 27  2  0  0  0
 26 27  1  0  0  0
 26 25  1  0  0  0
 12 15  1  0  0  0
 15  2  1  0  0  0
 25  1  1  0  0  0
  2  1  1  0  0  0
  2 10  2  0  0  0
  1  4  1  0  0  0
 10  9  1  0  0  0
  4  9  2  0  0  0
  4  3  1  0  0  0
  9  5  1  0  0  0
  3  7  2  0  0  0
 21 19  1  0  0  0
 21 18  2  0  0  0
  5 18  1  0  0  0
  5  6  2  0  0  0
  7  6  1  0  0  0
  7  8  1  0  0  0
 19 22  1  0  0  0
 18 20  1  0  0  0
 22 23  1  0  0  0
 20 23  1  0  0  0
 11 17  1  0  0  0
 22 24  1  0  0  0
M  END
> <minimizedAffinity>
-8.74716

$$$$
6D5G_FVD_B_2001


 34 38  0  0  0  0  0  0  0  0999 V2000
   36.4096   28.5920   26.2407 N   0  0  0  0  0  0  0  0  0  0  0  0
   37.0056   28.4119   25.0154 C   0  0  0  0  0  0  0  0  0  0  0  0
   34.1146   29.3884   26.8328 C   0  0  0  0  0  0  0  0  0  0  0  0
   35.1392   29.0234   25.9896 C   0  0  0  0  0  0  0  0  0  0  0  0
   33.8036   29.4432   24.0365 C   0  0  0  0  0  0  0  0  0  0  0  0
   32.7808   29.8285   24.8715 C   0  0  0  0  0  0  0  0  0  0  0  0
   32.9301   29.7883   26.2488 C   0  0  0  0  0  0  0  0  0  0  0  0
   31.5938   30.2750   27.2569 Cl  0  0  0  0  0  0  0  0  0  0  0  0
   35.0077   29.0452   24.6130 C   0  0  0  0  0  0  0  0  0  0  0  0
   36.1896   28.6377   24.0322 N   0  0  0  0  0  0  0  0  0  0  0  0
   40.9662   27.1330   24.6887 N   0  0  0  0  0  0  0  0  0  0  0  0
   39.3593   28.9465   24.6239 C   0  0  0  0  0  0  0  0  0  0  0  0
   40.6854   28.4767   25.1586 C   0  0  0  0  0  0  0  0  0  0  0  0
   38.5955   26.5456   24.7731 C   0  0  0  0  0  0  0  0  0  0  0  0
   38.2896   27.9747   24.8691 N   0  0  0  0  0  0  0  0  0  0  0  0
   39.9913   26.2160   25.2514 C   0  0  0  0  0  0  0  0  0  0  0  0
   40.9091   27.1089   23.6706 H   0  0  0  0  0  0  0  0  0  0  0  0
   33.6195   29.5359   22.5721 C   0  0  0  0  0  0  0  0  0  0  0  0
   34.0230   28.7550   20.2802 C   0  0  0  0  0  0  0  0  0  0  0  0
   32.6104   30.5111   22.0810 C   0  0  0  0  0  0  0  0  0  0  0  0
   34.3091   28.7967   21.7379 C   0  0  0  0  0  0  0  0  0  0  0  0
   32.7392   29.3620   19.9574 N   0  0  0  0  0  0  0  0  0  0  0  0
   32.5407   30.6703   20.5803 C   0  0  0  0  0  0  0  0  0  0  0  0
   31.9978   28.7374   20.2744 H   0  0  0  0  0  0  0  0  0  0  0  0
   36.9971   28.5701   27.5650 C   0  0  0  0  0  0  0  0  0  0  0  0
   37.3034   27.2349   28.1818 C   0  0  0  0  0  0  0  0  0  0  0  0
   36.4840   26.1365   28.0058 C   0  0  0  0  0  0  0  0  0  0  0  0
   35.8924   23.7379   28.3950 C   0  0  0  0  0  0  0  0  0  0  0  0
   38.4147   27.1229   28.9896 C   0  0  0  0  0  0  0  0  0  0  0  0
   38.7457   25.9346   29.5977 C   0  0  0  0  0  0  0  0  0  0  0  0
   39.9688   25.8338   30.4555 C   0  0  0  0  0  0  0  0  0  0  0  0
   37.9126   24.8622   29.3859 C   0  0  0  0  0  0  0  0  0  0  0  0
   38.2275   23.7060   29.9716 F   0  0  0  0  0  0  0  0  0  0  0  0
   36.7683   24.9283   28.6189 C   0  0  0  0  0  0  0  0  0  0  0  0
 31 30  1  0  0  0
 11 16  1  0  0  0
 11 13  1  0  0  0
 16 14  1  0  0  0
 33 32  1  0  0  0
 30 32  2  0  0  0
 30 29  1  0  0  0
 32 34  1  0  0  0
 13 12  1  0  0  0
 14 15  1  0  0  0
 29 26  2  0  0  0
 34 28  1  0  0  0
 34 27  2  0  0  0
 26 27  1  0  0  0
 26 25  1  0  0  0
 12 15  1  0  0  0
 15  2  1  0  0  0
 25  1  1  0  0  0
  2  1  1  0  0  0
  2 10  2  0  0  0
  1  4  1  0  0  0
 10  9  1  0  0  0
  4  9  2  0  0  0
  4  3  1  0  0  0
  9  5  1  0  0  0
  3  7  2  0  0  0
 21 19  1  0  0  0
 21 18  2  0  0  0
  5 18  1  0  0  0
  5  6  2  0  0  0
  7  6  1  0  0  0
  7  8  1  0  0  0
 19 22  1  0  0  0
 18 20  1  0  0  0
 22 23  1  0  0  0
 20 23  1  0  0  0
 11 17  1  0  0  0
 22 24  1  0  0  0
M  END
> <minimizedAffinity>
-8.72486

$$$$
6D5G_FVD_B_2001


 34 38  0  0  0  0  0  0  0  0999 V2000
   36.6026   27.8494   24.3723 N   0  0  0  0  0  0  0  0  0  0  0  0
   35.8107   27.7025   25.4860 C   0  0  0  0  0  0  0  0  0  0  0  0
   38.5408   26.4927   23.5633 C   0  0  0  0  0  0  0  0  0  0  0  0
   37.4998   26.8212   24.4015 C   0  0  0  0  0  0  0  0  0  0  0  0
   37.9257   24.9297   25.8211 C   0  0  0  0  0  0  0  0  0  0  0  0
   38.9802   24.6051   24.9998 C   0  0  0  0  0  0  0  0  0  0  0  0
   39.2741   25.3676   23.8804 C   0  0  0  0  0  0  0  0  0  0  0  0
   40.6139   24.8991   22.8683 Cl  0  0  0  0  0  0  0  0  0  0  0  0
   37.1823   26.0679   25.5171 C   0  0  0  0  0  0  0  0  0  0  0  0
   36.1064   26.6368   26.1644 N   0  0  0  0  0  0  0  0  0  0  0  0
   32.7624   30.4082   26.3898 N   0  0  0  0  0  0  0  0  0  0  0  0
   34.8447   29.3410   27.0227 C   0  0  0  0  0  0  0  0  0  0  0  0
   34.1009   30.6434   26.8980 C   0  0  0  0  0  0  0  0  0  0  0  0
   33.5521   28.5589   25.0010 C   0  0  0  0  0  0  0  0  0  0  0  0
   34.7869   28.5518   25.7888 N   0  0  0  0  0  0  0  0  0  0  0  0
   32.8487   29.8967   25.0337 C   0  0  0  0  0  0  0  0  0  0  0  0
   32.2878   29.7265   26.9818 H   0  0  0  0  0  0  0  0  0  0  0  0
   37.6668   24.1138   27.0271 C   0  0  0  0  0  0  0  0  0  0  0  0
   37.9060   23.6493   29.4255 C   0  0  0  0  0  0  0  0  0  0  0  0
   36.6816   23.0085   26.8932 C   0  0  0  0  0  0  0  0  0  0  0  0
   38.2728   24.3470   28.1657 C   0  0  0  0  0  0  0  0  0  0  0  0
   36.6380   22.9427   29.3100 N   0  0  0  0  0  0  0  0  0  0  0  0
   36.5382   22.1187   28.1057 C   0  0  0  0  0  0  0  0  0  0  0  0
   35.8851   23.6307   29.2940 H   0  0  0  0  0  0  0  0  0  0  0  0
   36.6846   28.9529   23.4371 C   0  0  0  0  0  0  0  0  0  0  0  0
   36.0382   28.7897   22.0908 C   0  0  0  0  0  0  0  0  0  0  0  0
   34.7249   29.1489   21.8555 C   0  0  0  0  0  0  0  0  0  0  0  0
   32.7300   29.3726   20.3637 C   0  0  0  0  0  0  0  0  0  0  0  0
   36.7712   28.2160   21.0742 C   0  0  0  0  0  0  0  0  0  0  0  0
   36.2370   28.0231   19.8218 C   0  0  0  0  0  0  0  0  0  0  0  0
   37.0602   27.4149   18.7289 C   0  0  0  0  0  0  0  0  0  0  0  0
   34.9320   28.4068   19.6249 C   0  0  0  0  0  0  0  0  0  0  0  0
   34.4071   28.2238   18.4124 F   0  0  0  0  0  0  0  0  0  0  0  0
   34.1415   28.9501   20.6159 C   0  0  0  0  0  0  0  0  0  0  0  0
 31 30  1  0  0  0
 11 16  1  0  0  0
 11 13  1  0  0  0
 16 14  1  0  0  0
 33 32  1  0  0  0
 30 32  2  0  0  0
 30 29  1  0  0  0
 32 34  1  0  0  0
 13 12  1  0  0  0
 14 15  1  0  0  0
 29 26  2  0  0  0
 34 28  1  0  0  0
 34 27  2  0  0  0
 26 27  1  0  0  0
 26 25  1  0  0  0
 12 15  1  0  0  0
 15  2  1  0  0  0
 25  1  1  0  0  0
  2  1  1  0  0  0
  2 10  2  0  0  0
  1  4  1  0  0  0
 10  9  1  0  0  0
  4  9  2  0  0  0
  4  3  1  0  0  0
  9  5  1  0  0  0
  3  7  2  0  0  0
 21 19  1  0  0  0
 21 18  2  0  0  0
  5 18  1  0  0  0
  5  6  2  0  0  0
  7  6  1  0  0  0
  7  8  1  0  0  0
 19 22  1  0  0  0
 18 20  1  0  0  0
 22 23  1  0  0  0
 20 23  1  0  0  0
 11 17  1  0  0  0
 22 24  1  0  0  0
M  END
> <minimizedAffinity>
-8.71139

$$$$
