3ZK6_H1I_A_1198


 43 47  0  0  0  0  0  0  0  0999 V2000
   22.5805   48.3598    1.4759 C   0  0  0  0  0  0  0  0  0  0  0  0
   22.9128   47.7829    0.2631 C   0  0  0  0  0  0  0  0  0  0  0  0
   21.9723   46.9975   -0.3807 C   0  0  0  0  0  0  0  0  0  0  0  0
   20.7088   46.7874    0.1603 C   0  0  0  0  0  0  0  0  0  0  0  0
   20.3467   47.3996    1.3632 C   0  0  0  0  0  0  0  0  0  0  0  0
   21.3045   48.1870    2.0158 C   0  0  0  0  0  0  0  0  0  0  0  0
   25.1959   50.6133    2.4480 C   0  0  0  0  0  0  0  0  0  0  0  0
   24.6997   50.4224    3.7205 C   0  0  0  0  0  0  0  0  0  0  0  0
   23.6430   49.5357    3.5273 C   0  0  0  0  0  0  0  0  0  0  0  0
   23.5604   49.2349    2.1629 C   0  0  0  0  0  0  0  0  0  0  0  0
   24.5349   49.9113    1.4949 O   0  0  0  0  0  0  0  0  0  0  0  0
   26.7784   50.9783    0.7733 N   0  0  0  0  0  0  0  0  0  0  0  0
   26.2563   51.3997    1.8281 C   0  0  0  0  0  0  0  0  0  0  0  0
   26.5977   52.7330    2.4066 C   0  0  0  0  0  0  0  0  0  0  0  0
   27.7130   51.6796    0.1828 N   0  0  0  0  0  0  0  0  0  0  0  0
   27.9627   52.5816    0.4881 H   0  0  0  0  0  0  0  0  0  0  0  0
   31.0293   49.9658   -4.3444 C   0  0  0  0  0  0  0  0  0  0  0  0
   30.1372   48.9065   -4.4451 C   0  0  0  0  0  0  0  0  0  0  0  0
   29.0780   48.8061   -3.5513 C   0  0  0  0  0  0  0  0  0  0  0  0
   28.8975   49.7623   -2.5602 C   0  0  0  0  0  0  0  0  0  0  0  0
   29.7748   50.8344   -2.4696 C   0  0  0  0  0  0  0  0  0  0  0  0
   30.8401   50.9297   -3.3623 C   0  0  0  0  0  0  0  0  0  0  0  0
   29.3945   51.6260   -1.4296 N   0  0  0  0  0  0  0  0  0  0  0  0
   28.3047   51.0943   -0.8579 C   0  0  0  0  0  0  0  0  0  0  0  0
   27.6038   49.6291   -1.4668 S   0  0  0  0  0  0  0  0  0  0  0  0
   18.8905   47.1633    2.0089 S   0  0  0  0  0  0  0  0  0  0  0  0
   18.6585   45.7650    2.1918 O   0  0  0  0  0  0  0  0  0  0  0  0
   18.8464   47.7969    3.2966 O   0  0  0  0  0  0  0  0  0  0  0  0
   17.7785   47.6877    1.1240 N   0  0  0  0  0  0  0  0  0  0  0  0
   17.4777   48.9800    1.0629 C   0  0  0  0  0  0  0  0  0  0  0  0
   18.0712   49.8431    1.6924 O   0  0  0  0  0  0  0  0  0  0  0  0
   17.2630   47.0513    0.5776 H   0  0  0  0  0  0  0  0  0  0  0  0
   16.3458   49.3599    0.1344 C   0  0  0  0  0  0  0  0  0  0  0  0
   16.6669   48.9388   -1.2952 C   0  0  0  0  0  0  0  0  0  0  0  0
   17.9651   49.5997   -1.7325 C   0  0  0  0  0  0  0  0  0  0  0  0
   18.3699   49.2016   -3.1460 C   0  0  0  0  0  0  0  0  0  0  0  0
   19.4864   48.1567   -3.1105 C   0  0  0  0  0  0  0  0  0  0  0  0
   19.0209   46.8752   -3.7712 C   0  0  0  0  0  0  0  0  0  0  0  0
   19.9072   45.8225   -3.9582 C   0  0  0  0  0  0  0  0  0  0  0  0
   19.4857   44.6468   -4.5723 C   0  0  0  0  0  0  0  0  0  0  0  0
   18.1649   44.5222   -4.9975 C   0  0  0  0  0  0  0  0  0  0  0  0
   17.2780   45.5769   -4.8114 C   0  0  0  0  0  0  0  0  0  0  0  0
   17.7070   46.7486   -4.2002 C   0  0  0  0  0  0  0  0  0  0  0  0
 17 18  1  0  0  0
 17 22  2  0  0  0
 18 19  2  0  0  0
 19 20  1  0  0  0
 20 21  2  0  0  0
 20 25  1  0  0  0
 21 22  1  0  0  0
 21 23  1  0  0  0
 23 24  2  0  0  0
 24 25  1  0  0  0
 24 15  1  0  0  0
 15 12  1  0  0  0
 12 13  2  0  0  0
 13 14  1  0  0  0
 13  7  1  0  0  0
  7  8  2  0  0  0
  7 11  1  0  0  0
  8  9  1  0  0  0
  9 10  2  0  0  0
 10 11  1  0  0  0
 10  1  1  0  0  0
  1  2  1  0  0  0
  1  6  2  0  0  0
  2  3  2  0  0  0
  3  4  1  0  0  0
  4  5  2  0  0  0
  5  6  1  0  0  0
  5 26  1  0  0  0
 26 27  2  0  0  0
 26 28  2  0  0  0
 26 29  1  0  0  0
 29 30  1  0  0  0
 30 31  2  0  0  0
 30 33  1  0  0  0
 33 34  1  0  0  0
 34 35  1  0  0  0
 35 36  1  0  0  0
 36 37  1  0  0  0
 37 38  1  0  0  0
 38 39  1  0  0  0
 38 43  2  0  0  0
 39 40  2  0  0  0
 40 41  1  0  0  0
 41 42  2  0  0  0
 42 43  1  0  0  0
 15 16  1  0  0  0
 29 32  1  0  0  0
M  END
> <minimizedAffinity>
-11.49783

$$$$
3ZK6_H1I_A_1198


 43 47  0  0  0  0  0  0  0  0999 V2000
   22.4150   48.1833    1.3374 C   0  0  0  0  0  0  0  0  0  0  0  0
   22.9044   47.5779    0.1936 C   0  0  0  0  0  0  0  0  0  0  0  0
   22.0701   46.7392   -0.5250 C   0  0  0  0  0  0  0  0  0  0  0  0
   20.7590   46.5036   -0.1264 C   0  0  0  0  0  0  0  0  0  0  0  0
   20.2401   47.1429    1.0026 C   0  0  0  0  0  0  0  0  0  0  0  0
   21.0904   47.9846    1.7319 C   0  0  0  0  0  0  0  0  0  0  0  0
   24.8551   50.5261    2.5292 C   0  0  0  0  0  0  0  0  0  0  0  0
   24.1727   50.4201    3.7230 C   0  0  0  0  0  0  0  0  0  0  0  0
   23.1567   49.5113    3.4365 C   0  0  0  0  0  0  0  0  0  0  0  0
   23.2806   49.1145    2.1000 C   0  0  0  0  0  0  0  0  0  0  0  0
   24.3450   49.7521    1.5399 O   0  0  0  0  0  0  0  0  0  0  0  0
   26.4962   50.9446    0.9249 N   0  0  0  0  0  0  0  0  0  0  0  0
   25.9973   51.2778    2.0216 C   0  0  0  0  0  0  0  0  0  0  0  0
   26.4539   52.4874    2.7680 C   0  0  0  0  0  0  0  0  0  0  0  0
   27.5044   51.6208    0.4347 N   0  0  0  0  0  0  0  0  0  0  0  0
   27.7877   52.4853    0.8110 H   0  0  0  0  0  0  0  0  0  0  0  0
   30.9211   50.0440   -4.0675 C   0  0  0  0  0  0  0  0  0  0  0  0
   30.0505   48.9703   -4.1996 C   0  0  0  0  0  0  0  0  0  0  0  0
   28.9798   48.8356   -3.3242 C   0  0  0  0  0  0  0  0  0  0  0  0
   28.7664   49.7717   -2.3205 C   0  0  0  0  0  0  0  0  0  0  0  0
   29.6220   50.8580   -2.1986 C   0  0  0  0  0  0  0  0  0  0  0  0
   30.6990   50.9877   -3.0729 C   0  0  0  0  0  0  0  0  0  0  0  0
   29.2112   51.6250   -1.1518 N   0  0  0  0  0  0  0  0  0  0  0  0
   28.1228   51.0639   -0.6061 C   0  0  0  0  0  0  0  0  0  0  0  0
   27.4587   49.5965   -1.2498 S   0  0  0  0  0  0  0  0  0  0  0  0
   18.7263   46.8781    1.4837 S   0  0  0  0  0  0  0  0  0  0  0  0
   18.7201   46.3715    2.8200 O   0  0  0  0  0  0  0  0  0  0  0  0
   18.0123   48.1238    1.4736 O   0  0  0  0  0  0  0  0  0  0  0  0
   18.0190   45.8570    0.6166 N   0  0  0  0  0  0  0  0  0  0  0  0
   17.0181   46.1911   -0.1903 C   0  0  0  0  0  0  0  0  0  0  0  0
   16.5994   47.3328   -0.3114 O   0  0  0  0  0  0  0  0  0  0  0  0
   18.3099   44.9172    0.6522 H   0  0  0  0  0  0  0  0  0  0  0  0
   16.4081   45.0683   -0.9993 C   0  0  0  0  0  0  0  0  0  0  0  0
   17.4962   44.1349   -1.5180 C   0  0  0  0  0  0  0  0  0  0  0  0
   17.1113   43.6374   -2.9028 C   0  0  0  0  0  0  0  0  0  0  0  0
   16.3875   44.7003   -3.7192 C   0  0  0  0  0  0  0  0  0  0  0  0
   17.3582   45.3980   -4.6734 C   0  0  0  0  0  0  0  0  0  0  0  0
   17.8644   46.6838   -4.0522 C   0  0  0  0  0  0  0  0  0  0  0  0
   19.2087   46.8250   -3.7334 C   0  0  0  0  0  0  0  0  0  0  0  0
   19.6762   48.0014   -3.1550 C   0  0  0  0  0  0  0  0  0  0  0  0
   18.7916   49.0466   -2.8987 C   0  0  0  0  0  0  0  0  0  0  0  0
   17.4454   48.9045   -3.2166 C   0  0  0  0  0  0  0  0  0  0  0  0
   16.9856   47.7260   -3.7913 C   0  0  0  0  0  0  0  0  0  0  0  0
 17 18  1  0  0  0
 17 22  2  0  0  0
 18 19  2  0  0  0
 19 20  1  0  0  0
 20 21  2  0  0  0
 20 25  1  0  0  0
 21 22  1  0  0  0
 21 23  1  0  0  0
 23 24  2  0  0  0
 24 25  1  0  0  0
 24 15  1  0  0  0
 15 12  1  0  0  0
 12 13  2  0  0  0
 13 14  1  0  0  0
 13  7  1  0  0  0
  7  8  2  0  0  0
  7 11  1  0  0  0
  8  9  1  0  0  0
  9 10  2  0  0  0
 10 11  1  0  0  0
 10  1  1  0  0  0
  1  2  1  0  0  0
  1  6  2  0  0  0
  2  3  2  0  0  0
  3  4  1  0  0  0
  4  5  2  0  0  0
  5  6  1  0  0  0
  5 26  1  0  0  0
 26 27  2  0  0  0
 26 28  2  0  0  0
 26 29  1  0  0  0
 29 30  1  0  0  0
 30 31  2  0  0  0
 30 33  1  0  0  0
 33 34  1  0  0  0
 34 35  1  0  0  0
 35 36  1  0  0  0
 36 37  1  0  0  0
 37 38  1  0  0  0
 38 39  1  0  0  0
 38 43  2  0  0  0
 39 40  2  0  0  0
 40 41  1  0  0  0
 41 42  2  0  0  0
 42 43  1  0  0  0
 15 16  1  0  0  0
 29 32  1  0  0  0
M  END
> <minimizedAffinity>
-11.15586

$$$$
3ZK6_H1I_A_1198


 43 47  0  0  0  0  0  0  0  0999 V2000
   20.8417   47.6707    1.4581 C   0  0  0  0  0  0  0  0  0  0  0  0
   21.6872   47.4584    0.3838 C   0  0  0  0  0  0  0  0  0  0  0  0
   22.9717   47.9716    0.4357 C   0  0  0  0  0  0  0  0  0  0  0  0
   23.4255   48.6822    1.5413 C   0  0  0  0  0  0  0  0  0  0  0  0
   22.5952   48.8660    2.6501 C   0  0  0  0  0  0  0  0  0  0  0  0
   21.2930   48.3522    2.5901 C   0  0  0  0  0  0  0  0  0  0  0  0
   17.7716   45.9401    0.7921 C   0  0  0  0  0  0  0  0  0  0  0  0
   17.3520   46.5134    1.9742 C   0  0  0  0  0  0  0  0  0  0  0  0
   18.4573   47.2542    2.3861 C   0  0  0  0  0  0  0  0  0  0  0  0
   19.4747   47.0970    1.4379 C   0  0  0  0  0  0  0  0  0  0  0  0
   19.0384   46.2753    0.4442 O   0  0  0  0  0  0  0  0  0  0  0  0
   17.4587   45.2445   -1.4125 N   0  0  0  0  0  0  0  0  0  0  0  0
   17.2151   45.0326   -0.2048 C   0  0  0  0  0  0  0  0  0  0  0  0
   16.4763   43.8200    0.2563 C   0  0  0  0  0  0  0  0  0  0  0  0
   16.9935   44.4286   -2.3246 N   0  0  0  0  0  0  0  0  0  0  0  0
   16.0759   44.0736   -2.2907 H   0  0  0  0  0  0  0  0  0  0  0  0
   20.5614   41.9712   -6.2820 C   0  0  0  0  0  0  0  0  0  0  0  0
   20.8016   43.2733   -6.7004 C   0  0  0  0  0  0  0  0  0  0  0  0
   20.1639   44.3327   -6.0666 C   0  0  0  0  0  0  0  0  0  0  0  0
   19.2922   44.1021   -5.0101 C   0  0  0  0  0  0  0  0  0  0  0  0
   19.0659   42.8034   -4.5749 C   0  0  0  0  0  0  0  0  0  0  0  0
   19.7009   41.7419   -5.2160 C   0  0  0  0  0  0  0  0  0  0  0  0
   18.1825   42.8351   -3.5399 N   0  0  0  0  0  0  0  0  0  0  0  0
   17.8416   44.1095   -3.3017 C   0  0  0  0  0  0  0  0  0  0  0  0
   18.5111   45.4024   -4.2445 S   0  0  0  0  0  0  0  0  0  0  0  0
   23.1004   49.6914    3.9373 S   0  0  0  0  0  0  0  0  0  0  0  0
   22.3225   50.8804    4.0911 O   0  0  0  0  0  0  0  0  0  0  0  0
   22.9168   48.8814    5.1085 O   0  0  0  0  0  0  0  0  0  0  0  0
   24.5483   50.1190    3.8126 N   0  0  0  0  0  0  0  0  0  0  0  0
   24.8913   51.3758    3.5533 C   0  0  0  0  0  0  0  0  0  0  0  0
   24.0835   52.2816    3.4104 O   0  0  0  0  0  0  0  0  0  0  0  0
   25.2566   49.4449    3.9273 H   0  0  0  0  0  0  0  0  0  0  0  0
   26.3742   51.6584    3.4595 C   0  0  0  0  0  0  0  0  0  0  0  0
   26.7310   52.1691    2.0681 C   0  0  0  0  0  0  0  0  0  0  0  0
   26.3595   51.1145    1.0368 C   0  0  0  0  0  0  0  0  0  0  0  0
   27.5719   50.6023    0.2701 C   0  0  0  0  0  0  0  0  0  0  0  0
   27.2162   50.3609   -1.1979 C   0  0  0  0  0  0  0  0  0  0  0  0
   28.4783   50.2739   -2.0315 C   0  0  0  0  0  0  0  0  0  0  0  0
   28.6340   49.2534   -2.9607 C   0  0  0  0  0  0  0  0  0  0  0  0
   29.7954   49.1651   -3.7225 C   0  0  0  0  0  0  0  0  0  0  0  0
   30.8064   50.1090   -3.5565 C   0  0  0  0  0  0  0  0  0  0  0  0
   30.6509   51.1297   -2.6251 C   0  0  0  0  0  0  0  0  0  0  0  0
   29.4898   51.2097   -1.8662 C   0  0  0  0  0  0  0  0  0  0  0  0
 17 18  1  0  0  0
 17 22  2  0  0  0
 18 19  2  0  0  0
 19 20  1  0  0  0
 20 21  2  0  0  0
 20 25  1  0  0  0
 21 22  1  0  0  0
 21 23  1  0  0  0
 23 24  2  0  0  0
 24 25  1  0  0  0
 24 15  1  0  0  0
 15 12  1  0  0  0
 12 13  2  0  0  0
 13 14  1  0  0  0
 13  7  1  0  0  0
  7  8  2  0  0  0
  7 11  1  0  0  0
  8  9  1  0  0  0
  9 10  2  0  0  0
 10 11  1  0  0  0
 10  1  1  0  0  0
  1  2  1  0  0  0
  1  6  2  0  0  0
  2  3  2  0  0  0
  3  4  1  0  0  0
  4  5  2  0  0  0
  5  6  1  0  0  0
  5 26  1  0  0  0
 26 27  2  0  0  0
 26 28  2  0  0  0
 26 29  1  0  0  0
 29 30  1  0  0  0
 30 31  2  0  0  0
 30 33  1  0  0  0
 33 34  1  0  0  0
 34 35  1  0  0  0
 35 36  1  0  0  0
 36 37  1  0  0  0
 37 38  1  0  0  0
 38 39  1  0  0  0
 38 43  2  0  0  0
 39 40  2  0  0  0
 40 41  1  0  0  0
 41 42  2  0  0  0
 42 43  1  0  0  0
 15 16  1  0  0  0
 29 32  1  0  0  0
M  END
> <minimizedAffinity>
-10.45875

$$$$
3ZK6_H1I_A_1198


 43 47  0  0  0  0  0  0  0  0999 V2000
   21.0412   48.7087    2.5505 C   0  0  0  0  0  0  0  0  0  0  0  0
   19.8293   48.5939    3.2079 C   0  0  0  0  0  0  0  0  0  0  0  0
   19.6473   49.2834    4.3943 C   0  0  0  0  0  0  0  0  0  0  0  0
   20.6480   50.0884    4.9271 C   0  0  0  0  0  0  0  0  0  0  0  0
   21.8603   50.2463    4.2503 C   0  0  0  0  0  0  0  0  0  0  0  0
   22.0436   49.5401    3.0541 C   0  0  0  0  0  0  0  0  0  0  0  0
   20.8140   47.1891   -0.6903 C   0  0  0  0  0  0  0  0  0  0  0  0
   22.1561   46.9277   -0.5103 C   0  0  0  0  0  0  0  0  0  0  0  0
   22.4253   47.4627    0.7472 C   0  0  0  0  0  0  0  0  0  0  0  0
   21.2425   48.0083    1.2594 C   0  0  0  0  0  0  0  0  0  0  0  0
   20.2397   47.8325    0.3558 O   0  0  0  0  0  0  0  0  0  0  0  0
   19.3586   45.8209   -1.8952 N   0  0  0  0  0  0  0  0  0  0  0  0
   19.8201   46.9716   -1.7354 C   0  0  0  0  0  0  0  0  0  0  0  0
   19.3032   48.1482   -2.4952 C   0  0  0  0  0  0  0  0  0  0  0  0
   18.4452   45.6056   -2.8082 N   0  0  0  0  0  0  0  0  0  0  0  0
   17.5530   46.0194   -2.7643 H   0  0  0  0  0  0  0  0  0  0  0  0
   18.9074   41.8660   -7.3062 C   0  0  0  0  0  0  0  0  0  0  0  0
   20.2776   42.0180   -7.1390 C   0  0  0  0  0  0  0  0  0  0  0  0
   20.7646   42.8578   -6.1449 C   0  0  0  0  0  0  0  0  0  0  0  0
   19.8920   43.5425   -5.3089 C   0  0  0  0  0  0  0  0  0  0  0  0
   18.5219   43.3767   -5.4589 C   0  0  0  0  0  0  0  0  0  0  0  0
   18.0353   42.5395   -6.4606 C   0  0  0  0  0  0  0  0  0  0  0  0
   17.8830   44.1443   -4.5341 N   0  0  0  0  0  0  0  0  0  0  0  0
   18.8005   44.7904   -3.8007 C   0  0  0  0  0  0  0  0  0  0  0  0
   20.4952   44.5728   -4.0999 S   0  0  0  0  0  0  0  0  0  0  0  0
   23.0337   51.1691    4.8544 S   0  0  0  0  0  0  0  0  0  0  0  0
   22.6890   52.5493    4.7174 O   0  0  0  0  0  0  0  0  0  0  0  0
   23.1767   50.8799    6.2535 O   0  0  0  0  0  0  0  0  0  0  0  0
   24.3515   50.9654    4.1356 N   0  0  0  0  0  0  0  0  0  0  0  0
   25.3785   51.7914    4.3007 C   0  0  0  0  0  0  0  0  0  0  0  0
   25.3539   52.7608    5.0445 O   0  0  0  0  0  0  0  0  0  0  0  0
   24.4498   50.1973    3.5277 H   0  0  0  0  0  0  0  0  0  0  0  0
   26.6326   51.4632    3.5217 C   0  0  0  0  0  0  0  0  0  0  0  0
   26.5274   51.9944    2.0965 C   0  0  0  0  0  0  0  0  0  0  0  0
   26.4736   50.8229    1.1279 C   0  0  0  0  0  0  0  0  0  0  0  0
   27.4170   51.0052   -0.0540 C   0  0  0  0  0  0  0  0  0  0  0  0
   27.7755   49.6512   -0.6688 C   0  0  0  0  0  0  0  0  0  0  0  0
   28.8353   49.8290   -1.7367 C   0  0  0  0  0  0  0  0  0  0  0  0
   29.7577   50.8630   -1.6417 C   0  0  0  0  0  0  0  0  0  0  0  0
   30.7277   51.0347   -2.6249 C   0  0  0  0  0  0  0  0  0  0  0  0
   30.7778   50.1612   -3.7089 C   0  0  0  0  0  0  0  0  0  0  0  0
   29.8532   49.1270   -3.8046 C   0  0  0  0  0  0  0  0  0  0  0  0
   28.8860   48.9635   -2.8206 C   0  0  0  0  0  0  0  0  0  0  0  0
 17 18  1  0  0  0
 17 22  2  0  0  0
 18 19  2  0  0  0
 19 20  1  0  0  0
 20 21  2  0  0  0
 20 25  1  0  0  0
 21 22  1  0  0  0
 21 23  1  0  0  0
 23 24  2  0  0  0
 24 25  1  0  0  0
 24 15  1  0  0  0
 15 12  1  0  0  0
 12 13  2  0  0  0
 13 14  1  0  0  0
 13  7  1  0  0  0
  7  8  2  0  0  0
  7 11  1  0  0  0
  8  9  1  0  0  0
  9 10  2  0  0  0
 10 11  1  0  0  0
 10  1  1  0  0  0
  1  2  1  0  0  0
  1  6  2  0  0  0
  2  3  2  0  0  0
  3  4  1  0  0  0
  4  5  2  0  0  0
  5  6  1  0  0  0
  5 26  1  0  0  0
 26 27  2  0  0  0
 26 28  2  0  0  0
 26 29  1  0  0  0
 29 30  1  0  0  0
 30 31  2  0  0  0
 30 33  1  0  0  0
 33 34  1  0  0  0
 34 35  1  0  0  0
 35 36  1  0  0  0
 36 37  1  0  0  0
 37 38  1  0  0  0
 38 39  1  0  0  0
 38 43  2  0  0  0
 39 40  2  0  0  0
 40 41  1  0  0  0
 41 42  2  0  0  0
 42 43  1  0  0  0
 15 16  1  0  0  0
 29 32  1  0  0  0
M  END
> <minimizedAffinity>
-10.32281

$$$$
3ZK6_H1I_A_1198


 43 47  0  0  0  0  0  0  0  0999 V2000
   19.1696   47.0783    0.2651 C   0  0  0  0  0  0  0  0  0  0  0  0
   18.1653   47.9942    0.5233 C   0  0  0  0  0  0  0  0  0  0  0  0
   16.8532   47.6324    0.2715 C   0  0  0  0  0  0  0  0  0  0  0  0
   16.5291   46.3740   -0.2231 C   0  0  0  0  0  0  0  0  0  0  0  0
   17.5307   45.4256   -0.4470 C   0  0  0  0  0  0  0  0  0  0  0  0
   18.8583   45.7986   -0.1988 C   0  0  0  0  0  0  0  0  0  0  0  0
   22.3027   48.1442    1.6476 C   0  0  0  0  0  0  0  0  0  0  0  0
   22.8262   47.6923    0.4544 C   0  0  0  0  0  0  0  0  0  0  0  0
   21.7082   47.2316   -0.2370 C   0  0  0  0  0  0  0  0  0  0  0  0
   20.5778   47.4330    0.5635 C   0  0  0  0  0  0  0  0  0  0  0  0
   20.9572   48.0046    1.7393 O   0  0  0  0  0  0  0  0  0  0  0  0
   22.3776   48.3164    3.9728 N   0  0  0  0  0  0  0  0  0  0  0  0
   22.8180   48.7317    2.8791 C   0  0  0  0  0  0  0  0  0  0  0  0
   23.9338   49.7199    2.7949 C   0  0  0  0  0  0  0  0  0  0  0  0
   22.8441   48.8084    5.0928 N   0  0  0  0  0  0  0  0  0  0  0  0
   23.8080   48.8362    5.2914 H   0  0  0  0  0  0  0  0  0  0  0  0
   18.0841   50.4431    8.1094 C   0  0  0  0  0  0  0  0  0  0  0  0
   18.9881   50.9643    9.0256 C   0  0  0  0  0  0  0  0  0  0  0  0
   20.3532   50.8438    8.7963 C   0  0  0  0  0  0  0  0  0  0  0  0
   20.8240   50.2124    7.6522 C   0  0  0  0  0  0  0  0  0  0  0  0
   19.9234   49.7089    6.7234 C   0  0  0  0  0  0  0  0  0  0  0  0
   18.5551   49.8246    6.9583 C   0  0  0  0  0  0  0  0  0  0  0  0
   20.6193   49.1415    5.7004 N   0  0  0  0  0  0  0  0  0  0  0  0
   21.9308   49.2691    5.9468 C   0  0  0  0  0  0  0  0  0  0  0  0
   22.4948   50.0630    7.3822 S   0  0  0  0  0  0  0  0  0  0  0  0
   17.1760   43.9651   -1.0254 S   0  0  0  0  0  0  0  0  0  0  0  0
   17.7076   42.9563   -0.1639 O   0  0  0  0  0  0  0  0  0  0  0  0
   15.7485   43.8157   -1.0627 O   0  0  0  0  0  0  0  0  0  0  0  0
   17.7673   43.7335   -2.4008 N   0  0  0  0  0  0  0  0  0  0  0  0
   17.2582   42.8434   -3.2451 C   0  0  0  0  0  0  0  0  0  0  0  0
   16.2779   42.1579   -2.9952 O   0  0  0  0  0  0  0  0  0  0  0  0
   18.5527   44.2588   -2.6772 H   0  0  0  0  0  0  0  0  0  0  0  0
   17.9495   42.7210   -4.5847 C   0  0  0  0  0  0  0  0  0  0  0  0
   19.4410   42.4703   -4.3923 C   0  0  0  0  0  0  0  0  0  0  0  0
   20.2282   43.4433   -5.2566 C   0  0  0  0  0  0  0  0  0  0  0  0
   19.6159   44.8380   -5.2628 C   0  0  0  0  0  0  0  0  0  0  0  0
   20.1403   45.6599   -4.0841 C   0  0  0  0  0  0  0  0  0  0  0  0
   19.1776   46.7854   -3.7654 C   0  0  0  0  0  0  0  0  0  0  0  0
   17.8223   46.6440   -4.0342 C   0  0  0  0  0  0  0  0  0  0  0  0
   16.9358   47.6787   -3.7507 C   0  0  0  0  0  0  0  0  0  0  0  0
   17.4092   48.8622   -3.1886 C   0  0  0  0  0  0  0  0  0  0  0  0
   18.7663   49.0041   -2.9208 C   0  0  0  0  0  0  0  0  0  0  0  0
   19.6457   47.9678   -3.2093 C   0  0  0  0  0  0  0  0  0  0  0  0
 17 18  1  0  0  0
 17 22  2  0  0  0
 18 19  2  0  0  0
 19 20  1  0  0  0
 20 21  2  0  0  0
 20 25  1  0  0  0
 21 22  1  0  0  0
 21 23  1  0  0  0
 23 24  2  0  0  0
 24 25  1  0  0  0
 24 15  1  0  0  0
 15 12  1  0  0  0
 12 13  2  0  0  0
 13 14  1  0  0  0
 13  7  1  0  0  0
  7  8  2  0  0  0
  7 11  1  0  0  0
  8  9  1  0  0  0
  9 10  2  0  0  0
 10 11  1  0  0  0
 10  1  1  0  0  0
  1  2  1  0  0  0
  1  6  2  0  0  0
  2  3  2  0  0  0
  3  4  1  0  0  0
  4  5  2  0  0  0
  5  6  1  0  0  0
  5 26  1  0  0  0
 26 27  2  0  0  0
 26 28  2  0  0  0
 26 29  1  0  0  0
 29 30  1  0  0  0
 30 31  2  0  0  0
 30 33  1  0  0  0
 33 34  1  0  0  0
 34 35  1  0  0  0
 35 36  1  0  0  0
 36 37  1  0  0  0
 37 38  1  0  0  0
 38 39  1  0  0  0
 38 43  2  0  0  0
 39 40  2  0  0  0
 40 41  1  0  0  0
 41 42  2  0  0  0
 42 43  1  0  0  0
 15 16  1  0  0  0
 29 32  1  0  0  0
M  END
> <minimizedAffinity>
-10.25290

$$$$
3ZK6_H1I_A_1198


 43 47  0  0  0  0  0  0  0  0999 V2000
   22.6530   48.8258    2.5585 C   0  0  0  0  0  0  0  0  0  0  0  0
   23.8568   49.4885    2.7189 C   0  0  0  0  0  0  0  0  0  0  0  0
   24.1006   50.1472    3.9116 C   0  0  0  0  0  0  0  0  0  0  0  0
   23.1698   50.1472    4.9445 C   0  0  0  0  0  0  0  0  0  0  0  0
   21.9688   49.4455    4.8107 C   0  0  0  0  0  0  0  0  0  0  0  0
   21.7223   48.7870    3.5987 C   0  0  0  0  0  0  0  0  0  0  0  0
   21.3393   46.9189   -0.1804 C   0  0  0  0  0  0  0  0  0  0  0  0
   22.5587   47.1814   -0.7687 C   0  0  0  0  0  0  0  0  0  0  0  0
   23.2274   47.9356    0.1926 C   0  0  0  0  0  0  0  0  0  0  0  0
   22.3883   48.0828    1.3032 C   0  0  0  0  0  0  0  0  0  0  0  0
   21.2106   47.4438    1.0630 O   0  0  0  0  0  0  0  0  0  0  0  0
   19.7486   46.2373   -1.7448 N   0  0  0  0  0  0  0  0  0  0  0  0
   20.1095   46.2262   -0.5480 C   0  0  0  0  0  0  0  0  0  0  0  0
   19.3909   45.4317    0.4918 C   0  0  0  0  0  0  0  0  0  0  0  0
   18.6632   45.5997   -2.1046 N   0  0  0  0  0  0  0  0  0  0  0  0
   17.8936   45.4932   -1.4999 H   0  0  0  0  0  0  0  0  0  0  0  0
   19.7883   43.5576   -7.4892 C   0  0  0  0  0  0  0  0  0  0  0  0
   18.4117   43.4078   -7.5924 C   0  0  0  0  0  0  0  0  0  0  0  0
   17.5952   43.7593   -6.5245 C   0  0  0  0  0  0  0  0  0  0  0  0
   18.1434   44.2684   -5.3542 C   0  0  0  0  0  0  0  0  0  0  0  0
   19.5174   44.4398   -5.2550 C   0  0  0  0  0  0  0  0  0  0  0  0
   20.3351   44.0803   -6.3242 C   0  0  0  0  0  0  0  0  0  0  0  0
   19.8089   44.9462   -4.0257 N   0  0  0  0  0  0  0  0  0  0  0  0
   18.6668   45.1041   -3.3416 C   0  0  0  0  0  0  0  0  0  0  0  0
   17.1388   44.6898   -4.0503 S   0  0  0  0  0  0  0  0  0  0  0  0
   20.8756   49.4388    5.9931 S   0  0  0  0  0  0  0  0  0  0  0  0
   19.5583   49.4023    5.4401 O   0  0  0  0  0  0  0  0  0  0  0  0
   21.0605   48.2577    6.7884 O   0  0  0  0  0  0  0  0  0  0  0  0
   20.9608   50.6780    6.8603 N   0  0  0  0  0  0  0  0  0  0  0  0
   21.5521   50.6656    8.0497 C   0  0  0  0  0  0  0  0  0  0  0  0
   22.0817   49.6751    8.5313 O   0  0  0  0  0  0  0  0  0  0  0  0
   20.5659   51.5181    6.5324 H   0  0  0  0  0  0  0  0  0  0  0  0
   21.5648   51.9765    8.8038 C   0  0  0  0  0  0  0  0  0  0  0  0
   22.9813   52.3179    9.2525 C   0  0  0  0  0  0  0  0  0  0  0  0
   23.9448   52.0699    8.1020 C   0  0  0  0  0  0  0  0  0  0  0  0
   24.3548   53.3592    7.4023 C   0  0  0  0  0  0  0  0  0  0  0  0
   25.7782   53.2435    6.8542 C   0  0  0  0  0  0  0  0  0  0  0  0
   25.7504   53.1969    5.3401 C   0  0  0  0  0  0  0  0  0  0  0  0
   26.8159   52.6494    4.6374 C   0  0  0  0  0  0  0  0  0  0  0  0
   26.7980   52.6122    3.2462 C   0  0  0  0  0  0  0  0  0  0  0  0
   25.7023   53.1224    2.5535 C   0  0  0  0  0  0  0  0  0  0  0  0
   24.6363   53.6718    3.2573 C   0  0  0  0  0  0  0  0  0  0  0  0
   24.6626   53.7080    4.6460 C   0  0  0  0  0  0  0  0  0  0  0  0
 17 18  1  0  0  0
 17 22  2  0  0  0
 18 19  2  0  0  0
 19 20  1  0  0  0
 20 21  2  0  0  0
 20 25  1  0  0  0
 21 22  1  0  0  0
 21 23  1  0  0  0
 23 24  2  0  0  0
 24 25  1  0  0  0
 24 15  1  0  0  0
 15 12  1  0  0  0
 12 13  2  0  0  0
 13 14  1  0  0  0
 13  7  1  0  0  0
  7  8  2  0  0  0
  7 11  1  0  0  0
  8  9  1  0  0  0
  9 10  2  0  0  0
 10 11  1  0  0  0
 10  1  1  0  0  0
  1  2  1  0  0  0
  1  6  2  0  0  0
  2  3  2  0  0  0
  3  4  1  0  0  0
  4  5  2  0  0  0
  5  6  1  0  0  0
  5 26  1  0  0  0
 26 27  2  0  0  0
 26 28  2  0  0  0
 26 29  1  0  0  0
 29 30  1  0  0  0
 30 31  2  0  0  0
 30 33  1  0  0  0
 33 34  1  0  0  0
 34 35  1  0  0  0
 35 36  1  0  0  0
 36 37  1  0  0  0
 37 38  1  0  0  0
 38 39  1  0  0  0
 38 43  2  0  0  0
 39 40  2  0  0  0
 40 41  1  0  0  0
 41 42  2  0  0  0
 42 43  1  0  0  0
 15 16  1  0  0  0
 29 32  1  0  0  0
M  END
> <minimizedAffinity>
-9.70662

$$$$
3ZK6_H1I_A_1198


 43 47  0  0  0  0  0  0  0  0999 V2000
   22.9228   49.0011    2.6008 C   0  0  0  0  0  0  0  0  0  0  0  0
   23.9779   49.8960    2.6075 C   0  0  0  0  0  0  0  0  0  0  0  0
   24.2590   50.5854    3.7743 C   0  0  0  0  0  0  0  0  0  0  0  0
   23.5126   50.3899    4.9310 C   0  0  0  0  0  0  0  0  0  0  0  0
   22.4721   49.4573    4.9488 C   0  0  0  0  0  0  0  0  0  0  0  0
   22.1854   48.7677    3.7633 C   0  0  0  0  0  0  0  0  0  0  0  0
   21.5520   47.0088   -0.0479 C   0  0  0  0  0  0  0  0  0  0  0  0
   22.7449   47.2807   -0.6844 C   0  0  0  0  0  0  0  0  0  0  0  0
   23.4318   48.0688    0.2361 C   0  0  0  0  0  0  0  0  0  0  0  0
   22.6292   48.2252    1.3721 C   0  0  0  0  0  0  0  0  0  0  0  0
   21.4564   47.5590    1.1876 O   0  0  0  0  0  0  0  0  0  0  0  0
   20.0013   46.1332   -1.5548 N   0  0  0  0  0  0  0  0  0  0  0  0
   20.3239   46.2851   -0.3566 C   0  0  0  0  0  0  0  0  0  0  0  0
   19.5607   45.6510    0.7587 C   0  0  0  0  0  0  0  0  0  0  0  0
   18.9181   45.4636   -1.8587 N   0  0  0  0  0  0  0  0  0  0  0  0
   18.1451   45.4143   -1.2510 H   0  0  0  0  0  0  0  0  0  0  0  0
   19.8721   43.4030   -7.2692 C   0  0  0  0  0  0  0  0  0  0  0  0
   18.7310   42.6417   -7.0535 C   0  0  0  0  0  0  0  0  0  0  0  0
   18.0528   42.7384   -5.8446 C   0  0  0  0  0  0  0  0  0  0  0  0
   18.5016   43.5976   -4.8499 C   0  0  0  0  0  0  0  0  0  0  0  0
   19.6297   44.3763   -5.0698 C   0  0  0  0  0  0  0  0  0  0  0  0
   20.3124   44.2730   -6.2799 C   0  0  0  0  0  0  0  0  0  0  0  0
   19.8681   45.1269   -3.9597 N   0  0  0  0  0  0  0  0  0  0  0  0
   18.9289   44.8531   -3.0431 C   0  0  0  0  0  0  0  0  0  0  0  0
   17.6706   43.7053   -3.3718 S   0  0  0  0  0  0  0  0  0  0  0  0
   21.5921   49.2213    6.2767 S   0  0  0  0  0  0  0  0  0  0  0  0
   21.8503   47.9203    6.8088 O   0  0  0  0  0  0  0  0  0  0  0  0
   21.9728   50.1924    7.2635 O   0  0  0  0  0  0  0  0  0  0  0  0
   20.1047   49.3033    6.0016 N   0  0  0  0  0  0  0  0  0  0  0  0
   19.5316   50.4155    5.5558 C   0  0  0  0  0  0  0  0  0  0  0  0
   20.1461   51.4450    5.3193 O   0  0  0  0  0  0  0  0  0  0  0  0
   19.5459   48.5080    6.1579 H   0  0  0  0  0  0  0  0  0  0  0  0
   18.0386   50.3512    5.3226 C   0  0  0  0  0  0  0  0  0  0  0  0
   17.7247   50.5146    3.8396 C   0  0  0  0  0  0  0  0  0  0  0  0
   17.9241   49.1813    3.1354 C   0  0  0  0  0  0  0  0  0  0  0  0
   18.5799   49.3403    1.7698 C   0  0  0  0  0  0  0  0  0  0  0  0
   17.6783   48.7732    0.6719 C   0  0  0  0  0  0  0  0  0  0  0  0
   17.7475   49.6493   -0.5622 C   0  0  0  0  0  0  0  0  0  0  0  0
   18.1216   49.1071   -1.7849 C   0  0  0  0  0  0  0  0  0  0  0  0
   18.1945   49.9102   -2.9193 C   0  0  0  0  0  0  0  0  0  0  0  0
   17.8852   51.2656   -2.8297 C   0  0  0  0  0  0  0  0  0  0  0  0
   17.5121   51.8085   -1.6051 C   0  0  0  0  0  0  0  0  0  0  0  0
   17.4443   51.0010   -0.4765 C   0  0  0  0  0  0  0  0  0  0  0  0
 17 18  1  0  0  0
 17 22  2  0  0  0
 18 19  2  0  0  0
 19 20  1  0  0  0
 20 21  2  0  0  0
 20 25  1  0  0  0
 21 22  1  0  0  0
 21 23  1  0  0  0
 23 24  2  0  0  0
 24 25  1  0  0  0
 24 15  1  0  0  0
 15 12  1  0  0  0
 12 13  2  0  0  0
 13 14  1  0  0  0
 13  7  1  0  0  0
  7  8  2  0  0  0
  7 11  1  0  0  0
  8  9  1  0  0  0
  9 10  2  0  0  0
 10 11  1  0  0  0
 10  1  1  0  0  0
  1  2  1  0  0  0
  1  6  2  0  0  0
  2  3  2  0  0  0
  3  4  1  0  0  0
  4  5  2  0  0  0
  5  6  1  0  0  0
  5 26  1  0  0  0
 26 27  2  0  0  0
 26 28  2  0  0  0
 26 29  1  0  0  0
 29 30  1  0  0  0
 30 31  2  0  0  0
 30 33  1  0  0  0
 33 34  1  0  0  0
 34 35  1  0  0  0
 35 36  1  0  0  0
 36 37  1  0  0  0
 37 38  1  0  0  0
 38 39  1  0  0  0
 38 43  2  0  0  0
 39 40  2  0  0  0
 40 41  1  0  0  0
 41 42  2  0  0  0
 42 43  1  0  0  0
 15 16  1  0  0  0
 29 32  1  0  0  0
M  END
> <minimizedAffinity>
-9.06020

$$$$
3ZK6_H1I_A_1198


 43 47  0  0  0  0  0  0  0  0999 V2000
   23.0243   49.0721    2.7746 C   0  0  0  0  0  0  0  0  0  0  0  0
   24.0363   50.0156    2.7669 C   0  0  0  0  0  0  0  0  0  0  0  0
   24.3368   50.6795    3.9437 C   0  0  0  0  0  0  0  0  0  0  0  0
   23.6522   50.4114    5.1238 C   0  0  0  0  0  0  0  0  0  0  0  0
   22.6576   49.4303    5.1541 C   0  0  0  0  0  0  0  0  0  0  0  0
   22.3507   48.7664    3.9589 C   0  0  0  0  0  0  0  0  0  0  0  0
   21.6171   47.1323    0.1062 C   0  0  0  0  0  0  0  0  0  0  0  0
   22.7953   47.4287   -0.5465 C   0  0  0  0  0  0  0  0  0  0  0  0
   23.4941   48.2002    0.3790 C   0  0  0  0  0  0  0  0  0  0  0  0
   22.7126   48.3232    1.5337 C   0  0  0  0  0  0  0  0  0  0  0  0
   21.5415   47.6523    1.3560 O   0  0  0  0  0  0  0  0  0  0  0  0
   20.0102   46.3352   -1.3853 N   0  0  0  0  0  0  0  0  0  0  0  0
   20.3887   46.4064   -0.1960 C   0  0  0  0  0  0  0  0  0  0  0  0
   19.6931   45.6763    0.9048 C   0  0  0  0  0  0  0  0  0  0  0  0
   18.9257   45.6660   -1.6855 N   0  0  0  0  0  0  0  0  0  0  0  0
   18.1603   45.6053   -1.0693 H   0  0  0  0  0  0  0  0  0  0  0  0
   19.8871   43.5942   -7.0905 C   0  0  0  0  0  0  0  0  0  0  0  0
   18.6725   42.9408   -6.9289 C   0  0  0  0  0  0  0  0  0  0  0  0
   17.9610   43.0853   -5.7442 C   0  0  0  0  0  0  0  0  0  0  0  0
   18.4502   43.8858   -4.7199 C   0  0  0  0  0  0  0  0  0  0  0  0
   19.6536   44.5577   -4.8858 C   0  0  0  0  0  0  0  0  0  0  0  0
   20.3689   44.4062   -6.0717 C   0  0  0  0  0  0  0  0  0  0  0  0
   19.9189   45.2684   -3.7557 N   0  0  0  0  0  0  0  0  0  0  0  0
   18.9242   45.0724   -2.8786 C   0  0  0  0  0  0  0  0  0  0  0  0
   17.5775   44.0522   -3.2716 S   0  0  0  0  0  0  0  0  0  0  0  0
   21.8492   49.1099    6.5095 S   0  0  0  0  0  0  0  0  0  0  0  0
   22.0713   47.7536    6.9015 O   0  0  0  0  0  0  0  0  0  0  0  0
   22.3394   49.9641    7.5543 O   0  0  0  0  0  0  0  0  0  0  0  0
   20.3541   49.2862    6.3413 N   0  0  0  0  0  0  0  0  0  0  0  0
   19.7961   50.4852    6.2180 C   0  0  0  0  0  0  0  0  0  0  0  0
   20.4309   51.5295    6.2148 O   0  0  0  0  0  0  0  0  0  0  0  0
   19.7785   48.4877    6.3227 H   0  0  0  0  0  0  0  0  0  0  0  0
   18.2928   50.5095    6.0541 C   0  0  0  0  0  0  0  0  0  0  0  0
   17.8988   49.9709    4.6833 C   0  0  0  0  0  0  0  0  0  0  0  0
   18.5799   50.7995    3.6048 C   0  0  0  0  0  0  0  0  0  0  0  0
   17.8020   52.0655    3.2699 C   0  0  0  0  0  0  0  0  0  0  0  0
   18.6700   53.3046    3.4956 C   0  0  0  0  0  0  0  0  0  0  0  0
   19.1034   53.8856    2.1651 C   0  0  0  0  0  0  0  0  0  0  0  0
   18.4397   53.5314    0.9976 C   0  0  0  0  0  0  0  0  0  0  0  0
   18.8400   54.0564   -0.2276 C   0  0  0  0  0  0  0  0  0  0  0  0
   19.9097   54.9471   -0.2835 C   0  0  0  0  0  0  0  0  0  0  0  0
   20.5749   55.3004    0.8853 C   0  0  0  0  0  0  0  0  0  0  0  0
   20.1713   54.7700    2.1044 C   0  0  0  0  0  0  0  0  0  0  0  0
 17 18  1  0  0  0
 17 22  2  0  0  0
 18 19  2  0  0  0
 19 20  1  0  0  0
 20 21  2  0  0  0
 20 25  1  0  0  0
 21 22  1  0  0  0
 21 23  1  0  0  0
 23 24  2  0  0  0
 24 25  1  0  0  0
 24 15  1  0  0  0
 15 12  1  0  0  0
 12 13  2  0  0  0
 13 14  1  0  0  0
 13  7  1  0  0  0
  7  8  2  0  0  0
  7 11  1  0  0  0
  8  9  1  0  0  0
  9 10  2  0  0  0
 10 11  1  0  0  0
 10  1  1  0  0  0
  1  2  1  0  0  0
  1  6  2  0  0  0
  2  3  2  0  0  0
  3  4  1  0  0  0
  4  5  2  0  0  0
  5  6  1  0  0  0
  5 26  1  0  0  0
 26 27  2  0  0  0
 26 28  2  0  0  0
 26 29  1  0  0  0
 29 30  1  0  0  0
 30 31  2  0  0  0
 30 33  1  0  0  0
 33 34  1  0  0  0
 34 35  1  0  0  0
 35 36  1  0  0  0
 36 37  1  0  0  0
 37 38  1  0  0  0
 38 39  1  0  0  0
 38 43  2  0  0  0
 39 40  2  0  0  0
 40 41  1  0  0  0
 41 42  2  0  0  0
 42 43  1  0  0  0
 15 16  1  0  0  0
 29 32  1  0  0  0
M  END
> <minimizedAffinity>
-8.66462

$$$$
3ZK6_H1I_A_1198


 43 47  0  0  0  0  0  0  0  0999 V2000
   16.4551   45.1491   -1.4533 C   0  0  0  0  0  0  0  0  0  0  0  0
   16.7736   43.9940   -0.7615 C   0  0  0  0  0  0  0  0  0  0  0  0
   16.9156   42.8123   -1.4681 C   0  0  0  0  0  0  0  0  0  0  0  0
   16.7541   42.7677   -2.8484 C   0  0  0  0  0  0  0  0  0  0  0  0
   16.4750   43.9356   -3.5632 C   0  0  0  0  0  0  0  0  0  0  0  0
   16.3237   45.1281   -2.8433 C   0  0  0  0  0  0  0  0  0  0  0  0
   16.5243   47.8872    0.8622 C   0  0  0  0  0  0  0  0  0  0  0  0
   15.9278   48.5902   -0.1635 C   0  0  0  0  0  0  0  0  0  0  0  0
   15.8136   47.6459   -1.1810 C   0  0  0  0  0  0  0  0  0  0  0  0
   16.3357   46.4319   -0.7198 C   0  0  0  0  0  0  0  0  0  0  0  0
   16.7770   46.5903    0.5582 O   0  0  0  0  0  0  0  0  0  0  0  0
   18.1860   48.4749    2.3904 N   0  0  0  0  0  0  0  0  0  0  0  0
   16.9861   48.1704    2.2163 C   0  0  0  0  0  0  0  0  0  0  0  0
   15.9886   48.2030    3.3265 C   0  0  0  0  0  0  0  0  0  0  0  0
   18.6186   48.7604    3.5926 N   0  0  0  0  0  0  0  0  0  0  0  0
   18.0716   48.6060    4.3964 H   0  0  0  0  0  0  0  0  0  0  0  0
   24.3538   49.9999    3.5540 C   0  0  0  0  0  0  0  0  0  0  0  0
   23.9649   51.2587    3.9929 C   0  0  0  0  0  0  0  0  0  0  0  0
   22.6173   51.5401    4.1817 C   0  0  0  0  0  0  0  0  0  0  0  0
   21.6531   50.5693    3.9429 C   0  0  0  0  0  0  0  0  0  0  0  0
   22.0393   49.3032    3.5247 C   0  0  0  0  0  0  0  0  0  0  0  0
   23.3904   49.0249    3.3293 C   0  0  0  0  0  0  0  0  0  0  0  0
   20.9263   48.5374    3.3584 N   0  0  0  0  0  0  0  0  0  0  0  0
   19.8468   49.2733    3.6586 C   0  0  0  0  0  0  0  0  0  0  0  0
   20.0068   50.9232    4.1697 S   0  0  0  0  0  0  0  0  0  0  0  0
   16.2782   43.9032   -5.1612 S   0  0  0  0  0  0  0  0  0  0  0  0
   15.2263   42.9991   -5.5055 O   0  0  0  0  0  0  0  0  0  0  0  0
   15.9053   45.2156   -5.6088 O   0  0  0  0  0  0  0  0  0  0  0  0
   17.5241   43.4333   -5.8834 N   0  0  0  0  0  0  0  0  0  0  0  0
   17.6605   43.5484   -7.1996 C   0  0  0  0  0  0  0  0  0  0  0  0
   16.8143   44.0479   -7.9261 O   0  0  0  0  0  0  0  0  0  0  0  0
   18.2550   43.0303   -5.3612 H   0  0  0  0  0  0  0  0  0  0  0  0
   18.9591   43.0392   -7.7843 C   0  0  0  0  0  0  0  0  0  0  0  0
   20.1296   43.8861   -7.2972 C   0  0  0  0  0  0  0  0  0  0  0  0
   20.7907   43.1943   -6.1150 C   0  0  0  0  0  0  0  0  0  0  0  0
   20.8514   44.0867   -4.8820 C   0  0  0  0  0  0  0  0  0  0  0  0
   19.8833   45.2627   -5.0222 C   0  0  0  0  0  0  0  0  0  0  0  0
   19.8233   46.0444   -3.7258 C   0  0  0  0  0  0  0  0  0  0  0  0
   20.2335   45.4580   -2.5356 C   0  0  0  0  0  0  0  0  0  0  0  0
   20.1721   46.1699   -1.3412 C   0  0  0  0  0  0  0  0  0  0  0  0
   19.7015   47.4811   -1.3396 C   0  0  0  0  0  0  0  0  0  0  0  0
   19.2896   48.0676   -2.5312 C   0  0  0  0  0  0  0  0  0  0  0  0
   19.3511   47.3496   -3.7191 C   0  0  0  0  0  0  0  0  0  0  0  0
 17 18  1  0  0  0
 17 22  2  0  0  0
 18 19  2  0  0  0
 19 20  1  0  0  0
 20 21  2  0  0  0
 20 25  1  0  0  0
 21 22  1  0  0  0
 21 23  1  0  0  0
 23 24  2  0  0  0
 24 25  1  0  0  0
 24 15  1  0  0  0
 15 12  1  0  0  0
 12 13  2  0  0  0
 13 14  1  0  0  0
 13  7  1  0  0  0
  7  8  2  0  0  0
  7 11  1  0  0  0
  8  9  1  0  0  0
  9 10  2  0  0  0
 10 11  1  0  0  0
 10  1  1  0  0  0
  1  2  1  0  0  0
  1  6  2  0  0  0
  2  3  2  0  0  0
  3  4  1  0  0  0
  4  5  2  0  0  0
  5  6  1  0  0  0
  5 26  1  0  0  0
 26 27  2  0  0  0
 26 28  2  0  0  0
 26 29  1  0  0  0
 29 30  1  0  0  0
 30 31  2  0  0  0
 30 33  1  0  0  0
 33 34  1  0  0  0
 34 35  1  0  0  0
 35 36  1  0  0  0
 36 37  1  0  0  0
 37 38  1  0  0  0
 38 39  1  0  0  0
 38 43  2  0  0  0
 39 40  2  0  0  0
 40 41  1  0  0  0
 41 42  2  0  0  0
 42 43  1  0  0  0
 15 16  1  0  0  0
 29 32  1  0  0  0
M  END
> <minimizedAffinity>
-8.66378

$$$$
3ZK6_H1I_A_1198


 43 47  0  0  0  0  0  0  0  0999 V2000
   22.2398   48.2776    1.8430 C   0  0  0  0  0  0  0  0  0  0  0  0
   23.0895   48.0740    0.7702 C   0  0  0  0  0  0  0  0  0  0  0  0
   22.6360   47.3327   -0.3071 C   0  0  0  0  0  0  0  0  0  0  0  0
   21.3512   46.8016   -0.3338 C   0  0  0  0  0  0  0  0  0  0  0  0
   20.4695   47.0368    0.7245 C   0  0  0  0  0  0  0  0  0  0  0  0
   20.9352   47.7807    1.8168 C   0  0  0  0  0  0  0  0  0  0  0  0
   22.7977   49.9119    4.9865 C   0  0  0  0  0  0  0  0  0  0  0  0
   23.8457   50.5202    4.3280 C   0  0  0  0  0  0  0  0  0  0  0  0
   23.7740   49.9885    3.0426 C   0  0  0  0  0  0  0  0  0  0  0  0
   22.6934   49.1005    2.9898 C   0  0  0  0  0  0  0  0  0  0  0  0
   22.0875   49.0587    4.2081 O   0  0  0  0  0  0  0  0  0  0  0  0
   21.1600   50.5210    6.5321 N   0  0  0  0  0  0  0  0  0  0  0  0
   22.2398   49.9231    6.3340 C   0  0  0  0  0  0  0  0  0  0  0  0
   22.9130   49.1236    7.4000 C   0  0  0  0  0  0  0  0  0  0  0  0
   20.6248   50.5222    7.7269 N   0  0  0  0  0  0  0  0  0  0  0  0
   21.1627   50.6493    8.5417 H   0  0  0  0  0  0  0  0  0  0  0  0
   14.9780   49.1052    6.9949 C   0  0  0  0  0  0  0  0  0  0  0  0
   14.7567   49.8920    8.1175 C   0  0  0  0  0  0  0  0  0  0  0  0
   15.8270   50.5136    8.7490 C   0  0  0  0  0  0  0  0  0  0  0  0
   17.1190   50.3619    8.2621 C   0  0  0  0  0  0  0  0  0  0  0  0
   17.3417   49.5936    7.1276 C   0  0  0  0  0  0  0  0  0  0  0  0
   16.2682   48.9655    6.4998 C   0  0  0  0  0  0  0  0  0  0  0  0
   18.6745   49.5955    6.8510 N   0  0  0  0  0  0  0  0  0  0  0  0
   19.3054   50.3403    7.7698 C   0  0  0  0  0  0  0  0  0  0  0  0
   18.4234   51.1199    9.0438 S   0  0  0  0  0  0  0  0  0  0  0  0
   18.9799   46.4251    0.7149 S   0  0  0  0  0  0  0  0  0  0  0  0
   18.6685   45.8775    1.9977 O   0  0  0  0  0  0  0  0  0  0  0  0
   18.0469   47.4814    0.4404 O   0  0  0  0  0  0  0  0  0  0  0  0
   18.8249   45.3078   -0.2962 N   0  0  0  0  0  0  0  0  0  0  0  0
   17.6325   44.8771   -0.6922 C   0  0  0  0  0  0  0  0  0  0  0  0
   16.5771   45.3467   -0.2933 O   0  0  0  0  0  0  0  0  0  0  0  0
   19.6327   44.8881   -0.6713 H   0  0  0  0  0  0  0  0  0  0  0  0
   17.6297   43.7572   -1.7088 C   0  0  0  0  0  0  0  0  0  0  0  0
   16.2614   43.6444   -2.3717 C   0  0  0  0  0  0  0  0  0  0  0  0
   16.4355   43.1479   -3.7988 C   0  0  0  0  0  0  0  0  0  0  0  0
   16.2312   44.2543   -4.8256 C   0  0  0  0  0  0  0  0  0  0  0  0
   17.5783   44.8048   -5.2969 C   0  0  0  0  0  0  0  0  0  0  0  0
   17.9599   46.0195   -4.4758 C   0  0  0  0  0  0  0  0  0  0  0  0
   16.9866   46.9231   -4.0693 C   0  0  0  0  0  0  0  0  0  0  0  0
   17.3341   48.0445   -3.3219 C   0  0  0  0  0  0  0  0  0  0  0  0
   18.6658   48.2601   -2.9743 C   0  0  0  0  0  0  0  0  0  0  0  0
   19.6403   47.3561   -3.3826 C   0  0  0  0  0  0  0  0  0  0  0  0
   19.2861   46.2403   -4.1309 C   0  0  0  0  0  0  0  0  0  0  0  0
 17 18  1  0  0  0
 17 22  2  0  0  0
 18 19  2  0  0  0
 19 20  1  0  0  0
 20 21  2  0  0  0
 20 25  1  0  0  0
 21 22  1  0  0  0
 21 23  1  0  0  0
 23 24  2  0  0  0
 24 25  1  0  0  0
 24 15  1  0  0  0
 15 12  1  0  0  0
 12 13  2  0  0  0
 13 14  1  0  0  0
 13  7  1  0  0  0
  7  8  2  0  0  0
  7 11  1  0  0  0
  8  9  1  0  0  0
  9 10  2  0  0  0
 10 11  1  0  0  0
 10  1  1  0  0  0
  1  2  1  0  0  0
  1  6  2  0  0  0
  2  3  2  0  0  0
  3  4  1  0  0  0
  4  5  2  0  0  0
  5  6  1  0  0  0
  5 26  1  0  0  0
 26 27  2  0  0  0
 26 28  2  0  0  0
 26 29  1  0  0  0
 29 30  1  0  0  0
 30 31  2  0  0  0
 30 33  1  0  0  0
 33 34  1  0  0  0
 34 35  1  0  0  0
 35 36  1  0  0  0
 36 37  1  0  0  0
 37 38  1  0  0  0
 38 39  1  0  0  0
 38 43  2  0  0  0
 39 40  2  0  0  0
 40 41  1  0  0  0
 41 42  2  0  0  0
 42 43  1  0  0  0
 15 16  1  0  0  0
 29 32  1  0  0  0
M  END
> <minimizedAffinity>
-8.64179

$$$$
