1LF2_R37_A_330


 44 46  0  0  0  0  0  0  0  0999 V2000
   31.5214   32.8803   13.9179 C   0  0  0  0  0  0  0  0  0  0  0  0
   31.7212   31.9552   14.9844 O   0  0  0  0  0  0  0  0  0  0  0  0
   32.4063   31.3159   14.7337 H   0  0  0  0  0  0  0  0  0  0  0  0
   32.8574   33.5298   13.6931 C   0  0  0  0  0  0  0  0  0  0  0  0
   33.0320   35.0149   13.9505 C   0  0  0  0  0  0  0  0  0  0  0  0
   31.7518   35.6446   14.2784 N   0  0  0  0  0  0  0  0  0  0  0  0
   31.3466   36.7658   13.6815 C   0  0  0  0  0  0  0  0  0  0  0  0
   31.5431   36.9777   12.4716 O   0  0  0  0  0  0  0  0  0  0  0  0
   31.1740   35.2287   14.9584 H   0  0  0  0  0  0  0  0  0  0  0  0
   30.6186   37.6873   14.4656 C   0  0  0  0  0  0  0  0  0  0  0  0
   29.4778   38.3420   13.9700 C   0  0  0  0  0  0  0  0  0  0  0  0
   28.7624   39.2585   14.7721 C   0  0  0  0  0  0  0  0  0  0  0  0
   29.1832   39.5252   16.0759 C   0  0  0  0  0  0  0  0  0  0  0  0
   30.3188   38.8764   16.5723 C   0  0  0  0  0  0  0  0  0  0  0  0
   28.4208   40.4838   16.9536 N   0  0  0  0  0  0  0  0  0  0  0  0
   31.0206   37.9694   15.7790 C   0  0  0  0  0  0  0  0  0  0  0  0
   27.6215   40.9409   16.6053 H   0  0  0  0  0  0  0  0  0  0  0  0
   28.7220   40.6530   17.8755 H   0  0  0  0  0  0  0  0  0  0  0  0
   34.0965   35.3297   15.0269 C   0  0  0  0  0  0  0  0  0  0  0  0
   35.5757   35.0212   14.7638 C   0  0  0  0  0  0  0  0  0  0  0  0
   36.3466   36.3560   14.8563 C   0  0  0  0  0  0  0  0  0  0  0  0
   36.0663   34.0923   15.8438 C   0  0  0  0  0  0  0  0  0  0  0  0
   31.0517   32.1012   12.6422 C   0  0  0  0  0  0  0  0  0  0  0  0
   32.4506   31.1495   10.8650 C   0  0  0  0  0  0  0  0  0  0  0  0
   32.1248   32.0108   10.0356 O   0  0  0  0  0  0  0  0  0  0  0  0
   32.1000   31.2223   12.1523 N   0  0  0  0  0  0  0  0  0  0  0  0
   32.5748   30.6530   12.8001 H   0  0  0  0  0  0  0  0  0  0  0  0
   33.3137   29.9385   10.4496 C   0  0  0  0  0  0  0  0  0  0  0  0
   34.6713   30.1832   10.6562 O   0  0  0  0  0  0  0  0  0  0  0  0
   35.9590   32.0450   10.0565 C   0  0  0  0  0  0  0  0  0  0  0  0
   35.4416   30.8230    9.6881 C   0  0  0  0  0  0  0  0  0  0  0  0
   35.7247   30.3069    8.4108 C   0  0  0  0  0  0  0  0  0  0  0  0
   36.5252   31.0378    7.5296 C   0  0  0  0  0  0  0  0  0  0  0  0
   37.0366   32.2619    7.9039 C   0  0  0  0  0  0  0  0  0  0  0  0
   36.7593   32.7664    9.1602 C   0  0  0  0  0  0  0  0  0  0  0  0
   35.2286   28.9254    8.0257 C   0  0  0  0  0  0  0  0  0  0  0  0
   35.6658   32.5925   11.4418 C   0  0  0  0  0  0  0  0  0  0  0  0
   29.8082   31.2489   12.9637 C   0  0  0  0  0  0  0  0  0  0  0  0
   28.9246   30.9670   11.7636 C   0  0  0  0  0  0  0  0  0  0  0  0
   28.5491   31.9838   10.9066 C   0  0  0  0  0  0  0  0  0  0  0  0
   27.7370   31.7085    9.7951 C   0  0  0  0  0  0  0  0  0  0  0  0
   27.3046   30.4068    9.5327 C   0  0  0  0  0  0  0  0  0  0  0  0
   27.6747   29.3731   10.3845 C   0  0  0  0  0  0  0  0  0  0  0  0
   28.4808   29.6643   11.4997 C   0  0  0  0  0  0  0  0  0  0  0  0
 30 31  2  0  0  0
 30 35  1  0  0  0
 30 37  1  0  0  0
 31 32  1  0  0  0
 31 29  1  0  0  0
 32 33  2  0  0  0
 32 36  1  0  0  0
 33 34  1  0  0  0
 34 35  2  0  0  0
 10 11  2  0  0  0
 10 16  1  0  0  0
 10  7  1  0  0  0
 11 12  1  0  0  0
 12 13  2  0  0  0
 13 14  1  0  0  0
 13 15  1  0  0  0
 14 16  2  0  0  0
 29 28  1  0  0  0
 28 24  1  0  0  0
 24 25  2  0  0  0
 24 26  1  0  0  0
 26 23  1  0  0  0
  1  2  1  0  0  0
  1  4  1  0  0  0
  1 23  1  0  0  0
  4  5  1  0  0  0
  5 19  1  0  0  0
  5  6  1  0  0  0
 19 20  1  0  0  0
 20 21  1  0  0  0
 20 22  1  0  0  0
  6  7  1  0  0  0
  7  8  2  0  0  0
 23 38  1  0  0  0
 38 39  1  0  0  0
 39 40  2  0  0  0
 39 44  1  0  0  0
 40 41  1  0  0  0
 41 42  2  0  0  0
 42 43  1  0  0  0
 43 44  2  0  0  0
 15 17  1  0  0  0
 15 18  1  0  0  0
 26 27  1  0  0  0
  2  3  1  0  0  0
  6  9  1  0  0  0
M  END
> <minimizedAffinity>
-9.97506

$$$$
1LF2_R37_A_330


 44 46  0  0  0  0  0  0  0  0999 V2000
   31.5110   32.6995   13.7330 C   0  0  0  0  0  0  0  0  0  0  0  0
   31.7413   31.7867   14.8039 O   0  0  0  0  0  0  0  0  0  0  0  0
   32.4231   31.1479   14.5433 H   0  0  0  0  0  0  0  0  0  0  0  0
   32.8378   33.3525   13.4685 C   0  0  0  0  0  0  0  0  0  0  0  0
   33.0976   34.7666   13.9534 C   0  0  0  0  0  0  0  0  0  0  0  0
   31.8469   35.4342   14.3183 N   0  0  0  0  0  0  0  0  0  0  0  0
   31.4115   36.5144   13.6695 C   0  0  0  0  0  0  0  0  0  0  0  0
   31.5285   36.6361   12.4370 O   0  0  0  0  0  0  0  0  0  0  0  0
   31.3126   35.0756   15.0634 H   0  0  0  0  0  0  0  0  0  0  0  0
   30.7444   37.4990   14.4307 C   0  0  0  0  0  0  0  0  0  0  0  0
   29.5613   38.1086   13.9786 C   0  0  0  0  0  0  0  0  0  0  0  0
   28.9083   39.0898   14.7571 C   0  0  0  0  0  0  0  0  0  0  0  0
   29.4343   39.4667   15.9938 C   0  0  0  0  0  0  0  0  0  0  0  0
   30.6122   38.8630   16.4467 C   0  0  0  0  0  0  0  0  0  0  0  0
   28.7405   40.4962   16.8478 N   0  0  0  0  0  0  0  0  0  0  0  0
   31.2523   37.8921   15.6772 C   0  0  0  0  0  0  0  0  0  0  0  0
   27.9115   40.9216   16.5300 H   0  0  0  0  0  0  0  0  0  0  0  0
   29.1162   40.7434   17.7236 H   0  0  0  0  0  0  0  0  0  0  0  0
   34.1228   34.8401   15.1086 C   0  0  0  0  0  0  0  0  0  0  0  0
   35.4567   35.5712   14.9122 C   0  0  0  0  0  0  0  0  0  0  0  0
   36.5463   34.7363   15.6195 C   0  0  0  0  0  0  0  0  0  0  0  0
   35.7563   35.6244   13.4366 C   0  0  0  0  0  0  0  0  0  0  0  0
   31.0137   31.9046   12.4775 C   0  0  0  0  0  0  0  0  0  0  0  0
   32.4921   31.0091   10.7358 C   0  0  0  0  0  0  0  0  0  0  0  0
   32.2916   31.9578    9.9640 O   0  0  0  0  0  0  0  0  0  0  0  0
   32.0412   30.9982   11.9935 N   0  0  0  0  0  0  0  0  0  0  0  0
   32.4234   30.3445   12.6226 H   0  0  0  0  0  0  0  0  0  0  0  0
   33.3080   29.7794   10.2818 C   0  0  0  0  0  0  0  0  0  0  0  0
   34.6724   29.9582   10.5103 O   0  0  0  0  0  0  0  0  0  0  0  0
   35.6481   30.1739    8.3925 C   0  0  0  0  0  0  0  0  0  0  0  0
   35.4527   30.7181    9.6425 C   0  0  0  0  0  0  0  0  0  0  0  0
   36.0182   31.9685    9.9502 C   0  0  0  0  0  0  0  0  0  0  0  0
   36.7719   32.6444    8.9876 C   0  0  0  0  0  0  0  0  0  0  0  0
   36.9664   32.0918    7.7398 C   0  0  0  0  0  0  0  0  0  0  0  0
   36.4081   30.8641    7.4384 C   0  0  0  0  0  0  0  0  0  0  0  0
   35.7401   32.6145   11.2949 C   0  0  0  0  0  0  0  0  0  0  0  0
   35.0230   28.8318    8.0570 C   0  0  0  0  0  0  0  0  0  0  0  0
   29.7591   31.0807   12.8285 C   0  0  0  0  0  0  0  0  0  0  0  0
   28.8563   30.7940   11.6440 C   0  0  0  0  0  0  0  0  0  0  0  0
   28.4351   29.5067   11.3703 C   0  0  0  0  0  0  0  0  0  0  0  0
   27.5935   29.2556   10.2751 C   0  0  0  0  0  0  0  0  0  0  0  0
   27.1621   30.2989    9.4532 C   0  0  0  0  0  0  0  0  0  0  0  0
   27.5760   31.5992    9.7160 C   0  0  0  0  0  0  0  0  0  0  0  0
   28.4268   31.8356   10.8108 C   0  0  0  0  0  0  0  0  0  0  0  0
 30 31  2  0  0  0
 30 35  1  0  0  0
 30 37  1  0  0  0
 31 32  1  0  0  0
 31 29  1  0  0  0
 32 33  2  0  0  0
 32 36  1  0  0  0
 33 34  1  0  0  0
 34 35  2  0  0  0
 10 11  2  0  0  0
 10 16  1  0  0  0
 10  7  1  0  0  0
 11 12  1  0  0  0
 12 13  2  0  0  0
 13 14  1  0  0  0
 13 15  1  0  0  0
 14 16  2  0  0  0
 29 28  1  0  0  0
 28 24  1  0  0  0
 24 25  2  0  0  0
 24 26  1  0  0  0
 26 23  1  0  0  0
  1  2  1  0  0  0
  1  4  1  0  0  0
  1 23  1  0  0  0
  4  5  1  0  0  0
  5 19  1  0  0  0
  5  6  1  0  0  0
 19 20  1  0  0  0
 20 21  1  0  0  0
 20 22  1  0  0  0
  6  7  1  0  0  0
  7  8  2  0  0  0
 23 38  1  0  0  0
 38 39  1  0  0  0
 39 40  2  0  0  0
 39 44  1  0  0  0
 40 41  1  0  0  0
 41 42  2  0  0  0
 42 43  1  0  0  0
 43 44  2  0  0  0
 15 17  1  0  0  0
 15 18  1  0  0  0
 26 27  1  0  0  0
  2  3  1  0  0  0
  6  9  1  0  0  0
M  END
> <minimizedAffinity>
-9.75775

$$$$
1LF2_R37_A_330


 44 46  0  0  0  0  0  0  0  0999 V2000
   31.5077   32.8571   13.8371 C   0  0  0  0  0  0  0  0  0  0  0  0
   31.7411   31.9572   14.9182 O   0  0  0  0  0  0  0  0  0  0  0  0
   32.4295   31.3217   14.6670 H   0  0  0  0  0  0  0  0  0  0  0  0
   32.8300   33.5190   13.5717 C   0  0  0  0  0  0  0  0  0  0  0  0
   33.0451   34.9689   13.9641 C   0  0  0  0  0  0  0  0  0  0  0  0
   31.7778   35.6098   14.3192 N   0  0  0  0  0  0  0  0  0  0  0  0
   31.3400   36.6994   13.6878 C   0  0  0  0  0  0  0  0  0  0  0  0
   31.4801   36.8527   12.4613 O   0  0  0  0  0  0  0  0  0  0  0  0
   31.2337   35.2257   15.0443 H   0  0  0  0  0  0  0  0  0  0  0  0
   30.6435   37.6556   14.4588 C   0  0  0  0  0  0  0  0  0  0  0  0
   29.4739   38.2766   13.9876 C   0  0  0  0  0  0  0  0  0  0  0  0
   28.7909   39.2290   14.7761 C   0  0  0  0  0  0  0  0  0  0  0  0
   29.2733   39.5655   16.0419 C   0  0  0  0  0  0  0  0  0  0  0  0
   30.4377   38.9504   16.5138 C   0  0  0  0  0  0  0  0  0  0  0  0
   28.5467   40.5635   16.9061 N   0  0  0  0  0  0  0  0  0  0  0  0
   31.1073   38.0079   15.7343 C   0  0  0  0  0  0  0  0  0  0  0  0
   27.7272   40.9969   16.5749 H   0  0  0  0  0  0  0  0  0  0  0  0
   28.8916   40.7820   17.8019 H   0  0  0  0  0  0  0  0  0  0  0  0
   34.0925   35.1514   15.0868 C   0  0  0  0  0  0  0  0  0  0  0  0
   35.5254   34.6383   14.8973 C   0  0  0  0  0  0  0  0  0  0  0  0
   36.4509   35.8729   14.8368 C   0  0  0  0  0  0  0  0  0  0  0  0
   35.8935   33.8041   16.0966 C   0  0  0  0  0  0  0  0  0  0  0  0
   31.0229   32.0453   12.5876 C   0  0  0  0  0  0  0  0  0  0  0  0
   32.4974   31.0803   10.8800 C   0  0  0  0  0  0  0  0  0  0  0  0
   32.2978   31.9990   10.0724 O   0  0  0  0  0  0  0  0  0  0  0  0
   32.0479   31.1188   12.1377 N   0  0  0  0  0  0  0  0  0  0  0  0
   32.4297   30.4891   12.7911 H   0  0  0  0  0  0  0  0  0  0  0  0
   33.3104   29.8325   10.4729 C   0  0  0  0  0  0  0  0  0  0  0  0
   33.8319   29.9595    9.1855 O   0  0  0  0  0  0  0  0  0  0  0  0
   34.5901   28.1054    7.9725 C   0  0  0  0  0  0  0  0  0  0  0  0
   34.9102   29.1836    8.7673 C   0  0  0  0  0  0  0  0  0  0  0  0
   36.2572   29.4360    9.0836 C   0  0  0  0  0  0  0  0  0  0  0  0
   37.2551   28.5917    8.5905 C   0  0  0  0  0  0  0  0  0  0  0  0
   36.9268   27.5122    7.7986 C   0  0  0  0  0  0  0  0  0  0  0  0
   35.6029   27.2671    7.4870 C   0  0  0  0  0  0  0  0  0  0  0  0
   36.6275   30.6676    9.8891 C   0  0  0  0  0  0  0  0  0  0  0  0
   33.1370   27.8445    7.6187 C   0  0  0  0  0  0  0  0  0  0  0  0
   29.7531   31.2420   12.9314 C   0  0  0  0  0  0  0  0  0  0  0  0
   28.8740   30.9328   11.7348 C   0  0  0  0  0  0  0  0  0  0  0  0
   28.4256   29.6472   11.4993 C   0  0  0  0  0  0  0  0  0  0  0  0
   27.6063   29.3754   10.3921 C   0  0  0  0  0  0  0  0  0  0  0  0
   27.2247   30.3967    9.5195 C   0  0  0  0  0  0  0  0  0  0  0  0
   27.6665   31.6951    9.7434 C   0  0  0  0  0  0  0  0  0  0  0  0
   28.4946   31.9519   10.8510 C   0  0  0  0  0  0  0  0  0  0  0  0
 30 31  2  0  0  0
 30 35  1  0  0  0
 30 37  1  0  0  0
 31 32  1  0  0  0
 31 29  1  0  0  0
 32 33  2  0  0  0
 32 36  1  0  0  0
 33 34  1  0  0  0
 34 35  2  0  0  0
 10 11  2  0  0  0
 10 16  1  0  0  0
 10  7  1  0  0  0
 11 12  1  0  0  0
 12 13  2  0  0  0
 13 14  1  0  0  0
 13 15  1  0  0  0
 14 16  2  0  0  0
 29 28  1  0  0  0
 28 24  1  0  0  0
 24 25  2  0  0  0
 24 26  1  0  0  0
 26 23  1  0  0  0
  1  2  1  0  0  0
  1  4  1  0  0  0
  1 23  1  0  0  0
  4  5  1  0  0  0
  5 19  1  0  0  0
  5  6  1  0  0  0
 19 20  1  0  0  0
 20 21  1  0  0  0
 20 22  1  0  0  0
  6  7  1  0  0  0
  7  8  2  0  0  0
 23 38  1  0  0  0
 38 39  1  0  0  0
 39 40  2  0  0  0
 39 44  1  0  0  0
 40 41  1  0  0  0
 41 42  2  0  0  0
 42 43  1  0  0  0
 43 44  2  0  0  0
 15 17  1  0  0  0
 15 18  1  0  0  0
 26 27  1  0  0  0
  2  3  1  0  0  0
  6  9  1  0  0  0
M  END
> <minimizedAffinity>
-9.49979

$$$$
1LF2_R37_A_330


 44 46  0  0  0  0  0  0  0  0999 V2000
   31.4702   32.8936   13.5083 C   0  0  0  0  0  0  0  0  0  0  0  0
   31.6070   32.1410   14.7117 O   0  0  0  0  0  0  0  0  0  0  0  0
   32.3215   31.4932   14.6084 H   0  0  0  0  0  0  0  0  0  0  0  0
   32.8063   33.5437   13.2862 C   0  0  0  0  0  0  0  0  0  0  0  0
   33.1068   34.8931   13.9118 C   0  0  0  0  0  0  0  0  0  0  0  0
   31.8822   35.5295   14.3999 N   0  0  0  0  0  0  0  0  0  0  0  0
   31.3151   36.5494   13.7553 C   0  0  0  0  0  0  0  0  0  0  0  0
   31.2670   36.6006   12.5133 O   0  0  0  0  0  0  0  0  0  0  0  0
   31.4660   35.1952   15.2271 H   0  0  0  0  0  0  0  0  0  0  0  0
   30.7039   37.5501   14.5420 C   0  0  0  0  0  0  0  0  0  0  0  0
   31.1893   37.8888   15.8168 C   0  0  0  0  0  0  0  0  0  0  0  0
   30.5644   38.8950   16.5865 C   0  0  0  0  0  0  0  0  0  0  0  0
   29.4502   39.5696   16.0851 C   0  0  0  0  0  0  0  0  0  0  0  0
   28.9635   39.2345   14.8171 C   0  0  0  0  0  0  0  0  0  0  0  0
   28.7831   40.6603   16.8825 N   0  0  0  0  0  0  0  0  0  0  0  0
   29.5850   38.2433   14.0584 C   0  0  0  0  0  0  0  0  0  0  0  0
   29.1249   40.8969   17.7750 H   0  0  0  0  0  0  0  0  0  0  0  0
   28.0055   41.1363   16.5111 H   0  0  0  0  0  0  0  0  0  0  0  0
   34.1792   34.8282   15.0239 C   0  0  0  0  0  0  0  0  0  0  0  0
   35.5073   35.5778   14.8609 C   0  0  0  0  0  0  0  0  0  0  0  0
   36.5683   34.8167   15.6853 C   0  0  0  0  0  0  0  0  0  0  0  0
   35.8960   35.5444   13.4057 C   0  0  0  0  0  0  0  0  0  0  0  0
   31.1137   31.9220   12.3317 C   0  0  0  0  0  0  0  0  0  0  0  0
   32.7098   30.9588   10.7362 C   0  0  0  0  0  0  0  0  0  0  0  0
   32.4038   31.7469    9.8300 O   0  0  0  0  0  0  0  0  0  0  0  0
   32.2494   31.0849   11.9841 N   0  0  0  0  0  0  0  0  0  0  0  0
   32.7014   30.5865   12.7028 H   0  0  0  0  0  0  0  0  0  0  0  0
   33.6746   29.7834   10.4693 C   0  0  0  0  0  0  0  0  0  0  0  0
   32.9971   28.6663    9.9809 O   0  0  0  0  0  0  0  0  0  0  0  0
   32.0039   28.3333    7.8865 C   0  0  0  0  0  0  0  0  0  0  0  0
   33.1431   28.2593    8.6570 C   0  0  0  0  0  0  0  0  0  0  0  0
   34.3434   27.8098    8.0782 C   0  0  0  0  0  0  0  0  0  0  0  0
   34.3683   27.4421    6.7307 C   0  0  0  0  0  0  0  0  0  0  0  0
   33.2233   27.5151    5.9667 C   0  0  0  0  0  0  0  0  0  0  0  0
   32.0453   27.9594    6.5365 C   0  0  0  0  0  0  0  0  0  0  0  0
   35.6219   27.8033    8.8957 C   0  0  0  0  0  0  0  0  0  0  0  0
   30.7132   28.8346    8.5091 C   0  0  0  0  0  0  0  0  0  0  0  0
   29.9362   31.0102   12.7292 C   0  0  0  0  0  0  0  0  0  0  0  0
   28.9649   30.7266   11.5993 C   0  0  0  0  0  0  0  0  0  0  0  0
   28.4317   29.4638   11.4246 C   0  0  0  0  0  0  0  0  0  0  0  0
   27.5279   29.2160   10.3793 C   0  0  0  0  0  0  0  0  0  0  0  0
   27.1471   30.2389    9.5082 C   0  0  0  0  0  0  0  0  0  0  0  0
   27.6737   31.5146    9.6716 C   0  0  0  0  0  0  0  0  0  0  0  0
   28.5854   31.7470   10.7171 C   0  0  0  0  0  0  0  0  0  0  0  0
 30 31  2  0  0  0
 30 35  1  0  0  0
 30 37  1  0  0  0
 31 32  1  0  0  0
 31 29  1  0  0  0
 32 33  2  0  0  0
 32 36  1  0  0  0
 33 34  1  0  0  0
 34 35  2  0  0  0
 10 11  2  0  0  0
 10 16  1  0  0  0
 10  7  1  0  0  0
 11 12  1  0  0  0
 12 13  2  0  0  0
 13 14  1  0  0  0
 13 15  1  0  0  0
 14 16  2  0  0  0
 29 28  1  0  0  0
 28 24  1  0  0  0
 24 25  2  0  0  0
 24 26  1  0  0  0
 26 23  1  0  0  0
  1  2  1  0  0  0
  1  4  1  0  0  0
  1 23  1  0  0  0
  4  5  1  0  0  0
  5 19  1  0  0  0
  5  6  1  0  0  0
 19 20  1  0  0  0
 20 21  1  0  0  0
 20 22  1  0  0  0
  6  7  1  0  0  0
  7  8  2  0  0  0
 23 38  1  0  0  0
 38 39  1  0  0  0
 39 40  2  0  0  0
 39 44  1  0  0  0
 40 41  1  0  0  0
 41 42  2  0  0  0
 42 43  1  0  0  0
 43 44  2  0  0  0
 15 17  1  0  0  0
 15 18  1  0  0  0
 26 27  1  0  0  0
  2  3  1  0  0  0
  6  9  1  0  0  0
M  END
> <minimizedAffinity>
-9.21653

$$$$
1LF2_R37_A_330


 44 46  0  0  0  0  0  0  0  0999 V2000
   32.1788   32.8538   13.8255 C   0  0  0  0  0  0  0  0  0  0  0  0
   33.5791   32.5985   13.9103 O   0  0  0  0  0  0  0  0  0  0  0  0
   34.0134   32.9053   13.0990 H   0  0  0  0  0  0  0  0  0  0  0  0
   32.0513   34.3383   13.6327 C   0  0  0  0  0  0  0  0  0  0  0  0
   33.1322   35.2667   14.1543 C   0  0  0  0  0  0  0  0  0  0  0  0
   34.2433   35.3634   13.2061 N   0  0  0  0  0  0  0  0  0  0  0  0
   35.5126   35.4000   13.6121 C   0  0  0  0  0  0  0  0  0  0  0  0
   35.9215   34.7112   14.5639 O   0  0  0  0  0  0  0  0  0  0  0  0
   34.0478   35.4024   12.2420 H   0  0  0  0  0  0  0  0  0  0  0  0
   36.4035   36.2081   12.8724 C   0  0  0  0  0  0  0  0  0  0  0  0
   37.0897   35.7163   11.7486 C   0  0  0  0  0  0  0  0  0  0  0  0
   37.9748   36.5425   11.0210 C   0  0  0  0  0  0  0  0  0  0  0  0
   38.1781   37.8666   11.4125 C   0  0  0  0  0  0  0  0  0  0  0  0
   37.4977   38.3594   12.5311 C   0  0  0  0  0  0  0  0  0  0  0  0
   39.1021   38.7692   10.6364 N   0  0  0  0  0  0  0  0  0  0  0  0
   36.6220   37.5422   13.2449 C   0  0  0  0  0  0  0  0  0  0  0  0
   39.5814   38.4234    9.8491 H   0  0  0  0  0  0  0  0  0  0  0  0
   39.2264   39.7047   10.9167 H   0  0  0  0  0  0  0  0  0  0  0  0
   32.6044   36.6694   14.5349 C   0  0  0  0  0  0  0  0  0  0  0  0
   31.1320   37.0301   14.3020 C   0  0  0  0  0  0  0  0  0  0  0  0
   30.6240   37.7334   15.5794 C   0  0  0  0  0  0  0  0  0  0  0  0
   31.0561   37.9927   13.1455 C   0  0  0  0  0  0  0  0  0  0  0  0
   31.5869   32.0737   12.6022 C   0  0  0  0  0  0  0  0  0  0  0  0
   32.7597   31.0169   10.7237 C   0  0  0  0  0  0  0  0  0  0  0  0
   32.3310   31.8304    9.8928 O   0  0  0  0  0  0  0  0  0  0  0  0
   32.5701   31.1646   12.0380 N   0  0  0  0  0  0  0  0  0  0  0  0
   33.1232   30.6317   12.6539 H   0  0  0  0  0  0  0  0  0  0  0  0
   33.5695   29.7812   10.2752 C   0  0  0  0  0  0  0  0  0  0  0  0
   34.9423   30.0022   10.3844 O   0  0  0  0  0  0  0  0  0  0  0  0
   36.1160   31.9606    9.8639 C   0  0  0  0  0  0  0  0  0  0  0  0
   35.6283   30.7482    9.4291 C   0  0  0  0  0  0  0  0  0  0  0  0
   35.8574   30.3447    8.1014 C   0  0  0  0  0  0  0  0  0  0  0  0
   36.5749   31.1763    7.2381 C   0  0  0  0  0  0  0  0  0  0  0  0
   37.0569   32.3900    7.6793 C   0  0  0  0  0  0  0  0  0  0  0  0
   36.8328   32.7839    8.9848 C   0  0  0  0  0  0  0  0  0  0  0  0
   35.3965   28.9758    7.6362 C   0  0  0  0  0  0  0  0  0  0  0  0
   35.8818   32.3867   11.3020 C   0  0  0  0  0  0  0  0  0  0  0  0
   30.3545   31.2554   13.0353 C   0  0  0  0  0  0  0  0  0  0  0  0
   29.3163   31.0767   11.9441 C   0  0  0  0  0  0  0  0  0  0  0  0
   28.7544   29.8385   11.6978 C   0  0  0  0  0  0  0  0  0  0  0  0
   27.7889   29.6877   10.6898 C   0  0  0  0  0  0  0  0  0  0  0  0
   27.3753   30.7832    9.9289 C   0  0  0  0  0  0  0  0  0  0  0  0
   27.9301   32.0352   10.1653 C   0  0  0  0  0  0  0  0  0  0  0  0
   28.9032   32.1705   11.1718 C   0  0  0  0  0  0  0  0  0  0  0  0
 30 31  2  0  0  0
 30 35  1  0  0  0
 30 37  1  0  0  0
 31 32  1  0  0  0
 31 29  1  0  0  0
 32 33  2  0  0  0
 32 36  1  0  0  0
 33 34  1  0  0  0
 34 35  2  0  0  0
 10 11  2  0  0  0
 10 16  1  0  0  0
 10  7  1  0  0  0
 11 12  1  0  0  0
 12 13  2  0  0  0
 13 14  1  0  0  0
 13 15  1  0  0  0
 14 16  2  0  0  0
 29 28  1  0  0  0
 28 24  1  0  0  0
 24 25  2  0  0  0
 24 26  1  0  0  0
 26 23  1  0  0  0
  1  2  1  0  0  0
  1  4  1  0  0  0
  1 23  1  0  0  0
  4  5  1  0  0  0
  5 19  1  0  0  0
  5  6  1  0  0  0
 19 20  1  0  0  0
 20 21  1  0  0  0
 20 22  1  0  0  0
  6  7  1  0  0  0
  7  8  2  0  0  0
 23 38  1  0  0  0
 38 39  1  0  0  0
 39 40  2  0  0  0
 39 44  1  0  0  0
 40 41  1  0  0  0
 41 42  2  0  0  0
 42 43  1  0  0  0
 43 44  2  0  0  0
 15 17  1  0  0  0
 15 18  1  0  0  0
 26 27  1  0  0  0
  2  3  1  0  0  0
  6  9  1  0  0  0
M  END
> <minimizedAffinity>
-9.04929

$$$$
1LF2_R37_A_330


 44 46  0  0  0  0  0  0  0  0999 V2000
   31.6804   32.6780   13.1962 C   0  0  0  0  0  0  0  0  0  0  0  0
   31.5722   32.0682   14.4806 O   0  0  0  0  0  0  0  0  0  0  0  0
   32.2789   31.4125   14.5877 H   0  0  0  0  0  0  0  0  0  0  0  0
   33.0484   33.2979   13.1590 C   0  0  0  0  0  0  0  0  0  0  0  0
   33.2919   34.6392   13.8252 C   0  0  0  0  0  0  0  0  0  0  0  0
   32.0305   35.2566   14.2383 N   0  0  0  0  0  0  0  0  0  0  0  0
   31.5193   36.3077   13.5970 C   0  0  0  0  0  0  0  0  0  0  0  0
   31.5757   36.4174   12.3592 O   0  0  0  0  0  0  0  0  0  0  0  0
   31.5464   34.8854   15.0109 H   0  0  0  0  0  0  0  0  0  0  0  0
   30.8439   37.2727   14.3759 C   0  0  0  0  0  0  0  0  0  0  0  0
   29.7719   38.0216   13.8606 C   0  0  0  0  0  0  0  0  0  0  0  0
   29.1082   38.9804   14.6578 C   0  0  0  0  0  0  0  0  0  0  0  0
   29.5123   39.1954   15.9763 C   0  0  0  0  0  0  0  0  0  0  0  0
   30.5797   38.4528   16.4924 C   0  0  0  0  0  0  0  0  0  0  0  0
   28.8031   40.1988   16.8486 N   0  0  0  0  0  0  0  0  0  0  0  0
   31.2302   37.5045   15.7038 C   0  0  0  0  0  0  0  0  0  0  0  0
   28.0518   40.7219   16.4863 H   0  0  0  0  0  0  0  0  0  0  0  0
   29.0909   40.3312   17.7807 H   0  0  0  0  0  0  0  0  0  0  0  0
   34.2863   34.5654   15.0070 C   0  0  0  0  0  0  0  0  0  0  0  0
   35.5909   35.3710   14.9703 C   0  0  0  0  0  0  0  0  0  0  0  0
   36.6047   34.6448   15.8809 C   0  0  0  0  0  0  0  0  0  0  0  0
   36.1096   35.3706   13.5559 C   0  0  0  0  0  0  0  0  0  0  0  0
   31.5297   31.5782   12.0903 C   0  0  0  0  0  0  0  0  0  0  0  0
   29.2527   30.6756   12.2386 C   0  0  0  0  0  0  0  0  0  0  0  0
   29.4306   30.1926   13.3660 O   0  0  0  0  0  0  0  0  0  0  0  0
   30.1500   31.4696   11.6473 N   0  0  0  0  0  0  0  0  0  0  0  0
   29.8625   32.0070   10.8741 H   0  0  0  0  0  0  0  0  0  0  0  0
   27.9512   30.3979   11.4559 C   0  0  0  0  0  0  0  0  0  0  0  0
   27.8624   29.0608   11.0690 O   0  0  0  0  0  0  0  0  0  0  0  0
   29.3161   27.4075   10.2704 C   0  0  0  0  0  0  0  0  0  0  0  0
   28.6206   28.5674   10.0100 C   0  0  0  0  0  0  0  0  0  0  0  0
   28.7019   29.1527    8.7337 C   0  0  0  0  0  0  0  0  0  0  0  0
   29.4866   28.5540    7.7451 C   0  0  0  0  0  0  0  0  0  0  0  0
   30.1830   27.3952    8.0142 C   0  0  0  0  0  0  0  0  0  0  0  0
   30.1001   26.8202    9.2681 C   0  0  0  0  0  0  0  0  0  0  0  0
   27.8748   30.3835    8.4115 C   0  0  0  0  0  0  0  0  0  0  0  0
   29.2137   26.7685   11.6436 C   0  0  0  0  0  0  0  0  0  0  0  0
   32.4100   31.9205   10.8722 C   0  0  0  0  0  0  0  0  0  0  0  0
   33.2322   30.7550   10.3564 C   0  0  0  0  0  0  0  0  0  0  0  0
   32.6312   29.5544   10.0298 C   0  0  0  0  0  0  0  0  0  0  0  0
   33.4024   28.4856    9.5464 C   0  0  0  0  0  0  0  0  0  0  0  0
   34.7823   28.6201    9.3794 C   0  0  0  0  0  0  0  0  0  0  0  0
   35.4015   29.8216    9.7023 C   0  0  0  0  0  0  0  0  0  0  0  0
   34.6184   30.8813   10.1945 C   0  0  0  0  0  0  0  0  0  0  0  0
 30 31  2  0  0  0
 30 35  1  0  0  0
 30 37  1  0  0  0
 31 32  1  0  0  0
 31 29  1  0  0  0
 32 33  2  0  0  0
 32 36  1  0  0  0
 33 34  1  0  0  0
 34 35  2  0  0  0
 10 11  2  0  0  0
 10 16  1  0  0  0
 10  7  1  0  0  0
 11 12  1  0  0  0
 12 13  2  0  0  0
 13 14  1  0  0  0
 13 15  1  0  0  0
 14 16  2  0  0  0
 29 28  1  0  0  0
 28 24  1  0  0  0
 24 25  2  0  0  0
 24 26  1  0  0  0
 26 23  1  0  0  0
  1  2  1  0  0  0
  1  4  1  0  0  0
  1 23  1  0  0  0
  4  5  1  0  0  0
  5 19  1  0  0  0
  5  6  1  0  0  0
 19 20  1  0  0  0
 20 21  1  0  0  0
 20 22  1  0  0  0
  6  7  1  0  0  0
  7  8  2  0  0  0
 23 38  1  0  0  0
 38 39  1  0  0  0
 39 40  2  0  0  0
 39 44  1  0  0  0
 40 41  1  0  0  0
 41 42  2  0  0  0
 42 43  1  0  0  0
 43 44  2  0  0  0
 15 17  1  0  0  0
 15 18  1  0  0  0
 26 27  1  0  0  0
  2  3  1  0  0  0
  6  9  1  0  0  0
M  END
> <minimizedAffinity>
-8.98008

$$$$
1LF2_R37_A_330


 44 46  0  0  0  0  0  0  0  0999 V2000
   32.1105   33.0093   13.7289 C   0  0  0  0  0  0  0  0  0  0  0  0
   31.7505   32.5323   15.0234 O   0  0  0  0  0  0  0  0  0  0  0  0
   32.4886   32.0270   15.3987 H   0  0  0  0  0  0  0  0  0  0  0  0
   33.3360   33.8530   13.9373 C   0  0  0  0  0  0  0  0  0  0  0  0
   33.2435   35.3640   13.8338 C   0  0  0  0  0  0  0  0  0  0  0  0
   31.8775   35.8246   14.0879 N   0  0  0  0  0  0  0  0  0  0  0  0
   31.4351   36.9973   13.6333 C   0  0  0  0  0  0  0  0  0  0  0  0
   31.7494   37.4311   12.5106 O   0  0  0  0  0  0  0  0  0  0  0  0
   31.2686   35.2528   14.6089 H   0  0  0  0  0  0  0  0  0  0  0  0
   30.5323   37.7083   14.4538 C   0  0  0  0  0  0  0  0  0  0  0  0
   29.3042   38.1848   13.9635 C   0  0  0  0  0  0  0  0  0  0  0  0
   28.4142   38.8918   14.8022 C   0  0  0  0  0  0  0  0  0  0  0  0
   28.7469   39.1259   16.1373 C   0  0  0  0  0  0  0  0  0  0  0  0
   29.9688   38.6542   16.6286 C   0  0  0  0  0  0  0  0  0  0  0  0
   27.8012   39.8597   17.0526 N   0  0  0  0  0  0  0  0  0  0  0  0
   30.8434   37.9533   15.7990 C   0  0  0  0  0  0  0  0  0  0  0  0
   26.9411   40.1921   16.7078 H   0  0  0  0  0  0  0  0  0  0  0  0
   28.0436   40.0068   17.9954 H   0  0  0  0  0  0  0  0  0  0  0  0
   34.2556   36.1037   14.7391 C   0  0  0  0  0  0  0  0  0  0  0  0
   35.7552   36.0559   14.4211 C   0  0  0  0  0  0  0  0  0  0  0  0
   36.2659   37.5129   14.3959 C   0  0  0  0  0  0  0  0  0  0  0  0
   36.4517   35.3080   15.5281 C   0  0  0  0  0  0  0  0  0  0  0  0
   32.4193   31.7873   12.7979 C   0  0  0  0  0  0  0  0  0  0  0  0
   30.0040   31.3697   12.6819 C   0  0  0  0  0  0  0  0  0  0  0  0
   29.7242   32.5634   12.5009 O   0  0  0  0  0  0  0  0  0  0  0  0
   31.2613   30.9176   12.6775 N   0  0  0  0  0  0  0  0  0  0  0  0
   31.4105   29.9486   12.5885 H   0  0  0  0  0  0  0  0  0  0  0  0
   28.8919   30.3217   12.9024 C   0  0  0  0  0  0  0  0  0  0  0  0
   27.8919   30.4260   11.9355 O   0  0  0  0  0  0  0  0  0  0  0  0
   27.8141   30.7752    9.6212 C   0  0  0  0  0  0  0  0  0  0  0  0
   28.0717   29.9044   10.6567 C   0  0  0  0  0  0  0  0  0  0  0  0
   28.5001   28.5956   10.3715 C   0  0  0  0  0  0  0  0  0  0  0  0
   28.6586   28.1918    9.0435 C   0  0  0  0  0  0  0  0  0  0  0  0
   28.3953   29.0678    8.0122 C   0  0  0  0  0  0  0  0  0  0  0  0
   27.9767   30.3542    8.2944 C   0  0  0  0  0  0  0  0  0  0  0  0
   28.8659   27.6551   11.5048 C   0  0  0  0  0  0  0  0  0  0  0  0
   27.3679   32.1926    9.9318 C   0  0  0  0  0  0  0  0  0  0  0  0
   32.8150   32.2741   11.3900 C   0  0  0  0  0  0  0  0  0  0  0  0
   34.1384   31.7232   10.8944 C   0  0  0  0  0  0  0  0  0  0  0  0
   34.1878   30.5534   10.1606 C   0  0  0  0  0  0  0  0  0  0  0  0
   35.4184   30.0578    9.7014 C   0  0  0  0  0  0  0  0  0  0  0  0
   36.6068   30.7404    9.9692 C   0  0  0  0  0  0  0  0  0  0  0  0
   36.5736   31.9189   10.7050 C   0  0  0  0  0  0  0  0  0  0  0  0
   35.3351   32.3993   11.1671 C   0  0  0  0  0  0  0  0  0  0  0  0
 30 31  2  0  0  0
 30 35  1  0  0  0
 30 37  1  0  0  0
 31 32  1  0  0  0
 31 29  1  0  0  0
 32 33  2  0  0  0
 32 36  1  0  0  0
 33 34  1  0  0  0
 34 35  2  0  0  0
 10 11  2  0  0  0
 10 16  1  0  0  0
 10  7  1  0  0  0
 11 12  1  0  0  0
 12 13  2  0  0  0
 13 14  1  0  0  0
 13 15  1  0  0  0
 14 16  2  0  0  0
 29 28  1  0  0  0
 28 24  1  0  0  0
 24 25  2  0  0  0
 24 26  1  0  0  0
 26 23  1  0  0  0
  1  2  1  0  0  0
  1  4  1  0  0  0
  1 23  1  0  0  0
  4  5  1  0  0  0
  5 19  1  0  0  0
  5  6  1  0  0  0
 19 20  1  0  0  0
 20 21  1  0  0  0
 20 22  1  0  0  0
  6  7  1  0  0  0
  7  8  2  0  0  0
 23 38  1  0  0  0
 38 39  1  0  0  0
 39 40  2  0  0  0
 39 44  1  0  0  0
 40 41  1  0  0  0
 41 42  2  0  0  0
 42 43  1  0  0  0
 43 44  2  0  0  0
 15 17  1  0  0  0
 15 18  1  0  0  0
 26 27  1  0  0  0
  2  3  1  0  0  0
  6  9  1  0  0  0
M  END
> <minimizedAffinity>
-8.90448

$$$$
1LF2_R37_A_330


 44 46  0  0  0  0  0  0  0  0999 V2000
   32.2148   32.6765   13.9517 C   0  0  0  0  0  0  0  0  0  0  0  0
   31.7731   32.4371   15.2860 O   0  0  0  0  0  0  0  0  0  0  0  0
   30.9977   32.9889   15.4738 H   0  0  0  0  0  0  0  0  0  0  0  0
   31.0439   32.3383   13.0733 C   0  0  0  0  0  0  0  0  0  0  0  0
   31.2703   31.9426   11.6261 C   0  0  0  0  0  0  0  0  0  0  0  0
   32.2881   30.8958   11.5215 N   0  0  0  0  0  0  0  0  0  0  0  0
   33.4583   31.1107   10.9198 C   0  0  0  0  0  0  0  0  0  0  0  0
   34.0713   32.1871   11.0338 O   0  0  0  0  0  0  0  0  0  0  0  0
   32.1035   30.0085   11.9060 H   0  0  0  0  0  0  0  0  0  0  0  0
   34.0171   30.0365   10.1934 C   0  0  0  0  0  0  0  0  0  0  0  0
   33.2455   28.9312    9.7954 C   0  0  0  0  0  0  0  0  0  0  0  0
   33.8239   27.8682    9.0669 C   0  0  0  0  0  0  0  0  0  0  0  0
   35.1781   27.9046    8.7310 C   0  0  0  0  0  0  0  0  0  0  0  0
   35.9496   29.0026    9.1264 C   0  0  0  0  0  0  0  0  0  0  0  0
   35.8080   26.7901    7.9363 N   0  0  0  0  0  0  0  0  0  0  0  0
   35.3746   30.0520    9.8422 C   0  0  0  0  0  0  0  0  0  0  0  0
   35.2659   26.0170    7.6576 H   0  0  0  0  0  0  0  0  0  0  0  0
   36.7616   26.8350    7.6957 H   0  0  0  0  0  0  0  0  0  0  0  0
   29.9729   31.5297   10.8931 C   0  0  0  0  0  0  0  0  0  0  0  0
   28.6046   31.9219   11.4645 C   0  0  0  0  0  0  0  0  0  0  0  0
   27.7017   32.3048   10.2718 C   0  0  0  0  0  0  0  0  0  0  0  0
   28.0191   30.7211   12.1610 C   0  0  0  0  0  0  0  0  0  0  0  0
   32.6128   34.1849   13.8044 C   0  0  0  0  0  0  0  0  0  0  0  0
   31.2436   36.2172   13.6765 C   0  0  0  0  0  0  0  0  0  0  0  0
   31.6492   36.5168   12.5443 O   0  0  0  0  0  0  0  0  0  0  0  0
   31.5420   35.0540   14.2623 N   0  0  0  0  0  0  0  0  0  0  0  0
   31.0108   34.7721   15.0418 H   0  0  0  0  0  0  0  0  0  0  0  0
   30.3372   37.1810   14.4722 C   0  0  0  0  0  0  0  0  0  0  0  0
   30.0762   38.3479   13.7539 O   0  0  0  0  0  0  0  0  0  0  0  0
   28.3623   39.7731   14.4718 C   0  0  0  0  0  0  0  0  0  0  0  0
   29.7155   39.5259   14.4034 C   0  0  0  0  0  0  0  0  0  0  0  0
   30.6166   40.4353   14.9856 C   0  0  0  0  0  0  0  0  0  0  0  0
   30.1316   41.5788   15.6251 C   0  0  0  0  0  0  0  0  0  0  0  0
   28.7760   41.8215   15.6863 C   0  0  0  0  0  0  0  0  0  0  0  0
   27.8920   40.9256   15.1157 C   0  0  0  0  0  0  0  0  0  0  0  0
   32.1033   40.1309   14.9884 C   0  0  0  0  0  0  0  0  0  0  0  0
   27.3907   38.7817   13.8572 C   0  0  0  0  0  0  0  0  0  0  0  0
   33.8775   34.4876   14.6320 C   0  0  0  0  0  0  0  0  0  0  0  0
   34.9508   35.2396   13.8685 C   0  0  0  0  0  0  0  0  0  0  0  0
   35.1724   36.5841   14.0981 C   0  0  0  0  0  0  0  0  0  0  0  0
   36.1740   37.2670   13.3900 C   0  0  0  0  0  0  0  0  0  0  0  0
   36.9658   36.6000   12.4529 C   0  0  0  0  0  0  0  0  0  0  0  0
   36.7561   35.2476   12.2115 C   0  0  0  0  0  0  0  0  0  0  0  0
   35.7430   34.5777   12.9209 C   0  0  0  0  0  0  0  0  0  0  0  0
 30 31  2  0  0  0
 30 35  1  0  0  0
 30 37  1  0  0  0
 31 32  1  0  0  0
 31 29  1  0  0  0
 32 33  2  0  0  0
 32 36  1  0  0  0
 33 34  1  0  0  0
 34 35  2  0  0  0
 10 11  2  0  0  0
 10 16  1  0  0  0
 10  7  1  0  0  0
 11 12  1  0  0  0
 12 13  2  0  0  0
 13 14  1  0  0  0
 13 15  1  0  0  0
 14 16  2  0  0  0
 29 28  1  0  0  0
 28 24  1  0  0  0
 24 25  2  0  0  0
 24 26  1  0  0  0
 26 23  1  0  0  0
  1  2  1  0  0  0
  1  4  1  0  0  0
  1 23  1  0  0  0
  4  5  1  0  0  0
  5 19  1  0  0  0
  5  6  1  0  0  0
 19 20  1  0  0  0
 20 21  1  0  0  0
 20 22  1  0  0  0
  6  7  1  0  0  0
  7  8  2  0  0  0
 23 38  1  0  0  0
 38 39  1  0  0  0
 39 40  2  0  0  0
 39 44  1  0  0  0
 40 41  1  0  0  0
 41 42  2  0  0  0
 42 43  1  0  0  0
 43 44  2  0  0  0
 15 17  1  0  0  0
 15 18  1  0  0  0
 26 27  1  0  0  0
  2  3  1  0  0  0
  6  9  1  0  0  0
M  END
> <minimizedAffinity>
-8.89100

$$$$
1LF2_R37_A_330


 44 46  0  0  0  0  0  0  0  0999 V2000
   32.0068   31.5550   13.4694 C   0  0  0  0  0  0  0  0  0  0  0  0
   33.3775   31.6759   13.0959 O   0  0  0  0  0  0  0  0  0  0  0  0
   33.5230   32.5374   12.6746 H   0  0  0  0  0  0  0  0  0  0  0  0
   31.7413   32.7020   14.4026 C   0  0  0  0  0  0  0  0  0  0  0  0
   32.2263   34.0956   14.0492 C   0  0  0  0  0  0  0  0  0  0  0  0
   31.1487   35.0769   14.1869 N   0  0  0  0  0  0  0  0  0  0  0  0
   31.2367   36.2966   13.6559 C   0  0  0  0  0  0  0  0  0  0  0  0
   31.7538   36.4961   12.5422 O   0  0  0  0  0  0  0  0  0  0  0  0
   30.3366   34.8292   14.6853 H   0  0  0  0  0  0  0  0  0  0  0  0
   30.6551   37.3594   14.3813 C   0  0  0  0  0  0  0  0  0  0  0  0
   29.5660   38.0910   13.8771 C   0  0  0  0  0  0  0  0  0  0  0  0
   28.9974   39.1491   14.6203 C   0  0  0  0  0  0  0  0  0  0  0  0
   29.5144   39.4816   15.8734 C   0  0  0  0  0  0  0  0  0  0  0  0
   30.5990   38.7564   16.3781 C   0  0  0  0  0  0  0  0  0  0  0  0
   28.9078   40.5932   16.6900 N   0  0  0  0  0  0  0  0  0  0  0  0
   31.1555   37.7100   15.6434 C   0  0  0  0  0  0  0  0  0  0  0  0
   28.1444   41.1041   16.3358 H   0  0  0  0  0  0  0  0  0  0  0  0
   29.2748   40.8086   17.5778 H   0  0  0  0  0  0  0  0  0  0  0  0
   33.4773   34.5303   14.8473 C   0  0  0  0  0  0  0  0  0  0  0  0
   34.8800   34.2952   14.2733 C   0  0  0  0  0  0  0  0  0  0  0  0
   35.1185   35.3690   13.1897 C   0  0  0  0  0  0  0  0  0  0  0  0
   35.8838   34.4810   15.3814 C   0  0  0  0  0  0  0  0  0  0  0  0
   31.1132   31.6541   12.1861 C   0  0  0  0  0  0  0  0  0  0  0  0
   32.1223   30.6907   10.1675 C   0  0  0  0  0  0  0  0  0  0  0  0
   32.8615   31.6663    9.9732 O   0  0  0  0  0  0  0  0  0  0  0  0
   31.3862   30.5560   11.2744 N   0  0  0  0  0  0  0  0  0  0  0  0
   31.0106   29.6700   11.4823 H   0  0  0  0  0  0  0  0  0  0  0  0
   32.0309   29.5494    9.1316 C   0  0  0  0  0  0  0  0  0  0  0  0
   30.7702   28.9526    9.1381 O   0  0  0  0  0  0  0  0  0  0  0  0
   30.7474   26.6829    8.5621 C   0  0  0  0  0  0  0  0  0  0  0  0
   30.4330   27.9753    8.2049 C   0  0  0  0  0  0  0  0  0  0  0  0
   29.7999   28.2195    6.9730 C   0  0  0  0  0  0  0  0  0  0  0  0
   29.4978   27.1512    6.1249 C   0  0  0  0  0  0  0  0  0  0  0  0
   29.8189   25.8606    6.4876 C   0  0  0  0  0  0  0  0  0  0  0  0
   30.4389   25.6224    7.6995 C   0  0  0  0  0  0  0  0  0  0  0  0
   29.3748   29.6295    6.6069 C   0  0  0  0  0  0  0  0  0  0  0  0
   31.4158   26.4200    9.8997 C   0  0  0  0  0  0  0  0  0  0  0  0
   29.6207   31.6135   12.5691 C   0  0  0  0  0  0  0  0  0  0  0  0
   28.7207   31.0422   11.4902 C   0  0  0  0  0  0  0  0  0  0  0  0
   28.3169   29.7213   11.5314 C   0  0  0  0  0  0  0  0  0  0  0  0
   27.4777   29.2066   10.5306 C   0  0  0  0  0  0  0  0  0  0  0  0
   27.0313   30.0194    9.4865 C   0  0  0  0  0  0  0  0  0  0  0  0
   27.4276   31.3503    9.4317 C   0  0  0  0  0  0  0  0  0  0  0  0
   28.2761   31.8507   10.4356 C   0  0  0  0  0  0  0  0  0  0  0  0
 30 31  2  0  0  0
 30 35  1  0  0  0
 30 37  1  0  0  0
 31 32  1  0  0  0
 31 29  1  0  0  0
 32 33  2  0  0  0
 32 36  1  0  0  0
 33 34  1  0  0  0
 34 35  2  0  0  0
 10 11  2  0  0  0
 10 16  1  0  0  0
 10  7  1  0  0  0
 11 12  1  0  0  0
 12 13  2  0  0  0
 13 14  1  0  0  0
 13 15  1  0  0  0
 14 16  2  0  0  0
 29 28  1  0  0  0
 28 24  1  0  0  0
 24 25  2  0  0  0
 24 26  1  0  0  0
 26 23  1  0  0  0
  1  2  1  0  0  0
  1  4  1  0  0  0
  1 23  1  0  0  0
  4  5  1  0  0  0
  5 19  1  0  0  0
  5  6  1  0  0  0
 19 20  1  0  0  0
 20 21  1  0  0  0
 20 22  1  0  0  0
  6  7  1  0  0  0
  7  8  2  0  0  0
 23 38  1  0  0  0
 38 39  1  0  0  0
 39 40  2  0  0  0
 39 44  1  0  0  0
 40 41  1  0  0  0
 41 42  2  0  0  0
 42 43  1  0  0  0
 43 44  2  0  0  0
 15 17  1  0  0  0
 15 18  1  0  0  0
 26 27  1  0  0  0
  2  3  1  0  0  0
  6  9  1  0  0  0
M  END
> <minimizedAffinity>
-8.84460

$$$$
1LF2_R37_A_330


 44 46  0  0  0  0  0  0  0  0999 V2000
   31.1136   34.9342   13.6901 C   0  0  0  0  0  0  0  0  0  0  0  0
   30.3051   34.2729   14.6606 O   0  0  0  0  0  0  0  0  0  0  0  0
   30.8155   34.1482   15.4760 H   0  0  0  0  0  0  0  0  0  0  0  0
   31.5144   36.2375   14.3208 C   0  0  0  0  0  0  0  0  0  0  0  0
   30.7701   37.5118   13.9679 C   0  0  0  0  0  0  0  0  0  0  0  0
   30.3555   38.2287   15.1749 N   0  0  0  0  0  0  0  0  0  0  0  0
   29.3846   39.1421   15.1513 C   0  0  0  0  0  0  0  0  0  0  0  0
   28.3619   39.0007   14.4575 O   0  0  0  0  0  0  0  0  0  0  0  0
   30.8059   38.0309   16.0277 H   0  0  0  0  0  0  0  0  0  0  0  0
   29.5287   40.2589   16.0034 C   0  0  0  0  0  0  0  0  0  0  0  0
   30.6716   40.4383   16.8018 C   0  0  0  0  0  0  0  0  0  0  0  0
   30.7968   41.5642   17.6455 C   0  0  0  0  0  0  0  0  0  0  0  0
   29.7796   42.5186   17.6952 C   0  0  0  0  0  0  0  0  0  0  0  0
   28.6401   42.3430   16.9029 C   0  0  0  0  0  0  0  0  0  0  0  0
   29.9045   43.7368   18.5732 N   0  0  0  0  0  0  0  0  0  0  0  0
   28.5214   41.2322   16.0683 C   0  0  0  0  0  0  0  0  0  0  0  0
   30.7060   43.8614   19.1312 H   0  0  0  0  0  0  0  0  0  0  0  0
   29.1846   44.4082   18.5889 H   0  0  0  0  0  0  0  0  0  0  0  0
   31.5600   38.4395   13.0158 C   0  0  0  0  0  0  0  0  0  0  0  0
   32.4557   39.5474   13.5839 C   0  0  0  0  0  0  0  0  0  0  0  0
   33.9032   39.2385   13.1437 C   0  0  0  0  0  0  0  0  0  0  0  0
   32.0265   40.8603   12.9822 C   0  0  0  0  0  0  0  0  0  0  0  0
   32.3688   34.0499   13.3774 C   0  0  0  0  0  0  0  0  0  0  0  0
   31.5918   31.8876   12.5160 C   0  0  0  0  0  0  0  0  0  0  0  0
   31.0627   31.5591   13.5875 O   0  0  0  0  0  0  0  0  0  0  0  0
   32.0903   33.1093   12.3054 N   0  0  0  0  0  0  0  0  0  0  0  0
   32.2779   33.3855   11.3793 H   0  0  0  0  0  0  0  0  0  0  0  0
   31.6823   30.8906   11.3406 C   0  0  0  0  0  0  0  0  0  0  0  0
   30.7355   31.1731   10.3561 O   0  0  0  0  0  0  0  0  0  0  0  0
   28.4265   30.7825   10.3442 C   0  0  0  0  0  0  0  0  0  0  0  0
   29.6889   30.2929   10.0922 C   0  0  0  0  0  0  0  0  0  0  0  0
   29.8385   28.9888    9.5873 C   0  0  0  0  0  0  0  0  0  0  0  0
   28.7078   28.2039    9.3480 C   0  0  0  0  0  0  0  0  0  0  0  0
   27.4477   28.6994    9.6063 C   0  0  0  0  0  0  0  0  0  0  0  0
   27.3024   29.9819   10.1001 C   0  0  0  0  0  0  0  0  0  0  0  0
   31.2186   28.4700    9.2283 C   0  0  0  0  0  0  0  0  0  0  0  0
   28.2665   32.1964   10.8735 C   0  0  0  0  0  0  0  0  0  0  0  0
   33.5563   34.9371   12.9547 C   0  0  0  0  0  0  0  0  0  0  0  0
   34.6730   35.0048   13.9789 C   0  0  0  0  0  0  0  0  0  0  0  0
   34.9225   33.9415   14.8253 C   0  0  0  0  0  0  0  0  0  0  0  0
   35.9639   34.0138   15.7640 C   0  0  0  0  0  0  0  0  0  0  0  0
   36.7674   35.1526   15.8514 C   0  0  0  0  0  0  0  0  0  0  0  0
   36.5299   36.2299   15.0062 C   0  0  0  0  0  0  0  0  0  0  0  0
   35.4774   36.1480   14.0768 C   0  0  0  0  0  0  0  0  0  0  0  0
 30 31  2  0  0  0
 30 35  1  0  0  0
 30 37  1  0  0  0
 31 32  1  0  0  0
 31 29  1  0  0  0
 32 33  2  0  0  0
 32 36  1  0  0  0
 33 34  1  0  0  0
 34 35  2  0  0  0
 10 11  2  0  0  0
 10 16  1  0  0  0
 10  7  1  0  0  0
 11 12  1  0  0  0
 12 13  2  0  0  0
 13 14  1  0  0  0
 13 15  1  0  0  0
 14 16  2  0  0  0
 29 28  1  0  0  0
 28 24  1  0  0  0
 24 25  2  0  0  0
 24 26  1  0  0  0
 26 23  1  0  0  0
  1  2  1  0  0  0
  1  4  1  0  0  0
  1 23  1  0  0  0
  4  5  1  0  0  0
  5 19  1  0  0  0
  5  6  1  0  0  0
 19 20  1  0  0  0
 20 21  1  0  0  0
 20 22  1  0  0  0
  6  7  1  0  0  0
  7  8  2  0  0  0
 23 38  1  0  0  0
 38 39  1  0  0  0
 39 40  2  0  0  0
 39 44  1  0  0  0
 40 41  1  0  0  0
 41 42  2  0  0  0
 42 43  1  0  0  0
 43 44  2  0  0  0
 15 17  1  0  0  0
 15 18  1  0  0  0
 26 27  1  0  0  0
  2  3  1  0  0  0
  6  9  1  0  0  0
M  END
> <minimizedAffinity>
-8.82237

$$$$
