4BQH_9VU_A_1539
  RCSB PDB12061711533D
Coordinates from PDB:4BQH:A:1539 Model:1 without hydrogens
 25 28  0  0  0  0            999 V2000
   -8.2350   35.4930    7.4340   O 0  0  0  0  0  0  0  0  0  0  0  0
   -9.2630   36.1490    7.6920   C 0  0  0  0  0  0  0  0  0  0  0  0
  -10.4920   35.6270    7.7230   N 0  0  0  0  0  0  0  0  0  0  0  0
  -11.3820   36.6190    7.9990   C 0  0  0  0  0  0  0  0  0  0  0  0
  -12.7130   36.5430    8.1000   C 0  0  0  0  0  0  0  0  0  0  0  0
  -13.5210   37.6610    8.3610   C 0  0  0  0  0  0  0  0  0  0  0  0
  -12.8860   38.9010    8.5020   C 0  0  0  0  0  0  0  0  0  0  0  0
  -13.6690   40.0760    8.7650   C 0  0  0  0  0  0  0  0  0  0  0  0
  -11.4780   38.9300    8.3850   C 0  0  0  0  0  0  0  0  0  0  0  0
  -10.6500   40.6190    8.6490  Br 0  0  0  0  0  0  0  0  0  0  0  0
  -10.7390   37.8120    8.1400   C 0  0  0  0  0  0  0  0  0  0  0  0
   -9.3370   37.5470    7.9440   C 0  0  0  0  0  0  0  0  0  0  0  0
   -8.8840   38.1870    6.7480   O 0  0  0  0  0  0  0  0  0  0  0  0
   -8.3860   38.0760    9.0510   C 0  0  0  0  0  0  0  0  0  0  0  0
   -8.5540   37.3600   10.4070   C 0  0  0  0  0  0  0  0  0  0  0  0
   -9.2700   36.3480   10.4450   O 0  0  0  0  0  0  0  0  0  0  0  0
   -7.8350   37.8690   11.5290   C 0  0  0  0  0  0  0  0  0  0  0  0
   -7.2500   39.1370   11.5410   C 0  0  0  0  0  0  0  0  0  0  0  0
   -6.5670   39.5910   12.6070   C 0  0  0  0  0  0  0  0  0  0  0  0
   -5.9540   40.7990   12.7780   O 0  0  0  0  0  0  0  0  0  0  0  0
   -5.0590   40.5750   13.9020   C 0  0  0  0  0  0  0  0  0  0  0  0
   -5.7230   39.5520   14.6540   O 0  0  0  0  0  0  0  0  0  0  0  0
   -6.4400   38.8610   13.7150   C 0  0  0  0  0  0  0  0  0  0  0  0
   -6.9890   37.6370   13.7860   C 0  0  0  0  0  0  0  0  0  0  0  0
   -7.7040   37.1210   12.7060   C 0  0  0  0  0  0  0  0  0  0  0  0
  1  2  2  0  0  0  0
  2  3  1  0  0  0  0
  2 12  1  0  0  0  0
  3  4  1  0  0  0  0
  4  5  1  0  0  0  0
  4 11  2  0  0  0  0
  5  6  2  0  0  0  0
  6  7  1  0  0  0  0
  7  8  1  0  0  0  0
  7  9  2  0  0  0  0
  9 10  1  0  0  0  0
  9 11  1  0  0  0  0
 11 12  1  0  0  0  0
 12 13  1  0  0  0  0
 12 14  1  0  0  0  0
 14 15  1  0  0  0  0
 15 16  2  0  0  0  0
 15 17  1  0  0  0  0
 17 18  1  0  0  0  0
 17 25  2  0  0  0  0
 18 19  2  0  0  0  0
 19 20  1  0  0  0  0
 19 23  1  0  0  0  0
 20 21  1  0  0  0  0
 21 22  1  0  0  0  0
 22 23  1  0  0  0  0
 23 24  2  0  0  0  0
 24 25  1  0  0  0  0
A    1
OAN
A    2
CAH
A    3
NAG
A    4
CAC
A    5
CAB
A    6
CAA
A    7
CAF
A    8
CAJ
A    9
CAE
A   10
BRA
A   11
CAD
A   12
CAI
A   13
OAL
A   14
CAM
A   15
CAO
A   16
OAP
A   17
CAQ
A   18
CAV
A   19
CAU
A   20
OAY
A   21
CAX
A   22
OAW
A   23
CAT
A   24
CAS
A   25
CAR
M  END
>  <InstanceId>
4BQH_9VU_A_1539

>  <ChemCompId>
9VU

>  <PdbId>
4BQH

>  <ChainId>
A

>  <ResidueNumber>
1539

>  <InsertionCode>


>  <Model>
1

>  <AltIds>


>  <MissingHeavyAtoms>
0

>  <ObservedFormula>
C18 N O5 Br

>  <Name>
(3S)-3-[2-(1,3-benzodioxol-5-yl)-2-oxidanylidene-ethyl]-4-bromanyl-5-methyl-3-oxidanyl-1H-indol-2-one

>  <SystematicName>
(3S)-3-[2-(1,3-benzodioxol-5-yl)-2-oxidanylidene-ethyl]-4-bromanyl-5-methyl-3-oxidanyl-1H-indol-2-one

>  <Synonyms>


>  <Type>
non-polymer

>  <Formula>
C18 H14 Br N O5

>  <MolecularWeight>
404.211

>  <ModifiedDate>
2014-09-05

>  <Parent>


>  <OneLetterCode>


>  <SubcomponentList>


>  <AmbiguousFlag>
N

>  <InChI>
InChI=1S/C18H14BrNO5/c1-9-2-4-11-15(16(9)19)18(23,17(22)20-11)7-12(21)10-3-5-13-14(6-10)25-8-24-13/h2-6,23H,7-8H2,1H3,(H,20,22)/t18-/m0/s1

>  <InChIKey>
SJXSNMXBXJIRLV-SFHVURJKSA-N

>  <SMILES>
Cc1ccc2c(c1Br)[C@](C(=O)N2)(CC(=O)c3ccc4c(c3)OCO4)O

$$$$
