5DQC_5E7_A_401


 55 57  0  0  0  0  0  0  0  0999 V2000
    1.3922  -19.1346   34.3085 C   0  0  0  0  0  0  0  0  0  0  0  0
    0.0165  -19.1745   34.1226 N   0  0  0  0  0  0  0  0  0  0  0  0
    1.8113  -19.1395   35.4852 O   0  0  0  0  0  0  0  0  0  0  0  0
   -0.2632  -19.1878   33.1788 H   0  0  0  0  0  0  0  0  0  0  0  0
    4.4903  -19.5997   32.0280 C   0  0  0  0  0  0  0  0  0  0  0  0
    3.5963  -19.7221   33.1261 C   0  0  0  0  0  0  0  0  0  0  0  0
    2.3632  -19.0588   33.1587 C   0  0  0  0  0  0  0  0  0  0  0  0
    2.0419  -18.2581   32.0480 C   0  0  0  0  0  0  0  0  0  0  0  0
    2.8693  -18.0743   30.9237 C   0  0  0  0  0  0  0  0  0  0  0  0
    4.0815  -18.7779   30.9447 C   0  0  0  0  0  0  0  0  0  0  0  0
    2.4255  -17.2004   29.7504 C   0  0  0  0  0  0  0  0  0  0  0  0
    1.0996  -17.1271   29.3298 N   0  0  0  0  0  0  0  0  0  0  0  0
    3.2539  -16.5085   29.1256 O   0  0  0  0  0  0  0  0  0  0  0  0
    0.4708  -17.6614   29.8668 H   0  0  0  0  0  0  0  0  0  0  0  0
    0.4788  -16.3880   28.2206 C   0  0  0  0  0  0  0  0  0  0  0  0
   -0.6804  -15.5435   28.7578 C   0  0  0  0  0  0  0  0  0  0  0  0
   -0.0516  -17.3908   27.1865 C   0  0  0  0  0  0  0  0  0  0  0  0
    0.4949  -17.4691   25.8996 C   0  0  0  0  0  0  0  0  0  0  0  0
    0.0210  -18.3918   24.9599 C   0  0  0  0  0  0  0  0  0  0  0  0
   -1.0007  -19.2727   25.2881 C   0  0  0  0  0  0  0  0  0  0  0  0
   -1.5468  -19.2188   26.5617 C   0  0  0  0  0  0  0  0  0  0  0  0
   -1.0652  -18.2941   27.4855 C   0  0  0  0  0  0  0  0  0  0  0  0
    6.0179  -21.3542   30.9788 C   0  0  0  0  0  0  0  0  0  0  0  0
    5.7692  -20.3019   31.9912 N   0  0  0  0  0  0  0  0  0  0  0  0
    7.0256  -19.9483   33.0883 S   0  0  0  0  0  0  0  0  0  0  0  0
    6.8792  -18.5866   33.4320 O   0  0  0  0  0  0  0  0  0  0  0  0
    8.5542  -20.1903   32.2634 C   0  0  0  0  0  0  0  0  0  0  0  0
    7.0044  -20.8533   34.1737 O   0  0  0  0  0  0  0  0  0  0  0  0
   -1.0961  -19.2004   35.0812 C   0  0  0  0  0  0  0  0  0  0  0  0
   -1.4821  -20.7128   35.3428 C   0  0  0  0  0  0  0  0  0  0  0  0
   -2.8726  -20.8005   35.3709 O   0  0  0  0  0  0  0  0  0  0  0  0
   -3.2193  -20.2185   36.0651 H   0  0  0  0  0  0  0  0  0  0  0  0
   -0.9243  -21.1281   36.7509 C   0  0  0  0  0  0  0  0  0  0  0  0
   -1.8578  -20.9828   37.9041 N   0  0  0  0  0  0  0  0  0  0  0  0
   -2.3433  -20.0908   37.8092 H   0  0  0  0  0  0  0  0  0  0  0  0
   -1.2047  -21.0154   39.2434 C   0  0  0  0  0  0  0  0  0  0  0  0
    0.0021  -21.9950   39.4495 C   0  0  0  0  0  0  0  0  0  0  0  0
   -0.0362  -23.3644   39.1996 N   0  0  0  0  0  0  0  0  0  0  0  0
    1.0654  -21.5066   39.8524 O   0  0  0  0  0  0  0  0  0  0  0  0
   -0.8756  -23.7632   38.8746 H   0  0  0  0  0  0  0  0  0  0  0  0
    1.1395  -24.2450   39.4043 C   0  0  0  0  0  0  0  0  0  0  0  0
    1.6800  -24.9581   38.1382 C   0  0  0  0  0  0  0  0  0  0  0  0
    1.2795  -26.4321   38.1282 C   0  0  0  0  0  0  0  0  0  0  0  0
    1.1776  -24.2983   36.8590 C   0  0  0  0  0  0  0  0  0  0  0  0
   -2.2535  -21.3687   40.3546 C   0  0  0  0  0  0  0  0  0  0  0  0
   -1.5376  -21.8917   41.4427 O   0  0  0  0  0  0  0  0  0  0  0  0
   -3.0823  -20.1707   40.8129 C   0  0  0  0  0  0  0  0  0  0  0  0
   -0.9181  -21.2228   41.7737 H   0  0  0  0  0  0  0  0  0  0  0  0
   -2.2981  -18.3149   34.6150 C   0  0  0  0  0  0  0  0  0  0  0  0
   -1.8744  -16.9774   33.9691 C   0  0  0  0  0  0  0  0  0  0  0  0
   -0.9184  -16.0966   34.4984 C   0  0  0  0  0  0  0  0  0  0  0  0
   -0.5869  -14.8902   33.8709 C   0  0  0  0  0  0  0  0  0  0  0  0
   -1.2059  -14.5130   32.6975 C   0  0  0  0  0  0  0  0  0  0  0  0
   -2.1657  -15.3459   32.1433 C   0  0  0  0  0  0  0  0  0  0  0  0
   -2.4746  -16.5429   32.7842 C   0  0  0  0  0  0  0  0  0  0  0  0
 20 19  2  0  0  0
 20 21  1  0  0  0
 19 18  1  0  0  0
 21 22  2  0  0  0
 18 17  2  0  0  0
 22 17  1  0  0  0
 17 15  1  0  0  0
 15 16  1  0  0  0
 15 12  1  0  0  0
 34 36  1  0  0  0
 34 33  1  0  0  0
 31 30  1  0  0  0
 12 11  1  0  0  0
 30 33  1  0  0  0
 30 29  1  0  0  0
 36 45  1  0  0  0
 36 37  1  0  0  0
 51 52  2  0  0  0
 51 50  1  0  0  0
 28 25  2  0  0  0
 49 29  1  0  0  0
 49 50  1  0  0  0
 45 47  1  0  0  0
 45 46  1  0  0  0
 11 13  2  0  0  0
 11  9  1  0  0  0
 29  2  1  0  0  0
  2  1  1  0  0  0
 52 53  1  0  0  0
 50 55  2  0  0  0
  9  8  2  0  0  0
  9 10  1  0  0  0
  8  7  1  0  0  0
 43 42  1  0  0  0
 38 37  1  0  0  0
 38 41  1  0  0  0
 37 39  2  0  0  0
 10  5  2  0  0  0
 25 26  2  0  0  0
 25 24  1  0  0  0
 25 27  1  0  0  0
  7  1  1  0  0  0
  7  6  2  0  0  0
  1  3  2  0  0  0
  5  6  1  0  0  0
  5 24  1  0  0  0
 53 54  2  0  0  0
 55 54  1  0  0  0
 42 41  1  0  0  0
 42 44  1  0  0  0
 24 23  1  0  0  0
  2  4  1  0  0  0
 31 32  1  0  0  0
 34 35  1  0  0  0
 46 48  1  0  0  0
 38 40  1  0  0  0
 12 14  1  0  0  0
M  END
> <minimizedAffinity>
-11.97392

$$$$
5DQC_5E7_A_401


 55 57  0  0  0  0  0  0  0  0999 V2000
    1.1512  -18.8609   34.4631 C   0  0  0  0  0  0  0  0  0  0  0  0
   -0.2113  -19.0181   34.2457 N   0  0  0  0  0  0  0  0  0  0  0  0
    1.5264  -18.6838   35.6414 O   0  0  0  0  0  0  0  0  0  0  0  0
   -0.4548  -19.1733   33.3045 H   0  0  0  0  0  0  0  0  0  0  0  0
    4.3071  -19.5109   32.3106 C   0  0  0  0  0  0  0  0  0  0  0  0
    3.3790  -19.5528   33.3862 C   0  0  0  0  0  0  0  0  0  0  0  0
    2.1571  -18.8699   33.3411 C   0  0  0  0  0  0  0  0  0  0  0  0
    1.8825  -18.1334   32.1749 C   0  0  0  0  0  0  0  0  0  0  0  0
    2.7458  -18.0308   31.0674 C   0  0  0  0  0  0  0  0  0  0  0  0
    3.9446  -18.7503   31.1678 C   0  0  0  0  0  0  0  0  0  0  0  0
    2.3519  -17.2231   29.8305 C   0  0  0  0  0  0  0  0  0  0  0  0
    1.0321  -17.1057   29.4009 N   0  0  0  0  0  0  0  0  0  0  0  0
    3.2181  -16.6283   29.1587 O   0  0  0  0  0  0  0  0  0  0  0  0
    0.3741  -17.5616   29.9740 H   0  0  0  0  0  0  0  0  0  0  0  0
    0.4539  -16.4173   28.2375 C   0  0  0  0  0  0  0  0  0  0  0  0
   -0.7810  -15.6252   28.6770 C   0  0  0  0  0  0  0  0  0  0  0  0
    0.0479  -17.4625   27.1889 C   0  0  0  0  0  0  0  0  0  0  0  0
   -0.8520  -18.4909   27.4949 C   0  0  0  0  0  0  0  0  0  0  0  0
   -1.2331  -19.4368   26.5363 C   0  0  0  0  0  0  0  0  0  0  0  0
   -0.7376  -19.3690   25.2411 C   0  0  0  0  0  0  0  0  0  0  0  0
    0.1454  -18.3506   24.9154 C   0  0  0  0  0  0  0  0  0  0  0  0
    0.5162  -17.4174   25.8808 C   0  0  0  0  0  0  0  0  0  0  0  0
    6.2865  -20.4196   33.6408 C   0  0  0  0  0  0  0  0  0  0  0  0
    5.5743  -20.2335   32.3553 N   0  0  0  0  0  0  0  0  0  0  0  0
    6.2857  -20.8969   30.9548 S   0  0  0  0  0  0  0  0  0  0  0  0
    7.1210  -21.9468   31.3948 O   0  0  0  0  0  0  0  0  0  0  0  0
    7.2537  -19.6496   30.1916 C   0  0  0  0  0  0  0  0  0  0  0  0
    5.2906  -21.2644   30.0208 O   0  0  0  0  0  0  0  0  0  0  0  0
   -1.3545  -18.9943   35.1678 C   0  0  0  0  0  0  0  0  0  0  0  0
   -1.8510  -20.4832   35.3707 C   0  0  0  0  0  0  0  0  0  0  0  0
   -3.0133  -20.4454   36.1387 O   0  0  0  0  0  0  0  0  0  0  0  0
   -2.8267  -20.0127   36.9865 H   0  0  0  0  0  0  0  0  0  0  0  0
   -0.7480  -21.2671   36.1677 C   0  0  0  0  0  0  0  0  0  0  0  0
   -1.0409  -22.6958   36.4764 N   0  0  0  0  0  0  0  0  0  0  0  0
   -1.9770  -22.9095   36.1323 H   0  0  0  0  0  0  0  0  0  0  0  0
   -0.9879  -23.0448   37.9244 C   0  0  0  0  0  0  0  0  0  0  0  0
   -1.3467  -21.9271   38.9639 C   0  0  0  0  0  0  0  0  0  0  0  0
   -2.6376  -21.4800   39.2342 N   0  0  0  0  0  0  0  0  0  0  0  0
   -0.4109  -21.4184   39.5939 O   0  0  0  0  0  0  0  0  0  0  0  0
   -3.3902  -21.8806   38.7420 H   0  0  0  0  0  0  0  0  0  0  0  0
   -2.9215  -20.4234   40.2354 C   0  0  0  0  0  0  0  0  0  0  0  0
   -4.1978  -20.6274   41.0917 C   0  0  0  0  0  0  0  0  0  0  0  0
   -4.3782  -22.0983   41.4621 C   0  0  0  0  0  0  0  0  0  0  0  0
   -4.1621  -19.7947   42.3682 C   0  0  0  0  0  0  0  0  0  0  0  0
    0.4413  -23.5626   38.3100 C   0  0  0  0  0  0  0  0  0  0  0  0
    0.3310  -24.1703   39.5704 O   0  0  0  0  0  0  0  0  0  0  0  0
    1.0188  -24.5596   37.3077 C   0  0  0  0  0  0  0  0  0  0  0  0
   -0.2874  -24.9157   39.5170 H   0  0  0  0  0  0  0  0  0  0  0  0
   -2.4772  -18.0150   34.6914 C   0  0  0  0  0  0  0  0  0  0  0  0
   -1.9432  -16.7499   33.9844 C   0  0  0  0  0  0  0  0  0  0  0  0
   -0.9781  -15.8797   34.5147 C   0  0  0  0  0  0  0  0  0  0  0  0
   -0.5441  -14.7394   33.8289 C   0  0  0  0  0  0  0  0  0  0  0  0
   -1.0659  -14.4194   32.5929 C   0  0  0  0  0  0  0  0  0  0  0  0
   -2.0307  -15.2435   32.0342 C   0  0  0  0  0  0  0  0  0  0  0  0
   -2.4426  -16.3746   32.7343 C   0  0  0  0  0  0  0  0  0  0  0  0
 20 19  2  0  0  0
 20 21  1  0  0  0
 19 18  1  0  0  0
 21 22  2  0  0  0
 18 17  2  0  0  0
 22 17  1  0  0  0
 17 15  1  0  0  0
 15 16  1  0  0  0
 15 12  1  0  0  0
 34 36  1  0  0  0
 34 33  1  0  0  0
 31 30  1  0  0  0
 12 11  1  0  0  0
 30 33  1  0  0  0
 30 29  1  0  0  0
 36 45  1  0  0  0
 36 37  1  0  0  0
 51 52  2  0  0  0
 51 50  1  0  0  0
 28 25  2  0  0  0
 49 29  1  0  0  0
 49 50  1  0  0  0
 45 47  1  0  0  0
 45 46  1  0  0  0
 11 13  2  0  0  0
 11  9  1  0  0  0
 29  2  1  0  0  0
  2  1  1  0  0  0
 52 53  1  0  0  0
 50 55  2  0  0  0
  9  8  2  0  0  0
  9 10  1  0  0  0
  8  7  1  0  0  0
 43 42  1  0  0  0
 38 37  1  0  0  0
 38 41  1  0  0  0
 37 39  2  0  0  0
 10  5  2  0  0  0
 25 26  2  0  0  0
 25 24  1  0  0  0
 25 27  1  0  0  0
  7  1  1  0  0  0
  7  6  2  0  0  0
  1  3  2  0  0  0
  5  6  1  0  0  0
  5 24  1  0  0  0
 53 54  2  0  0  0
 55 54  1  0  0  0
 42 41  1  0  0  0
 42 44  1  0  0  0
 24 23  1  0  0  0
  2  4  1  0  0  0
 31 32  1  0  0  0
 34 35  1  0  0  0
 46 48  1  0  0  0
 38 40  1  0  0  0
 12 14  1  0  0  0
M  END
> <minimizedAffinity>
-11.96881

$$$$
5DQC_5E7_A_401


 55 57  0  0  0  0  0  0  0  0999 V2000
    1.3448  -18.9938   34.3165 C   0  0  0  0  0  0  0  0  0  0  0  0
   -0.0236  -19.1674   34.1560 N   0  0  0  0  0  0  0  0  0  0  0  0
    1.7660  -18.8066   35.4775 O   0  0  0  0  0  0  0  0  0  0  0  0
   -0.3039  -19.3300   33.2264 H   0  0  0  0  0  0  0  0  0  0  0  0
    4.3830  -19.6795   32.0112 C   0  0  0  0  0  0  0  0  0  0  0  0
    3.4979  -19.7281   33.1221 C   0  0  0  0  0  0  0  0  0  0  0  0
    2.3037  -18.9971   33.1540 C   0  0  0  0  0  0  0  0  0  0  0  0
    2.0125  -18.2046   32.0292 C   0  0  0  0  0  0  0  0  0  0  0  0
    2.8342  -18.0917   30.8915 C   0  0  0  0  0  0  0  0  0  0  0  0
    4.0061  -18.8605   30.9143 C   0  0  0  0  0  0  0  0  0  0  0  0
    2.4240  -17.2206   29.7038 C   0  0  0  0  0  0  0  0  0  0  0  0
    1.1068  -17.1308   29.2597 N   0  0  0  0  0  0  0  0  0  0  0  0
    3.2734  -16.5463   29.0881 O   0  0  0  0  0  0  0  0  0  0  0  0
    0.4608  -17.6512   29.7899 H   0  0  0  0  0  0  0  0  0  0  0  0
    0.5165  -16.3914   28.1342 C   0  0  0  0  0  0  0  0  0  0  0  0
   -0.6464  -15.5343   28.6426 C   0  0  0  0  0  0  0  0  0  0  0  0
   -0.0006  -17.3944   27.0934 C   0  0  0  0  0  0  0  0  0  0  0  0
   -1.0615  -18.2620   27.3810 C   0  0  0  0  0  0  0  0  0  0  0  0
   -1.5426  -19.1678   26.4288 C   0  0  0  0  0  0  0  0  0  0  0  0
   -0.9867  -19.2181   25.1575 C   0  0  0  0  0  0  0  0  0  0  0  0
    0.0569  -18.3584   24.8496 C   0  0  0  0  0  0  0  0  0  0  0  0
    0.5255  -17.4632   25.8085 C   0  0  0  0  0  0  0  0  0  0  0  0
    5.8617  -21.4326   30.8918 C   0  0  0  0  0  0  0  0  0  0  0  0
    5.6208  -20.4519   31.9754 N   0  0  0  0  0  0  0  0  0  0  0  0
    6.8375  -20.2633   33.1550 S   0  0  0  0  0  0  0  0  0  0  0  0
    6.4765  -21.1008   34.2331 O   0  0  0  0  0  0  0  0  0  0  0  0
    6.8353  -18.5895   33.6783 C   0  0  0  0  0  0  0  0  0  0  0  0
    8.1118  -20.5103   32.5957 O   0  0  0  0  0  0  0  0  0  0  0  0
   -1.1281  -19.1518   35.1243 C   0  0  0  0  0  0  0  0  0  0  0  0
   -1.4783  -20.6507   35.4919 C   0  0  0  0  0  0  0  0  0  0  0  0
   -2.6337  -20.6412   36.2710 O   0  0  0  0  0  0  0  0  0  0  0  0
   -2.4838  -20.1046   37.0650 H   0  0  0  0  0  0  0  0  0  0  0  0
   -0.2999  -21.2370   36.3487 C   0  0  0  0  0  0  0  0  0  0  0  0
   -0.0415  -22.6986   36.2101 N   0  0  0  0  0  0  0  0  0  0  0  0
   -0.6491  -23.0602   35.4749 H   0  0  0  0  0  0  0  0  0  0  0  0
   -0.2843  -23.4952   37.4462 C   0  0  0  0  0  0  0  0  0  0  0  0
   -0.2713  -22.7414   38.8211 C   0  0  0  0  0  0  0  0  0  0  0  0
    0.8664  -22.2115   39.4245 N   0  0  0  0  0  0  0  0  0  0  0  0
   -1.3559  -22.6011   39.4002 O   0  0  0  0  0  0  0  0  0  0  0  0
    1.7342  -22.3135   38.9708 H   0  0  0  0  0  0  0  0  0  0  0  0
    0.8205  -21.4994   40.7247 C   0  0  0  0  0  0  0  0  0  0  0  0
    2.1732  -21.3624   41.4697 C   0  0  0  0  0  0  0  0  0  0  0  0
    2.1125  -20.2478   42.5124 C   0  0  0  0  0  0  0  0  0  0  0  0
    2.5758  -22.6628   42.1559 C   0  0  0  0  0  0  0  0  0  0  0  0
    0.7688  -24.6509   37.5675 C   0  0  0  0  0  0  0  0  0  0  0  0
    2.0337  -24.0470   37.6409 O   0  0  0  0  0  0  0  0  0  0  0  0
    0.5546  -25.5445   38.7871 C   0  0  0  0  0  0  0  0  0  0  0  0
    2.0754  -23.4781   38.4254 H   0  0  0  0  0  0  0  0  0  0  0  0
   -2.3531  -18.3265   34.6097 C   0  0  0  0  0  0  0  0  0  0  0  0
   -1.9672  -16.9920   33.9345 C   0  0  0  0  0  0  0  0  0  0  0  0
   -2.4597  -16.5447   32.6987 C   0  0  0  0  0  0  0  0  0  0  0  0
   -2.0604  -15.3288   32.1321 C   0  0  0  0  0  0  0  0  0  0  0  0
   -1.1458  -14.5195   32.7731 C   0  0  0  0  0  0  0  0  0  0  0  0
   -0.6229  -14.9258   33.9911 C   0  0  0  0  0  0  0  0  0  0  0  0
   -1.0394  -16.1375   34.5362 C   0  0  0  0  0  0  0  0  0  0  0  0
 20 19  2  0  0  0
 20 21  1  0  0  0
 19 18  1  0  0  0
 21 22  2  0  0  0
 18 17  2  0  0  0
 22 17  1  0  0  0
 17 15  1  0  0  0
 15 16  1  0  0  0
 15 12  1  0  0  0
 34 36  1  0  0  0
 34 33  1  0  0  0
 31 30  1  0  0  0
 12 11  1  0  0  0
 30 33  1  0  0  0
 30 29  1  0  0  0
 36 45  1  0  0  0
 36 37  1  0  0  0
 51 52  2  0  0  0
 51 50  1  0  0  0
 28 25  2  0  0  0
 49 29  1  0  0  0
 49 50  1  0  0  0
 45 47  1  0  0  0
 45 46  1  0  0  0
 11 13  2  0  0  0
 11  9  1  0  0  0
 29  2  1  0  0  0
  2  1  1  0  0  0
 52 53  1  0  0  0
 50 55  2  0  0  0
  9  8  2  0  0  0
  9 10  1  0  0  0
  8  7  1  0  0  0
 43 42  1  0  0  0
 38 37  1  0  0  0
 38 41  1  0  0  0
 37 39  2  0  0  0
 10  5  2  0  0  0
 25 26  2  0  0  0
 25 24  1  0  0  0
 25 27  1  0  0  0
  7  1  1  0  0  0
  7  6  2  0  0  0
  1  3  2  0  0  0
  5  6  1  0  0  0
  5 24  1  0  0  0
 53 54  2  0  0  0
 55 54  1  0  0  0
 42 41  1  0  0  0
 42 44  1  0  0  0
 24 23  1  0  0  0
  2  4  1  0  0  0
 31 32  1  0  0  0
 34 35  1  0  0  0
 46 48  1  0  0  0
 38 40  1  0  0  0
 12 14  1  0  0  0
M  END
> <minimizedAffinity>
-11.13432

$$$$
5DQC_5E7_A_401


 55 57  0  0  0  0  0  0  0  0999 V2000
    1.4824  -18.8826   33.8281 C   0  0  0  0  0  0  0  0  0  0  0  0
    0.1015  -19.0255   33.7939 N   0  0  0  0  0  0  0  0  0  0  0  0
    2.0346  -18.9222   34.9479 O   0  0  0  0  0  0  0  0  0  0  0  0
   -0.2842  -19.0062   32.8883 H   0  0  0  0  0  0  0  0  0  0  0  0
    2.7436  -17.6247   30.3868 C   0  0  0  0  0  0  0  0  0  0  0  0
    1.9461  -17.7836   31.5524 C   0  0  0  0  0  0  0  0  0  0  0  0
    2.3048  -18.6588   32.5854 C   0  0  0  0  0  0  0  0  0  0  0  0
    3.4998  -19.3817   32.4205 C   0  0  0  0  0  0  0  0  0  0  0  0
    4.3447  -19.2922   31.2978 C   0  0  0  0  0  0  0  0  0  0  0  0
    3.9388  -18.3871   30.3074 C   0  0  0  0  0  0  0  0  0  0  0  0
    5.6387  -20.1023   31.2161 C   0  0  0  0  0  0  0  0  0  0  0  0
    6.6559  -19.9876   32.1609 N   0  0  0  0  0  0  0  0  0  0  0  0
    5.8235  -20.9108   30.2846 O   0  0  0  0  0  0  0  0  0  0  0  0
    6.4604  -19.3645   32.8975 H   0  0  0  0  0  0  0  0  0  0  0  0
    7.9716  -20.6384   32.2457 C   0  0  0  0  0  0  0  0  0  0  0  0
    8.3657  -20.7992   33.7168 C   0  0  0  0  0  0  0  0  0  0  0  0
    9.0092  -19.7638   31.5280 C   0  0  0  0  0  0  0  0  0  0  0  0
   10.1009  -20.3291   30.8576 C   0  0  0  0  0  0  0  0  0  0  0  0
   11.0405  -19.5336   30.1919 C   0  0  0  0  0  0  0  0  0  0  0  0
   10.9037  -18.1523   30.1643 C   0  0  0  0  0  0  0  0  0  0  0  0
    9.8224  -17.5743   30.8122 C   0  0  0  0  0  0  0  0  0  0  0  0
    8.8963  -18.3793   31.4715 C   0  0  0  0  0  0  0  0  0  0  0  0
    3.3009  -15.6244   28.9033 C   0  0  0  0  0  0  0  0  0  0  0  0
    2.3738  -16.7028   29.3176 N   0  0  0  0  0  0  0  0  0  0  0  0
    0.8834  -16.8215   28.4979 S   0  0  0  0  0  0  0  0  0  0  0  0
    1.0788  -16.2247   27.2332 O   0  0  0  0  0  0  0  0  0  0  0  0
   -0.3115  -15.9123   29.4040 C   0  0  0  0  0  0  0  0  0  0  0  0
    0.4375  -18.1625   28.4732 O   0  0  0  0  0  0  0  0  0  0  0  0
   -0.8870  -19.2002   34.8663 C   0  0  0  0  0  0  0  0  0  0  0  0
   -1.2221  -20.7429   34.9770 C   0  0  0  0  0  0  0  0  0  0  0  0
   -2.6088  -20.8808   34.9702 O   0  0  0  0  0  0  0  0  0  0  0  0
   -2.9872  -20.3795   35.7094 H   0  0  0  0  0  0  0  0  0  0  0  0
   -0.6718  -21.2703   36.3500 C   0  0  0  0  0  0  0  0  0  0  0  0
   -1.3647  -22.4548   36.9322 N   0  0  0  0  0  0  0  0  0  0  0  0
   -2.3705  -22.3062   36.8506 H   0  0  0  0  0  0  0  0  0  0  0  0
   -1.0497  -22.7203   38.3646 C   0  0  0  0  0  0  0  0  0  0  0  0
   -1.5724  -21.6995   39.4339 C   0  0  0  0  0  0  0  0  0  0  0  0
   -1.9380  -22.0321   40.7359 N   0  0  0  0  0  0  0  0  0  0  0  0
   -1.6520  -20.5127   39.0924 O   0  0  0  0  0  0  0  0  0  0  0  0
   -1.8746  -22.9726   41.0199 H   0  0  0  0  0  0  0  0  0  0  0  0
   -2.4191  -21.0233   41.7107 C   0  0  0  0  0  0  0  0  0  0  0  0
   -3.9535  -20.8071   41.7598 C   0  0  0  0  0  0  0  0  0  0  0  0
   -4.3424  -19.4936   41.0841 C   0  0  0  0  0  0  0  0  0  0  0  0
   -4.7079  -21.9514   41.0922 C   0  0  0  0  0  0  0  0  0  0  0  0
    0.5013  -22.8217   38.5736 C   0  0  0  0  0  0  0  0  0  0  0  0
    0.8764  -21.7430   39.3895 O   0  0  0  0  0  0  0  0  0  0  0  0
    0.9444  -24.1327   39.2191 C   0  0  0  0  0  0  0  0  0  0  0  0
    0.4226  -21.8109   40.2441 H   0  0  0  0  0  0  0  0  0  0  0  0
   -2.1461  -18.2949   34.6621 C   0  0  0  0  0  0  0  0  0  0  0  0
   -1.8354  -16.9330   34.0029 C   0  0  0  0  0  0  0  0  0  0  0  0
   -0.8605  -16.0277   34.4498 C   0  0  0  0  0  0  0  0  0  0  0  0
   -0.6352  -14.8004   33.8158 C   0  0  0  0  0  0  0  0  0  0  0  0
   -1.3827  -14.4265   32.7186 C   0  0  0  0  0  0  0  0  0  0  0  0
   -2.3656  -15.2838   32.2483 C   0  0  0  0  0  0  0  0  0  0  0  0
   -2.5674  -16.5011   32.8936 C   0  0  0  0  0  0  0  0  0  0  0  0
 20 19  2  0  0  0
 20 21  1  0  0  0
 19 18  1  0  0  0
 21 22  2  0  0  0
 18 17  2  0  0  0
 22 17  1  0  0  0
 17 15  1  0  0  0
 15 16  1  0  0  0
 15 12  1  0  0  0
 34 36  1  0  0  0
 34 33  1  0  0  0
 31 30  1  0  0  0
 12 11  1  0  0  0
 30 33  1  0  0  0
 30 29  1  0  0  0
 36 45  1  0  0  0
 36 37  1  0  0  0
 51 52  2  0  0  0
 51 50  1  0  0  0
 28 25  2  0  0  0
 49 29  1  0  0  0
 49 50  1  0  0  0
 45 47  1  0  0  0
 45 46  1  0  0  0
 11 13  2  0  0  0
 11  9  1  0  0  0
 29  2  1  0  0  0
  2  1  1  0  0  0
 52 53  1  0  0  0
 50 55  2  0  0  0
  9  8  2  0  0  0
  9 10  1  0  0  0
  8  7  1  0  0  0
 43 42  1  0  0  0
 38 37  1  0  0  0
 38 41  1  0  0  0
 37 39  2  0  0  0
 10  5  2  0  0  0
 25 26  2  0  0  0
 25 24  1  0  0  0
 25 27  1  0  0  0
  7  1  1  0  0  0
  7  6  2  0  0  0
  1  3  2  0  0  0
  5  6  1  0  0  0
  5 24  1  0  0  0
 53 54  2  0  0  0
 55 54  1  0  0  0
 42 41  1  0  0  0
 42 44  1  0  0  0
 24 23  1  0  0  0
  2  4  1  0  0  0
 31 32  1  0  0  0
 34 35  1  0  0  0
 46 48  1  0  0  0
 38 40  1  0  0  0
 12 14  1  0  0  0
M  END
> <minimizedAffinity>
-10.34941

$$$$
5DQC_5E7_A_401


 55 57  0  0  0  0  0  0  0  0999 V2000
    1.8425  -19.0674   34.0811 C   0  0  0  0  0  0  0  0  0  0  0  0
    0.4838  -19.0099   33.7996 N   0  0  0  0  0  0  0  0  0  0  0  0
    2.1768  -19.1058   35.2841 O   0  0  0  0  0  0  0  0  0  0  0  0
    0.2706  -19.0003   32.8385 H   0  0  0  0  0  0  0  0  0  0  0  0
    5.0528  -19.7410   32.0184 C   0  0  0  0  0  0  0  0  0  0  0  0
    4.0778  -19.8039   33.0505 C   0  0  0  0  0  0  0  0  0  0  0  0
    2.8946  -19.0562   33.0024 C   0  0  0  0  0  0  0  0  0  0  0  0
    2.7082  -18.2318   31.8783 C   0  0  0  0  0  0  0  0  0  0  0  0
    3.6230  -18.1029   30.8158 C   0  0  0  0  0  0  0  0  0  0  0  0
    4.7789  -18.8895   30.9157 C   0  0  0  0  0  0  0  0  0  0  0  0
    3.3242  -17.1967   29.6213 C   0  0  0  0  0  0  0  0  0  0  0  0
    4.3285  -16.6454   28.8289 N   0  0  0  0  0  0  0  0  0  0  0  0
    2.1477  -16.9228   29.3112 O   0  0  0  0  0  0  0  0  0  0  0  0
    5.2417  -16.9098   29.0847 H   0  0  0  0  0  0  0  0  0  0  0  0
    4.2575  -15.7360   27.6758 C   0  0  0  0  0  0  0  0  0  0  0  0
    5.1017  -16.3010   26.5297 C   0  0  0  0  0  0  0  0  0  0  0  0
    4.8042  -14.3621   28.0882 C   0  0  0  0  0  0  0  0  0  0  0  0
    4.4065  -13.1916   27.4303 C   0  0  0  0  0  0  0  0  0  0  0  0
    4.8941  -11.9370   27.8136 C   0  0  0  0  0  0  0  0  0  0  0  0
    5.7792  -11.8177   28.8766 C   0  0  0  0  0  0  0  0  0  0  0  0
    6.1755  -12.9642   29.5486 C   0  0  0  0  0  0  0  0  0  0  0  0
    5.6824  -14.2059   29.1545 C   0  0  0  0  0  0  0  0  0  0  0  0
    6.4866  -21.6507   31.1182 C   0  0  0  0  0  0  0  0  0  0  0  0
    6.2793  -20.5307   32.0652 N   0  0  0  0  0  0  0  0  0  0  0  0
    7.5203  -20.2059   33.1885 S   0  0  0  0  0  0  0  0  0  0  0  0
    7.4561  -18.8217   33.4598 O   0  0  0  0  0  0  0  0  0  0  0  0
    9.0550  -20.5910   32.4323 C   0  0  0  0  0  0  0  0  0  0  0  0
    7.4016  -21.0508   34.3153 O   0  0  0  0  0  0  0  0  0  0  0  0
   -0.6923  -18.9608   34.6783 C   0  0  0  0  0  0  0  0  0  0  0  0
   -0.9817  -20.4294   35.1918 C   0  0  0  0  0  0  0  0  0  0  0  0
   -2.2552  -20.7914   34.7568 O   0  0  0  0  0  0  0  0  0  0  0  0
   -2.9058  -20.1588   35.0995 H   0  0  0  0  0  0  0  0  0  0  0  0
   -0.9731  -20.4139   36.7622 C   0  0  0  0  0  0  0  0  0  0  0  0
    0.0787  -21.2335   37.4287 N   0  0  0  0  0  0  0  0  0  0  0  0
    0.6993  -21.6010   36.7074 H   0  0  0  0  0  0  0  0  0  0  0  0
   -0.4373  -22.3821   38.2261 C   0  0  0  0  0  0  0  0  0  0  0  0
    0.2352  -22.6764   39.6116 C   0  0  0  0  0  0  0  0  0  0  0  0
    1.5311  -23.1582   39.7780 N   0  0  0  0  0  0  0  0  0  0  0  0
   -0.4365  -22.4509   40.6263 O   0  0  0  0  0  0  0  0  0  0  0  0
    2.0762  -23.3371   38.9779 H   0  0  0  0  0  0  0  0  0  0  0  0
    2.1214  -23.4118   41.1147 C   0  0  0  0  0  0  0  0  0  0  0  0
    3.2683  -22.4593   41.5402 C   0  0  0  0  0  0  0  0  0  0  0  0
    4.4491  -22.5609   40.5767 C   0  0  0  0  0  0  0  0  0  0  0  0
    2.8042  -21.0086   41.6057 C   0  0  0  0  0  0  0  0  0  0  0  0
   -0.3395  -23.7103   37.3979 C   0  0  0  0  0  0  0  0  0  0  0  0
   -1.5442  -23.8417   36.6898 O   0  0  0  0  0  0  0  0  0  0  0  0
    0.8352  -23.7347   36.4224 C   0  0  0  0  0  0  0  0  0  0  0  0
   -1.6514  -23.0860   36.0912 H   0  0  0  0  0  0  0  0  0  0  0  0
   -1.9194  -18.2823   33.9851 C   0  0  0  0  0  0  0  0  0  0  0  0
   -1.6563  -16.8289   33.5335 C   0  0  0  0  0  0  0  0  0  0  0  0
   -0.6852  -15.9791   34.0855 C   0  0  0  0  0  0  0  0  0  0  0  0
   -0.5040  -14.6645   33.6406 C   0  0  0  0  0  0  0  0  0  0  0  0
   -1.2936  -14.1458   32.6356 C   0  0  0  0  0  0  0  0  0  0  0  0
   -2.2743  -14.9446   32.0682 C   0  0  0  0  0  0  0  0  0  0  0  0
   -2.4318  -16.2505   32.5251 C   0  0  0  0  0  0  0  0  0  0  0  0
 20 19  2  0  0  0
 20 21  1  0  0  0
 19 18  1  0  0  0
 21 22  2  0  0  0
 18 17  2  0  0  0
 22 17  1  0  0  0
 17 15  1  0  0  0
 15 16  1  0  0  0
 15 12  1  0  0  0
 34 36  1  0  0  0
 34 33  1  0  0  0
 31 30  1  0  0  0
 12 11  1  0  0  0
 30 33  1  0  0  0
 30 29  1  0  0  0
 36 45  1  0  0  0
 36 37  1  0  0  0
 51 52  2  0  0  0
 51 50  1  0  0  0
 28 25  2  0  0  0
 49 29  1  0  0  0
 49 50  1  0  0  0
 45 47  1  0  0  0
 45 46  1  0  0  0
 11 13  2  0  0  0
 11  9  1  0  0  0
 29  2  1  0  0  0
  2  1  1  0  0  0
 52 53  1  0  0  0
 50 55  2  0  0  0
  9  8  2  0  0  0
  9 10  1  0  0  0
  8  7  1  0  0  0
 43 42  1  0  0  0
 38 37  1  0  0  0
 38 41  1  0  0  0
 37 39  2  0  0  0
 10  5  2  0  0  0
 25 26  2  0  0  0
 25 24  1  0  0  0
 25 27  1  0  0  0
  7  1  1  0  0  0
  7  6  2  0  0  0
  1  3  2  0  0  0
  5  6  1  0  0  0
  5 24  1  0  0  0
 53 54  2  0  0  0
 55 54  1  0  0  0
 42 41  1  0  0  0
 42 44  1  0  0  0
 24 23  1  0  0  0
  2  4  1  0  0  0
 31 32  1  0  0  0
 34 35  1  0  0  0
 46 48  1  0  0  0
 38 40  1  0  0  0
 12 14  1  0  0  0
M  END
> <minimizedAffinity>
-9.91631

$$$$
5DQC_5E7_A_401


 55 57  0  0  0  0  0  0  0  0999 V2000
    1.6626  -19.4858   33.8696 C   0  0  0  0  0  0  0  0  0  0  0  0
    0.4626  -18.8001   33.7339 N   0  0  0  0  0  0  0  0  0  0  0  0
    1.7566  -20.2934   34.8179 O   0  0  0  0  0  0  0  0  0  0  0  0
    0.4310  -18.1901   32.9618 H   0  0  0  0  0  0  0  0  0  0  0  0
    5.1825  -19.5573   32.2509 C   0  0  0  0  0  0  0  0  0  0  0  0
    4.1039  -19.8153   33.1397 C   0  0  0  0  0  0  0  0  0  0  0  0
    2.8311  -19.2646   32.9442 C   0  0  0  0  0  0  0  0  0  0  0  0
    2.6618  -18.4372   31.8196 C   0  0  0  0  0  0  0  0  0  0  0  0
    3.6747  -18.1225   30.8937 C   0  0  0  0  0  0  0  0  0  0  0  0
    4.9204  -18.7179   31.1361 C   0  0  0  0  0  0  0  0  0  0  0  0
    3.3914  -17.2295   29.6856 C   0  0  0  0  0  0  0  0  0  0  0  0
    4.4026  -16.7368   28.8640 N   0  0  0  0  0  0  0  0  0  0  0  0
    2.2215  -16.9136   29.3904 O   0  0  0  0  0  0  0  0  0  0  0  0
    5.3087  -17.0336   29.1092 H   0  0  0  0  0  0  0  0  0  0  0  0
    4.3478  -15.8493   27.6931 C   0  0  0  0  0  0  0  0  0  0  0  0
    5.2705  -16.3934   26.5986 C   0  0  0  0  0  0  0  0  0  0  0  0
    4.8129  -14.4461   28.1071 C   0  0  0  0  0  0  0  0  0  0  0  0
    5.7012  -14.2573   29.1730 C   0  0  0  0  0  0  0  0  0  0  0  0
    6.1363  -12.9796   29.5432 C   0  0  0  0  0  0  0  0  0  0  0  0
    5.7079  -11.8579   28.8462 C   0  0  0  0  0  0  0  0  0  0  0  0
    4.8374  -12.0254   27.7797 C   0  0  0  0  0  0  0  0  0  0  0  0
    4.4124  -13.3034   27.4241 C   0  0  0  0  0  0  0  0  0  0  0  0
    7.0902  -20.2268   33.8083 C   0  0  0  0  0  0  0  0  0  0  0  0
    6.5046  -20.1424   32.4503 N   0  0  0  0  0  0  0  0  0  0  0  0
    7.4256  -20.7562   31.1533 S   0  0  0  0  0  0  0  0  0  0  0  0
    7.2359  -22.1554   31.1606 O   0  0  0  0  0  0  0  0  0  0  0  0
    9.1123  -20.3853   31.4583 C   0  0  0  0  0  0  0  0  0  0  0  0
    7.0798  -20.1037   29.9481 O   0  0  0  0  0  0  0  0  0  0  0  0
   -0.7681  -18.8215   34.5356 C   0  0  0  0  0  0  0  0  0  0  0  0
   -1.2651  -20.3211   34.6299 C   0  0  0  0  0  0  0  0  0  0  0  0
   -2.5797  -20.3656   34.1697 O   0  0  0  0  0  0  0  0  0  0  0  0
   -3.1300  -19.7729   34.7052 H   0  0  0  0  0  0  0  0  0  0  0  0
   -1.2468  -20.7530   36.1397 C   0  0  0  0  0  0  0  0  0  0  0  0
   -1.5100  -22.1930   36.4216 N   0  0  0  0  0  0  0  0  0  0  0  0
   -2.4909  -22.3827   36.2160 H   0  0  0  0  0  0  0  0  0  0  0  0
   -1.2408  -22.6132   37.8260 C   0  0  0  0  0  0  0  0  0  0  0  0
   -1.5398  -21.5850   38.9714 C   0  0  0  0  0  0  0  0  0  0  0  0
   -2.8143  -21.2309   39.4068 N   0  0  0  0  0  0  0  0  0  0  0  0
   -0.5677  -21.0634   39.5321 O   0  0  0  0  0  0  0  0  0  0  0  0
   -3.5951  -21.6429   38.9709 H   0  0  0  0  0  0  0  0  0  0  0  0
   -3.0402  -20.2569   40.5022 C   0  0  0  0  0  0  0  0  0  0  0  0
   -4.3494  -20.4405   41.3121 C   0  0  0  0  0  0  0  0  0  0  0  0
   -4.5256  -21.8950   41.7439 C   0  0  0  0  0  0  0  0  0  0  0  0
   -4.3801  -19.5485   42.5480 C   0  0  0  0  0  0  0  0  0  0  0  0
    0.2609  -23.0337   37.9925 C   0  0  0  0  0  0  0  0  0  0  0  0
    0.3646  -23.7070   39.2197 O   0  0  0  0  0  0  0  0  0  0  0  0
    0.7697  -23.9333   36.8683 C   0  0  0  0  0  0  0  0  0  0  0  0
   -0.1998  -24.4957   39.2044 H   0  0  0  0  0  0  0  0  0  0  0  0
   -1.8484  -17.8331   33.9857 C   0  0  0  0  0  0  0  0  0  0  0  0
   -1.2599  -16.5430   33.3732 C   0  0  0  0  0  0  0  0  0  0  0  0
   -1.3054  -16.2066   32.0113 C   0  0  0  0  0  0  0  0  0  0  0  0
   -0.7407  -15.0261   31.5149 C   0  0  0  0  0  0  0  0  0  0  0  0
   -0.0996  -14.1429   32.3583 C   0  0  0  0  0  0  0  0  0  0  0  0
   -0.0194  -14.4389   33.7103 C   0  0  0  0  0  0  0  0  0  0  0  0
   -0.5930  -15.6175   34.1804 C   0  0  0  0  0  0  0  0  0  0  0  0
 20 19  2  0  0  0
 20 21  1  0  0  0
 19 18  1  0  0  0
 21 22  2  0  0  0
 18 17  2  0  0  0
 22 17  1  0  0  0
 17 15  1  0  0  0
 15 16  1  0  0  0
 15 12  1  0  0  0
 34 36  1  0  0  0
 34 33  1  0  0  0
 31 30  1  0  0  0
 12 11  1  0  0  0
 30 33  1  0  0  0
 30 29  1  0  0  0
 36 45  1  0  0  0
 36 37  1  0  0  0
 51 52  2  0  0  0
 51 50  1  0  0  0
 28 25  2  0  0  0
 49 29  1  0  0  0
 49 50  1  0  0  0
 45 47  1  0  0  0
 45 46  1  0  0  0
 11 13  2  0  0  0
 11  9  1  0  0  0
 29  2  1  0  0  0
  2  1  1  0  0  0
 52 53  1  0  0  0
 50 55  2  0  0  0
  9  8  2  0  0  0
  9 10  1  0  0  0
  8  7  1  0  0  0
 43 42  1  0  0  0
 38 37  1  0  0  0
 38 41  1  0  0  0
 37 39  2  0  0  0
 10  5  2  0  0  0
 25 26  2  0  0  0
 25 24  1  0  0  0
 25 27  1  0  0  0
  7  1  1  0  0  0
  7  6  2  0  0  0
  1  3  2  0  0  0
  5  6  1  0  0  0
  5 24  1  0  0  0
 53 54  2  0  0  0
 55 54  1  0  0  0
 42 41  1  0  0  0
 42 44  1  0  0  0
 24 23  1  0  0  0
  2  4  1  0  0  0
 31 32  1  0  0  0
 34 35  1  0  0  0
 46 48  1  0  0  0
 38 40  1  0  0  0
 12 14  1  0  0  0
M  END
> <minimizedAffinity>
-9.88827

$$$$
5DQC_5E7_A_401


 55 57  0  0  0  0  0  0  0  0999 V2000
   -1.0978  -20.2126   36.4162 C   0  0  0  0  0  0  0  0  0  0  0  0
   -0.6192  -20.5603   37.6726 N   0  0  0  0  0  0  0  0  0  0  0  0
   -2.2864  -20.4965   36.1575 O   0  0  0  0  0  0  0  0  0  0  0  0
    0.3160  -20.2991   37.8350 H   0  0  0  0  0  0  0  0  0  0  0  0
    0.2099  -17.8576   33.6306 C   0  0  0  0  0  0  0  0  0  0  0  0
   -0.6317  -18.4370   34.6185 C   0  0  0  0  0  0  0  0  0  0  0  0
   -0.2346  -19.5458   35.3765 C   0  0  0  0  0  0  0  0  0  0  0  0
    1.0454  -20.0679   35.1178 C   0  0  0  0  0  0  0  0  0  0  0  0
    1.9397  -19.5626   34.1548 C   0  0  0  0  0  0  0  0  0  0  0  0
    1.4897  -18.4429   33.4416 C   0  0  0  0  0  0  0  0  0  0  0  0
    3.3232  -20.1831   33.9586 C   0  0  0  0  0  0  0  0  0  0  0  0
    4.4615  -19.4166   33.7201 N   0  0  0  0  0  0  0  0  0  0  0  0
    3.4776  -21.4195   34.0129 O   0  0  0  0  0  0  0  0  0  0  0  0
    4.3057  -18.4445   33.7163 H   0  0  0  0  0  0  0  0  0  0  0  0
    5.8561  -19.8115   33.4731 C   0  0  0  0  0  0  0  0  0  0  0  0
    6.7857  -18.9764   34.3585 C   0  0  0  0  0  0  0  0  0  0  0  0
    6.1921  -19.5623   31.9960 C   0  0  0  0  0  0  0  0  0  0  0  0
    7.4937  -19.7268   31.5065 C   0  0  0  0  0  0  0  0  0  0  0  0
    7.7989  -19.5126   30.1574 C   0  0  0  0  0  0  0  0  0  0  0  0
    6.8068  -19.1450   29.2585 C   0  0  0  0  0  0  0  0  0  0  0  0
    5.5091  -18.9889   29.7218 C   0  0  0  0  0  0  0  0  0  0  0  0
    5.2213  -19.2044   31.0675 C   0  0  0  0  0  0  0  0  0  0  0  0
    0.6819  -16.1494   31.7943 C   0  0  0  0  0  0  0  0  0  0  0  0
   -0.2016  -16.6947   32.8508 N   0  0  0  0  0  0  0  0  0  0  0  0
   -1.6993  -15.9205   33.1055 S   0  0  0  0  0  0  0  0  0  0  0  0
   -2.6867  -16.7912   32.5950 O   0  0  0  0  0  0  0  0  0  0  0  0
   -1.7011  -14.4227   32.1933 C   0  0  0  0  0  0  0  0  0  0  0  0
   -1.8482  -15.5656   34.4655 O   0  0  0  0  0  0  0  0  0  0  0  0
   -1.2577  -21.2479   38.8027 C   0  0  0  0  0  0  0  0  0  0  0  0
   -0.4135  -20.9378   40.1049 C   0  0  0  0  0  0  0  0  0  0  0  0
    0.9022  -21.3290   39.8647 O   0  0  0  0  0  0  0  0  0  0  0  0
    0.9234  -22.2729   39.6420 H   0  0  0  0  0  0  0  0  0  0  0  0
   -0.9875  -21.8033   41.2830 C   0  0  0  0  0  0  0  0  0  0  0  0
   -1.3494  -21.0709   42.5300 N   0  0  0  0  0  0  0  0  0  0  0  0
   -0.8186  -21.4756   43.3012 H   0  0  0  0  0  0  0  0  0  0  0  0
   -2.7959  -21.1212   42.8856 C   0  0  0  0  0  0  0  0  0  0  0  0
   -3.2905  -22.3039   43.7884 C   0  0  0  0  0  0  0  0  0  0  0  0
   -2.8997  -23.6323   43.6399 N   0  0  0  0  0  0  0  0  0  0  0  0
   -4.0756  -22.0273   44.7041 O   0  0  0  0  0  0  0  0  0  0  0  0
   -2.2721  -23.8634   42.9175 H   0  0  0  0  0  0  0  0  0  0  0  0
   -3.3931  -24.7121   44.5288 C   0  0  0  0  0  0  0  0  0  0  0  0
   -2.3168  -25.6872   45.0713 C   0  0  0  0  0  0  0  0  0  0  0  0
   -2.7150  -27.1392   44.8135 C   0  0  0  0  0  0  0  0  0  0  0  0
   -0.9512  -25.4282   44.4451 C   0  0  0  0  0  0  0  0  0  0  0  0
   -3.6767  -21.1588   41.5886 C   0  0  0  0  0  0  0  0  0  0  0  0
   -4.8549  -21.8494   41.9130 O   0  0  0  0  0  0  0  0  0  0  0  0
   -4.0253  -19.7736   41.0487 C   0  0  0  0  0  0  0  0  0  0  0  0
   -5.3239  -21.3754   42.6175 H   0  0  0  0  0  0  0  0  0  0  0  0
   -1.4561  -22.7750   38.5291 C   0  0  0  0  0  0  0  0  0  0  0  0
   -0.1923  -23.4823   37.9922 C   0  0  0  0  0  0  0  0  0  0  0  0
    0.3485  -23.2978   36.7103 C   0  0  0  0  0  0  0  0  0  0  0  0
    1.4914  -23.9798   36.2772 C   0  0  0  0  0  0  0  0  0  0  0  0
    2.1303  -24.8800   37.1041 C   0  0  0  0  0  0  0  0  0  0  0  0
    1.6252  -25.1038   38.3756 C   0  0  0  0  0  0  0  0  0  0  0  0
    0.4895  -24.4096   38.7847 C   0  0  0  0  0  0  0  0  0  0  0  0
 20 19  2  0  0  0
 20 21  1  0  0  0
 19 18  1  0  0  0
 21 22  2  0  0  0
 18 17  2  0  0  0
 22 17  1  0  0  0
 17 15  1  0  0  0
 15 16  1  0  0  0
 15 12  1  0  0  0
 34 36  1  0  0  0
 34 33  1  0  0  0
 31 30  1  0  0  0
 12 11  1  0  0  0
 30 33  1  0  0  0
 30 29  1  0  0  0
 36 45  1  0  0  0
 36 37  1  0  0  0
 51 52  2  0  0  0
 51 50  1  0  0  0
 28 25  2  0  0  0
 49 29  1  0  0  0
 49 50  1  0  0  0
 45 47  1  0  0  0
 45 46  1  0  0  0
 11 13  2  0  0  0
 11  9  1  0  0  0
 29  2  1  0  0  0
  2  1  1  0  0  0
 52 53  1  0  0  0
 50 55  2  0  0  0
  9  8  2  0  0  0
  9 10  1  0  0  0
  8  7  1  0  0  0
 43 42  1  0  0  0
 38 37  1  0  0  0
 38 41  1  0  0  0
 37 39  2  0  0  0
 10  5  2  0  0  0
 25 26  2  0  0  0
 25 24  1  0  0  0
 25 27  1  0  0  0
  7  1  1  0  0  0
  7  6  2  0  0  0
  1  3  2  0  0  0
  5  6  1  0  0  0
  5 24  1  0  0  0
 53 54  2  0  0  0
 55 54  1  0  0  0
 42 41  1  0  0  0
 42 44  1  0  0  0
 24 23  1  0  0  0
  2  4  1  0  0  0
 31 32  1  0  0  0
 34 35  1  0  0  0
 46 48  1  0  0  0
 38 40  1  0  0  0
 12 14  1  0  0  0
M  END
> <minimizedAffinity>
-9.31601

$$$$
5DQC_5E7_A_401


 55 57  0  0  0  0  0  0  0  0999 V2000
   -1.1171  -20.6701   36.7308 C   0  0  0  0  0  0  0  0  0  0  0  0
   -0.2410  -19.7236   36.2157 N   0  0  0  0  0  0  0  0  0  0  0  0
   -1.8962  -21.2259   35.9280 O   0  0  0  0  0  0  0  0  0  0  0  0
    0.3646  -19.3281   36.8837 H   0  0  0  0  0  0  0  0  0  0  0  0
   -2.3220  -21.2524   40.3673 C   0  0  0  0  0  0  0  0  0  0  0  0
   -2.3283  -20.9425   38.9803 C   0  0  0  0  0  0  0  0  0  0  0  0
   -1.1692  -21.0126   38.1973 C   0  0  0  0  0  0  0  0  0  0  0  0
    0.0143  -21.4071   38.8466 C   0  0  0  0  0  0  0  0  0  0  0  0
    0.1127  -21.7243   40.2149 C   0  0  0  0  0  0  0  0  0  0  0  0
   -1.0851  -21.6508   40.9393 C   0  0  0  0  0  0  0  0  0  0  0  0
    1.4408  -22.1661   40.8301 C   0  0  0  0  0  0  0  0  0  0  0  0
    1.9153  -21.6547   42.0358 N   0  0  0  0  0  0  0  0  0  0  0  0
    2.1509  -23.0193   40.2616 O   0  0  0  0  0  0  0  0  0  0  0  0
    1.3130  -21.0084   42.4703 H   0  0  0  0  0  0  0  0  0  0  0  0
    3.1621  -21.9152   42.7702 C   0  0  0  0  0  0  0  0  0  0  0  0
    2.9605  -21.5783   44.2505 C   0  0  0  0  0  0  0  0  0  0  0  0
    4.2776  -21.0347   42.1897 C   0  0  0  0  0  0  0  0  0  0  0  0
    4.4367  -19.7018   42.5889 C   0  0  0  0  0  0  0  0  0  0  0  0
    5.4612  -18.9017   42.0703 C   0  0  0  0  0  0  0  0  0  0  0  0
    6.3647  -19.4185   41.1514 C   0  0  0  0  0  0  0  0  0  0  0  0
    6.2311  -20.7400   40.7529 C   0  0  0  0  0  0  0  0  0  0  0  0
    5.2054  -21.5233   41.2771 C   0  0  0  0  0  0  0  0  0  0  0  0
   -4.3334  -22.4124   41.4263 C   0  0  0  0  0  0  0  0  0  0  0  0
   -3.5339  -21.1904   41.1781 N   0  0  0  0  0  0  0  0  0  0  0  0
   -4.0795  -19.7340   41.8769 S   0  0  0  0  0  0  0  0  0  0  0  0
   -3.9661  -19.8989   43.2746 O   0  0  0  0  0  0  0  0  0  0  0  0
   -5.7642  -19.5171   41.4405 C   0  0  0  0  0  0  0  0  0  0  0  0
   -3.3773  -18.6324   41.3373 O   0  0  0  0  0  0  0  0  0  0  0  0
   -0.0554  -19.2067   34.8534 C   0  0  0  0  0  0  0  0  0  0  0  0
    1.0268  -20.1075   34.1309 C   0  0  0  0  0  0  0  0  0  0  0  0
    1.6439  -20.8951   35.1009 O   0  0  0  0  0  0  0  0  0  0  0  0
    2.0465  -20.3237   35.7734 H   0  0  0  0  0  0  0  0  0  0  0  0
    2.1058  -19.1637   33.4895 C   0  0  0  0  0  0  0  0  0  0  0  0
    2.7763  -19.6639   32.2556 N   0  0  0  0  0  0  0  0  0  0  0  0
    3.3586  -20.4613   32.5116 H   0  0  0  0  0  0  0  0  0  0  0  0
    3.6378  -18.6634   31.5642 C   0  0  0  0  0  0  0  0  0  0  0  0
    2.9780  -17.7580   30.4670 C   0  0  0  0  0  0  0  0  0  0  0  0
    1.6091  -17.5365   30.3394 N   0  0  0  0  0  0  0  0  0  0  0  0
    3.7357  -17.1938   29.6677 O   0  0  0  0  0  0  0  0  0  0  0  0
    0.9970  -17.9768   30.9724 H   0  0  0  0  0  0  0  0  0  0  0  0
    1.0382  -16.6624   29.2860 C   0  0  0  0  0  0  0  0  0  0  0  0
   -0.4633  -16.3083   29.4403 C   0  0  0  0  0  0  0  0  0  0  0  0
   -0.6907  -14.8071   29.2737 C   0  0  0  0  0  0  0  0  0  0  0  0
   -1.3278  -17.0564   28.4318 C   0  0  0  0  0  0  0  0  0  0  0  0
    4.8554  -19.3729   30.8761 C   0  0  0  0  0  0  0  0  0  0  0  0
    5.9329  -18.4745   30.9220 O   0  0  0  0  0  0  0  0  0  0  0  0
    5.2528  -20.6865   31.5457 C   0  0  0  0  0  0  0  0  0  0  0  0
    6.1468  -18.2732   31.8464 H   0  0  0  0  0  0  0  0  0  0  0  0
    0.2860  -17.6804   34.8422 C   0  0  0  0  0  0  0  0  0  0  0  0
   -0.7091  -16.8241   34.0283 C   0  0  0  0  0  0  0  0  0  0  0  0
   -1.9504  -17.2716   33.5500 C   0  0  0  0  0  0  0  0  0  0  0  0
   -2.8035  -16.4494   32.8049 C   0  0  0  0  0  0  0  0  0  0  0  0
   -2.4438  -15.1532   32.5001 C   0  0  0  0  0  0  0  0  0  0  0  0
   -1.2212  -14.6710   32.9414 C   0  0  0  0  0  0  0  0  0  0  0  0
   -0.3922  -15.5071   33.6848 C   0  0  0  0  0  0  0  0  0  0  0  0
 20 19  2  0  0  0
 20 21  1  0  0  0
 19 18  1  0  0  0
 21 22  2  0  0  0
 18 17  2  0  0  0
 22 17  1  0  0  0
 17 15  1  0  0  0
 15 16  1  0  0  0
 15 12  1  0  0  0
 34 36  1  0  0  0
 34 33  1  0  0  0
 31 30  1  0  0  0
 12 11  1  0  0  0
 30 33  1  0  0  0
 30 29  1  0  0  0
 36 45  1  0  0  0
 36 37  1  0  0  0
 51 52  2  0  0  0
 51 50  1  0  0  0
 28 25  2  0  0  0
 49 29  1  0  0  0
 49 50  1  0  0  0
 45 47  1  0  0  0
 45 46  1  0  0  0
 11 13  2  0  0  0
 11  9  1  0  0  0
 29  2  1  0  0  0
  2  1  1  0  0  0
 52 53  1  0  0  0
 50 55  2  0  0  0
  9  8  2  0  0  0
  9 10  1  0  0  0
  8  7  1  0  0  0
 43 42  1  0  0  0
 38 37  1  0  0  0
 38 41  1  0  0  0
 37 39  2  0  0  0
 10  5  2  0  0  0
 25 26  2  0  0  0
 25 24  1  0  0  0
 25 27  1  0  0  0
  7  1  1  0  0  0
  7  6  2  0  0  0
  1  3  2  0  0  0
  5  6  1  0  0  0
  5 24  1  0  0  0
 53 54  2  0  0  0
 55 54  1  0  0  0
 42 41  1  0  0  0
 42 44  1  0  0  0
 24 23  1  0  0  0
  2  4  1  0  0  0
 31 32  1  0  0  0
 34 35  1  0  0  0
 46 48  1  0  0  0
 38 40  1  0  0  0
 12 14  1  0  0  0
M  END
> <minimizedAffinity>
-9.16672

$$$$
5DQC_5E7_A_401


 55 57  0  0  0  0  0  0  0  0999 V2000
    3.0614  -18.3514   31.1506 C   0  0  0  0  0  0  0  0  0  0  0  0
    2.6759  -17.8389   32.3824 N   0  0  0  0  0  0  0  0  0  0  0  0
    2.1548  -18.7267   30.3775 O   0  0  0  0  0  0  0  0  0  0  0  0
    3.4246  -17.5399   32.9475 H   0  0  0  0  0  0  0  0  0  0  0  0
    6.8620  -19.1065   31.1535 C   0  0  0  0  0  0  0  0  0  0  0  0
    5.5063  -19.0203   31.5710 C   0  0  0  0  0  0  0  0  0  0  0  0
    4.5066  -18.4888   30.7466 C   0  0  0  0  0  0  0  0  0  0  0  0
    4.9034  -18.0393   29.4744 C   0  0  0  0  0  0  0  0  0  0  0  0
    6.2223  -18.0795   28.9833 C   0  0  0  0  0  0  0  0  0  0  0  0
    7.1724  -18.6377   29.8497 C   0  0  0  0  0  0  0  0  0  0  0  0
    6.5565  -17.5873   27.5749 C   0  0  0  0  0  0  0  0  0  0  0  0
    6.6887  -16.2357   27.2650 N   0  0  0  0  0  0  0  0  0  0  0  0
    6.7296  -18.3985   26.6436 O   0  0  0  0  0  0  0  0  0  0  0  0
    6.5770  -15.6282   28.0316 H   0  0  0  0  0  0  0  0  0  0  0  0
    6.9668  -15.5614   25.9883 C   0  0  0  0  0  0  0  0  0  0  0  0
    8.4792  -15.3836   25.8257 C   0  0  0  0  0  0  0  0  0  0  0  0
    6.2846  -14.1862   25.9903 C   0  0  0  0  0  0  0  0  0  0  0  0
    6.0820  -13.4744   27.1791 C   0  0  0  0  0  0  0  0  0  0  0  0
    5.4720  -12.2147   27.1810 C   0  0  0  0  0  0  0  0  0  0  0  0
    5.0640  -11.6257   25.9918 C   0  0  0  0  0  0  0  0  0  0  0  0
    5.2670  -12.3096   24.8026 C   0  0  0  0  0  0  0  0  0  0  0  0
    5.8744  -13.5631   24.8172 C   0  0  0  0  0  0  0  0  0  0  0  0
    8.3102  -18.9750   33.2508 C   0  0  0  0  0  0  0  0  0  0  0  0
    7.8995  -19.6723   32.0100 N   0  0  0  0  0  0  0  0  0  0  0  0
    8.6747  -21.1446   31.6377 S   0  0  0  0  0  0  0  0  0  0  0  0
    7.6504  -22.0579   31.3053 O   0  0  0  0  0  0  0  0  0  0  0  0
    9.5173  -21.6958   33.0735 C   0  0  0  0  0  0  0  0  0  0  0  0
    9.6585  -20.9481   30.6421 O   0  0  0  0  0  0  0  0  0  0  0  0
    1.3519  -17.6627   32.9935 C   0  0  0  0  0  0  0  0  0  0  0  0
    0.8817  -16.1759   32.7234 C   0  0  0  0  0  0  0  0  0  0  0  0
   -0.0685  -15.8460   33.6879 O   0  0  0  0  0  0  0  0  0  0  0  0
   -0.8099  -16.4694   33.6379 H   0  0  0  0  0  0  0  0  0  0  0  0
    0.2010  -16.1227   31.3092 C   0  0  0  0  0  0  0  0  0  0  0  0
    0.6797  -15.0586   30.3814 N   0  0  0  0  0  0  0  0  0  0  0  0
    0.0586  -14.2546   30.4728 H   0  0  0  0  0  0  0  0  0  0  0  0
    0.7181  -15.4541   28.9449 C   0  0  0  0  0  0  0  0  0  0  0  0
   -0.2165  -16.6238   28.4791 C   0  0  0  0  0  0  0  0  0  0  0  0
    0.2227  -17.8972   28.1255 N   0  0  0  0  0  0  0  0  0  0  0  0
   -1.4318  -16.3948   28.4362 O   0  0  0  0  0  0  0  0  0  0  0  0
    1.1871  -18.0921   28.1599 H   0  0  0  0  0  0  0  0  0  0  0  0
   -0.7073  -18.9709   27.6990 C   0  0  0  0  0  0  0  0  0  0  0  0
   -0.6849  -19.3261   26.1900 C   0  0  0  0  0  0  0  0  0  0  0  0
   -2.1024  -19.4081   25.6267 C   0  0  0  0  0  0  0  0  0  0  0  0
    0.1128  -18.3096   25.3810 C   0  0  0  0  0  0  0  0  0  0  0  0
    2.1743  -15.8614   28.5288 C   0  0  0  0  0  0  0  0  0  0  0  0
    2.1618  -16.0661   27.1403 O   0  0  0  0  0  0  0  0  0  0  0  0
    3.2252  -14.8119   28.8840 C   0  0  0  0  0  0  0  0  0  0  0  0
    1.9086  -15.2428   26.6943 H   0  0  0  0  0  0  0  0  0  0  0  0
    1.3415  -18.0620   34.5057 C   0  0  0  0  0  0  0  0  0  0  0  0
    0.2483  -19.0896   34.8725 C   0  0  0  0  0  0  0  0  0  0  0  0
   -1.0566  -19.0938   34.3558 C   0  0  0  0  0  0  0  0  0  0  0  0
   -2.0079  -20.0464   34.7385 C   0  0  0  0  0  0  0  0  0  0  0  0
   -1.6949  -21.0237   35.6601 C   0  0  0  0  0  0  0  0  0  0  0  0
   -0.4211  -21.0521   36.2068 C   0  0  0  0  0  0  0  0  0  0  0  0
    0.5088  -20.0961   35.8064 C   0  0  0  0  0  0  0  0  0  0  0  0
 20 19  2  0  0  0
 20 21  1  0  0  0
 19 18  1  0  0  0
 21 22  2  0  0  0
 18 17  2  0  0  0
 22 17  1  0  0  0
 17 15  1  0  0  0
 15 16  1  0  0  0
 15 12  1  0  0  0
 34 36  1  0  0  0
 34 33  1  0  0  0
 31 30  1  0  0  0
 12 11  1  0  0  0
 30 33  1  0  0  0
 30 29  1  0  0  0
 36 45  1  0  0  0
 36 37  1  0  0  0
 51 52  2  0  0  0
 51 50  1  0  0  0
 28 25  2  0  0  0
 49 29  1  0  0  0
 49 50  1  0  0  0
 45 47  1  0  0  0
 45 46  1  0  0  0
 11 13  2  0  0  0
 11  9  1  0  0  0
 29  2  1  0  0  0
  2  1  1  0  0  0
 52 53  1  0  0  0
 50 55  2  0  0  0
  9  8  2  0  0  0
  9 10  1  0  0  0
  8  7  1  0  0  0
 43 42  1  0  0  0
 38 37  1  0  0  0
 38 41  1  0  0  0
 37 39  2  0  0  0
 10  5  2  0  0  0
 25 26  2  0  0  0
 25 24  1  0  0  0
 25 27  1  0  0  0
  7  1  1  0  0  0
  7  6  2  0  0  0
  1  3  2  0  0  0
  5  6  1  0  0  0
  5 24  1  0  0  0
 53 54  2  0  0  0
 55 54  1  0  0  0
 42 41  1  0  0  0
 42 44  1  0  0  0
 24 23  1  0  0  0
  2  4  1  0  0  0
 31 32  1  0  0  0
 34 35  1  0  0  0
 46 48  1  0  0  0
 38 40  1  0  0  0
 12 14  1  0  0  0
M  END
> <minimizedAffinity>
-9.00693

$$$$
