3BWJ_ARX_A_351


 67 69  0  0  0  0  0  0  0  0999 V2000
   36.3744   19.6930    8.5484 C   0  0  0  0  0  0  0  0  0  0  0  0
   37.5534   19.6356    8.2166 O   0  0  0  0  0  0  0  0  0  0  0  0
   35.9396   19.9586    9.7780 N   0  0  0  0  0  0  0  0  0  0  0  0
   34.9662   19.9399    9.9240 H   0  0  0  0  0  0  0  0  0  0  0  0
   36.7803   20.2756   10.9296 C   0  0  0  0  0  0  0  0  0  0  0  0
   36.4412   21.6448   11.4761 C   0  0  0  0  0  0  0  0  0  0  0  0
   37.0488   22.0745   12.4537 O   0  0  0  0  0  0  0  0  0  0  0  0
   35.4819   22.3175   10.8145 N   0  0  0  0  0  0  0  0  0  0  0  0
   35.5242   22.2271    9.8351 H   0  0  0  0  0  0  0  0  0  0  0  0
   34.3700   23.1727   11.3035 C   0  0  0  0  0  0  0  0  0  0  0  0
   33.3226   22.4794   12.1991 C   0  0  0  0  0  0  0  0  0  0  0  0
   33.6697   22.0987   13.3236 O   0  0  0  0  0  0  0  0  0  0  0  0
   32.0521   22.2855   11.7788 N   0  0  0  0  0  0  0  0  0  0  0  0
   31.4011   21.8406   12.3683 H   0  0  0  0  0  0  0  0  0  0  0  0
   31.7781   22.5893   10.8834 H   0  0  0  0  0  0  0  0  0  0  0  0
   34.8478   24.5667   11.7779 C   0  0  0  0  0  0  0  0  0  0  0  0
   34.0004   25.1844   12.8990 C   0  0  0  0  0  0  0  0  0  0  0  0
   33.6093   26.6363   12.6283 C   0  0  0  0  0  0  0  0  0  0  0  0
   32.9970   26.8107   11.3211 N   0  0  0  0  0  0  0  0  0  0  0  0
   32.2476   26.2219   11.0741 H   0  0  0  0  0  0  0  0  0  0  0  0
   33.4020   27.7351   10.4323 C   0  0  0  0  0  0  0  0  0  0  0  0
   32.6334   28.6865   10.1081 N   0  0  0  0  0  0  0  0  0  0  0  0
   34.6288   27.6771    9.8915 N   0  0  0  0  0  0  0  0  0  0  0  0
   31.7303   28.7436   10.4957 H   0  0  0  0  0  0  0  0  0  0  0  0
   32.9386   29.3696    9.4681 H   0  0  0  0  0  0  0  0  0  0  0  0
   35.2391   26.9434   10.1332 H   0  0  0  0  0  0  0  0  0  0  0  0
   36.5787   19.1938   12.0085 C   0  0  0  0  0  0  0  0  0  0  0  0
   37.1566   17.8141   11.6751 C   0  0  0  0  0  0  0  0  0  0  0  0
   36.0809   16.7888   11.2573 C   0  0  0  0  0  0  0  0  0  0  0  0
   35.0081   16.5729   12.2273 N   0  0  0  0  0  0  0  0  0  0  0  0
   35.2462   16.4800   13.1781 H   0  0  0  0  0  0  0  0  0  0  0  0
   33.7138   16.4955   11.8807 C   0  0  0  0  0  0  0  0  0  0  0  0
   33.3573   16.6031   10.5927 N   0  0  0  0  0  0  0  0  0  0  0  0
   32.8217   16.3355   12.7726 N   0  0  0  0  0  0  0  0  0  0  0  0
   34.0459   16.7271    9.9000 H   0  0  0  0  0  0  0  0  0  0  0  0
   32.4070   16.5582   10.3396 H   0  0  0  0  0  0  0  0  0  0  0  0
   33.0807   16.2562   13.7192 H   0  0  0  0  0  0  0  0  0  0  0  0
   35.3258   19.4286    7.4968 C   0  0  0  0  0  0  0  0  0  0  0  0
   34.1383   20.3713    7.7068 C   0  0  0  0  0  0  0  0  0  0  0  0
   33.6582   20.9765    6.3969 C   0  0  0  0  0  0  0  0  0  0  0  0
   32.7067   22.1499    6.6462 C   0  0  0  0  0  0  0  0  0  0  0  0
   32.5103   22.4886    8.1202 C   0  0  0  0  0  0  0  0  0  0  0  0
   30.2695   23.0090    9.5347 O   0  0  0  0  0  0  0  0  0  0  0  0
   30.8659   23.9674    9.0327 C   0  0  0  0  0  0  0  0  0  0  0  0
   31.9686   23.8166    8.2837 N   0  0  0  0  0  0  0  0  0  0  0  0
   32.3979   24.5925    7.8561 H   0  0  0  0  0  0  0  0  0  0  0  0
   30.2594   26.0605   11.6999 O   0  0  0  0  0  0  0  0  0  0  0  0
   29.0398   27.9134   10.2151 O   0  0  0  0  0  0  0  0  0  0  0  0
   29.5850   25.7945    8.1264 O   0  0  0  0  0  0  0  0  0  0  0  0
   29.5453   25.5870   10.5250 C   0  0  0  0  0  0  0  0  0  0  0  0
   28.5288   26.6131   10.0689 C   0  0  0  0  0  0  0  0  0  0  0  0
   30.4065   25.3890    9.2481 C   0  0  0  0  0  0  0  0  0  0  0  0
   28.3903   26.4495    8.5789 C   0  0  0  0  0  0  0  0  0  0  0  0
   30.9049   25.3917   11.9773 H   0  0  0  0  0  0  0  0  0  0  0  0
   28.3769   28.5565    9.9188 H   0  0  0  0  0  0  0  0  0  0  0  0
   23.2112   26.1632    7.6540 N   0  0  0  0  0  0  0  0  0  0  0  0
   24.0063   27.2314    7.8043 C   0  0  0  0  0  0  0  0  0  0  0  0
   25.3343   27.1726    8.0390 N   0  0  0  0  0  0  0  0  0  0  0  0
   25.9618   25.9776    8.1217 C   0  0  0  0  0  0  0  0  0  0  0  0
   25.1794   24.7574    7.9589 C   0  0  0  0  0  0  0  0  0  0  0  0
   23.7245   24.8919    7.7095 C   0  0  0  0  0  0  0  0  0  0  0  0
   22.9682   23.7646    7.5559 N   0  0  0  0  0  0  0  0  0  0  0  0
   26.0347   23.7287    8.1141 N   0  0  0  0  0  0  0  0  0  0  0  0
   27.2532   24.2316    8.3478 C   0  0  0  0  0  0  0  0  0  0  0  0
   27.2170   25.5686    8.3527 N   0  0  0  0  0  0  0  0  0  0  0  0
   23.3916   22.8772    7.6055 H   0  0  0  0  0  0  0  0  0  0  0  0
   21.9997   23.8397    7.3957 H   0  0  0  0  0  0  0  0  0  0  0  0
 61 60  2  0  0  0
 60 59  1  0  0  0
 60 63  1  0  0  0
 11 12  2  0  0  0
 10 11  1  0  0  0
 11 13  1  0  0  0
  8 10  1  0  0  0
 16 10  1  0  0  0
 17 16  1  0  0  0
 18 17  1  0  0  0
 19 18  1  0  0  0
 21 19  1  0  0  0
 23 21  2  0  0  0
 21 22  1  0  0  0
  6  8  1  0  0  0
  5  6  1  0  0  0
  6  7  2  0  0  0
  3  5  1  0  0  0
  5 27  1  0  0  0
 27 28  1  0  0  0
 28 29  1  0  0  0
 29 30  1  0  0  0
 30 32  1  0  0  0
 34 32  2  0  0  0
 32 33  1  0  0  0
  1  3  1  0  0  0
  2  1  2  0  0  0
 38  1  1  0  0  0
 39 38  1  0  0  0
 39 40  1  0  0  0
 40 41  1  0  0  0
 41 42  1  0  0  0
 45 42  1  0  0  0
 44 45  1  0  0  0
 43 44  2  0  0  0
 44 52  1  0  0  0
 49 52  1  0  0  0
 52 50  1  0  0  0
 49 53  1  0  0  0
 65 53  1  0  0  0
 53 51  1  0  0  0
 51 48  1  0  0  0
 51 50  1  0  0  0
 50 47  1  0  0  0
 59 65  1  0  0  0
 65 64  1  0  0  0
 58 59  2  0  0  0
 63 64  2  0  0  0
 57 58  1  0  0  0
 56 57  2  0  0  0
 56 61  1  0  0  0
 62 61  1  0  0  0
 62 66  1  0  0  0
 62 67  1  0  0  0
 47 54  1  0  0  0
 48 55  1  0  0  0
 45 46  1  0  0  0
  3  4  1  0  0  0
 30 31  1  0  0  0
 33 35  1  0  0  0
 33 36  1  0  0  0
 34 37  1  0  0  0
  8  9  1  0  0  0
 19 20  1  0  0  0
 22 24  1  0  0  0
 22 25  1  0  0  0
 23 26  1  0  0  0
 13 14  1  0  0  0
 13 15  1  0  0  0
M  END
> <minimizedAffinity>
-9.93128

$$$$
3BWJ_ARX_A_351


 67 69  0  0  0  0  0  0  0  0999 V2000
   36.5900   19.4442    8.8530 C   0  0  0  0  0  0  0  0  0  0  0  0
   37.4390   19.6381    7.9898 O   0  0  0  0  0  0  0  0  0  0  0  0
   36.8249   18.9055   10.0472 N   0  0  0  0  0  0  0  0  0  0  0  0
   36.0499   18.7690   10.6387 H   0  0  0  0  0  0  0  0  0  0  0  0
   38.1320   18.4992   10.5569 C   0  0  0  0  0  0  0  0  0  0  0  0
   38.7487   19.6053   11.3843 C   0  0  0  0  0  0  0  0  0  0  0  0
   39.4642   20.4425   10.8397 O   0  0  0  0  0  0  0  0  0  0  0  0
   38.4387   19.5986   12.6937 N   0  0  0  0  0  0  0  0  0  0  0  0
   37.5019   19.3665   12.8882 H   0  0  0  0  0  0  0  0  0  0  0  0
   39.2629   19.8801   13.8970 C   0  0  0  0  0  0  0  0  0  0  0  0
   39.3302   21.3547   14.3451 C   0  0  0  0  0  0  0  0  0  0  0  0
   40.4200   21.9370   14.2901 O   0  0  0  0  0  0  0  0  0  0  0  0
   38.2330   22.0081   14.7896 N   0  0  0  0  0  0  0  0  0  0  0  0
   38.3005   22.9493   15.0702 H   0  0  0  0  0  0  0  0  0  0  0  0
   37.3666   21.5425   14.8327 H   0  0  0  0  0  0  0  0  0  0  0  0
   39.0547   18.8403   15.0249 C   0  0  0  0  0  0  0  0  0  0  0  0
   37.6869   18.1437   15.0064 C   0  0  0  0  0  0  0  0  0  0  0  0
   36.5340   19.0697   15.3907 C   0  0  0  0  0  0  0  0  0  0  0  0
   35.3862   18.9198   14.5107 N   0  0  0  0  0  0  0  0  0  0  0  0
   34.8002   18.1387   14.6362 H   0  0  0  0  0  0  0  0  0  0  0  0
   35.0840   19.7938   13.5343 C   0  0  0  0  0  0  0  0  0  0  0  0
   34.1799   19.5205   12.6924 N   0  0  0  0  0  0  0  0  0  0  0  0
   35.7181   20.9733   13.4476 N   0  0  0  0  0  0  0  0  0  0  0  0
   33.7050   18.6595   12.7421 H   0  0  0  0  0  0  0  0  0  0  0  0
   33.9512   20.1688   11.9877 H   0  0  0  0  0  0  0  0  0  0  0  0
   36.4241   21.2014   14.0948 H   0  0  0  0  0  0  0  0  0  0  0  0
   37.9645   17.2190   11.3984 C   0  0  0  0  0  0  0  0  0  0  0  0
   36.5225   16.8606   11.7738 C   0  0  0  0  0  0  0  0  0  0  0  0
   36.0240   15.5629   11.1032 C   0  0  0  0  0  0  0  0  0  0  0  0
   34.6063   15.2605   11.2956 N   0  0  0  0  0  0  0  0  0  0  0  0
   34.3248   14.3172   11.3096 H   0  0  0  0  0  0  0  0  0  0  0  0
   33.6711   16.2101   11.4541 C   0  0  0  0  0  0  0  0  0  0  0  0
   33.0115   16.3139   12.6168 N   0  0  0  0  0  0  0  0  0  0  0  0
   33.3974   17.0034   10.4987 N   0  0  0  0  0  0  0  0  0  0  0  0
   33.2214   15.7011   13.3582 H   0  0  0  0  0  0  0  0  0  0  0  0
   32.3173   17.0028   12.7291 H   0  0  0  0  0  0  0  0  0  0  0  0
   33.8801   16.9295    9.6438 H   0  0  0  0  0  0  0  0  0  0  0  0
   35.1633   19.8255    8.5459 C   0  0  0  0  0  0  0  0  0  0  0  0
   35.0353   20.1859    7.0638 C   0  0  0  0  0  0  0  0  0  0  0  0
   33.6748   20.7851    6.7430 C   0  0  0  0  0  0  0  0  0  0  0  0
   33.5195   22.1722    7.3726 C   0  0  0  0  0  0  0  0  0  0  0  0
   32.3862   22.2704    8.3884 C   0  0  0  0  0  0  0  0  0  0  0  0
   30.1818   22.9352    9.7996 O   0  0  0  0  0  0  0  0  0  0  0  0
   30.7993   23.8462    9.2380 C   0  0  0  0  0  0  0  0  0  0  0  0
   31.8864   23.6211    8.4850 N   0  0  0  0  0  0  0  0  0  0  0  0
   32.3324   24.3591    8.0099 H   0  0  0  0  0  0  0  0  0  0  0  0
   30.1753   26.0659   11.7965 O   0  0  0  0  0  0  0  0  0  0  0  0
   29.0787   27.8991   10.1958 O   0  0  0  0  0  0  0  0  0  0  0  0
   29.6198   25.6792    8.2137 O   0  0  0  0  0  0  0  0  0  0  0  0
   29.4867   25.5707   10.6154 C   0  0  0  0  0  0  0  0  0  0  0  0
   28.5257   26.6128   10.0819 C   0  0  0  0  0  0  0  0  0  0  0  0
   30.3851   25.2907    9.3802 C   0  0  0  0  0  0  0  0  0  0  0  0
   28.4347   26.3938    8.5954 C   0  0  0  0  0  0  0  0  0  0  0  0
   30.7853   25.3865   12.1238 H   0  0  0  0  0  0  0  0  0  0  0  0
   28.4509   28.5527    9.8500 H   0  0  0  0  0  0  0  0  0  0  0  0
   23.2558   26.2545    7.6358 N   0  0  0  0  0  0  0  0  0  0  0  0
   24.0796   27.2997    7.7926 C   0  0  0  0  0  0  0  0  0  0  0  0
   25.4038   27.2033    8.0360 N   0  0  0  0  0  0  0  0  0  0  0  0
   25.9969   25.9910    8.1215 C   0  0  0  0  0  0  0  0  0  0  0  0
   25.1815   24.7935    7.9522 C   0  0  0  0  0  0  0  0  0  0  0  0
   23.7327   24.9692    7.6932 C   0  0  0  0  0  0  0  0  0  0  0  0
   22.9459   23.8638    7.5334 N   0  0  0  0  0  0  0  0  0  0  0  0
   26.0065   23.7410    8.1119 N   0  0  0  0  0  0  0  0  0  0  0  0
   27.2370   24.2091    8.3542 C   0  0  0  0  0  0  0  0  0  0  0  0
   27.2385   25.5466    8.3603 N   0  0  0  0  0  0  0  0  0  0  0  0
   23.3438   22.9648    7.5848 H   0  0  0  0  0  0  0  0  0  0  0  0
   21.9810   23.9663    7.3669 H   0  0  0  0  0  0  0  0  0  0  0  0
 61 60  2  0  0  0
 60 59  1  0  0  0
 60 63  1  0  0  0
 11 12  2  0  0  0
 10 11  1  0  0  0
 11 13  1  0  0  0
  8 10  1  0  0  0
 16 10  1  0  0  0
 17 16  1  0  0  0
 18 17  1  0  0  0
 19 18  1  0  0  0
 21 19  1  0  0  0
 23 21  2  0  0  0
 21 22  1  0  0  0
  6  8  1  0  0  0
  5  6  1  0  0  0
  6  7  2  0  0  0
  3  5  1  0  0  0
  5 27  1  0  0  0
 27 28  1  0  0  0
 28 29  1  0  0  0
 29 30  1  0  0  0
 30 32  1  0  0  0
 34 32  2  0  0  0
 32 33  1  0  0  0
  1  3  1  0  0  0
  2  1  2  0  0  0
 38  1  1  0  0  0
 39 38  1  0  0  0
 39 40  1  0  0  0
 40 41  1  0  0  0
 41 42  1  0  0  0
 45 42  1  0  0  0
 44 45  1  0  0  0
 43 44  2  0  0  0
 44 52  1  0  0  0
 49 52  1  0  0  0
 52 50  1  0  0  0
 49 53  1  0  0  0
 65 53  1  0  0  0
 53 51  1  0  0  0
 51 48  1  0  0  0
 51 50  1  0  0  0
 50 47  1  0  0  0
 59 65  1  0  0  0
 65 64  1  0  0  0
 58 59  2  0  0  0
 63 64  2  0  0  0
 57 58  1  0  0  0
 56 57  2  0  0  0
 56 61  1  0  0  0
 62 61  1  0  0  0
 62 66  1  0  0  0
 62 67  1  0  0  0
 47 54  1  0  0  0
 48 55  1  0  0  0
 45 46  1  0  0  0
  3  4  1  0  0  0
 30 31  1  0  0  0
 33 35  1  0  0  0
 33 36  1  0  0  0
 34 37  1  0  0  0
  8  9  1  0  0  0
 19 20  1  0  0  0
 22 24  1  0  0  0
 22 25  1  0  0  0
 23 26  1  0  0  0
 13 14  1  0  0  0
 13 15  1  0  0  0
M  END
> <minimizedAffinity>
-9.38184

$$$$
3BWJ_ARX_A_351


 67 69  0  0  0  0  0  0  0  0999 V2000
   35.9293   19.5485    8.8973 C   0  0  0  0  0  0  0  0  0  0  0  0
   35.2584   18.7430    9.5333 O   0  0  0  0  0  0  0  0  0  0  0  0
   36.7887   20.4145    9.4294 N   0  0  0  0  0  0  0  0  0  0  0  0
   37.2406   21.0350    8.8130 H   0  0  0  0  0  0  0  0  0  0  0  0
   37.1200   20.5247   10.8477 C   0  0  0  0  0  0  0  0  0  0  0  0
   38.4146   19.8029   11.1501 C   0  0  0  0  0  0  0  0  0  0  0  0
   39.4858   20.3698   10.9482 O   0  0  0  0  0  0  0  0  0  0  0  0
   38.2884   18.5613   11.6532 N   0  0  0  0  0  0  0  0  0  0  0  0
   37.5591   18.4601   12.3067 H   0  0  0  0  0  0  0  0  0  0  0  0
   39.0571   17.3167   11.3948 C   0  0  0  0  0  0  0  0  0  0  0  0
   40.4025   17.1822   12.1375 C   0  0  0  0  0  0  0  0  0  0  0  0
   40.4934   16.3443   13.0427 O   0  0  0  0  0  0  0  0  0  0  0  0
   41.4653   17.9546   11.8180 N   0  0  0  0  0  0  0  0  0  0  0  0
   42.3139   17.8506   12.3062 H   0  0  0  0  0  0  0  0  0  0  0  0
   41.3906   18.6210   11.0972 H   0  0  0  0  0  0  0  0  0  0  0  0
   38.1650   16.0516   11.3788 C   0  0  0  0  0  0  0  0  0  0  0  0
   36.6587   16.3315   11.4745 C   0  0  0  0  0  0  0  0  0  0  0  0
   35.7982   15.1862   10.9433 C   0  0  0  0  0  0  0  0  0  0  0  0
   34.4508   15.2061   11.4895 N   0  0  0  0  0  0  0  0  0  0  0  0
   34.0935   14.3767   11.8816 H   0  0  0  0  0  0  0  0  0  0  0  0
   33.6678   16.2995   11.4864 C   0  0  0  0  0  0  0  0  0  0  0  0
   33.2702   16.8011   12.5778 N   0  0  0  0  0  0  0  0  0  0  0  0
   33.3126   16.8868   10.3332 N   0  0  0  0  0  0  0  0  0  0  0  0
   33.5220   16.3824   13.4325 H   0  0  0  0  0  0  0  0  0  0  0  0
   32.7092   17.6100   12.5723 H   0  0  0  0  0  0  0  0  0  0  0  0
   33.6135   16.5091    9.4753 H   0  0  0  0  0  0  0  0  0  0  0  0
   37.2282   22.0158   11.2213 C   0  0  0  0  0  0  0  0  0  0  0  0
   36.7887   22.3724   12.6456 C   0  0  0  0  0  0  0  0  0  0  0  0
   35.4306   23.1042   12.6978 C   0  0  0  0  0  0  0  0  0  0  0  0
   34.3499   22.4785   11.9371 N   0  0  0  0  0  0  0  0  0  0  0  0
   34.5480   22.1332   11.0367 H   0  0  0  0  0  0  0  0  0  0  0  0
   33.1001   22.3534   12.4101 C   0  0  0  0  0  0  0  0  0  0  0  0
   32.1965   23.3166   12.1791 N   0  0  0  0  0  0  0  0  0  0  0  0
   32.7737   21.3301   13.0907 N   0  0  0  0  0  0  0  0  0  0  0  0
   32.4464   24.1100   11.6525 H   0  0  0  0  0  0  0  0  0  0  0  0
   31.2830   23.2305   12.5361 H   0  0  0  0  0  0  0  0  0  0  0  0
   33.4352   20.6213   13.2619 H   0  0  0  0  0  0  0  0  0  0  0  0
   35.7668   19.5831    7.3982 C   0  0  0  0  0  0  0  0  0  0  0  0
   34.9865   20.8365    6.9946 C   0  0  0  0  0  0  0  0  0  0  0  0
   33.5252   20.5258    6.7101 C   0  0  0  0  0  0  0  0  0  0  0  0
   32.6492   21.7672    6.8994 C   0  0  0  0  0  0  0  0  0  0  0  0
   32.4341   22.1599    8.3572 C   0  0  0  0  0  0  0  0  0  0  0  0
   30.1537   22.8190    9.6449 O   0  0  0  0  0  0  0  0  0  0  0  0
   30.8216   23.7363    9.1561 C   0  0  0  0  0  0  0  0  0  0  0  0
   31.9517   23.5159    8.4676 N   0  0  0  0  0  0  0  0  0  0  0  0
   32.4399   24.2607    8.0480 H   0  0  0  0  0  0  0  0  0  0  0  0
   30.2630   25.9342   11.7484 O   0  0  0  0  0  0  0  0  0  0  0  0
   29.1550   27.7939   10.1867 O   0  0  0  0  0  0  0  0  0  0  0  0
   29.6409   25.5905    8.1721 O   0  0  0  0  0  0  0  0  0  0  0  0
   29.5492   25.4577   10.5746 C   0  0  0  0  0  0  0  0  0  0  0  0
   28.5885   26.5139   10.0691 C   0  0  0  0  0  0  0  0  0  0  0  0
   30.4231   25.1828    9.3207 C   0  0  0  0  0  0  0  0  0  0  0  0
   28.4692   26.3116    8.5822 C   0  0  0  0  0  0  0  0  0  0  0  0
   30.8726   25.2459   12.0576 H   0  0  0  0  0  0  0  0  0  0  0  0
   28.5272   28.4567    9.8590 H   0  0  0  0  0  0  0  0  0  0  0  0
   23.2776   26.2291    7.6866 N   0  0  0  0  0  0  0  0  0  0  0  0
   24.1143   27.2652    7.8361 C   0  0  0  0  0  0  0  0  0  0  0  0
   25.4403   27.1542    8.0628 N   0  0  0  0  0  0  0  0  0  0  0  0
   26.0217   25.9356    8.1375 C   0  0  0  0  0  0  0  0  0  0  0  0
   25.1918   24.7472    7.9748 C   0  0  0  0  0  0  0  0  0  0  0  0
   23.7418   24.9387    7.7344 C   0  0  0  0  0  0  0  0  0  0  0  0
   22.9416   23.8421    7.5812 N   0  0  0  0  0  0  0  0  0  0  0  0
   26.0076   23.6857    8.1213 N   0  0  0  0  0  0  0  0  0  0  0  0
   27.2459   24.1402    8.3497 C   0  0  0  0  0  0  0  0  0  0  0  0
   27.2614   25.4775    8.3596 N   0  0  0  0  0  0  0  0  0  0  0  0
   23.3306   22.9388    7.6251 H   0  0  0  0  0  0  0  0  0  0  0  0
   21.9758   23.9551    7.4269 H   0  0  0  0  0  0  0  0  0  0  0  0
 61 60  2  0  0  0
 60 59  1  0  0  0
 60 63  1  0  0  0
 11 12  2  0  0  0
 10 11  1  0  0  0
 11 13  1  0  0  0
  8 10  1  0  0  0
 16 10  1  0  0  0
 17 16  1  0  0  0
 18 17  1  0  0  0
 19 18  1  0  0  0
 21 19  1  0  0  0
 23 21  2  0  0  0
 21 22  1  0  0  0
  6  8  1  0  0  0
  5  6  1  0  0  0
  6  7  2  0  0  0
  3  5  1  0  0  0
  5 27  1  0  0  0
 27 28  1  0  0  0
 28 29  1  0  0  0
 29 30  1  0  0  0
 30 32  1  0  0  0
 34 32  2  0  0  0
 32 33  1  0  0  0
  1  3  1  0  0  0
  2  1  2  0  0  0
 38  1  1  0  0  0
 39 38  1  0  0  0
 39 40  1  0  0  0
 40 41  1  0  0  0
 41 42  1  0  0  0
 45 42  1  0  0  0
 44 45  1  0  0  0
 43 44  2  0  0  0
 44 52  1  0  0  0
 49 52  1  0  0  0
 52 50  1  0  0  0
 49 53  1  0  0  0
 65 53  1  0  0  0
 53 51  1  0  0  0
 51 48  1  0  0  0
 51 50  1  0  0  0
 50 47  1  0  0  0
 59 65  1  0  0  0
 65 64  1  0  0  0
 58 59  2  0  0  0
 63 64  2  0  0  0
 57 58  1  0  0  0
 56 57  2  0  0  0
 56 61  1  0  0  0
 62 61  1  0  0  0
 62 66  1  0  0  0
 62 67  1  0  0  0
 47 54  1  0  0  0
 48 55  1  0  0  0
 45 46  1  0  0  0
  3  4  1  0  0  0
 30 31  1  0  0  0
 33 35  1  0  0  0
 33 36  1  0  0  0
 34 37  1  0  0  0
  8  9  1  0  0  0
 19 20  1  0  0  0
 22 24  1  0  0  0
 22 25  1  0  0  0
 23 26  1  0  0  0
 13 14  1  0  0  0
 13 15  1  0  0  0
M  END
> <minimizedAffinity>
-9.23374

$$$$
3BWJ_ARX_A_351


 67 69  0  0  0  0  0  0  0  0999 V2000
   35.8330   19.6012    7.7026 C   0  0  0  0  0  0  0  0  0  0  0  0
   36.6110   19.8739    6.7950 O   0  0  0  0  0  0  0  0  0  0  0  0
   36.1487   19.5715    8.9953 N   0  0  0  0  0  0  0  0  0  0  0  0
   35.4411   19.3018    9.6244 H   0  0  0  0  0  0  0  0  0  0  0  0
   37.4531   19.9040    9.5622 C   0  0  0  0  0  0  0  0  0  0  0  0
   37.3821   21.2011   10.3374 C   0  0  0  0  0  0  0  0  0  0  0  0
   38.4201   21.7899   10.6298 O   0  0  0  0  0  0  0  0  0  0  0  0
   36.1448   21.6350   10.6395 N   0  0  0  0  0  0  0  0  0  0  0  0
   35.4835   21.5090    9.9211 H   0  0  0  0  0  0  0  0  0  0  0  0
   35.6021   22.2710   11.8674 C   0  0  0  0  0  0  0  0  0  0  0  0
   34.4334   21.5348   12.5544 C   0  0  0  0  0  0  0  0  0  0  0  0
   33.6275   22.1996   13.2164 O   0  0  0  0  0  0  0  0  0  0  0  0
   34.2807   20.1958   12.4448 N   0  0  0  0  0  0  0  0  0  0  0  0
   33.5268   19.7480   12.8923 H   0  0  0  0  0  0  0  0  0  0  0  0
   34.9236   19.6686   11.9174 H   0  0  0  0  0  0  0  0  0  0  0  0
   36.7099   22.8050   12.8076 C   0  0  0  0  0  0  0  0  0  0  0  0
   37.0223   24.2988   12.6420 C   0  0  0  0  0  0  0  0  0  0  0  0
   35.8935   25.0796   11.9708 C   0  0  0  0  0  0  0  0  0  0  0  0
   34.8270   25.4196   12.8988 N   0  0  0  0  0  0  0  0  0  0  0  0
   35.0440   25.4824   13.8571 H   0  0  0  0  0  0  0  0  0  0  0  0
   33.5593   25.6526   12.5151 C   0  0  0  0  0  0  0  0  0  0  0  0
   32.8663   24.7232   12.0082 N   0  0  0  0  0  0  0  0  0  0  0  0
   33.0029   26.8626   12.6804 N   0  0  0  0  0  0  0  0  0  0  0  0
   33.2595   23.8298   11.8802 H   0  0  0  0  0  0  0  0  0  0  0  0
   31.9340   24.8935   11.7418 H   0  0  0  0  0  0  0  0  0  0  0  0
   33.5284   27.5965   13.0733 H   0  0  0  0  0  0  0  0  0  0  0  0
   37.9108   18.7493   10.4743 C   0  0  0  0  0  0  0  0  0  0  0  0
   37.1264   18.5908   11.7814 C   0  0  0  0  0  0  0  0  0  0  0  0
   37.9782   18.8654   13.0391 C   0  0  0  0  0  0  0  0  0  0  0  0
   37.4319   18.3488   14.2933 N   0  0  0  0  0  0  0  0  0  0  0  0
   37.5307   17.3890   14.4887 H   0  0  0  0  0  0  0  0  0  0  0  0
   36.8018   19.1233   15.1902 C   0  0  0  0  0  0  0  0  0  0  0  0
   35.5636   18.8074   15.5961 N   0  0  0  0  0  0  0  0  0  0  0  0
   37.3699   20.1658   15.6456 N   0  0  0  0  0  0  0  0  0  0  0  0
   35.1213   18.0009   15.2451 H   0  0  0  0  0  0  0  0  0  0  0  0
   35.0967   19.3818   16.2451 H   0  0  0  0  0  0  0  0  0  0  0  0
   38.2790   20.4002   15.3493 H   0  0  0  0  0  0  0  0  0  0  0  0
   34.4103   19.2552    7.3402 C   0  0  0  0  0  0  0  0  0  0  0  0
   33.7951   20.3966    6.5269 C   0  0  0  0  0  0  0  0  0  0  0  0
   33.5525   21.6321    7.3799 C   0  0  0  0  0  0  0  0  0  0  0  0
   32.9368   21.2586    8.7311 C   0  0  0  0  0  0  0  0  0  0  0  0
   31.4263   21.4566    8.8019 C   0  0  0  0  0  0  0  0  0  0  0  0
   30.4349   22.8784   10.8729 O   0  0  0  0  0  0  0  0  0  0  0  0
   30.6208   23.4731    9.8061 C   0  0  0  0  0  0  0  0  0  0  0  0
   31.0773   22.8541    8.7070 N   0  0  0  0  0  0  0  0  0  0  0  0
   31.1720   23.3409    7.8565 H   0  0  0  0  0  0  0  0  0  0  0  0
   30.0875   26.1587   11.8956 O   0  0  0  0  0  0  0  0  0  0  0  0
   29.3216   27.7862    9.9233 O   0  0  0  0  0  0  0  0  0  0  0  0
   29.7339   25.2099    8.3928 O   0  0  0  0  0  0  0  0  0  0  0  0
   29.4273   25.5378   10.7585 C   0  0  0  0  0  0  0  0  0  0  0  0
   28.6320   26.5636    9.9778 C   0  0  0  0  0  0  0  0  0  0  0  0
   30.3685   24.9550    9.6694 C   0  0  0  0  0  0  0  0  0  0  0  0
   28.6167   26.0983    8.5463 C   0  0  0  0  0  0  0  0  0  0  0  0
   30.5911   25.4880   12.3829 H   0  0  0  0  0  0  0  0  0  0  0  0
   28.7987   28.4302    9.4206 H   0  0  0  0  0  0  0  0  0  0  0  0
   23.4339   26.3759    7.6388 N   0  0  0  0  0  0  0  0  0  0  0  0
   24.3471   27.3504    7.7498 C   0  0  0  0  0  0  0  0  0  0  0  0
   25.6608   27.1479    7.9848 N   0  0  0  0  0  0  0  0  0  0  0  0
   26.1476   25.8924    8.1094 C   0  0  0  0  0  0  0  0  0  0  0  0
   25.2296   24.7651    7.9913 C   0  0  0  0  0  0  0  0  0  0  0  0
   23.7984   25.0569    7.7391 C   0  0  0  0  0  0  0  0  0  0  0  0
   22.9169   24.0191    7.6270 N   0  0  0  0  0  0  0  0  0  0  0  0
   25.9621   23.6512    8.1821 N   0  0  0  0  0  0  0  0  0  0  0  0
   27.2314   24.0188    8.3961 C   0  0  0  0  0  0  0  0  0  0  0  0
   27.3489   25.3505    8.3532 N   0  0  0  0  0  0  0  0  0  0  0  0
   23.2360   23.0913    7.7077 H   0  0  0  0  0  0  0  0  0  0  0  0
   21.9626   24.1992    7.4654 H   0  0  0  0  0  0  0  0  0  0  0  0
 61 60  2  0  0  0
 60 59  1  0  0  0
 60 63  1  0  0  0
 11 12  2  0  0  0
 10 11  1  0  0  0
 11 13  1  0  0  0
  8 10  1  0  0  0
 16 10  1  0  0  0
 17 16  1  0  0  0
 18 17  1  0  0  0
 19 18  1  0  0  0
 21 19  1  0  0  0
 23 21  2  0  0  0
 21 22  1  0  0  0
  6  8  1  0  0  0
  5  6  1  0  0  0
  6  7  2  0  0  0
  3  5  1  0  0  0
  5 27  1  0  0  0
 27 28  1  0  0  0
 28 29  1  0  0  0
 29 30  1  0  0  0
 30 32  1  0  0  0
 34 32  2  0  0  0
 32 33  1  0  0  0
  1  3  1  0  0  0
  2  1  2  0  0  0
 38  1  1  0  0  0
 39 38  1  0  0  0
 39 40  1  0  0  0
 40 41  1  0  0  0
 41 42  1  0  0  0
 45 42  1  0  0  0
 44 45  1  0  0  0
 43 44  2  0  0  0
 44 52  1  0  0  0
 49 52  1  0  0  0
 52 50  1  0  0  0
 49 53  1  0  0  0
 65 53  1  0  0  0
 53 51  1  0  0  0
 51 48  1  0  0  0
 51 50  1  0  0  0
 50 47  1  0  0  0
 59 65  1  0  0  0
 65 64  1  0  0  0
 58 59  2  0  0  0
 63 64  2  0  0  0
 57 58  1  0  0  0
 56 57  2  0  0  0
 56 61  1  0  0  0
 62 61  1  0  0  0
 62 66  1  0  0  0
 62 67  1  0  0  0
 47 54  1  0  0  0
 48 55  1  0  0  0
 45 46  1  0  0  0
  3  4  1  0  0  0
 30 31  1  0  0  0
 33 35  1  0  0  0
 33 36  1  0  0  0
 34 37  1  0  0  0
  8  9  1  0  0  0
 19 20  1  0  0  0
 22 24  1  0  0  0
 22 25  1  0  0  0
 23 26  1  0  0  0
 13 14  1  0  0  0
 13 15  1  0  0  0
M  END
> <minimizedAffinity>
-9.17965

$$$$
3BWJ_ARX_A_351


 67 69  0  0  0  0  0  0  0  0999 V2000
   35.1011   21.0610   10.0511 C   0  0  0  0  0  0  0  0  0  0  0  0
   34.1031   20.4203   10.3626 O   0  0  0  0  0  0  0  0  0  0  0  0
   35.6539   22.0198   10.7905 N   0  0  0  0  0  0  0  0  0  0  0  0
   36.4342   22.4856   10.4116 H   0  0  0  0  0  0  0  0  0  0  0  0
   35.2044   22.4414   12.1147 C   0  0  0  0  0  0  0  0  0  0  0  0
   36.0622   21.8163   13.1926 C   0  0  0  0  0  0  0  0  0  0  0  0
   36.6983   22.5390   13.9560 O   0  0  0  0  0  0  0  0  0  0  0  0
   36.0457   20.4719   13.2470 N   0  0  0  0  0  0  0  0  0  0  0  0
   35.1601   20.0700   13.0939 H   0  0  0  0  0  0  0  0  0  0  0  0
   37.1302   19.4881   13.4975 C   0  0  0  0  0  0  0  0  0  0  0  0
   36.9844   18.6244   14.7674 C   0  0  0  0  0  0  0  0  0  0  0  0
   37.7931   17.7067   14.9506 O   0  0  0  0  0  0  0  0  0  0  0  0
   36.0014   18.8529   15.6673 N   0  0  0  0  0  0  0  0  0  0  0  0
   35.9284   18.2883   16.4705 H   0  0  0  0  0  0  0  0  0  0  0  0
   35.3587   19.5839   15.5194 H   0  0  0  0  0  0  0  0  0  0  0  0
   37.5683   18.7372   12.2166 C   0  0  0  0  0  0  0  0  0  0  0  0
   36.4101   18.2094   11.3584 C   0  0  0  0  0  0  0  0  0  0  0  0
   36.3119   16.6848   11.3509 C   0  0  0  0  0  0  0  0  0  0  0  0
   35.1455   16.2012   12.0719 N   0  0  0  0  0  0  0  0  0  0  0  0
   35.2850   15.5812   12.8238 H   0  0  0  0  0  0  0  0  0  0  0  0
   33.8858   16.5575   11.7640 C   0  0  0  0  0  0  0  0  0  0  0  0
   33.5794   16.8468   10.5710 N   0  0  0  0  0  0  0  0  0  0  0  0
   32.9319   16.5930   12.7073 N   0  0  0  0  0  0  0  0  0  0  0  0
   34.2674   16.8256    9.8671 H   0  0  0  0  0  0  0  0  0  0  0  0
   32.6530   17.0931   10.3466 H   0  0  0  0  0  0  0  0  0  0  0  0
   33.1537   16.3707   13.6403 H   0  0  0  0  0  0  0  0  0  0  0  0
   35.2629   23.9792   12.1964 C   0  0  0  0  0  0  0  0  0  0  0  0
   34.1555   24.6382   13.0260 C   0  0  0  0  0  0  0  0  0  0  0  0
   34.0520   26.1617   12.8012 C   0  0  0  0  0  0  0  0  0  0  0  0
   33.0253   26.5886   11.8514 N   0  0  0  0  0  0  0  0  0  0  0  0
   32.0809   26.4233   12.0748 H   0  0  0  0  0  0  0  0  0  0  0  0
   33.3117   27.1954   10.6891 C   0  0  0  0  0  0  0  0  0  0  0  0
   32.8935   28.4498   10.4670 N   0  0  0  0  0  0  0  0  0  0  0  0
   33.9662   26.5785    9.7902 N   0  0  0  0  0  0  0  0  0  0  0  0
   32.3866   28.9298   11.1612 H   0  0  0  0  0  0  0  0  0  0  0  0
   33.0933   28.8908    9.6098 H   0  0  0  0  0  0  0  0  0  0  0  0
   34.2744   25.6573    9.9505 H   0  0  0  0  0  0  0  0  0  0  0  0
   35.7531   20.7618    8.7243 C   0  0  0  0  0  0  0  0  0  0  0  0
   35.1921   19.4547    8.1592 C   0  0  0  0  0  0  0  0  0  0  0  0
   34.4829   19.6709    6.8313 C   0  0  0  0  0  0  0  0  0  0  0  0
   34.0705   21.1351    6.6571 C   0  0  0  0  0  0  0  0  0  0  0  0
   32.5756   21.3844    6.8279 C   0  0  0  0  0  0  0  0  0  0  0  0
   32.8743   24.0021    7.4207 O   0  0  0  0  0  0  0  0  0  0  0  0
   32.4379   23.2599    8.3067 C   0  0  0  0  0  0  0  0  0  0  0  0
   32.2834   21.9394    8.1279 N   0  0  0  0  0  0  0  0  0  0  0  0
   31.9782   21.3629    8.8654 H   0  0  0  0  0  0  0  0  0  0  0  0
   32.1416   22.0698   11.5252 O   0  0  0  0  0  0  0  0  0  0  0  0
   30.7959   24.2045   12.3951 O   0  0  0  0  0  0  0  0  0  0  0  0
   31.0916   24.8878    9.4634 O   0  0  0  0  0  0  0  0  0  0  0  0
   31.3020   22.7508   10.5528 C   0  0  0  0  0  0  0  0  0  0  0  0
   30.2561   23.5960   11.2499 C   0  0  0  0  0  0  0  0  0  0  0  0
   32.0215   23.7942    9.6556 C   0  0  0  0  0  0  0  0  0  0  0  0
   29.9595   24.7548   10.3361 C   0  0  0  0  0  0  0  0  0  0  0  0
   32.8043   21.5343   11.0615 H   0  0  0  0  0  0  0  0  0  0  0  0
   30.1135   24.7409   12.8283 H   0  0  0  0  0  0  0  0  0  0  0  0
   25.3918   26.3483    8.2486 N   0  0  0  0  0  0  0  0  0  0  0  0
   26.3063   27.0290    8.9529 C   0  0  0  0  0  0  0  0  0  0  0  0
   27.4504   26.5014    9.4374 N   0  0  0  0  0  0  0  0  0  0  0  0
   27.7539   25.2030    9.2119 C   0  0  0  0  0  0  0  0  0  0  0  0
   26.8230   24.3844    8.4432 C   0  0  0  0  0  0  0  0  0  0  0  0
   25.5820   25.0237    7.9452 C   0  0  0  0  0  0  0  0  0  0  0  0
   24.6919   24.2786    7.2247 N   0  0  0  0  0  0  0  0  0  0  0  0
   27.3499   23.1459    8.3948 N   0  0  0  0  0  0  0  0  0  0  0  0
   28.5112   23.1608    9.0605 C   0  0  0  0  0  0  0  0  0  0  0  0
   28.7580   24.3815    9.5482 N   0  0  0  0  0  0  0  0  0  0  0  0
   24.8815   23.3309    7.0372 H   0  0  0  0  0  0  0  0  0  0  0  0
   23.8609   24.6893    6.8931 H   0  0  0  0  0  0  0  0  0  0  0  0
 61 60  2  0  0  0
 60 59  1  0  0  0
 60 63  1  0  0  0
 11 12  2  0  0  0
 10 11  1  0  0  0
 11 13  1  0  0  0
  8 10  1  0  0  0
 16 10  1  0  0  0
 17 16  1  0  0  0
 18 17  1  0  0  0
 19 18  1  0  0  0
 21 19  1  0  0  0
 23 21  2  0  0  0
 21 22  1  0  0  0
  6  8  1  0  0  0
  5  6  1  0  0  0
  6  7  2  0  0  0
  3  5  1  0  0  0
  5 27  1  0  0  0
 27 28  1  0  0  0
 28 29  1  0  0  0
 29 30  1  0  0  0
 30 32  1  0  0  0
 34 32  2  0  0  0
 32 33  1  0  0  0
  1  3  1  0  0  0
  2  1  2  0  0  0
 38  1  1  0  0  0
 39 38  1  0  0  0
 39 40  1  0  0  0
 40 41  1  0  0  0
 41 42  1  0  0  0
 45 42  1  0  0  0
 44 45  1  0  0  0
 43 44  2  0  0  0
 44 52  1  0  0  0
 49 52  1  0  0  0
 52 50  1  0  0  0
 49 53  1  0  0  0
 65 53  1  0  0  0
 53 51  1  0  0  0
 51 48  1  0  0  0
 51 50  1  0  0  0
 50 47  1  0  0  0
 59 65  1  0  0  0
 65 64  1  0  0  0
 58 59  2  0  0  0
 63 64  2  0  0  0
 57 58  1  0  0  0
 56 57  2  0  0  0
 56 61  1  0  0  0
 62 61  1  0  0  0
 62 66  1  0  0  0
 62 67  1  0  0  0
 47 54  1  0  0  0
 48 55  1  0  0  0
 45 46  1  0  0  0
  3  4  1  0  0  0
 30 31  1  0  0  0
 33 35  1  0  0  0
 33 36  1  0  0  0
 34 37  1  0  0  0
  8  9  1  0  0  0
 19 20  1  0  0  0
 22 24  1  0  0  0
 22 25  1  0  0  0
 23 26  1  0  0  0
 13 14  1  0  0  0
 13 15  1  0  0  0
M  END
> <minimizedAffinity>
-9.10339

$$$$
3BWJ_ARX_A_351


 67 69  0  0  0  0  0  0  0  0999 V2000
   36.5251   19.5829    8.2683 C   0  0  0  0  0  0  0  0  0  0  0  0
   37.7466   19.5924    8.3752 O   0  0  0  0  0  0  0  0  0  0  0  0
   35.6714   19.4504    9.2808 N   0  0  0  0  0  0  0  0  0  0  0  0
   34.7126   19.4216    9.0591 H   0  0  0  0  0  0  0  0  0  0  0  0
   36.0326   19.3439   10.6921 C   0  0  0  0  0  0  0  0  0  0  0  0
   35.4818   20.5167   11.4730 C   0  0  0  0  0  0  0  0  0  0  0  0
   34.3529   20.9333   11.2249 O   0  0  0  0  0  0  0  0  0  0  0  0
   36.2904   21.0169   12.4251 N   0  0  0  0  0  0  0  0  0  0  0  0
   36.7871   20.3366   12.9348 H   0  0  0  0  0  0  0  0  0  0  0  0
   36.5645   22.4161   12.8418 C   0  0  0  0  0  0  0  0  0  0  0  0
   37.7881   22.6253   13.7577 C   0  0  0  0  0  0  0  0  0  0  0  0
   38.4911   23.6274   13.5804 O   0  0  0  0  0  0  0  0  0  0  0  0
   38.0974   21.7432   14.7347 N   0  0  0  0  0  0  0  0  0  0  0  0
   38.8835   21.8979   15.3069 H   0  0  0  0  0  0  0  0  0  0  0  0
   37.5365   20.9461   14.8739 H   0  0  0  0  0  0  0  0  0  0  0  0
   36.4073   23.4302   11.6827 C   0  0  0  0  0  0  0  0  0  0  0  0
   35.4206   24.5722   11.9633 C   0  0  0  0  0  0  0  0  0  0  0  0
   34.9360   24.6076   13.4118 C   0  0  0  0  0  0  0  0  0  0  0  0
   33.5102   24.3462   13.5256 N   0  0  0  0  0  0  0  0  0  0  0  0
   32.9484   25.0119   13.9843 H   0  0  0  0  0  0  0  0  0  0  0  0
   32.9197   23.2414   13.0362 C   0  0  0  0  0  0  0  0  0  0  0  0
   32.1178   23.3268   12.0613 N   0  0  0  0  0  0  0  0  0  0  0  0
   33.1840   22.0332   13.5569 N   0  0  0  0  0  0  0  0  0  0  0  0
   31.9131   24.2057   11.6677 H   0  0  0  0  0  0  0  0  0  0  0  0
   31.6985   22.5143   11.6962 H   0  0  0  0  0  0  0  0  0  0  0  0
   33.8057   21.9494   14.3157 H   0  0  0  0  0  0  0  0  0  0  0  0
   35.4864   18.0148   11.2490 C   0  0  0  0  0  0  0  0  0  0  0  0
   36.5463   16.9899   11.6674 C   0  0  0  0  0  0  0  0  0  0  0  0
   37.4166   17.4635   12.8509 C   0  0  0  0  0  0  0  0  0  0  0  0
   38.8542   17.5224   12.5899 N   0  0  0  0  0  0  0  0  0  0  0  0
   39.4731   17.2514   13.3060 H   0  0  0  0  0  0  0  0  0  0  0  0
   39.3686   17.9289   11.4188 C   0  0  0  0  0  0  0  0  0  0  0  0
   39.3588   19.2308   11.0984 N   0  0  0  0  0  0  0  0  0  0  0  0
   39.8522   17.0807   10.6042 N   0  0  0  0  0  0  0  0  0  0  0  0
   38.9850   19.8897   11.7271 H   0  0  0  0  0  0  0  0  0  0  0  0
   39.7254   19.5278   10.2343 H   0  0  0  0  0  0  0  0  0  0  0  0
   39.8607   16.1241   10.8370 H   0  0  0  0  0  0  0  0  0  0  0  0
   35.9307   19.7143    6.8883 C   0  0  0  0  0  0  0  0  0  0  0  0
   34.4272   19.9784    6.9993 C   0  0  0  0  0  0  0  0  0  0  0  0
   34.0859   21.4328    6.7147 C   0  0  0  0  0  0  0  0  0  0  0  0
   32.6059   21.7164    6.9857 C   0  0  0  0  0  0  0  0  0  0  0  0
   32.2995   22.0919    8.4317 C   0  0  0  0  0  0  0  0  0  0  0  0
   30.0728   22.8039    9.7837 O   0  0  0  0  0  0  0  0  0  0  0  0
   30.7335   23.7031    9.2533 C   0  0  0  0  0  0  0  0  0  0  0  0
   31.8364   23.4555    8.5308 N   0  0  0  0  0  0  0  0  0  0  0  0
   32.3181   24.1858    8.0793 H   0  0  0  0  0  0  0  0  0  0  0  0
   30.1639   25.9263   11.8215 O   0  0  0  0  0  0  0  0  0  0  0  0
   29.1185   27.7953   10.2280 O   0  0  0  0  0  0  0  0  0  0  0  0
   29.6043   25.5714    8.2360 O   0  0  0  0  0  0  0  0  0  0  0  0
   29.4644   25.4550   10.6370 C   0  0  0  0  0  0  0  0  0  0  0  0
   28.5321   26.5246   10.1070 C   0  0  0  0  0  0  0  0  0  0  0  0
   30.3573   25.1573    9.4018 C   0  0  0  0  0  0  0  0  0  0  0  0
   28.4378   26.3152    8.6193 C   0  0  0  0  0  0  0  0  0  0  0  0
   30.7553   25.2295   12.1464 H   0  0  0  0  0  0  0  0  0  0  0  0
   28.5088   28.4669    9.8844 H   0  0  0  0  0  0  0  0  0  0  0  0
   23.2498   26.3157    7.6993 N   0  0  0  0  0  0  0  0  0  0  0  0
   24.0994   27.3381    7.8686 C   0  0  0  0  0  0  0  0  0  0  0  0
   25.4228   27.2060    8.0995 N   0  0  0  0  0  0  0  0  0  0  0  0
   25.9876   25.9787    8.1579 C   0  0  0  0  0  0  0  0  0  0  0  0
   25.1428   24.8041    7.9730 C   0  0  0  0  0  0  0  0  0  0  0  0
   23.6967   25.0187    7.7291 C   0  0  0  0  0  0  0  0  0  0  0  0
   22.8827   23.9352    7.5553 N   0  0  0  0  0  0  0  0  0  0  0  0
   25.9438   23.7297    8.1066 N   0  0  0  0  0  0  0  0  0  0  0  0
   27.1869   24.1641    8.3476 C   0  0  0  0  0  0  0  0  0  0  0  0
   27.2201   25.5008    8.3784 N   0  0  0  0  0  0  0  0  0  0  0  0
   23.2596   23.0263    7.5869 H   0  0  0  0  0  0  0  0  0  0  0  0
   21.9193   24.0635    7.3985 H   0  0  0  0  0  0  0  0  0  0  0  0
 61 60  2  0  0  0
 60 59  1  0  0  0
 60 63  1  0  0  0
 11 12  2  0  0  0
 10 11  1  0  0  0
 11 13  1  0  0  0
  8 10  1  0  0  0
 16 10  1  0  0  0
 17 16  1  0  0  0
 18 17  1  0  0  0
 19 18  1  0  0  0
 21 19  1  0  0  0
 23 21  2  0  0  0
 21 22  1  0  0  0
  6  8  1  0  0  0
  5  6  1  0  0  0
  6  7  2  0  0  0
  3  5  1  0  0  0
  5 27  1  0  0  0
 27 28  1  0  0  0
 28 29  1  0  0  0
 29 30  1  0  0  0
 30 32  1  0  0  0
 34 32  2  0  0  0
 32 33  1  0  0  0
  1  3  1  0  0  0
  2  1  2  0  0  0
 38  1  1  0  0  0
 39 38  1  0  0  0
 39 40  1  0  0  0
 40 41  1  0  0  0
 41 42  1  0  0  0
 45 42  1  0  0  0
 44 45  1  0  0  0
 43 44  2  0  0  0
 44 52  1  0  0  0
 49 52  1  0  0  0
 52 50  1  0  0  0
 49 53  1  0  0  0
 65 53  1  0  0  0
 53 51  1  0  0  0
 51 48  1  0  0  0
 51 50  1  0  0  0
 50 47  1  0  0  0
 59 65  1  0  0  0
 65 64  1  0  0  0
 58 59  2  0  0  0
 63 64  2  0  0  0
 57 58  1  0  0  0
 56 57  2  0  0  0
 56 61  1  0  0  0
 62 61  1  0  0  0
 62 66  1  0  0  0
 62 67  1  0  0  0
 47 54  1  0  0  0
 48 55  1  0  0  0
 45 46  1  0  0  0
  3  4  1  0  0  0
 30 31  1  0  0  0
 33 35  1  0  0  0
 33 36  1  0  0  0
 34 37  1  0  0  0
  8  9  1  0  0  0
 19 20  1  0  0  0
 22 24  1  0  0  0
 22 25  1  0  0  0
 23 26  1  0  0  0
 13 14  1  0  0  0
 13 15  1  0  0  0
M  END
> <minimizedAffinity>
-8.85656

$$$$
3BWJ_ARX_A_351


 67 69  0  0  0  0  0  0  0  0999 V2000
   36.8530   20.1246    9.5229 C   0  0  0  0  0  0  0  0  0  0  0  0
   38.0655   19.9426    9.5392 O   0  0  0  0  0  0  0  0  0  0  0  0
   36.1136   20.4354   10.5850 N   0  0  0  0  0  0  0  0  0  0  0  0
   35.1424   20.5199   10.4471 H   0  0  0  0  0  0  0  0  0  0  0  0
   36.6168   20.6621   11.9373 C   0  0  0  0  0  0  0  0  0  0  0  0
   36.9841   22.1166   12.1323 C   0  0  0  0  0  0  0  0  0  0  0  0
   37.9963   22.4063   12.7657 O   0  0  0  0  0  0  0  0  0  0  0  0
   36.1570   23.0105   11.5602 N   0  0  0  0  0  0  0  0  0  0  0  0
   35.8306   22.7494   10.6688 H   0  0  0  0  0  0  0  0  0  0  0  0
   35.6502   24.3224   12.0384 C   0  0  0  0  0  0  0  0  0  0  0  0
   34.9620   24.3230   13.4191 C   0  0  0  0  0  0  0  0  0  0  0  0
   34.0398   23.5229   13.6169 O   0  0  0  0  0  0  0  0  0  0  0  0
   35.3465   25.1717   14.3990 N   0  0  0  0  0  0  0  0  0  0  0  0
   34.8923   25.1535   15.2722 H   0  0  0  0  0  0  0  0  0  0  0  0
   36.0808   25.8078   14.2392 H   0  0  0  0  0  0  0  0  0  0  0  0
   36.6429   25.4814   11.7781 C   0  0  0  0  0  0  0  0  0  0  0  0
   35.9848   26.8039   11.3604 C   0  0  0  0  0  0  0  0  0  0  0  0
   36.3521   27.9738   12.2719 C   0  0  0  0  0  0  0  0  0  0  0  0
   35.4697   29.1152   12.0910 N   0  0  0  0  0  0  0  0  0  0  0  0
   35.8664   29.9734   11.8164 H   0  0  0  0  0  0  0  0  0  0  0  0
   34.1394   29.0586   12.2797 C   0  0  0  0  0  0  0  0  0  0  0  0
   33.6397   29.3876   13.3946 N   0  0  0  0  0  0  0  0  0  0  0  0
   33.3207   28.6736   11.2885 N   0  0  0  0  0  0  0  0  0  0  0  0
   34.2264   29.6724   14.1321 H   0  0  0  0  0  0  0  0  0  0  0  0
   32.6643   29.3589   13.5246 H   0  0  0  0  0  0  0  0  0  0  0  0
   33.6934   28.4144   10.4149 H   0  0  0  0  0  0  0  0  0  0  0  0
   35.5380   20.2328   12.9506 C   0  0  0  0  0  0  0  0  0  0  0  0
   35.6743   18.8065   13.4945 C   0  0  0  0  0  0  0  0  0  0  0  0
   35.9816   17.7643   12.3982 C   0  0  0  0  0  0  0  0  0  0  0  0
   34.8462   17.3795   11.5608 N   0  0  0  0  0  0  0  0  0  0  0  0
   34.6565   17.9106   10.7538 H   0  0  0  0  0  0  0  0  0  0  0  0
   34.0510   16.3355   11.8419 C   0  0  0  0  0  0  0  0  0  0  0  0
   34.3147   15.1311   11.3151 N   0  0  0  0  0  0  0  0  0  0  0  0
   33.0380   16.4883   12.5952 N   0  0  0  0  0  0  0  0  0  0  0  0
   35.0983   15.0100   10.7315 H   0  0  0  0  0  0  0  0  0  0  0  0
   33.7248   14.3679   11.5118 H   0  0  0  0  0  0  0  0  0  0  0  0
   32.8420   17.3715   12.9834 H   0  0  0  0  0  0  0  0  0  0  0  0
   36.1284   19.9723    8.2088 C   0  0  0  0  0  0  0  0  0  0  0  0
   34.8909   19.0929    8.4032 C   0  0  0  0  0  0  0  0  0  0  0  0
   33.9401   19.1849    7.2198 C   0  0  0  0  0  0  0  0  0  0  0  0
   34.2048   20.4475    6.3951 C   0  0  0  0  0  0  0  0  0  0  0  0
   33.0812   21.4769    6.4565 C   0  0  0  0  0  0  0  0  0  0  0  0
   33.1961   24.1060    7.0626 O   0  0  0  0  0  0  0  0  0  0  0  0
   32.9586   23.3157    7.9820 C   0  0  0  0  0  0  0  0  0  0  0  0
   32.9130   21.9880    7.7960 N   0  0  0  0  0  0  0  0  0  0  0  0
   32.7685   21.3771    8.5544 H   0  0  0  0  0  0  0  0  0  0  0  0
   33.0966   22.0301   11.1744 O   0  0  0  0  0  0  0  0  0  0  0  0
   31.7597   24.0697   12.2596 O   0  0  0  0  0  0  0  0  0  0  0  0
   31.6790   24.8420    9.3361 O   0  0  0  0  0  0  0  0  0  0  0  0
   32.1176   22.6915   10.3267 C   0  0  0  0  0  0  0  0  0  0  0  0
   31.1204   23.4635   11.1655 C   0  0  0  0  0  0  0  0  0  0  0  0
   32.6766   23.7933    9.3858 C   0  0  0  0  0  0  0  0  0  0  0  0
   30.6639   24.6285   10.3286 C   0  0  0  0  0  0  0  0  0  0  0  0
   33.7259   21.5416   10.6210 H   0  0  0  0  0  0  0  0  0  0  0  0
   31.1073   24.5590   12.7849 H   0  0  0  0  0  0  0  0  0  0  0  0
   25.9506   26.1242    8.5095 N   0  0  0  0  0  0  0  0  0  0  0  0
   26.9255   26.8430    9.0827 C   0  0  0  0  0  0  0  0  0  0  0  0
   28.1019   26.3373    9.5099 N   0  0  0  0  0  0  0  0  0  0  0  0
   28.3759   25.0217    9.3590 C   0  0  0  0  0  0  0  0  0  0  0  0
   27.3783   24.1609    8.7336 C   0  0  0  0  0  0  0  0  0  0  0  0
   26.1050   24.7781    8.2925 C   0  0  0  0  0  0  0  0  0  0  0  0
   25.1526   23.9935    7.7061 N   0  0  0  0  0  0  0  0  0  0  0  0
   27.8900   22.9150    8.7357 N   0  0  0  0  0  0  0  0  0  0  0  0
   29.1027   22.9637    9.3005 C   0  0  0  0  0  0  0  0  0  0  0  0
   29.3983   24.2139    9.6727 N   0  0  0  0  0  0  0  0  0  0  0  0
   25.3188   23.0320    7.5757 H   0  0  0  0  0  0  0  0  0  0  0  0
   24.3000   24.3897    7.4139 H   0  0  0  0  0  0  0  0  0  0  0  0
 61 60  2  0  0  0
 60 59  1  0  0  0
 60 63  1  0  0  0
 11 12  2  0  0  0
 10 11  1  0  0  0
 11 13  1  0  0  0
  8 10  1  0  0  0
 16 10  1  0  0  0
 17 16  1  0  0  0
 18 17  1  0  0  0
 19 18  1  0  0  0
 21 19  1  0  0  0
 23 21  2  0  0  0
 21 22  1  0  0  0
  6  8  1  0  0  0
  5  6  1  0  0  0
  6  7  2  0  0  0
  3  5  1  0  0  0
  5 27  1  0  0  0
 27 28  1  0  0  0
 28 29  1  0  0  0
 29 30  1  0  0  0
 30 32  1  0  0  0
 34 32  2  0  0  0
 32 33  1  0  0  0
  1  3  1  0  0  0
  2  1  2  0  0  0
 38  1  1  0  0  0
 39 38  1  0  0  0
 39 40  1  0  0  0
 40 41  1  0  0  0
 41 42  1  0  0  0
 45 42  1  0  0  0
 44 45  1  0  0  0
 43 44  2  0  0  0
 44 52  1  0  0  0
 49 52  1  0  0  0
 52 50  1  0  0  0
 49 53  1  0  0  0
 65 53  1  0  0  0
 53 51  1  0  0  0
 51 48  1  0  0  0
 51 50  1  0  0  0
 50 47  1  0  0  0
 59 65  1  0  0  0
 65 64  1  0  0  0
 58 59  2  0  0  0
 63 64  2  0  0  0
 57 58  1  0  0  0
 56 57  2  0  0  0
 56 61  1  0  0  0
 62 61  1  0  0  0
 62 66  1  0  0  0
 62 67  1  0  0  0
 47 54  1  0  0  0
 48 55  1  0  0  0
 45 46  1  0  0  0
  3  4  1  0  0  0
 30 31  1  0  0  0
 33 35  1  0  0  0
 33 36  1  0  0  0
 34 37  1  0  0  0
  8  9  1  0  0  0
 19 20  1  0  0  0
 22 24  1  0  0  0
 22 25  1  0  0  0
 23 26  1  0  0  0
 13 14  1  0  0  0
 13 15  1  0  0  0
M  END
> <minimizedAffinity>
-8.83606

$$$$
3BWJ_ARX_A_351


 67 69  0  0  0  0  0  0  0  0999 V2000
   35.4612   19.5355    8.6930 C   0  0  0  0  0  0  0  0  0  0  0  0
   36.6456   19.3736    8.4204 O   0  0  0  0  0  0  0  0  0  0  0  0
   35.0012   19.9933    9.8551 N   0  0  0  0  0  0  0  0  0  0  0  0
   34.0239   20.0436    9.9629 H   0  0  0  0  0  0  0  0  0  0  0  0
   35.8195   20.4274   10.9844 C   0  0  0  0  0  0  0  0  0  0  0  0
   35.7954   21.9347   11.1115 C   0  0  0  0  0  0  0  0  0  0  0  0
   36.0940   22.6293   10.1431 O   0  0  0  0  0  0  0  0  0  0  0  0
   35.4161   22.4145   12.3100 N   0  0  0  0  0  0  0  0  0  0  0  0
   34.6749   21.9205   12.7293 H   0  0  0  0  0  0  0  0  0  0  0  0
   35.9202   23.5594   13.1111 C   0  0  0  0  0  0  0  0  0  0  0  0
   37.4461   23.6157   13.3309 C   0  0  0  0  0  0  0  0  0  0  0  0
   38.1254   24.3097   12.5649 O   0  0  0  0  0  0  0  0  0  0  0  0
   38.0408   22.9284   14.3320 N   0  0  0  0  0  0  0  0  0  0  0  0
   39.0165   22.9799   14.4526 H   0  0  0  0  0  0  0  0  0  0  0  0
   37.4981   22.3766   14.9404 H   0  0  0  0  0  0  0  0  0  0  0  0
   35.2418   24.8997   12.7372 C   0  0  0  0  0  0  0  0  0  0  0  0
   35.2788   25.9642   13.8427 C   0  0  0  0  0  0  0  0  0  0  0  0
   35.7522   27.3300   13.3483 C   0  0  0  0  0  0  0  0  0  0  0  0
   35.2078   27.6658   12.0425 N   0  0  0  0  0  0  0  0  0  0  0  0
   35.7625   27.4951   11.2472 H   0  0  0  0  0  0  0  0  0  0  0  0
   33.9853   28.1975   11.8655 C   0  0  0  0  0  0  0  0  0  0  0  0
   33.6452   29.2375   12.5009 N   0  0  0  0  0  0  0  0  0  0  0  0
   33.1163   27.6499   11.0020 N   0  0  0  0  0  0  0  0  0  0  0  0
   34.2710   29.6517   13.1382 H   0  0  0  0  0  0  0  0  0  0  0  0
   32.7548   29.6325   12.3581 H   0  0  0  0  0  0  0  0  0  0  0  0
   33.3653   26.8406   10.4997 H   0  0  0  0  0  0  0  0  0  0  0  0
   35.2888   19.7644   12.2703 C   0  0  0  0  0  0  0  0  0  0  0  0
   35.5839   18.2670   12.4105 C   0  0  0  0  0  0  0  0  0  0  0  0
   34.4880   17.5006   13.1811 C   0  0  0  0  0  0  0  0  0  0  0  0
   33.4699   16.8570   12.3520 N   0  0  0  0  0  0  0  0  0  0  0  0
   32.5354   16.8693   12.6615 H   0  0  0  0  0  0  0  0  0  0  0  0
   33.7511   16.2502   11.1883 C   0  0  0  0  0  0  0  0  0  0  0  0
   33.2864   16.7586   10.0379 N   0  0  0  0  0  0  0  0  0  0  0  0
   34.4450   15.1848   11.1743 N   0  0  0  0  0  0  0  0  0  0  0  0
   32.7488   17.5833   10.0458 H   0  0  0  0  0  0  0  0  0  0  0  0
   33.4827   16.3071    9.1854 H   0  0  0  0  0  0  0  0  0  0  0  0
   34.7875   14.8093   12.0174 H   0  0  0  0  0  0  0  0  0  0  0  0
   34.4351   19.1778    7.6470 C   0  0  0  0  0  0  0  0  0  0  0  0
   34.6223   20.0697    6.4172 C   0  0  0  0  0  0  0  0  0  0  0  0
   33.2930   20.5706    5.8743 C   0  0  0  0  0  0  0  0  0  0  0  0
   32.9593   21.9598    6.4250 C   0  0  0  0  0  0  0  0  0  0  0  0
   34.0651   22.5723    7.2781 C   0  0  0  0  0  0  0  0  0  0  0  0
   32.7056   21.9157    9.5171 O   0  0  0  0  0  0  0  0  0  0  0  0
   32.9009   23.1154    9.2963 C   0  0  0  0  0  0  0  0  0  0  0  0
   33.5348   23.5510    8.1972 N   0  0  0  0  0  0  0  0  0  0  0  0
   33.6360   24.5144    8.0218 H   0  0  0  0  0  0  0  0  0  0  0  0
   32.3786   23.4011   12.6887 O   0  0  0  0  0  0  0  0  0  0  0  0
   31.1355   25.7552   12.4930 O   0  0  0  0  0  0  0  0  0  0  0  0
   31.6110   25.1305    9.5718 O   0  0  0  0  0  0  0  0  0  0  0  0
   31.6311   23.6429   11.4651 C   0  0  0  0  0  0  0  0  0  0  0  0
   30.6111   24.7434   11.6716 C   0  0  0  0  0  0  0  0  0  0  0  0
   32.4578   24.1832   10.2668 C   0  0  0  0  0  0  0  0  0  0  0  0
   30.4333   25.4215   10.3395 C   0  0  0  0  0  0  0  0  0  0  0  0
   33.0259   22.6946   12.5379 H   0  0  0  0  0  0  0  0  0  0  0  0
   30.4700   26.4504   12.6144 H   0  0  0  0  0  0  0  0  0  0  0  0
   25.6024   26.1511    8.3668 N   0  0  0  0  0  0  0  0  0  0  0  0
   26.4610   27.0298    8.9020 C   0  0  0  0  0  0  0  0  0  0  0  0
   27.6850   26.7151    9.3765 N   0  0  0  0  0  0  0  0  0  0  0  0
   28.1342   25.4409    9.3180 C   0  0  0  0  0  0  0  0  0  0  0  0
   27.2730   24.4154    8.7400 C   0  0  0  0  0  0  0  0  0  0  0  0
   25.9386   24.8266    8.2429 C   0  0  0  0  0  0  0  0  0  0  0  0
   25.1113   23.8851    7.6993 N   0  0  0  0  0  0  0  0  0  0  0  0
   27.9454   23.2521    8.8324 N   0  0  0  0  0  0  0  0  0  0  0  0
   29.1288   23.4993    9.4073 C   0  0  0  0  0  0  0  0  0  0  0  0
   29.2479   24.7994    9.6978 N   0  0  0  0  0  0  0  0  0  0  0  0
   25.4064   22.9480    7.6361 H   0  0  0  0  0  0  0  0  0  0  0  0
   24.2200   24.1437    7.3708 H   0  0  0  0  0  0  0  0  0  0  0  0
 61 60  2  0  0  0
 60 59  1  0  0  0
 60 63  1  0  0  0
 11 12  2  0  0  0
 10 11  1  0  0  0
 11 13  1  0  0  0
  8 10  1  0  0  0
 16 10  1  0  0  0
 17 16  1  0  0  0
 18 17  1  0  0  0
 19 18  1  0  0  0
 21 19  1  0  0  0
 23 21  2  0  0  0
 21 22  1  0  0  0
  6  8  1  0  0  0
  5  6  1  0  0  0
  6  7  2  0  0  0
  3  5  1  0  0  0
  5 27  1  0  0  0
 27 28  1  0  0  0
 28 29  1  0  0  0
 29 30  1  0  0  0
 30 32  1  0  0  0
 34 32  2  0  0  0
 32 33  1  0  0  0
  1  3  1  0  0  0
  2  1  2  0  0  0
 38  1  1  0  0  0
 39 38  1  0  0  0
 39 40  1  0  0  0
 40 41  1  0  0  0
 41 42  1  0  0  0
 45 42  1  0  0  0
 44 45  1  0  0  0
 43 44  2  0  0  0
 44 52  1  0  0  0
 49 52  1  0  0  0
 52 50  1  0  0  0
 49 53  1  0  0  0
 65 53  1  0  0  0
 53 51  1  0  0  0
 51 48  1  0  0  0
 51 50  1  0  0  0
 50 47  1  0  0  0
 59 65  1  0  0  0
 65 64  1  0  0  0
 58 59  2  0  0  0
 63 64  2  0  0  0
 57 58  1  0  0  0
 56 57  2  0  0  0
 56 61  1  0  0  0
 62 61  1  0  0  0
 62 66  1  0  0  0
 62 67  1  0  0  0
 47 54  1  0  0  0
 48 55  1  0  0  0
 45 46  1  0  0  0
  3  4  1  0  0  0
 30 31  1  0  0  0
 33 35  1  0  0  0
 33 36  1  0  0  0
 34 37  1  0  0  0
  8  9  1  0  0  0
 19 20  1  0  0  0
 22 24  1  0  0  0
 22 25  1  0  0  0
 23 26  1  0  0  0
 13 14  1  0  0  0
 13 15  1  0  0  0
M  END
> <minimizedAffinity>
-8.82781

$$$$
3BWJ_ARX_A_351


 67 69  0  0  0  0  0  0  0  0999 V2000
   37.0338   19.4580    9.3664 C   0  0  0  0  0  0  0  0  0  0  0  0
   38.1692   19.5730    8.9180 O   0  0  0  0  0  0  0  0  0  0  0  0
   36.6918   18.6744   10.3865 N   0  0  0  0  0  0  0  0  0  0  0  0
   35.7380   18.6426   10.6283 H   0  0  0  0  0  0  0  0  0  0  0  0
   37.6077   17.8577   11.1786 C   0  0  0  0  0  0  0  0  0  0  0  0
   38.2747   18.6919   12.2499 C   0  0  0  0  0  0  0  0  0  0  0  0
   37.9316   18.5595   13.4222 O   0  0  0  0  0  0  0  0  0  0  0  0
   39.2393   19.5280   11.8242 N   0  0  0  0  0  0  0  0  0  0  0  0
   39.8219   19.1534   11.1245 H   0  0  0  0  0  0  0  0  0  0  0  0
   39.5788   20.9173   12.2255 C   0  0  0  0  0  0  0  0  0  0  0  0
   40.6752   21.0657   13.3005 C   0  0  0  0  0  0  0  0  0  0  0  0
   41.2587   20.0471   13.6899 O   0  0  0  0  0  0  0  0  0  0  0  0
   41.0012   22.2733   13.8141 N   0  0  0  0  0  0  0  0  0  0  0  0
   41.7045   22.3431   14.4995 H   0  0  0  0  0  0  0  0  0  0  0  0
   40.5353   23.0827   13.5027 H   0  0  0  0  0  0  0  0  0  0  0  0
   39.6795   21.8836   11.0202 C   0  0  0  0  0  0  0  0  0  0  0  0
   38.6102   22.9846   10.9936 C   0  0  0  0  0  0  0  0  0  0  0  0
   37.1968   22.4578   11.2367 C   0  0  0  0  0  0  0  0  0  0  0  0
   36.1738   23.3858   10.7825 N   0  0  0  0  0  0  0  0  0  0  0  0
   36.0118   23.4653    9.8147 H   0  0  0  0  0  0  0  0  0  0  0  0
   35.4377   24.1412   11.6168 C   0  0  0  0  0  0  0  0  0  0  0  0
   34.9732   23.6439   12.6835 N   0  0  0  0  0  0  0  0  0  0  0  0
   35.2007   25.4338   11.3449 N   0  0  0  0  0  0  0  0  0  0  0  0
   35.1379   22.6973   12.8979 H   0  0  0  0  0  0  0  0  0  0  0  0
   34.4469   24.2037   13.2992 H   0  0  0  0  0  0  0  0  0  0  0  0
   35.5550   25.8361   10.5191 H   0  0  0  0  0  0  0  0  0  0  0  0
   36.8209   16.6917   11.8081 C   0  0  0  0  0  0  0  0  0  0  0  0
   35.3399   16.6111   11.4220 C   0  0  0  0  0  0  0  0  0  0  0  0
   34.3889   16.9989   12.5742 C   0  0  0  0  0  0  0  0  0  0  0  0
   34.0516   18.4192   12.6599 N   0  0  0  0  0  0  0  0  0  0  0  0
   33.2411   18.7380   12.2009 H   0  0  0  0  0  0  0  0  0  0  0  0
   34.7965   19.3080   13.3355 C   0  0  0  0  0  0  0  0  0  0  0  0
   35.1702   19.0482   14.5967 N   0  0  0  0  0  0  0  0  0  0  0  0
   35.1367   20.4042   12.7881 N   0  0  0  0  0  0  0  0  0  0  0  0
   34.9082   18.2003   15.0230 H   0  0  0  0  0  0  0  0  0  0  0  0
   35.7066   19.7053   15.0964 H   0  0  0  0  0  0  0  0  0  0  0  0
   34.8637   20.5976   11.8622 H   0  0  0  0  0  0  0  0  0  0  0  0
   35.9271   20.2463    8.7114 C   0  0  0  0  0  0  0  0  0  0  0  0
   35.5644   19.6055    7.3695 C   0  0  0  0  0  0  0  0  0  0  0  0
   34.0593   19.5452    7.1601 C   0  0  0  0  0  0  0  0  0  0  0  0
   33.6561   20.2241    5.8483 C   0  0  0  0  0  0  0  0  0  0  0  0
   32.9132   21.5430    6.0336 C   0  0  0  0  0  0  0  0  0  0  0  0
   33.3449   24.0509    6.9374 O   0  0  0  0  0  0  0  0  0  0  0  0
   33.0357   23.1883    7.7661 C   0  0  0  0  0  0  0  0  0  0  0  0
   32.8326   21.9060    7.4284 N   0  0  0  0  0  0  0  0  0  0  0  0
   32.6335   21.2291    8.1150 H   0  0  0  0  0  0  0  0  0  0  0  0
   33.3164   21.5792   10.7984 O   0  0  0  0  0  0  0  0  0  0  0  0
   32.0836   23.5175   12.1580 O   0  0  0  0  0  0  0  0  0  0  0  0
   31.8636   24.5875    9.3373 O   0  0  0  0  0  0  0  0  0  0  0  0
   32.3080   22.3398   10.0780 C   0  0  0  0  0  0  0  0  0  0  0  0
   31.3738   23.0373   11.0449 C   0  0  0  0  0  0  0  0  0  0  0  0
   32.8396   23.5234    9.2247 C   0  0  0  0  0  0  0  0  0  0  0  0
   30.8985   24.2893   10.3575 C   0  0  0  0  0  0  0  0  0  0  0  0
   33.9045   21.1402   10.1642 H   0  0  0  0  0  0  0  0  0  0  0  0
   31.4709   23.9605   12.7657 H   0  0  0  0  0  0  0  0  0  0  0  0
   26.2466   26.1076    8.6797 N   0  0  0  0  0  0  0  0  0  0  0  0
   27.2820   26.7557    9.2309 C   0  0  0  0  0  0  0  0  0  0  0  0
   28.4336   26.1700    9.6219 N   0  0  0  0  0  0  0  0  0  0  0  0
   28.6161   24.8406    9.4542 C   0  0  0  0  0  0  0  0  0  0  0  0
   27.5473   24.0528    8.8505 C   0  0  0  0  0  0  0  0  0  0  0  0
   26.3060   24.7563    8.4490 C   0  0  0  0  0  0  0  0  0  0  0  0
   25.2884   24.0413    7.8836 N   0  0  0  0  0  0  0  0  0  0  0  0
   27.9756   22.7761    8.8297 N   0  0  0  0  0  0  0  0  0  0  0  0
   29.2037   22.7399    9.3612 C   0  0  0  0  0  0  0  0  0  0  0  0
   29.5910   23.9646    9.7338 N   0  0  0  0  0  0  0  0  0  0  0  0
   25.3873   23.0721    7.7419 H   0  0  0  0  0  0  0  0  0  0  0  0
   24.4562   24.4952    7.6179 H   0  0  0  0  0  0  0  0  0  0  0  0
 61 60  2  0  0  0
 60 59  1  0  0  0
 60 63  1  0  0  0
 11 12  2  0  0  0
 10 11  1  0  0  0
 11 13  1  0  0  0
  8 10  1  0  0  0
 16 10  1  0  0  0
 17 16  1  0  0  0
 18 17  1  0  0  0
 19 18  1  0  0  0
 21 19  1  0  0  0
 23 21  2  0  0  0
 21 22  1  0  0  0
  6  8  1  0  0  0
  5  6  1  0  0  0
  6  7  2  0  0  0
  3  5  1  0  0  0
  5 27  1  0  0  0
 27 28  1  0  0  0
 28 29  1  0  0  0
 29 30  1  0  0  0
 30 32  1  0  0  0
 34 32  2  0  0  0
 32 33  1  0  0  0
  1  3  1  0  0  0
  2  1  2  0  0  0
 38  1  1  0  0  0
 39 38  1  0  0  0
 39 40  1  0  0  0
 40 41  1  0  0  0
 41 42  1  0  0  0
 45 42  1  0  0  0
 44 45  1  0  0  0
 43 44  2  0  0  0
 44 52  1  0  0  0
 49 52  1  0  0  0
 52 50  1  0  0  0
 49 53  1  0  0  0
 65 53  1  0  0  0
 53 51  1  0  0  0
 51 48  1  0  0  0
 51 50  1  0  0  0
 50 47  1  0  0  0
 59 65  1  0  0  0
 65 64  1  0  0  0
 58 59  2  0  0  0
 63 64  2  0  0  0
 57 58  1  0  0  0
 56 57  2  0  0  0
 56 61  1  0  0  0
 62 61  1  0  0  0
 62 66  1  0  0  0
 62 67  1  0  0  0
 47 54  1  0  0  0
 48 55  1  0  0  0
 45 46  1  0  0  0
  3  4  1  0  0  0
 30 31  1  0  0  0
 33 35  1  0  0  0
 33 36  1  0  0  0
 34 37  1  0  0  0
  8  9  1  0  0  0
 19 20  1  0  0  0
 22 24  1  0  0  0
 22 25  1  0  0  0
 23 26  1  0  0  0
 13 14  1  0  0  0
 13 15  1  0  0  0
M  END
> <minimizedAffinity>
-8.80186

$$$$
3BWJ_ARX_A_351


 67 69  0  0  0  0  0  0  0  0999 V2000
   35.2403   20.8972    9.9351 C   0  0  0  0  0  0  0  0  0  0  0  0
   34.3135   20.1958   10.3257 O   0  0  0  0  0  0  0  0  0  0  0  0
   35.6904   21.9838   10.5583 N   0  0  0  0  0  0  0  0  0  0  0  0
   36.4188   22.4823   10.1224 H   0  0  0  0  0  0  0  0  0  0  0  0
   35.1982   22.5011   11.8325 C   0  0  0  0  0  0  0  0  0  0  0  0
   35.8439   21.7707   12.9893 C   0  0  0  0  0  0  0  0  0  0  0  0
   36.7532   22.3104   13.6150 O   0  0  0  0  0  0  0  0  0  0  0  0
   35.3416   20.5534   13.2659 N   0  0  0  0  0  0  0  0  0  0  0  0
   34.3618   20.4918   13.1917 H   0  0  0  0  0  0  0  0  0  0  0  0
   36.0070   19.2863   13.6637 C   0  0  0  0  0  0  0  0  0  0  0  0
   36.4543   19.1867   15.1367 C   0  0  0  0  0  0  0  0  0  0  0  0
   35.8215   18.4415   15.8944 O   0  0  0  0  0  0  0  0  0  0  0  0
   37.5103   19.8909   15.6028 N   0  0  0  0  0  0  0  0  0  0  0  0
   37.7770   19.8110   16.5471 H   0  0  0  0  0  0  0  0  0  0  0  0
   38.0124   20.4835   14.9979 H   0  0  0  0  0  0  0  0  0  0  0  0
   35.3081   18.0325   13.0838 C   0  0  0  0  0  0  0  0  0  0  0  0
   36.1456   17.2497   12.0629 C   0  0  0  0  0  0  0  0  0  0  0  0
   37.5493   17.8213   11.8702 C   0  0  0  0  0  0  0  0  0  0  0  0
   38.5763   16.7927   11.9072 N   0  0  0  0  0  0  0  0  0  0  0  0
   38.4851   16.0650   12.5640 H   0  0  0  0  0  0  0  0  0  0  0  0
   39.6444   16.7846   11.0900 C   0  0  0  0  0  0  0  0  0  0  0  0
   40.3357   17.8329   10.9351 N   0  0  0  0  0  0  0  0  0  0  0  0
   40.0062   15.6657   10.4435 N   0  0  0  0  0  0  0  0  0  0  0  0
   40.0838   18.6621   11.4022 H   0  0  0  0  0  0  0  0  0  0  0  0
   41.1254   17.8194   10.3475 H   0  0  0  0  0  0  0  0  0  0  0  0
   39.4791   14.8414   10.5532 H   0  0  0  0  0  0  0  0  0  0  0  0
   35.4969   24.0111   11.9078 C   0  0  0  0  0  0  0  0  0  0  0  0
   34.5982   24.8147   12.8540 C   0  0  0  0  0  0  0  0  0  0  0  0
   34.2083   26.1990   12.2933 C   0  0  0  0  0  0  0  0  0  0  0  0
   34.5985   26.4478   10.9062 N   0  0  0  0  0  0  0  0  0  0  0  0
   35.0348   25.7224   10.4036 H   0  0  0  0  0  0  0  0  0  0  0  0
   34.3890   27.6199   10.2868 C   0  0  0  0  0  0  0  0  0  0  0  0
   33.2409   28.2847   10.4809 N   0  0  0  0  0  0  0  0  0  0  0  0
   35.2705   28.0955    9.5035 N   0  0  0  0  0  0  0  0  0  0  0  0
   32.5566   27.9189   11.0869 H   0  0  0  0  0  0  0  0  0  0  0  0
   33.0822   29.1387   10.0175 H   0  0  0  0  0  0  0  0  0  0  0  0
   36.1144   27.6094    9.3591 H   0  0  0  0  0  0  0  0  0  0  0  0
   35.9212   20.5214    8.6428 C   0  0  0  0  0  0  0  0  0  0  0  0
   35.2485   19.2813    8.0492 C   0  0  0  0  0  0  0  0  0  0  0  0
   34.6363   19.5675    6.6868 C   0  0  0  0  0  0  0  0  0  0  0  0
   34.3110   21.0553    6.5286 C   0  0  0  0  0  0  0  0  0  0  0  0
   32.8350   21.3919    6.7130 C   0  0  0  0  0  0  0  0  0  0  0  0
   32.9346   24.0284    7.2891 O   0  0  0  0  0  0  0  0  0  0  0  0
   32.6268   23.2536    8.2009 C   0  0  0  0  0  0  0  0  0  0  0  0
   32.5808   21.9238    8.0306 N   0  0  0  0  0  0  0  0  0  0  0  0
   32.3786   21.3253    8.7857 H   0  0  0  0  0  0  0  0  0  0  0  0
   32.4532   21.9889   11.3998 O   0  0  0  0  0  0  0  0  0  0  0  0
   31.1232   24.0925   12.3650 O   0  0  0  0  0  0  0  0  0  0  0  0
   31.3103   24.8440    9.4409 O   0  0  0  0  0  0  0  0  0  0  0  0
   31.5747   22.6848   10.4733 C   0  0  0  0  0  0  0  0  0  0  0  0
   30.5478   23.5055   11.2258 C   0  0  0  0  0  0  0  0  0  0  0  0
   32.2544   23.7540    9.5754 C   0  0  0  0  0  0  0  0  0  0  0  0
   30.2107   24.6821   10.3496 C   0  0  0  0  0  0  0  0  0  0  0  0
   33.1030   21.4695   10.9011 H   0  0  0  0  0  0  0  0  0  0  0  0
   30.4526   24.6133   12.8339 H   0  0  0  0  0  0  0  0  0  0  0  0
   25.6225   26.3199    8.3427 N   0  0  0  0  0  0  0  0  0  0  0  0
   26.5646   26.9961    9.0143 C   0  0  0  0  0  0  0  0  0  0  0  0
   27.7108   26.4567    9.4807 N   0  0  0  0  0  0  0  0  0  0  0  0
   27.9871   25.1499    9.2697 C   0  0  0  0  0  0  0  0  0  0  0  0
   27.0248   24.3352    8.5364 C   0  0  0  0  0  0  0  0  0  0  0  0
   25.7833   24.9875    8.0568 C   0  0  0  0  0  0  0  0  0  0  0  0
   24.8642   24.2462    7.3696 N   0  0  0  0  0  0  0  0  0  0  0  0
   27.5296   23.0872    8.4962 N   0  0  0  0  0  0  0  0  0  0  0  0
   28.7063   23.0928    9.1344 C   0  0  0  0  0  0  0  0  0  0  0  0
   28.9849   24.3168    9.5961 N   0  0  0  0  0  0  0  0  0  0  0  0
   25.0334   23.2925    7.1934 H   0  0  0  0  0  0  0  0  0  0  0  0
   24.0326   24.6658    7.0507 H   0  0  0  0  0  0  0  0  0  0  0  0
 61 60  2  0  0  0
 60 59  1  0  0  0
 60 63  1  0  0  0
 11 12  2  0  0  0
 10 11  1  0  0  0
 11 13  1  0  0  0
  8 10  1  0  0  0
 16 10  1  0  0  0
 17 16  1  0  0  0
 18 17  1  0  0  0
 19 18  1  0  0  0
 21 19  1  0  0  0
 23 21  2  0  0  0
 21 22  1  0  0  0
  6  8  1  0  0  0
  5  6  1  0  0  0
  6  7  2  0  0  0
  3  5  1  0  0  0
  5 27  1  0  0  0
 27 28  1  0  0  0
 28 29  1  0  0  0
 29 30  1  0  0  0
 30 32  1  0  0  0
 34 32  2  0  0  0
 32 33  1  0  0  0
  1  3  1  0  0  0
  2  1  2  0  0  0
 38  1  1  0  0  0
 39 38  1  0  0  0
 39 40  1  0  0  0
 40 41  1  0  0  0
 41 42  1  0  0  0
 45 42  1  0  0  0
 44 45  1  0  0  0
 43 44  2  0  0  0
 44 52  1  0  0  0
 49 52  1  0  0  0
 52 50  1  0  0  0
 49 53  1  0  0  0
 65 53  1  0  0  0
 53 51  1  0  0  0
 51 48  1  0  0  0
 51 50  1  0  0  0
 50 47  1  0  0  0
 59 65  1  0  0  0
 65 64  1  0  0  0
 58 59  2  0  0  0
 63 64  2  0  0  0
 57 58  1  0  0  0
 56 57  2  0  0  0
 56 61  1  0  0  0
 62 61  1  0  0  0
 62 66  1  0  0  0
 62 67  1  0  0  0
 47 54  1  0  0  0
 48 55  1  0  0  0
 45 46  1  0  0  0
  3  4  1  0  0  0
 30 31  1  0  0  0
 33 35  1  0  0  0
 33 36  1  0  0  0
 34 37  1  0  0  0
  8  9  1  0  0  0
 19 20  1  0  0  0
 22 24  1  0  0  0
 22 25  1  0  0  0
 23 26  1  0  0  0
 13 14  1  0  0  0
 13 15  1  0  0  0
M  END
> <minimizedAffinity>
-8.71822

$$$$
