1A9M_U0E_B_100


 54 54  0  0  0  0  0  0  0  0999 V2000
   39.6125   16.8811   63.8795 C   0  0  0  0  0  0  0  0  0  0  0  0
   40.9762   18.4500   65.0754 C   0  0  0  0  0  0  0  0  0  0  0  0
   40.6202   17.1881   64.8762 N   0  0  0  0  0  0  0  0  0  0  0  0
   40.9049   19.3185   64.1794 O   0  0  0  0  0  0  0  0  0  0  0  0
   41.0364   16.4660   65.4003 H   0  0  0  0  0  0  0  0  0  0  0  0
   41.5338   18.7582   66.4717 C   0  0  0  0  0  0  0  0  0  0  0  0
   40.4557   19.3231   67.4579 C   0  0  0  0  0  0  0  0  0  0  0  0
   40.6522   18.8293   68.8783 C   0  0  0  0  0  0  0  0  0  0  0  0
   40.3906   20.8294   67.4023 C   0  0  0  0  0  0  0  0  0  0  0  0
   42.6869   19.7378   66.3417 C   0  0  0  0  0  0  0  0  0  0  0  0
   43.7495   19.2409   65.3803 C   0  0  0  0  0  0  0  0  0  0  0  0
   44.6966   18.4708   66.1014 O   0  0  0  0  0  0  0  0  0  0  0  0
   45.1165   19.0252   66.7776 H   0  0  0  0  0  0  0  0  0  0  0  0
   44.4548   20.4262   64.6378 C   0  0  0  0  0  0  0  0  0  0  0  0
   44.7530   20.6417   61.0841 C   0  0  0  0  0  0  0  0  0  0  0  0
   45.1671   20.5058   62.2536 C   0  0  0  0  0  0  0  0  0  0  0  0
   44.2007   20.4250   63.1865 N   0  0  0  0  0  0  0  0  0  0  0  0
   46.3887   20.4477   62.5060 O   0  0  0  0  0  0  0  0  0  0  0  0
   43.2671   20.3612   62.8807 H   0  0  0  0  0  0  0  0  0  0  0  0
   43.9742   21.7197   65.2487 C   0  0  0  0  0  0  0  0  0  0  0  0
   44.9269   22.7848   65.7260 C   0  0  0  0  0  0  0  0  0  0  0  0
   44.8067   23.0637   67.2122 C   0  0  0  0  0  0  0  0  0  0  0  0
   45.6568   24.2446   67.6200 C   0  0  0  0  0  0  0  0  0  0  0  0
   47.1184   24.0270   67.2134 C   0  0  0  0  0  0  0  0  0  0  0  0
   47.3044   23.5752   65.7494 C   0  0  0  0  0  0  0  0  0  0  0  0
   46.3645   22.4528   65.3928 C   0  0  0  0  0  0  0  0  0  0  0  0
   38.5403   15.9708   64.4450 C   0  0  0  0  0  0  0  0  0  0  0  0
   37.3049   16.3073   64.1182 N   0  0  0  0  0  0  0  0  0  0  0  0
   38.8196   15.0333   65.1927 O   0  0  0  0  0  0  0  0  0  0  0  0
   37.1630   17.0478   63.4852 H   0  0  0  0  0  0  0  0  0  0  0  0
   36.1580   15.6214   64.6617 C   0  0  0  0  0  0  0  0  0  0  0  0
   35.4457   15.0416   63.4639 C   0  0  0  0  0  0  0  0  0  0  0  0
   34.4044   15.7668   63.0971 N   0  0  0  0  0  0  0  0  0  0  0  0
   35.7826   13.9859   62.9097 O   0  0  0  0  0  0  0  0  0  0  0  0
   34.1888   16.5977   63.5791 H   0  0  0  0  0  0  0  0  0  0  0  0
   33.8438   15.4763   62.3417 H   0  0  0  0  0  0  0  0  0  0  0  0
   35.2483   16.6009   65.3952 C   0  0  0  0  0  0  0  0  0  0  0  0
   35.3396   16.5100   66.8987 C   0  0  0  0  0  0  0  0  0  0  0  0
   36.2868   17.5516   67.4479 C   0  0  0  0  0  0  0  0  0  0  0  0
   37.6431   17.0320   67.5787 N   0  0  0  0  0  0  0  0  0  0  0  0
   38.3341   17.3918   66.9767 H   0  0  0  0  0  0  0  0  0  0  0  0
   38.0074   16.1019   68.4603 C   0  0  0  0  0  0  0  0  0  0  0  0
   38.4016   14.8980   68.0431 N   0  0  0  0  0  0  0  0  0  0  0  0
   37.9722   16.3725   69.7606 N   0  0  0  0  0  0  0  0  0  0  0  0
   38.4285   14.6951   67.0801 H   0  0  0  0  0  0  0  0  0  0  0  0
   37.6816   17.2605   70.0709 H   0  0  0  0  0  0  0  0  0  0  0  0
   38.2367   15.6850   70.4138 H   0  0  0  0  0  0  0  0  0  0  0  0
   40.2551   16.3290   62.5838 C   0  0  0  0  0  0  0  0  0  0  0  0
   39.3106   15.8806   61.4870 C   0  0  0  0  0  0  0  0  0  0  0  0
   39.0331   14.4057   61.5328 C   0  0  0  0  0  0  0  0  0  0  0  0
   38.0514   13.9637   60.7698 N   0  0  0  0  0  0  0  0  0  0  0  0
   39.6717   13.6728   62.2732 O   0  0  0  0  0  0  0  0  0  0  0  0
   37.5616   14.5879   60.1870 H   0  0  0  0  0  0  0  0  0  0  0  0
   37.8088   13.0096   60.7833 H   0  0  0  0  0  0  0  0  0  0  0  0
 15 16  1  0  0  0
 16 17  1  0  0  0
 16 18  2  0  0  0
 14 20  1  0  0  0
 14 11  1  0  0  0
 14 17  1  0  0  0
 20 21  1  0  0  0
 21 22  1  0  0  0
 21 26  1  0  0  0
 22 23  1  0  0  0
 23 24  1  0  0  0
 24 25  1  0  0  0
 25 26  1  0  0  0
 11 10  1  0  0  0
 11 12  1  0  0  0
 10  6  1  0  0  0
  6  7  1  0  0  0
  6  2  1  0  0  0
  7  8  1  0  0  0
  7  9  1  0  0  0
  2  3  1  0  0  0
  2  4  2  0  0  0
  1 48  1  0  0  0
  1 27  1  0  0  0
  1  3  1  0  0  0
 48 49  1  0  0  0
 49 50  1  0  0  0
 50 51  1  0  0  0
 50 52  2  0  0  0
 27 28  1  0  0  0
 27 29  2  0  0  0
 31 32  1  0  0  0
 31 37  1  0  0  0
 31 28  1  0  0  0
 32 33  1  0  0  0
 32 34  2  0  0  0
 37 38  1  0  0  0
 38 39  1  0  0  0
 39 40  1  0  0  0
 42 40  1  0  0  0
 42 43  2  0  0  0
 42 44  1  0  0  0
 17 19  1  0  0  0
  3  5  1  0  0  0
 51 53  1  0  0  0
 51 54  1  0  0  0
 28 30  1  0  0  0
 33 35  1  0  0  0
 33 36  1  0  0  0
 40 41  1  0  0  0
 43 45  1  0  0  0
 44 46  1  0  0  0
 44 47  1  0  0  0
 12 13  1  0  0  0
M  END
> <minimizedAffinity>
-9.06802

$$$$
1A9M_U0E_B_100


 54 54  0  0  0  0  0  0  0  0999 V2000
   39.4206   17.4925   66.1600 C   0  0  0  0  0  0  0  0  0  0  0  0
   40.9206   19.3245   65.7790 C   0  0  0  0  0  0  0  0  0  0  0  0
   39.9304   18.5658   65.3286 N   0  0  0  0  0  0  0  0  0  0  0  0
   41.1125   19.5264   66.9975 O   0  0  0  0  0  0  0  0  0  0  0  0
   39.5450   18.7298   64.4377 H   0  0  0  0  0  0  0  0  0  0  0  0
   41.7844   19.9821   64.6943 C   0  0  0  0  0  0  0  0  0  0  0  0
   42.9119   19.0424   64.1467 C   0  0  0  0  0  0  0  0  0  0  0  0
   42.8329   17.6425   64.7243 C   0  0  0  0  0  0  0  0  0  0  0  0
   42.9257   19.0161   62.6383 C   0  0  0  0  0  0  0  0  0  0  0  0
   42.3920   21.2588   65.2483 C   0  0  0  0  0  0  0  0  0  0  0  0
   43.8573   21.0855   65.5992 C   0  0  0  0  0  0  0  0  0  0  0  0
   43.9561   20.5827   66.9210 O   0  0  0  0  0  0  0  0  0  0  0  0
   43.5559   21.2149   67.5383 H   0  0  0  0  0  0  0  0  0  0  0  0
   44.6460   22.4320   65.4623 C   0  0  0  0  0  0  0  0  0  0  0  0
   45.9427   24.4375   68.1195 C   0  0  0  0  0  0  0  0  0  0  0  0
   45.3505   24.2225   67.0421 C   0  0  0  0  0  0  0  0  0  0  0  0
   45.1707   22.9216   66.7492 N   0  0  0  0  0  0  0  0  0  0  0  0
   44.9629   25.1623   66.3168 O   0  0  0  0  0  0  0  0  0  0  0  0
   45.4040   22.2564   67.4364 H   0  0  0  0  0  0  0  0  0  0  0  0
   45.7774   22.2200   64.4863 C   0  0  0  0  0  0  0  0  0  0  0  0
   45.6233   21.3717   63.2509 C   0  0  0  0  0  0  0  0  0  0  0  0
   45.5850   22.1883   61.9731 C   0  0  0  0  0  0  0  0  0  0  0  0
   45.2669   21.3216   60.7767 C   0  0  0  0  0  0  0  0  0  0  0  0
   46.2649   20.1638   60.6648 C   0  0  0  0  0  0  0  0  0  0  0  0
   46.4806   19.3886   61.9819 C   0  0  0  0  0  0  0  0  0  0  0  0
   46.7071   20.3220   63.1428 C   0  0  0  0  0  0  0  0  0  0  0  0
   39.0798   16.2701   65.3307 C   0  0  0  0  0  0  0  0  0  0  0  0
   39.4087   16.3625   64.0542 N   0  0  0  0  0  0  0  0  0  0  0  0
   38.4925   15.3040   65.8183 O   0  0  0  0  0  0  0  0  0  0  0  0
   39.9101   17.1517   63.7459 H   0  0  0  0  0  0  0  0  0  0  0  0
   39.0545   15.3411   63.0989 C   0  0  0  0  0  0  0  0  0  0  0  0
   40.2184   15.2830   62.1396 C   0  0  0  0  0  0  0  0  0  0  0  0
   40.2521   14.1534   61.4559 N   0  0  0  0  0  0  0  0  0  0  0  0
   41.0644   16.1818   62.0318 O   0  0  0  0  0  0  0  0  0  0  0  0
   39.5485   13.4774   61.5872 H   0  0  0  0  0  0  0  0  0  0  0  0
   40.9808   13.9874   60.8150 H   0  0  0  0  0  0  0  0  0  0  0  0
   37.7773   15.7224   62.3586 C   0  0  0  0  0  0  0  0  0  0  0  0
   36.5605   14.9476   62.8018 C   0  0  0  0  0  0  0  0  0  0  0  0
   35.4518   15.8800   63.2323 C   0  0  0  0  0  0  0  0  0  0  0  0
   35.5397   16.2036   64.6515 N   0  0  0  0  0  0  0  0  0  0  0  0
   35.9961   17.0380   64.9061 H   0  0  0  0  0  0  0  0  0  0  0  0
   35.0424   15.4430   65.6258 C   0  0  0  0  0  0  0  0  0  0  0  0
   35.6501   15.3872   66.8117 N   0  0  0  0  0  0  0  0  0  0  0  0
   33.9400   14.7324   65.4134 N   0  0  0  0  0  0  0  0  0  0  0  0
   36.4670   15.9128   66.9715 H   0  0  0  0  0  0  0  0  0  0  0  0
   33.4897   14.7720   64.5388 H   0  0  0  0  0  0  0  0  0  0  0  0
   33.5735   14.1662   66.1306 H   0  0  0  0  0  0  0  0  0  0  0  0
   38.2421   17.9761   67.0397 C   0  0  0  0  0  0  0  0  0  0  0  0
   38.3920   17.8107   68.5384 C   0  0  0  0  0  0  0  0  0  0  0  0
   37.9917   16.4427   69.0103 C   0  0  0  0  0  0  0  0  0  0  0  0
   38.9053   15.4947   68.9221 N   0  0  0  0  0  0  0  0  0  0  0  0
   36.8599   16.2294   69.4188 O   0  0  0  0  0  0  0  0  0  0  0  0
   39.8061   15.7088   68.5873 H   0  0  0  0  0  0  0  0  0  0  0  0
   38.6862   14.5733   69.1910 H   0  0  0  0  0  0  0  0  0  0  0  0
 15 16  1  0  0  0
 16 17  1  0  0  0
 16 18  2  0  0  0
 14 20  1  0  0  0
 14 11  1  0  0  0
 14 17  1  0  0  0
 20 21  1  0  0  0
 21 22  1  0  0  0
 21 26  1  0  0  0
 22 23  1  0  0  0
 23 24  1  0  0  0
 24 25  1  0  0  0
 25 26  1  0  0  0
 11 10  1  0  0  0
 11 12  1  0  0  0
 10  6  1  0  0  0
  6  7  1  0  0  0
  6  2  1  0  0  0
  7  8  1  0  0  0
  7  9  1  0  0  0
  2  3  1  0  0  0
  2  4  2  0  0  0
  1 48  1  0  0  0
  1 27  1  0  0  0
  1  3  1  0  0  0
 48 49  1  0  0  0
 49 50  1  0  0  0
 50 51  1  0  0  0
 50 52  2  0  0  0
 27 28  1  0  0  0
 27 29  2  0  0  0
 31 32  1  0  0  0
 31 37  1  0  0  0
 31 28  1  0  0  0
 32 33  1  0  0  0
 32 34  2  0  0  0
 37 38  1  0  0  0
 38 39  1  0  0  0
 39 40  1  0  0  0
 42 40  1  0  0  0
 42 43  2  0  0  0
 42 44  1  0  0  0
 17 19  1  0  0  0
  3  5  1  0  0  0
 51 53  1  0  0  0
 51 54  1  0  0  0
 28 30  1  0  0  0
 33 35  1  0  0  0
 33 36  1  0  0  0
 40 41  1  0  0  0
 43 45  1  0  0  0
 44 46  1  0  0  0
 44 47  1  0  0  0
 12 13  1  0  0  0
M  END
> <minimizedAffinity>
-8.77778

$$$$
1A9M_U0E_B_100


 54 54  0  0  0  0  0  0  0  0999 V2000
   44.1360   22.3827   66.2694 C   0  0  0  0  0  0  0  0  0  0  0  0
   42.0552   21.3102   65.7487 C   0  0  0  0  0  0  0  0  0  0  0  0
   43.0497   21.4839   66.6087 N   0  0  0  0  0  0  0  0  0  0  0  0
   41.7146   22.1890   64.9278 O   0  0  0  0  0  0  0  0  0  0  0  0
   43.0504   21.0069   67.4700 H   0  0  0  0  0  0  0  0  0  0  0  0
   41.3152   19.9709   65.8683 C   0  0  0  0  0  0  0  0  0  0  0  0
   39.8690   20.1128   66.4535 C   0  0  0  0  0  0  0  0  0  0  0  0
   39.2986   18.7876   66.9203 C   0  0  0  0  0  0  0  0  0  0  0  0
   39.8141   21.1518   67.5461 C   0  0  0  0  0  0  0  0  0  0  0  0
   42.1354   19.0243   66.7270 C   0  0  0  0  0  0  0  0  0  0  0  0
   42.7979   17.9378   65.9020 C   0  0  0  0  0  0  0  0  0  0  0  0
   44.1933   17.9585   66.1519 O   0  0  0  0  0  0  0  0  0  0  0  0
   44.5558   18.8194   65.8902 H   0  0  0  0  0  0  0  0  0  0  0  0
   42.5100   18.1186   64.3729 C   0  0  0  0  0  0  0  0  0  0  0  0
   44.9246   19.3388   62.0395 C   0  0  0  0  0  0  0  0  0  0  0  0
   43.8832   19.3833   62.7258 C   0  0  0  0  0  0  0  0  0  0  0  0
   43.7314   18.3586   63.5847 N   0  0  0  0  0  0  0  0  0  0  0  0
   43.0673   20.3212   62.6058 O   0  0  0  0  0  0  0  0  0  0  0  0
   44.4823   17.7311   63.6930 H   0  0  0  0  0  0  0  0  0  0  0  0
   41.8048   16.8806   63.8750 C   0  0  0  0  0  0  0  0  0  0  0  0
   40.3341   16.8712   63.5485 C   0  0  0  0  0  0  0  0  0  0  0  0
   40.0452   16.4106   62.1324 C   0  0  0  0  0  0  0  0  0  0  0  0
   38.5817   16.5700   61.7907 C   0  0  0  0  0  0  0  0  0  0  0  0
   37.7040   15.8282   62.8049 C   0  0  0  0  0  0  0  0  0  0  0  0
   38.0568   16.1233   64.2781 C   0  0  0  0  0  0  0  0  0  0  0  0
   39.5406   16.0279   64.5218 C   0  0  0  0  0  0  0  0  0  0  0  0
   45.0856   21.7451   65.2743 C   0  0  0  0  0  0  0  0  0  0  0  0
   45.4335   22.5272   64.2676 N   0  0  0  0  0  0  0  0  0  0  0  0
   45.4446   20.5727   65.3865 O   0  0  0  0  0  0  0  0  0  0  0  0
   45.1356   23.4655   64.2665 H   0  0  0  0  0  0  0  0  0  0  0  0
   46.2369   22.0464   63.1701 C   0  0  0  0  0  0  0  0  0  0  0  0
   47.6568   22.3988   63.5417 C   0  0  0  0  0  0  0  0  0  0  0  0
   47.7502   23.5921   64.1002 N   0  0  0  0  0  0  0  0  0  0  0  0
   48.6278   21.6630   63.3165 O   0  0  0  0  0  0  0  0  0  0  0  0
   46.9393   24.1291   64.2527 H   0  0  0  0  0  0  0  0  0  0  0  0
   48.6308   23.9446   64.3640 H   0  0  0  0  0  0  0  0  0  0  0  0
   45.8409   22.7437   61.8732 C   0  0  0  0  0  0  0  0  0  0  0  0
   46.7887   22.4857   60.7276 C   0  0  0  0  0  0  0  0  0  0  0  0
   47.4604   23.7640   60.2819 C   0  0  0  0  0  0  0  0  0  0  0  0
   48.8455   23.8314   60.7330 N   0  0  0  0  0  0  0  0  0  0  0  0
   49.1324   23.2029   61.4344 H   0  0  0  0  0  0  0  0  0  0  0  0
   49.7477   24.6885   60.2572 C   0  0  0  0  0  0  0  0  0  0  0  0
   51.0381   24.5446   60.5624 N   0  0  0  0  0  0  0  0  0  0  0  0
   49.3600   25.6943   59.4805 N   0  0  0  0  0  0  0  0  0  0  0  0
   51.3277   23.8001   61.1378 H   0  0  0  0  0  0  0  0  0  0  0  0
   48.4081   25.8026   59.2539 H   0  0  0  0  0  0  0  0  0  0  0  0
   50.0246   26.3314   59.1317 H   0  0  0  0  0  0  0  0  0  0  0  0
   44.8499   22.9044   67.5401 C   0  0  0  0  0  0  0  0  0  0  0  0
   45.3534   24.3332   67.5061 C   0  0  0  0  0  0  0  0  0  0  0  0
   46.8415   24.4243   67.6849 C   0  0  0  0  0  0  0  0  0  0  0  0
   47.2798   25.3077   68.5615 N   0  0  0  0  0  0  0  0  0  0  0  0
   47.5942   23.7316   67.0164 O   0  0  0  0  0  0  0  0  0  0  0  0
   46.6393   25.8461   69.0802 H   0  0  0  0  0  0  0  0  0  0  0  0
   48.2475   25.4284   68.6969 H   0  0  0  0  0  0  0  0  0  0  0  0
 15 16  1  0  0  0
 16 17  1  0  0  0
 16 18  2  0  0  0
 14 20  1  0  0  0
 14 11  1  0  0  0
 14 17  1  0  0  0
 20 21  1  0  0  0
 21 22  1  0  0  0
 21 26  1  0  0  0
 22 23  1  0  0  0
 23 24  1  0  0  0
 24 25  1  0  0  0
 25 26  1  0  0  0
 11 10  1  0  0  0
 11 12  1  0  0  0
 10  6  1  0  0  0
  6  7  1  0  0  0
  6  2  1  0  0  0
  7  8  1  0  0  0
  7  9  1  0  0  0
  2  3  1  0  0  0
  2  4  2  0  0  0
  1 48  1  0  0  0
  1 27  1  0  0  0
  1  3  1  0  0  0
 48 49  1  0  0  0
 49 50  1  0  0  0
 50 51  1  0  0  0
 50 52  2  0  0  0
 27 28  1  0  0  0
 27 29  2  0  0  0
 31 32  1  0  0  0
 31 37  1  0  0  0
 31 28  1  0  0  0
 32 33  1  0  0  0
 32 34  2  0  0  0
 37 38  1  0  0  0
 38 39  1  0  0  0
 39 40  1  0  0  0
 42 40  1  0  0  0
 42 43  2  0  0  0
 42 44  1  0  0  0
 17 19  1  0  0  0
  3  5  1  0  0  0
 51 53  1  0  0  0
 51 54  1  0  0  0
 28 30  1  0  0  0
 33 35  1  0  0  0
 33 36  1  0  0  0
 40 41  1  0  0  0
 43 45  1  0  0  0
 44 46  1  0  0  0
 44 47  1  0  0  0
 12 13  1  0  0  0
M  END
> <minimizedAffinity>
-8.72150

$$$$
1A9M_U0E_B_100


 54 54  0  0  0  0  0  0  0  0999 V2000
   45.5247   22.8357   64.6601 C   0  0  0  0  0  0  0  0  0  0  0  0
   44.4585   20.9031   63.7223 C   0  0  0  0  0  0  0  0  0  0  0  0
   45.3914   21.3980   64.5246 N   0  0  0  0  0  0  0  0  0  0  0  0
   43.3958   21.5112   63.4710 O   0  0  0  0  0  0  0  0  0  0  0  0
   45.9880   20.7947   65.0238 H   0  0  0  0  0  0  0  0  0  0  0  0
   44.7525   19.5038   63.1646 C   0  0  0  0  0  0  0  0  0  0  0  0
   45.3362   19.5267   61.7111 C   0  0  0  0  0  0  0  0  0  0  0  0
   44.7514   20.6432   60.8677 C   0  0  0  0  0  0  0  0  0  0  0  0
   46.8441   19.5760   61.7214 C   0  0  0  0  0  0  0  0  0  0  0  0
   43.4803   18.6755   63.2035 C   0  0  0  0  0  0  0  0  0  0  0  0
   42.9138   18.5690   64.6063 C   0  0  0  0  0  0  0  0  0  0  0  0
   43.8187   17.8327   65.4119 O   0  0  0  0  0  0  0  0  0  0  0  0
   43.9256   16.9409   65.0457 H   0  0  0  0  0  0  0  0  0  0  0  0
   41.5007   17.8931   64.6076 C   0  0  0  0  0  0  0  0  0  0  0  0
   38.5792   18.9846   66.3506 C   0  0  0  0  0  0  0  0  0  0  0  0
   39.3918   18.1482   65.9060 C   0  0  0  0  0  0  0  0  0  0  0  0
   40.4910   18.6782   65.3391 N   0  0  0  0  0  0  0  0  0  0  0  0
   39.1760   16.9217   65.9994 O   0  0  0  0  0  0  0  0  0  0  0  0
   40.6290   19.6498   65.4179 H   0  0  0  0  0  0  0  0  0  0  0  0
   41.0690   17.6972   63.1748 C   0  0  0  0  0  0  0  0  0  0  0  0
   40.2168   16.5313   62.7455 C   0  0  0  0  0  0  0  0  0  0  0  0
   38.9149   16.9578   62.0943 C   0  0  0  0  0  0  0  0  0  0  0  0
   38.0193   15.7701   61.8276 C   0  0  0  0  0  0  0  0  0  0  0  0
   38.7467   14.7221   60.9781 C   0  0  0  0  0  0  0  0  0  0  0  0
   40.1565   14.3623   61.4928 C   0  0  0  0  0  0  0  0  0  0  0  0
   40.9589   15.5956   61.8172 C   0  0  0  0  0  0  0  0  0  0  0  0
   46.9761   23.2387   64.8312 C   0  0  0  0  0  0  0  0  0  0  0  0
   47.1620   24.3327   65.5488 N   0  0  0  0  0  0  0  0  0  0  0  0
   47.8869   22.6130   64.2880 O   0  0  0  0  0  0  0  0  0  0  0  0
   46.3868   24.7572   65.9823 H   0  0  0  0  0  0  0  0  0  0  0  0
   48.4677   24.9233   65.7155 C   0  0  0  0  0  0  0  0  0  0  0  0
   48.5831   25.2049   67.1939 C   0  0  0  0  0  0  0  0  0  0  0  0
   49.2925   26.2902   67.4463 N   0  0  0  0  0  0  0  0  0  0  0  0
   48.0942   24.4792   68.0710 O   0  0  0  0  0  0  0  0  0  0  0  0
   49.6544   26.8255   66.7035 H   0  0  0  0  0  0  0  0  0  0  0  0
   49.4593   26.5638   68.3772 H   0  0  0  0  0  0  0  0  0  0  0  0
   48.5724   26.2200   64.9202 C   0  0  0  0  0  0  0  0  0  0  0  0
   49.6905   26.2258   63.9068 C   0  0  0  0  0  0  0  0  0  0  0  0
   49.1462   26.1450   62.4993 C   0  0  0  0  0  0  0  0  0  0  0  0
   48.4386   24.8916   62.2655 N   0  0  0  0  0  0  0  0  0  0  0  0
   47.9320   24.5022   63.0146 H   0  0  0  0  0  0  0  0  0  0  0  0
   48.4333   24.2393   61.1038 C   0  0  0  0  0  0  0  0  0  0  0  0
   49.5461   23.6571   60.6546 N   0  0  0  0  0  0  0  0  0  0  0  0
   47.3168   24.1737   60.3866 N   0  0  0  0  0  0  0  0  0  0  0  0
   50.3746   23.7044   61.1843 H   0  0  0  0  0  0  0  0  0  0  0  0
   46.4942   24.6027   60.7161 H   0  0  0  0  0  0  0  0  0  0  0  0
   47.3120   23.6961   59.5257 H   0  0  0  0  0  0  0  0  0  0  0  0
   44.6079   23.3807   65.7821 C   0  0  0  0  0  0  0  0  0  0  0  0
   44.4434   22.5148   67.0147 C   0  0  0  0  0  0  0  0  0  0  0  0
   43.4509   21.4065   66.8121 C   0  0  0  0  0  0  0  0  0  0  0  0
   42.2548   21.7545   66.3767 N   0  0  0  0  0  0  0  0  0  0  0  0
   43.7436   20.2500   67.0771 O   0  0  0  0  0  0  0  0  0  0  0  0
   42.0599   22.6980   66.1746 H   0  0  0  0  0  0  0  0  0  0  0  0
   41.5574   21.0705   66.2541 H   0  0  0  0  0  0  0  0  0  0  0  0
 15 16  1  0  0  0
 16 17  1  0  0  0
 16 18  2  0  0  0
 14 20  1  0  0  0
 14 11  1  0  0  0
 14 17  1  0  0  0
 20 21  1  0  0  0
 21 22  1  0  0  0
 21 26  1  0  0  0
 22 23  1  0  0  0
 23 24  1  0  0  0
 24 25  1  0  0  0
 25 26  1  0  0  0
 11 10  1  0  0  0
 11 12  1  0  0  0
 10  6  1  0  0  0
  6  7  1  0  0  0
  6  2  1  0  0  0
  7  8  1  0  0  0
  7  9  1  0  0  0
  2  3  1  0  0  0
  2  4  2  0  0  0
  1 48  1  0  0  0
  1 27  1  0  0  0
  1  3  1  0  0  0
 48 49  1  0  0  0
 49 50  1  0  0  0
 50 51  1  0  0  0
 50 52  2  0  0  0
 27 28  1  0  0  0
 27 29  2  0  0  0
 31 32  1  0  0  0
 31 37  1  0  0  0
 31 28  1  0  0  0
 32 33  1  0  0  0
 32 34  2  0  0  0
 37 38  1  0  0  0
 38 39  1  0  0  0
 39 40  1  0  0  0
 42 40  1  0  0  0
 42 43  2  0  0  0
 42 44  1  0  0  0
 17 19  1  0  0  0
  3  5  1  0  0  0
 51 53  1  0  0  0
 51 54  1  0  0  0
 28 30  1  0  0  0
 33 35  1  0  0  0
 33 36  1  0  0  0
 40 41  1  0  0  0
 43 45  1  0  0  0
 44 46  1  0  0  0
 44 47  1  0  0  0
 12 13  1  0  0  0
M  END
> <minimizedAffinity>
-8.46546

$$$$
1A9M_U0E_B_100


 54 54  0  0  0  0  0  0  0  0999 V2000
   40.9975   18.2660   66.9581 C   0  0  0  0  0  0  0  0  0  0  0  0
   43.0820   18.7551   65.8779 C   0  0  0  0  0  0  0  0  0  0  0  0
   41.9413   19.2050   66.3832 N   0  0  0  0  0  0  0  0  0  0  0  0
   43.6310   17.7082   66.2839 O   0  0  0  0  0  0  0  0  0  0  0  0
   41.7371   20.1680   66.3681 H   0  0  0  0  0  0  0  0  0  0  0  0
   43.7099   19.6411   64.7934 C   0  0  0  0  0  0  0  0  0  0  0  0
   43.7210   18.9719   63.3771 C   0  0  0  0  0  0  0  0  0  0  0  0
   42.4875   18.1268   63.1241 C   0  0  0  0  0  0  0  0  0  0  0  0
   43.9229   19.9928   62.2846 C   0  0  0  0  0  0  0  0  0  0  0  0
   45.1237   20.0088   65.2083 C   0  0  0  0  0  0  0  0  0  0  0  0
   45.1524   21.2250   66.1139 C   0  0  0  0  0  0  0  0  0  0  0  0
   43.8202   21.5946   66.4280 O   0  0  0  0  0  0  0  0  0  0  0  0
   43.3460   21.8191   65.6122 H   0  0  0  0  0  0  0  0  0  0  0  0
   45.9129   22.4217   65.4482 C   0  0  0  0  0  0  0  0  0  0  0  0
   46.8463   22.4642   61.9997 C   0  0  0  0  0  0  0  0  0  0  0  0
   47.0431   22.3920   63.2301 C   0  0  0  0  0  0  0  0  0  0  0  0
   45.9247   22.3451   63.9768 N   0  0  0  0  0  0  0  0  0  0  0  0
   48.1995   22.3623   63.7009 O   0  0  0  0  0  0  0  0  0  0  0  0
   45.0618   22.2541   63.5117 H   0  0  0  0  0  0  0  0  0  0  0  0
   45.2590   23.7057   65.8967 C   0  0  0  0  0  0  0  0  0  0  0  0
   46.0450   24.8349   66.5107 C   0  0  0  0  0  0  0  0  0  0  0  0
   46.3877   24.5934   67.9685 C   0  0  0  0  0  0  0  0  0  0  0  0
   47.0295   25.8117   68.5910 C   0  0  0  0  0  0  0  0  0  0  0  0
   48.2669   26.2397   67.7943 C   0  0  0  0  0  0  0  0  0  0  0  0
   48.0315   26.3430   66.2725 C   0  0  0  0  0  0  0  0  0  0  0  0
   47.3124   25.1307   65.7400 C   0  0  0  0  0  0  0  0  0  0  0  0
   39.8899   17.9316   65.9785 C   0  0  0  0  0  0  0  0  0  0  0  0
   39.1857   16.8577   66.2904 N   0  0  0  0  0  0  0  0  0  0  0  0
   39.7167   18.5899   64.9525 O   0  0  0  0  0  0  0  0  0  0  0  0
   39.3591   16.4049   67.1472 H   0  0  0  0  0  0  0  0  0  0  0  0
   38.1704   16.3294   65.4122 C   0  0  0  0  0  0  0  0  0  0  0  0
   37.1120   15.7693   66.3312 C   0  0  0  0  0  0  0  0  0  0  0  0
   35.8925   16.1301   65.9743 N   0  0  0  0  0  0  0  0  0  0  0  0
   37.3644   15.0767   67.3270 O   0  0  0  0  0  0  0  0  0  0  0  0
   35.7580   16.6823   65.1704 H   0  0  0  0  0  0  0  0  0  0  0  0
   35.1181   15.8468   66.5121 H   0  0  0  0  0  0  0  0  0  0  0  0
   38.7468   15.2243   64.5338 C   0  0  0  0  0  0  0  0  0  0  0  0
   38.7429   15.5512   63.0606 C   0  0  0  0  0  0  0  0  0  0  0  0
   37.3420   15.4935   62.4967 C   0  0  0  0  0  0  0  0  0  0  0  0
   36.7037   14.2107   62.7677 N   0  0  0  0  0  0  0  0  0  0  0  0
   37.2563   13.3985   62.7027 H   0  0  0  0  0  0  0  0  0  0  0  0
   35.4209   14.0668   63.0975 C   0  0  0  0  0  0  0  0  0  0  0  0
   34.6709   15.1373   63.3630 N   0  0  0  0  0  0  0  0  0  0  0  0
   34.8879   12.8518   63.1682 N   0  0  0  0  0  0  0  0  0  0  0  0
   35.0636   16.0386   63.3113 H   0  0  0  0  0  0  0  0  0  0  0  0
   35.4395   12.0601   62.9726 H   0  0  0  0  0  0  0  0  0  0  0  0
   33.9414   12.7431   63.4162 H   0  0  0  0  0  0  0  0  0  0  0  0
   40.4682   18.7678   68.3236 C   0  0  0  0  0  0  0  0  0  0  0  0
   39.1838   19.5716   68.3079 C   0  0  0  0  0  0  0  0  0  0  0  0
   39.4212   21.0323   68.0539 C   0  0  0  0  0  0  0  0  0  0  0  0
   39.1494   21.8581   69.0466 N   0  0  0  0  0  0  0  0  0  0  0  0
   39.8126   21.4210   66.9635 O   0  0  0  0  0  0  0  0  0  0  0  0
   38.8362   21.5036   69.9100 H   0  0  0  0  0  0  0  0  0  0  0  0
   39.2600   22.8286   68.9238 H   0  0  0  0  0  0  0  0  0  0  0  0
 15 16  1  0  0  0
 16 17  1  0  0  0
 16 18  2  0  0  0
 14 20  1  0  0  0
 14 11  1  0  0  0
 14 17  1  0  0  0
 20 21  1  0  0  0
 21 22  1  0  0  0
 21 26  1  0  0  0
 22 23  1  0  0  0
 23 24  1  0  0  0
 24 25  1  0  0  0
 25 26  1  0  0  0
 11 10  1  0  0  0
 11 12  1  0  0  0
 10  6  1  0  0  0
  6  7  1  0  0  0
  6  2  1  0  0  0
  7  8  1  0  0  0
  7  9  1  0  0  0
  2  3  1  0  0  0
  2  4  2  0  0  0
  1 48  1  0  0  0
  1 27  1  0  0  0
  1  3  1  0  0  0
 48 49  1  0  0  0
 49 50  1  0  0  0
 50 51  1  0  0  0
 50 52  2  0  0  0
 27 28  1  0  0  0
 27 29  2  0  0  0
 31 32  1  0  0  0
 31 37  1  0  0  0
 31 28  1  0  0  0
 32 33  1  0  0  0
 32 34  2  0  0  0
 37 38  1  0  0  0
 38 39  1  0  0  0
 39 40  1  0  0  0
 42 40  1  0  0  0
 42 43  2  0  0  0
 42 44  1  0  0  0
 17 19  1  0  0  0
  3  5  1  0  0  0
 51 53  1  0  0  0
 51 54  1  0  0  0
 28 30  1  0  0  0
 33 35  1  0  0  0
 33 36  1  0  0  0
 40 41  1  0  0  0
 43 45  1  0  0  0
 44 46  1  0  0  0
 44 47  1  0  0  0
 12 13  1  0  0  0
M  END
> <minimizedAffinity>
-8.46540

$$$$
1A9M_U0E_B_100


 54 54  0  0  0  0  0  0  0  0999 V2000
   39.5954   16.6616   64.0297 C   0  0  0  0  0  0  0  0  0  0  0  0
   41.1248   18.1938   65.0614 C   0  0  0  0  0  0  0  0  0  0  0  0
   40.6245   16.9669   65.0048 N   0  0  0  0  0  0  0  0  0  0  0  0
   41.1629   18.9512   64.0679 O   0  0  0  0  0  0  0  0  0  0  0  0
   40.9489   16.2694   65.6193 H   0  0  0  0  0  0  0  0  0  0  0  0
   41.7040   18.6003   66.4233 C   0  0  0  0  0  0  0  0  0  0  0  0
   40.6130   19.0687   67.4452 C   0  0  0  0  0  0  0  0  0  0  0  0
   40.9513   18.6854   68.8728 C   0  0  0  0  0  0  0  0  0  0  0  0
   40.3385   20.5472   67.3220 C   0  0  0  0  0  0  0  0  0  0  0  0
   42.7333   19.6979   66.2186 C   0  0  0  0  0  0  0  0  0  0  0  0
   43.9116   19.2249   65.3891 C   0  0  0  0  0  0  0  0  0  0  0  0
   44.7287   18.3867   66.1890 O   0  0  0  0  0  0  0  0  0  0  0  0
   45.0593   18.8887   66.9503 H   0  0  0  0  0  0  0  0  0  0  0  0
   44.7416   20.4288   64.8275 C   0  0  0  0  0  0  0  0  0  0  0  0
   45.7019   23.1520   66.9314 C   0  0  0  0  0  0  0  0  0  0  0  0
   45.0021   22.5634   66.0819 C   0  0  0  0  0  0  0  0  0  0  0  0
   45.3204   21.2702   65.8896 N   0  0  0  0  0  0  0  0  0  0  0  0
   44.0825   23.1541   65.4778 O   0  0  0  0  0  0  0  0  0  0  0  0
   45.9800   20.8615   66.4953 H   0  0  0  0  0  0  0  0  0  0  0  0
   45.8360   19.8783   63.9461 C   0  0  0  0  0  0  0  0  0  0  0  0
   46.2760   20.5734   62.6840 C   0  0  0  0  0  0  0  0  0  0  0  0
   45.1247   21.2022   61.9224 C   0  0  0  0  0  0  0  0  0  0  0  0
   45.5804   21.7449   60.5876 C   0  0  0  0  0  0  0  0  0  0  0  0
   46.7324   22.7390   60.7709 C   0  0  0  0  0  0  0  0  0  0  0  0
   47.8697   22.2249   61.6787 C   0  0  0  0  0  0  0  0  0  0  0  0
   47.3328   21.6222   62.9510 C   0  0  0  0  0  0  0  0  0  0  0  0
   38.4836   15.8350   64.6452 C   0  0  0  0  0  0  0  0  0  0  0  0
   37.2778   16.0960   64.1719 N   0  0  0  0  0  0  0  0  0  0  0  0
   38.7044   15.0317   65.5519 O   0  0  0  0  0  0  0  0  0  0  0  0
   37.1854   16.7250   63.4203 H   0  0  0  0  0  0  0  0  0  0  0  0
   36.0927   15.4863   64.7243 C   0  0  0  0  0  0  0  0  0  0  0  0
   35.3631   14.9050   63.5377 C   0  0  0  0  0  0  0  0  0  0  0  0
   35.8237   13.7150   63.1963 N   0  0  0  0  0  0  0  0  0  0  0  0
   34.4566   15.4948   62.9332 O   0  0  0  0  0  0  0  0  0  0  0  0
   36.5472   13.2989   63.7185 H   0  0  0  0  0  0  0  0  0  0  0  0
   35.4436   13.2442   62.4198 H   0  0  0  0  0  0  0  0  0  0  0  0
   35.2270   16.5332   65.4166 C   0  0  0  0  0  0  0  0  0  0  0  0
   34.5606   16.0379   66.6767 C   0  0  0  0  0  0  0  0  0  0  0  0
   34.9325   16.8999   67.8609 C   0  0  0  0  0  0  0  0  0  0  0  0
   36.1177   16.3952   68.5445 N   0  0  0  0  0  0  0  0  0  0  0  0
   35.9876   15.7466   69.2736 H   0  0  0  0  0  0  0  0  0  0  0  0
   37.3652   16.7553   68.2460 C   0  0  0  0  0  0  0  0  0  0  0  0
   37.6030   17.9241   67.6492 N   0  0  0  0  0  0  0  0  0  0  0  0
   38.3762   15.9443   68.5385 N   0  0  0  0  0  0  0  0  0  0  0  0
   36.8555   18.5267   67.4315 H   0  0  0  0  0  0  0  0  0  0  0  0
   38.2032   15.0811   68.9791 H   0  0  0  0  0  0  0  0  0  0  0  0
   39.2983   16.2066   68.3147 H   0  0  0  0  0  0  0  0  0  0  0  0
   40.2001   16.0147   62.7599 C   0  0  0  0  0  0  0  0  0  0  0  0
   39.2583   15.7752   61.5972 C   0  0  0  0  0  0  0  0  0  0  0  0
   38.9113   14.3244   61.4261 C   0  0  0  0  0  0  0  0  0  0  0  0
   38.7443   13.8972   60.1888 N   0  0  0  0  0  0  0  0  0  0  0  0
   38.7600   13.5997   62.3982 O   0  0  0  0  0  0  0  0  0  0  0  0
   38.8762   14.5142   59.4330 H   0  0  0  0  0  0  0  0  0  0  0  0
   38.4878   12.9616   60.0215 H   0  0  0  0  0  0  0  0  0  0  0  0
 15 16  1  0  0  0
 16 17  1  0  0  0
 16 18  2  0  0  0
 14 20  1  0  0  0
 14 11  1  0  0  0
 14 17  1  0  0  0
 20 21  1  0  0  0
 21 22  1  0  0  0
 21 26  1  0  0  0
 22 23  1  0  0  0
 23 24  1  0  0  0
 24 25  1  0  0  0
 25 26  1  0  0  0
 11 10  1  0  0  0
 11 12  1  0  0  0
 10  6  1  0  0  0
  6  7  1  0  0  0
  6  2  1  0  0  0
  7  8  1  0  0  0
  7  9  1  0  0  0
  2  3  1  0  0  0
  2  4  2  0  0  0
  1 48  1  0  0  0
  1 27  1  0  0  0
  1  3  1  0  0  0
 48 49  1  0  0  0
 49 50  1  0  0  0
 50 51  1  0  0  0
 50 52  2  0  0  0
 27 28  1  0  0  0
 27 29  2  0  0  0
 31 32  1  0  0  0
 31 37  1  0  0  0
 31 28  1  0  0  0
 32 33  1  0  0  0
 32 34  2  0  0  0
 37 38  1  0  0  0
 38 39  1  0  0  0
 39 40  1  0  0  0
 42 40  1  0  0  0
 42 43  2  0  0  0
 42 44  1  0  0  0
 17 19  1  0  0  0
  3  5  1  0  0  0
 51 53  1  0  0  0
 51 54  1  0  0  0
 28 30  1  0  0  0
 33 35  1  0  0  0
 33 36  1  0  0  0
 40 41  1  0  0  0
 43 45  1  0  0  0
 44 46  1  0  0  0
 44 47  1  0  0  0
 12 13  1  0  0  0
M  END
> <minimizedAffinity>
-8.30265

$$$$
1A9M_U0E_B_100


 54 54  0  0  0  0  0  0  0  0999 V2000
   39.5302   17.2556   63.8101 C   0  0  0  0  0  0  0  0  0  0  0  0
   41.6147   17.9442   64.7753 C   0  0  0  0  0  0  0  0  0  0  0  0
   40.3128   18.1550   64.6357 N   0  0  0  0  0  0  0  0  0  0  0  0
   42.1257   16.8072   64.6835 O   0  0  0  0  0  0  0  0  0  0  0  0
   39.8814   18.9152   65.0887 H   0  0  0  0  0  0  0  0  0  0  0  0
   42.4453   19.1903   65.1113 C   0  0  0  0  0  0  0  0  0  0  0  0
   41.5977   20.5072   65.1503 C   0  0  0  0  0  0  0  0  0  0  0  0
   41.7909   21.2844   66.4381 C   0  0  0  0  0  0  0  0  0  0  0  0
   41.8610   21.3703   63.9412 C   0  0  0  0  0  0  0  0  0  0  0  0
   43.5720   19.3242   64.1020 C   0  0  0  0  0  0  0  0  0  0  0  0
   44.9240   19.4656   64.7745 C   0  0  0  0  0  0  0  0  0  0  0  0
   44.7547   19.3374   66.1763 O   0  0  0  0  0  0  0  0  0  0  0  0
   44.1674   20.0398   66.4966 H   0  0  0  0  0  0  0  0  0  0  0  0
   45.6015   20.8339   64.4249 C   0  0  0  0  0  0  0  0  0  0  0  0
   45.8451   22.1383   61.1077 C   0  0  0  0  0  0  0  0  0  0  0  0
   46.2783   21.6595   62.1758 C   0  0  0  0  0  0  0  0  0  0  0  0
   45.3271   21.2729   63.0454 N   0  0  0  0  0  0  0  0  0  0  0  0
   47.5044   21.5558   62.3895 O   0  0  0  0  0  0  0  0  0  0  0  0
   44.3907   21.2839   62.7415 H   0  0  0  0  0  0  0  0  0  0  0  0
   45.1107   21.8691   65.4072 C   0  0  0  0  0  0  0  0  0  0  0  0
   46.0547   22.6934   66.2434 C   0  0  0  0  0  0  0  0  0  0  0  0
   47.1681   23.3254   65.4298 C   0  0  0  0  0  0  0  0  0  0  0  0
   48.1818   24.0051   66.3209 C   0  0  0  0  0  0  0  0  0  0  0  0
   47.5019   25.0381   67.2263 C   0  0  0  0  0  0  0  0  0  0  0  0
   46.2529   24.5068   67.9610 C   0  0  0  0  0  0  0  0  0  0  0  0
   45.3321   23.7685   67.0244 C   0  0  0  0  0  0  0  0  0  0  0  0
   38.6553   16.3532   64.6578 C   0  0  0  0  0  0  0  0  0  0  0  0
   37.3731   16.6725   64.6576 N   0  0  0  0  0  0  0  0  0  0  0  0
   39.1330   15.4377   65.3284 O   0  0  0  0  0  0  0  0  0  0  0  0
   37.0607   17.3951   64.0664 H   0  0  0  0  0  0  0  0  0  0  0  0
   36.4174   15.9934   65.4983 C   0  0  0  0  0  0  0  0  0  0  0  0
   35.2095   15.7757   64.6198 C   0  0  0  0  0  0  0  0  0  0  0  0
   34.4643   14.7648   65.0290 N   0  0  0  0  0  0  0  0  0  0  0  0
   34.9652   16.4501   63.6096 O   0  0  0  0  0  0  0  0  0  0  0  0
   34.7126   14.2675   65.8416 H   0  0  0  0  0  0  0  0  0  0  0  0
   33.6605   14.5087   64.5215 H   0  0  0  0  0  0  0  0  0  0  0  0
   36.0500   16.8609   66.6973 C   0  0  0  0  0  0  0  0  0  0  0  0
   37.1014   17.8818   67.0570 C   0  0  0  0  0  0  0  0  0  0  0  0
   37.9347   17.4121   68.2269 C   0  0  0  0  0  0  0  0  0  0  0  0
   39.3594   17.4307   67.9164 N   0  0  0  0  0  0  0  0  0  0  0  0
   39.7192   16.7019   67.3608 H   0  0  0  0  0  0  0  0  0  0  0  0
   40.2057   18.3703   68.3362 C   0  0  0  0  0  0  0  0  0  0  0  0
   39.7511   19.5701   68.7006 N   0  0  0  0  0  0  0  0  0  0  0  0
   41.5083   18.1133   68.3862 N   0  0  0  0  0  0  0  0  0  0  0  0
   38.7864   19.7628   68.6644 H   0  0  0  0  0  0  0  0  0  0  0  0
   41.8461   17.2285   68.1177 H   0  0  0  0  0  0  0  0  0  0  0  0
   42.1356   18.8078   68.6918 H   0  0  0  0  0  0  0  0  0  0  0  0
   40.4307   16.4737   62.8230 C   0  0  0  0  0  0  0  0  0  0  0  0
   39.7867   15.9976   61.5368 C   0  0  0  0  0  0  0  0  0  0  0  0
   39.4845   14.5270   61.5535 C   0  0  0  0  0  0  0  0  0  0  0  0
   38.8458   14.0414   60.5059 N   0  0  0  0  0  0  0  0  0  0  0  0
   39.7908   13.8374   62.5147 O   0  0  0  0  0  0  0  0  0  0  0  0
   38.6175   14.6315   59.7516 H   0  0  0  0  0  0  0  0  0  0  0  0
   38.5977   13.0891   60.4785 H   0  0  0  0  0  0  0  0  0  0  0  0
 15 16  1  0  0  0
 16 17  1  0  0  0
 16 18  2  0  0  0
 14 20  1  0  0  0
 14 11  1  0  0  0
 14 17  1  0  0  0
 20 21  1  0  0  0
 21 22  1  0  0  0
 21 26  1  0  0  0
 22 23  1  0  0  0
 23 24  1  0  0  0
 24 25  1  0  0  0
 25 26  1  0  0  0
 11 10  1  0  0  0
 11 12  1  0  0  0
 10  6  1  0  0  0
  6  7  1  0  0  0
  6  2  1  0  0  0
  7  8  1  0  0  0
  7  9  1  0  0  0
  2  3  1  0  0  0
  2  4  2  0  0  0
  1 48  1  0  0  0
  1 27  1  0  0  0
  1  3  1  0  0  0
 48 49  1  0  0  0
 49 50  1  0  0  0
 50 51  1  0  0  0
 50 52  2  0  0  0
 27 28  1  0  0  0
 27 29  2  0  0  0
 31 32  1  0  0  0
 31 37  1  0  0  0
 31 28  1  0  0  0
 32 33  1  0  0  0
 32 34  2  0  0  0
 37 38  1  0  0  0
 38 39  1  0  0  0
 39 40  1  0  0  0
 42 40  1  0  0  0
 42 43  2  0  0  0
 42 44  1  0  0  0
 17 19  1  0  0  0
  3  5  1  0  0  0
 51 53  1  0  0  0
 51 54  1  0  0  0
 28 30  1  0  0  0
 33 35  1  0  0  0
 33 36  1  0  0  0
 40 41  1  0  0  0
 43 45  1  0  0  0
 44 46  1  0  0  0
 44 47  1  0  0  0
 12 13  1  0  0  0
M  END
> <minimizedAffinity>
-8.29809

$$$$
1A9M_U0E_B_100


 54 54  0  0  0  0  0  0  0  0999 V2000
   38.6491   17.4065   65.9484 C   0  0  0  0  0  0  0  0  0  0  0  0
   40.3516   19.0631   65.6186 C   0  0  0  0  0  0  0  0  0  0  0  0
   39.3117   18.4020   65.1280 N   0  0  0  0  0  0  0  0  0  0  0  0
   40.5002   19.2709   66.8421 O   0  0  0  0  0  0  0  0  0  0  0  0
   38.9925   18.5855   64.2150 H   0  0  0  0  0  0  0  0  0  0  0  0
   41.3351   19.6027   64.5712 C   0  0  0  0  0  0  0  0  0  0  0  0
   42.3576   18.5270   64.0699 C   0  0  0  0  0  0  0  0  0  0  0  0
   42.3371   17.2678   64.9148 C   0  0  0  0  0  0  0  0  0  0  0  0
   42.1574   18.2128   62.6079 C   0  0  0  0  0  0  0  0  0  0  0  0
   42.0745   20.7956   65.1512 C   0  0  0  0  0  0  0  0  0  0  0  0
   43.3837   20.3917   65.8016 C   0  0  0  0  0  0  0  0  0  0  0  0
   43.2328   20.4476   67.2101 O   0  0  0  0  0  0  0  0  0  0  0  0
   43.0143   21.3544   67.4761 H   0  0  0  0  0  0  0  0  0  0  0  0
   44.5651   21.3099   65.3379 C   0  0  0  0  0  0  0  0  0  0  0  0
   45.7313   23.9292   67.4695 C   0  0  0  0  0  0  0  0  0  0  0  0
   45.0474   23.4283   66.5535 C   0  0  0  0  0  0  0  0  0  0  0  0
   45.1501   22.0914   66.4416 N   0  0  0  0  0  0  0  0  0  0  0  0
   44.3297   24.1381   65.8181 O   0  0  0  0  0  0  0  0  0  0  0  0
   45.6463   21.6058   67.1396 H   0  0  0  0  0  0  0  0  0  0  0  0
   45.6201   20.4380   64.7021 C   0  0  0  0  0  0  0  0  0  0  0  0
   45.6079   20.1055   63.2327 C   0  0  0  0  0  0  0  0  0  0  0  0
   44.7524   21.0568   62.4177 C   0  0  0  0  0  0  0  0  0  0  0  0
   44.6338   20.5969   60.9831 C   0  0  0  0  0  0  0  0  0  0  0  0
   46.0201   20.4205   60.3536 C   0  0  0  0  0  0  0  0  0  0  0  0
   47.0025   19.5979   61.2139 C   0  0  0  0  0  0  0  0  0  0  0  0
   47.0023   20.0594   62.6483 C   0  0  0  0  0  0  0  0  0  0  0  0
   38.5888   16.0658   65.2434 C   0  0  0  0  0  0  0  0  0  0  0  0
   38.2766   16.1324   63.9611 N   0  0  0  0  0  0  0  0  0  0  0  0
   38.7647   15.0096   65.8514 O   0  0  0  0  0  0  0  0  0  0  0  0
   38.1875   17.0161   63.5363 H   0  0  0  0  0  0  0  0  0  0  0  0
   38.0626   14.9484   63.1652 C   0  0  0  0  0  0  0  0  0  0  0  0
   38.4702   15.3395   61.7655 C   0  0  0  0  0  0  0  0  0  0  0  0
   38.4147   14.3244   60.9222 N   0  0  0  0  0  0  0  0  0  0  0  0
   38.8460   16.4780   61.4531 O   0  0  0  0  0  0  0  0  0  0  0  0
   38.1064   13.4426   61.2330 H   0  0  0  0  0  0  0  0  0  0  0  0
   38.6815   14.4496   59.9829 H   0  0  0  0  0  0  0  0  0  0  0  0
   36.5927   14.5440   63.1946 C   0  0  0  0  0  0  0  0  0  0  0  0
   35.6375   15.7108   63.1375 C   0  0  0  0  0  0  0  0  0  0  0  0
   34.2480   15.2946   63.5618 C   0  0  0  0  0  0  0  0  0  0  0  0
   33.2281   16.1800   63.0118 N   0  0  0  0  0  0  0  0  0  0  0  0
   33.3732   17.1510   63.0850 H   0  0  0  0  0  0  0  0  0  0  0  0
   32.1126   15.7597   62.4167 C   0  0  0  0  0  0  0  0  0  0  0  0
   32.1064   14.6153   61.7318 N   0  0  0  0  0  0  0  0  0  0  0  0
   31.0035   16.4864   62.5005 N   0  0  0  0  0  0  0  0  0  0  0  0
   32.9270   14.0751   61.6683 H   0  0  0  0  0  0  0  0  0  0  0  0
   31.0057   17.3315   63.0055 H   0  0  0  0  0  0  0  0  0  0  0  0
   30.1795   16.1798   62.0576 H   0  0  0  0  0  0  0  0  0  0  0  0
   37.2625   17.9043   66.4240 C   0  0  0  0  0  0  0  0  0  0  0  0
   37.0207   17.9350   67.9195 C   0  0  0  0  0  0  0  0  0  0  0  0
   37.1115   16.5735   68.5460 C   0  0  0  0  0  0  0  0  0  0  0  0
   38.0686   16.3937   69.4364 N   0  0  0  0  0  0  0  0  0  0  0  0
   36.3507   15.6788   68.2085 O   0  0  0  0  0  0  0  0  0  0  0  0
   38.6606   17.1415   69.6805 H   0  0  0  0  0  0  0  0  0  0  0  0
   38.1907   15.5118   69.8567 H   0  0  0  0  0  0  0  0  0  0  0  0
 15 16  1  0  0  0
 16 17  1  0  0  0
 16 18  2  0  0  0
 14 20  1  0  0  0
 14 11  1  0  0  0
 14 17  1  0  0  0
 20 21  1  0  0  0
 21 22  1  0  0  0
 21 26  1  0  0  0
 22 23  1  0  0  0
 23 24  1  0  0  0
 24 25  1  0  0  0
 25 26  1  0  0  0
 11 10  1  0  0  0
 11 12  1  0  0  0
 10  6  1  0  0  0
  6  7  1  0  0  0
  6  2  1  0  0  0
  7  8  1  0  0  0
  7  9  1  0  0  0
  2  3  1  0  0  0
  2  4  2  0  0  0
  1 48  1  0  0  0
  1 27  1  0  0  0
  1  3  1  0  0  0
 48 49  1  0  0  0
 49 50  1  0  0  0
 50 51  1  0  0  0
 50 52  2  0  0  0
 27 28  1  0  0  0
 27 29  2  0  0  0
 31 32  1  0  0  0
 31 37  1  0  0  0
 31 28  1  0  0  0
 32 33  1  0  0  0
 32 34  2  0  0  0
 37 38  1  0  0  0
 38 39  1  0  0  0
 39 40  1  0  0  0
 42 40  1  0  0  0
 42 43  2  0  0  0
 42 44  1  0  0  0
 17 19  1  0  0  0
  3  5  1  0  0  0
 51 53  1  0  0  0
 51 54  1  0  0  0
 28 30  1  0  0  0
 33 35  1  0  0  0
 33 36  1  0  0  0
 40 41  1  0  0  0
 43 45  1  0  0  0
 44 46  1  0  0  0
 44 47  1  0  0  0
 12 13  1  0  0  0
M  END
> <minimizedAffinity>
-8.26740

$$$$
1A9M_U0E_B_100


 54 54  0  0  0  0  0  0  0  0999 V2000
   43.0609   21.0832   65.7297 C   0  0  0  0  0  0  0  0  0  0  0  0
   40.8482   20.4782   66.4290 C   0  0  0  0  0  0  0  0  0  0  0  0
   42.0814   20.0919   66.1309 N   0  0  0  0  0  0  0  0  0  0  0  0
   40.5888   21.6181   66.8714 O   0  0  0  0  0  0  0  0  0  0  0  0
   42.3297   19.1406   66.1815 H   0  0  0  0  0  0  0  0  0  0  0  0
   39.7655   19.4065   66.2427 C   0  0  0  0  0  0  0  0  0  0  0  0
   38.7710   19.3149   67.4496 C   0  0  0  0  0  0  0  0  0  0  0  0
   37.3212   19.4178   67.0170 C   0  0  0  0  0  0  0  0  0  0  0  0
   39.0135   18.0740   68.2729 C   0  0  0  0  0  0  0  0  0  0  0  0
   40.4315   18.0615   66.0115 C   0  0  0  0  0  0  0  0  0  0  0  0
   40.5704   17.7421   64.5354 C   0  0  0  0  0  0  0  0  0  0  0  0
   40.5646   18.9548   63.8011 O   0  0  0  0  0  0  0  0  0  0  0  0
   39.7242   19.4169   63.9467 H   0  0  0  0  0  0  0  0  0  0  0  0
   39.4262   16.7937   64.0406 C   0  0  0  0  0  0  0  0  0  0  0  0
   39.8367   14.3370   61.4792 C   0  0  0  0  0  0  0  0  0  0  0  0
   39.3853   15.3825   61.9899 C   0  0  0  0  0  0  0  0  0  0  0  0
   39.9186   15.7009   63.1836 N   0  0  0  0  0  0  0  0  0  0  0  0
   38.5110   16.0613   61.4117 O   0  0  0  0  0  0  0  0  0  0  0  0
   40.6844   15.1716   63.5038 H   0  0  0  0  0  0  0  0  0  0  0  0
   38.7237   16.2289   65.2509 C   0  0  0  0  0  0  0  0  0  0  0  0
   37.2296   16.3148   65.4246 C   0  0  0  0  0  0  0  0  0  0  0  0
   36.4637   15.6247   64.3119 C   0  0  0  0  0  0  0  0  0  0  0  0
   34.9777   15.8717   64.4327 C   0  0  0  0  0  0  0  0  0  0  0  0
   34.4658   15.4367   65.8104 C   0  0  0  0  0  0  0  0  0  0  0  0
   35.3049   15.9694   66.9911 C   0  0  0  0  0  0  0  0  0  0  0  0
   36.7794   15.7640   66.7595 C   0  0  0  0  0  0  0  0  0  0  0  0
   43.4204   20.9380   64.2641 C   0  0  0  0  0  0  0  0  0  0  0  0
   44.7022   20.7161   64.0318 N   0  0  0  0  0  0  0  0  0  0  0  0
   42.5776   21.0765   63.3772 O   0  0  0  0  0  0  0  0  0  0  0  0
   45.3095   20.5800   64.7947 H   0  0  0  0  0  0  0  0  0  0  0  0
   45.2379   20.6673   62.6932 C   0  0  0  0  0  0  0  0  0  0  0  0
   46.2406   19.5392   62.7146 C   0  0  0  0  0  0  0  0  0  0  0  0
   46.3821   19.0135   63.9180 N   0  0  0  0  0  0  0  0  0  0  0  0
   46.8818   19.1721   61.7200 O   0  0  0  0  0  0  0  0  0  0  0  0
   45.8417   19.3502   64.6689 H   0  0  0  0  0  0  0  0  0  0  0  0
   47.0279   18.2849   64.0641 H   0  0  0  0  0  0  0  0  0  0  0  0
   45.9279   21.9819   62.3461 C   0  0  0  0  0  0  0  0  0  0  0  0
   46.0748   22.2214   60.8635 C   0  0  0  0  0  0  0  0  0  0  0  0
   46.3959   23.6702   60.5779 C   0  0  0  0  0  0  0  0  0  0  0  0
   47.5252   24.1393   61.3724 N   0  0  0  0  0  0  0  0  0  0  0  0
   47.4911   24.0024   62.3468 H   0  0  0  0  0  0  0  0  0  0  0  0
   48.6000   24.7411   60.8648 C   0  0  0  0  0  0  0  0  0  0  0  0
   48.8982   24.6062   59.5719 N   0  0  0  0  0  0  0  0  0  0  0  0
   49.3815   25.4737   61.6509 N   0  0  0  0  0  0  0  0  0  0  0  0
   48.3207   24.0639   58.9875 H   0  0  0  0  0  0  0  0  0  0  0  0
   49.1634   25.5747   62.6056 H   0  0  0  0  0  0  0  0  0  0  0  0
   50.1787   25.9154   61.2787 H   0  0  0  0  0  0  0  0  0  0  0  0
   44.2965   21.0602   66.6622 C   0  0  0  0  0  0  0  0  0  0  0  0
   44.7046   22.3762   67.2926 C   0  0  0  0  0  0  0  0  0  0  0  0
   45.4535   23.2636   66.3405 C   0  0  0  0  0  0  0  0  0  0  0  0
   44.7813   24.2707   65.8161 N   0  0  0  0  0  0  0  0  0  0  0  0
   46.6168   23.0273   66.0505 O   0  0  0  0  0  0  0  0  0  0  0  0
   43.8448   24.4265   66.0770 H   0  0  0  0  0  0  0  0  0  0  0  0
   45.2162   24.8664   65.1641 H   0  0  0  0  0  0  0  0  0  0  0  0
 15 16  1  0  0  0
 16 17  1  0  0  0
 16 18  2  0  0  0
 14 20  1  0  0  0
 14 11  1  0  0  0
 14 17  1  0  0  0
 20 21  1  0  0  0
 21 22  1  0  0  0
 21 26  1  0  0  0
 22 23  1  0  0  0
 23 24  1  0  0  0
 24 25  1  0  0  0
 25 26  1  0  0  0
 11 10  1  0  0  0
 11 12  1  0  0  0
 10  6  1  0  0  0
  6  7  1  0  0  0
  6  2  1  0  0  0
  7  8  1  0  0  0
  7  9  1  0  0  0
  2  3  1  0  0  0
  2  4  2  0  0  0
  1 48  1  0  0  0
  1 27  1  0  0  0
  1  3  1  0  0  0
 48 49  1  0  0  0
 49 50  1  0  0  0
 50 51  1  0  0  0
 50 52  2  0  0  0
 27 28  1  0  0  0
 27 29  2  0  0  0
 31 32  1  0  0  0
 31 37  1  0  0  0
 31 28  1  0  0  0
 32 33  1  0  0  0
 32 34  2  0  0  0
 37 38  1  0  0  0
 38 39  1  0  0  0
 39 40  1  0  0  0
 42 40  1  0  0  0
 42 43  2  0  0  0
 42 44  1  0  0  0
 17 19  1  0  0  0
  3  5  1  0  0  0
 51 53  1  0  0  0
 51 54  1  0  0  0
 28 30  1  0  0  0
 33 35  1  0  0  0
 33 36  1  0  0  0
 40 41  1  0  0  0
 43 45  1  0  0  0
 44 46  1  0  0  0
 44 47  1  0  0  0
 12 13  1  0  0  0
M  END
> <minimizedAffinity>
-8.18851

$$$$
1A9M_U0E_B_100


 54 54  0  0  0  0  0  0  0  0999 V2000
   46.4611   23.1519   65.5713 C   0  0  0  0  0  0  0  0  0  0  0  0
   45.3226   21.0416   65.6118 C   0  0  0  0  0  0  0  0  0  0  0  0
   46.2626   21.8052   65.0712 N   0  0  0  0  0  0  0  0  0  0  0  0
   44.9451   21.1763   66.7957 O   0  0  0  0  0  0  0  0  0  0  0  0
   46.8206   21.4609   64.3369 H   0  0  0  0  0  0  0  0  0  0  0  0
   44.7671   19.9429   64.6954 C   0  0  0  0  0  0  0  0  0  0  0  0
   45.2604   20.0648   63.2136 C   0  0  0  0  0  0  0  0  0  0  0  0
   46.2802   19.0025   62.8515 C   0  0  0  0  0  0  0  0  0  0  0  0
   44.1039   20.0713   62.2446 C   0  0  0  0  0  0  0  0  0  0  0  0
   43.2497   19.9740   64.7449 C   0  0  0  0  0  0  0  0  0  0  0  0
   42.6819   18.7997   65.5189 C   0  0  0  0  0  0  0  0  0  0  0  0
   43.3173   17.6108   65.0801 O   0  0  0  0  0  0  0  0  0  0  0  0
   43.1424   17.4806   64.1350 H   0  0  0  0  0  0  0  0  0  0  0  0
   41.1291   18.6906   65.3439 C   0  0  0  0  0  0  0  0  0  0  0  0
   39.3271   20.8054   67.5900 C   0  0  0  0  0  0  0  0  0  0  0  0
   40.0689   19.8529   67.2734 C   0  0  0  0  0  0  0  0  0  0  0  0
   40.4023   19.8086   65.9705 N   0  0  0  0  0  0  0  0  0  0  0  0
   40.4586   19.0248   68.1231 O   0  0  0  0  0  0  0  0  0  0  0  0
   40.1448   20.5695   65.4014 H   0  0  0  0  0  0  0  0  0  0  0  0
   40.8226   18.6338   63.8673 C   0  0  0  0  0  0  0  0  0  0  0  0
   40.1528   17.4433   63.2318 C   0  0  0  0  0  0  0  0  0  0  0  0
   41.1012   16.6091   62.3918 C   0  0  0  0  0  0  0  0  0  0  0  0
   40.3622   15.5242   61.6429 C   0  0  0  0  0  0  0  0  0  0  0  0
   39.5608   14.6465   62.6106 C   0  0  0  0  0  0  0  0  0  0  0  0
   38.6959   15.4407   63.6123 C   0  0  0  0  0  0  0  0  0  0  0  0
   39.4775   16.5571   64.2549 C   0  0  0  0  0  0  0  0  0  0  0  0
   47.8493   23.6622   65.2383 C   0  0  0  0  0  0  0  0  0  0  0  0
   47.8766   24.8656   64.6931 N   0  0  0  0  0  0  0  0  0  0  0  0
   48.8509   22.9691   65.4184 O   0  0  0  0  0  0  0  0  0  0  0  0
   47.0371   25.3740   64.6151 H   0  0  0  0  0  0  0  0  0  0  0  0
   49.1004   25.4563   64.2086 C   0  0  0  0  0  0  0  0  0  0  0  0
   49.4178   26.5579   65.1905 C   0  0  0  0  0  0  0  0  0  0  0  0
   48.3376   27.0250   65.7904 N   0  0  0  0  0  0  0  0  0  0  0  0
   50.5605   26.9953   65.3853 O   0  0  0  0  0  0  0  0  0  0  0  0
   47.4563   26.6336   65.5921 H   0  0  0  0  0  0  0  0  0  0  0  0
   48.4139   27.7646   66.4357 H   0  0  0  0  0  0  0  0  0  0  0  0
   48.8978   26.0345   62.8123 C   0  0  0  0  0  0  0  0  0  0  0  0
   49.7529   25.3842   61.7526 C   0  0  0  0  0  0  0  0  0  0  0  0
   48.8982   24.7792   60.6629 C   0  0  0  0  0  0  0  0  0  0  0  0
   48.7828   23.3328   60.8082 N   0  0  0  0  0  0  0  0  0  0  0  0
   49.3273   22.7656   60.2158 H   0  0  0  0  0  0  0  0  0  0  0  0
   47.9880   22.7295   61.6910 C   0  0  0  0  0  0  0  0  0  0  0  0
   48.4684   21.7685   62.4813 N   0  0  0  0  0  0  0  0  0  0  0  0
   46.7101   23.0820   61.7803 N   0  0  0  0  0  0  0  0  0  0  0  0
   49.4149   21.5056   62.4169 H   0  0  0  0  0  0  0  0  0  0  0  0
   46.3532   23.7911   61.1980 H   0  0  0  0  0  0  0  0  0  0  0  0
   46.1201   22.6342   62.4288 H   0  0  0  0  0  0  0  0  0  0  0  0
   46.1268   23.2449   67.0800 C   0  0  0  0  0  0  0  0  0  0  0  0
   45.9130   24.6321   67.6508 C   0  0  0  0  0  0  0  0  0  0  0  0
   47.1145   25.1411   68.3938 C   0  0  0  0  0  0  0  0  0  0  0  0
   47.0240   26.3534   68.9069 N   0  0  0  0  0  0  0  0  0  0  0  0
   48.1293   24.4655   68.4773 O   0  0  0  0  0  0  0  0  0  0  0  0
   46.1874   26.8646   68.8174 H   0  0  0  0  0  0  0  0  0  0  0  0
   47.7931   26.7466   69.3792 H   0  0  0  0  0  0  0  0  0  0  0  0
 15 16  1  0  0  0
 16 17  1  0  0  0
 16 18  2  0  0  0
 14 20  1  0  0  0
 14 11  1  0  0  0
 14 17  1  0  0  0
 20 21  1  0  0  0
 21 22  1  0  0  0
 21 26  1  0  0  0
 22 23  1  0  0  0
 23 24  1  0  0  0
 24 25  1  0  0  0
 25 26  1  0  0  0
 11 10  1  0  0  0
 11 12  1  0  0  0
 10  6  1  0  0  0
  6  7  1  0  0  0
  6  2  1  0  0  0
  7  8  1  0  0  0
  7  9  1  0  0  0
  2  3  1  0  0  0
  2  4  2  0  0  0
  1 48  1  0  0  0
  1 27  1  0  0  0
  1  3  1  0  0  0
 48 49  1  0  0  0
 49 50  1  0  0  0
 50 51  1  0  0  0
 50 52  2  0  0  0
 27 28  1  0  0  0
 27 29  2  0  0  0
 31 32  1  0  0  0
 31 37  1  0  0  0
 31 28  1  0  0  0
 32 33  1  0  0  0
 32 34  2  0  0  0
 37 38  1  0  0  0
 38 39  1  0  0  0
 39 40  1  0  0  0
 42 40  1  0  0  0
 42 43  2  0  0  0
 42 44  1  0  0  0
 17 19  1  0  0  0
  3  5  1  0  0  0
 51 53  1  0  0  0
 51 54  1  0  0  0
 28 30  1  0  0  0
 33 35  1  0  0  0
 33 36  1  0  0  0
 40 41  1  0  0  0
 43 45  1  0  0  0
 44 46  1  0  0  0
 44 47  1  0  0  0
 12 13  1  0  0  0
M  END
> <minimizedAffinity>
-8.07545

$$$$
