1A9M_U0E_B_100
  RCSB PDB12061701583D
Coordinates from PDB:1A9M:B:100 Model:1 without hydrogens
 42 42  0  0  0  0            999 V2000
   45.5100   23.0020   66.2580   C 0  0  0  0  0  0  0  0  0  0  0  0
   44.7100   22.2760   65.6330   C 0  0  0  0  0  0  0  0  0  0  0  0
   44.3590   19.9760   64.7470   C 0  0  0  0  0  0  0  0  0  0  0  0
   45.3320   19.2840   63.8240   C 0  0  0  0  0  0  0  0  0  0  0  0
   45.9590   19.9850   62.6470   C 0  0  0  0  0  0  0  0  0  0  0  0
   45.1630   21.1900   62.1830   C 0  0  0  0  0  0  0  0  0  0  0  0
   45.7320   21.7660   60.9070   C 0  0  0  0  0  0  0  0  0  0  0  0
   47.2140   22.1150   61.0830   C 0  0  0  0  0  0  0  0  0  0  0  0
   48.0570   20.9850   61.7110   C 0  0  0  0  0  0  0  0  0  0  0  0
   47.3850   20.4040   62.9280   C 0  0  0  0  0  0  0  0  0  0  0  0
   43.6380   18.8840   65.6080   C 0  0  0  0  0  0  0  0  0  0  0  0
   42.7960   19.5050   66.7060   C 0  0  0  0  0  0  0  0  0  0  0  0
   41.4600   18.8010   66.8660   C 0  0  0  0  0  0  0  0  0  0  0  0
   40.5360   19.6130   67.8360   C 0  0  0  0  0  0  0  0  0  0  0  0
   39.9940   20.8780   67.1990   C 0  0  0  0  0  0  0  0  0  0  0  0
   39.4250   18.7550   68.3890   C 0  0  0  0  0  0  0  0  0  0  0  0
   40.8390   18.5800   65.4800   C 0  0  0  0  0  0  0  0  0  0  0  0
   39.3800   17.1150   64.2650   C 0  0  0  0  0  0  0  0  0  0  0  0
   39.9620   16.7890   62.8680   C 0  0  0  0  0  0  0  0  0  0  0  0
   40.0380   15.3260   62.4810   C 0  0  0  0  0  0  0  0  0  0  0  0
   38.7290   14.7960   61.9710   C 0  0  0  0  0  0  0  0  0  0  0  0
   38.3970   16.0710   64.7570   C 0  0  0  0  0  0  0  0  0  0  0  0
   36.0780   15.3880   64.7620   C 0  0  0  0  0  0  0  0  0  0  0  0
   35.1670   15.2450   63.5670   C 0  0  0  0  0  0  0  0  0  0  0  0
   35.3380   16.0590   65.9140   C 0  0  0  0  0  0  0  0  0  0  0  0
   35.9920   15.8580   67.2590   C 0  0  0  0  0  0  0  0  0  0  0  0
   35.9500   17.1280   68.0770   C 0  0  0  0  0  0  0  0  0  0  0  0
   34.3030   17.2140   69.9120   C 0  0  0  0  0  0  0  0  0  0  0  0
   45.0620   20.9790   65.5660   N 0  0  0  0  0  0  0  0  0  0  0  0
   40.4350   17.3410   65.2340   N 0  0  0  0  0  0  0  0  0  0  0  0
   38.1560   15.4730   60.9940   N 0  0  0  0  0  0  0  0  0  0  0  0
   37.1640   16.2210   64.3060   N 0  0  0  0  0  0  0  0  0  0  0  0
   34.6060   14.0510   63.5010   N 0  0  0  0  0  0  0  0  0  0  0  0
   35.5030   16.8760   69.4420   N 0  0  0  0  0  0  0  0  0  0  0  0
   33.5530   18.1050   69.2620   N 0  0  0  0  0  0  0  0  0  0  0  0
   33.8540   16.6660   71.0360   N 0  0  0  0  0  0  0  0  0  0  0  0
   43.6700   22.7450   65.1250   O 0  0  0  0  0  0  0  0  0  0  0  0
   44.5850   18.0080   66.1960   O 0  0  0  0  0  0  0  0  0  0  0  0
   40.7610   19.4940   64.6310   O 0  0  0  0  0  0  0  0  0  0  0  0
   38.2180   13.8060   62.4730   O 0  0  0  0  0  0  0  0  0  0  0  0
   38.7320   15.1970   65.5570   O 0  0  0  0  0  0  0  0  0  0  0  0
   34.9930   16.1380   62.7260   O 0  0  0  0  0  0  0  0  0  0  0  0
  1  2  1  0  0  0  0
  2 29  1  0  0  0  0
  2 37  2  0  0  0  0
  3  4  1  0  0  0  0
  3 11  1  0  0  0  0
  3 29  1  0  0  0  0
  4  5  1  0  0  0  0
  5  6  1  0  0  0  0
  5 10  1  0  0  0  0
  6  7  1  0  0  0  0
  7  8  1  0  0  0  0
  8  9  1  0  0  0  0
  9 10  1  0  0  0  0
 11 12  1  0  0  0  0
 11 38  1  0  0  0  0
 12 13  1  0  0  0  0
 13 14  1  0  0  0  0
 13 17  1  0  0  0  0
 14 15  1  0  0  0  0
 14 16  1  0  0  0  0
 17 30  1  0  0  0  0
 17 39  2  0  0  0  0
 18 19  1  0  0  0  0
 18 22  1  0  0  0  0
 18 30  1  0  0  0  0
 19 20  1  0  0  0  0
 20 21  1  0  0  0  0
 21 31  1  0  0  0  0
 21 40  2  0  0  0  0
 22 32  1  0  0  0  0
 22 41  2  0  0  0  0
 23 24  1  0  0  0  0
 23 25  1  0  0  0  0
 23 32  1  0  0  0  0
 24 33  1  0  0  0  0
 24 42  2  0  0  0  0
 25 26  1  0  0  0  0
 26 27  1  0  0  0  0
 27 34  1  0  0  0  0
 28 34  1  0  0  0  0
 28 35  2  0  0  0  0
 28 36  1  0  0  0  0
A    1
C1
A    2
C2
A    3
C3
A    4
C4
A    5
C5
A    6
C6
A    7
C7
A    8
C8
A    9
C9
A   10
C10
A   11
C11
A   12
C12
A   13
C13
A   14
C14
A   15
C15
A   16
C16
A   17
C17
A   18
C18
A   19
C19
A   20
C20
A   21
C21
A   22
C22
A   23
C23
A   24
C24
A   25
C25
A   26
C26
A   27
C27
A   28
C28
A   29
N1
A   30
N2
A   31
N3
A   32
N4
A   33
N5
A   34
N6
A   35
N7
A   36
N8
A   37
O1
A   38
O2
A   39
O3
A   40
O4
A   41
O5
A   42
O6
M  END
>  <InstanceId>
1A9M_U0E_B_100

>  <ChemCompId>
U0E

>  <PdbId>
1A9M

>  <ChainId>
B

>  <ResidueNumber>
100

>  <InsertionCode>


>  <Model>
1

>  <AltIds>


>  <MissingHeavyAtoms>
0

>  <ObservedFormula>
C28 N8 O6

>  <Name>
N-[[1-[N-ACETAMIDYL]-[1-CYCLOHEXYLMETHYL-2-HYDROXY-4-ISOPROPYL]-BUT-4-YL]-CARBONYL]-GLUTAMINYL-ARGINYL-AMIDE

>  <SystematicName>
(2S)-2-[[(2S,4S,5S)-5-acetamido-6-cyclohexyl-4-hydroxy-2-propan-2-yl-hexanoyl]amino]-N-[(2S)-1-amino-5-carbamimidamido-1-oxo-pentan-2-yl]pentanediamide

>  <Synonyms>


>  <Type>
NON-POLYMER

>  <Formula>
C28 H52 N8 O6

>  <MolecularWeight>
596.762

>  <ModifiedDate>
2011-06-04

>  <Parent>


>  <OneLetterCode>


>  <SubcomponentList>


>  <AmbiguousFlag>
N

>  <InChI>
InChI=1S/C28H52N8O6/c1-16(2)19(15-23(38)22(34-17(3)37)14-18-8-5-4-6-9-18)26(41)36-21(11-12-24(29)39)27(42)35-20(25(30)40)10-7-13-33-28(31)32/h16,18-23,38H,4-15H2,1-3H3,(H2,29,39)(H2,30,40)(H,34,37)(H,35,42)(H,36,41)(H4,31,32,33)/t19-,20-,21-,22-,23-/m0/s1

>  <InChIKey>
XTOQWMLQBSGKOK-VUBDRERZSA-N

>  <SMILES>
CC(C)[C@H](C[C@@H]([C@H](CC1CCCCC1)NC(=O)C)O)C(=O)N[C@@H](CCC(=O)N)C(=O)N[C@@H](CCCNC(=N)N)C(=O)N

$$$$
