5ORJ_A4Q_B_404


 19 20  0  0  0  0  0  0  0  0999 V2000
   -4.1346  167.0165  399.1340 C   0  0  0  0  0  0  0  0  0  0  0  0
   -1.4137  166.3919  398.7735 C   0  0  0  0  0  0  0  0  0  0  0  0
   -1.8167  167.2801  399.7569 C   0  0  0  0  0  0  0  0  0  0  0  0
   -3.1533  167.5906  399.9386 C   0  0  0  0  0  0  0  0  0  0  0  0
   -4.8798  165.3829  397.1015 Cl  0  0  0  0  0  0  0  0  0  0  0  0
   -3.7171  166.1297  398.1461 C   0  0  0  0  0  0  0  0  0  0  0  0
   -2.3846  165.8186  397.9643 C   0  0  0  0  0  0  0  0  0  0  0  0
   -5.5704  167.3586  399.3605 C   0  0  0  0  0  0  0  0  0  0  0  0
   -6.4779  166.4550  399.9334 C   0  0  0  0  0  0  0  0  0  0  0  0
   -7.8088  166.8328  400.0767 C   0  0  0  0  0  0  0  0  0  0  0  0
   -8.2417  168.0797  399.6672 C   0  0  0  0  0  0  0  0  0  0  0  0
   -7.3520  168.9681  399.1120 C   0  0  0  0  0  0  0  0  0  0  0  0
   -6.0236  168.6148  398.9582 C   0  0  0  0  0  0  0  0  0  0  0  0
   -6.0475  165.0824  400.3960 C   0  0  0  0  0  0  0  0  0  0  0  0
   -5.2707  165.0791  401.6830 C   0  0  0  0  0  0  0  0  0  0  0  0
    0.0465  166.0503  398.5943 C   0  0  0  0  0  0  0  0  0  0  0  0
    0.4002  165.5824  397.2586 N   0  0  0  0  0  0  0  0  0  0  0  0
   -0.0979  164.7150  397.0592 H   0  0  0  0  0  0  0  0  0  0  0  0
    1.4054  165.4158  397.2118 H   0  0  0  0  0  0  0  0  0  0  0  0
 15 14  1  0  0  0
 14  9  1  0  0  0
 10  9  2  0  0  0
 10 11  1  0  0  0
  9  8  1  0  0  0
 11 12  2  0  0  0
  4  3  2  0  0  0
  4  1  1  0  0  0
  3  2  1  0  0  0
  8  1  1  0  0  0
  8 13  2  0  0  0
  1  6  2  0  0  0
 12 13  1  0  0  0
  2 16  1  0  0  0
  2  7  2  0  0  0
 16 17  1  0  0  0
  6  7  1  0  0  0
  6  5  1  0  0  0
 17 18  1  0  0  0
 17 19  1  0  0  0
M  END
> <minimizedAffinity>
-8.31974

$$$$
5ORJ_A4Q_B_404


 19 20  0  0  0  0  0  0  0  0999 V2000
   -3.4914  166.6456  398.9298 C   0  0  0  0  0  0  0  0  0  0  0  0
   -0.7792  166.1849  398.3341 C   0  0  0  0  0  0  0  0  0  0  0  0
   -1.7828  165.5394  397.6309 C   0  0  0  0  0  0  0  0  0  0  0  0
   -3.1180  165.7624  397.9197 C   0  0  0  0  0  0  0  0  0  0  0  0
   -2.8617  168.3903  400.9084 Cl  0  0  0  0  0  0  0  0  0  0  0  0
   -2.4742  167.2843  399.6326 C   0  0  0  0  0  0  0  0  0  0  0  0
   -1.1423  167.0634  399.3453 C   0  0  0  0  0  0  0  0  0  0  0  0
   -4.9394  166.8780  399.2113 C   0  0  0  0  0  0  0  0  0  0  0  0
   -5.6813  166.0519  400.0690 C   0  0  0  0  0  0  0  0  0  0  0  0
   -7.0359  166.3094  400.2512 C   0  0  0  0  0  0  0  0  0  0  0  0
   -7.6523  167.3636  399.6041 C   0  0  0  0  0  0  0  0  0  0  0  0
   -6.9249  168.1774  398.7689 C   0  0  0  0  0  0  0  0  0  0  0  0
   -5.5766  167.9407  398.5711 C   0  0  0  0  0  0  0  0  0  0  0  0
   -5.0475  164.8895  400.7972 C   0  0  0  0  0  0  0  0  0  0  0  0
   -4.4518  165.2460  402.1306 C   0  0  0  0  0  0  0  0  0  0  0  0
    0.6739  165.9440  398.0002 C   0  0  0  0  0  0  0  0  0  0  0  0
    1.2661  166.9414  397.1155 N   0  0  0  0  0  0  0  0  0  0  0  0
    0.7850  166.9266  396.2162 H   0  0  0  0  0  0  0  0  0  0  0  0
    2.2539  166.7286  396.9762 H   0  0  0  0  0  0  0  0  0  0  0  0
 15 14  1  0  0  0
 14  9  1  0  0  0
 10  9  2  0  0  0
 10 11  1  0  0  0
  9  8  1  0  0  0
 11 12  2  0  0  0
  4  3  2  0  0  0
  4  1  1  0  0  0
  3  2  1  0  0  0
  8  1  1  0  0  0
  8 13  2  0  0  0
  1  6  2  0  0  0
 12 13  1  0  0  0
  2 16  1  0  0  0
  2  7  2  0  0  0
 16 17  1  0  0  0
  6  7  1  0  0  0
  6  5  1  0  0  0
 17 18  1  0  0  0
 17 19  1  0  0  0
M  END
> <minimizedAffinity>
-8.19531

$$$$
5ORJ_A4Q_B_404


 19 20  0  0  0  0  0  0  0  0999 V2000
   -4.4692  166.5871  399.3527 C   0  0  0  0  0  0  0  0  0  0  0  0
   -1.7112  166.5577  398.7907 C   0  0  0  0  0  0  0  0  0  0  0  0
   -2.1956  167.1360  399.9523 C   0  0  0  0  0  0  0  0  0  0  0  0
   -3.5507  167.1531  400.2336 C   0  0  0  0  0  0  0  0  0  0  0  0
   -5.0539  165.2978  397.0395 Cl  0  0  0  0  0  0  0  0  0  0  0  0
   -3.9711  166.0137  398.1867 C   0  0  0  0  0  0  0  0  0  0  0  0
   -2.6199  165.9952  397.9052 C   0  0  0  0  0  0  0  0  0  0  0  0
   -5.9243  166.6073  399.6874 C   0  0  0  0  0  0  0  0  0  0  0  0
   -6.7467  167.7079  399.4031 C   0  0  0  0  0  0  0  0  0  0  0  0
   -8.0848  167.6674  399.7805 C   0  0  0  0  0  0  0  0  0  0  0  0
   -8.6086  166.5623  400.4241 C   0  0  0  0  0  0  0  0  0  0  0  0
   -7.8053  165.4809  400.6972 C   0  0  0  0  0  0  0  0  0  0  0  0
   -6.4712  165.4983  400.3325 C   0  0  0  0  0  0  0  0  0  0  0  0
   -6.2160  168.9357  398.7002 C   0  0  0  0  0  0  0  0  0  0  0  0
   -7.0065  170.1875  398.9610 C   0  0  0  0  0  0  0  0  0  0  0  0
   -0.2290  166.5327  398.5017 C   0  0  0  0  0  0  0  0  0  0  0  0
    0.1719  165.5803  397.4720 N   0  0  0  0  0  0  0  0  0  0  0  0
   -0.0508  164.6335  397.7793 H   0  0  0  0  0  0  0  0  0  0  0  0
    1.1759  165.6577  397.3096 H   0  0  0  0  0  0  0  0  0  0  0  0
 15 14  1  0  0  0
 14  9  1  0  0  0
 10  9  2  0  0  0
 10 11  1  0  0  0
  9  8  1  0  0  0
 11 12  2  0  0  0
  4  3  2  0  0  0
  4  1  1  0  0  0
  3  2  1  0  0  0
  8  1  1  0  0  0
  8 13  2  0  0  0
  1  6  2  0  0  0
 12 13  1  0  0  0
  2 16  1  0  0  0
  2  7  2  0  0  0
 16 17  1  0  0  0
  6  7  1  0  0  0
  6  5  1  0  0  0
 17 18  1  0  0  0
 17 19  1  0  0  0
M  END
> <minimizedAffinity>
-7.97806

$$$$
5ORJ_A4Q_B_404


 19 20  0  0  0  0  0  0  0  0999 V2000
   -4.1393  166.3685  398.9502 C   0  0  0  0  0  0  0  0  0  0  0  0
   -1.5034  166.3534  397.9626 C   0  0  0  0  0  0  0  0  0  0  0  0
   -2.5001  165.6163  397.3447 C   0  0  0  0  0  0  0  0  0  0  0  0
   -3.7978  165.6203  397.8261 C   0  0  0  0  0  0  0  0  0  0  0  0
   -3.4759  168.0487  400.9730 Cl  0  0  0  0  0  0  0  0  0  0  0  0
   -3.1284  167.1008  399.5653 C   0  0  0  0  0  0  0  0  0  0  0  0
   -1.8340  167.0983  399.0859 C   0  0  0  0  0  0  0  0  0  0  0  0
   -5.5499  166.3656  399.4401 C   0  0  0  0  0  0  0  0  0  0  0  0
   -6.4205  167.4462  399.2334 C   0  0  0  0  0  0  0  0  0  0  0  0
   -7.7089  167.3856  399.7539 C   0  0  0  0  0  0  0  0  0  0  0  0
   -8.1374  166.2798  400.4635 C   0  0  0  0  0  0  0  0  0  0  0  0
   -7.2874  165.2179  400.6609 C   0  0  0  0  0  0  0  0  0  0  0  0
   -6.0012  165.2555  400.1537 C   0  0  0  0  0  0  0  0  0  0  0  0
   -5.9940  168.6739  398.4627 C   0  0  0  0  0  0  0  0  0  0  0  0
   -6.7599  169.9197  398.8112 C   0  0  0  0  0  0  0  0  0  0  0  0
   -0.0941  166.3521  397.4195 C   0  0  0  0  0  0  0  0  0  0  0  0
    0.0549  166.9958  396.1189 N   0  0  0  0  0  0  0  0  0  0  0  0
   -0.4938  166.4894  395.4241 H   0  0  0  0  0  0  0  0  0  0  0  0
    1.0379  166.9889  395.8468 H   0  0  0  0  0  0  0  0  0  0  0  0
 15 14  1  0  0  0
 14  9  1  0  0  0
 10  9  2  0  0  0
 10 11  1  0  0  0
  9  8  1  0  0  0
 11 12  2  0  0  0
  4  3  2  0  0  0
  4  1  1  0  0  0
  3  2  1  0  0  0
  8  1  1  0  0  0
  8 13  2  0  0  0
  1  6  2  0  0  0
 12 13  1  0  0  0
  2 16  1  0  0  0
  2  7  2  0  0  0
 16 17  1  0  0  0
  6  7  1  0  0  0
  6  5  1  0  0  0
 17 18  1  0  0  0
 17 19  1  0  0  0
M  END
> <minimizedAffinity>
-7.82390

$$$$
5ORJ_A4Q_B_404


 19 20  0  0  0  0  0  0  0  0999 V2000
   -5.0418  166.5406  399.3171 C   0  0  0  0  0  0  0  0  0  0  0  0
   -7.7141  166.8010  400.1622 C   0  0  0  0  0  0  0  0  0  0  0  0
   -6.9993  165.6402  400.4069 C   0  0  0  0  0  0  0  0  0  0  0  0
   -5.6851  165.5069  399.9936 C   0  0  0  0  0  0  0  0  0  0  0  0
   -5.0411  169.0248  398.2291 Cl  0  0  0  0  0  0  0  0  0  0  0  0
   -5.7718  167.6999  399.0726 C   0  0  0  0  0  0  0  0  0  0  0  0
   -7.0823  167.8344  399.4848 C   0  0  0  0  0  0  0  0  0  0  0  0
   -3.6191  166.3755  398.8946 C   0  0  0  0  0  0  0  0  0  0  0  0
   -2.5452  166.8354  399.6716 C   0  0  0  0  0  0  0  0  0  0  0  0
   -1.2487  166.6796  399.1927 C   0  0  0  0  0  0  0  0  0  0  0  0
   -1.0096  166.0785  397.9714 C   0  0  0  0  0  0  0  0  0  0  0  0
   -2.0606  165.6217  397.2126 C   0  0  0  0  0  0  0  0  0  0  0  0
   -3.3588  165.7663  397.6673 C   0  0  0  0  0  0  0  0  0  0  0  0
   -2.7609  167.4970  401.0128 C   0  0  0  0  0  0  0  0  0  0  0  0
   -2.3597  168.9450  401.0595 C   0  0  0  0  0  0  0  0  0  0  0  0
   -9.1433  166.9398  400.6306 C   0  0  0  0  0  0  0  0  0  0  0  0
   -9.4569  166.1993  401.8477 N   0  0  0  0  0  0  0  0  0  0  0  0
   -9.3323  165.2010  401.6799 H   0  0  0  0  0  0  0  0  0  0  0  0
  -10.4240  166.3809  402.1164 H   0  0  0  0  0  0  0  0  0  0  0  0
 15 14  1  0  0  0
 14  9  1  0  0  0
 10  9  2  0  0  0
 10 11  1  0  0  0
  9  8  1  0  0  0
 11 12  2  0  0  0
  4  3  2  0  0  0
  4  1  1  0  0  0
  3  2  1  0  0  0
  8  1  1  0  0  0
  8 13  2  0  0  0
  1  6  2  0  0  0
 12 13  1  0  0  0
  2 16  1  0  0  0
  2  7  2  0  0  0
 16 17  1  0  0  0
  6  7  1  0  0  0
  6  5  1  0  0  0
 17 18  1  0  0  0
 17 19  1  0  0  0
M  END
> <minimizedAffinity>
-6.35949

$$$$
5ORJ_A4Q_B_404


 19 20  0  0  0  0  0  0  0  0999 V2000
   -4.8671  166.0946  399.2317 C   0  0  0  0  0  0  0  0  0  0  0  0
   -7.5046  165.7630  400.1572 C   0  0  0  0  0  0  0  0  0  0  0  0
   -7.2516  166.2408  398.8820 C   0  0  0  0  0  0  0  0  0  0  0  0
   -5.9567  166.4057  398.4219 C   0  0  0  0  0  0  0  0  0  0  0  0
   -3.8291  165.2204  401.5798 Cl  0  0  0  0  0  0  0  0  0  0  0  0
   -5.1337  165.6202  400.5125 C   0  0  0  0  0  0  0  0  0  0  0  0
   -6.4246  165.4546  400.9724 C   0  0  0  0  0  0  0  0  0  0  0  0
   -3.4806  166.2690  398.7053 C   0  0  0  0  0  0  0  0  0  0  0  0
   -2.6969  167.3930  399.0070 C   0  0  0  0  0  0  0  0  0  0  0  0
   -1.4284  167.5028  398.4472 C   0  0  0  0  0  0  0  0  0  0  0  0
   -0.9352  166.5227  397.6070 C   0  0  0  0  0  0  0  0  0  0  0  0
   -1.6995  165.4181  397.3161 C   0  0  0  0  0  0  0  0  0  0  0  0
   -2.9644  165.2871  397.8600 C   0  0  0  0  0  0  0  0  0  0  0  0
   -3.1961  168.4873  399.9216 C   0  0  0  0  0  0  0  0  0  0  0  0
   -2.4708  168.5739  401.2354 C   0  0  0  0  0  0  0  0  0  0  0  0
   -8.9222  165.5740  400.6428 C   0  0  0  0  0  0  0  0  0  0  0  0
   -9.4407  166.6772  401.4441 N   0  0  0  0  0  0  0  0  0  0  0  0
   -8.8836  166.7718  402.2933 H   0  0  0  0  0  0  0  0  0  0  0  0
  -10.4116  166.4892  401.6937 H   0  0  0  0  0  0  0  0  0  0  0  0
 15 14  1  0  0  0
 14  9  1  0  0  0
 10  9  2  0  0  0
 10 11  1  0  0  0
  9  8  1  0  0  0
 11 12  2  0  0  0
  4  3  2  0  0  0
  4  1  1  0  0  0
  3  2  1  0  0  0
  8  1  1  0  0  0
  8 13  2  0  0  0
  1  6  2  0  0  0
 12 13  1  0  0  0
  2 16  1  0  0  0
  2  7  2  0  0  0
 16 17  1  0  0  0
  6  7  1  0  0  0
  6  5  1  0  0  0
 17 18  1  0  0  0
 17 19  1  0  0  0
M  END
> <minimizedAffinity>
-6.08284

$$$$
5ORJ_A4Q_B_404


 19 20  0  0  0  0  0  0  0  0999 V2000
   -4.7097  166.8440  399.5920 C   0  0  0  0  0  0  0  0  0  0  0  0
   -7.4528  166.9139  400.2196 C   0  0  0  0  0  0  0  0  0  0  0  0
   -6.6542  165.8598  400.6313 C   0  0  0  0  0  0  0  0  0  0  0  0
   -5.3049  165.8205  400.3255 C   0  0  0  0  0  0  0  0  0  0  0  0
   -4.8552  169.2000  398.2565 Cl  0  0  0  0  0  0  0  0  0  0  0  0
   -5.5231  167.8952  399.1797 C   0  0  0  0  0  0  0  0  0  0  0  0
   -6.8688  167.9360  399.4845 C   0  0  0  0  0  0  0  0  0  0  0  0
   -3.2490  166.7833  399.2878 C   0  0  0  0  0  0  0  0  0  0  0  0
   -2.7060  165.8554  398.3863 C   0  0  0  0  0  0  0  0  0  0  0  0
   -1.3301  165.8346  398.1843 C   0  0  0  0  0  0  0  0  0  0  0  0
   -0.5000  166.7133  398.8542 C   0  0  0  0  0  0  0  0  0  0  0  0
   -1.0316  167.6270  399.7326 C   0  0  0  0  0  0  0  0  0  0  0  0
   -2.3969  167.6662  399.9508 C   0  0  0  0  0  0  0  0  0  0  0  0
   -3.5766  164.8777  397.6318 C   0  0  0  0  0  0  0  0  0  0  0  0
   -4.7214  165.5121  396.8924 C   0  0  0  0  0  0  0  0  0  0  0  0
   -8.9210  166.9524  400.5717 C   0  0  0  0  0  0  0  0  0  0  0  0
   -9.3030  166.0778  401.6750 N   0  0  0  0  0  0  0  0  0  0  0  0
   -9.1207  165.1076  401.4184 H   0  0  0  0  0  0  0  0  0  0  0  0
  -10.2963  166.1960  401.8742 H   0  0  0  0  0  0  0  0  0  0  0  0
 15 14  1  0  0  0
 14  9  1  0  0  0
 10  9  2  0  0  0
 10 11  1  0  0  0
  9  8  1  0  0  0
 11 12  2  0  0  0
  4  3  2  0  0  0
  4  1  1  0  0  0
  3  2  1  0  0  0
  8  1  1  0  0  0
  8 13  2  0  0  0
  1  6  2  0  0  0
 12 13  1  0  0  0
  2 16  1  0  0  0
  2  7  2  0  0  0
 16 17  1  0  0  0
  6  7  1  0  0  0
  6  5  1  0  0  0
 17 18  1  0  0  0
 17 19  1  0  0  0
M  END
> <minimizedAffinity>
-5.32688

$$$$
