5ORJ_A4Q_B_404
  RCSB PDB02231823433D
Coordinates from PDB:5ORJ:B:404 Model:1 without hydrogens
 17 18  0  0  0  0            999 V2000
   -5.4540  166.7130  399.6210   C 0  0  0  0  0  0  0  0  0  0  0  0
   -4.0080  166.5270  399.2980   C 0  0  0  0  0  0  0  0  0  0  0  0
    0.2070  166.0080  398.4790   C 0  0  0  0  0  0  0  0  0  0  0  0
   -1.2660  166.1940  398.7560   C 0  0  0  0  0  0  0  0  0  0  0  0
   -1.6930  166.9780  399.8150   C 0  0  0  0  0  0  0  0  0  0  0  0
   -3.0400  167.1450  400.0860   C 0  0  0  0  0  0  0  0  0  0  0  0
    0.5100  165.4240  397.1770   N 0  0  0  0  0  0  0  0  0  0  0  0
   -6.1190  165.9280  400.5750   C 0  0  0  0  0  0  0  0  0  0  0  0
   -7.4770  166.1350  400.7930   C 0  0  0  0  0  0  0  0  0  0  0  0
   -8.1710  167.1000  400.0880   C 0  0  0  0  0  0  0  0  0  0  0  0
   -7.5190  167.8740  399.1580   C 0  0  0  0  0  0  0  0  0  0  0  0
   -6.1690  167.6860  398.9230   C 0  0  0  0  0  0  0  0  0  0  0  0
   -5.3990  164.8630  401.3690   C 0  0  0  0  0  0  0  0  0  0  0  0
   -4.3880  165.3970  402.3450   C 0  0  0  0  0  0  0  0  0  0  0  0
   -4.7130  164.9530  397.2050  Cl 0  0  0  0  0  0  0  0  0  0  0  0
   -3.5670  165.7460  398.2340   C 0  0  0  0  0  0  0  0  0  0  0  0
   -2.2240  165.5780  397.9630   C 0  0  0  0  0  0  0  0  0  0  0  0
 14 13  1  0  0  0  0
 13  8  1  0  0  0  0
  9  8  2  0  0  0  0
  9 10  1  0  0  0  0
  8  1  1  0  0  0  0
 10 11  2  0  0  0  0
  6  5  2  0  0  0  0
  6  2  1  0  0  0  0
  5  4  1  0  0  0  0
  1  2  1  0  0  0  0
  1 12  2  0  0  0  0
  2 16  2  0  0  0  0
 11 12  1  0  0  0  0
  4  3  1  0  0  0  0
  4 17  2  0  0  0  0
  3  7  1  0  0  0  0
 16 17  1  0  0  0  0
 16 15  1  0  0  0  0
A    1
C7
A    2
C8
A    3
C12
A    4
C11
A    5
C10
A    6
C9
A    7
N
A    8
C2
A    9
C3
A   10
C4
A   11
C5
A   12
C6
A   13
C1
A   14
C
A   15
CL
A   16
C14
A   17
C13
M  END
>  <InstanceId>
5ORJ_A4Q_B_404

>  <ChemCompId>
A4Q

>  <PdbId>
5ORJ

>  <ChainId>
B

>  <ResidueNumber>
404

>  <InsertionCode>


>  <Model>
1

>  <AltIds>


>  <MissingHeavyAtoms>
0

>  <ObservedFormula>
C15 N Cl

>  <Name>
[3-chloranyl-4-(2-ethylphenyl)phenyl]methanamine

>  <SystematicName>
[3-chloranyl-4-(2-ethylphenyl)phenyl]methanamine

>  <Synonyms>


>  <Type>
NON-POLYMER

>  <Formula>
C15 H16 Cl N

>  <MolecularWeight>
245.747

>  <ModifiedDate>
2018-02-23

>  <Parent>


>  <OneLetterCode>


>  <SubcomponentList>


>  <AmbiguousFlag>
N

>  <InChI>
InChI=1S/C15H16ClN/c1-2-12-5-3-4-6-13(12)14-8-7-11(10-17)9-15(14)16/h3-9H,2,10,17H2,1H3

>  <InChIKey>
VCAZMKAHPZWESR-UHFFFAOYSA-N

>  <SMILES>
CCc1ccccc1c2ccc(cc2Cl)CN

$$$$
