2PWC_G3G_A_501


 46 50  0  0  0  0  0  0  0  0999 V2000
  -16.3652   19.7494   -5.5957 C   0  0  0  0  0  0  0  0  0  0  0  0
  -15.3545   18.8305   -4.8545 C   0  0  0  0  0  0  0  0  0  0  0  0
  -15.9198   17.4595   -4.7721 N   0  0  0  0  0  0  0  0  0  0  0  0
  -17.2870   17.4582   -5.3494 C   0  0  0  0  0  0  0  0  0  0  0  0
  -17.4387   18.7465   -6.1913 C   0  0  0  0  0  0  0  0  0  0  0  0
  -15.9616   17.1661   -3.7961 H   0  0  0  0  0  0  0  0  0  0  0  0
  -16.9798   20.8217   -4.7361 N   0  0  0  0  0  0  0  0  0  0  0  0
  -17.0294   22.4241   -5.4096 S   0  0  0  0  0  0  0  0  0  0  0  0
  -18.1696   23.1060   -4.8264 O   0  0  0  0  0  0  0  0  0  0  0  0
  -16.6445   22.4125   -6.8053 O   0  0  0  0  0  0  0  0  0  0  0  0
  -13.2168   23.3685   -4.1224 C   0  0  0  0  0  0  0  0  0  0  0  0
  -13.4710   24.1459   -2.9746 C   0  0  0  0  0  0  0  0  0  0  0  0
  -14.8058   24.3320   -2.5519 C   0  0  0  0  0  0  0  0  0  0  0  0
  -15.8769   23.8383   -3.3381 C   0  0  0  0  0  0  0  0  0  0  0  0
  -15.6312   23.0563   -4.4963 C   0  0  0  0  0  0  0  0  0  0  0  0
  -14.2894   22.8164   -4.8735 C   0  0  0  0  0  0  0  0  0  0  0  0
  -12.4509   24.6343   -2.2377 N   0  0  0  0  0  0  0  0  0  0  0  0
  -11.5217   24.5028   -2.5351 H   0  0  0  0  0  0  0  0  0  0  0  0
  -12.6362   25.1219   -1.4027 H   0  0  0  0  0  0  0  0  0  0  0  0
  -17.5013   20.6474   -3.3514 C   0  0  0  0  0  0  0  0  0  0  0  0
  -18.6977   19.7272   -3.1469 C   0  0  0  0  0  0  0  0  0  0  0  0
  -19.8329   19.8663   -4.0026 C   0  0  0  0  0  0  0  0  0  0  0  0
  -20.9517   19.0021   -3.8936 C   0  0  0  0  0  0  0  0  0  0  0  0
  -20.9538   18.0401   -2.8455 C   0  0  0  0  0  0  0  0  0  0  0  0
  -19.8490   17.9511   -1.9468 C   0  0  0  0  0  0  0  0  0  0  0  0
  -18.6994   18.7717   -2.1057 C   0  0  0  0  0  0  0  0  0  0  0  0
  -17.1009   18.4835   -7.6293 N   0  0  0  0  0  0  0  0  0  0  0  0
  -18.3787   18.3868   -8.7291 S   0  0  0  0  0  0  0  0  0  0  0  0
  -17.7674   17.9688  -10.0129 O   0  0  0  0  0  0  0  0  0  0  0  0
  -19.0705   19.6921   -8.7336 O   0  0  0  0  0  0  0  0  0  0  0  0
  -19.5395   17.1579   -8.2569 C   0  0  0  0  0  0  0  0  0  0  0  0
  -19.4197   15.7657   -8.5255 C   0  0  0  0  0  0  0  0  0  0  0  0
  -20.4197   14.8385   -8.1103 C   0  0  0  0  0  0  0  0  0  0  0  0
  -21.5762   15.2992   -7.3886 C   0  0  0  0  0  0  0  0  0  0  0  0
  -21.7198   16.6983   -7.1210 C   0  0  0  0  0  0  0  0  0  0  0  0
  -20.6947   17.5997   -7.5288 C   0  0  0  0  0  0  0  0  0  0  0  0
  -22.5525   14.4596   -6.9777 N   0  0  0  0  0  0  0  0  0  0  0  0
  -22.4757   13.4934   -7.1504 H   0  0  0  0  0  0  0  0  0  0  0  0
  -23.3403   14.8142   -6.5056 H   0  0  0  0  0  0  0  0  0  0  0  0
  -15.7294   18.3349   -8.1802 C   0  0  0  0  0  0  0  0  0  0  0  0
  -15.1453   19.7018   -8.5807 C   0  0  0  0  0  0  0  0  0  0  0  0
  -14.0070   20.2236   -7.8870 C   0  0  0  0  0  0  0  0  0  0  0  0
  -13.4302   21.4693   -8.2409 C   0  0  0  0  0  0  0  0  0  0  0  0
  -14.0397   22.2351   -9.2830 C   0  0  0  0  0  0  0  0  0  0  0  0
  -15.1689   21.7230   -9.9840 C   0  0  0  0  0  0  0  0  0  0  0  0
  -15.7305   20.4578   -9.6380 C   0  0  0  0  0  0  0  0  0  0  0  0
 11 12  2  0  0  0
 11 16  1  0  0  0
 12 13  1  0  0  0
 12 17  1  0  0  0
 13 14  2  0  0  0
 14 15  1  0  0  0
 15  8  1  0  0  0
 15 16  2  0  0  0
  8 10  2  0  0  0
  8  7  1  0  0  0
  8  9  2  0  0  0
  7  1  1  0  0  0
  7 20  1  0  0  0
 20 21  1  0  0  0
 21 26  1  0  0  0
 21 22  2  0  0  0
 22 23  1  0  0  0
 23 24  2  0  0  0
 24 25  1  0  0  0
 25 26  2  0  0  0
  1  5  1  0  0  0
  1  2  1  0  0  0
  2  3  1  0  0  0
  3  4  1  0  0  0
  4  5  1  0  0  0
  5 27  1  0  0  0
 27 28  1  0  0  0
 27 40  1  0  0  0
 40 41  1  0  0  0
 41 46  1  0  0  0
 41 42  2  0  0  0
 42 43  1  0  0  0
 43 44  2  0  0  0
 44 45  1  0  0  0
 45 46  2  0  0  0
 28 29  2  0  0  0
 28 31  1  0  0  0
 28 30  2  0  0  0
 31 32  1  0  0  0
 31 36  2  0  0  0
 32 33  2  0  0  0
 33 34  1  0  0  0
 34 37  1  0  0  0
 34 35  2  0  0  0
 35 36  1  0  0  0
  3  6  1  0  0  0
 37 38  1  0  0  0
 37 39  1  0  0  0
 17 18  1  0  0  0
 17 19  1  0  0  0
M  END
> <minimizedAffinity>
-11.19196

$$$$
2PWC_G3G_A_501


 46 50  0  0  0  0  0  0  0  0999 V2000
  -16.8017   19.6203   -6.4768 C   0  0  0  0  0  0  0  0  0  0  0  0
  -16.6479   18.2031   -5.8578 C   0  0  0  0  0  0  0  0  0  0  0  0
  -15.5320   18.2234   -4.8779 N   0  0  0  0  0  0  0  0  0  0  0  0
  -14.8953   19.5640   -4.8887 C   0  0  0  0  0  0  0  0  0  0  0  0
  -15.8773   20.5409   -5.5762 C   0  0  0  0  0  0  0  0  0  0  0  0
  -14.8422   17.5164   -5.1321 H   0  0  0  0  0  0  0  0  0  0  0  0
  -16.4603   19.7019   -7.9408 N   0  0  0  0  0  0  0  0  0  0  0  0
  -16.6511   18.2419   -8.8659 S   0  0  0  0  0  0  0  0  0  0  0  0
  -15.9962   17.1743   -8.1336 O   0  0  0  0  0  0  0  0  0  0  0  0
  -16.5519   18.5102  -10.2852 O   0  0  0  0  0  0  0  0  0  0  0  0
  -20.7431   18.7275   -8.5422 C   0  0  0  0  0  0  0  0  0  0  0  0
  -21.1386   17.5318   -7.9095 C   0  0  0  0  0  0  0  0  0  0  0  0
  -20.1506   16.5999   -7.5211 C   0  0  0  0  0  0  0  0  0  0  0  0
  -18.7931   16.8159   -7.8672 C   0  0  0  0  0  0  0  0  0  0  0  0
  -18.3854   18.0155   -8.5059 C   0  0  0  0  0  0  0  0  0  0  0  0
  -19.3734   18.9746   -8.8289 C   0  0  0  0  0  0  0  0  0  0  0  0
  -22.4345   17.3166   -7.5990 N   0  0  0  0  0  0  0  0  0  0  0  0
  -23.1206   17.9680   -7.8712 H   0  0  0  0  0  0  0  0  0  0  0  0
  -22.6935   16.5082   -7.1004 H   0  0  0  0  0  0  0  0  0  0  0  0
  -15.9306   20.8975   -8.6549 C   0  0  0  0  0  0  0  0  0  0  0  0
  -14.4382   21.1865   -8.5589 C   0  0  0  0  0  0  0  0  0  0  0  0
  -13.9582   22.4810   -8.9251 C   0  0  0  0  0  0  0  0  0  0  0  0
  -12.5875   22.8231   -8.8042 C   0  0  0  0  0  0  0  0  0  0  0  0
  -11.6798   21.8100   -8.3878 C   0  0  0  0  0  0  0  0  0  0  0  0
  -12.1521   20.4966   -8.0913 C   0  0  0  0  0  0  0  0  0  0  0  0
  -13.5367   20.1797   -8.1452 C   0  0  0  0  0  0  0  0  0  0  0  0
  -16.7371   21.2323   -4.5594 N   0  0  0  0  0  0  0  0  0  0  0  0
  -15.9627   21.9897   -3.2638 S   0  0  0  0  0  0  0  0  0  0  0  0
  -15.3596   20.8954   -2.4666 O   0  0  0  0  0  0  0  0  0  0  0  0
  -16.9614   22.8264   -2.5675 O   0  0  0  0  0  0  0  0  0  0  0  0
  -14.6658   23.0360   -3.8149 C   0  0  0  0  0  0  0  0  0  0  0  0
  -13.5125   22.6102   -4.5314 C   0  0  0  0  0  0  0  0  0  0  0  0
  -12.5022   23.5326   -4.9321 C   0  0  0  0  0  0  0  0  0  0  0  0
  -12.6410   24.9322   -4.6281 C   0  0  0  0  0  0  0  0  0  0  0  0
  -13.7885   25.3767   -3.8964 C   0  0  0  0  0  0  0  0  0  0  0  0
  -14.7929   24.4363   -3.5272 C   0  0  0  0  0  0  0  0  0  0  0  0
  -11.7085   25.8440   -4.9833 N   0  0  0  0  0  0  0  0  0  0  0  0
  -10.9110   25.5619   -5.4869 H   0  0  0  0  0  0  0  0  0  0  0  0
  -11.8269   26.7902   -4.7386 H   0  0  0  0  0  0  0  0  0  0  0  0
  -18.2177   21.3402   -4.6115 C   0  0  0  0  0  0  0  0  0  0  0  0
  -18.8829   20.0872   -4.0136 C   0  0  0  0  0  0  0  0  0  0  0  0
  -19.9637   19.4527   -4.7053 C   0  0  0  0  0  0  0  0  0  0  0  0
  -20.5873   18.2863   -4.1950 C   0  0  0  0  0  0  0  0  0  0  0  0
  -20.1506   17.7715   -2.9348 C   0  0  0  0  0  0  0  0  0  0  0  0
  -19.0721   18.3911   -2.2407 C   0  0  0  0  0  0  0  0  0  0  0  0
  -18.4335   19.5515   -2.7714 C   0  0  0  0  0  0  0  0  0  0  0  0
 11 12  2  0  0  0
 11 16  1  0  0  0
 12 13  1  0  0  0
 12 17  1  0  0  0
 13 14  2  0  0  0
 14 15  1  0  0  0
 15  8  1  0  0  0
 15 16  2  0  0  0
  8 10  2  0  0  0
  8  7  1  0  0  0
  8  9  2  0  0  0
  7  1  1  0  0  0
  7 20  1  0  0  0
 20 21  1  0  0  0
 21 26  1  0  0  0
 21 22  2  0  0  0
 22 23  1  0  0  0
 23 24  2  0  0  0
 24 25  1  0  0  0
 25 26  2  0  0  0
  1  5  1  0  0  0
  1  2  1  0  0  0
  2  3  1  0  0  0
  3  4  1  0  0  0
  4  5  1  0  0  0
  5 27  1  0  0  0
 27 28  1  0  0  0
 27 40  1  0  0  0
 40 41  1  0  0  0
 41 46  1  0  0  0
 41 42  2  0  0  0
 42 43  1  0  0  0
 43 44  2  0  0  0
 44 45  1  0  0  0
 45 46  2  0  0  0
 28 29  2  0  0  0
 28 31  1  0  0  0
 28 30  2  0  0  0
 31 32  1  0  0  0
 31 36  2  0  0  0
 32 33  2  0  0  0
 33 34  1  0  0  0
 34 37  1  0  0  0
 34 35  2  0  0  0
 35 36  1  0  0  0
  3  6  1  0  0  0
 37 38  1  0  0  0
 37 39  1  0  0  0
 17 18  1  0  0  0
 17 19  1  0  0  0
M  END
> <minimizedAffinity>
-10.37774

$$$$
2PWC_G3G_A_501


 46 50  0  0  0  0  0  0  0  0999 V2000
  -15.6914   21.0726   -5.2978 C   0  0  0  0  0  0  0  0  0  0  0  0
  -14.3673   20.4166   -4.8164 C   0  0  0  0  0  0  0  0  0  0  0  0
  -14.4813   18.9423   -4.9552 N   0  0  0  0  0  0  0  0  0  0  0  0
  -15.8465   18.5988   -5.4249 C   0  0  0  0  0  0  0  0  0  0  0  0
  -16.4813   19.8884   -5.9955 C   0  0  0  0  0  0  0  0  0  0  0  0
  -14.3105   18.5007   -4.0517 H   0  0  0  0  0  0  0  0  0  0  0  0
  -16.4859   21.7451   -4.2101 N   0  0  0  0  0  0  0  0  0  0  0  0
  -18.1805   21.9830   -4.5194 S   0  0  0  0  0  0  0  0  0  0  0  0
  -18.3836   21.8551   -5.9503 O   0  0  0  0  0  0  0  0  0  0  0  0
  -18.7278   23.0049   -3.6520 O   0  0  0  0  0  0  0  0  0  0  0  0
  -18.5896   18.5510   -2.2526 C   0  0  0  0  0  0  0  0  0  0  0  0
  -19.6761   17.9061   -2.8770 C   0  0  0  0  0  0  0  0  0  0  0  0
  -20.2479   18.4846   -4.0318 C   0  0  0  0  0  0  0  0  0  0  0  0
  -19.8068   19.7530   -4.4854 C   0  0  0  0  0  0  0  0  0  0  0  0
  -18.7150   20.4111   -3.8623 C   0  0  0  0  0  0  0  0  0  0  0  0
  -18.1030   19.7908   -2.7483 C   0  0  0  0  0  0  0  0  0  0  0  0
  -20.1101   16.7080   -2.4317 N   0  0  0  0  0  0  0  0  0  0  0  0
  -19.7095   16.3075   -1.6265 H   0  0  0  0  0  0  0  0  0  0  0  0
  -20.8274   16.2347   -2.9121 H   0  0  0  0  0  0  0  0  0  0  0  0
  -15.9479   22.2663   -2.9222 C   0  0  0  0  0  0  0  0  0  0  0  0
  -14.9238   23.3924   -2.9770 C   0  0  0  0  0  0  0  0  0  0  0  0
  -13.9771   23.5202   -1.9150 C   0  0  0  0  0  0  0  0  0  0  0  0
  -12.9674   24.5153   -1.9399 C   0  0  0  0  0  0  0  0  0  0  0  0
  -12.9732   25.4468   -3.0152 C   0  0  0  0  0  0  0  0  0  0  0  0
  -13.9645   25.3608   -4.0378 C   0  0  0  0  0  0  0  0  0  0  0  0
  -14.9298   24.3176   -4.0453 C   0  0  0  0  0  0  0  0  0  0  0  0
  -16.2636   19.9764   -7.4774 N   0  0  0  0  0  0  0  0  0  0  0  0
  -16.6685   18.6281   -8.4100 S   0  0  0  0  0  0  0  0  0  0  0  0
  -15.7738   17.5411   -7.9467 O   0  0  0  0  0  0  0  0  0  0  0  0
  -16.5453   19.0091   -9.8320 O   0  0  0  0  0  0  0  0  0  0  0  0
  -18.3252   18.1245   -8.1236 C   0  0  0  0  0  0  0  0  0  0  0  0
  -18.7247   17.0454   -7.2865 C   0  0  0  0  0  0  0  0  0  0  0  0
  -20.0979   16.7012   -7.1197 C   0  0  0  0  0  0  0  0  0  0  0  0
  -21.1191   17.4598   -7.7925 C   0  0  0  0  0  0  0  0  0  0  0  0
  -20.7348   18.5406   -8.6491 C   0  0  0  0  0  0  0  0  0  0  0  0
  -19.3564   18.8760   -8.7805 C   0  0  0  0  0  0  0  0  0  0  0  0
  -22.4334   17.1695   -7.6688 N   0  0  0  0  0  0  0  0  0  0  0  0
  -22.7216   16.4307   -7.0855 H   0  0  0  0  0  0  0  0  0  0  0  0
  -23.1025   17.6970   -8.1621 H   0  0  0  0  0  0  0  0  0  0  0  0
  -15.7526   21.1662   -8.2052 C   0  0  0  0  0  0  0  0  0  0  0  0
  -14.2143   21.2143   -8.1715 C   0  0  0  0  0  0  0  0  0  0  0  0
  -13.5382   22.4760   -8.1810 C   0  0  0  0  0  0  0  0  0  0  0  0
  -12.1239   22.5595   -8.1310 C   0  0  0  0  0  0  0  0  0  0  0  0
  -11.3659   21.3473   -8.1222 C   0  0  0  0  0  0  0  0  0  0  0  0
  -12.0282   20.0864   -8.1065 C   0  0  0  0  0  0  0  0  0  0  0  0
  -13.4527   20.0099   -8.1335 C   0  0  0  0  0  0  0  0  0  0  0  0
 11 12  2  0  0  0
 11 16  1  0  0  0
 12 13  1  0  0  0
 12 17  1  0  0  0
 13 14  2  0  0  0
 14 15  1  0  0  0
 15  8  1  0  0  0
 15 16  2  0  0  0
  8 10  2  0  0  0
  8  7  1  0  0  0
  8  9  2  0  0  0
  7  1  1  0  0  0
  7 20  1  0  0  0
 20 21  1  0  0  0
 21 26  1  0  0  0
 21 22  2  0  0  0
 22 23  1  0  0  0
 23 24  2  0  0  0
 24 25  1  0  0  0
 25 26  2  0  0  0
  1  5  1  0  0  0
  1  2  1  0  0  0
  2  3  1  0  0  0
  3  4  1  0  0  0
  4  5  1  0  0  0
  5 27  1  0  0  0
 27 28  1  0  0  0
 27 40  1  0  0  0
 40 41  1  0  0  0
 41 46  1  0  0  0
 41 42  2  0  0  0
 42 43  1  0  0  0
 43 44  2  0  0  0
 44 45  1  0  0  0
 45 46  2  0  0  0
 28 29  2  0  0  0
 28 31  1  0  0  0
 28 30  2  0  0  0
 31 32  1  0  0  0
 31 36  2  0  0  0
 32 33  2  0  0  0
 33 34  1  0  0  0
 34 37  1  0  0  0
 34 35  2  0  0  0
 35 36  1  0  0  0
  3  6  1  0  0  0
 37 38  1  0  0  0
 37 39  1  0  0  0
 17 18  1  0  0  0
 17 19  1  0  0  0
M  END
> <minimizedAffinity>
-10.23733

$$$$
2PWC_G3G_A_501


 46 50  0  0  0  0  0  0  0  0999 V2000
  -16.0892   21.6520   -4.0033 C   0  0  0  0  0  0  0  0  0  0  0  0
  -17.2782   22.0217   -3.0734 C   0  0  0  0  0  0  0  0  0  0  0  0
  -18.3313   22.6900   -3.8798 N   0  0  0  0  0  0  0  0  0  0  0  0
  -17.8519   22.8498   -5.2752 C   0  0  0  0  0  0  0  0  0  0  0  0
  -16.6479   21.8983   -5.4662 C   0  0  0  0  0  0  0  0  0  0  0  0
  -18.5347   23.6070   -3.4821 H   0  0  0  0  0  0  0  0  0  0  0  0
  -14.8201   22.4129   -3.7257 N   0  0  0  0  0  0  0  0  0  0  0  0
  -14.9470   23.7665   -2.6416 S   0  0  0  0  0  0  0  0  0  0  0  0
  -14.6974   23.2741   -1.2999 O   0  0  0  0  0  0  0  0  0  0  0  0
  -16.0046   24.6648   -3.0548 O   0  0  0  0  0  0  0  0  0  0  0  0
  -11.9767   25.8041   -4.6690 C   0  0  0  0  0  0  0  0  0  0  0  0
  -10.9030   25.7557   -3.7573 C   0  0  0  0  0  0  0  0  0  0  0  0
  -11.0605   25.0458   -2.5464 C   0  0  0  0  0  0  0  0  0  0  0  0
  -12.3187   24.4887   -2.2063 C   0  0  0  0  0  0  0  0  0  0  0  0
  -13.4062   24.5340   -3.1165 C   0  0  0  0  0  0  0  0  0  0  0  0
  -13.2183   25.1872   -4.3568 C   0  0  0  0  0  0  0  0  0  0  0  0
   -9.7108   26.3050   -4.0724 N   0  0  0  0  0  0  0  0  0  0  0  0
   -9.6044   26.7992   -4.9172 H   0  0  0  0  0  0  0  0  0  0  0  0
   -8.9478   26.2114   -3.4574 H   0  0  0  0  0  0  0  0  0  0  0  0
  -13.4843   22.1447   -4.3286 C   0  0  0  0  0  0  0  0  0  0  0  0
  -13.4339   21.6569   -5.7706 C   0  0  0  0  0  0  0  0  0  0  0  0
  -13.3381   22.6170   -6.8238 C   0  0  0  0  0  0  0  0  0  0  0  0
  -13.2331   22.2186   -8.1806 C   0  0  0  0  0  0  0  0  0  0  0  0
  -13.3136   20.8297   -8.4777 C   0  0  0  0  0  0  0  0  0  0  0  0
  -13.4816   19.8769   -7.4289 C   0  0  0  0  0  0  0  0  0  0  0  0
  -13.5139   20.2770   -6.0653 C   0  0  0  0  0  0  0  0  0  0  0  0
  -17.0952   20.5838   -6.0346 N   0  0  0  0  0  0  0  0  0  0  0  0
  -17.7094   20.5789   -7.6077 S   0  0  0  0  0  0  0  0  0  0  0  0
  -16.6162   21.0990   -8.4628 O   0  0  0  0  0  0  0  0  0  0  0  0
  -18.9616   21.3628   -7.6059 O   0  0  0  0  0  0  0  0  0  0  0  0
  -18.0878   18.9510   -8.1433 C   0  0  0  0  0  0  0  0  0  0  0  0
  -17.1563   18.0294   -8.6981 C   0  0  0  0  0  0  0  0  0  0  0  0
  -17.5565   16.7264   -9.1154 C   0  0  0  0  0  0  0  0  0  0  0  0
  -18.9257   16.3095   -8.9664 C   0  0  0  0  0  0  0  0  0  0  0  0
  -19.8794   17.2282   -8.4223 C   0  0  0  0  0  0  0  0  0  0  0  0
  -19.4474   18.5164   -7.9937 C   0  0  0  0  0  0  0  0  0  0  0  0
  -19.3538   15.0864   -9.3508 N   0  0  0  0  0  0  0  0  0  0  0  0
  -18.7162   14.4377   -9.7277 H   0  0  0  0  0  0  0  0  0  0  0  0
  -20.3030   14.8441   -9.2537 H   0  0  0  0  0  0  0  0  0  0  0  0
  -17.0118   19.2716   -5.3433 C   0  0  0  0  0  0  0  0  0  0  0  0
  -18.2139   19.0664   -4.4038 C   0  0  0  0  0  0  0  0  0  0  0  0
  -18.0271   18.4387   -3.1309 C   0  0  0  0  0  0  0  0  0  0  0  0
  -19.1069   18.2507   -2.2316 C   0  0  0  0  0  0  0  0  0  0  0  0
  -20.4160   18.6563   -2.6386 C   0  0  0  0  0  0  0  0  0  0  0  0
  -20.6124   19.2874   -3.9003 C   0  0  0  0  0  0  0  0  0  0  0  0
  -19.5173   19.4945   -4.7911 C   0  0  0  0  0  0  0  0  0  0  0  0
 11 12  2  0  0  0
 11 16  1  0  0  0
 12 13  1  0  0  0
 12 17  1  0  0  0
 13 14  2  0  0  0
 14 15  1  0  0  0
 15  8  1  0  0  0
 15 16  2  0  0  0
  8 10  2  0  0  0
  8  7  1  0  0  0
  8  9  2  0  0  0
  7  1  1  0  0  0
  7 20  1  0  0  0
 20 21  1  0  0  0
 21 26  1  0  0  0
 21 22  2  0  0  0
 22 23  1  0  0  0
 23 24  2  0  0  0
 24 25  1  0  0  0
 25 26  2  0  0  0
  1  5  1  0  0  0
  1  2  1  0  0  0
  2  3  1  0  0  0
  3  4  1  0  0  0
  4  5  1  0  0  0
  5 27  1  0  0  0
 27 28  1  0  0  0
 27 40  1  0  0  0
 40 41  1  0  0  0
 41 46  1  0  0  0
 41 42  2  0  0  0
 42 43  1  0  0  0
 43 44  2  0  0  0
 44 45  1  0  0  0
 45 46  2  0  0  0
 28 29  2  0  0  0
 28 31  1  0  0  0
 28 30  2  0  0  0
 31 32  1  0  0  0
 31 36  2  0  0  0
 32 33  2  0  0  0
 33 34  1  0  0  0
 34 37  1  0  0  0
 34 35  2  0  0  0
 35 36  1  0  0  0
  3  6  1  0  0  0
 37 38  1  0  0  0
 37 39  1  0  0  0
 17 18  1  0  0  0
 17 19  1  0  0  0
M  END
> <minimizedAffinity>
-10.04124

$$$$
2PWC_G3G_A_501


 46 50  0  0  0  0  0  0  0  0999 V2000
  -16.3316   19.8967   -6.2100 C   0  0  0  0  0  0  0  0  0  0  0  0
  -15.9204   18.5238   -5.6090 C   0  0  0  0  0  0  0  0  0  0  0  0
  -14.7579   18.7215   -4.7059 N   0  0  0  0  0  0  0  0  0  0  0  0
  -14.3373   20.1440   -4.7534 C   0  0  0  0  0  0  0  0  0  0  0  0
  -15.5019   20.9540   -5.3693 C   0  0  0  0  0  0  0  0  0  0  0  0
  -13.9860   18.1276   -5.0089 H   0  0  0  0  0  0  0  0  0  0  0  0
  -16.1055   20.0212   -7.6932 N   0  0  0  0  0  0  0  0  0  0  0  0
  -16.2385   18.5591   -8.6250 S   0  0  0  0  0  0  0  0  0  0  0  0
  -15.6041   17.4991   -7.8640 O   0  0  0  0  0  0  0  0  0  0  0  0
  -16.0799   18.8284  -10.0387 O   0  0  0  0  0  0  0  0  0  0  0  0
  -20.3420   19.0186   -8.4383 C   0  0  0  0  0  0  0  0  0  0  0  0
  -20.7559   17.7961   -7.8723 C   0  0  0  0  0  0  0  0  0  0  0  0
  -19.7793   16.8515   -7.4860 C   0  0  0  0  0  0  0  0  0  0  0  0
  -18.4106   17.0858   -7.7703 C   0  0  0  0  0  0  0  0  0  0  0  0
  -17.9842   18.3126   -8.3417 C   0  0  0  0  0  0  0  0  0  0  0  0
  -18.9634   19.2817   -8.6616 C   0  0  0  0  0  0  0  0  0  0  0  0
  -22.0618   17.5641   -7.6211 N   0  0  0  0  0  0  0  0  0  0  0  0
  -22.7399   18.2245   -7.8917 H   0  0  0  0  0  0  0  0  0  0  0  0
  -22.3360   16.7346   -7.1674 H   0  0  0  0  0  0  0  0  0  0  0  0
  -15.7323   21.2645   -8.4246 C   0  0  0  0  0  0  0  0  0  0  0  0
  -14.2516   21.5762   -8.5988 C   0  0  0  0  0  0  0  0  0  0  0  0
  -13.8709   22.7740   -9.2774 C   0  0  0  0  0  0  0  0  0  0  0  0
  -12.5092   23.1420   -9.4208 C   0  0  0  0  0  0  0  0  0  0  0  0
  -11.5187   22.2385   -8.9446 C   0  0  0  0  0  0  0  0  0  0  0  0
  -11.9008   21.0084   -8.3310 C   0  0  0  0  0  0  0  0  0  0  0  0
  -13.2680   20.6785   -8.1255 C   0  0  0  0  0  0  0  0  0  0  0  0
  -16.3880   21.5109   -4.2942 N   0  0  0  0  0  0  0  0  0  0  0  0
  -18.0494   21.5551   -4.5932 S   0  0  0  0  0  0  0  0  0  0  0  0
  -18.1860   21.6316   -6.0670 O   0  0  0  0  0  0  0  0  0  0  0  0
  -18.6159   22.6852   -3.8288 O   0  0  0  0  0  0  0  0  0  0  0  0
  -18.8377   20.0833   -4.0522 C   0  0  0  0  0  0  0  0  0  0  0  0
  -19.9460   19.4602   -4.6912 C   0  0  0  0  0  0  0  0  0  0  0  0
  -20.5294   18.2669   -4.1739 C   0  0  0  0  0  0  0  0  0  0  0  0
  -19.9901   17.6548   -2.9885 C   0  0  0  0  0  0  0  0  0  0  0  0
  -18.8835   18.2751   -2.3249 C   0  0  0  0  0  0  0  0  0  0  0  0
  -18.3066   19.4553   -2.8761 C   0  0  0  0  0  0  0  0  0  0  0  0
  -20.5111   16.5261   -2.4580 N   0  0  0  0  0  0  0  0  0  0  0  0
  -21.2724   16.0818   -2.8966 H   0  0  0  0  0  0  0  0  0  0  0  0
  -20.1294   16.1482   -1.6329 H   0  0  0  0  0  0  0  0  0  0  0  0
  -15.9324   21.9975   -2.9667 C   0  0  0  0  0  0  0  0  0  0  0  0
  -15.0114   23.2221   -3.1150 C   0  0  0  0  0  0  0  0  0  0  0  0
  -15.2351   24.1608   -4.1723 C   0  0  0  0  0  0  0  0  0  0  0  0
  -14.4197   25.3101   -4.3280 C   0  0  0  0  0  0  0  0  0  0  0  0
  -13.3212   25.4972   -3.4323 C   0  0  0  0  0  0  0  0  0  0  0  0
  -13.0929   24.5728   -2.3731 C   0  0  0  0  0  0  0  0  0  0  0  0
  -13.9316   23.4303   -2.2079 C   0  0  0  0  0  0  0  0  0  0  0  0
 11 12  2  0  0  0
 11 16  1  0  0  0
 12 13  1  0  0  0
 12 17  1  0  0  0
 13 14  2  0  0  0
 14 15  1  0  0  0
 15  8  1  0  0  0
 15 16  2  0  0  0
  8 10  2  0  0  0
  8  7  1  0  0  0
  8  9  2  0  0  0
  7  1  1  0  0  0
  7 20  1  0  0  0
 20 21  1  0  0  0
 21 26  1  0  0  0
 21 22  2  0  0  0
 22 23  1  0  0  0
 23 24  2  0  0  0
 24 25  1  0  0  0
 25 26  2  0  0  0
  1  5  1  0  0  0
  1  2  1  0  0  0
  2  3  1  0  0  0
  3  4  1  0  0  0
  4  5  1  0  0  0
  5 27  1  0  0  0
 27 28  1  0  0  0
 27 40  1  0  0  0
 40 41  1  0  0  0
 41 46  1  0  0  0
 41 42  2  0  0  0
 42 43  1  0  0  0
 43 44  2  0  0  0
 44 45  1  0  0  0
 45 46  2  0  0  0
 28 29  2  0  0  0
 28 31  1  0  0  0
 28 30  2  0  0  0
 31 32  1  0  0  0
 31 36  2  0  0  0
 32 33  2  0  0  0
 33 34  1  0  0  0
 34 37  1  0  0  0
 34 35  2  0  0  0
 35 36  1  0  0  0
  3  6  1  0  0  0
 37 38  1  0  0  0
 37 39  1  0  0  0
 17 18  1  0  0  0
 17 19  1  0  0  0
M  END
> <minimizedAffinity>
-9.91614

$$$$
2PWC_G3G_A_501


 46 50  0  0  0  0  0  0  0  0999 V2000
  -19.5025   18.9074   -4.6437 C   0  0  0  0  0  0  0  0  0  0  0  0
  -18.8961   18.1933   -3.4036 C   0  0  0  0  0  0  0  0  0  0  0  0
  -17.4218   18.1150   -3.5653 N   0  0  0  0  0  0  0  0  0  0  0  0
  -17.0443   18.6684   -4.8896 C   0  0  0  0  0  0  0  0  0  0  0  0
  -18.2442   19.4944   -5.4087 C   0  0  0  0  0  0  0  0  0  0  0  0
  -17.1235   17.1415   -3.5050 H   0  0  0  0  0  0  0  0  0  0  0  0
  -20.3581   18.0264   -5.5144 N   0  0  0  0  0  0  0  0  0  0  0  0
  -21.1056   16.6600   -4.7410 S   0  0  0  0  0  0  0  0  0  0  0  0
  -21.5588   17.0947   -3.4331 O   0  0  0  0  0  0  0  0  0  0  0  0
  -20.3979   15.4360   -5.0529 O   0  0  0  0  0  0  0  0  0  0  0  0
  -24.7801   17.5692   -6.4012 C   0  0  0  0  0  0  0  0  0  0  0  0
  -24.9000   16.5984   -7.4158 C   0  0  0  0  0  0  0  0  0  0  0  0
  -23.8890   15.6220   -7.5563 C   0  0  0  0  0  0  0  0  0  0  0  0
  -22.7178   15.6905   -6.7609 C   0  0  0  0  0  0  0  0  0  0  0  0
  -22.5868   16.6653   -5.7382 C   0  0  0  0  0  0  0  0  0  0  0  0
  -23.6360   17.5966   -5.5587 C   0  0  0  0  0  0  0  0  0  0  0  0
  -26.0062   16.5465   -8.1877 N   0  0  0  0  0  0  0  0  0  0  0  0
  -26.7090   17.2286   -8.0873 H   0  0  0  0  0  0  0  0  0  0  0  0
  -26.1102   15.8265   -8.8511 H   0  0  0  0  0  0  0  0  0  0  0  0
  -20.5823   18.1884   -6.9784 C   0  0  0  0  0  0  0  0  0  0  0  0
  -19.4941   17.7040   -7.9278 C   0  0  0  0  0  0  0  0  0  0  0  0
  -18.6438   18.6652   -8.5549 C   0  0  0  0  0  0  0  0  0  0  0  0
  -17.5802   18.2689   -9.4047 C   0  0  0  0  0  0  0  0  0  0  0  0
  -17.4328   16.8829   -9.6894 C   0  0  0  0  0  0  0  0  0  0  0  0
  -18.3287   15.9306   -9.1182 C   0  0  0  0  0  0  0  0  0  0  0  0
  -19.3480   16.3270   -8.2103 C   0  0  0  0  0  0  0  0  0  0  0  0
  -18.0924   20.9407   -5.0394 N   0  0  0  0  0  0  0  0  0  0  0  0
  -17.6011   22.0108   -6.2499 S   0  0  0  0  0  0  0  0  0  0  0  0
  -17.8079   23.3671   -5.6893 O   0  0  0  0  0  0  0  0  0  0  0  0
  -18.3647   21.6902   -7.4732 O   0  0  0  0  0  0  0  0  0  0  0  0
  -15.8933   21.8293   -6.6117 C   0  0  0  0  0  0  0  0  0  0  0  0
  -14.8393   22.5631   -5.9990 C   0  0  0  0  0  0  0  0  0  0  0  0
  -13.4770   22.3548   -6.3634 C   0  0  0  0  0  0  0  0  0  0  0  0
  -13.1384   21.3739   -7.3603 C   0  0  0  0  0  0  0  0  0  0  0  0
  -14.1869   20.6355   -7.9969 C   0  0  0  0  0  0  0  0  0  0  0  0
  -15.5378   20.8490   -7.5978 C   0  0  0  0  0  0  0  0  0  0  0  0
  -11.8625   21.1433   -7.7420 N   0  0  0  0  0  0  0  0  0  0  0  0
  -11.1248   21.6390   -7.3185 H   0  0  0  0  0  0  0  0  0  0  0  0
  -11.6708   20.4796   -8.4435 H   0  0  0  0  0  0  0  0  0  0  0  0
  -18.3722   21.5238   -3.7021 C   0  0  0  0  0  0  0  0  0  0  0  0
  -17.0841   22.0660   -3.0568 C   0  0  0  0  0  0  0  0  0  0  0  0
  -17.0522   23.3988   -2.5354 C   0  0  0  0  0  0  0  0  0  0  0  0
  -15.8901   23.9251   -1.9169 C   0  0  0  0  0  0  0  0  0  0  0  0
  -14.7145   23.1132   -1.8644 C   0  0  0  0  0  0  0  0  0  0  0  0
  -14.7367   21.7836   -2.3746 C   0  0  0  0  0  0  0  0  0  0  0  0
  -15.9167   21.2519   -2.9752 C   0  0  0  0  0  0  0  0  0  0  0  0
 11 12  2  0  0  0
 11 16  1  0  0  0
 12 13  1  0  0  0
 12 17  1  0  0  0
 13 14  2  0  0  0
 14 15  1  0  0  0
 15  8  1  0  0  0
 15 16  2  0  0  0
  8 10  2  0  0  0
  8  7  1  0  0  0
  8  9  2  0  0  0
  7  1  1  0  0  0
  7 20  1  0  0  0
 20 21  1  0  0  0
 21 26  1  0  0  0
 21 22  2  0  0  0
 22 23  1  0  0  0
 23 24  2  0  0  0
 24 25  1  0  0  0
 25 26  2  0  0  0
  1  5  1  0  0  0
  1  2  1  0  0  0
  2  3  1  0  0  0
  3  4  1  0  0  0
  4  5  1  0  0  0
  5 27  1  0  0  0
 27 28  1  0  0  0
 27 40  1  0  0  0
 40 41  1  0  0  0
 41 46  1  0  0  0
 41 42  2  0  0  0
 42 43  1  0  0  0
 43 44  2  0  0  0
 44 45  1  0  0  0
 45 46  2  0  0  0
 28 29  2  0  0  0
 28 31  1  0  0  0
 28 30  2  0  0  0
 31 32  1  0  0  0
 31 36  2  0  0  0
 32 33  2  0  0  0
 33 34  1  0  0  0
 34 37  1  0  0  0
 34 35  2  0  0  0
 35 36  1  0  0  0
  3  6  1  0  0  0
 37 38  1  0  0  0
 37 39  1  0  0  0
 17 18  1  0  0  0
 17 19  1  0  0  0
M  END
> <minimizedAffinity>
-9.86463

$$$$
2PWC_G3G_A_501


 46 50  0  0  0  0  0  0  0  0999 V2000
  -17.1337   19.1814   -6.8287 C   0  0  0  0  0  0  0  0  0  0  0  0
  -16.3815   19.5040   -8.1498 C   0  0  0  0  0  0  0  0  0  0  0  0
  -16.6765   20.9056   -8.5428 N   0  0  0  0  0  0  0  0  0  0  0  0
  -17.6519   21.4871   -7.5871 C   0  0  0  0  0  0  0  0  0  0  0  0
  -17.6623   20.5895   -6.3278 C   0  0  0  0  0  0  0  0  0  0  0  0
  -17.0708   20.9201   -9.4834 H   0  0  0  0  0  0  0  0  0  0  0  0
  -18.2312   18.1605   -6.9691 N   0  0  0  0  0  0  0  0  0  0  0  0
  -19.0514   18.1070   -8.5015 S   0  0  0  0  0  0  0  0  0  0  0  0
  -18.2293   17.3276   -9.4079 O   0  0  0  0  0  0  0  0  0  0  0  0
  -19.7024   19.3686   -8.7859 O   0  0  0  0  0  0  0  0  0  0  0  0
  -21.1757   14.7260   -7.4334 C   0  0  0  0  0  0  0  0  0  0  0  0
  -22.4484   15.2526   -7.1344 C   0  0  0  0  0  0  0  0  0  0  0  0
  -22.6819   16.6335   -7.3187 C   0  0  0  0  0  0  0  0  0  0  0  0
  -21.6170   17.4922   -7.6898 C   0  0  0  0  0  0  0  0  0  0  0  0
  -20.3318   16.9718   -7.9910 C   0  0  0  0  0  0  0  0  0  0  0  0
  -20.1256   15.5778   -7.8706 C   0  0  0  0  0  0  0  0  0  0  0  0
  -23.4571   14.4373   -6.7602 N   0  0  0  0  0  0  0  0  0  0  0  0
  -23.2909   13.4754   -6.6326 H   0  0  0  0  0  0  0  0  0  0  0  0
  -24.3588   14.8047   -6.6150 H   0  0  0  0  0  0  0  0  0  0  0  0
  -18.7091   17.2314   -5.9069 C   0  0  0  0  0  0  0  0  0  0  0  0
  -19.0616   17.8190   -4.5466 C   0  0  0  0  0  0  0  0  0  0  0  0
  -20.4324   18.0737   -4.2361 C   0  0  0  0  0  0  0  0  0  0  0  0
  -20.8236   18.5687   -2.9663 C   0  0  0  0  0  0  0  0  0  0  0  0
  -19.8016   18.8906   -2.0304 C   0  0  0  0  0  0  0  0  0  0  0  0
  -18.4285   18.7025   -2.3697 C   0  0  0  0  0  0  0  0  0  0  0  0
  -18.0461   18.1386   -3.6171 C   0  0  0  0  0  0  0  0  0  0  0  0
  -16.7122   21.1161   -5.2929 N   0  0  0  0  0  0  0  0  0  0  0  0
  -17.1988   22.4609   -4.3948 S   0  0  0  0  0  0  0  0  0  0  0  0
  -18.1393   21.9388   -3.3753 O   0  0  0  0  0  0  0  0  0  0  0  0
  -17.7490   23.4575   -5.3363 O   0  0  0  0  0  0  0  0  0  0  0  0
  -15.8439   23.1958   -3.5554 C   0  0  0  0  0  0  0  0  0  0  0  0
  -15.3094   22.7564   -2.3120 C   0  0  0  0  0  0  0  0  0  0  0  0
  -14.2089   23.4223   -1.6976 C   0  0  0  0  0  0  0  0  0  0  0  0
  -13.6013   24.5570   -2.3410 C   0  0  0  0  0  0  0  0  0  0  0  0
  -14.1344   25.0211   -3.5860 C   0  0  0  0  0  0  0  0  0  0  0  0
  -15.2210   24.3235   -4.1879 C   0  0  0  0  0  0  0  0  0  0  0  0
  -12.5592   25.2233   -1.7961 N   0  0  0  0  0  0  0  0  0  0  0  0
  -12.1758   24.9228   -0.9406 H   0  0  0  0  0  0  0  0  0  0  0  0
  -12.1834   26.0093   -2.2548 H   0  0  0  0  0  0  0  0  0  0  0  0
  -15.3866   20.5328   -4.9621 C   0  0  0  0  0  0  0  0  0  0  0  0
  -14.3465   20.8807   -6.0423 C   0  0  0  0  0  0  0  0  0  0  0  0
  -13.4526   19.8721   -6.5250 C   0  0  0  0  0  0  0  0  0  0  0  0
  -12.4953   20.1508   -7.5328 C   0  0  0  0  0  0  0  0  0  0  0  0
  -12.3970   21.4862   -8.0339 C   0  0  0  0  0  0  0  0  0  0  0  0
  -13.2852   22.4962   -7.5652 C   0  0  0  0  0  0  0  0  0  0  0  0
  -14.2620   22.2033   -6.5673 C   0  0  0  0  0  0  0  0  0  0  0  0
 11 12  2  0  0  0
 11 16  1  0  0  0
 12 13  1  0  0  0
 12 17  1  0  0  0
 13 14  2  0  0  0
 14 15  1  0  0  0
 15  8  1  0  0  0
 15 16  2  0  0  0
  8 10  2  0  0  0
  8  7  1  0  0  0
  8  9  2  0  0  0
  7  1  1  0  0  0
  7 20  1  0  0  0
 20 21  1  0  0  0
 21 26  1  0  0  0
 21 22  2  0  0  0
 22 23  1  0  0  0
 23 24  2  0  0  0
 24 25  1  0  0  0
 25 26  2  0  0  0
  1  5  1  0  0  0
  1  2  1  0  0  0
  2  3  1  0  0  0
  3  4  1  0  0  0
  4  5  1  0  0  0
  5 27  1  0  0  0
 27 28  1  0  0  0
 27 40  1  0  0  0
 40 41  1  0  0  0
 41 46  1  0  0  0
 41 42  2  0  0  0
 42 43  1  0  0  0
 43 44  2  0  0  0
 44 45  1  0  0  0
 45 46  2  0  0  0
 28 29  2  0  0  0
 28 31  1  0  0  0
 28 30  2  0  0  0
 31 32  1  0  0  0
 31 36  2  0  0  0
 32 33  2  0  0  0
 33 34  1  0  0  0
 34 37  1  0  0  0
 34 35  2  0  0  0
 35 36  1  0  0  0
  3  6  1  0  0  0
 37 38  1  0  0  0
 37 39  1  0  0  0
 17 18  1  0  0  0
 17 19  1  0  0  0
M  END
> <minimizedAffinity>
-9.82392

$$$$
2PWC_G3G_A_501


 46 50  0  0  0  0  0  0  0  0999 V2000
  -16.5015   20.2457   -5.3098 C   0  0  0  0  0  0  0  0  0  0  0  0
  -15.0564   19.8967   -4.8570 C   0  0  0  0  0  0  0  0  0  0  0  0
  -14.9206   18.4201   -4.7735 N   0  0  0  0  0  0  0  0  0  0  0  0
  -16.2316   17.7903   -5.0686 C   0  0  0  0  0  0  0  0  0  0  0  0
  -17.1150   18.8550   -5.7598 C   0  0  0  0  0  0  0  0  0  0  0  0
  -14.6201   18.1580   -3.8346 H   0  0  0  0  0  0  0  0  0  0  0  0
  -17.3321   20.9408   -4.2642 N   0  0  0  0  0  0  0  0  0  0  0  0
  -17.6693   22.6254   -4.5330 S   0  0  0  0  0  0  0  0  0  0  0  0
  -18.7017   23.0179   -3.5923 O   0  0  0  0  0  0  0  0  0  0  0  0
  -17.6107   22.9477   -5.9433 O   0  0  0  0  0  0  0  0  0  0  0  0
  -14.0096   24.4372   -3.8934 C   0  0  0  0  0  0  0  0  0  0  0  0
  -13.7937   24.2022   -2.5206 C   0  0  0  0  0  0  0  0  0  0  0  0
  -14.7339   23.4346   -1.7981 C   0  0  0  0  0  0  0  0  0  0  0  0
  -15.9324   23.0057   -2.4217 C   0  0  0  0  0  0  0  0  0  0  0  0
  -16.1598   23.2391   -3.8027 C   0  0  0  0  0  0  0  0  0  0  0  0
  -15.1799   23.9490   -4.5349 C   0  0  0  0  0  0  0  0  0  0  0  0
  -12.6619   24.6293   -1.9217 N   0  0  0  0  0  0  0  0  0  0  0  0
  -12.0087   25.1642   -2.4281 H   0  0  0  0  0  0  0  0  0  0  0  0
  -12.4897   24.4059   -0.9784 H   0  0  0  0  0  0  0  0  0  0  0  0
  -17.8470   20.3348   -3.0042 C   0  0  0  0  0  0  0  0  0  0  0  0
  -19.1201   19.5018   -3.0780 C   0  0  0  0  0  0  0  0  0  0  0  0
  -19.3474   18.4951   -2.0905 C   0  0  0  0  0  0  0  0  0  0  0  0
  -20.5393   17.7271   -2.0780 C   0  0  0  0  0  0  0  0  0  0  0  0
  -21.4732   17.9249   -3.1328 C   0  0  0  0  0  0  0  0  0  0  0  0
  -21.2101   18.8813   -4.1584 C   0  0  0  0  0  0  0  0  0  0  0  0
  -20.0477   19.6987   -4.1259 C   0  0  0  0  0  0  0  0  0  0  0  0
  -17.0077   18.7458   -7.2524 N   0  0  0  0  0  0  0  0  0  0  0  0
  -16.7421   20.1673   -8.1246 S   0  0  0  0  0  0  0  0  0  0  0  0
  -17.6533   21.1741   -7.5307 O   0  0  0  0  0  0  0  0  0  0  0  0
  -16.9520   19.8651   -9.5553 O   0  0  0  0  0  0  0  0  0  0  0  0
  -15.0961   20.7432   -7.9263 C   0  0  0  0  0  0  0  0  0  0  0  0
  -14.7205   22.0926   -7.6756 C   0  0  0  0  0  0  0  0  0  0  0  0
  -13.3533   22.4716   -7.5370 C   0  0  0  0  0  0  0  0  0  0  0  0
  -12.3158   21.4792   -7.6342 C   0  0  0  0  0  0  0  0  0  0  0  0
  -12.6744   20.1188   -7.8991 C   0  0  0  0  0  0  0  0  0  0  0  0
  -14.0497   19.7647   -8.0119 C   0  0  0  0  0  0  0  0  0  0  0  0
  -11.0059   21.7902   -7.5138 N   0  0  0  0  0  0  0  0  0  0  0  0
  -10.7352   22.7191   -7.3316 H   0  0  0  0  0  0  0  0  0  0  0  0
  -10.3226   21.0878   -7.6082 H   0  0  0  0  0  0  0  0  0  0  0  0
  -17.0798   17.4839   -8.0327 C   0  0  0  0  0  0  0  0  0  0  0  0
  -18.5365   17.0070   -8.1759 C   0  0  0  0  0  0  0  0  0  0  0  0
  -18.8304   15.8218   -8.9229 C   0  0  0  0  0  0  0  0  0  0  0  0
  -20.1574   15.3419   -9.0598 C   0  0  0  0  0  0  0  0  0  0  0  0
  -21.2223   16.0960   -8.4757 C   0  0  0  0  0  0  0  0  0  0  0  0
  -20.9409   17.2734   -7.7252 C   0  0  0  0  0  0  0  0  0  0  0  0
  -19.6007   17.7383   -7.5719 C   0  0  0  0  0  0  0  0  0  0  0  0
 11 12  2  0  0  0
 11 16  1  0  0  0
 12 13  1  0  0  0
 12 17  1  0  0  0
 13 14  2  0  0  0
 14 15  1  0  0  0
 15  8  1  0  0  0
 15 16  2  0  0  0
  8 10  2  0  0  0
  8  7  1  0  0  0
  8  9  2  0  0  0
  7  1  1  0  0  0
  7 20  1  0  0  0
 20 21  1  0  0  0
 21 26  1  0  0  0
 21 22  2  0  0  0
 22 23  1  0  0  0
 23 24  2  0  0  0
 24 25  1  0  0  0
 25 26  2  0  0  0
  1  5  1  0  0  0
  1  2  1  0  0  0
  2  3  1  0  0  0
  3  4  1  0  0  0
  4  5  1  0  0  0
  5 27  1  0  0  0
 27 28  1  0  0  0
 27 40  1  0  0  0
 40 41  1  0  0  0
 41 46  1  0  0  0
 41 42  2  0  0  0
 42 43  1  0  0  0
 43 44  2  0  0  0
 44 45  1  0  0  0
 45 46  2  0  0  0
 28 29  2  0  0  0
 28 31  1  0  0  0
 28 30  2  0  0  0
 31 32  1  0  0  0
 31 36  2  0  0  0
 32 33  2  0  0  0
 33 34  1  0  0  0
 34 37  1  0  0  0
 34 35  2  0  0  0
 35 36  1  0  0  0
  3  6  1  0  0  0
 37 38  1  0  0  0
 37 39  1  0  0  0
 17 18  1  0  0  0
 17 19  1  0  0  0
M  END
> <minimizedAffinity>
-9.79483

$$$$
2PWC_G3G_A_501


 46 50  0  0  0  0  0  0  0  0999 V2000
  -17.1451   20.6620   -5.3499 C   0  0  0  0  0  0  0  0  0  0  0  0
  -18.2373   21.7316   -5.6296 C   0  0  0  0  0  0  0  0  0  0  0  0
  -18.5695   22.4254   -4.3590 N   0  0  0  0  0  0  0  0  0  0  0  0
  -17.8076   21.8031   -3.2477 C   0  0  0  0  0  0  0  0  0  0  0  0
  -16.6593   20.9783   -3.8744 C   0  0  0  0  0  0  0  0  0  0  0  0
  -19.5693   22.3411   -4.1759 H   0  0  0  0  0  0  0  0  0  0  0  0
  -17.6067   19.2394   -5.5217 N   0  0  0  0  0  0  0  0  0  0  0  0
  -19.1002   18.8076   -4.7427 S   0  0  0  0  0  0  0  0  0  0  0  0
  -19.9455   19.9868   -4.7388 O   0  0  0  0  0  0  0  0  0  0  0  0
  -18.8662   17.9026   -3.6371 O   0  0  0  0  0  0  0  0  0  0  0  0
  -20.6713   17.5403   -8.3497 C   0  0  0  0  0  0  0  0  0  0  0  0
  -20.7064   16.1407   -8.1872 C   0  0  0  0  0  0  0  0  0  0  0  0
  -20.3104   15.5817   -6.9519 C   0  0  0  0  0  0  0  0  0  0  0  0
  -19.7780   16.4113   -5.9332 C   0  0  0  0  0  0  0  0  0  0  0  0
  -19.7368   17.8211   -6.0882 C   0  0  0  0  0  0  0  0  0  0  0  0
  -20.2004   18.3779   -7.3028 C   0  0  0  0  0  0  0  0  0  0  0  0
  -21.1935   15.3489   -9.1658 N   0  0  0  0  0  0  0  0  0  0  0  0
  -21.4686   15.7417  -10.0257 H   0  0  0  0  0  0  0  0  0  0  0  0
  -21.2738   14.3786   -9.0198 H   0  0  0  0  0  0  0  0  0  0  0  0
  -16.8817   18.1617   -6.2516 C   0  0  0  0  0  0  0  0  0  0  0  0
  -16.8854   18.2002   -7.7743 C   0  0  0  0  0  0  0  0  0  0  0  0
  -17.1160   16.9901   -8.4973 C   0  0  0  0  0  0  0  0  0  0  0  0
  -17.1844   16.9762   -9.9135 C   0  0  0  0  0  0  0  0  0  0  0  0
  -16.9293   18.1918  -10.6071 C   0  0  0  0  0  0  0  0  0  0  0  0
  -16.6282   19.3845   -9.8842 C   0  0  0  0  0  0  0  0  0  0  0  0
  -16.6320   19.4080   -8.4630 C   0  0  0  0  0  0  0  0  0  0  0  0
  -15.4010   21.7921   -3.9497 N   0  0  0  0  0  0  0  0  0  0  0  0
  -15.4987   23.4257   -3.5328 S   0  0  0  0  0  0  0  0  0  0  0  0
  -16.1496   23.4579   -2.2016 O   0  0  0  0  0  0  0  0  0  0  0  0
  -16.2099   24.1276   -4.6208 O   0  0  0  0  0  0  0  0  0  0  0  0
  -13.9049   24.1431   -3.3735 C   0  0  0  0  0  0  0  0  0  0  0  0
  -13.1230   24.1563   -2.1846 C   0  0  0  0  0  0  0  0  0  0  0  0
  -11.8381   24.7724   -2.1452 C   0  0  0  0  0  0  0  0  0  0  0  0
  -11.2956   25.3868   -3.3279 C   0  0  0  0  0  0  0  0  0  0  0  0
  -12.0738   25.3945   -4.5296 C   0  0  0  0  0  0  0  0  0  0  0  0
  -13.3456   24.7526   -4.5463 C   0  0  0  0  0  0  0  0  0  0  0  0
  -10.0844   25.9866   -3.3390 N   0  0  0  0  0  0  0  0  0  0  0  0
   -9.5313   25.9940   -2.5246 H   0  0  0  0  0  0  0  0  0  0  0  0
   -9.7553   26.4161   -4.1615 H   0  0  0  0  0  0  0  0  0  0  0  0
  -14.0605   21.2754   -4.3273 C   0  0  0  0  0  0  0  0  0  0  0  0
  -13.8957   21.2373   -5.8574 C   0  0  0  0  0  0  0  0  0  0  0  0
  -14.3312   22.3461   -6.6511 C   0  0  0  0  0  0  0  0  0  0  0  0
  -14.1777   22.3545   -8.0605 C   0  0  0  0  0  0  0  0  0  0  0  0
  -13.6196   21.2017   -8.6957 C   0  0  0  0  0  0  0  0  0  0  0  0
  -13.1773   20.0953   -7.9154 C   0  0  0  0  0  0  0  0  0  0  0  0
  -13.3136   20.1029   -6.4951 C   0  0  0  0  0  0  0  0  0  0  0  0
 11 12  2  0  0  0
 11 16  1  0  0  0
 12 13  1  0  0  0
 12 17  1  0  0  0
 13 14  2  0  0  0
 14 15  1  0  0  0
 15  8  1  0  0  0
 15 16  2  0  0  0
  8 10  2  0  0  0
  8  7  1  0  0  0
  8  9  2  0  0  0
  7  1  1  0  0  0
  7 20  1  0  0  0
 20 21  1  0  0  0
 21 26  1  0  0  0
 21 22  2  0  0  0
 22 23  1  0  0  0
 23 24  2  0  0  0
 24 25  1  0  0  0
 25 26  2  0  0  0
  1  5  1  0  0  0
  1  2  1  0  0  0
  2  3  1  0  0  0
  3  4  1  0  0  0
  4  5  1  0  0  0
  5 27  1  0  0  0
 27 28  1  0  0  0
 27 40  1  0  0  0
 40 41  1  0  0  0
 41 46  1  0  0  0
 41 42  2  0  0  0
 42 43  1  0  0  0
 43 44  2  0  0  0
 44 45  1  0  0  0
 45 46  2  0  0  0
 28 29  2  0  0  0
 28 31  1  0  0  0
 28 30  2  0  0  0
 31 32  1  0  0  0
 31 36  2  0  0  0
 32 33  2  0  0  0
 33 34  1  0  0  0
 34 37  1  0  0  0
 34 35  2  0  0  0
 35 36  1  0  0  0
  3  6  1  0  0  0
 37 38  1  0  0  0
 37 39  1  0  0  0
 17 18  1  0  0  0
 17 19  1  0  0  0
M  END
> <minimizedAffinity>
-9.72838

$$$$
2PWC_G3G_A_501


 46 50  0  0  0  0  0  0  0  0999 V2000
  -17.1375   20.3301   -6.4587 C   0  0  0  0  0  0  0  0  0  0  0  0
  -18.4561   21.1520   -6.4237 C   0  0  0  0  0  0  0  0  0  0  0  0
  -18.6392   21.7119   -5.0603 N   0  0  0  0  0  0  0  0  0  0  0  0
  -17.5472   21.2259   -4.1806 C   0  0  0  0  0  0  0  0  0  0  0  0
  -16.4192   20.6882   -5.0917 C   0  0  0  0  0  0  0  0  0  0  0  0
  -19.5386   21.4098   -4.6857 H   0  0  0  0  0  0  0  0  0  0  0  0
  -17.3305   18.8490   -6.6479 N   0  0  0  0  0  0  0  0  0  0  0  0
  -17.3684   18.2737   -8.2884 S   0  0  0  0  0  0  0  0  0  0  0  0
  -16.4309   17.1705   -8.3842 O   0  0  0  0  0  0  0  0  0  0  0  0
  -17.5160   19.3719   -9.2202 O   0  0  0  0  0  0  0  0  0  0  0  0
  -21.4256   17.5056   -8.1051 C   0  0  0  0  0  0  0  0  0  0  0  0
  -21.4616   16.0996   -8.0158 C   0  0  0  0  0  0  0  0  0  0  0  0
  -20.2461   15.3835   -7.9468 C   0  0  0  0  0  0  0  0  0  0  0  0
  -19.0102   16.0645   -8.0810 C   0  0  0  0  0  0  0  0  0  0  0  0
  -18.9636   17.4796   -8.1734 C   0  0  0  0  0  0  0  0  0  0  0  0
  -20.1842   18.1940   -8.1718 C   0  0  0  0  0  0  0  0  0  0  0  0
  -22.6398   15.4493   -7.9096 N   0  0  0  0  0  0  0  0  0  0  0  0
  -23.4853   15.9514   -7.9581 H   0  0  0  0  0  0  0  0  0  0  0  0
  -22.6536   14.4730   -7.7835 H   0  0  0  0  0  0  0  0  0  0  0  0
  -17.5397   17.8444   -5.5678 C   0  0  0  0  0  0  0  0  0  0  0  0
  -18.6058   18.1319   -4.5186 C   0  0  0  0  0  0  0  0  0  0  0  0
  -18.2313   18.1626   -3.1406 C   0  0  0  0  0  0  0  0  0  0  0  0
  -19.1699   18.4786   -2.1259 C   0  0  0  0  0  0  0  0  0  0  0  0
  -20.5252   18.6810   -2.5083 C   0  0  0  0  0  0  0  0  0  0  0  0
  -20.9103   18.5789   -3.8783 C   0  0  0  0  0  0  0  0  0  0  0  0
  -19.9520   18.3330   -4.8989 C   0  0  0  0  0  0  0  0  0  0  0  0
  -15.3959   21.7537   -5.3544 N   0  0  0  0  0  0  0  0  0  0  0  0
  -13.8727   21.2613   -5.8922 S   0  0  0  0  0  0  0  0  0  0  0  0
  -13.9985   19.8105   -6.1679 O   0  0  0  0  0  0  0  0  0  0  0  0
  -12.8849   21.6435   -4.8624 O   0  0  0  0  0  0  0  0  0  0  0  0
  -13.4326   22.0610   -7.3912 C   0  0  0  0  0  0  0  0  0  0  0  0
  -14.3047   22.2811   -8.4938 C   0  0  0  0  0  0  0  0  0  0  0  0
  -13.8564   22.9339   -9.6791 C   0  0  0  0  0  0  0  0  0  0  0  0
  -12.4990   23.4018   -9.7761 C   0  0  0  0  0  0  0  0  0  0  0  0
  -11.6039   23.1773   -8.6816 C   0  0  0  0  0  0  0  0  0  0  0  0
  -12.0846   22.5414   -7.5009 C   0  0  0  0  0  0  0  0  0  0  0  0
  -12.0266   24.0223  -10.8801 N   0  0  0  0  0  0  0  0  0  0  0  0
  -12.6235   24.1876  -11.6453 H   0  0  0  0  0  0  0  0  0  0  0  0
  -11.0855   24.3090  -10.9189 H   0  0  0  0  0  0  0  0  0  0  0  0
  -15.6177   23.2159   -5.2158 C   0  0  0  0  0  0  0  0  0  0  0  0
  -14.7677   23.7962   -4.0709 C   0  0  0  0  0  0  0  0  0  0  0  0
  -14.9493   23.3193   -2.7334 C   0  0  0  0  0  0  0  0  0  0  0  0
  -14.1713   23.8162   -1.6574 C   0  0  0  0  0  0  0  0  0  0  0  0
  -13.2224   24.8528   -1.9195 C   0  0  0  0  0  0  0  0  0  0  0  0
  -13.0292   25.3306   -3.2473 C   0  0  0  0  0  0  0  0  0  0  0  0
  -13.7994   24.8098   -4.3296 C   0  0  0  0  0  0  0  0  0  0  0  0
 11 12  2  0  0  0
 11 16  1  0  0  0
 12 13  1  0  0  0
 12 17  1  0  0  0
 13 14  2  0  0  0
 14 15  1  0  0  0
 15  8  1  0  0  0
 15 16  2  0  0  0
  8 10  2  0  0  0
  8  7  1  0  0  0
  8  9  2  0  0  0
  7  1  1  0  0  0
  7 20  1  0  0  0
 20 21  1  0  0  0
 21 26  1  0  0  0
 21 22  2  0  0  0
 22 23  1  0  0  0
 23 24  2  0  0  0
 24 25  1  0  0  0
 25 26  2  0  0  0
  1  5  1  0  0  0
  1  2  1  0  0  0
  2  3  1  0  0  0
  3  4  1  0  0  0
  4  5  1  0  0  0
  5 27  1  0  0  0
 27 28  1  0  0  0
 27 40  1  0  0  0
 40 41  1  0  0  0
 41 46  1  0  0  0
 41 42  2  0  0  0
 42 43  1  0  0  0
 43 44  2  0  0  0
 44 45  1  0  0  0
 45 46  2  0  0  0
 28 29  2  0  0  0
 28 31  1  0  0  0
 28 30  2  0  0  0
 31 32  1  0  0  0
 31 36  2  0  0  0
 32 33  2  0  0  0
 33 34  1  0  0  0
 34 37  1  0  0  0
 34 35  2  0  0  0
 35 36  1  0  0  0
  3  6  1  0  0  0
 37 38  1  0  0  0
 37 39  1  0  0  0
 17 18  1  0  0  0
 17 19  1  0  0  0
M  END
> <minimizedAffinity>
-9.64438

$$$$
