3PPR_4CS_A_401


 12 12  0  0  0  0  0  0  0  0999 V2000
   32.3766   14.4885    8.8375 C   0  0  0  0  0  0  0  0  0  0  0  0
   33.6528   15.2694    8.9993 C   0  0  0  0  0  0  0  0  0  0  0  0
   33.5490   16.6369    8.3999 C   0  0  0  0  0  0  0  0  0  0  0  0
   32.2857   17.2573    8.6881 N   0  0  0  0  0  0  0  0  0  0  0  0
   31.2763   16.5904    9.4162 C   0  0  0  0  0  0  0  0  0  0  0  0
   30.1104   17.3542   10.0154 C   0  0  0  0  0  0  0  0  0  0  0  0
   31.2346   15.1673    9.3687 N   0  0  0  0  0  0  0  0  0  0  0  0
   32.1191   18.1736    8.3689 H   0  0  0  0  0  0  0  0  0  0  0  0
   33.3295   12.4198    9.2517 O   0  0  0  0  0  0  0  0  0  0  0  0
   32.5207   13.1568    9.5618 C   0  0  0  0  0  0  0  0  0  0  0  0
   31.4935   12.7632   10.3034 O   0  0  0  0  0  0  0  0  0  0  0  0
   30.8328   13.3789   10.5531 H   0  0  0  0  0  0  0  0  0  0  0  0
  9 10  2  0  0  0
 10 11  1  0  0  0
 10  1  1  0  0  0
  1  2  1  0  0  0
  1  7  1  0  0  0
  2  3  1  0  0  0
  3  4  1  0  0  0
  4  5  1  0  0  0
  5  6  1  0  0  0
  5  7  2  0  0  0
 11 12  1  0  0  0
  4  8  1  0  0  0
M  END
> <minimizedAffinity>
-6.14683

$$$$
3PPR_4CS_A_401


 12 12  0  0  0  0  0  0  0  0999 V2000
   31.8003   13.0726    8.9069 C   0  0  0  0  0  0  0  0  0  0  0  0
   32.8816   12.8811    9.9359 C   0  0  0  0  0  0  0  0  0  0  0  0
   33.7488   14.0941   10.0651 C   0  0  0  0  0  0  0  0  0  0  0  0
   32.9826   15.3091   10.0459 N   0  0  0  0  0  0  0  0  0  0  0  0
   31.5810   15.3042    9.8742 C   0  0  0  0  0  0  0  0  0  0  0  0
   30.7486   16.5288   10.2046 C   0  0  0  0  0  0  0  0  0  0  0  0
   30.9904   14.2258    9.1549 N   0  0  0  0  0  0  0  0  0  0  0  0
   33.4479   16.1698   10.1555 H   0  0  0  0  0  0  0  0  0  0  0  0
   29.8785   11.8832    8.4062 O   0  0  0  0  0  0  0  0  0  0  0  0
   30.8983   11.8458    8.9084 C   0  0  0  0  0  0  0  0  0  0  0  0
   31.1911   10.8871    9.7773 O   0  0  0  0  0  0  0  0  0  0  0  0
   32.0344   10.8660   10.1851 H   0  0  0  0  0  0  0  0  0  0  0  0
  9 10  2  0  0  0
 10 11  1  0  0  0
 10  1  1  0  0  0
  1  2  1  0  0  0
  1  7  1  0  0  0
  2  3  1  0  0  0
  3  4  1  0  0  0
  4  5  1  0  0  0
  5  6  1  0  0  0
  5  7  2  0  0  0
 11 12  1  0  0  0
  4  8  1  0  0  0
M  END
> <minimizedAffinity>
-5.99405

$$$$
3PPR_4CS_A_401


 12 12  0  0  0  0  0  0  0  0999 V2000
   32.7296   15.3885    8.5056 C   0  0  0  0  0  0  0  0  0  0  0  0
   31.5011   15.0573    9.3091 C   0  0  0  0  0  0  0  0  0  0  0  0
   31.3947   13.5901    9.5851 C   0  0  0  0  0  0  0  0  0  0  0  0
   32.6623   13.0152    9.9409 N   0  0  0  0  0  0  0  0  0  0  0  0
   33.8481   13.7815    9.9651 C   0  0  0  0  0  0  0  0  0  0  0  0
   35.0923   13.2742   10.6696 C   0  0  0  0  0  0  0  0  0  0  0  0
   33.9376   14.9184    9.1116 N   0  0  0  0  0  0  0  0  0  0  0  0
   32.7054   12.0598   10.1744 H   0  0  0  0  0  0  0  0  0  0  0  0
   33.8427   17.4114    8.3383 O   0  0  0  0  0  0  0  0  0  0  0  0
   32.8265   16.9009    8.3575 C   0  0  0  0  0  0  0  0  0  0  0  0
   31.7221   17.5982    8.5896 O   0  0  0  0  0  0  0  0  0  0  0  0
   30.8901   17.1674    8.6031 H   0  0  0  0  0  0  0  0  0  0  0  0
  9 10  2  0  0  0
 10 11  1  0  0  0
 10  1  1  0  0  0
  1  2  1  0  0  0
  1  7  1  0  0  0
  2  3  1  0  0  0
  3  4  1  0  0  0
  4  5  1  0  0  0
  5  6  1  0  0  0
  5  7  2  0  0  0
 11 12  1  0  0  0
  4  8  1  0  0  0
M  END
> <minimizedAffinity>
-5.78664

$$$$
3PPR_4CS_A_401


 12 12  0  0  0  0  0  0  0  0999 V2000
   31.7699   15.5456    9.8762 C   0  0  0  0  0  0  0  0  0  0  0  0
   33.2257   15.4374    9.5108 C   0  0  0  0  0  0  0  0  0  0  0  0
   33.8395   14.1771   10.0351 C   0  0  0  0  0  0  0  0  0  0  0  0
   32.9711   13.0449    9.8689 N   0  0  0  0  0  0  0  0  0  0  0  0
   31.6792   13.1712    9.3129 C   0  0  0  0  0  0  0  0  0  0  0  0
   30.9189   11.9552    8.8179 C   0  0  0  0  0  0  0  0  0  0  0  0
   31.0012   14.4163    9.4507 N   0  0  0  0  0  0  0  0  0  0  0  0
   33.2856   12.1555   10.1506 H   0  0  0  0  0  0  0  0  0  0  0  0
   31.7634   17.3253    8.3956 O   0  0  0  0  0  0  0  0  0  0  0  0
   31.1906   16.7922    9.2211 C   0  0  0  0  0  0  0  0  0  0  0  0
   30.2004   17.4008    9.8606 O   0  0  0  0  0  0  0  0  0  0  0  0
   29.7352   16.9522   10.5390 H   0  0  0  0  0  0  0  0  0  0  0  0
  9 10  2  0  0  0
 10 11  1  0  0  0
 10  1  1  0  0  0
  1  2  1  0  0  0
  1  7  1  0  0  0
  2  3  1  0  0  0
  3  4  1  0  0  0
  4  5  1  0  0  0
  5  6  1  0  0  0
  5  7  2  0  0  0
 11 12  1  0  0  0
  4  8  1  0  0  0
M  END
> <minimizedAffinity>
-5.60223

$$$$
3PPR_4CS_A_401


 12 12  0  0  0  0  0  0  0  0999 V2000
   32.6476   12.3245   10.1018 C   0  0  0  0  0  0  0  0  0  0  0  0
   32.2484   11.6592    8.8123 C   0  0  0  0  0  0  0  0  0  0  0  0
   30.8056   11.8913    8.4889 C   0  0  0  0  0  0  0  0  0  0  0  0
   30.4053   13.2456    8.7525 N   0  0  0  0  0  0  0  0  0  0  0  0
   31.2975   14.1941    9.2985 C   0  0  0  0  0  0  0  0  0  0  0  0
   30.9897   15.6787    9.2440 C   0  0  0  0  0  0  0  0  0  0  0  0
   32.3646   13.7270   10.1183 N   0  0  0  0  0  0  0  0  0  0  0  0
   29.4825   13.5201    8.5466 H   0  0  0  0  0  0  0  0  0  0  0  0
   34.8416   13.0352   10.3023 O   0  0  0  0  0  0  0  0  0  0  0  0
   34.1445   12.1365   10.3084 C   0  0  0  0  0  0  0  0  0  0  0  0
   34.6213   10.9080   10.1566 O   0  0  0  0  0  0  0  0  0  0  0  0
   34.0378   10.1748   10.1632 H   0  0  0  0  0  0  0  0  0  0  0  0
  9 10  2  0  0  0
 10 11  1  0  0  0
 10  1  1  0  0  0
  1  2  1  0  0  0
  1  7  1  0  0  0
  2  3  1  0  0  0
  3  4  1  0  0  0
  4  5  1  0  0  0
  5  6  1  0  0  0
  5  7  2  0  0  0
 11 12  1  0  0  0
  4  8  1  0  0  0
M  END
> <minimizedAffinity>
-5.40859

$$$$
3PPR_4CS_A_401


 12 12  0  0  0  0  0  0  0  0999 V2000
   32.4059   11.5807    8.5034 C   0  0  0  0  0  0  0  0  0  0  0  0
   31.3442   10.9680    9.3763 C   0  0  0  0  0  0  0  0  0  0  0  0
   31.2620   11.6421   10.7101 C   0  0  0  0  0  0  0  0  0  0  0  0
   31.3646   13.0707   10.5992 N   0  0  0  0  0  0  0  0  0  0  0  0
   31.5669   13.7096    9.3563 C   0  0  0  0  0  0  0  0  0  0  0  0
   31.3224   15.1980    9.1935 C   0  0  0  0  0  0  0  0  0  0  0  0
   32.2393   12.9908    8.3266 N   0  0  0  0  0  0  0  0  0  0  0  0
   31.2917   13.6200   11.4130 H   0  0  0  0  0  0  0  0  0  0  0  0
   31.4127   10.9733    6.5025 O   0  0  0  0  0  0  0  0  0  0  0  0
   32.3576   10.9183    7.1331 C   0  0  0  0  0  0  0  0  0  0  0  0
   33.2991   10.0225    6.8664 O   0  0  0  0  0  0  0  0  0  0  0  0
   34.0735    9.9861    7.3926 H   0  0  0  0  0  0  0  0  0  0  0  0
  9 10  2  0  0  0
 10 11  1  0  0  0
 10  1  1  0  0  0
  1  2  1  0  0  0
  1  7  1  0  0  0
  2  3  1  0  0  0
  3  4  1  0  0  0
  4  5  1  0  0  0
  5  6  1  0  0  0
  5  7  2  0  0  0
 11 12  1  0  0  0
  4  8  1  0  0  0
M  END
> <minimizedAffinity>
-5.32252

$$$$
3PPR_4CS_A_401


 12 12  0  0  0  0  0  0  0  0999 V2000
   32.2818   14.2353    9.4812 C   0  0  0  0  0  0  0  0  0  0  0  0
   31.0231   14.9981    9.7951 C   0  0  0  0  0  0  0  0  0  0  0  0
   31.3181   16.3361   10.3974 C   0  0  0  0  0  0  0  0  0  0  0  0
   32.4116   16.9946    9.7385 N   0  0  0  0  0  0  0  0  0  0  0  0
   33.1219   16.3844    8.6816 C   0  0  0  0  0  0  0  0  0  0  0  0
   34.0196   17.1996    7.7699 C   0  0  0  0  0  0  0  0  0  0  0  0
   33.1799   14.9618    8.6369 N   0  0  0  0  0  0  0  0  0  0  0  0
   32.6733   17.8971   10.0322 H   0  0  0  0  0  0  0  0  0  0  0  0
   32.6337   12.4496    8.0507 O   0  0  0  0  0  0  0  0  0  0  0  0
   31.9072   12.9384    8.7765 C   0  0  0  0  0  0  0  0  0  0  0  0
   30.6236   12.6034    8.7794 O   0  0  0  0  0  0  0  0  0  0  0  0
   30.0340   13.0125    9.3818 H   0  0  0  0  0  0  0  0  0  0  0  0
  9 10  2  0  0  0
 10 11  1  0  0  0
 10  1  1  0  0  0
  1  2  1  0  0  0
  1  7  1  0  0  0
  2  3  1  0  0  0
  3  4  1  0  0  0
  4  5  1  0  0  0
  5  6  1  0  0  0
  5  7  2  0  0  0
 11 12  1  0  0  0
  4  8  1  0  0  0
M  END
> <minimizedAffinity>
-5.29641

$$$$
3PPR_4CS_A_401


 12 12  0  0  0  0  0  0  0  0999 V2000
   32.2752   12.7989    8.8541 C   0  0  0  0  0  0  0  0  0  0  0  0
   31.3889   11.8395    9.6015 C   0  0  0  0  0  0  0  0  0  0  0  0
   30.3044   11.2882    8.7296 C   0  0  0  0  0  0  0  0  0  0  0  0
   30.7862   10.9493    7.4194 N   0  0  0  0  0  0  0  0  0  0  0  0
   32.1262   11.1754    7.0360 C   0  0  0  0  0  0  0  0  0  0  0  0
   32.7113   10.5056    5.8069 C   0  0  0  0  0  0  0  0  0  0  0  0
   32.8441   12.2290    7.6714 N   0  0  0  0  0  0  0  0  0  0  0  0
   30.1643   10.5479    6.7702 H   0  0  0  0  0  0  0  0  0  0  0  0
   34.2391   12.5013   10.0430 O   0  0  0  0  0  0  0  0  0  0  0  0
   33.4119   13.2325    9.7700 C   0  0  0  0  0  0  0  0  0  0  0  0
   33.2220   14.3368   10.4801 O   0  0  0  0  0  0  0  0  0  0  0  0
   32.5374   14.9323   10.2461 H   0  0  0  0  0  0  0  0  0  0  0  0
  9 10  2  0  0  0
 10 11  1  0  0  0
 10  1  1  0  0  0
  1  2  1  0  0  0
  1  7  1  0  0  0
  2  3  1  0  0  0
  3  4  1  0  0  0
  4  5  1  0  0  0
  5  6  1  0  0  0
  5  7  2  0  0  0
 11 12  1  0  0  0
  4  8  1  0  0  0
M  END
> <minimizedAffinity>
-5.13017

$$$$
3PPR_4CS_A_401


 12 12  0  0  0  0  0  0  0  0999 V2000
   31.4259   12.8732    9.6417 C   0  0  0  0  0  0  0  0  0  0  0  0
   31.2603   14.2435    9.0422 C   0  0  0  0  0  0  0  0  0  0  0  0
   31.8647   15.3062    9.9056 C   0  0  0  0  0  0  0  0  0  0  0  0
   33.1355   14.9060   10.4429 N   0  0  0  0  0  0  0  0  0  0  0  0
   33.6821   13.6283   10.1924 C   0  0  0  0  0  0  0  0  0  0  0  0
   35.1484   13.3403   10.4542 C   0  0  0  0  0  0  0  0  0  0  0  0
   32.7899   12.5496    9.9288 N   0  0  0  0  0  0  0  0  0  0  0  0
   33.6397   15.5407   11.0016 H   0  0  0  0  0  0  0  0  0  0  0  0
   31.4970   11.5382    7.7518 O   0  0  0  0  0  0  0  0  0  0  0  0
   30.8857   11.8400    8.6622 C   0  0  0  0  0  0  0  0  0  0  0  0
   29.5871   11.5763    8.7242 O   0  0  0  0  0  0  0  0  0  0  0  0
   29.0931   11.8295    9.4791 H   0  0  0  0  0  0  0  0  0  0  0  0
  9 10  2  0  0  0
 10 11  1  0  0  0
 10  1  1  0  0  0
  1  2  1  0  0  0
  1  7  1  0  0  0
  2  3  1  0  0  0
  3  4  1  0  0  0
  4  5  1  0  0  0
  5  6  1  0  0  0
  5  7  2  0  0  0
 11 12  1  0  0  0
  4  8  1  0  0  0
M  END
> <minimizedAffinity>
-5.08983

$$$$
3PPR_4CS_A_401


 12 12  0  0  0  0  0  0  0  0999 V2000
   31.4698   12.1385    9.4172 C   0  0  0  0  0  0  0  0  0  0  0  0
   32.8587   11.6432    9.7177 C   0  0  0  0  0  0  0  0  0  0  0  0
   32.9721   10.1613    9.5410 C   0  0  0  0  0  0  0  0  0  0  0  0
   32.2854    9.7046    8.3647 N   0  0  0  0  0  0  0  0  0  0  0  0
   31.5626   10.5877    7.5330 C   0  0  0  0  0  0  0  0  0  0  0  0
   31.1479   10.1789    6.1321 C   0  0  0  0  0  0  0  0  0  0  0  0
   31.0140   11.7676    8.1125 N   0  0  0  0  0  0  0  0  0  0  0  0
   32.3197    8.7487    8.1317 H   0  0  0  0  0  0  0  0  0  0  0  0
   31.9253   14.2882    8.6889 O   0  0  0  0  0  0  0  0  0  0  0  0
   31.4590   13.6582    9.5131 C   0  0  0  0  0  0  0  0  0  0  0  0
   31.2049   14.1821   10.7050 O   0  0  0  0  0  0  0  0  0  0  0  0
   30.8206   13.6539   11.3767 H   0  0  0  0  0  0  0  0  0  0  0  0
  9 10  2  0  0  0
 10 11  1  0  0  0
 10  1  1  0  0  0
  1  2  1  0  0  0
  1  7  1  0  0  0
  2  3  1  0  0  0
  3  4  1  0  0  0
  4  5  1  0  0  0
  5  6  1  0  0  0
  5  7  2  0  0  0
 11 12  1  0  0  0
  4  8  1  0  0  0
M  END
> <minimizedAffinity>
-4.95639

$$$$
