1O0F_A3P_A_1301


 34 36  0  0  0  0  0  0  0  0999 V2000
   37.4455    5.6867   15.4556 C   0  0  0  0  0  0  0  0  0  0  0  0
   37.0360    5.4810   16.8373 O   0  0  0  0  0  0  0  0  0  0  0  0
   38.9460    5.3982   15.4001 C   0  0  0  0  0  0  0  0  0  0  0  0
   39.1907    4.6015   16.6815 C   0  0  0  0  0  0  0  0  0  0  0  0
   40.5038    4.7494   17.1829 O   0  0  0  0  0  0  0  0  0  0  0  0
   38.1785    5.2426   17.6280 C   0  0  0  0  0  0  0  0  0  0  0  0
   40.6868    5.6893   17.3380 H   0  0  0  0  0  0  0  0  0  0  0  0
   37.7949    4.4366   18.7902 N   0  0  0  0  0  0  0  0  0  0  0  0
   38.2889    3.2148   19.1876 C   0  0  0  0  0  0  0  0  0  0  0  0
   37.7765    2.7769   20.3119 N   0  0  0  0  0  0  0  0  0  0  0  0
   36.8753    3.7696   20.6760 C   0  0  0  0  0  0  0  0  0  0  0  0
   36.0210    3.9123   21.7858 C   0  0  0  0  0  0  0  0  0  0  0  0
   35.9356    3.0200   22.7785 N   0  0  0  0  0  0  0  0  0  0  0  0
   35.2497    5.0223   21.8459 N   0  0  0  0  0  0  0  0  0  0  0  0
   35.3425    5.9200   20.8555 C   0  0  0  0  0  0  0  0  0  0  0  0
   36.1127    5.9002   19.7671 N   0  0  0  0  0  0  0  0  0  0  0  0
   36.8647    4.7884   19.7388 C   0  0  0  0  0  0  0  0  0  0  0  0
   36.4871    2.2048   22.7564 H   0  0  0  0  0  0  0  0  0  0  0  0
   35.3212    3.1784   23.5313 H   0  0  0  0  0  0  0  0  0  0  0  0
   36.5895    4.8479   14.5415 C   0  0  0  0  0  0  0  0  0  0  0  0
   37.3399    3.7274   14.0566 O   0  0  0  0  0  0  0  0  0  0  0  0
   36.6912    2.6936   12.9793 P   0  0  0  0  0  0  0  0  0  0  0  0
   37.8264    1.7626   12.6014 O   0  0  0  0  0  0  0  0  0  0  0  0
   35.5389    2.0073   13.6856 O   0  0  0  0  0  0  0  0  0  0  0  0
   36.2428    3.5842   11.8329 O   0  0  0  0  0  0  0  0  0  0  0  0
   35.1177    1.3773   13.0801 H   0  0  0  0  0  0  0  0  0  0  0  0
   35.8396    3.0395   11.1389 H   0  0  0  0  0  0  0  0  0  0  0  0
   39.6797    6.6196   15.4140 O   0  0  0  0  0  0  0  0  0  0  0  0
   40.7891    6.8977   14.2764 P   0  0  0  0  0  0  0  0  0  0  0  0
   41.8350    5.8062   14.4231 O   0  0  0  0  0  0  0  0  0  0  0  0
   41.3416    8.2861   14.5571 O   0  0  0  0  0  0  0  0  0  0  0  0
   40.0492    6.8234   12.9517 O   0  0  0  0  0  0  0  0  0  0  0  0
   42.0178    8.5046   13.8969 H   0  0  0  0  0  0  0  0  0  0  0  0
   40.6709    6.9840   12.2247 H   0  0  0  0  0  0  0  0  0  0  0  0
 29 30  2  0  0  0
 29 31  1  0  0  0
 29 32  1  0  0  0
 29 28  1  0  0  0
 22 23  2  0  0  0
 22 24  1  0  0  0
 22 25  1  0  0  0
 22 21  1  0  0  0
 21 20  1  0  0  0
 20  1  1  0  0  0
  1  2  1  0  0  0
  1  3  1  0  0  0
  2  6  1  0  0  0
  3 28  1  0  0  0
  3  4  1  0  0  0
  4  5  1  0  0  0
  4  6  1  0  0  0
  6  8  1  0  0  0
  8  9  1  0  0  0
  8 17  1  0  0  0
  9 10  2  0  0  0
 10 11  1  0  0  0
 11 12  1  0  0  0
 11 17  2  0  0  0
 12 13  1  0  0  0
 12 14  2  0  0  0
 14 15  1  0  0  0
 15 16  2  0  0  0
 16 17  1  0  0  0
 31 33  1  0  0  0
 32 34  1  0  0  0
 24 26  1  0  0  0
 25 27  1  0  0  0
  5  7  1  0  0  0
 13 18  1  0  0  0
 13 19  1  0  0  0
M  END
> <minimizedAffinity>
-6.97117

$$$$
1O0F_A3P_A_1301


 34 36  0  0  0  0  0  0  0  0999 V2000
   37.9793    6.1365   15.4207 C   0  0  0  0  0  0  0  0  0  0  0  0
   37.2751    5.6228   16.5866 O   0  0  0  0  0  0  0  0  0  0  0  0
   39.3539    6.5933   15.9103 C   0  0  0  0  0  0  0  0  0  0  0  0
   39.4954    5.8785   17.2539 C   0  0  0  0  0  0  0  0  0  0  0  0
   40.3219    6.5732   18.1660 O   0  0  0  0  0  0  0  0  0  0  0  0
   38.0480    5.8691   17.7397 C   0  0  0  0  0  0  0  0  0  0  0  0
   39.9722    7.4676   18.3026 H   0  0  0  0  0  0  0  0  0  0  0  0
   37.7240    4.8635   18.7552 N   0  0  0  0  0  0  0  0  0  0  0  0
   38.2617    3.6071   18.9205 C   0  0  0  0  0  0  0  0  0  0  0  0
   37.7985    2.9665   19.9661 N   0  0  0  0  0  0  0  0  0  0  0  0
   36.8852    3.8534   20.5223 C   0  0  0  0  0  0  0  0  0  0  0  0
   36.0652    3.7764   21.6641 C   0  0  0  0  0  0  0  0  0  0  0  0
   36.0356    2.7241   22.4892 N   0  0  0  0  0  0  0  0  0  0  0  0
   35.2685    4.8352   21.9377 N   0  0  0  0  0  0  0  0  0  0  0  0
   35.3054    5.8927   21.1155 C   0  0  0  0  0  0  0  0  0  0  0  0
   36.0390    6.0844   20.0186 N   0  0  0  0  0  0  0  0  0  0  0  0
   36.8174    5.0177   19.7766 C   0  0  0  0  0  0  0  0  0  0  0  0
   36.6066    1.9422   22.3104 H   0  0  0  0  0  0  0  0  0  0  0  0
   35.4430    2.7314   23.2753 H   0  0  0  0  0  0  0  0  0  0  0  0
   37.9918    5.0924   14.3336 C   0  0  0  0  0  0  0  0  0  0  0  0
   36.9188    4.1634   14.5321 O   0  0  0  0  0  0  0  0  0  0  0  0
   35.9909    3.6833   13.2838 P   0  0  0  0  0  0  0  0  0  0  0  0
   36.9346    3.6216   12.0989 O   0  0  0  0  0  0  0  0  0  0  0  0
   35.4053    2.3417   13.6773 O   0  0  0  0  0  0  0  0  0  0  0  0
   34.9438    4.7770   13.1567 O   0  0  0  0  0  0  0  0  0  0  0  0
   34.8409    2.0124   12.9604 H   0  0  0  0  0  0  0  0  0  0  0  0
   34.3424    4.5654   12.4256 H   0  0  0  0  0  0  0  0  0  0  0  0
   39.3661    8.0075   16.0839 O   0  0  0  0  0  0  0  0  0  0  0  0
   39.7067    8.9631   14.8299 P   0  0  0  0  0  0  0  0  0  0  0  0
   38.3751    9.4718   14.3057 O   0  0  0  0  0  0  0  0  0  0  0  0
   40.4431    8.0923   13.8242 O   0  0  0  0  0  0  0  0  0  0  0  0
   40.5797   10.0759   15.3843 O   0  0  0  0  0  0  0  0  0  0  0  0
   40.6729    8.6221   13.0449 H   0  0  0  0  0  0  0  0  0  0  0  0
   40.8179   10.6867   14.6694 H   0  0  0  0  0  0  0  0  0  0  0  0
 29 30  2  0  0  0
 29 31  1  0  0  0
 29 32  1  0  0  0
 29 28  1  0  0  0
 22 23  2  0  0  0
 22 24  1  0  0  0
 22 25  1  0  0  0
 22 21  1  0  0  0
 21 20  1  0  0  0
 20  1  1  0  0  0
  1  2  1  0  0  0
  1  3  1  0  0  0
  2  6  1  0  0  0
  3 28  1  0  0  0
  3  4  1  0  0  0
  4  5  1  0  0  0
  4  6  1  0  0  0
  6  8  1  0  0  0
  8  9  1  0  0  0
  8 17  1  0  0  0
  9 10  2  0  0  0
 10 11  1  0  0  0
 11 12  1  0  0  0
 11 17  2  0  0  0
 12 13  1  0  0  0
 12 14  2  0  0  0
 14 15  1  0  0  0
 15 16  2  0  0  0
 16 17  1  0  0  0
 31 33  1  0  0  0
 32 34  1  0  0  0
 24 26  1  0  0  0
 25 27  1  0  0  0
  5  7  1  0  0  0
 13 18  1  0  0  0
 13 19  1  0  0  0
M  END
> <minimizedAffinity>
-6.95226

$$$$
1O0F_A3P_A_1301


 34 36  0  0  0  0  0  0  0  0999 V2000
   39.3314    7.0300   15.0484 C   0  0  0  0  0  0  0  0  0  0  0  0
   39.1305    6.6722   16.4450 O   0  0  0  0  0  0  0  0  0  0  0  0
   38.3594    6.1732   14.2366 C   0  0  0  0  0  0  0  0  0  0  0  0
   37.3484    5.7121   15.2863 C   0  0  0  0  0  0  0  0  0  0  0  0
   36.7513    4.4703   14.9715 O   0  0  0  0  0  0  0  0  0  0  0  0
   38.2386    5.5830   16.5200 C   0  0  0  0  0  0  0  0  0  0  0  0
   37.4419    3.7984   14.8600 H   0  0  0  0  0  0  0  0  0  0  0  0
   37.5464    5.6210   17.8110 N   0  0  0  0  0  0  0  0  0  0  0  0
   36.6629    6.5651   18.2833 C   0  0  0  0  0  0  0  0  0  0  0  0
   36.1674    6.2829   19.4636 N   0  0  0  0  0  0  0  0  0  0  0  0
   36.7723    5.0781   19.7992 C   0  0  0  0  0  0  0  0  0  0  0  0
   36.6542    4.2401   20.9244 C   0  0  0  0  0  0  0  0  0  0  0  0
   35.8479    4.4954   21.9606 N   0  0  0  0  0  0  0  0  0  0  0  0
   37.3990    3.1108   20.9473 N   0  0  0  0  0  0  0  0  0  0  0  0
   38.1997    2.8515   19.9047 C   0  0  0  0  0  0  0  0  0  0  0  0
   38.3894    3.5574   18.7894 N   0  0  0  0  0  0  0  0  0  0  0  0
   37.6363    4.6688   18.7980 C   0  0  0  0  0  0  0  0  0  0  0  0
   35.2965    5.3109   21.9660 H   0  0  0  0  0  0  0  0  0  0  0  0
   35.8058    3.8676   22.7178 H   0  0  0  0  0  0  0  0  0  0  0  0
   39.1803    8.5201   14.8785 C   0  0  0  0  0  0  0  0  0  0  0  0
   37.9112    8.8207   14.2844 O   0  0  0  0  0  0  0  0  0  0  0  0
   36.7412    9.5551   15.1457 P   0  0  0  0  0  0  0  0  0  0  0  0
   36.7585   10.9962   14.6754 O   0  0  0  0  0  0  0  0  0  0  0  0
   35.4537    8.8189   14.8327 O   0  0  0  0  0  0  0  0  0  0  0  0
   37.1852    9.3930   16.5897 O   0  0  0  0  0  0  0  0  0  0  0  0
   34.7224    9.2226   15.3258 H   0  0  0  0  0  0  0  0  0  0  0  0
   36.5343    9.8087   17.1767 H   0  0  0  0  0  0  0  0  0  0  0  0
   39.0449    5.0605   13.6689 O   0  0  0  0  0  0  0  0  0  0  0  0
   38.8191    4.6917   12.1149 P   0  0  0  0  0  0  0  0  0  0  0  0
   37.4834    3.9733   12.0355 O   0  0  0  0  0  0  0  0  0  0  0  0
   39.9898    3.8066   11.7175 O   0  0  0  0  0  0  0  0  0  0  0  0
   38.8145    6.0173   11.3728 O   0  0  0  0  0  0  0  0  0  0  0  0
   39.9025    3.5543   10.7849 H   0  0  0  0  0  0  0  0  0  0  0  0
   38.6813    5.8570   10.4254 H   0  0  0  0  0  0  0  0  0  0  0  0
 29 30  2  0  0  0
 29 31  1  0  0  0
 29 32  1  0  0  0
 29 28  1  0  0  0
 22 23  2  0  0  0
 22 24  1  0  0  0
 22 25  1  0  0  0
 22 21  1  0  0  0
 21 20  1  0  0  0
 20  1  1  0  0  0
  1  2  1  0  0  0
  1  3  1  0  0  0
  2  6  1  0  0  0
  3 28  1  0  0  0
  3  4  1  0  0  0
  4  5  1  0  0  0
  4  6  1  0  0  0
  6  8  1  0  0  0
  8  9  1  0  0  0
  8 17  1  0  0  0
  9 10  2  0  0  0
 10 11  1  0  0  0
 11 12  1  0  0  0
 11 17  2  0  0  0
 12 13  1  0  0  0
 12 14  2  0  0  0
 14 15  1  0  0  0
 15 16  2  0  0  0
 16 17  1  0  0  0
 31 33  1  0  0  0
 32 34  1  0  0  0
 24 26  1  0  0  0
 25 27  1  0  0  0
  5  7  1  0  0  0
 13 18  1  0  0  0
 13 19  1  0  0  0
M  END
> <minimizedAffinity>
-6.94733

$$$$
1O0F_A3P_A_1301


 34 36  0  0  0  0  0  0  0  0999 V2000
   39.0968    3.6149   13.2831 C   0  0  0  0  0  0  0  0  0  0  0  0
   40.4903    3.9852   13.0830 O   0  0  0  0  0  0  0  0  0  0  0  0
   38.2743    4.4949   12.3413 C   0  0  0  0  0  0  0  0  0  0  0  0
   39.3148    4.9896   11.3367 C   0  0  0  0  0  0  0  0  0  0  0  0
   38.9899    6.2462   10.7771 O   0  0  0  0  0  0  0  0  0  0  0  0
   40.5539    5.0996   12.2218 C   0  0  0  0  0  0  0  0  0  0  0  0
   38.8800    6.8977   11.4873 H   0  0  0  0  0  0  0  0  0  0  0  0
   41.8404    5.0876   11.5201 N   0  0  0  0  0  0  0  0  0  0  0  0
   42.7745    4.0784   11.4584 C   0  0  0  0  0  0  0  0  0  0  0  0
   43.8041    4.3560   10.6960 N   0  0  0  0  0  0  0  0  0  0  0  0
   43.5387    5.6385   10.2322 C   0  0  0  0  0  0  0  0  0  0  0  0
   44.2412    6.4958    9.3641 C   0  0  0  0  0  0  0  0  0  0  0  0
   45.4003    6.1750    8.7788 N   0  0  0  0  0  0  0  0  0  0  0  0
   43.7021    7.7102    9.1088 N   0  0  0  0  0  0  0  0  0  0  0  0
   42.5365    8.0272    9.6886 C   0  0  0  0  0  0  0  0  0  0  0  0
   41.7797    7.3038   10.5145 N   0  0  0  0  0  0  0  0  0  0  0  0
   42.3415    6.1065   10.7458 C   0  0  0  0  0  0  0  0  0  0  0  0
   45.8116    5.2970    8.9496 H   0  0  0  0  0  0  0  0  0  0  0  0
   45.8422    6.8169    8.1772 H   0  0  0  0  0  0  0  0  0  0  0  0
   38.9330    2.1289   13.0909 C   0  0  0  0  0  0  0  0  0  0  0  0
   37.7776    1.8619   12.2862 O   0  0  0  0  0  0  0  0  0  0  0  0
   36.6970    0.7282   12.7302 P   0  0  0  0  0  0  0  0  0  0  0  0
   37.4505   -0.1731   13.6885 O   0  0  0  0  0  0  0  0  0  0  0  0
   35.5357    1.4687   13.3630 O   0  0  0  0  0  0  0  0  0  0  0  0
   36.3262    0.0380   11.4283 O   0  0  0  0  0  0  0  0  0  0  0  0
   34.8613    0.8314   13.6457 H   0  0  0  0  0  0  0  0  0  0  0  0
   35.6775   -0.6609   11.6063 H   0  0  0  0  0  0  0  0  0  0  0  0
   37.7061    5.5849   13.0618 O   0  0  0  0  0  0  0  0  0  0  0  0
   36.2164    5.4525   13.6663 P   0  0  0  0  0  0  0  0  0  0  0  0
   35.4980    6.7451   13.3201 O   0  0  0  0  0  0  0  0  0  0  0  0
   36.3855    5.2543   15.1643 O   0  0  0  0  0  0  0  0  0  0  0  0
   35.6010    4.2418   12.9856 O   0  0  0  0  0  0  0  0  0  0  0  0
   35.5131    5.1685   15.5796 H   0  0  0  0  0  0  0  0  0  0  0  0
   34.6970    4.1118   13.3124 H   0  0  0  0  0  0  0  0  0  0  0  0
 29 30  2  0  0  0
 29 31  1  0  0  0
 29 32  1  0  0  0
 29 28  1  0  0  0
 22 23  2  0  0  0
 22 24  1  0  0  0
 22 25  1  0  0  0
 22 21  1  0  0  0
 21 20  1  0  0  0
 20  1  1  0  0  0
  1  2  1  0  0  0
  1  3  1  0  0  0
  2  6  1  0  0  0
  3 28  1  0  0  0
  3  4  1  0  0  0
  4  5  1  0  0  0
  4  6  1  0  0  0
  6  8  1  0  0  0
  8  9  1  0  0  0
  8 17  1  0  0  0
  9 10  2  0  0  0
 10 11  1  0  0  0
 11 12  1  0  0  0
 11 17  2  0  0  0
 12 13  1  0  0  0
 12 14  2  0  0  0
 14 15  1  0  0  0
 15 16  2  0  0  0
 16 17  1  0  0  0
 31 33  1  0  0  0
 32 34  1  0  0  0
 24 26  1  0  0  0
 25 27  1  0  0  0
  5  7  1  0  0  0
 13 18  1  0  0  0
 13 19  1  0  0  0
M  END
> <minimizedAffinity>
-6.81562

$$$$
1O0F_A3P_A_1301


 34 36  0  0  0  0  0  0  0  0999 V2000
   37.2317    6.2536   13.6591 C   0  0  0  0  0  0  0  0  0  0  0  0
   36.9640    7.4458   14.4503 O   0  0  0  0  0  0  0  0  0  0  0  0
   38.7517    6.0931   13.6166 C   0  0  0  0  0  0  0  0  0  0  0  0
   39.2221    6.9644   14.7811 C   0  0  0  0  0  0  0  0  0  0  0  0
   40.5219    7.4863   14.5919 O   0  0  0  0  0  0  0  0  0  0  0  0
   38.1841    8.0837   14.7533 C   0  0  0  0  0  0  0  0  0  0  0  0
   40.5491    7.9949   13.7664 H   0  0  0  0  0  0  0  0  0  0  0  0
   38.0307    8.8403   15.9989 N   0  0  0  0  0  0  0  0  0  0  0  0
   38.4420   10.1238   16.2792 C   0  0  0  0  0  0  0  0  0  0  0  0
   38.1029   10.5390   17.4754 N   0  0  0  0  0  0  0  0  0  0  0  0
   37.4331    9.4539   18.0269 C   0  0  0  0  0  0  0  0  0  0  0  0
   36.8079    9.2610   19.2735 C   0  0  0  0  0  0  0  0  0  0  0  0
   36.7473   10.1960   20.2280 N   0  0  0  0  0  0  0  0  0  0  0  0
   36.2329    8.0590   19.5083 N   0  0  0  0  0  0  0  0  0  0  0  0
   36.2863    7.1260   18.5480 C   0  0  0  0  0  0  0  0  0  0  0  0
   36.8373    7.1925   17.3355 N   0  0  0  0  0  0  0  0  0  0  0  0
   37.3969    8.3962   17.1346 C   0  0  0  0  0  0  0  0  0  0  0  0
   37.1585   11.0781   20.0797 H   0  0  0  0  0  0  0  0  0  0  0  0
   36.2915   10.0021   21.0788 H   0  0  0  0  0  0  0  0  0  0  0  0
   36.4716    5.0836   14.2296 C   0  0  0  0  0  0  0  0  0  0  0  0
   37.1836    3.8655   13.9784 O   0  0  0  0  0  0  0  0  0  0  0  0
   36.5902    2.7502   12.9517 P   0  0  0  0  0  0  0  0  0  0  0  0
   37.7823    1.8906   12.5798 O   0  0  0  0  0  0  0  0  0  0  0  0
   35.5053    2.0081   13.7067 O   0  0  0  0  0  0  0  0  0  0  0  0
   36.0552    3.5651   11.7862 O   0  0  0  0  0  0  0  0  0  0  0  0
   35.1189    1.3284   13.1325 H   0  0  0  0  0  0  0  0  0  0  0  0
   35.6788    2.9686   11.1204 H   0  0  0  0  0  0  0  0  0  0  0  0
   39.2607    6.5822   12.3789 O   0  0  0  0  0  0  0  0  0  0  0  0
   39.7528    5.5401   11.2502 P   0  0  0  0  0  0  0  0  0  0  0  0
   40.0068    6.3571    9.9954 O   0  0  0  0  0  0  0  0  0  0  0  0
   38.6232    4.5363   11.0822 O   0  0  0  0  0  0  0  0  0  0  0  0
   41.0185    4.9043   11.7995 O   0  0  0  0  0  0  0  0  0  0  0  0
   38.8693    3.8821   10.4097 H   0  0  0  0  0  0  0  0  0  0  0  0
   41.3627    4.2631   11.1582 H   0  0  0  0  0  0  0  0  0  0  0  0
 29 30  2  0  0  0
 29 31  1  0  0  0
 29 32  1  0  0  0
 29 28  1  0  0  0
 22 23  2  0  0  0
 22 24  1  0  0  0
 22 25  1  0  0  0
 22 21  1  0  0  0
 21 20  1  0  0  0
 20  1  1  0  0  0
  1  2  1  0  0  0
  1  3  1  0  0  0
  2  6  1  0  0  0
  3 28  1  0  0  0
  3  4  1  0  0  0
  4  5  1  0  0  0
  4  6  1  0  0  0
  6  8  1  0  0  0
  8  9  1  0  0  0
  8 17  1  0  0  0
  9 10  2  0  0  0
 10 11  1  0  0  0
 11 12  1  0  0  0
 11 17  2  0  0  0
 12 13  1  0  0  0
 12 14  2  0  0  0
 14 15  1  0  0  0
 15 16  2  0  0  0
 16 17  1  0  0  0
 31 33  1  0  0  0
 32 34  1  0  0  0
 24 26  1  0  0  0
 25 27  1  0  0  0
  5  7  1  0  0  0
 13 18  1  0  0  0
 13 19  1  0  0  0
M  END
> <minimizedAffinity>
-6.81432

$$$$
1O0F_A3P_A_1301


 34 36  0  0  0  0  0  0  0  0999 V2000
   37.2257    6.3966   15.4776 C   0  0  0  0  0  0  0  0  0  0  0  0
   36.5951    6.5666   16.7785 O   0  0  0  0  0  0  0  0  0  0  0  0
   38.7019    6.1021   15.7460 C   0  0  0  0  0  0  0  0  0  0  0  0
   38.7060    5.6750   17.2136 C   0  0  0  0  0  0  0  0  0  0  0  0
   39.9292    5.9495   17.8664 O   0  0  0  0  0  0  0  0  0  0  0  0
   37.5872    6.5459   17.7799 C   0  0  0  0  0  0  0  0  0  0  0  0
   40.1272    6.8966   17.7972 H   0  0  0  0  0  0  0  0  0  0  0  0
   36.9899    6.0788   19.0339 N   0  0  0  0  0  0  0  0  0  0  0  0
   36.1144    6.7398   19.8656 C   0  0  0  0  0  0  0  0  0  0  0  0
   35.7151    6.0251   20.8894 N   0  0  0  0  0  0  0  0  0  0  0  0
   36.3797    4.8155   20.7305 C   0  0  0  0  0  0  0  0  0  0  0  0
   36.3695    3.6238   21.4800 C   0  0  0  0  0  0  0  0  0  0  0  0
   35.6333    3.4444   22.5822 N   0  0  0  0  0  0  0  0  0  0  0  0
   37.1485    2.6046   21.0497 N   0  0  0  0  0  0  0  0  0  0  0  0
   37.8788    2.7821   19.9404 C   0  0  0  0  0  0  0  0  0  0  0  0
   37.9650    3.8512   19.1481 N   0  0  0  0  0  0  0  0  0  0  0  0
   37.1807    4.8419   19.6018 C   0  0  0  0  0  0  0  0  0  0  0  0
   35.0589    4.1718   22.9142 H   0  0  0  0  0  0  0  0  0  0  0  0
   35.6658    2.5850   23.0614 H   0  0  0  0  0  0  0  0  0  0  0  0
   36.4877    5.3457   14.6883 C   0  0  0  0  0  0  0  0  0  0  0  0
   37.0858    5.1922   13.3950 O   0  0  0  0  0  0  0  0  0  0  0  0
   37.4670    3.7164   12.8234 P   0  0  0  0  0  0  0  0  0  0  0  0
   38.6712    3.9442   11.9310 O   0  0  0  0  0  0  0  0  0  0  0  0
   37.7509    2.8492   14.0338 O   0  0  0  0  0  0  0  0  0  0  0  0
   36.2289    3.2835   12.0564 O   0  0  0  0  0  0  0  0  0  0  0  0
   37.9843    1.9539   13.7425 H   0  0  0  0  0  0  0  0  0  0  0  0
   36.3745    2.4021   11.6785 H   0  0  0  0  0  0  0  0  0  0  0  0
   39.4780    7.2823   15.5586 O   0  0  0  0  0  0  0  0  0  0  0  0
   40.3465    7.4613   14.2112 P   0  0  0  0  0  0  0  0  0  0  0  0
   41.6940    6.8150   14.4819 O   0  0  0  0  0  0  0  0  0  0  0  0
   40.4481    8.9593   13.9713 O   0  0  0  0  0  0  0  0  0  0  0  0
   39.5659    6.7495   13.1196 O   0  0  0  0  0  0  0  0  0  0  0  0
   40.9646    9.1237   13.1668 H   0  0  0  0  0  0  0  0  0  0  0  0
   40.0440    6.8244   12.2789 H   0  0  0  0  0  0  0  0  0  0  0  0
 29 30  2  0  0  0
 29 31  1  0  0  0
 29 32  1  0  0  0
 29 28  1  0  0  0
 22 23  2  0  0  0
 22 24  1  0  0  0
 22 25  1  0  0  0
 22 21  1  0  0  0
 21 20  1  0  0  0
 20  1  1  0  0  0
  1  2  1  0  0  0
  1  3  1  0  0  0
  2  6  1  0  0  0
  3 28  1  0  0  0
  3  4  1  0  0  0
  4  5  1  0  0  0
  4  6  1  0  0  0
  6  8  1  0  0  0
  8  9  1  0  0  0
  8 17  1  0  0  0
  9 10  2  0  0  0
 10 11  1  0  0  0
 11 12  1  0  0  0
 11 17  2  0  0  0
 12 13  1  0  0  0
 12 14  2  0  0  0
 14 15  1  0  0  0
 15 16  2  0  0  0
 16 17  1  0  0  0
 31 33  1  0  0  0
 32 34  1  0  0  0
 24 26  1  0  0  0
 25 27  1  0  0  0
  5  7  1  0  0  0
 13 18  1  0  0  0
 13 19  1  0  0  0
M  END
> <minimizedAffinity>
-6.79295

$$$$
1O0F_A3P_A_1301


 34 36  0  0  0  0  0  0  0  0999 V2000
   39.2575    5.1266   14.3899 C   0  0  0  0  0  0  0  0  0  0  0  0
   38.8879    5.9954   15.4978 O   0  0  0  0  0  0  0  0  0  0  0  0
   37.9642    4.8052   13.6402 C   0  0  0  0  0  0  0  0  0  0  0  0
   37.0079    5.8966   14.1208 C   0  0  0  0  0  0  0  0  0  0  0  0
   35.6529    5.4953   14.0959 O   0  0  0  0  0  0  0  0  0  0  0  0
   37.4830    6.0965   15.5579 C   0  0  0  0  0  0  0  0  0  0  0  0
   35.5421    4.6972   14.6361 H   0  0  0  0  0  0  0  0  0  0  0  0
   37.1225    7.3757   16.1752 N   0  0  0  0  0  0  0  0  0  0  0  0
   36.7143    8.5390   15.5627 C   0  0  0  0  0  0  0  0  0  0  0  0
   36.4076    9.4990   16.4009 N   0  0  0  0  0  0  0  0  0  0  0  0
   36.6395    8.9372   17.6501 C   0  0  0  0  0  0  0  0  0  0  0  0
   36.4872    9.4382   18.9569 C   0  0  0  0  0  0  0  0  0  0  0  0
   36.0403   10.6679   19.2348 N   0  0  0  0  0  0  0  0  0  0  0  0
   36.8086    8.6193   19.9849 N   0  0  0  0  0  0  0  0  0  0  0  0
   37.2476    7.3845   19.7057 C   0  0  0  0  0  0  0  0  0  0  0  0
   37.4247    6.7989   18.5209 N   0  0  0  0  0  0  0  0  0  0  0  0
   37.0963    7.6364   17.5244 C   0  0  0  0  0  0  0  0  0  0  0  0
   35.8003   11.2814   18.5032 H   0  0  0  0  0  0  0  0  0  0  0  0
   35.9514   10.9595   20.1709 H   0  0  0  0  0  0  0  0  0  0  0  0
   40.3378    5.7821   13.5682 C   0  0  0  0  0  0  0  0  0  0  0  0
   39.7814    6.3137   12.3592 O   0  0  0  0  0  0  0  0  0  0  0  0
   40.1317    5.6456   10.9167 P   0  0  0  0  0  0  0  0  0  0  0  0
   41.3885    4.8331   11.1593 O   0  0  0  0  0  0  0  0  0  0  0  0
   38.9255    4.8151   10.5257 O   0  0  0  0  0  0  0  0  0  0  0  0
   40.3584    6.8365   10.0006 O   0  0  0  0  0  0  0  0  0  0  0  0
   39.0874    4.3941    9.6670 H   0  0  0  0  0  0  0  0  0  0  0  0
   40.5752    6.5219    9.1090 H   0  0  0  0  0  0  0  0  0  0  0  0
   37.4901    3.5145   14.0136 O   0  0  0  0  0  0  0  0  0  0  0  0
   36.6796    2.6208   12.9429 P   0  0  0  0  0  0  0  0  0  0  0  0
   37.6000    1.4758   12.5576 O   0  0  0  0  0  0  0  0  0  0  0  0
   36.3651    3.5435   11.7760 O   0  0  0  0  0  0  0  0  0  0  0  0
   35.4286    2.1477   13.6633 O   0  0  0  0  0  0  0  0  0  0  0  0
   35.8745    3.0523   11.0986 H   0  0  0  0  0  0  0  0  0  0  0  0
   34.8974    1.6009   13.0635 H   0  0  0  0  0  0  0  0  0  0  0  0
 29 30  2  0  0  0
 29 31  1  0  0  0
 29 32  1  0  0  0
 29 28  1  0  0  0
 22 23  2  0  0  0
 22 24  1  0  0  0
 22 25  1  0  0  0
 22 21  1  0  0  0
 21 20  1  0  0  0
 20  1  1  0  0  0
  1  2  1  0  0  0
  1  3  1  0  0  0
  2  6  1  0  0  0
  3 28  1  0  0  0
  3  4  1  0  0  0
  4  5  1  0  0  0
  4  6  1  0  0  0
  6  8  1  0  0  0
  8  9  1  0  0  0
  8 17  1  0  0  0
  9 10  2  0  0  0
 10 11  1  0  0  0
 11 12  1  0  0  0
 11 17  2  0  0  0
 12 13  1  0  0  0
 12 14  2  0  0  0
 14 15  1  0  0  0
 15 16  2  0  0  0
 16 17  1  0  0  0
 31 33  1  0  0  0
 32 34  1  0  0  0
 24 26  1  0  0  0
 25 27  1  0  0  0
  5  7  1  0  0  0
 13 18  1  0  0  0
 13 19  1  0  0  0
M  END
> <minimizedAffinity>
-6.76307

$$$$
1O0F_A3P_A_1301


 34 36  0  0  0  0  0  0  0  0999 V2000
   37.6949    4.6395   12.8266 C   0  0  0  0  0  0  0  0  0  0  0  0
   36.8977    5.5440   13.6424 O   0  0  0  0  0  0  0  0  0  0  0  0
   39.0301    5.3418   12.5781 C   0  0  0  0  0  0  0  0  0  0  0  0
   39.0607    6.4167   13.6645 C   0  0  0  0  0  0  0  0  0  0  0  0
   39.8181    7.5524   13.2981 O   0  0  0  0  0  0  0  0  0  0  0  0
   37.5795    6.7709   13.7740 C   0  0  0  0  0  0  0  0  0  0  0  0
   39.4652    7.9244   12.4747 H   0  0  0  0  0  0  0  0  0  0  0  0
   37.1696    7.4127   15.0260 N   0  0  0  0  0  0  0  0  0  0  0  0
   36.6223    8.6623   15.2103 C   0  0  0  0  0  0  0  0  0  0  0  0
   36.3089    8.9244   16.4558 N   0  0  0  0  0  0  0  0  0  0  0  0
   36.6848    7.7767   17.1424 C   0  0  0  0  0  0  0  0  0  0  0  0
   36.5992    7.4146   18.5002 C   0  0  0  0  0  0  0  0  0  0  0  0
   36.0800    8.2018   19.4488 N   0  0  0  0  0  0  0  0  0  0  0  0
   37.0665    6.1956   18.8557 N   0  0  0  0  0  0  0  0  0  0  0  0
   37.5783    5.4041   17.9033 C   0  0  0  0  0  0  0  0  0  0  0  0
   37.7050    5.6303   16.5953 N   0  0  0  0  0  0  0  0  0  0  0  0
   37.2318    6.8455   16.2763 C   0  0  0  0  0  0  0  0  0  0  0  0
   35.7338    9.0929   19.2138 H   0  0  0  0  0  0  0  0  0  0  0  0
   36.0441    7.8901   20.3819 H   0  0  0  0  0  0  0  0  0  0  0  0
   37.7851    3.2938   13.4996 C   0  0  0  0  0  0  0  0  0  0  0  0
   37.6850    2.2487   12.5241 O   0  0  0  0  0  0  0  0  0  0  0  0
   36.6977    0.9769   12.7641 P   0  0  0  0  0  0  0  0  0  0  0  0
   37.4824    0.0391   13.6604 O   0  0  0  0  0  0  0  0  0  0  0  0
   35.4370    1.5281   13.4001 O   0  0  0  0  0  0  0  0  0  0  0  0
   36.4671    0.4170   11.3706 O   0  0  0  0  0  0  0  0  0  0  0  0
   34.8137    0.8031   13.5635 H   0  0  0  0  0  0  0  0  0  0  0  0
   35.8810   -0.3540   11.4248 H   0  0  0  0  0  0  0  0  0  0  0  0
   39.0389    5.9309   11.2808 O   0  0  0  0  0  0  0  0  0  0  0  0
   40.3492    5.7932   10.3501 P   0  0  0  0  0  0  0  0  0  0  0  0
   41.0502    7.1398   10.3965 O   0  0  0  0  0  0  0  0  0  0  0  0
   39.8438    5.4386    8.9606 O   0  0  0  0  0  0  0  0  0  0  0  0
   41.1792    4.6810   10.9681 O   0  0  0  0  0  0  0  0  0  0  0  0
   40.5971    5.3434    8.3570 H   0  0  0  0  0  0  0  0  0  0  0  0
   41.9867    4.5521   10.4464 H   0  0  0  0  0  0  0  0  0  0  0  0
 29 30  2  0  0  0
 29 31  1  0  0  0
 29 32  1  0  0  0
 29 28  1  0  0  0
 22 23  2  0  0  0
 22 24  1  0  0  0
 22 25  1  0  0  0
 22 21  1  0  0  0
 21 20  1  0  0  0
 20  1  1  0  0  0
  1  2  1  0  0  0
  1  3  1  0  0  0
  2  6  1  0  0  0
  3 28  1  0  0  0
  3  4  1  0  0  0
  4  5  1  0  0  0
  4  6  1  0  0  0
  6  8  1  0  0  0
  8  9  1  0  0  0
  8 17  1  0  0  0
  9 10  2  0  0  0
 10 11  1  0  0  0
 11 12  1  0  0  0
 11 17  2  0  0  0
 12 13  1  0  0  0
 12 14  2  0  0  0
 14 15  1  0  0  0
 15 16  2  0  0  0
 16 17  1  0  0  0
 31 33  1  0  0  0
 32 34  1  0  0  0
 24 26  1  0  0  0
 25 27  1  0  0  0
  5  7  1  0  0  0
 13 18  1  0  0  0
 13 19  1  0  0  0
M  END
> <minimizedAffinity>
-6.70160

$$$$
1O0F_A3P_A_1301


 34 36  0  0  0  0  0  0  0  0999 V2000
   37.9191    4.4146   12.9478 C   0  0  0  0  0  0  0  0  0  0  0  0
   37.0821    5.1388   13.8934 O   0  0  0  0  0  0  0  0  0  0  0  0
   39.1538    5.2836   12.7069 C   0  0  0  0  0  0  0  0  0  0  0  0
   39.1368    6.2427   13.8971 C   0  0  0  0  0  0  0  0  0  0  0  0
   39.7446    7.4869   13.6139 O   0  0  0  0  0  0  0  0  0  0  0  0
   37.6360    6.4155   14.1183 C   0  0  0  0  0  0  0  0  0  0  0  0
   39.3038    7.8963   12.8530 H   0  0  0  0  0  0  0  0  0  0  0  0
   37.2384    6.8805   15.4499 N   0  0  0  0  0  0  0  0  0  0  0  0
   36.9344    6.1321   16.5645 C   0  0  0  0  0  0  0  0  0  0  0  0
   36.6693    6.8505   17.6283 N   0  0  0  0  0  0  0  0  0  0  0  0
   36.7948    8.1611   17.1848 C   0  0  0  0  0  0  0  0  0  0  0  0
   36.6571    9.3998   17.8395 C   0  0  0  0  0  0  0  0  0  0  0  0
   36.3561    9.5263   19.1366 N   0  0  0  0  0  0  0  0  0  0  0  0
   36.8476   10.5216   17.1075 N   0  0  0  0  0  0  0  0  0  0  0  0
   37.1579   10.3939   15.8103 C   0  0  0  0  0  0  0  0  0  0  0  0
   37.3226    9.2861   15.0864 N   0  0  0  0  0  0  0  0  0  0  0  0
   37.1279    8.1932   15.8415 C   0  0  0  0  0  0  0  0  0  0  0  0
   36.2130    8.7241   19.6892 H   0  0  0  0  0  0  0  0  0  0  0  0
   36.2775   10.4214   19.5387 H   0  0  0  0  0  0  0  0  0  0  0  0
   38.1939    3.0278   13.4705 C   0  0  0  0  0  0  0  0  0  0  0  0
   37.8320    2.0510   12.4862 O   0  0  0  0  0  0  0  0  0  0  0  0
   36.6684    0.9538   12.7898 P   0  0  0  0  0  0  0  0  0  0  0  0
   36.3404    0.3506   11.4382 O   0  0  0  0  0  0  0  0  0  0  0  0
   37.2576   -0.0319   13.7792 O   0  0  0  0  0  0  0  0  0  0  0  0
   35.5278    1.7725   13.3707 O   0  0  0  0  0  0  0  0  0  0  0  0
   36.5973   -0.7097   13.9925 H   0  0  0  0  0  0  0  0  0  0  0  0
   34.7842    1.1867   13.5820 H   0  0  0  0  0  0  0  0  0  0  0  0
   39.0193    5.9952   11.4798 O   0  0  0  0  0  0  0  0  0  0  0  0
   40.2144    5.9532   10.3972 P   0  0  0  0  0  0  0  0  0  0  0  0
   40.7931    4.5501   10.4532 O   0  0  0  0  0  0  0  0  0  0  0  0
   41.2096    7.0195   10.8266 O   0  0  0  0  0  0  0  0  0  0  0  0
   39.5691    6.2659    9.0580 O   0  0  0  0  0  0  0  0  0  0  0  0
   41.9537    7.0365   10.2046 H   0  0  0  0  0  0  0  0  0  0  0  0
   40.2454    6.2546    8.3627 H   0  0  0  0  0  0  0  0  0  0  0  0
 29 30  2  0  0  0
 29 31  1  0  0  0
 29 32  1  0  0  0
 29 28  1  0  0  0
 22 23  2  0  0  0
 22 24  1  0  0  0
 22 25  1  0  0  0
 22 21  1  0  0  0
 21 20  1  0  0  0
 20  1  1  0  0  0
  1  2  1  0  0  0
  1  3  1  0  0  0
  2  6  1  0  0  0
  3 28  1  0  0  0
  3  4  1  0  0  0
  4  5  1  0  0  0
  4  6  1  0  0  0
  6  8  1  0  0  0
  8  9  1  0  0  0
  8 17  1  0  0  0
  9 10  2  0  0  0
 10 11  1  0  0  0
 11 12  1  0  0  0
 11 17  2  0  0  0
 12 13  1  0  0  0
 12 14  2  0  0  0
 14 15  1  0  0  0
 15 16  2  0  0  0
 16 17  1  0  0  0
 31 33  1  0  0  0
 32 34  1  0  0  0
 24 26  1  0  0  0
 25 27  1  0  0  0
  5  7  1  0  0  0
 13 18  1  0  0  0
 13 19  1  0  0  0
M  END
> <minimizedAffinity>
-6.63573

$$$$
1O0F_A3P_A_1301


 34 36  0  0  0  0  0  0  0  0999 V2000
   39.4686    4.7068   14.3835 C   0  0  0  0  0  0  0  0  0  0  0  0
   39.7792    5.0435   15.7652 O   0  0  0  0  0  0  0  0  0  0  0  0
   37.9843    5.0156   14.1847 C   0  0  0  0  0  0  0  0  0  0  0  0
   37.6657    5.9421   15.3580 C   0  0  0  0  0  0  0  0  0  0  0  0
   36.3154    5.8696   15.7693 O   0  0  0  0  0  0  0  0  0  0  0  0
   38.5875    5.3815   16.4383 C   0  0  0  0  0  0  0  0  0  0  0  0
   36.0972    4.9537   16.0025 H   0  0  0  0  0  0  0  0  0  0  0  0
   38.9043    6.2936   17.5406 N   0  0  0  0  0  0  0  0  0  0  0  0
   40.0204    7.0817   17.7082 C   0  0  0  0  0  0  0  0  0  0  0  0
   39.9801    7.8356   18.7798 N   0  0  0  0  0  0  0  0  0  0  0  0
   38.7617    7.5161   19.3660 C   0  0  0  0  0  0  0  0  0  0  0  0
   38.1159    7.9870   20.5250 C   0  0  0  0  0  0  0  0  0  0  0  0
   38.6256    8.9241   21.3319 N   0  0  0  0  0  0  0  0  0  0  0  0
   36.9076    7.4594   20.8289 N   0  0  0  0  0  0  0  0  0  0  0  0
   36.3938    6.5272   20.0151 C   0  0  0  0  0  0  0  0  0  0  0  0
   36.9015    6.0110   18.8953 N   0  0  0  0  0  0  0  0  0  0  0  0
   38.0978    6.5557   18.6222 C   0  0  0  0  0  0  0  0  0  0  0  0
   39.5032    9.3224   21.1309 H   0  0  0  0  0  0  0  0  0  0  0  0
   38.1232    9.2155   22.1268 H   0  0  0  0  0  0  0  0  0  0  0  0
   40.4118    5.4330   13.4588 C   0  0  0  0  0  0  0  0  0  0  0  0
   40.6689    4.6372   12.2950 O   0  0  0  0  0  0  0  0  0  0  0  0
   40.2294    5.1573   10.8164 P   0  0  0  0  0  0  0  0  0  0  0  0
   40.5747    6.6334   10.8047 O   0  0  0  0  0  0  0  0  0  0  0  0
   41.0182    4.3307    9.8203 O   0  0  0  0  0  0  0  0  0  0  0  0
   38.7341    4.8936   10.7588 O   0  0  0  0  0  0  0  0  0  0  0  0
   40.7891    4.6056    8.9188 H   0  0  0  0  0  0  0  0  0  0  0  0
   38.3884    5.1789    9.8986 H   0  0  0  0  0  0  0  0  0  0  0  0
   37.2202    3.8155   14.2635 O   0  0  0  0  0  0  0  0  0  0  0  0
   36.0103    3.5696   13.2255 P   0  0  0  0  0  0  0  0  0  0  0  0
   35.0995    4.7800   13.3358 O   0  0  0  0  0  0  0  0  0  0  0  0
   35.3341    2.2803   13.6642 O   0  0  0  0  0  0  0  0  0  0  0  0
   36.6587    3.4493   11.8570 O   0  0  0  0  0  0  0  0  0  0  0  0
   34.5937    2.0847   13.0689 H   0  0  0  0  0  0  0  0  0  0  0  0
   35.9738    3.2993   11.1867 H   0  0  0  0  0  0  0  0  0  0  0  0
 29 30  2  0  0  0
 29 31  1  0  0  0
 29 32  1  0  0  0
 29 28  1  0  0  0
 22 23  2  0  0  0
 22 24  1  0  0  0
 22 25  1  0  0  0
 22 21  1  0  0  0
 21 20  1  0  0  0
 20  1  1  0  0  0
  1  2  1  0  0  0
  1  3  1  0  0  0
  2  6  1  0  0  0
  3 28  1  0  0  0
  3  4  1  0  0  0
  4  5  1  0  0  0
  4  6  1  0  0  0
  6  8  1  0  0  0
  8  9  1  0  0  0
  8 17  1  0  0  0
  9 10  2  0  0  0
 10 11  1  0  0  0
 11 12  1  0  0  0
 11 17  2  0  0  0
 12 13  1  0  0  0
 12 14  2  0  0  0
 14 15  1  0  0  0
 15 16  2  0  0  0
 16 17  1  0  0  0
 31 33  1  0  0  0
 32 34  1  0  0  0
 24 26  1  0  0  0
 25 27  1  0  0  0
  5  7  1  0  0  0
 13 18  1  0  0  0
 13 19  1  0  0  0
M  END
> <minimizedAffinity>
-6.32141

$$$$
