1O0F_A3P_A_1301
  RCSB PDB12061703293D
Coordinates from PDB:1O0F:A:1301 Model:1 without hydrogens
 27 29  0  0  0  0            999 V2000
   41.2350    6.2550   14.4910   P 0  0  0  0  0  0  0  0  0  0  0  0
   40.2730    6.5200   13.3460   O 0  0  0  0  0  0  0  0  0  0  0  0
   42.0870    5.0150   14.2710   O 0  0  0  0  0  0  0  0  0  0  0  0
   42.0660    7.4750   14.8500   O 0  0  0  0  0  0  0  0  0  0  0  0
   36.3990    3.1920   13.2220   P 0  0  0  0  0  0  0  0  0  0  0  0
   34.9040    3.4250   13.3170   O 0  0  0  0  0  0  0  0  0  0  0  0
   37.0620    3.9030   12.0590   O 0  0  0  0  0  0  0  0  0  0  0  0
   36.7820    1.7250   13.3210   O 0  0  0  0  0  0  0  0  0  0  0  0
   37.0120    3.8560   14.5760   O 0  0  0  0  0  0  0  0  0  0  0  0
   36.8490    5.2540   14.8460   C 0  0  0  0  0  0  0  0  0  0  0  0
   37.9140    5.7230   15.8040   C 0  0  0  0  0  0  0  0  0  0  0  0
   37.4580    5.5380   17.1740   O 0  0  0  0  0  0  0  0  0  0  0  0
   39.2600    5.0060   15.6940   C 0  0  0  0  0  0  0  0  0  0  0  0
   40.3250    5.9480   15.7870   O 0  0  0  0  0  0  0  0  0  0  0  0
   39.2520    4.0720   16.9040   C 0  0  0  0  0  0  0  0  0  0  0  0
   40.5480    3.7810   17.3870   O 0  0  0  0  0  0  0  0  0  0  0  0
   38.4750    4.9070   17.9190   C 0  0  0  0  0  0  0  0  0  0  0  0
   37.8650    4.1610   19.0230   N 0  0  0  0  0  0  0  0  0  0  0  0
   38.1130    2.8680   19.4250   C 0  0  0  0  0  0  0  0  0  0  0  0
   37.4410    2.5070   20.4910   N 0  0  0  0  0  0  0  0  0  0  0  0
   36.6900    3.6320   20.8080   C 0  0  0  0  0  0  0  0  0  0  0  0
   35.7800    3.9010   21.8480   C 0  0  0  0  0  0  0  0  0  0  0  0
   35.4630    3.0220   22.8050   N 0  0  0  0  0  0  0  0  0  0  0  0
   35.2020    5.1240   21.8760   N 0  0  0  0  0  0  0  0  0  0  0  0
   35.5270    6.0070   20.9220   C 0  0  0  0  0  0  0  0  0  0  0  0
   36.3730    5.8730   19.9000   N 0  0  0  0  0  0  0  0  0  0  0  0
   36.9290    4.6510   19.9020   C 0  0  0  0  0  0  0  0  0  0  0  0
  1  2  2  0  0  0  0
  1  3  1  0  0  0  0
  1  4  1  0  0  0  0
  1 14  1  0  0  0  0
  5  6  2  0  0  0  0
  5  7  1  0  0  0  0
  5  8  1  0  0  0  0
  5  9  1  0  0  0  0
  9 10  1  0  0  0  0
 10 11  1  0  0  0  0
 11 12  1  0  0  0  0
 11 13  1  0  0  0  0
 12 17  1  0  0  0  0
 13 14  1  0  0  0  0
 13 15  1  0  0  0  0
 15 16  1  0  0  0  0
 15 17  1  0  0  0  0
 17 18  1  0  0  0  0
 18 19  1  0  0  0  0
 18 27  1  0  0  0  0
 19 20  2  0  0  0  0
 20 21  1  0  0  0  0
 21 22  1  0  0  0  0
 21 27  2  0  0  0  0
 22 23  1  0  0  0  0
 22 24  2  0  0  0  0
 24 25  1  0  0  0  0
 25 26  2  0  0  0  0
 26 27  1  0  0  0  0
A    1
P1
A    2
O1P
A    3
O2P
A    4
O3P
A    5
P2
A    6
O4P
A    7
O5P
A    8
O6P
A    9
O5'
A   10
C5'
A   11
C4'
A   12
O4'
A   13
C3'
A   14
O3'
A   15
C2'
A   16
O2'
A   17
C1'
A   18
N9
A   19
C8
A   20
N7
A   21
C5
A   22
C6
A   23
N6
A   24
N1
A   25
C2
A   26
N3
A   27
C4
M  END
>  <InstanceId>
1O0F_A3P_A_1301

>  <ChemCompId>
A3P

>  <PdbId>
1O0F

>  <ChainId>
A

>  <ResidueNumber>
1301

>  <InsertionCode>


>  <Model>
1

>  <AltIds>


>  <MissingHeavyAtoms>
0

>  <ObservedFormula>
C10 N5 O10 P2

>  <Name>
ADENOSINE-3'-5'-DIPHOSPHATE

>  <SystematicName>
[(2R,3S,4R,5R)-5-(6-aminopurin-9-yl)-4-hydroxy-2-(phosphonooxymethyl)oxolan-3-yl] dihydrogen phosphate

>  <Synonyms>


>  <Type>
RNA LINKING

>  <Formula>
C10 H15 N5 O10 P2

>  <MolecularWeight>
427.201

>  <ModifiedDate>
2011-06-04

>  <Parent>
A

>  <OneLetterCode>
A

>  <SubcomponentList>


>  <AmbiguousFlag>
N

>  <InChI>
InChI=1S/C10H15N5O10P2/c11-8-5-9(13-2-12-8)15(3-14-5)10-6(16)7(25-27(20,21)22)4(24-10)1-23-26(17,18)19/h2-4,6-7,10,16H,1H2,(H2,11,12,13)(H2,17,18,19)(H2,20,21,22)/t4-,6-,7-,10-/m1/s1

>  <InChIKey>
WHTCPDAXWFLDIH-KQYNXXCUSA-N

>  <SMILES>
c1nc(c2c(n1)n(cn2)[C@H]3[C@@H]([C@@H]([C@H](O3)COP(=O)(O)O)OP(=O)(O)O)O)N

$$$$
