5KHM_XNH_A_201


 35 39  0  0  0  0  0  0  0  0999 V2000
   62.9654   50.5871  131.0467 C   0  0  0  0  0  0  0  0  0  0  0  0
   62.5029   49.4087  131.6162 C   0  0  0  0  0  0  0  0  0  0  0  0
   62.1415   49.3494  132.9471 C   0  0  0  0  0  0  0  0  0  0  0  0
   62.2117   50.4854  133.7255 C   0  0  0  0  0  0  0  0  0  0  0  0
   63.0296   51.7213  131.8488 C   0  0  0  0  0  0  0  0  0  0  0  0
   62.6891   51.6679  133.1848 C   0  0  0  0  0  0  0  0  0  0  0  0
   62.7011   51.7645  128.8134 C   0  0  0  0  0  0  0  0  0  0  0  0
   63.3491   50.6290  129.5840 C   0  0  0  0  0  0  0  0  0  0  0  0
   63.1333   49.3260  128.8189 C   0  0  0  0  0  0  0  0  0  0  0  0
   63.6565   49.4321  127.3828 C   0  0  0  0  0  0  0  0  0  0  0  0
   63.2624   51.8418  127.4003 C   0  0  0  0  0  0  0  0  0  0  0  0
   63.0729   50.5778  126.6692 N   0  0  0  0  0  0  0  0  0  0  0  0
   59.9409   52.5067  123.7310 C   0  0  0  0  0  0  0  0  0  0  0  0
   60.5314   50.4741  123.3788 C   0  0  0  0  0  0  0  0  0  0  0  0
   61.2351   49.2872  123.6931 C   0  0  0  0  0  0  0  0  0  0  0  0
   62.2419   50.4815  125.5388 C   0  0  0  0  0  0  0  0  0  0  0  0
   62.0839   49.2987  124.7545 C   0  0  0  0  0  0  0  0  0  0  0  0
   61.6446   51.6111  125.2968 N   0  0  0  0  0  0  0  0  0  0  0  0
   60.7799   51.5684  124.1907 N   0  0  0  0  0  0  0  0  0  0  0  0
   59.6319   50.7892  122.4649 N   0  0  0  0  0  0  0  0  0  0  0  0
   59.2543   52.1245  122.6914 N   0  0  0  0  0  0  0  0  0  0  0  0
   59.9221   53.6962  124.3278 O   0  0  0  0  0  0  0  0  0  0  0  0
   59.7738   54.8462  123.4587 C   0  0  0  0  0  0  0  0  0  0  0  0
   61.8144   50.2289  135.0064 O   0  0  0  0  0  0  0  0  0  0  0  0
   61.9926   51.2408  135.9979 C   0  0  0  0  0  0  0  0  0  0  0  0
   60.6729   51.3373  136.6998 C   0  0  0  0  0  0  0  0  0  0  0  0
   60.8210   49.0756  140.3212 N   0  0  0  0  0  0  0  0  0  0  0  0
   61.0966   48.3786  141.5764 C   0  0  0  0  0  0  0  0  0  0  0  0
   60.5345   48.3729  139.2162 C   0  0  0  0  0  0  0  0  0  0  0  0
   60.2452   49.1103  137.9246 C   0  0  0  0  0  0  0  0  0  0  0  0
   58.7630   48.9848  137.5994 C   0  0  0  0  0  0  0  0  0  0  0  0
   60.4205   47.1642  139.2168 O   0  0  0  0  0  0  0  0  0  0  0  0
   60.8531   50.5377  140.3861 C   0  0  0  0  0  0  0  0  0  0  0  0
   60.3734   51.2394  139.1254 C   0  0  0  0  0  0  0  0  0  0  0  0
   60.7489   50.4957  137.9109 N   0  0  0  0  0  0  0  0  0  0  0  0
 21 20  1  0  0  0
 21 13  2  0  0  0
 23 22  1  0  0  0
 20 14  2  0  0  0
 13 22  1  0  0  0
 13 19  1  0  0  0
 14 19  1  0  0  0
 14 15  1  0  0  0
 19 18  1  0  0  0
 15 17  2  0  0  0
 18 16  2  0  0  0
 17 16  1  0  0  0
 16 12  1  0  0  0
 12 11  1  0  0  0
 12 10  1  0  0  0
 11  7  1  0  0  0
 10  9  1  0  0  0
  7  8  1  0  0  0
  9  8  1  0  0  0
  8  1  1  0  0  0
  1  5  2  0  0  0
  1  2  1  0  0  0
  5  6  1  0  0  0
  2  3  2  0  0  0
  6  4  2  0  0  0
  3  4  1  0  0  0
  4 24  1  0  0  0
 24 25  1  0  0  0
 25 26  1  0  0  0
 26 35  1  0  0  0
 35 34  1  0  0  0
 35 30  1  0  0  0
 34 33  1  0  0  0
 33 27  1  0  0  0
 30 29  1  0  0  0
 30 31  1  0  0  0
 27 29  1  0  0  0
 27 28  1  0  0  0
 29 32  2  0  0  0
M  END
> <minimizedAffinity>
-10.77251

$$$$
5KHM_XNH_A_201


 35 39  0  0  0  0  0  0  0  0999 V2000
   61.6308   50.7762  134.8704 C   0  0  0  0  0  0  0  0  0  0  0  0
   61.8825   51.5312  136.0077 C   0  0  0  0  0  0  0  0  0  0  0  0
   61.1618   51.3395  137.1693 C   0  0  0  0  0  0  0  0  0  0  0  0
   60.1904   50.3620  137.2173 C   0  0  0  0  0  0  0  0  0  0  0  0
   60.6465   49.7962  134.9391 C   0  0  0  0  0  0  0  0  0  0  0  0
   59.9075   49.6098  136.0892 C   0  0  0  0  0  0  0  0  0  0  0  0
   61.6125   51.4743  132.4298 C   0  0  0  0  0  0  0  0  0  0  0  0
   62.4387   51.0000  133.6111 C   0  0  0  0  0  0  0  0  0  0  0  0
   63.2961   49.8164  133.1713 C   0  0  0  0  0  0  0  0  0  0  0  0
   64.1612   50.1773  131.9593 C   0  0  0  0  0  0  0  0  0  0  0  0
   62.5132   51.8365  131.2572 C   0  0  0  0  0  0  0  0  0  0  0  0
   63.3554   50.7008  130.8462 N   0  0  0  0  0  0  0  0  0  0  0  0
   61.9755   50.8510  126.3477 C   0  0  0  0  0  0  0  0  0  0  0  0
   62.8377   49.0256  127.0750 C   0  0  0  0  0  0  0  0  0  0  0  0
   63.3876   48.1982  128.0828 C   0  0  0  0  0  0  0  0  0  0  0  0
   63.2191   50.0801  129.5917 C   0  0  0  0  0  0  0  0  0  0  0  0
   63.5815   48.7258  129.3203 C   0  0  0  0  0  0  0  0  0  0  0  0
   62.7292   50.9022  128.7112 N   0  0  0  0  0  0  0  0  0  0  0  0
   62.5469   50.3292  127.4418 N   0  0  0  0  0  0  0  0  0  0  0  0
   62.4974   48.8282  125.8145 N   0  0  0  0  0  0  0  0  0  0  0  0
   61.9424   50.0287  125.3373 N   0  0  0  0  0  0  0  0  0  0  0  0
   61.5550   52.1132  126.3855 O   0  0  0  0  0  0  0  0  0  0  0  0
   60.5936   52.4982  125.3720 C   0  0  0  0  0  0  0  0  0  0  0  0
   59.5913   50.3242  138.4437 O   0  0  0  0  0  0  0  0  0  0  0  0
   60.3572   50.6801  139.5951 C   0  0  0  0  0  0  0  0  0  0  0  0
   60.6318   49.3858  140.2974 C   0  0  0  0  0  0  0  0  0  0  0  0
   63.2152   50.4297  143.5359 N   0  0  0  0  0  0  0  0  0  0  0  0
   64.2653   50.8178  144.4761 C   0  0  0  0  0  0  0  0  0  0  0  0
   62.6859   49.1996  143.5966 C   0  0  0  0  0  0  0  0  0  0  0  0
   61.5941   48.8148  142.6192 C   0  0  0  0  0  0  0  0  0  0  0  0
   60.2703   48.7123  143.3645 C   0  0  0  0  0  0  0  0  0  0  0  0
   62.9887   48.3951  144.4540 O   0  0  0  0  0  0  0  0  0  0  0  0
   62.7936   51.4655  142.5913 C   0  0  0  0  0  0  0  0  0  0  0  0
   61.5728   51.1064  141.7592 C   0  0  0  0  0  0  0  0  0  0  0  0
   61.5453   49.6732  141.4216 N   0  0  0  0  0  0  0  0  0  0  0  0
 21 20  1  0  0  0
 21 13  2  0  0  0
 23 22  1  0  0  0
 20 14  2  0  0  0
 13 22  1  0  0  0
 13 19  1  0  0  0
 14 19  1  0  0  0
 14 15  1  0  0  0
 19 18  1  0  0  0
 15 17  2  0  0  0
 18 16  2  0  0  0
 17 16  1  0  0  0
 16 12  1  0  0  0
 12 11  1  0  0  0
 12 10  1  0  0  0
 11  7  1  0  0  0
 10  9  1  0  0  0
  7  8  1  0  0  0
  9  8  1  0  0  0
  8  1  1  0  0  0
  1  5  2  0  0  0
  1  2  1  0  0  0
  5  6  1  0  0  0
  2  3  2  0  0  0
  6  4  2  0  0  0
  3  4  1  0  0  0
  4 24  1  0  0  0
 24 25  1  0  0  0
 25 26  1  0  0  0
 26 35  1  0  0  0
 35 34  1  0  0  0
 35 30  1  0  0  0
 34 33  1  0  0  0
 33 27  1  0  0  0
 30 29  1  0  0  0
 30 31  1  0  0  0
 27 29  1  0  0  0
 27 28  1  0  0  0
 29 32  2  0  0  0
M  END
> <minimizedAffinity>
-10.77134

$$$$
5KHM_XNH_A_201


 35 39  0  0  0  0  0  0  0  0999 V2000
   61.8609   50.8929  133.7285 C   0  0  0  0  0  0  0  0  0  0  0  0
   61.5024   51.6737  132.6383 C   0  0  0  0  0  0  0  0  0  0  0  0
   62.2533   51.6756  131.4801 C   0  0  0  0  0  0  0  0  0  0  0  0
   63.3668   50.8676  131.3863 C   0  0  0  0  0  0  0  0  0  0  0  0
   62.9876   50.0858  133.6142 C   0  0  0  0  0  0  0  0  0  0  0  0
   63.7557   50.0950  132.4681 C   0  0  0  0  0  0  0  0  0  0  0  0
   61.7605   51.3867  136.2165 C   0  0  0  0  0  0  0  0  0  0  0  0
   61.0180   50.9025  134.9848 C   0  0  0  0  0  0  0  0  0  0  0  0
   60.3259   49.5820  135.3120 C   0  0  0  0  0  0  0  0  0  0  0  0
   59.4082   49.7231  136.5307 C   0  0  0  0  0  0  0  0  0  0  0  0
   60.8077   51.5275  137.3955 C   0  0  0  0  0  0  0  0  0  0  0  0
   60.1243   50.2588  137.6980 N   0  0  0  0  0  0  0  0  0  0  0  0
   61.5930   50.1892  142.1703 C   0  0  0  0  0  0  0  0  0  0  0  0
   60.8433   48.3630  141.3292 C   0  0  0  0  0  0  0  0  0  0  0  0
   60.3293   47.5718  140.2746 C   0  0  0  0  0  0  0  0  0  0  0  0
   60.3321   49.5625  138.9020 C   0  0  0  0  0  0  0  0  0  0  0  0
   60.0710   48.1701  139.0818 C   0  0  0  0  0  0  0  0  0  0  0  0
   60.7838   50.3532  139.8304 N   0  0  0  0  0  0  0  0  0  0  0  0
   61.0344   49.7066  141.0520 N   0  0  0  0  0  0  0  0  0  0  0  0
   61.2251   48.1020  142.5660 N   0  0  0  0  0  0  0  0  0  0  0  0
   61.7062   49.3023  143.1183 N   0  0  0  0  0  0  0  0  0  0  0  0
   61.9238   51.4776  142.2158 O   0  0  0  0  0  0  0  0  0  0  0  0
   63.3421   51.7739  142.2380 C   0  0  0  0  0  0  0  0  0  0  0  0
   63.9739   51.0064  130.1713 O   0  0  0  0  0  0  0  0  0  0  0  0
   63.1712   51.3192  129.0325 C   0  0  0  0  0  0  0  0  0  0  0  0
   63.0344   50.0289  128.2841 C   0  0  0  0  0  0  0  0  0  0  0  0
   60.7195   51.0122  124.8308 N   0  0  0  0  0  0  0  0  0  0  0  0
   59.7444   51.3661  123.8005 C   0  0  0  0  0  0  0  0  0  0  0  0
   61.3216   49.8149  124.7971 C   0  0  0  0  0  0  0  0  0  0  0  0
   62.3343   49.4656  125.8685 C   0  0  0  0  0  0  0  0  0  0  0  0
   63.7274   49.4550  125.2539 C   0  0  0  0  0  0  0  0  0  0  0  0
   61.1490   49.0173  123.8982 O   0  0  0  0  0  0  0  0  0  0  0  0
   60.9884   52.0450  125.8326 C   0  0  0  0  0  0  0  0  0  0  0  0
   62.1420   51.7322  126.7725 C   0  0  0  0  0  0  0  0  0  0  0  0
   62.2186   50.2944  127.0821 N   0  0  0  0  0  0  0  0  0  0  0  0
 21 20  1  0  0  0
 21 13  2  0  0  0
 23 22  1  0  0  0
 20 14  2  0  0  0
 13 22  1  0  0  0
 13 19  1  0  0  0
 14 19  1  0  0  0
 14 15  1  0  0  0
 19 18  1  0  0  0
 15 17  2  0  0  0
 18 16  2  0  0  0
 17 16  1  0  0  0
 16 12  1  0  0  0
 12 11  1  0  0  0
 12 10  1  0  0  0
 11  7  1  0  0  0
 10  9  1  0  0  0
  7  8  1  0  0  0
  9  8  1  0  0  0
  8  1  1  0  0  0
  1  5  2  0  0  0
  1  2  1  0  0  0
  5  6  1  0  0  0
  2  3  2  0  0  0
  6  4  2  0  0  0
  3  4  1  0  0  0
  4 24  1  0  0  0
 24 25  1  0  0  0
 25 26  1  0  0  0
 26 35  1  0  0  0
 35 34  1  0  0  0
 35 30  1  0  0  0
 34 33  1  0  0  0
 33 27  1  0  0  0
 30 29  1  0  0  0
 30 31  1  0  0  0
 27 29  1  0  0  0
 27 28  1  0  0  0
 29 32  2  0  0  0
M  END
> <minimizedAffinity>
-10.69138

$$$$
5KHM_XNH_A_201


 35 39  0  0  0  0  0  0  0  0999 V2000
   61.6398   50.3471  133.7062 C   0  0  0  0  0  0  0  0  0  0  0  0
   62.7356   49.5748  133.3463 C   0  0  0  0  0  0  0  0  0  0  0  0
   63.4674   49.8543  132.2098 C   0  0  0  0  0  0  0  0  0  0  0  0
   63.1265   50.9369  131.4267 C   0  0  0  0  0  0  0  0  0  0  0  0
   61.3120   51.4339  132.9027 C   0  0  0  0  0  0  0  0  0  0  0  0
   62.0251   51.7102  131.7544 C   0  0  0  0  0  0  0  0  0  0  0  0
   60.1396   51.2212  135.5580 C   0  0  0  0  0  0  0  0  0  0  0  0
   60.8575   50.0251  134.9603 C   0  0  0  0  0  0  0  0  0  0  0  0
   61.6526   49.3259  136.0596 C   0  0  0  0  0  0  0  0  0  0  0  0
   60.7513   48.9392  137.2367 C   0  0  0  0  0  0  0  0  0  0  0  0
   59.2450   50.7876  136.7111 C   0  0  0  0  0  0  0  0  0  0  0  0
   60.0087   50.0945  137.7620 N   0  0  0  0  0  0  0  0  0  0  0  0
   59.3994   53.6217  140.8200 C   0  0  0  0  0  0  0  0  0  0  0  0
   60.3961   51.8518  141.5115 C   0  0  0  0  0  0  0  0  0  0  0  0
   60.9540   50.5628  141.3380 C   0  0  0  0  0  0  0  0  0  0  0  0
   60.1609   50.6270  139.0546 C   0  0  0  0  0  0  0  0  0  0  0  0
   60.8278   49.9596  140.1266 C   0  0  0  0  0  0  0  0  0  0  0  0
   59.6079   51.8004  139.1479 N   0  0  0  0  0  0  0  0  0  0  0  0
   59.7499   52.3941  140.4129 N   0  0  0  0  0  0  0  0  0  0  0  0
   60.3689   52.7089  142.5156 N   0  0  0  0  0  0  0  0  0  0  0  0
   59.7062   53.8635  142.0632 N   0  0  0  0  0  0  0  0  0  0  0  0
   58.7643   54.4217  139.9667 O   0  0  0  0  0  0  0  0  0  0  0  0
   58.0287   55.5253  140.5505 C   0  0  0  0  0  0  0  0  0  0  0  0
   63.9630   51.0500  130.3535 O   0  0  0  0  0  0  0  0  0  0  0  0
   63.4090   51.3885  129.0817 C   0  0  0  0  0  0  0  0  0  0  0  0
   63.1270   50.0765  128.4162 C   0  0  0  0  0  0  0  0  0  0  0  0
   60.8197   51.0840  124.9648 N   0  0  0  0  0  0  0  0  0  0  0  0
   59.8494   51.4560  123.9364 C   0  0  0  0  0  0  0  0  0  0  0  0
   61.3756   49.8643  124.9484 C   0  0  0  0  0  0  0  0  0  0  0  0
   62.3841   49.4963  126.0175 C   0  0  0  0  0  0  0  0  0  0  0  0
   63.7701   49.4213  125.3916 C   0  0  0  0  0  0  0  0  0  0  0  0
   61.1647   49.0575  124.0660 O   0  0  0  0  0  0  0  0  0  0  0  0
   61.1367   52.1240  125.9450 C   0  0  0  0  0  0  0  0  0  0  0  0
   62.2861   51.7847  126.8808 C   0  0  0  0  0  0  0  0  0  0  0  0
   62.3109   50.3509  127.2165 N   0  0  0  0  0  0  0  0  0  0  0  0
 21 20  1  0  0  0
 21 13  2  0  0  0
 23 22  1  0  0  0
 20 14  2  0  0  0
 13 22  1  0  0  0
 13 19  1  0  0  0
 14 19  1  0  0  0
 14 15  1  0  0  0
 19 18  1  0  0  0
 15 17  2  0  0  0
 18 16  2  0  0  0
 17 16  1  0  0  0
 16 12  1  0  0  0
 12 11  1  0  0  0
 12 10  1  0  0  0
 11  7  1  0  0  0
 10  9  1  0  0  0
  7  8  1  0  0  0
  9  8  1  0  0  0
  8  1  1  0  0  0
  1  5  2  0  0  0
  1  2  1  0  0  0
  5  6  1  0  0  0
  2  3  2  0  0  0
  6  4  2  0  0  0
  3  4  1  0  0  0
  4 24  1  0  0  0
 24 25  1  0  0  0
 25 26  1  0  0  0
 26 35  1  0  0  0
 35 34  1  0  0  0
 35 30  1  0  0  0
 34 33  1  0  0  0
 33 27  1  0  0  0
 30 29  1  0  0  0
 30 31  1  0  0  0
 27 29  1  0  0  0
 27 28  1  0  0  0
 29 32  2  0  0  0
M  END
> <minimizedAffinity>
-10.37749

$$$$
5KHM_XNH_A_201


 35 39  0  0  0  0  0  0  0  0999 V2000
   62.4976   50.4615  134.3647 C   0  0  0  0  0  0  0  0  0  0  0  0
   62.0802   51.2177  135.4513 C   0  0  0  0  0  0  0  0  0  0  0  0
   61.5155   50.6248  136.5626 C   0  0  0  0  0  0  0  0  0  0  0  0
   61.3858   49.2530  136.6136 C   0  0  0  0  0  0  0  0  0  0  0  0
   62.3573   49.0797  134.4354 C   0  0  0  0  0  0  0  0  0  0  0  0
   61.7765   48.4791  135.5333 C   0  0  0  0  0  0  0  0  0  0  0  0
   62.1321   51.9221  132.3209 C   0  0  0  0  0  0  0  0  0  0  0  0
   63.1200   51.1335  133.1607 C   0  0  0  0  0  0  0  0  0  0  0  0
   63.9218   50.2121  132.2454 C   0  0  0  0  0  0  0  0  0  0  0  0
   64.6058   51.0010  131.1242 C   0  0  0  0  0  0  0  0  0  0  0  0
   62.8568   52.7015  131.2323 C   0  0  0  0  0  0  0  0  0  0  0  0
   63.6470   51.8148  130.3620 N   0  0  0  0  0  0  0  0  0  0  0  0
   62.9729   48.9691  126.6727 C   0  0  0  0  0  0  0  0  0  0  0  0
   62.8043   51.0846  126.3553 C   0  0  0  0  0  0  0  0  0  0  0  0
   62.8695   52.4363  126.7690 C   0  0  0  0  0  0  0  0  0  0  0  0
   63.3450   51.6352  129.0003 C   0  0  0  0  0  0  0  0  0  0  0  0
   63.1282   52.7023  128.0765 C   0  0  0  0  0  0  0  0  0  0  0  0
   63.2803   50.3726  128.6957 N   0  0  0  0  0  0  0  0  0  0  0  0
   63.0053   50.1309  127.3395 N   0  0  0  0  0  0  0  0  0  0  0  0
   62.6129   50.4929  125.1904 N   0  0  0  0  0  0  0  0  0  0  0  0
   62.7136   49.1066  125.4030 N   0  0  0  0  0  0  0  0  0  0  0  0
   63.1588   47.8378  127.3488 O   0  0  0  0  0  0  0  0  0  0  0  0
   64.5355   47.4511  127.5833 C   0  0  0  0  0  0  0  0  0  0  0  0
   60.8092   48.8570  137.7862 O   0  0  0  0  0  0  0  0  0  0  0  0
   60.4799   49.8478  138.7602 C   0  0  0  0  0  0  0  0  0  0  0  0
   60.1784   49.0812  140.0113 C   0  0  0  0  0  0  0  0  0  0  0  0
   62.7619   50.6276  143.0420 N   0  0  0  0  0  0  0  0  0  0  0  0
   63.7798   51.2345  143.8982 C   0  0  0  0  0  0  0  0  0  0  0  0
   62.5627   49.3025  143.0780 C   0  0  0  0  0  0  0  0  0  0  0  0
   61.4998   48.6896  142.1892 C   0  0  0  0  0  0  0  0  0  0  0  0
   60.3320   48.2303  143.0517 C   0  0  0  0  0  0  0  0  0  0  0  0
   63.1468   48.5706  143.8507 O   0  0  0  0  0  0  0  0  0  0  0  0
   61.9968   51.5564  142.2085 C   0  0  0  0  0  0  0  0  0  0  0  0
   60.8190   50.9307  141.4781 C   0  0  0  0  0  0  0  0  0  0  0  0
   61.1098   49.5497  141.0572 N   0  0  0  0  0  0  0  0  0  0  0  0
 21 20  1  0  0  0
 21 13  2  0  0  0
 23 22  1  0  0  0
 20 14  2  0  0  0
 13 22  1  0  0  0
 13 19  1  0  0  0
 14 19  1  0  0  0
 14 15  1  0  0  0
 19 18  1  0  0  0
 15 17  2  0  0  0
 18 16  2  0  0  0
 17 16  1  0  0  0
 16 12  1  0  0  0
 12 11  1  0  0  0
 12 10  1  0  0  0
 11  7  1  0  0  0
 10  9  1  0  0  0
  7  8  1  0  0  0
  9  8  1  0  0  0
  8  1  1  0  0  0
  1  5  2  0  0  0
  1  2  1  0  0  0
  5  6  1  0  0  0
  2  3  2  0  0  0
  6  4  2  0  0  0
  3  4  1  0  0  0
  4 24  1  0  0  0
 24 25  1  0  0  0
 25 26  1  0  0  0
 26 35  1  0  0  0
 35 34  1  0  0  0
 35 30  1  0  0  0
 34 33  1  0  0  0
 33 27  1  0  0  0
 30 29  1  0  0  0
 30 31  1  0  0  0
 27 29  1  0  0  0
 27 28  1  0  0  0
 29 32  2  0  0  0
M  END
> <minimizedAffinity>
-10.29412

$$$$
5KHM_XNH_A_201


 35 39  0  0  0  0  0  0  0  0999 V2000
   60.8586   50.3639  136.3387 C   0  0  0  0  0  0  0  0  0  0  0  0
   60.2869   49.6456  135.2976 C   0  0  0  0  0  0  0  0  0  0  0  0
   60.7688   49.7460  134.0080 C   0  0  0  0  0  0  0  0  0  0  0  0
   61.8565   50.5518  133.7458 C   0  0  0  0  0  0  0  0  0  0  0  0
   61.9542   51.1715  136.0534 C   0  0  0  0  0  0  0  0  0  0  0  0
   62.4313   51.2937  134.7646 C   0  0  0  0  0  0  0  0  0  0  0  0
   60.9342   51.2052  138.7326 C   0  0  0  0  0  0  0  0  0  0  0  0
   60.3171   50.2319  137.7451 C   0  0  0  0  0  0  0  0  0  0  0  0
   60.3774   48.8252  138.3344 C   0  0  0  0  0  0  0  0  0  0  0  0
   59.7038   48.7697  139.7093 C   0  0  0  0  0  0  0  0  0  0  0  0
   60.2238   51.1270  140.0768 C   0  0  0  0  0  0  0  0  0  0  0  0
   60.2638   49.7652  140.6355 N   0  0  0  0  0  0  0  0  0  0  0  0
   63.4675   50.8943  143.8951 C   0  0  0  0  0  0  0  0  0  0  0  0
   62.4391   49.0222  144.1014 C   0  0  0  0  0  0  0  0  0  0  0  0
   61.5332   48.0215  143.6766 C   0  0  0  0  0  0  0  0  0  0  0  0
   60.9574   49.4596  141.8200 C   0  0  0  0  0  0  0  0  0  0  0  0
   60.7986   48.2458  142.5553 C   0  0  0  0  0  0  0  0  0  0  0  0
   61.7539   50.4291  142.1618 N   0  0  0  0  0  0  0  0  0  0  0  0
   62.4937   50.1696  143.3274 N   0  0  0  0  0  0  0  0  0  0  0  0
   63.3036   49.1109  145.0956 N   0  0  0  0  0  0  0  0  0  0  0  0
   63.9686   50.3428  144.9642 N   0  0  0  0  0  0  0  0  0  0  0  0
   63.7840   52.0712  143.3603 O   0  0  0  0  0  0  0  0  0  0  0  0
   63.7295   53.2139  144.2498 C   0  0  0  0  0  0  0  0  0  0  0  0
   62.1838   50.5201  132.4207 O   0  0  0  0  0  0  0  0  0  0  0  0
   62.9224   49.4050  131.9207 C   0  0  0  0  0  0  0  0  0  0  0  0
   64.3110   49.9222  131.7015 C   0  0  0  0  0  0  0  0  0  0  0  0
   64.1477   53.8954  130.1400 N   0  0  0  0  0  0  0  0  0  0  0  0
   63.9348   55.2963  129.7799 C   0  0  0  0  0  0  0  0  0  0  0  0
   63.8057   52.9256  129.2801 C   0  0  0  0  0  0  0  0  0  0  0  0
   64.0384   51.4790  129.6656 C   0  0  0  0  0  0  0  0  0  0  0  0
   65.1809   50.9174  128.8302 C   0  0  0  0  0  0  0  0  0  0  0  0
   63.3834   53.1544  128.1651 O   0  0  0  0  0  0  0  0  0  0  0  0
   64.7671   53.6621  131.4456 C   0  0  0  0  0  0  0  0  0  0  0  0
   65.1570   52.2171  131.7138 C   0  0  0  0  0  0  0  0  0  0  0  0
   64.1968   51.2735  131.1168 N   0  0  0  0  0  0  0  0  0  0  0  0
 21 20  1  0  0  0
 21 13  2  0  0  0
 23 22  1  0  0  0
 20 14  2  0  0  0
 13 22  1  0  0  0
 13 19  1  0  0  0
 14 19  1  0  0  0
 14 15  1  0  0  0
 19 18  1  0  0  0
 15 17  2  0  0  0
 18 16  2  0  0  0
 17 16  1  0  0  0
 16 12  1  0  0  0
 12 11  1  0  0  0
 12 10  1  0  0  0
 11  7  1  0  0  0
 10  9  1  0  0  0
  7  8  1  0  0  0
  9  8  1  0  0  0
  8  1  1  0  0  0
  1  5  2  0  0  0
  1  2  1  0  0  0
  5  6  1  0  0  0
  2  3  2  0  0  0
  6  4  2  0  0  0
  3  4  1  0  0  0
  4 24  1  0  0  0
 24 25  1  0  0  0
 25 26  1  0  0  0
 26 35  1  0  0  0
 35 34  1  0  0  0
 35 30  1  0  0  0
 34 33  1  0  0  0
 33 27  1  0  0  0
 30 29  1  0  0  0
 30 31  1  0  0  0
 27 29  1  0  0  0
 27 28  1  0  0  0
 29 32  2  0  0  0
M  END
> <minimizedAffinity>
-9.98146

$$$$
5KHM_XNH_A_201


 35 39  0  0  0  0  0  0  0  0999 V2000
   60.9512   50.4804  136.1459 C   0  0  0  0  0  0  0  0  0  0  0  0
   60.3538   49.8072  135.0891 C   0  0  0  0  0  0  0  0  0  0  0  0
   60.8645   49.8855  133.8090 C   0  0  0  0  0  0  0  0  0  0  0  0
   62.0060   50.6220  133.5726 C   0  0  0  0  0  0  0  0  0  0  0  0
   62.1010   51.2183  135.8864 C   0  0  0  0  0  0  0  0  0  0  0  0
   62.6083   51.3186  134.6073 C   0  0  0  0  0  0  0  0  0  0  0  0
   61.0275   51.3086  138.5443 C   0  0  0  0  0  0  0  0  0  0  0  0
   60.3769   50.3736  137.5414 C   0  0  0  0  0  0  0  0  0  0  0  0
   60.3492   48.9638  138.1256 C   0  0  0  0  0  0  0  0  0  0  0  0
   59.6478   48.9408  139.4876 C   0  0  0  0  0  0  0  0  0  0  0  0
   60.2888   51.2649  139.8747 C   0  0  0  0  0  0  0  0  0  0  0  0
   60.2438   49.9012  140.4282 N   0  0  0  0  0  0  0  0  0  0  0  0
   63.3725   50.8909  143.8039 C   0  0  0  0  0  0  0  0  0  0  0  0
   62.3044   49.0345  143.9353 C   0  0  0  0  0  0  0  0  0  0  0  0
   61.3928   48.0616  143.4607 C   0  0  0  0  0  0  0  0  0  0  0  0
   60.8973   49.5543  141.6241 C   0  0  0  0  0  0  0  0  0  0  0  0
   60.6951   48.3266  142.3248 C   0  0  0  0  0  0  0  0  0  0  0  0
   61.7013   50.5000  142.0119 N   0  0  0  0  0  0  0  0  0  0  0  0
   62.4023   50.1987  143.1913 N   0  0  0  0  0  0  0  0  0  0  0  0
   63.1413   49.0829  144.9555 N   0  0  0  0  0  0  0  0  0  0  0  0
   63.8324   50.3047  144.8730 N   0  0  0  0  0  0  0  0  0  0  0  0
   63.7258   52.0741  143.3071 O   0  0  0  0  0  0  0  0  0  0  0  0
   63.7790   53.1738  144.2492 C   0  0  0  0  0  0  0  0  0  0  0  0
   62.3546   50.5784  132.2532 O   0  0  0  0  0  0  0  0  0  0  0  0
   63.2686   49.5724  131.8157 C   0  0  0  0  0  0  0  0  0  0  0  0
   64.3441   50.3134  131.0822 C   0  0  0  0  0  0  0  0  0  0  0  0
   63.6626   49.4115  126.9624 N   0  0  0  0  0  0  0  0  0  0  0  0
   63.6063   48.9454  125.5778 C   0  0  0  0  0  0  0  0  0  0  0  0
   63.9884   50.6848  127.2255 C   0  0  0  0  0  0  0  0  0  0  0  0
   64.0363   51.1540  128.6653 C   0  0  0  0  0  0  0  0  0  0  0  0
   62.8607   52.0859  128.9260 C   0  0  0  0  0  0  0  0  0  0  0  0
   64.1759   51.5091  126.3540 O   0  0  0  0  0  0  0  0  0  0  0  0
   63.3163   48.4191  127.9813 C   0  0  0  0  0  0  0  0  0  0  0  0
   63.1907   48.9746  129.3911 C   0  0  0  0  0  0  0  0  0  0  0  0
   64.1603   50.0549  129.6399 N   0  0  0  0  0  0  0  0  0  0  0  0
 21 20  1  0  0  0
 21 13  2  0  0  0
 23 22  1  0  0  0
 20 14  2  0  0  0
 13 22  1  0  0  0
 13 19  1  0  0  0
 14 19  1  0  0  0
 14 15  1  0  0  0
 19 18  1  0  0  0
 15 17  2  0  0  0
 18 16  2  0  0  0
 17 16  1  0  0  0
 16 12  1  0  0  0
 12 11  1  0  0  0
 12 10  1  0  0  0
 11  7  1  0  0  0
 10  9  1  0  0  0
  7  8  1  0  0  0
  9  8  1  0  0  0
  8  1  1  0  0  0
  1  5  2  0  0  0
  1  2  1  0  0  0
  5  6  1  0  0  0
  2  3  2  0  0  0
  6  4  2  0  0  0
  3  4  1  0  0  0
  4 24  1  0  0  0
 24 25  1  0  0  0
 25 26  1  0  0  0
 26 35  1  0  0  0
 35 34  1  0  0  0
 35 30  1  0  0  0
 34 33  1  0  0  0
 33 27  1  0  0  0
 30 29  1  0  0  0
 30 31  1  0  0  0
 27 29  1  0  0  0
 27 28  1  0  0  0
 29 32  2  0  0  0
M  END
> <minimizedAffinity>
-9.76667

$$$$
5KHM_XNH_A_201


 35 39  0  0  0  0  0  0  0  0999 V2000
   62.1645   50.3547  134.7853 C   0  0  0  0  0  0  0  0  0  0  0  0
   62.1240   49.0131  135.1395 C   0  0  0  0  0  0  0  0  0  0  0  0
   61.6040   48.6073  136.3520 C   0  0  0  0  0  0  0  0  0  0  0  0
   61.0873   49.5441  137.2219 C   0  0  0  0  0  0  0  0  0  0  0  0
   61.6392   51.2838  135.6768 C   0  0  0  0  0  0  0  0  0  0  0  0
   61.1349   50.8903  136.8993 C   0  0  0  0  0  0  0  0  0  0  0  0
   61.6799   51.0003  132.3786 C   0  0  0  0  0  0  0  0  0  0  0  0
   62.7331   50.7744  133.4477 C   0  0  0  0  0  0  0  0  0  0  0  0
   63.8178   49.8584  132.8874 C   0  0  0  0  0  0  0  0  0  0  0  0
   64.4099   50.4260  131.5933 C   0  0  0  0  0  0  0  0  0  0  0  0
   62.3104   51.5790  131.1195 C   0  0  0  0  0  0  0  0  0  0  0  0
   63.3712   50.7054  130.5907 N   0  0  0  0  0  0  0  0  0  0  0  0
   62.2631   50.8217  126.0166 C   0  0  0  0  0  0  0  0  0  0  0  0
   62.9469   48.9614  126.8390 C   0  0  0  0  0  0  0  0  0  0  0  0
   63.3769   48.1268  127.8979 C   0  0  0  0  0  0  0  0  0  0  0  0
   63.2611   50.0595  129.3464 C   0  0  0  0  0  0  0  0  0  0  0  0
   63.5383   48.6753  129.1309 C   0  0  0  0  0  0  0  0  0  0  0  0
   62.8833   50.8883  128.4182 N   0  0  0  0  0  0  0  0  0  0  0  0
   62.7318   50.2927  127.1551 N   0  0  0  0  0  0  0  0  0  0  0  0
   62.6651   48.7519  125.5661 N   0  0  0  0  0  0  0  0  0  0  0  0
   62.2273   49.9745  125.0271 N   0  0  0  0  0  0  0  0  0  0  0  0
   61.9346   52.1113  125.9979 O   0  0  0  0  0  0  0  0  0  0  0  0
   60.5336   52.4118  125.7817 C   0  0  0  0  0  0  0  0  0  0  0  0
   60.6217   48.9529  138.3612 O   0  0  0  0  0  0  0  0  0  0  0  0
   59.3574   49.3635  138.8824 C   0  0  0  0  0  0  0  0  0  0  0  0
   59.5483   49.4275  140.3667 C   0  0  0  0  0  0  0  0  0  0  0  0
   58.7852   53.3776  141.8040 N   0  0  0  0  0  0  0  0  0  0  0  0
   58.2940   54.6732  142.2705 C   0  0  0  0  0  0  0  0  0  0  0  0
   59.5176   53.3053  140.6836 C   0  0  0  0  0  0  0  0  0  0  0  0
   60.0245   51.9560  140.2166 C   0  0  0  0  0  0  0  0  0  0  0  0
   61.5310   51.8886  140.4273 C   0  0  0  0  0  0  0  0  0  0  0  0
   59.8618   54.2876  140.0585 O   0  0  0  0  0  0  0  0  0  0  0  0
   58.4485   52.2294  142.6472 C   0  0  0  0  0  0  0  0  0  0  0  0
   59.1313   50.9297  142.2514 C   0  0  0  0  0  0  0  0  0  0  0  0
   59.2852   50.8173  140.7911 N   0  0  0  0  0  0  0  0  0  0  0  0
 21 20  1  0  0  0
 21 13  2  0  0  0
 23 22  1  0  0  0
 20 14  2  0  0  0
 13 22  1  0  0  0
 13 19  1  0  0  0
 14 19  1  0  0  0
 14 15  1  0  0  0
 19 18  1  0  0  0
 15 17  2  0  0  0
 18 16  2  0  0  0
 17 16  1  0  0  0
 16 12  1  0  0  0
 12 11  1  0  0  0
 12 10  1  0  0  0
 11  7  1  0  0  0
 10  9  1  0  0  0
  7  8  1  0  0  0
  9  8  1  0  0  0
  8  1  1  0  0  0
  1  5  2  0  0  0
  1  2  1  0  0  0
  5  6  1  0  0  0
  2  3  2  0  0  0
  6  4  2  0  0  0
  3  4  1  0  0  0
  4 24  1  0  0  0
 24 25  1  0  0  0
 25 26  1  0  0  0
 26 35  1  0  0  0
 35 34  1  0  0  0
 35 30  1  0  0  0
 34 33  1  0  0  0
 33 27  1  0  0  0
 30 29  1  0  0  0
 30 31  1  0  0  0
 27 29  1  0  0  0
 27 28  1  0  0  0
 29 32  2  0  0  0
M  END
> <minimizedAffinity>
-9.67879

$$$$
5KHM_XNH_A_201


 35 39  0  0  0  0  0  0  0  0999 V2000
   60.5656   50.4653  135.4982 C   0  0  0  0  0  0  0  0  0  0  0  0
   59.4895   49.8721  136.1440 C   0  0  0  0  0  0  0  0  0  0  0  0
   59.2180   50.1332  137.4720 C   0  0  0  0  0  0  0  0  0  0  0  0
   60.0095   51.0208  138.1697 C   0  0  0  0  0  0  0  0  0  0  0  0
   61.3522   51.3568  136.2196 C   0  0  0  0  0  0  0  0  0  0  0  0
   61.1008   51.6097  137.5524 C   0  0  0  0  0  0  0  0  0  0  0  0
   61.9551   49.1647  133.8185 C   0  0  0  0  0  0  0  0  0  0  0  0
   60.8390   50.1687  134.0402 C   0  0  0  0  0  0  0  0  0  0  0  0
   61.0948   51.3933  133.1658 C   0  0  0  0  0  0  0  0  0  0  0  0
   61.2455   51.0018  131.6922 C   0  0  0  0  0  0  0  0  0  0  0  0
   62.0569   48.7934  132.3456 C   0  0  0  0  0  0  0  0  0  0  0  0
   62.2828   49.9774  131.4998 N   0  0  0  0  0  0  0  0  0  0  0  0
   66.9514   49.5054  131.1188 C   0  0  0  0  0  0  0  0  0  0  0  0
   65.9037   50.4713  129.5145 C   0  0  0  0  0  0  0  0  0  0  0  0
   64.7456   50.9950  128.8922 C   0  0  0  0  0  0  0  0  0  0  0  0
   63.4714   50.1645  130.7720 C   0  0  0  0  0  0  0  0  0  0  0  0
   63.5472   50.8336  129.5128 C   0  0  0  0  0  0  0  0  0  0  0  0
   64.4888   49.6415  131.3907 N   0  0  0  0  0  0  0  0  0  0  0  0
   65.7108   49.8194  130.7212 N   0  0  0  0  0  0  0  0  0  0  0  0
   67.1889   50.4818  129.2113 N   0  0  0  0  0  0  0  0  0  0  0  0
   67.8719   49.8393  130.2589 N   0  0  0  0  0  0  0  0  0  0  0  0
   67.1109   48.8750  132.2801 O   0  0  0  0  0  0  0  0  0  0  0  0
   68.3778   48.1985  132.4725 C   0  0  0  0  0  0  0  0  0  0  0  0
   59.5851   51.1478  139.4612 O   0  0  0  0  0  0  0  0  0  0  0  0
   60.5575   51.3347  140.4900 C   0  0  0  0  0  0  0  0  0  0  0  0
   61.1343   49.9742  140.7347 C   0  0  0  0  0  0  0  0  0  0  0  0
   63.6337   50.4628  144.1648 N   0  0  0  0  0  0  0  0  0  0  0  0
   64.6647   50.6644  145.1816 C   0  0  0  0  0  0  0  0  0  0  0  0
   63.0088   49.2804  144.0728 C   0  0  0  0  0  0  0  0  0  0  0  0
   61.9383   49.0892  143.0179 C   0  0  0  0  0  0  0  0  0  0  0  0
   60.5767   49.0185  143.6956 C   0  0  0  0  0  0  0  0  0  0  0  0
   63.2077   48.3694  144.8504 O   0  0  0  0  0  0  0  0  0  0  0  0
   63.3385   51.6217  143.3207 C   0  0  0  0  0  0  0  0  0  0  0  0
   62.1345   51.4516  142.4078 C   0  0  0  0  0  0  0  0  0  0  0  0
   62.0128   50.0680  141.9180 N   0  0  0  0  0  0  0  0  0  0  0  0
 21 20  1  0  0  0
 21 13  2  0  0  0
 23 22  1  0  0  0
 20 14  2  0  0  0
 13 22  1  0  0  0
 13 19  1  0  0  0
 14 19  1  0  0  0
 14 15  1  0  0  0
 19 18  1  0  0  0
 15 17  2  0  0  0
 18 16  2  0  0  0
 17 16  1  0  0  0
 16 12  1  0  0  0
 12 11  1  0  0  0
 12 10  1  0  0  0
 11  7  1  0  0  0
 10  9  1  0  0  0
  7  8  1  0  0  0
  9  8  1  0  0  0
  8  1  1  0  0  0
  1  5  2  0  0  0
  1  2  1  0  0  0
  5  6  1  0  0  0
  2  3  2  0  0  0
  6  4  2  0  0  0
  3  4  1  0  0  0
  4 24  1  0  0  0
 24 25  1  0  0  0
 25 26  1  0  0  0
 26 35  1  0  0  0
 35 34  1  0  0  0
 35 30  1  0  0  0
 34 33  1  0  0  0
 33 27  1  0  0  0
 30 29  1  0  0  0
 30 31  1  0  0  0
 27 29  1  0  0  0
 27 28  1  0  0  0
 29 32  2  0  0  0
M  END
> <minimizedAffinity>
-9.57429

$$$$
5KHM_XNH_A_201


 35 39  0  0  0  0  0  0  0  0999 V2000
   62.5539   50.9826  132.0858 C   0  0  0  0  0  0  0  0  0  0  0  0
   63.3143   51.3256  133.1953 C   0  0  0  0  0  0  0  0  0  0  0  0
   62.7764   51.3071  134.4664 C   0  0  0  0  0  0  0  0  0  0  0  0
   61.4673   50.9143  134.6488 C   0  0  0  0  0  0  0  0  0  0  0  0
   61.2356   50.5903  132.2909 C   0  0  0  0  0  0  0  0  0  0  0  0
   60.6830   50.5869  133.5551 C   0  0  0  0  0  0  0  0  0  0  0  0
   62.4644   51.9379  129.7356 C   0  0  0  0  0  0  0  0  0  0  0  0
   63.1677   51.0040  130.7033 C   0  0  0  0  0  0  0  0  0  0  0  0
   63.3277   49.6372  130.0431 C   0  0  0  0  0  0  0  0  0  0  0  0
   64.0603   49.7504  128.7023 C   0  0  0  0  0  0  0  0  0  0  0  0
   63.2352   52.0319  128.4261 C   0  0  0  0  0  0  0  0  0  0  0  0
   63.4078   50.7105  127.7997 N   0  0  0  0  0  0  0  0  0  0  0  0
   60.4677   51.7586  124.2753 C   0  0  0  0  0  0  0  0  0  0  0  0
   61.5240   49.8931  124.1831 C   0  0  0  0  0  0  0  0  0  0  0  0
   62.4007   48.9075  124.6956 C   0  0  0  0  0  0  0  0  0  0  0  0
   62.8140   50.3800  126.5685 C   0  0  0  0  0  0  0  0  0  0  0  0
   63.0410   49.1562  125.8684 C   0  0  0  0  0  0  0  0  0  0  0  0
   62.0400   51.3366  126.1479 N   0  0  0  0  0  0  0  0  0  0  0  0
   61.3984   51.0520  124.9312 N   0  0  0  0  0  0  0  0  0  0  0  0
   60.7416   49.9581  123.1213 N   0  0  0  0  0  0  0  0  0  0  0  0
   60.0585   51.1858  123.1787 N   0  0  0  0  0  0  0  0  0  0  0  0
   60.1000   52.9409  124.7635 O   0  0  0  0  0  0  0  0  0  0  0  0
   60.0523   54.0374  123.8173 C   0  0  0  0  0  0  0  0  0  0  0  0
   61.1196   50.9603  135.9684 O   0  0  0  0  0  0  0  0  0  0  0  0
   60.3866   49.8688  136.5254 C   0  0  0  0  0  0  0  0  0  0  0  0
   59.3877   50.4984  137.4471 C   0  0  0  0  0  0  0  0  0  0  0  0
   60.0638   48.6140  141.2211 N   0  0  0  0  0  0  0  0  0  0  0  0
   60.1195   47.8217  142.4486 C   0  0  0  0  0  0  0  0  0  0  0  0
   59.7294   49.9109  141.2781 C   0  0  0  0  0  0  0  0  0  0  0  0
   59.6823   50.7199  139.9980 C   0  0  0  0  0  0  0  0  0  0  0  0
   60.8518   51.6947  139.9802 C   0  0  0  0  0  0  0  0  0  0  0  0
   59.5334   50.4940  142.3249 O   0  0  0  0  0  0  0  0  0  0  0  0
   60.4203   47.9054  139.9909 C   0  0  0  0  0  0  0  0  0  0  0  0
   60.5459   48.7917  138.7618 C   0  0  0  0  0  0  0  0  0  0  0  0
   59.5692   49.8938  138.7822 N   0  0  0  0  0  0  0  0  0  0  0  0
 21 20  1  0  0  0
 21 13  2  0  0  0
 23 22  1  0  0  0
 20 14  2  0  0  0
 13 22  1  0  0  0
 13 19  1  0  0  0
 14 19  1  0  0  0
 14 15  1  0  0  0
 19 18  1  0  0  0
 15 17  2  0  0  0
 18 16  2  0  0  0
 17 16  1  0  0  0
 16 12  1  0  0  0
 12 11  1  0  0  0
 12 10  1  0  0  0
 11  7  1  0  0  0
 10  9  1  0  0  0
  7  8  1  0  0  0
  9  8  1  0  0  0
  8  1  1  0  0  0
  1  5  2  0  0  0
  1  2  1  0  0  0
  5  6  1  0  0  0
  2  3  2  0  0  0
  6  4  2  0  0  0
  3  4  1  0  0  0
  4 24  1  0  0  0
 24 25  1  0  0  0
 25 26  1  0  0  0
 26 35  1  0  0  0
 35 34  1  0  0  0
 35 30  1  0  0  0
 34 33  1  0  0  0
 33 27  1  0  0  0
 30 29  1  0  0  0
 30 31  1  0  0  0
 27 29  1  0  0  0
 27 28  1  0  0  0
 29 32  2  0  0  0
M  END
> <minimizedAffinity>
-9.48452

$$$$
