5J8M_6DL_A_301
  RCSB PDB12061718233D
Coordinates from PDB:5J8M:A:301 Model:1 without hydrogens
 22 24  0  0  0  0            999 V2000
  -37.9100   -0.3220    9.0270   C 0  0  0  0  0  0  0  0  0  0  0  0
  -38.4830   -1.6090    9.0300   C 0  0  0  0  0  0  0  0  0  0  0  0
  -39.8620   -1.7100    8.8150   C 0  0  0  0  0  0  0  0  0  0  0  0
  -42.1200   -0.6480    8.4570   C 0  0  0  0  0  0  0  0  0  0  0  0
  -44.2560   -0.3640    8.9110   C 0  0  0  0  0  0  0  0  0  0  0  0
  -42.7240    0.7500   10.4630   C 0  0  0  0  0  0  0  0  0  0  0  0
  -42.7410    2.1500   10.3550   C 0  0  0  0  0  0  0  0  0  0  0  0
  -42.4280    2.9520   11.4540   C 0  0  0  0  0  0  0  0  0  0  0  0
  -42.4060    0.1580   11.6870   C 0  0  0  0  0  0  0  0  0  0  0  0
  -40.6550   -0.5620    8.6030   C 0  0  0  0  0  0  0  0  0  0  0  0
  -40.0760    0.7060    8.6420   C 0  0  0  0  0  0  0  0  0  0  0  0
  -38.7230    0.8010    8.8480   C 0  0  0  0  0  0  0  0  0  0  0  0
  -36.6010   -0.1140    9.3080   O 0  0  0  0  0  0  0  0  0  0  0  0
  -40.4530   -2.9160    8.7600   O 0  0  0  0  0  0  0  0  0  0  0  0
  -42.7760   -1.3040    7.5380   N 0  0  0  0  0  0  0  0  0  0  0  0
  -44.1350   -1.1300    7.8070   N 0  0  0  0  0  0  0  0  0  0  0  0
  -43.0220   -0.0540    9.3360   N 0  0  0  0  0  0  0  0  0  0  0  0
  -42.0940    2.3580   12.6640   C 0  0  0  0  0  0  0  0  0  0  0  0
  -42.0910    0.9700   12.7760   C 0  0  0  0  0  0  0  0  0  0  0  0
  -45.2870   -0.0030    9.4460   O 0  0  0  0  0  0  0  0  0  0  0  0
  -43.1010    2.7250    9.1880   F 0  0  0  0  0  0  0  0  0  0  0  0
  -37.9870    2.5180    8.7780  Br 0  0  0  0  0  0  0  0  0  0  0  0
 16  5  1  0  0  0  0
 16 15  1  0  0  0  0
 20  5  2  0  0  0  0
  5 17  1  0  0  0  0
 15  4  2  0  0  0  0
 21  7  1  0  0  0  0
 17  4  1  0  0  0  0
 17  6  1  0  0  0  0
  4 10  1  0  0  0  0
  7  6  2  0  0  0  0
  7  8  1  0  0  0  0
  6  9  1  0  0  0  0
 10 11  2  0  0  0  0
 10  3  1  0  0  0  0
  8 18  2  0  0  0  0
 14  3  1  0  0  0  0
 11 12  1  0  0  0  0
  3  2  2  0  0  0  0
  9 19  2  0  0  0  0
 18 19  1  0  0  0  0
 12 22  1  0  0  0  0
 12  1  2  0  0  0  0
  2  1  1  0  0  0  0
  1 13  1  0  0  0  0
A    1
C1
A    2
C2
A    3
C3
A    4
C9
A    5
C12
A    6
C14
A    7
C15
A    8
C16
A    9
C19
A   10
C4
A   11
C5
A   12
C6
A   13
O7
A   14
O8
A   15
N10
A   16
N11
A   17
N13
A   18
C17
A   19
C18
A   20
O20
A   21
F21
A   22
BR
M  END
>  <InstanceId>
5J8M_6DL_A_301

>  <ChemCompId>
6DL

>  <PdbId>
5J8M

>  <ChainId>
A

>  <ResidueNumber>
301

>  <InsertionCode>


>  <Model>
1

>  <AltIds>


>  <MissingHeavyAtoms>
22

>  <ObservedFormula>
C14 N3 O3 Br F

>  <Name>
5-(5-Bromo-2,4-dihydroxy-phenyl)-4-(2-fluoro-phenyl)-2,4-dihydro-[1,2,4]triazol-3-one

>  <SystematicName>
3-[5-bromanyl-2,4-bis(oxidanyl)phenyl]-4-(2-fluorophenyl)-1~{H}-1,2,4-triazol-5-one

>  <Synonyms>


>  <Type>
NON-POLYMER

>  <Formula>
C14 H9 Br F N3 O3

>  <MolecularWeight>
366.142

>  <ModifiedDate>
2017-12-01

>  <Parent>


>  <OneLetterCode>


>  <SubcomponentList>


>  <AmbiguousFlag>
N

>  <InChI>
InChI=1S/C14H9BrFN3O3/c15-8-5-7(11(20)6-12(8)21)13-17-18-14(22)19(13)10-4-2-1-3-9(10)16/h1-6,20-21H,(H,18,22)

>  <InChIKey>
WTHWBOWCSOCLLT-UHFFFAOYSA-N

>  <SMILES>
c1ccc(c(c1)N2C(=NNC2=O)c3cc(c(cc3O)O)Br)F

$$$$
