5J8M_6DL_A_301


 25 27  0  0  0  0  0  0  0  0999 V2000
  -42.0305   -0.6699    8.4408 C   0  0  0  0  0  0  0  0  0  0  0  0
  -44.1658   -0.5200    8.9579 C   0  0  0  0  0  0  0  0  0  0  0  0
  -42.6726   -1.3484    7.5284 N   0  0  0  0  0  0  0  0  0  0  0  0
  -44.0313   -1.2594    7.8374 N   0  0  0  0  0  0  0  0  0  0  0  0
  -42.9405   -0.1447    9.3546 N   0  0  0  0  0  0  0  0  0  0  0  0
  -45.2006   -0.2293    9.5271 O   0  0  0  0  0  0  0  0  0  0  0  0
  -44.7664   -1.6669    7.3247 H   0  0  0  0  0  0  0  0  0  0  0  0
  -37.8352   -0.0590    8.8675 C   0  0  0  0  0  0  0  0  0  0  0  0
  -38.3720   -1.2941    9.2810 C   0  0  0  0  0  0  0  0  0  0  0  0
  -39.7462   -1.4977    9.1126 C   0  0  0  0  0  0  0  0  0  0  0  0
  -40.5695   -0.5000    8.5484 C   0  0  0  0  0  0  0  0  0  0  0  0
  -40.0264    0.7307    8.1807 C   0  0  0  0  0  0  0  0  0  0  0  0
  -38.6781    0.9250    8.3426 C   0  0  0  0  0  0  0  0  0  0  0  0
  -36.5345    0.2651    9.0646 O   0  0  0  0  0  0  0  0  0  0  0  0
  -40.3028   -2.6751    9.4454 O   0  0  0  0  0  0  0  0  0  0  0  0
  -37.9899    2.5510    7.7284 Br  0  0  0  0  0  0  0  0  0  0  0  0
  -36.2098    1.0956    8.7770 H   0  0  0  0  0  0  0  0  0  0  0  0
  -41.2234   -2.8070    9.3309 H   0  0  0  0  0  0  0  0  0  0  0  0
  -42.6584    0.6570   10.4873 C   0  0  0  0  0  0  0  0  0  0  0  0
  -42.5810    2.0535   10.3615 C   0  0  0  0  0  0  0  0  0  0  0  0
  -42.2825    2.8518   11.4672 C   0  0  0  0  0  0  0  0  0  0  0  0
  -42.4498    0.0658   11.7350 C   0  0  0  0  0  0  0  0  0  0  0  0
  -42.0572    2.2574   12.7019 C   0  0  0  0  0  0  0  0  0  0  0  0
  -42.1480    0.8738   12.8307 C   0  0  0  0  0  0  0  0  0  0  0  0
  -42.8358    2.6312    9.1684 F   0  0  0  0  0  0  0  0  0  0  0  0
  4  2  1  0  0  0
  4  3  1  0  0  0
  6  2  2  0  0  0
  2  5  1  0  0  0
  3  1  2  0  0  0
 25 20  1  0  0  0
  5  1  1  0  0  0
  5 19  1  0  0  0
  1 11  1  0  0  0
 20 19  2  0  0  0
 20 21  1  0  0  0
 19 22  1  0  0  0
 11 12  2  0  0  0
 11 10  1  0  0  0
 21 23  2  0  0  0
 15 10  1  0  0  0
 12 13  1  0  0  0
 10  9  2  0  0  0
 22 24  2  0  0  0
 23 24  1  0  0  0
 13 16  1  0  0  0
 13  8  2  0  0  0
  9  8  1  0  0  0
  8 14  1  0  0  0
 14 17  1  0  0  0
 15 18  1  0  0  0
  4  7  1  0  0  0
M  END
> <minimizedAffinity>
-8.75024

$$$$
5J8M_6DL_A_301


 25 27  0  0  0  0  0  0  0  0999 V2000
  -42.8533    0.3431    9.8231 C   0  0  0  0  0  0  0  0  0  0  0  0
  -42.8142   -0.7466    7.9099 C   0  0  0  0  0  0  0  0  0  0  0  0
  -44.0949    0.2624    9.4268 N   0  0  0  0  0  0  0  0  0  0  0  0
  -44.0901   -0.4321    8.2155 N   0  0  0  0  0  0  0  0  0  0  0  0
  -42.0268   -0.2750    8.8882 N   0  0  0  0  0  0  0  0  0  0  0  0
  -42.4202   -1.3501    6.9301 O   0  0  0  0  0  0  0  0  0  0  0  0
  -44.8831   -0.6545    7.6760 H   0  0  0  0  0  0  0  0  0  0  0  0
  -41.5313    2.4055   13.3094 C   0  0  0  0  0  0  0  0  0  0  0  0
  -42.1896    1.1713   13.4773 C   0  0  0  0  0  0  0  0  0  0  0  0
  -42.5966    0.4868   12.3267 C   0  0  0  0  0  0  0  0  0  0  0  0
  -42.3577    1.0137   11.0395 C   0  0  0  0  0  0  0  0  0  0  0  0
  -41.7391    2.2551   10.8947 C   0  0  0  0  0  0  0  0  0  0  0  0
  -41.3369    2.9210   12.0247 C   0  0  0  0  0  0  0  0  0  0  0  0
  -41.1737    3.1817   14.3607 O   0  0  0  0  0  0  0  0  0  0  0  0
  -43.1859   -0.7171   12.4269 O   0  0  0  0  0  0  0  0  0  0  0  0
  -40.4139    4.5256   11.7634 Br  0  0  0  0  0  0  0  0  0  0  0  0
  -40.7369    3.9975   14.2136 H   0  0  0  0  0  0  0  0  0  0  0  0
  -43.4568   -1.1719   11.6538 H   0  0  0  0  0  0  0  0  0  0  0  0
  -40.6187   -0.4149    8.9426 C   0  0  0  0  0  0  0  0  0  0  0  0
  -39.7891    0.6724    8.6243 C   0  0  0  0  0  0  0  0  0  0  0  0
  -38.3997    0.5395    8.6539 C   0  0  0  0  0  0  0  0  0  0  0  0
  -40.0451   -1.6347    9.3072 C   0  0  0  0  0  0  0  0  0  0  0  0
  -37.8343   -0.6811    8.9988 C   0  0  0  0  0  0  0  0  0  0  0  0
  -38.6561   -1.7558    9.3287 C   0  0  0  0  0  0  0  0  0  0  0  0
  -40.3407    1.8674    8.3246 F   0  0  0  0  0  0  0  0  0  0  0  0
  4  2  1  0  0  0
  4  3  1  0  0  0
  6  2  2  0  0  0
  2  5  1  0  0  0
  3  1  2  0  0  0
 25 20  1  0  0  0
  5  1  1  0  0  0
  5 19  1  0  0  0
  1 11  1  0  0  0
 20 19  2  0  0  0
 20 21  1  0  0  0
 19 22  1  0  0  0
 11 12  2  0  0  0
 11 10  1  0  0  0
 21 23  2  0  0  0
 15 10  1  0  0  0
 12 13  1  0  0  0
 10  9  2  0  0  0
 22 24  2  0  0  0
 23 24  1  0  0  0
 13 16  1  0  0  0
 13  8  2  0  0  0
  9  8  1  0  0  0
  8 14  1  0  0  0
 14 17  1  0  0  0
 15 18  1  0  0  0
  4  7  1  0  0  0
M  END
> <minimizedAffinity>
-8.55794

$$$$
5J8M_6DL_A_301


 25 27  0  0  0  0  0  0  0  0999 V2000
  -41.7388    3.7551   14.5774 C   0  0  0  0  0  0  0  0  0  0  0  0
  -42.8841    4.5983   16.2586 C   0  0  0  0  0  0  0  0  0  0  0  0
  -41.0033    3.5779   15.6418 N   0  0  0  0  0  0  0  0  0  0  0  0
  -41.7177    4.1023   16.7208 N   0  0  0  0  0  0  0  0  0  0  0  0
  -42.9213    4.3990   14.9326 N   0  0  0  0  0  0  0  0  0  0  0  0
  -43.7632    5.1343   16.9063 O   0  0  0  0  0  0  0  0  0  0  0  0
  -41.4206    4.1090   17.6594 H   0  0  0  0  0  0  0  0  0  0  0  0
  -40.8928    2.7017   10.5364 C   0  0  0  0  0  0  0  0  0  0  0  0
  -40.4055    3.9327   11.0179 C   0  0  0  0  0  0  0  0  0  0  0  0
  -40.6639    4.2595   12.3537 C   0  0  0  0  0  0  0  0  0  0  0  0
  -41.3894    3.3869   13.1928 C   0  0  0  0  0  0  0  0  0  0  0  0
  -41.8968    2.1903   12.6874 C   0  0  0  0  0  0  0  0  0  0  0  0
  -41.6373    1.8709   11.3788 C   0  0  0  0  0  0  0  0  0  0  0  0
  -40.7668    2.3333    9.2386 O   0  0  0  0  0  0  0  0  0  0  0  0
  -40.1815    5.3991   12.8784 O   0  0  0  0  0  0  0  0  0  0  0  0
  -42.2464    0.2043   10.7902 Br  0  0  0  0  0  0  0  0  0  0  0  0
  -41.1024    1.5070    8.9515 H   0  0  0  0  0  0  0  0  0  0  0  0
  -40.3569    5.6139   13.7734 H   0  0  0  0  0  0  0  0  0  0  0  0
  -43.9907    4.7677   14.0807 C   0  0  0  0  0  0  0  0  0  0  0  0
  -44.0474    6.0623   13.5398 C   0  0  0  0  0  0  0  0  0  0  0  0
  -45.1083    6.4432   12.7160 C   0  0  0  0  0  0  0  0  0  0  0  0
  -44.9983    3.8501   13.7767 C   0  0  0  0  0  0  0  0  0  0  0  0
  -46.1177    5.5327   12.4321 C   0  0  0  0  0  0  0  0  0  0  0  0
  -46.0548    4.2441   12.9562 C   0  0  0  0  0  0  0  0  0  0  0  0
  -43.0468    6.9337   13.7880 F   0  0  0  0  0  0  0  0  0  0  0  0
  4  2  1  0  0  0
  4  3  1  0  0  0
  6  2  2  0  0  0
  2  5  1  0  0  0
  3  1  2  0  0  0
 25 20  1  0  0  0
  5  1  1  0  0  0
  5 19  1  0  0  0
  1 11  1  0  0  0
 20 19  2  0  0  0
 20 21  1  0  0  0
 19 22  1  0  0  0
 11 12  2  0  0  0
 11 10  1  0  0  0
 21 23  2  0  0  0
 15 10  1  0  0  0
 12 13  1  0  0  0
 10  9  2  0  0  0
 22 24  2  0  0  0
 23 24  1  0  0  0
 13 16  1  0  0  0
 13  8  2  0  0  0
  9  8  1  0  0  0
  8 14  1  0  0  0
 14 17  1  0  0  0
 15 18  1  0  0  0
  4  7  1  0  0  0
M  END
> <minimizedAffinity>
-7.88616

$$$$
5J8M_6DL_A_301


 25 27  0  0  0  0  0  0  0  0999 V2000
  -42.7064    4.1776   13.3620 C   0  0  0  0  0  0  0  0  0  0  0  0
  -40.8907    4.0937   12.1189 C   0  0  0  0  0  0  0  0  0  0  0  0
  -41.9658    5.1867   13.7341 N   0  0  0  0  0  0  0  0  0  0  0  0
  -40.8104    5.1528   12.9509 N   0  0  0  0  0  0  0  0  0  0  0  0
  -42.0547    3.4702   12.3552 N   0  0  0  0  0  0  0  0  0  0  0  0
  -40.0698    3.7444   11.2921 O   0  0  0  0  0  0  0  0  0  0  0  0
  -40.0639    5.7930   12.9978 H   0  0  0  0  0  0  0  0  0  0  0  0
  -46.5086    2.9585   14.8496 C   0  0  0  0  0  0  0  0  0  0  0  0
  -45.3565    2.5170   15.5297 C   0  0  0  0  0  0  0  0  0  0  0  0
  -44.1126    2.9437   15.0516 C   0  0  0  0  0  0  0  0  0  0  0  0
  -44.0126    3.7876   13.9249 C   0  0  0  0  0  0  0  0  0  0  0  0
  -45.1622    4.1828   13.2417 C   0  0  0  0  0  0  0  0  0  0  0  0
  -46.3804    3.7667   13.7162 C   0  0  0  0  0  0  0  0  0  0  0  0
  -47.7512    2.5344   15.1838 O   0  0  0  0  0  0  0  0  0  0  0  0
  -42.9837    2.5917   15.6907 O   0  0  0  0  0  0  0  0  0  0  0  0
  -47.8894    4.4196   12.8267 Br  0  0  0  0  0  0  0  0  0  0  0  0
  -48.4964    2.8482   14.7105 H   0  0  0  0  0  0  0  0  0  0  0  0
  -42.1528    2.8797   15.3670 H   0  0  0  0  0  0  0  0  0  0  0  0
  -42.5173    2.3182   11.6739 C   0  0  0  0  0  0  0  0  0  0  0  0
  -42.2914    1.0414   12.2132 C   0  0  0  0  0  0  0  0  0  0  0  0
  -42.7244   -0.1021   11.5395 C   0  0  0  0  0  0  0  0  0  0  0  0
  -43.1958    2.4422   10.4598 C   0  0  0  0  0  0  0  0  0  0  0  0
  -43.3820    0.0259   10.3231 C   0  0  0  0  0  0  0  0  0  0  0  0
  -43.6193    1.2921    9.7945 C   0  0  0  0  0  0  0  0  0  0  0  0
  -41.6842    0.9216   13.4128 F   0  0  0  0  0  0  0  0  0  0  0  0
  4  2  1  0  0  0
  4  3  1  0  0  0
  6  2  2  0  0  0
  2  5  1  0  0  0
  3  1  2  0  0  0
 25 20  1  0  0  0
  5  1  1  0  0  0
  5 19  1  0  0  0
  1 11  1  0  0  0
 20 19  2  0  0  0
 20 21  1  0  0  0
 19 22  1  0  0  0
 11 12  2  0  0  0
 11 10  1  0  0  0
 21 23  2  0  0  0
 15 10  1  0  0  0
 12 13  1  0  0  0
 10  9  2  0  0  0
 22 24  2  0  0  0
 23 24  1  0  0  0
 13 16  1  0  0  0
 13  8  2  0  0  0
  9  8  1  0  0  0
  8 14  1  0  0  0
 14 17  1  0  0  0
 15 18  1  0  0  0
  4  7  1  0  0  0
M  END
> <minimizedAffinity>
-7.64178

$$$$
5J8M_6DL_A_301


 25 27  0  0  0  0  0  0  0  0999 V2000
  -41.6335    0.1469   10.1408 C   0  0  0  0  0  0  0  0  0  0  0  0
  -41.9131   -0.7585    8.1530 C   0  0  0  0  0  0  0  0  0  0  0  0
  -40.5855   -0.6041    9.9342 N   0  0  0  0  0  0  0  0  0  0  0  0
  -40.7429   -1.1829    8.6733 N   0  0  0  0  0  0  0  0  0  0  0  0
  -42.4869    0.0644    9.0436 N   0  0  0  0  0  0  0  0  0  0  0  0
  -42.3868   -1.0526    7.0720 O   0  0  0  0  0  0  0  0  0  0  0  0
  -40.1079   -1.7964    8.2380 H   0  0  0  0  0  0  0  0  0  0  0  0
  -42.5438    2.5542   13.5367 C   0  0  0  0  0  0  0  0  0  0  0  0
  -43.2512    1.3475   13.3690 C   0  0  0  0  0  0  0  0  0  0  0  0
  -42.9278    0.5491   12.2664 C   0  0  0  0  0  0  0  0  0  0  0  0
  -41.9270    0.9380   11.3504 C   0  0  0  0  0  0  0  0  0  0  0  0
  -41.2646    2.1544   11.5117 C   0  0  0  0  0  0  0  0  0  0  0  0
  -41.5807    2.9323   12.5967 C   0  0  0  0  0  0  0  0  0  0  0  0
  -42.8405    3.4338   14.5236 O   0  0  0  0  0  0  0  0  0  0  0  0
  -43.5376   -0.6349   12.0845 O   0  0  0  0  0  0  0  0  0  0  0  0
  -40.5816    4.4962   12.8213 Br  0  0  0  0  0  0  0  0  0  0  0  0
  -42.3497    4.2276   14.6068 H   0  0  0  0  0  0  0  0  0  0  0  0
  -43.3179   -1.1663   11.3447 H   0  0  0  0  0  0  0  0  0  0  0  0
  -43.7241    0.7293    8.8627 C   0  0  0  0  0  0  0  0  0  0  0  0
  -43.7717    2.1321    8.8226 C   0  0  0  0  0  0  0  0  0  0  0  0
  -44.9886    2.7983    8.6662 C   0  0  0  0  0  0  0  0  0  0  0  0
  -44.9052   -0.0035    8.7287 C   0  0  0  0  0  0  0  0  0  0  0  0
  -46.1625    2.0653    8.5523 C   0  0  0  0  0  0  0  0  0  0  0  0
  -46.1147    0.6738    8.5774 C   0  0  0  0  0  0  0  0  0  0  0  0
  -42.6255    2.8412    8.8972 F   0  0  0  0  0  0  0  0  0  0  0  0
  4  2  1  0  0  0
  4  3  1  0  0  0
  6  2  2  0  0  0
  2  5  1  0  0  0
  3  1  2  0  0  0
 25 20  1  0  0  0
  5  1  1  0  0  0
  5 19  1  0  0  0
  1 11  1  0  0  0
 20 19  2  0  0  0
 20 21  1  0  0  0
 19 22  1  0  0  0
 11 12  2  0  0  0
 11 10  1  0  0  0
 21 23  2  0  0  0
 15 10  1  0  0  0
 12 13  1  0  0  0
 10  9  2  0  0  0
 22 24  2  0  0  0
 23 24  1  0  0  0
 13 16  1  0  0  0
 13  8  2  0  0  0
  9  8  1  0  0  0
  8 14  1  0  0  0
 14 17  1  0  0  0
 15 18  1  0  0  0
  4  7  1  0  0  0
M  END
> <minimizedAffinity>
-7.57647

$$$$
5J8M_6DL_A_301


 25 27  0  0  0  0  0  0  0  0999 V2000
  -42.5808    0.7492    9.4356 C   0  0  0  0  0  0  0  0  0  0  0  0
  -42.6511   -0.8546    7.9282 C   0  0  0  0  0  0  0  0  0  0  0  0
  -43.8404    0.5982    9.1258 N   0  0  0  0  0  0  0  0  0  0  0  0
  -43.9049   -0.4209    8.1735 N   0  0  0  0  0  0  0  0  0  0  0  0
  -41.8107   -0.1438    8.6950 N   0  0  0  0  0  0  0  0  0  0  0  0
  -42.3146   -1.7321    7.1561 O   0  0  0  0  0  0  0  0  0  0  0  0
  -44.7258   -0.7646    7.7526 H   0  0  0  0  0  0  0  0  0  0  0  0
  -40.8385    3.4665   12.2170 C   0  0  0  0  0  0  0  0  0  0  0  0
  -40.7214    3.7560   10.8432 C   0  0  0  0  0  0  0  0  0  0  0  0
  -41.3195    2.8735    9.9369 C   0  0  0  0  0  0  0  0  0  0  0  0
  -42.0168    1.7299   10.3817 C   0  0  0  0  0  0  0  0  0  0  0  0
  -42.0890    1.4394   11.7437 C   0  0  0  0  0  0  0  0  0  0  0  0
  -41.5057    2.3095   12.6296 C   0  0  0  0  0  0  0  0  0  0  0  0
  -40.2248    4.2127   13.1668 O   0  0  0  0  0  0  0  0  0  0  0  0
  -41.2798    3.1267    8.6174 O   0  0  0  0  0  0  0  0  0  0  0  0
  -41.7318    1.9273   14.4455 Br  0  0  0  0  0  0  0  0  0  0  0  0
  -40.3237    3.9924   14.0721 H   0  0  0  0  0  0  0  0  0  0  0  0
  -41.6817    2.5330    8.0141 H   0  0  0  0  0  0  0  0  0  0  0  0
  -40.4050   -0.3096    8.7372 C   0  0  0  0  0  0  0  0  0  0  0  0
  -39.8479   -1.4669    9.3049 C   0  0  0  0  0  0  0  0  0  0  0  0
  -38.4631   -1.6309    9.3710 C   0  0  0  0  0  0  0  0  0  0  0  0
  -39.5630    0.6773    8.2205 C   0  0  0  0  0  0  0  0  0  0  0  0
  -37.6299   -0.6379    8.8728 C   0  0  0  0  0  0  0  0  0  0  0  0
  -38.1815    0.5035    8.2965 C   0  0  0  0  0  0  0  0  0  0  0  0
  -40.6600   -2.4464    9.7556 F   0  0  0  0  0  0  0  0  0  0  0  0
  4  2  1  0  0  0
  4  3  1  0  0  0
  6  2  2  0  0  0
  2  5  1  0  0  0
  3  1  2  0  0  0
 25 20  1  0  0  0
  5  1  1  0  0  0
  5 19  1  0  0  0
  1 11  1  0  0  0
 20 19  2  0  0  0
 20 21  1  0  0  0
 19 22  1  0  0  0
 11 12  2  0  0  0
 11 10  1  0  0  0
 21 23  2  0  0  0
 15 10  1  0  0  0
 12 13  1  0  0  0
 10  9  2  0  0  0
 22 24  2  0  0  0
 23 24  1  0  0  0
 13 16  1  0  0  0
 13  8  2  0  0  0
  9  8  1  0  0  0
  8 14  1  0  0  0
 14 17  1  0  0  0
 15 18  1  0  0  0
  4  7  1  0  0  0
M  END
> <minimizedAffinity>
-7.51283

$$$$
5J8M_6DL_A_301


 25 27  0  0  0  0  0  0  0  0999 V2000
  -42.0658    2.8516   11.8772 C   0  0  0  0  0  0  0  0  0  0  0  0
  -41.4897    4.0157   13.6554 C   0  0  0  0  0  0  0  0  0  0  0  0
  -40.8428    3.2567   11.6643 N   0  0  0  0  0  0  0  0  0  0  0  0
  -40.4580    3.9932   12.7864 N   0  0  0  0  0  0  0  0  0  0  0  0
  -42.5002    3.3183   13.1151 N   0  0  0  0  0  0  0  0  0  0  0  0
  -41.5242    4.5619   14.7417 O   0  0  0  0  0  0  0  0  0  0  0  0
  -39.5825    4.4229   12.9206 H   0  0  0  0  0  0  0  0  0  0  0  0
  -44.4107    0.6385    9.0916 C   0  0  0  0  0  0  0  0  0  0  0  0
  -43.5255   -0.0715    9.9266 C   0  0  0  0  0  0  0  0  0  0  0  0
  -42.7788    0.6592   10.8575 C   0  0  0  0  0  0  0  0  0  0  0  0
  -42.9056    2.0612   10.9580 C   0  0  0  0  0  0  0  0  0  0  0  0
  -43.7585    2.7506   10.0966 C   0  0  0  0  0  0  0  0  0  0  0  0
  -44.4927    2.0306    9.1886 C   0  0  0  0  0  0  0  0  0  0  0  0
  -45.1140    0.0330    8.1045 O   0  0  0  0  0  0  0  0  0  0  0  0
  -41.9548    0.0277   11.7113 O   0  0  0  0  0  0  0  0  0  0  0  0
  -45.7005    2.9968    8.1386 Br  0  0  0  0  0  0  0  0  0  0  0  0
  -45.6945    0.5351    7.5671 H   0  0  0  0  0  0  0  0  0  0  0  0
  -41.4567    0.5209   12.3331 H   0  0  0  0  0  0  0  0  0  0  0  0
  -43.7585    3.0969   13.7259 C   0  0  0  0  0  0  0  0  0  0  0  0
  -44.7986    4.0247   13.5549 C   0  0  0  0  0  0  0  0  0  0  0  0
  -46.0363    3.8271   14.1699 C   0  0  0  0  0  0  0  0  0  0  0  0
  -43.9727    1.9590   14.5064 C   0  0  0  0  0  0  0  0  0  0  0  0
  -46.2380    2.7033   14.9604 C   0  0  0  0  0  0  0  0  0  0  0  0
  -45.2119    1.7754   15.1189 C   0  0  0  0  0  0  0  0  0  0  0  0
  -44.6116    5.0973   12.7571 F   0  0  0  0  0  0  0  0  0  0  0  0
  4  2  1  0  0  0
  4  3  1  0  0  0
  6  2  2  0  0  0
  2  5  1  0  0  0
  3  1  2  0  0  0
 25 20  1  0  0  0
  5  1  1  0  0  0
  5 19  1  0  0  0
  1 11  1  0  0  0
 20 19  2  0  0  0
 20 21  1  0  0  0
 19 22  1  0  0  0
 11 12  2  0  0  0
 11 10  1  0  0  0
 21 23  2  0  0  0
 15 10  1  0  0  0
 12 13  1  0  0  0
 10  9  2  0  0  0
 22 24  2  0  0  0
 23 24  1  0  0  0
 13 16  1  0  0  0
 13  8  2  0  0  0
  9  8  1  0  0  0
  8 14  1  0  0  0
 14 17  1  0  0  0
 15 18  1  0  0  0
  4  7  1  0  0  0
M  END
> <minimizedAffinity>
-7.51218

$$$$
5J8M_6DL_A_301


 25 27  0  0  0  0  0  0  0  0999 V2000
  -43.1123    4.5035   13.4251 C   0  0  0  0  0  0  0  0  0  0  0  0
  -44.1203    6.2439   14.3218 C   0  0  0  0  0  0  0  0  0  0  0  0
  -42.2316    5.4676   13.4334 N   0  0  0  0  0  0  0  0  0  0  0  0
  -42.8526    6.5798   14.0051 N   0  0  0  0  0  0  0  0  0  0  0  0
  -44.3085    4.9632   13.9698 N   0  0  0  0  0  0  0  0  0  0  0  0
  -44.9627    6.9548   14.8361 O   0  0  0  0  0  0  0  0  0  0  0  0
  -42.4362    7.4597   14.1521 H   0  0  0  0  0  0  0  0  0  0  0  0
  -42.4665    0.6333   11.7638 C   0  0  0  0  0  0  0  0  0  0  0  0
  -41.9776    0.8898   13.0599 C   0  0  0  0  0  0  0  0  0  0  0  0
  -42.2173    2.1541   13.6095 C   0  0  0  0  0  0  0  0  0  0  0  0
  -42.9242    3.1418   12.8909 C   0  0  0  0  0  0  0  0  0  0  0  0
  -43.3667    2.8821   11.5942 C   0  0  0  0  0  0  0  0  0  0  0  0
  -43.1344    1.6399   11.0604 C   0  0  0  0  0  0  0  0  0  0  0  0
  -42.2142   -0.5285   11.1140 O   0  0  0  0  0  0  0  0  0  0  0  0
  -41.8152    2.4368   14.8606 O   0  0  0  0  0  0  0  0  0  0  0  0
  -43.8486    1.3140    9.3638 Br  0  0  0  0  0  0  0  0  0  0  0  0
  -42.5548   -0.6668   10.2521 H   0  0  0  0  0  0  0  0  0  0  0  0
  -41.9778    3.2847   15.2247 H   0  0  0  0  0  0  0  0  0  0  0  0
  -45.5087    4.2338   14.1518 C   0  0  0  0  0  0  0  0  0  0  0  0
  -46.5586    4.3615   13.2280 C   0  0  0  0  0  0  0  0  0  0  0  0
  -47.7540    3.6636   13.4091 C   0  0  0  0  0  0  0  0  0  0  0  0
  -45.6593    3.3876   15.2522 C   0  0  0  0  0  0  0  0  0  0  0  0
  -47.9058    2.8380   14.5153 C   0  0  0  0  0  0  0  0  0  0  0  0
  -46.8599    2.6994   15.4241 C   0  0  0  0  0  0  0  0  0  0  0  0
  -46.3952    5.1364   12.1349 F   0  0  0  0  0  0  0  0  0  0  0  0
  4  2  1  0  0  0
  4  3  1  0  0  0
  6  2  2  0  0  0
  2  5  1  0  0  0
  3  1  2  0  0  0
 25 20  1  0  0  0
  5  1  1  0  0  0
  5 19  1  0  0  0
  1 11  1  0  0  0
 20 19  2  0  0  0
 20 21  1  0  0  0
 19 22  1  0  0  0
 11 12  2  0  0  0
 11 10  1  0  0  0
 21 23  2  0  0  0
 15 10  1  0  0  0
 12 13  1  0  0  0
 10  9  2  0  0  0
 22 24  2  0  0  0
 23 24  1  0  0  0
 13 16  1  0  0  0
 13  8  2  0  0  0
  9  8  1  0  0  0
  8 14  1  0  0  0
 14 17  1  0  0  0
 15 18  1  0  0  0
  4  7  1  0  0  0
M  END
> <minimizedAffinity>
-7.50685

$$$$
5J8M_6DL_A_301


 25 27  0  0  0  0  0  0  0  0999 V2000
  -42.8958    4.2388   13.2177 C   0  0  0  0  0  0  0  0  0  0  0  0
  -40.9297    4.2031   12.2266 C   0  0  0  0  0  0  0  0  0  0  0  0
  -42.2372    5.2662   13.6824 N   0  0  0  0  0  0  0  0  0  0  0  0
  -40.9877    5.2630   13.0595 N   0  0  0  0  0  0  0  0  0  0  0  0
  -42.0983    3.5495   12.3078 N   0  0  0  0  0  0  0  0  0  0  0  0
  -39.9977    3.8761   11.5168 O   0  0  0  0  0  0  0  0  0  0  0  0
  -40.2707    5.9221   13.2035 H   0  0  0  0  0  0  0  0  0  0  0  0
  -46.7900    3.0658   14.4885 C   0  0  0  0  0  0  0  0  0  0  0  0
  -46.6836    4.1228   13.5633 C   0  0  0  0  0  0  0  0  0  0  0  0
  -45.4031    4.4844   13.1298 C   0  0  0  0  0  0  0  0  0  0  0  0
  -44.2547    3.8146   13.6031 C   0  0  0  0  0  0  0  0  0  0  0  0
  -44.3774    2.7964   14.5481 C   0  0  0  0  0  0  0  0  0  0  0  0
  -45.6345    2.4412   14.9670 C   0  0  0  0  0  0  0  0  0  0  0  0
  -47.9759    2.6974   15.0303 O   0  0  0  0  0  0  0  0  0  0  0  0
  -45.2468    5.4536   12.2117 O   0  0  0  0  0  0  0  0  0  0  0  0
  -45.7430    0.9963   16.1482 Br  0  0  0  0  0  0  0  0  0  0  0  0
  -48.0113    1.9895   15.6431 H   0  0  0  0  0  0  0  0  0  0  0  0
  -44.3875    5.6925   11.9243 H   0  0  0  0  0  0  0  0  0  0  0  0
  -42.4368    2.3868   11.5738 C   0  0  0  0  0  0  0  0  0  0  0  0
  -42.1425    1.1151   12.0917 C   0  0  0  0  0  0  0  0  0  0  0  0
  -42.4524   -0.0372   11.3670 C   0  0  0  0  0  0  0  0  0  0  0  0
  -43.0597    2.4956   10.3288 C   0  0  0  0  0  0  0  0  0  0  0  0
  -43.0547    0.0772   10.1209 C   0  0  0  0  0  0  0  0  0  0  0  0
  -43.3601    1.3372    9.6129 C   0  0  0  0  0  0  0  0  0  0  0  0
  -41.5901    1.0056   13.3185 F   0  0  0  0  0  0  0  0  0  0  0  0
  4  2  1  0  0  0
  4  3  1  0  0  0
  6  2  2  0  0  0
  2  5  1  0  0  0
  3  1  2  0  0  0
 25 20  1  0  0  0
  5  1  1  0  0  0
  5 19  1  0  0  0
  1 11  1  0  0  0
 20 19  2  0  0  0
 20 21  1  0  0  0
 19 22  1  0  0  0
 11 12  2  0  0  0
 11 10  1  0  0  0
 21 23  2  0  0  0
 15 10  1  0  0  0
 12 13  1  0  0  0
 10  9  2  0  0  0
 22 24  2  0  0  0
 23 24  1  0  0  0
 13 16  1  0  0  0
 13  8  2  0  0  0
  9  8  1  0  0  0
  8 14  1  0  0  0
 14 17  1  0  0  0
 15 18  1  0  0  0
  4  7  1  0  0  0
M  END
> <minimizedAffinity>
-7.44892

$$$$
5J8M_6DL_A_301


 25 27  0  0  0  0  0  0  0  0999 V2000
  -42.1952    3.2750   11.9317 C   0  0  0  0  0  0  0  0  0  0  0  0
  -40.9645    2.9765   10.1302 C   0  0  0  0  0  0  0  0  0  0  0  0
  -41.0869    3.9344   12.1368 N   0  0  0  0  0  0  0  0  0  0  0  0
  -40.2951    3.7610   11.0000 N   0  0  0  0  0  0  0  0  0  0  0  0
  -42.1441    2.6584   10.6842 N   0  0  0  0  0  0  0  0  0  0  0  0
  -40.5899    2.6090    9.0329 O   0  0  0  0  0  0  0  0  0  0  0  0
  -39.4002    4.1458   10.8573 H   0  0  0  0  0  0  0  0  0  0  0  0
  -45.5656    2.8443   14.5028 C   0  0  0  0  0  0  0  0  0  0  0  0
  -44.4858    1.9547   14.6685 C   0  0  0  0  0  0  0  0  0  0  0  0
  -43.3711    2.1196   13.8388 C   0  0  0  0  0  0  0  0  0  0  0  0
  -43.3280    3.1417   12.8666 C   0  0  0  0  0  0  0  0  0  0  0  0
  -44.4223    3.9881   12.6914 C   0  0  0  0  0  0  0  0  0  0  0  0
  -45.5114    3.8268   13.5100 C   0  0  0  0  0  0  0  0  0  0  0  0
  -46.7206    2.7150   15.1991 O   0  0  0  0  0  0  0  0  0  0  0  0
  -42.2936    1.3296   13.9861 O   0  0  0  0  0  0  0  0  0  0  0  0
  -46.9001    5.0611   13.3036 Br  0  0  0  0  0  0  0  0  0  0  0  0
  -47.4195    3.3245   15.0646 H   0  0  0  0  0  0  0  0  0  0  0  0
  -41.5494    1.4435   13.4283 H   0  0  0  0  0  0  0  0  0  0  0  0
  -43.1423    1.8579   10.0775 C   0  0  0  0  0  0  0  0  0  0  0  0
  -43.1560    0.4692   10.2858 C   0  0  0  0  0  0  0  0  0  0  0  0
  -44.1226   -0.3321    9.6755 C   0  0  0  0  0  0  0  0  0  0  0  0
  -44.1159    2.4414    9.2642 C   0  0  0  0  0  0  0  0  0  0  0  0
  -45.0772    0.2509    8.8525 C   0  0  0  0  0  0  0  0  0  0  0  0
  -45.0733    1.6296    8.6568 C   0  0  0  0  0  0  0  0  0  0  0  0
  -42.2493   -0.0902   11.1148 F   0  0  0  0  0  0  0  0  0  0  0  0
  4  2  1  0  0  0
  4  3  1  0  0  0
  6  2  2  0  0  0
  2  5  1  0  0  0
  3  1  2  0  0  0
 25 20  1  0  0  0
  5  1  1  0  0  0
  5 19  1  0  0  0
  1 11  1  0  0  0
 20 19  2  0  0  0
 20 21  1  0  0  0
 19 22  1  0  0  0
 11 12  2  0  0  0
 11 10  1  0  0  0
 21 23  2  0  0  0
 15 10  1  0  0  0
 12 13  1  0  0  0
 10  9  2  0  0  0
 22 24  2  0  0  0
 23 24  1  0  0  0
 13 16  1  0  0  0
 13  8  2  0  0  0
  9  8  1  0  0  0
  8 14  1  0  0  0
 14 17  1  0  0  0
 15 18  1  0  0  0
  4  7  1  0  0  0
M  END
> <minimizedAffinity>
-7.27624

$$$$
