3RLR_3RR_A_901


 24 26  0  0  0  0  0  0  0  0999 V2000
   17.2567   -1.9076   49.4626 N   0  0  0  0  0  0  0  0  0  0  0  0
   17.0566    0.4045   48.7644 N   0  0  0  0  0  0  0  0  0  0  0  0
   15.4370   -0.3470   50.1210 C   0  0  0  0  0  0  0  0  0  0  0  0
   15.1897    1.0295   49.8038 C   0  0  0  0  0  0  0  0  0  0  0  0
   16.1990    1.4681   48.9606 C   0  0  0  0  0  0  0  0  0  0  0  0
   17.2364   -4.2100   50.3021 C   0  0  0  0  0  0  0  0  0  0  0  0
   14.8488   -1.4091   50.8820 C   0  0  0  0  0  0  0  0  0  0  0  0
   16.6221   -0.6944   49.4521 C   0  0  0  0  0  0  0  0  0  0  0  0
   16.6212   -2.8427   50.2211 C   0  0  0  0  0  0  0  0  0  0  0  0
   16.4446    2.7831   48.3228 C   0  0  0  0  0  0  0  0  0  0  0  0
   15.4665   -2.6516   50.9139 N   0  0  0  0  0  0  0  0  0  0  0  0
   17.8678    0.4331   48.2072 H   0  0  0  0  0  0  0  0  0  0  0  0
   13.6046   -1.3353   51.6443 C   0  0  0  0  0  0  0  0  0  0  0  0
   11.1318   -1.1607   51.7850 C   0  0  0  0  0  0  0  0  0  0  0  0
   13.6482   -1.4095   53.0650 C   0  0  0  0  0  0  0  0  0  0  0  0
   12.4603   -1.3631   53.8631 C   0  0  0  0  0  0  0  0  0  0  0  0
   12.3170   -1.2027   51.0129 C   0  0  0  0  0  0  0  0  0  0  0  0
   11.2034   -1.2452   53.1958 C   0  0  0  0  0  0  0  0  0  0  0  0
   12.1481   -1.0862   49.2802 Cl  0  0  0  0  0  0  0  0  0  0  0  0
    9.7140   -1.2014   54.0691 Cl  0  0  0  0  0  0  0  0  0  0  0  0
   13.4626   -0.8147   56.0198 C   0  0  0  0  0  0  0  0  0  0  0  0
   12.4210   -1.4263   55.2444 O   0  0  0  0  0  0  0  0  0  0  0  0
   14.1027    1.8517   50.2586 C   0  0  0  0  0  0  0  0  0  0  0  0
   13.2529    2.5198   50.6668 N   0  0  0  0  0  0  0  0  0  0  0  0
  8  1  2  0  0  0
  1  9  1  0  0  0
  2  5  1  0  0  0
  2  8  1  0  0  0
  8  3  1  0  0  0
  4  3  1  0  0  0
  3  7  2  0  0  0
  5  4  2  0  0  0
  4 23  1  0  0  0
 10  5  1  0  0  0
  9  6  1  0  0  0
  7 13  1  0  0  0
 17 13  2  0  0  0
 13 15  1  0  0  0
 17 14  1  0  0  0
 14 18  2  0  0  0
 15 16  2  0  0  0
 23 24  3  0  0  0
 18 16  1  0  0  0
 16 22  1  0  0  0
 19 17  1  0  0  0
 18 20  1  0  0  0
  7 11  1  0  0  0
  9 11  2  0  0  0
 22 21  1  0  0  0
  2 12  1  0  0  0
M  END
> <minimizedAffinity>
-9.09207

$$$$
3RLR_3RR_A_901


 24 26  0  0  0  0  0  0  0  0999 V2000
   16.1362    0.4493   49.3573 N   0  0  0  0  0  0  0  0  0  0  0  0
   17.1155   -1.7663   49.4317 N   0  0  0  0  0  0  0  0  0  0  0  0
   15.3435   -1.4393   50.7663 C   0  0  0  0  0  0  0  0  0  0  0  0
   15.8037   -2.7897   50.9110 C   0  0  0  0  0  0  0  0  0  0  0  0
   16.9014   -2.9646   50.0824 C   0  0  0  0  0  0  0  0  0  0  0  0
   14.9746    2.6048   49.4611 C   0  0  0  0  0  0  0  0  0  0  0  0
   14.3219   -0.5782   51.2844 C   0  0  0  0  0  0  0  0  0  0  0  0
   16.1923   -0.8369   49.8234 C   0  0  0  0  0  0  0  0  0  0  0  0
   15.1261    1.1787   49.9061 C   0  0  0  0  0  0  0  0  0  0  0  0
   17.7682   -4.1409   49.8348 C   0  0  0  0  0  0  0  0  0  0  0  0
   14.2372    0.7316   50.8332 N   0  0  0  0  0  0  0  0  0  0  0  0
   17.8326   -1.6035   48.7771 H   0  0  0  0  0  0  0  0  0  0  0  0
   13.3289   -0.9324   52.2958 C   0  0  0  0  0  0  0  0  0  0  0  0
   11.0076   -1.4813   52.9851 C   0  0  0  0  0  0  0  0  0  0  0  0
   13.7405   -1.1233   53.6448 C   0  0  0  0  0  0  0  0  0  0  0  0
   12.8159   -1.4910   54.6745 C   0  0  0  0  0  0  0  0  0  0  0  0
   11.9349   -1.1127   51.9818 C   0  0  0  0  0  0  0  0  0  0  0  0
   11.4455   -1.6733   54.3170 C   0  0  0  0  0  0  0  0  0  0  0  0
   11.3181   -0.8878   50.3652 Cl  0  0  0  0  0  0  0  0  0  0  0  0
   10.2584   -2.1360   55.4830 Cl  0  0  0  0  0  0  0  0  0  0  0  0
   13.8008   -0.6563   56.7457 C   0  0  0  0  0  0  0  0  0  0  0  0
   13.1376   -1.6914   56.0048 O   0  0  0  0  0  0  0  0  0  0  0  0
   15.2542   -3.8171   51.7516 C   0  0  0  0  0  0  0  0  0  0  0  0
   14.8089   -4.6104   52.4643 N   0  0  0  0  0  0  0  0  0  0  0  0
  8  1  2  0  0  0
  1  9  1  0  0  0
  2  5  1  0  0  0
  2  8  1  0  0  0
  8  3  1  0  0  0
  4  3  1  0  0  0
  3  7  2  0  0  0
  5  4  2  0  0  0
  4 23  1  0  0  0
 10  5  1  0  0  0
  9  6  1  0  0  0
  7 13  1  0  0  0
 17 13  2  0  0  0
 13 15  1  0  0  0
 17 14  1  0  0  0
 14 18  2  0  0  0
 15 16  2  0  0  0
 23 24  3  0  0  0
 18 16  1  0  0  0
 16 22  1  0  0  0
 19 17  1  0  0  0
 18 20  1  0  0  0
  7 11  1  0  0  0
  9 11  2  0  0  0
 22 21  1  0  0  0
  2 12  1  0  0  0
M  END
> <minimizedAffinity>
-7.79276

$$$$
3RLR_3RR_A_901


 24 26  0  0  0  0  0  0  0  0999 V2000
   11.3203   -0.9363   54.8562 N   0  0  0  0  0  0  0  0  0  0  0  0
   12.9428   -0.5576   56.6160 N   0  0  0  0  0  0  0  0  0  0  0  0
   13.7570   -1.4056   54.7066 C   0  0  0  0  0  0  0  0  0  0  0  0
   14.8291   -1.2289   55.6424 C   0  0  0  0  0  0  0  0  0  0  0  0
   14.3001   -0.7107   56.8146 C   0  0  0  0  0  0  0  0  0  0  0  0
    9.8784   -1.4096   52.9318 C   0  0  0  0  0  0  0  0  0  0  0  0
   13.5482   -1.8803   53.3708 C   0  0  0  0  0  0  0  0  0  0  0  0
   12.5937   -0.9651   55.3585 C   0  0  0  0  0  0  0  0  0  0  0  0
   11.2333   -1.4001   53.5791 C   0  0  0  0  0  0  0  0  0  0  0  0
   14.9369   -0.3404   58.1006 C   0  0  0  0  0  0  0  0  0  0  0  0
   12.2696   -1.8650   52.8311 N   0  0  0  0  0  0  0  0  0  0  0  0
   12.3140   -0.2043   57.2862 H   0  0  0  0  0  0  0  0  0  0  0  0
   14.5713   -2.4239   52.4806 C   0  0  0  0  0  0  0  0  0  0  0  0
   16.0108   -4.2809   51.6779 C   0  0  0  0  0  0  0  0  0  0  0  0
   15.1294   -1.5956   51.4666 C   0  0  0  0  0  0  0  0  0  0  0  0
   16.1198   -2.0795   50.5527 C   0  0  0  0  0  0  0  0  0  0  0  0
   15.0367   -3.7835   52.5758 C   0  0  0  0  0  0  0  0  0  0  0  0
   16.5428   -3.4379   50.6734 C   0  0  0  0  0  0  0  0  0  0  0  0
   14.4336   -4.8808   53.7909 Cl  0  0  0  0  0  0  0  0  0  0  0  0
   17.7171   -4.1199   49.6062 Cl  0  0  0  0  0  0  0  0  0  0  0  0
   16.6264    0.0953   49.5675 C   0  0  0  0  0  0  0  0  0  0  0  0
   16.7102   -1.3374   49.5456 O   0  0  0  0  0  0  0  0  0  0  0  0
   16.2220   -1.5202   55.4443 C   0  0  0  0  0  0  0  0  0  0  0  0
   17.3298   -1.8009   55.2733 N   0  0  0  0  0  0  0  0  0  0  0  0
  8  1  2  0  0  0
  1  9  1  0  0  0
  2  5  1  0  0  0
  2  8  1  0  0  0
  8  3  1  0  0  0
  4  3  1  0  0  0
  3  7  2  0  0  0
  5  4  2  0  0  0
  4 23  1  0  0  0
 10  5  1  0  0  0
  9  6  1  0  0  0
  7 13  1  0  0  0
 17 13  2  0  0  0
 13 15  1  0  0  0
 17 14  1  0  0  0
 14 18  2  0  0  0
 15 16  2  0  0  0
 23 24  3  0  0  0
 18 16  1  0  0  0
 16 22  1  0  0  0
 19 17  1  0  0  0
 18 20  1  0  0  0
  7 11  1  0  0  0
  9 11  2  0  0  0
 22 21  1  0  0  0
  2 12  1  0  0  0
M  END
> <minimizedAffinity>
-7.04552

$$$$
3RLR_3RR_A_901


 24 26  0  0  0  0  0  0  0  0999 V2000
   11.2519   -0.9413   54.8621 N   0  0  0  0  0  0  0  0  0  0  0  0
   12.9174   -0.5370   56.5756 N   0  0  0  0  0  0  0  0  0  0  0  0
   13.6879   -1.3899   54.6502 C   0  0  0  0  0  0  0  0  0  0  0  0
   14.7830   -1.1978   55.5559 C   0  0  0  0  0  0  0  0  0  0  0  0
   14.2808   -0.6768   56.7386 C   0  0  0  0  0  0  0  0  0  0  0  0
    9.7634   -1.4396   52.9800 C   0  0  0  0  0  0  0  0  0  0  0  0
   13.4478   -1.8749   53.3234 C   0  0  0  0  0  0  0  0  0  0  0  0
   12.5385   -0.9556   55.3304 C   0  0  0  0  0  0  0  0  0  0  0  0
   11.1350   -1.4139   53.5907 C   0  0  0  0  0  0  0  0  0  0  0  0
   14.9484   -0.2928   58.0048 C   0  0  0  0  0  0  0  0  0  0  0  0
   12.1551   -1.8743   52.8180 N   0  0  0  0  0  0  0  0  0  0  0  0
   12.3036   -0.1851   57.2601 H   0  0  0  0  0  0  0  0  0  0  0  0
   14.4515   -2.4151   52.4095 C   0  0  0  0  0  0  0  0  0  0  0  0
   15.9466   -2.2179   50.4370 C   0  0  0  0  0  0  0  0  0  0  0  0
   14.9720   -3.7208   52.6333 C   0  0  0  0  0  0  0  0  0  0  0  0
   15.9716   -4.2941   51.7833 C   0  0  0  0  0  0  0  0  0  0  0  0
   14.9548   -1.6697   51.2846 C   0  0  0  0  0  0  0  0  0  0  0  0
   16.4530   -3.5153   50.6876 C   0  0  0  0  0  0  0  0  0  0  0  0
   14.3754   -0.0678   50.9072 Cl  0  0  0  0  0  0  0  0  0  0  0  0
   17.6716   -4.1108   49.6183 Cl  0  0  0  0  0  0  0  0  0  0  0  0
   15.8936   -6.5141   52.7945 C   0  0  0  0  0  0  0  0  0  0  0  0
   16.5232   -5.5538   51.9333 O   0  0  0  0  0  0  0  0  0  0  0  0
   16.1726   -1.4780   55.3223 C   0  0  0  0  0  0  0  0  0  0  0  0
   17.2806   -1.7514   55.1408 N   0  0  0  0  0  0  0  0  0  0  0  0
  8  1  2  0  0  0
  1  9  1  0  0  0
  2  5  1  0  0  0
  2  8  1  0  0  0
  8  3  1  0  0  0
  4  3  1  0  0  0
  3  7  2  0  0  0
  5  4  2  0  0  0
  4 23  1  0  0  0
 10  5  1  0  0  0
  9  6  1  0  0  0
  7 13  1  0  0  0
 17 13  2  0  0  0
 13 15  1  0  0  0
 17 14  1  0  0  0
 14 18  2  0  0  0
 15 16  2  0  0  0
 23 24  3  0  0  0
 18 16  1  0  0  0
 16 22  1  0  0  0
 19 17  1  0  0  0
 18 20  1  0  0  0
  7 11  1  0  0  0
  9 11  2  0  0  0
 22 21  1  0  0  0
  2 12  1  0  0  0
M  END
> <minimizedAffinity>
-6.80761

$$$$
3RLR_3RR_A_901


 24 26  0  0  0  0  0  0  0  0999 V2000
   13.9624   -0.1164   50.1769 N   0  0  0  0  0  0  0  0  0  0  0  0
   11.9106   -0.6948   51.3296 N   0  0  0  0  0  0  0  0  0  0  0  0
   13.8100   -1.2484   52.3850 C   0  0  0  0  0  0  0  0  0  0  0  0
   12.6890   -1.6421   53.1879 C   0  0  0  0  0  0  0  0  0  0  0  0
   11.5290   -1.2956   52.5122 C   0  0  0  0  0  0  0  0  0  0  0  0
   16.1647    0.3611   49.2134 C   0  0  0  0  0  0  0  0  0  0  0  0
   15.2418   -1.2911   52.4228 C   0  0  0  0  0  0  0  0  0  0  0  0
   13.2737   -0.6527   51.2318 C   0  0  0  0  0  0  0  0  0  0  0  0
   15.3141   -0.2004   50.3162 C   0  0  0  0  0  0  0  0  0  0  0  0
   10.0992   -1.4662   52.8630 C   0  0  0  0  0  0  0  0  0  0  0  0
   15.9705   -0.7564   51.3695 N   0  0  0  0  0  0  0  0  0  0  0  0
   11.2883   -0.3455   50.6513 H   0  0  0  0  0  0  0  0  0  0  0  0
   16.0578   -1.8804   53.4819 C   0  0  0  0  0  0  0  0  0  0  0  0
   17.6955   -3.5541   54.3074 C   0  0  0  0  0  0  0  0  0  0  0  0
   16.0419   -1.3018   54.7822 C   0  0  0  0  0  0  0  0  0  0  0  0
   16.8360   -1.8235   55.8535 C   0  0  0  0  0  0  0  0  0  0  0  0
   16.8996   -3.0281   53.2622 C   0  0  0  0  0  0  0  0  0  0  0  0
   17.6672   -2.9540   55.5887 C   0  0  0  0  0  0  0  0  0  0  0  0
   16.9832   -3.8264   51.7130 Cl  0  0  0  0  0  0  0  0  0  0  0  0
   18.6761   -3.6431   56.8093 Cl  0  0  0  0  0  0  0  0  0  0  0  0
   15.6730   -0.8185   57.7493 C   0  0  0  0  0  0  0  0  0  0  0  0
   16.8727   -1.3200   57.1413 O   0  0  0  0  0  0  0  0  0  0  0  0
   12.7142   -2.2824   54.4738 C   0  0  0  0  0  0  0  0  0  0  0  0
   12.6853   -2.7932   55.5100 N   0  0  0  0  0  0  0  0  0  0  0  0
  8  1  2  0  0  0
  1  9  1  0  0  0
  2  5  1  0  0  0
  2  8  1  0  0  0
  8  3  1  0  0  0
  4  3  1  0  0  0
  3  7  2  0  0  0
  5  4  2  0  0  0
  4 23  1  0  0  0
 10  5  1  0  0  0
  9  6  1  0  0  0
  7 13  1  0  0  0
 17 13  2  0  0  0
 13 15  1  0  0  0
 17 14  1  0  0  0
 14 18  2  0  0  0
 15 16  2  0  0  0
 23 24  3  0  0  0
 18 16  1  0  0  0
 16 22  1  0  0  0
 19 17  1  0  0  0
 18 20  1  0  0  0
  7 11  1  0  0  0
  9 11  2  0  0  0
 22 21  1  0  0  0
  2 12  1  0  0  0
M  END
> <minimizedAffinity>
-6.78820

$$$$
3RLR_3RR_A_901


 24 26  0  0  0  0  0  0  0  0999 V2000
   14.1402   -6.1435   54.1911 N   0  0  0  0  0  0  0  0  0  0  0  0
   12.5500   -4.7992   55.4308 N   0  0  0  0  0  0  0  0  0  0  0  0
   13.6435   -3.7421   53.7831 C   0  0  0  0  0  0  0  0  0  0  0  0
   12.7373   -2.8273   54.4143 C   0  0  0  0  0  0  0  0  0  0  0  0
   12.0794   -3.5016   55.4316 C   0  0  0  0  0  0  0  0  0  0  0  0
   15.7999   -7.2878   52.7973 C   0  0  0  0  0  0  0  0  0  0  0  0
   14.6110   -3.7574   52.7263 C   0  0  0  0  0  0  0  0  0  0  0  0
   13.4869   -4.9684   54.4495 C   0  0  0  0  0  0  0  0  0  0  0  0
   15.0298   -6.0521   53.1645 C   0  0  0  0  0  0  0  0  0  0  0  0
   11.0518   -3.0557   56.4019 C   0  0  0  0  0  0  0  0  0  0  0  0
   15.2914   -4.9324   52.4382 N   0  0  0  0  0  0  0  0  0  0  0  0
   12.2526   -5.5043   56.0502 H   0  0  0  0  0  0  0  0  0  0  0  0
   14.9960   -2.6193   51.8950 C   0  0  0  0  0  0  0  0  0  0  0  0
   16.6132   -0.8719   51.1908 C   0  0  0  0  0  0  0  0  0  0  0  0
   14.0984   -2.1453   50.8973 C   0  0  0  0  0  0  0  0  0  0  0  0
   14.4295   -1.0474   50.0398 C   0  0  0  0  0  0  0  0  0  0  0  0
   16.2664   -1.9550   52.0328 C   0  0  0  0  0  0  0  0  0  0  0  0
   15.7052   -0.4264   50.2010 C   0  0  0  0  0  0  0  0  0  0  0  0
   17.4353   -2.4419   53.2332 Cl  0  0  0  0  0  0  0  0  0  0  0  0
   16.2047    0.8912   49.2023 Cl  0  0  0  0  0  0  0  0  0  0  0  0
   12.1992   -0.7791   49.0856 C   0  0  0  0  0  0  0  0  0  0  0  0
   13.6121   -0.5286   49.0518 O   0  0  0  0  0  0  0  0  0  0  0  0
   12.5138   -1.4472   54.0836 C   0  0  0  0  0  0  0  0  0  0  0  0
   12.3176   -0.3515   53.7731 N   0  0  0  0  0  0  0  0  0  0  0  0
  8  1  2  0  0  0
  1  9  1  0  0  0
  2  5  1  0  0  0
  2  8  1  0  0  0
  8  3  1  0  0  0
  4  3  1  0  0  0
  3  7  2  0  0  0
  5  4  2  0  0  0
  4 23  1  0  0  0
 10  5  1  0  0  0
  9  6  1  0  0  0
  7 13  1  0  0  0
 17 13  2  0  0  0
 13 15  1  0  0  0
 17 14  1  0  0  0
 14 18  2  0  0  0
 15 16  2  0  0  0
 23 24  3  0  0  0
 18 16  1  0  0  0
 16 22  1  0  0  0
 19 17  1  0  0  0
 18 20  1  0  0  0
  7 11  1  0  0  0
  9 11  2  0  0  0
 22 21  1  0  0  0
  2 12  1  0  0  0
M  END
> <minimizedAffinity>
-6.67235

$$$$
3RLR_3RR_A_901


 24 26  0  0  0  0  0  0  0  0999 V2000
   12.9629   -0.7233   54.2503 N   0  0  0  0  0  0  0  0  0  0  0  0
   14.2959   -0.4617   56.2572 N   0  0  0  0  0  0  0  0  0  0  0  0
   12.6657   -1.9976   56.3640 C   0  0  0  0  0  0  0  0  0  0  0  0
   13.3689   -1.9644   57.6134 C   0  0  0  0  0  0  0  0  0  0  0  0
   14.3654   -1.0046   57.5243 C   0  0  0  0  0  0  0  0  0  0  0  0
   11.4792   -1.1697   52.3515 C   0  0  0  0  0  0  0  0  0  0  0  0
   11.5691   -2.6883   55.7526 C   0  0  0  0  0  0  0  0  0  0  0  0
   13.2860   -1.0429   55.5418 C   0  0  0  0  0  0  0  0  0  0  0  0
   11.9144   -1.4419   53.7626 C   0  0  0  0  0  0  0  0  0  0  0  0
   15.3790   -0.5467   58.5038 C   0  0  0  0  0  0  0  0  0  0  0  0
   11.2151   -2.3882   54.4446 N   0  0  0  0  0  0  0  0  0  0  0  0
   14.8904    0.2451   55.9162 H   0  0  0  0  0  0  0  0  0  0  0  0
   10.7294   -3.7022   56.3863 C   0  0  0  0  0  0  0  0  0  0  0  0
   10.3482   -5.9971   57.2540 C   0  0  0  0  0  0  0  0  0  0  0  0
    9.4165   -3.3569   56.8138 C   0  0  0  0  0  0  0  0  0  0  0  0
    8.5563   -4.3026   57.4588 C   0  0  0  0  0  0  0  0  0  0  0  0
   11.1823   -5.0504   56.6133 C   0  0  0  0  0  0  0  0  0  0  0  0
    9.0500   -5.6246   57.6768 C   0  0  0  0  0  0  0  0  0  0  0  0
   12.7661   -5.5865   56.1151 Cl  0  0  0  0  0  0  0  0  0  0  0  0
    8.0963   -6.8302   58.4640 Cl  0  0  0  0  0  0  0  0  0  0  0  0
    6.5045   -2.9908   57.2968 C   0  0  0  0  0  0  0  0  0  0  0  0
    7.2705   -4.0447   57.8991 O   0  0  0  0  0  0  0  0  0  0  0  0
   13.1224   -2.7674   58.7790 C   0  0  0  0  0  0  0  0  0  0  0  0
   12.8762   -3.4142   59.7044 N   0  0  0  0  0  0  0  0  0  0  0  0
  8  1  2  0  0  0
  1  9  1  0  0  0
  2  5  1  0  0  0
  2  8  1  0  0  0
  8  3  1  0  0  0
  4  3  1  0  0  0
  3  7  2  0  0  0
  5  4  2  0  0  0
  4 23  1  0  0  0
 10  5  1  0  0  0
  9  6  1  0  0  0
  7 13  1  0  0  0
 17 13  2  0  0  0
 13 15  1  0  0  0
 17 14  1  0  0  0
 14 18  2  0  0  0
 15 16  2  0  0  0
 23 24  3  0  0  0
 18 16  1  0  0  0
 16 22  1  0  0  0
 19 17  1  0  0  0
 18 20  1  0  0  0
  7 11  1  0  0  0
  9 11  2  0  0  0
 22 21  1  0  0  0
  2 12  1  0  0  0
M  END
> <minimizedAffinity>
-6.49123

$$$$
3RLR_3RR_A_901


 24 26  0  0  0  0  0  0  0  0999 V2000
   17.3120   -3.4536   55.2160 N   0  0  0  0  0  0  0  0  0  0  0  0
   15.8644   -2.3606   56.8232 N   0  0  0  0  0  0  0  0  0  0  0  0
   15.2788   -2.1310   54.6708 C   0  0  0  0  0  0  0  0  0  0  0  0
   14.3293   -1.4435   55.4968 C   0  0  0  0  0  0  0  0  0  0  0  0
   14.7162   -1.5945   56.8196 C   0  0  0  0  0  0  0  0  0  0  0  0
   18.6178   -4.4639   53.4048 C   0  0  0  0  0  0  0  0  0  0  0  0
   15.5267   -2.3874   53.2830 C   0  0  0  0  0  0  0  0  0  0  0  0
   16.2200   -2.6966   55.5465 C   0  0  0  0  0  0  0  0  0  0  0  0
   17.4509   -3.6442   53.8752 C   0  0  0  0  0  0  0  0  0  0  0  0
   14.1180   -1.0978   58.0812 C   0  0  0  0  0  0  0  0  0  0  0  0
   16.6252   -3.1511   52.9136 N   0  0  0  0  0  0  0  0  0  0  0  0
   16.3582   -2.6276   57.6319 H   0  0  0  0  0  0  0  0  0  0  0  0
   14.7308   -1.8949   52.1611 C   0  0  0  0  0  0  0  0  0  0  0  0
   12.6451   -1.8407   50.8150 C   0  0  0  0  0  0  0  0  0  0  0  0
   15.2775   -0.9067   51.2949 C   0  0  0  0  0  0  0  0  0  0  0  0
   14.5371   -0.3722   50.1920 C   0  0  0  0  0  0  0  0  0  0  0  0
   13.3940   -2.3613   51.8970 C   0  0  0  0  0  0  0  0  0  0  0  0
   13.2100   -0.8523   49.9744 C   0  0  0  0  0  0  0  0  0  0  0  0
   12.6321   -3.5817   52.8841 Cl  0  0  0  0  0  0  0  0  0  0  0  0
   12.2302   -0.2550   48.6837 Cl  0  0  0  0  0  0  0  0  0  0  0  0
   16.3684    1.0113   49.3621 C   0  0  0  0  0  0  0  0  0  0  0  0
   14.9990    0.5849   49.3066 O   0  0  0  0  0  0  0  0  0  0  0  0
   13.1652   -0.7156   55.0736 C   0  0  0  0  0  0  0  0  0  0  0  0
   12.2429   -0.0928   54.7624 N   0  0  0  0  0  0  0  0  0  0  0  0
  8  1  2  0  0  0
  1  9  1  0  0  0
  2  5  1  0  0  0
  2  8  1  0  0  0
  8  3  1  0  0  0
  4  3  1  0  0  0
  3  7  2  0  0  0
  5  4  2  0  0  0
  4 23  1  0  0  0
 10  5  1  0  0  0
  9  6  1  0  0  0
  7 13  1  0  0  0
 17 13  2  0  0  0
 13 15  1  0  0  0
 17 14  1  0  0  0
 14 18  2  0  0  0
 15 16  2  0  0  0
 23 24  3  0  0  0
 18 16  1  0  0  0
 16 22  1  0  0  0
 19 17  1  0  0  0
 18 20  1  0  0  0
  7 11  1  0  0  0
  9 11  2  0  0  0
 22 21  1  0  0  0
  2 12  1  0  0  0
M  END
> <minimizedAffinity>
-6.48182

$$$$
3RLR_3RR_A_901


 24 26  0  0  0  0  0  0  0  0999 V2000
   17.3499   -1.6427   49.1395 N   0  0  0  0  0  0  0  0  0  0  0  0
   16.9160    0.6511   48.4889 N   0  0  0  0  0  0  0  0  0  0  0  0
   15.5938   -0.1704   50.1029 C   0  0  0  0  0  0  0  0  0  0  0  0
   15.2262    1.1896   49.8347 C   0  0  0  0  0  0  0  0  0  0  0  0
   16.0521    1.6718   48.8310 C   0  0  0  0  0  0  0  0  0  0  0  0
   17.5908   -3.9370   49.9670 C   0  0  0  0  0  0  0  0  0  0  0  0
   15.1996   -1.2549   50.9524 C   0  0  0  0  0  0  0  0  0  0  0  0
   16.6623   -0.4630   49.2398 C   0  0  0  0  0  0  0  0  0  0  0  0
   16.9023   -2.6028   49.9948 C   0  0  0  0  0  0  0  0  0  0  0  0
   16.1175    2.9927   48.1621 C   0  0  0  0  0  0  0  0  0  0  0  0
   15.8757   -2.4647   50.8760 N   0  0  0  0  0  0  0  0  0  0  0  0
   17.6168    0.7162   47.8005 H   0  0  0  0  0  0  0  0  0  0  0  0
   14.1028   -1.2378   51.9174 C   0  0  0  0  0  0  0  0  0  0  0  0
   13.2354   -1.2069   54.2437 C   0  0  0  0  0  0  0  0  0  0  0  0
   12.7592   -1.1932   51.4499 C   0  0  0  0  0  0  0  0  0  0  0  0
   11.6450   -1.1542   52.3484 C   0  0  0  0  0  0  0  0  0  0  0  0
   14.3239   -1.2505   53.3405 C   0  0  0  0  0  0  0  0  0  0  0  0
   11.9096   -1.1541   53.7516 C   0  0  0  0  0  0  0  0  0  0  0  0
   15.9281   -1.3212   54.0231 Cl  0  0  0  0  0  0  0  0  0  0  0  0
   10.6344   -1.0886   54.9145 Cl  0  0  0  0  0  0  0  0  0  0  0  0
    9.2938   -1.5001   52.9041 C   0  0  0  0  0  0  0  0  0  0  0  0
   10.3145   -1.1128   51.9723 O   0  0  0  0  0  0  0  0  0  0  0  0
   14.1933    1.9596   50.4707 C   0  0  0  0  0  0  0  0  0  0  0  0
   13.3293    2.5558   50.9537 N   0  0  0  0  0  0  0  0  0  0  0  0
  8  1  2  0  0  0
  1  9  1  0  0  0
  2  5  1  0  0  0
  2  8  1  0  0  0
  8  3  1  0  0  0
  4  3  1  0  0  0
  3  7  2  0  0  0
  5  4  2  0  0  0
  4 23  1  0  0  0
 10  5  1  0  0  0
  9  6  1  0  0  0
  7 13  1  0  0  0
 17 13  2  0  0  0
 13 15  1  0  0  0
 17 14  1  0  0  0
 14 18  2  0  0  0
 15 16  2  0  0  0
 23 24  3  0  0  0
 18 16  1  0  0  0
 16 22  1  0  0  0
 19 17  1  0  0  0
 18 20  1  0  0  0
  7 11  1  0  0  0
  9 11  2  0  0  0
 22 21  1  0  0  0
  2 12  1  0  0  0
M  END
> <minimizedAffinity>
-6.44914

$$$$
3RLR_3RR_A_901


 24 26  0  0  0  0  0  0  0  0999 V2000
   11.0934   -1.0365   51.6171 N   0  0  0  0  0  0  0  0  0  0  0  0
    9.7662   -1.1724   53.6402 N   0  0  0  0  0  0  0  0  0  0  0  0
   11.6985   -2.3099   53.6646 C   0  0  0  0  0  0  0  0  0  0  0  0
   11.0339   -2.4765   54.9244 C   0  0  0  0  0  0  0  0  0  0  0  0
    9.8414   -1.7706   54.8819 C   0  0  0  0  0  0  0  0  0  0  0  0
   12.6079   -1.0562   49.6903 C   0  0  0  0  0  0  0  0  0  0  0  0
   12.8999   -2.7300   53.0062 C   0  0  0  0  0  0  0  0  0  0  0  0
   10.8695   -1.4791   52.8932 C   0  0  0  0  0  0  0  0  0  0  0  0
   12.2646   -1.4856   51.0877 C   0  0  0  0  0  0  0  0  0  0  0  0
    8.7666   -1.5957   55.8872 C   0  0  0  0  0  0  0  0  0  0  0  0
   13.1575   -2.2995   51.7121 N   0  0  0  0  0  0  0  0  0  0  0  0
    9.0222   -0.6044   53.3351 H   0  0  0  0  0  0  0  0  0  0  0  0
   13.9194   -3.6181   53.5597 C   0  0  0  0  0  0  0  0  0  0  0  0
   15.9359   -4.0390   54.9459 C   0  0  0  0  0  0  0  0  0  0  0  0
   13.8669   -5.0108   53.2704 C   0  0  0  0  0  0  0  0  0  0  0  0
   14.8263   -5.9317   53.8011 C   0  0  0  0  0  0  0  0  0  0  0  0
   14.9819   -3.1429   54.4079 C   0  0  0  0  0  0  0  0  0  0  0  0
   15.8551   -5.4203   54.6490 C   0  0  0  0  0  0  0  0  0  0  0  0
   15.1516   -1.4544   54.8137 Cl  0  0  0  0  0  0  0  0  0  0  0  0
   17.0463   -6.4535   55.3536 Cl  0  0  0  0  0  0  0  0  0  0  0  0
   15.5396   -7.8146   52.4217 C   0  0  0  0  0  0  0  0  0  0  0  0
   14.8438   -7.2944   53.5643 O   0  0  0  0  0  0  0  0  0  0  0  0
   11.4866   -3.2299   56.0608 C   0  0  0  0  0  0  0  0  0  0  0  0
   11.8171   -3.8124   57.0026 N   0  0  0  0  0  0  0  0  0  0  0  0
  8  1  2  0  0  0
  1  9  1  0  0  0
  2  5  1  0  0  0
  2  8  1  0  0  0
  8  3  1  0  0  0
  4  3  1  0  0  0
  3  7  2  0  0  0
  5  4  2  0  0  0
  4 23  1  0  0  0
 10  5  1  0  0  0
  9  6  1  0  0  0
  7 13  1  0  0  0
 17 13  2  0  0  0
 13 15  1  0  0  0
 17 14  1  0  0  0
 14 18  2  0  0  0
 15 16  2  0  0  0
 23 24  3  0  0  0
 18 16  1  0  0  0
 16 22  1  0  0  0
 19 17  1  0  0  0
 18 20  1  0  0  0
  7 11  1  0  0  0
  9 11  2  0  0  0
 22 21  1  0  0  0
  2 12  1  0  0  0
M  END
> <minimizedAffinity>
-6.37218

$$$$
