3RLR_3RR_A_901
  RCSB PDB12061710353D
Coordinates from PDB:3RLR:A:901 Model:1 without hydrogens
 23 25  0  0  0  0            999 V2000
   17.4370   -1.9070   49.6060   N 0  0  0  0  0  0  0  0  0  0  0  0
   17.2740    0.3930   48.8600   N 0  0  0  0  0  0  0  0  0  0  0  0
   15.5890   -0.3350   50.1480   C 0  0  0  0  0  0  0  0  0  0  0  0
   15.3590    1.0360   49.7960   C 0  0  0  0  0  0  0  0  0  0  0  0
   16.4090    1.4600   48.9960   C 0  0  0  0  0  0  0  0  0  0  0  0
   17.3730   -4.1950   50.4820   C 0  0  0  0  0  0  0  0  0  0  0  0
   13.6830   -1.2970   51.5960   C 0  0  0  0  0  0  0  0  0  0  0  0
   11.2160   -1.0170   51.6170   C 0  0  0  0  0  0  0  0  0  0  0  0
   13.6450   -1.4550   53.0100   C 0  0  0  0  0  0  0  0  0  0  0  0
   14.2520    1.8660   50.1830   C 0  0  0  0  0  0  0  0  0  0  0  0
   12.4180   -1.4000   53.7460   C 0  0  0  0  0  0  0  0  0  0  0  0
   12.4390   -1.0690   50.9070   C 0  0  0  0  0  0  0  0  0  0  0  0
   11.2060   -1.1860   53.0220   C 0  0  0  0  0  0  0  0  0  0  0  0
   14.9630   -1.3840   50.8970   C 0  0  0  0  0  0  0  0  0  0  0  0
   16.8050   -0.6940   49.5440   C 0  0  0  0  0  0  0  0  0  0  0  0
   16.7640   -2.8290   50.3480   C 0  0  0  0  0  0  0  0  0  0  0  0
   16.6870    2.7640   48.3490   C 0  0  0  0  0  0  0  0  0  0  0  0
   13.4710   -1.7550   55.9190   C 0  0  0  0  0  0  0  0  0  0  0  0
   13.3650    2.5150   50.5400   N 0  0  0  0  0  0  0  0  0  0  0  0
   15.5770   -2.6260   50.9800   N 0  0  0  0  0  0  0  0  0  0  0  0
   12.3000   -1.5410   55.1170   O 0  0  0  0  0  0  0  0  0  0  0  0
   12.3710   -0.8450   49.1780  Cl 0  0  0  0  0  0  0  0  0  0  0  0
    9.6740   -1.1240   53.8170  Cl 0  0  0  0  0  0  0  0  0  0  0  0
 15  1  2  0  0  0  0
  1 16  1  0  0  0  0
  2  5  1  0  0  0  0
  2 15  1  0  0  0  0
 15  3  1  0  0  0  0
  4  3  1  0  0  0  0
  3 14  2  0  0  0  0
  5  4  2  0  0  0  0
  4 10  1  0  0  0  0
 17  5  1  0  0  0  0
 16  6  1  0  0  0  0
 14  7  1  0  0  0  0
 12  7  2  0  0  0  0
  7  9  1  0  0  0  0
 12  8  1  0  0  0  0
  8 13  2  0  0  0  0
  9 11  2  0  0  0  0
 10 19  3  0  0  0  0
 13 11  1  0  0  0  0
 11 21  1  0  0  0  0
 22 12  1  0  0  0  0
 13 23  1  0  0  0  0
 14 20  1  0  0  0  0
 16 20  2  0  0  0  0
 21 18  1  0  0  0  0
A    1
N1
A    2
N3
A    3
C4
A    4
C5
A    5
C6
A    6
C7
A    7
C8
A    8
C10
A    9
C13
A   10
C15
A   11
C12
A   12
C9
A   13
C11
A   14
C2
A   15
C3
A   16
C1
A   17
C16
A   18
C14
A   19
N4
A   20
N2
A   21
O1
A   22
CL2
A   23
CL1
M  END
>  <InstanceId>
3RLR_3RR_A_901

>  <ChemCompId>
3RR

>  <PdbId>
3RLR

>  <ChainId>
A

>  <ResidueNumber>
901

>  <InsertionCode>


>  <Model>
1

>  <AltIds>


>  <MissingHeavyAtoms>
0

>  <ObservedFormula>
C16 N4 O Cl2

>  <Name>
4-(2,4-dichloro-5-methoxyphenyl)-2,6-dimethyl-7H-pyrrolo[2,3-d]pyrimidine-5-carbonitrile

>  <SystematicName>
4-[2,4-bis(chloranyl)-5-methoxy-phenyl]-2,6-dimethyl-7H-pyrrolo[2,3-d]pyrimidine-5-carbonitrile

>  <Synonyms>


>  <Type>
NON-POLYMER

>  <Formula>
C16 H12 Cl2 N4 O

>  <MolecularWeight>
347.199

>  <ModifiedDate>
2011-06-04

>  <Parent>


>  <OneLetterCode>


>  <SubcomponentList>


>  <AmbiguousFlag>
N

>  <InChI>
InChI=1S/C16H12Cl2N4O/c1-7-10(6-19)14-15(21-8(2)22-16(14)20-7)9-4-13(23-3)12(18)5-11(9)17/h4-5H,1-3H3,(H,20,21,22)

>  <InChIKey>
MCTFCIHBXQNCGL-UHFFFAOYSA-N

>  <SMILES>
Cc1c(c2c(nc(nc2[nH]1)C)c3cc(c(cc3Cl)Cl)OC)C#N

$$$$
