3F8F_DM1_A_127
  RCSB PDB12061708333D
Coordinates from PDB:3F8F:A:127 Model:1 without hydrogens
 38 42  0  0  0  0            999 V2000
   25.4770   39.1680   47.9470   C 0  0  0  0  0  0  0  0  0  0  0  0
   26.1120   38.7900   46.7730   C 0  0  0  0  0  0  0  0  0  0  0  0
   25.4470   38.0300   45.8250   C 0  0  0  0  0  0  0  0  0  0  0  0
   24.1290   37.6360   46.0420   C 0  0  0  0  0  0  0  0  0  0  0  0
   23.5400   36.9540   45.1860   O 0  0  0  0  0  0  0  0  0  0  0  0
   23.4770   38.0190   47.2350   C 0  0  0  0  0  0  0  0  0  0  0  0
   22.1560   37.6380   47.4750   C 0  0  0  0  0  0  0  0  0  0  0  0
   21.5540   36.9620   46.6390   O 0  0  0  0  0  0  0  0  0  0  0  0
   21.5130   38.0210   48.6640   C 0  0  0  0  0  0  0  0  0  0  0  0
   20.1910   37.6300   48.8850   C 0  0  0  0  0  0  0  0  0  0  0  0
   19.5390   36.8810   47.9490   O 0  0  0  0  0  0  0  0  0  0  0  0
   19.4830   38.0260   50.1450   C 0  0  0  0  0  0  0  0  0  0  0  0
   18.0680   37.6120   50.3980   C 0  0  0  0  0  0  0  0  0  0  0  0
   17.7380   36.5390   49.5330   O 0  0  0  0  0  0  0  0  0  0  0  0
   17.9740   37.1060   51.8350   C 0  0  0  0  0  0  0  0  0  0  0  0
   18.5200   38.0780   52.9000   C 0  0  0  0  0  0  0  0  0  0  0  0
   19.2800   37.2990   53.8510   O 0  0  0  0  0  0  0  0  0  0  0  0
   17.3300   38.7210   53.6290   C 0  0  0  0  0  0  0  0  0  0  0  0
   16.1230   38.6310   53.1080   O 0  0  0  0  0  0  0  0  0  0  0  0
   17.5730   39.4410   54.9310   C 0  0  0  0  0  0  0  0  0  0  0  0
   19.4400   39.1860   52.3570   C 0  0  0  0  0  0  0  0  0  0  0  0
   20.1450   38.7760   51.0830   C 0  0  0  0  0  0  0  0  0  0  0  0
   21.5670   39.1860   50.8200   C 0  0  0  0  0  0  0  0  0  0  0  0
   22.2510   39.9430   51.7480   O 0  0  0  0  0  0  0  0  0  0  0  0
   22.2000   38.7950   49.6220   C 0  0  0  0  0  0  0  0  0  0  0  0
   23.5260   39.1780   49.3800   C 0  0  0  0  0  0  0  0  0  0  0  0
   24.1390   39.8610   50.2220   O 0  0  0  0  0  0  0  0  0  0  0  0
   24.1620   38.7880   48.1850   C 0  0  0  0  0  0  0  0  0  0  0  0
   24.2720   36.1560   44.2800   C 0  0  0  0  0  0  0  0  0  0  0  0
   16.3440   36.4240   49.2970   C 0  0  0  0  0  0  0  0  0  0  0  0
   16.1040   35.8900   47.8760   C 0  0  0  0  0  0  0  0  0  0  0  0
   16.5810   34.4360   47.7260   C 0  0  0  0  0  0  0  0  0  0  0  0
   16.1080   33.8940   46.4610   N 0  0  0  0  0  0  0  0  0  0  0  0
   16.1030   33.5480   48.8940   C 0  0  0  0  0  0  0  0  0  0  0  0
   14.7320   33.2130   48.7300   O 0  0  0  0  0  0  0  0  0  0  0  0
   16.3290   34.2400   50.2550   C 0  0  0  0  0  0  0  0  0  0  0  0
   15.7460   35.5440   50.2530   O 0  0  0  0  0  0  0  0  0  0  0  0
   15.7570   33.4210   51.4110   C 0  0  0  0  0  0  0  0  0  0  0  0
  1  2  2  0  0  0  0
  1 28  1  0  0  0  0
  2  3  1  0  0  0  0
  3  4  2  0  0  0  0
  4  5  1  0  0  0  0
  4  6  1  0  0  0  0
  5 29  1  0  0  0  0
  6  7  1  0  0  0  0
  6 28  2  0  0  0  0
  7  8  2  0  0  0  0
  7  9  1  0  0  0  0
  9 10  2  0  0  0  0
  9 25  1  0  0  0  0
 10 11  1  0  0  0  0
 10 12  1  0  0  0  0
 12 13  1  0  0  0  0
 12 22  2  0  0  0  0
 13 14  1  0  0  0  0
 13 15  1  0  0  0  0
 14 30  1  0  0  0  0
 15 16  1  0  0  0  0
 16 17  1  0  0  0  0
 16 18  1  0  0  0  0
 16 21  1  0  0  0  0
 18 19  2  0  0  0  0
 18 20  1  0  0  0  0
 21 22  1  0  0  0  0
 22 23  1  0  0  0  0
 23 24  1  0  0  0  0
 23 25  2  0  0  0  0
 25 26  1  0  0  0  0
 26 27  2  0  0  0  0
 26 28  1  0  0  0  0
 30 31  1  0  0  0  0
 30 37  1  0  0  0  0
 31 32  1  0  0  0  0
 32 33  1  0  0  0  0
 32 34  1  0  0  0  0
 34 35  1  0  0  0  0
 34 36  1  0  0  0  0
 36 37  1  0  0  0  0
 36 38  1  0  0  0  0
A    1
C1
A    2
C2
A    3
C3
A    4
C4
A    5
O4
A    6
C5
A    7
C6
A    8
O6
A    9
C7
A   10
C8
A   11
O8
A   12
C9
A   13
C10
A   14
O10
A   15
C11
A   16
C12
A   17
O12
A   18
C13
A   19
O13
A   20
C14
A   21
C15
A   22
C16
A   23
C17
A   24
O17
A   25
C18
A   26
C19
A   27
O19
A   28
C20
A   29
C21
A   30
C1'
A   31
C2'
A   32
C3'
A   33
N3'
A   34
C4'
A   35
O4'
A   36
C5'
A   37
O5'
A   38
C6'
M  END
>  <InstanceId>
3F8F_DM1_A_127

>  <ChemCompId>
DM1

>  <PdbId>
3F8F

>  <ChainId>
A

>  <ResidueNumber>
127

>  <InsertionCode>


>  <Model>
1

>  <AltIds>


>  <MissingHeavyAtoms>
0

>  <ObservedFormula>
C27 N O10

>  <Name>
DAUNOMYCIN

>  <SystematicName>
(7S,9S)-7-[(2R,4S,5S,6S)-4-amino-5-hydroxy-6-methyl-oxan-2-yl]oxy-9-ethanoyl-6,9,11-trihydroxy-4-methoxy-8,10-dihydro-7H-tetracene-5,12-dione

>  <Synonyms>
DAUNORUBICIN

>  <Type>
NON-POLYMER

>  <Formula>
C27 H29 N O10

>  <MolecularWeight>
527.52

>  <ModifiedDate>
2011-06-04

>  <Parent>


>  <OneLetterCode>


>  <SubcomponentList>


>  <AmbiguousFlag>
N

>  <InChI>
InChI=1S/C27H29NO10/c1-10-22(30)14(28)7-17(37-10)38-16-9-27(35,11(2)29)8-13-19(16)26(34)21-20(24(13)32)23(31)12-5-4-6-15(36-3)18(12)25(21)33/h4-6,10,14,16-17,22,30,32,34-35H,7-9,28H2,1-3H3/t10-,14-,16-,17-,22+,27-/m0/s1

>  <InChIKey>
STQGQHZAVUOBTE-VGBVRHCVSA-N

>  <SMILES>
C[C@H]1[C@H]([C@H](C[C@@H](O1)O[C@H]2C[C@@](Cc3c2c(c4c(c3O)C(=O)c5cccc(c5C4=O)OC)O)(C(=O)C)O)N)O

$$$$
