3F8F_DM1_A_127


 44 48  0  0  0  0  0  0  0  0999 V2000
   26.8248   41.9095   51.2221 C   0  0  0  0  0  0  0  0  0  0  0  0
   28.1310   42.1609   50.8282 C   0  0  0  0  0  0  0  0  0  0  0  0
   28.6503   41.5678   49.6893 C   0  0  0  0  0  0  0  0  0  0  0  0
   27.8633   40.7095   48.9254 C   0  0  0  0  0  0  0  0  0  0  0  0
   26.5323   40.4509   49.3211 C   0  0  0  0  0  0  0  0  0  0  0  0
   25.7231   39.5958   48.5715 C   0  0  0  0  0  0  0  0  0  0  0  0
   26.1739   39.0624   47.5564 O   0  0  0  0  0  0  0  0  0  0  0  0
   24.4003   39.3414   48.9706 C   0  0  0  0  0  0  0  0  0  0  0  0
   23.6069   38.4832   48.2068 C   0  0  0  0  0  0  0  0  0  0  0  0
   24.1219   37.9004   47.0855 O   0  0  0  0  0  0  0  0  0  0  0  0
   22.1928   38.1960   48.6112 C   0  0  0  0  0  0  0  0  0  0  0  0
   21.3312   37.2762   47.8054 C   0  0  0  0  0  0  0  0  0  0  0  0
   20.6120   36.3371   48.7701 C   0  0  0  0  0  0  0  0  0  0  0  0
   19.8468   37.0412   49.9084 C   0  0  0  0  0  0  0  0  0  0  0  0
   20.0962   36.2998   51.1237 O   0  0  0  0  0  0  0  0  0  0  0  0
   20.2549   38.5042   50.1572 C   0  0  0  0  0  0  0  0  0  0  0  0
   21.6823   38.7824   49.7408 C   0  0  0  0  0  0  0  0  0  0  0  0
   22.5563   39.7042   50.5444 C   0  0  0  0  0  0  0  0  0  0  0  0
   22.0628   40.3074   51.6822 O   0  0  0  0  0  0  0  0  0  0  0  0
   23.8821   39.9511   50.1319 C   0  0  0  0  0  0  0  0  0  0  0  0
   24.6948   40.8102   50.8835 C   0  0  0  0  0  0  0  0  0  0  0  0
   24.2440   41.3515   51.9106 O   0  0  0  0  0  0  0  0  0  0  0  0
   26.0202   41.0580   50.4753 C   0  0  0  0  0  0  0  0  0  0  0  0
   25.0057   38.0774   46.8293 H   0  0  0  0  0  0  0  0  0  0  0  0
   19.8465   35.3716   50.9933 H   0  0  0  0  0  0  0  0  0  0  0  0
   21.1817   40.1426   51.9553 H   0  0  0  0  0  0  0  0  0  0  0  0
   18.3437   36.9819   49.5948 C   0  0  0  0  0  0  0  0  0  0  0  0
   17.8812   36.0328   48.8064 O   0  0  0  0  0  0  0  0  0  0  0  0
   17.4292   38.0152   50.2020 C   0  0  0  0  0  0  0  0  0  0  0  0
   28.3376   40.1816   47.9051 O   0  0  0  0  0  0  0  0  0  0  0  0
   29.3347   40.8429   47.1555 C   0  0  0  0  0  0  0  0  0  0  0  0
   22.1555   36.4906   46.9616 O   0  0  0  0  0  0  0  0  0  0  0  0
   21.4172   35.6801   46.0616 C   0  0  0  0  0  0  0  0  0  0  0  0
   20.5723   36.5723   45.1385 C   0  0  0  0  0  0  0  0  0  0  0  0
   21.4511   37.3998   44.1860 C   0  0  0  0  0  0  0  0  0  0  0  0
   20.6172   38.0270   43.1717 N   0  0  0  0  0  0  0  0  0  0  0  0
   22.5439   36.5408   43.5157 C   0  0  0  0  0  0  0  0  0  0  0  0
   21.9842   35.7591   42.4695 O   0  0  0  0  0  0  0  0  0  0  0  0
   23.2555   35.6350   44.5430 C   0  0  0  0  0  0  0  0  0  0  0  0
   22.2993   34.8706   45.2789 O   0  0  0  0  0  0  0  0  0  0  0  0
   24.2606   34.6982   43.8747 C   0  0  0  0  0  0  0  0  0  0  0  0
   20.1491   37.3059   42.6229 H   0  0  0  0  0  0  0  0  0  0  0  0
   21.1991   38.5972   42.5581 H   0  0  0  0  0  0  0  0  0  0  0  0
   21.3198   35.1554   42.8370 H   0  0  0  0  0  0  0  0  0  0  0  0
  1  2  2  0  0  0
  1 23  1  0  0  0
  2  3  1  0  0  0
  3  4  2  0  0  0
  4 30  1  0  0  0
  4  5  1  0  0  0
 30 31  1  0  0  0
  5  6  1  0  0  0
  5 23  2  0  0  0
  6  7  2  0  0  0
  6  8  1  0  0  0
  8  9  2  0  0  0
  8 20  1  0  0  0
  9 10  1  0  0  0
  9 11  1  0  0  0
 11 12  1  0  0  0
 11 17  2  0  0  0
 12 32  1  0  0  0
 12 13  1  0  0  0
 32 33  1  0  0  0
 13 14  1  0  0  0
 14 15  1  0  0  0
 14 27  1  0  0  0
 14 16  1  0  0  0
 27 28  2  0  0  0
 27 29  1  0  0  0
 16 17  1  0  0  0
 17 18  1  0  0  0
 18 19  1  0  0  0
 18 20  2  0  0  0
 20 21  1  0  0  0
 21 22  2  0  0  0
 21 23  1  0  0  0
 33 34  1  0  0  0
 33 40  1  0  0  0
 34 35  1  0  0  0
 35 36  1  0  0  0
 35 37  1  0  0  0
 37 38  1  0  0  0
 37 39  1  0  0  0
 39 40  1  0  0  0
 39 41  1  0  0  0
 10 24  1  0  0  0
 15 25  1  0  0  0
 19 26  1  0  0  0
 36 42  1  0  0  0
 36 43  1  0  0  0
 38 44  1  0  0  0
M  END
> <minimizedAffinity>
-11.28007

$$$$
3F8F_DM1_A_127


 44 48  0  0  0  0  0  0  0  0999 V2000
   24.6217   38.3682   46.8514 C   0  0  0  0  0  0  0  0  0  0  0  0
   25.7463   38.9935   47.3696 C   0  0  0  0  0  0  0  0  0  0  0  0
   25.7134   39.5753   48.6262 C   0  0  0  0  0  0  0  0  0  0  0  0
   24.5461   39.5382   49.3848 C   0  0  0  0  0  0  0  0  0  0  0  0
   23.3983   38.9018   48.8628 C   0  0  0  0  0  0  0  0  0  0  0  0
   22.2171   38.8500   49.6042 C   0  0  0  0  0  0  0  0  0  0  0  0
   22.1756   39.3638   50.7234 O   0  0  0  0  0  0  0  0  0  0  0  0
   21.0782   38.2165   49.0793 C   0  0  0  0  0  0  0  0  0  0  0  0
   19.9063   38.1751   49.8371 C   0  0  0  0  0  0  0  0  0  0  0  0
   19.8773   38.7496   51.0746 O   0  0  0  0  0  0  0  0  0  0  0  0
   18.6783   37.5051   49.2997 C   0  0  0  0  0  0  0  0  0  0  0  0
   17.4141   37.4555   50.0978 C   0  0  0  0  0  0  0  0  0  0  0  0
   16.2564   37.8179   49.1714 C   0  0  0  0  0  0  0  0  0  0  0  0
   16.1848   36.9911   47.8720 C   0  0  0  0  0  0  0  0  0  0  0  0
   15.8735   37.9018   46.7937 O   0  0  0  0  0  0  0  0  0  0  0  0
   17.4816   36.2494   47.5020 C   0  0  0  0  0  0  0  0  0  0  0  0
   18.7132   36.9326   48.0540 C   0  0  0  0  0  0  0  0  0  0  0  0
   19.9878   36.9888   47.2593 C   0  0  0  0  0  0  0  0  0  0  0  0
   20.0465   36.4169   46.0057 O   0  0  0  0  0  0  0  0  0  0  0  0
   21.1236   37.6274   47.7987 C   0  0  0  0  0  0  0  0  0  0  0  0
   22.3101   37.6790   47.0552 C   0  0  0  0  0  0  0  0  0  0  0  0
   22.3571   37.1614   45.9233 O   0  0  0  0  0  0  0  0  0  0  0  0
   23.4463   38.3174   47.5903 C   0  0  0  0  0  0  0  0  0  0  0  0
   20.6430   39.1694   51.4142 H   0  0  0  0  0  0  0  0  0  0  0  0
   15.0577   38.3833   47.0025 H   0  0  0  0  0  0  0  0  0  0  0  0
   19.2912   35.9928   45.6484 H   0  0  0  0  0  0  0  0  0  0  0  0
   15.0406   35.9741   48.0037 C   0  0  0  0  0  0  0  0  0  0  0  0
   14.9980   35.1757   49.0512 O   0  0  0  0  0  0  0  0  0  0  0  0
   13.9872   35.9156   46.9269 C   0  0  0  0  0  0  0  0  0  0  0  0
   24.5255   40.0629   50.5113 O   0  0  0  0  0  0  0  0  0  0  0  0
   24.9410   41.4011   50.6845 C   0  0  0  0  0  0  0  0  0  0  0  0
   17.4761   38.4310   51.1240 O   0  0  0  0  0  0  0  0  0  0  0  0
   16.4939   38.2425   52.1299 C   0  0  0  0  0  0  0  0  0  0  0  0
   16.4611   36.7640   52.5480 C   0  0  0  0  0  0  0  0  0  0  0  0
   17.7525   36.3481   53.2715 C   0  0  0  0  0  0  0  0  0  0  0  0
   17.5770   35.0323   53.8680 N   0  0  0  0  0  0  0  0  0  0  0  0
   18.1628   37.3691   54.3534 C   0  0  0  0  0  0  0  0  0  0  0  0
   17.3538   37.2132   55.5110 O   0  0  0  0  0  0  0  0  0  0  0  0
   18.0717   38.8160   53.8239 C   0  0  0  0  0  0  0  0  0  0  0  0
   16.7794   39.0617   53.2672 O   0  0  0  0  0  0  0  0  0  0  0  0
   18.3655   39.8412   54.9179 C   0  0  0  0  0  0  0  0  0  0  0  0
   16.8265   35.0691   54.5578 H   0  0  0  0  0  0  0  0  0  0  0  0
   18.4439   34.7472   54.3236 H   0  0  0  0  0  0  0  0  0  0  0  0
   16.4265   37.3833   55.2827 H   0  0  0  0  0  0  0  0  0  0  0  0
  1  2  2  0  0  0
  1 23  1  0  0  0
  2  3  1  0  0  0
  3  4  2  0  0  0
  4 30  1  0  0  0
  4  5  1  0  0  0
 30 31  1  0  0  0
  5  6  1  0  0  0
  5 23  2  0  0  0
  6  7  2  0  0  0
  6  8  1  0  0  0
  8  9  2  0  0  0
  8 20  1  0  0  0
  9 10  1  0  0  0
  9 11  1  0  0  0
 11 12  1  0  0  0
 11 17  2  0  0  0
 12 32  1  0  0  0
 12 13  1  0  0  0
 32 33  1  0  0  0
 13 14  1  0  0  0
 14 15  1  0  0  0
 14 27  1  0  0  0
 14 16  1  0  0  0
 27 28  2  0  0  0
 27 29  1  0  0  0
 16 17  1  0  0  0
 17 18  1  0  0  0
 18 19  1  0  0  0
 18 20  2  0  0  0
 20 21  1  0  0  0
 21 22  2  0  0  0
 21 23  1  0  0  0
 33 34  1  0  0  0
 33 40  1  0  0  0
 34 35  1  0  0  0
 35 36  1  0  0  0
 35 37  1  0  0  0
 37 38  1  0  0  0
 37 39  1  0  0  0
 39 40  1  0  0  0
 39 41  1  0  0  0
 10 24  1  0  0  0
 15 25  1  0  0  0
 19 26  1  0  0  0
 36 42  1  0  0  0
 36 43  1  0  0  0
 38 44  1  0  0  0
M  END
> <minimizedAffinity>
-11.08345

$$$$
3F8F_DM1_A_127


 44 48  0  0  0  0  0  0  0  0999 V2000
   25.6724   39.5759   48.4601 C   0  0  0  0  0  0  0  0  0  0  0  0
   26.3028   39.2113   47.2794 C   0  0  0  0  0  0  0  0  0  0  0  0
   25.6304   38.4719   46.3204 C   0  0  0  0  0  0  0  0  0  0  0  0
   24.3094   38.0855   46.5329 C   0  0  0  0  0  0  0  0  0  0  0  0
   23.6621   38.4549   47.7326 C   0  0  0  0  0  0  0  0  0  0  0  0
   22.3382   38.0811   47.9683 C   0  0  0  0  0  0  0  0  0  0  0  0
   21.7297   37.4234   47.1225 O   0  0  0  0  0  0  0  0  0  0  0  0
   21.6999   38.4505   49.1641 C   0  0  0  0  0  0  0  0  0  0  0  0
   20.3749   38.0670   49.3806 C   0  0  0  0  0  0  0  0  0  0  0  0
   19.7156   37.3384   48.4338 O   0  0  0  0  0  0  0  0  0  0  0  0
   19.6718   38.4489   50.6477 C   0  0  0  0  0  0  0  0  0  0  0  0
   18.2537   38.0427   50.8960 C   0  0  0  0  0  0  0  0  0  0  0  0
   18.1572   37.5148   52.3249 C   0  0  0  0  0  0  0  0  0  0  0  0
   18.7125   38.4652   53.4045 C   0  0  0  0  0  0  0  0  0  0  0  0
   19.4672   37.6650   54.3420 O   0  0  0  0  0  0  0  0  0  0  0  0
   19.6410   39.5740   52.8778 C   0  0  0  0  0  0  0  0  0  0  0  0
   20.3411   39.1784   51.5966 C   0  0  0  0  0  0  0  0  0  0  0  0
   21.7661   39.5808   51.3382 C   0  0  0  0  0  0  0  0  0  0  0  0
   22.4575   40.3173   52.2772 O   0  0  0  0  0  0  0  0  0  0  0  0
   22.3944   39.2035   50.1333 C   0  0  0  0  0  0  0  0  0  0  0  0
   23.7233   39.5793   49.8957 C   0  0  0  0  0  0  0  0  0  0  0  0
   24.3429   40.2438   50.7475 O   0  0  0  0  0  0  0  0  0  0  0  0
   24.3546   39.2031   48.6938 C   0  0  0  0  0  0  0  0  0  0  0  0
   20.1517   37.0976   47.6402 H   0  0  0  0  0  0  0  0  0  0  0  0
   18.9031   36.9566   54.6898 H   0  0  0  0  0  0  0  0  0  0  0  0
   22.0390   40.5673   53.0773 H   0  0  0  0  0  0  0  0  0  0  0  0
   17.5288   39.1064   54.1451 C   0  0  0  0  0  0  0  0  0  0  0  0
   16.3569   39.1899   53.5483 O   0  0  0  0  0  0  0  0  0  0  0  0
   17.7371   39.6251   55.5452 C   0  0  0  0  0  0  0  0  0  0  0  0
   23.7138   37.4220   45.6670 O   0  0  0  0  0  0  0  0  0  0  0  0
   24.4397   36.6822   44.7082 C   0  0  0  0  0  0  0  0  0  0  0  0
   17.9137   36.9863   50.0146 O   0  0  0  0  0  0  0  0  0  0  0  0
   16.5192   36.7316   49.9641 C   0  0  0  0  0  0  0  0  0  0  0  0
   15.8597   37.6736   48.9444 C   0  0  0  0  0  0  0  0  0  0  0  0
   16.3014   37.3553   47.5064 C   0  0  0  0  0  0  0  0  0  0  0  0
   15.4697   38.0902   46.5652 N   0  0  0  0  0  0  0  0  0  0  0  0
   16.2350   35.8437   47.2031 C   0  0  0  0  0  0  0  0  0  0  0  0
   14.8903   35.4444   46.9774 O   0  0  0  0  0  0  0  0  0  0  0  0
   16.8586   35.0135   48.3452 C   0  0  0  0  0  0  0  0  0  0  0  0
   16.2723   35.3712   49.5977 O   0  0  0  0  0  0  0  0  0  0  0  0
   16.6975   33.5125   48.1102 C   0  0  0  0  0  0  0  0  0  0  0  0
   14.4983   37.7972   46.6691 H   0  0  0  0  0  0  0  0  0  0  0  0
   15.7826   37.8986   45.6134 H   0  0  0  0  0  0  0  0  0  0  0  0
   14.3660   35.6072   47.7771 H   0  0  0  0  0  0  0  0  0  0  0  0
  1  2  2  0  0  0
  1 23  1  0  0  0
  2  3  1  0  0  0
  3  4  2  0  0  0
  4 30  1  0  0  0
  4  5  1  0  0  0
 30 31  1  0  0  0
  5  6  1  0  0  0
  5 23  2  0  0  0
  6  7  2  0  0  0
  6  8  1  0  0  0
  8  9  2  0  0  0
  8 20  1  0  0  0
  9 10  1  0  0  0
  9 11  1  0  0  0
 11 12  1  0  0  0
 11 17  2  0  0  0
 12 32  1  0  0  0
 12 13  1  0  0  0
 32 33  1  0  0  0
 13 14  1  0  0  0
 14 15  1  0  0  0
 14 27  1  0  0  0
 14 16  1  0  0  0
 27 28  2  0  0  0
 27 29  1  0  0  0
 16 17  1  0  0  0
 17 18  1  0  0  0
 18 19  1  0  0  0
 18 20  2  0  0  0
 20 21  1  0  0  0
 21 22  2  0  0  0
 21 23  1  0  0  0
 33 34  1  0  0  0
 33 40  1  0  0  0
 34 35  1  0  0  0
 35 36  1  0  0  0
 35 37  1  0  0  0
 37 38  1  0  0  0
 37 39  1  0  0  0
 39 40  1  0  0  0
 39 41  1  0  0  0
 10 24  1  0  0  0
 15 25  1  0  0  0
 19 26  1  0  0  0
 36 42  1  0  0  0
 36 43  1  0  0  0
 38 44  1  0  0  0
M  END
> <minimizedAffinity>
-10.96535

$$$$
3F8F_DM1_A_127


 44 48  0  0  0  0  0  0  0  0999 V2000
   19.5046   37.7993   52.4173 C   0  0  0  0  0  0  0  0  0  0  0  0
   20.0892   38.9262   52.9765 C   0  0  0  0  0  0  0  0  0  0  0  0
   21.0989   39.6008   52.3103 C   0  0  0  0  0  0  0  0  0  0  0  0
   21.5392   39.1525   51.0674 C   0  0  0  0  0  0  0  0  0  0  0  0
   20.9468   38.0064   50.4926 C   0  0  0  0  0  0  0  0  0  0  0  0
   21.3695   37.5383   49.2476 C   0  0  0  0  0  0  0  0  0  0  0  0
   22.2668   38.1302   48.6453 O   0  0  0  0  0  0  0  0  0  0  0  0
   20.7772   36.3971   48.6814 C   0  0  0  0  0  0  0  0  0  0  0  0
   21.2140   35.9451   47.4346 C   0  0  0  0  0  0  0  0  0  0  0  0
   22.2093   36.6120   46.7812 O   0  0  0  0  0  0  0  0  0  0  0  0
   20.5982   34.7305   46.8093 C   0  0  0  0  0  0  0  0  0  0  0  0
   21.0576   34.2318   45.4759 C   0  0  0  0  0  0  0  0  0  0  0  0
   21.2253   32.7176   45.5705 C   0  0  0  0  0  0  0  0  0  0  0  0
   19.9928   31.9626   46.1074 C   0  0  0  0  0  0  0  0  0  0  0  0
   20.4670   30.9572   47.0310 O   0  0  0  0  0  0  0  0  0  0  0  0
   18.9678   32.8382   46.8501 C   0  0  0  0  0  0  0  0  0  0  0  0
   19.6007   34.0630   47.4727 C   0  0  0  0  0  0  0  0  0  0  0  0
   19.1470   34.5713   48.8125 C   0  0  0  0  0  0  0  0  0  0  0  0
   18.1432   33.9175   49.4960 O   0  0  0  0  0  0  0  0  0  0  0  0
   19.7498   35.7183   49.3688 C   0  0  0  0  0  0  0  0  0  0  0  0
   19.3253   36.1893   50.6184 C   0  0  0  0  0  0  0  0  0  0  0  0
   18.4189   35.5945   51.2315 O   0  0  0  0  0  0  0  0  0  0  0  0
   19.9263   37.3341   51.1779 C   0  0  0  0  0  0  0  0  0  0  0  0
   22.5969   37.3719   47.1688 H   0  0  0  0  0  0  0  0  0  0  0  0
   21.1163   30.3902   46.5863 H   0  0  0  0  0  0  0  0  0  0  0  0
   17.7434   33.1555   49.1253 H   0  0  0  0  0  0  0  0  0  0  0  0
   19.2992   31.2614   44.9291 C   0  0  0  0  0  0  0  0  0  0  0  0
   18.9996   29.9814   45.0197 O   0  0  0  0  0  0  0  0  0  0  0  0
   18.9742   32.0597   43.6923 C   0  0  0  0  0  0  0  0  0  0  0  0
   22.4459   39.7639   50.4767 O   0  0  0  0  0  0  0  0  0  0  0  0
   23.5032   40.3524   51.2043 C   0  0  0  0  0  0  0  0  0  0  0  0
   22.3242   34.7956   45.1822 O   0  0  0  0  0  0  0  0  0  0  0  0
   22.9595   34.1858   44.0701 C   0  0  0  0  0  0  0  0  0  0  0  0
   22.1338   34.4433   42.7997 C   0  0  0  0  0  0  0  0  0  0  0  0
   22.1432   35.9296   42.4059 C   0  0  0  0  0  0  0  0  0  0  0  0
   21.5728   36.0871   41.0764 N   0  0  0  0  0  0  0  0  0  0  0  0
   23.5647   36.5287   42.4463 C   0  0  0  0  0  0  0  0  0  0  0  0
   24.3029   36.1250   41.3014 O   0  0  0  0  0  0  0  0  0  0  0  0
   24.3086   36.1241   43.7367 C   0  0  0  0  0  0  0  0  0  0  0  0
   24.2815   34.7056   43.9026 O   0  0  0  0  0  0  0  0  0  0  0  0
   25.7550   36.6160   43.7370 C   0  0  0  0  0  0  0  0  0  0  0  0
   22.1415   35.5777   40.4000 H   0  0  0  0  0  0  0  0  0  0  0  0
   21.5550   37.0765   40.8291 H   0  0  0  0  0  0  0  0  0  0  0  0
   24.3909   35.1590   41.2976 H   0  0  0  0  0  0  0  0  0  0  0  0
  1  2  2  0  0  0
  1 23  1  0  0  0
  2  3  1  0  0  0
  3  4  2  0  0  0
  4 30  1  0  0  0
  4  5  1  0  0  0
 30 31  1  0  0  0
  5  6  1  0  0  0
  5 23  2  0  0  0
  6  7  2  0  0  0
  6  8  1  0  0  0
  8  9  2  0  0  0
  8 20  1  0  0  0
  9 10  1  0  0  0
  9 11  1  0  0  0
 11 12  1  0  0  0
 11 17  2  0  0  0
 12 32  1  0  0  0
 12 13  1  0  0  0
 32 33  1  0  0  0
 13 14  1  0  0  0
 14 15  1  0  0  0
 14 27  1  0  0  0
 14 16  1  0  0  0
 27 28  2  0  0  0
 27 29  1  0  0  0
 16 17  1  0  0  0
 17 18  1  0  0  0
 18 19  1  0  0  0
 18 20  2  0  0  0
 20 21  1  0  0  0
 21 22  2  0  0  0
 21 23  1  0  0  0
 33 34  1  0  0  0
 33 40  1  0  0  0
 34 35  1  0  0  0
 35 36  1  0  0  0
 35 37  1  0  0  0
 37 38  1  0  0  0
 37 39  1  0  0  0
 39 40  1  0  0  0
 39 41  1  0  0  0
 10 24  1  0  0  0
 15 25  1  0  0  0
 19 26  1  0  0  0
 36 42  1  0  0  0
 36 43  1  0  0  0
 38 44  1  0  0  0
M  END
> <minimizedAffinity>
-10.79727

$$$$
3F8F_DM1_A_127


 44 48  0  0  0  0  0  0  0  0999 V2000
   24.2880   36.8342   44.3353 C   0  0  0  0  0  0  0  0  0  0  0  0
   24.3593   36.3273   43.0460 C   0  0  0  0  0  0  0  0  0  0  0  0
   23.2171   35.8879   42.3971 C   0  0  0  0  0  0  0  0  0  0  0  0
   21.9809   35.9507   43.0353 C   0  0  0  0  0  0  0  0  0  0  0  0
   21.9022   36.4670   44.3477 C   0  0  0  0  0  0  0  0  0  0  0  0
   20.6749   36.5418   45.0079 C   0  0  0  0  0  0  0  0  0  0  0  0
   19.6519   36.1542   44.4409 O   0  0  0  0  0  0  0  0  0  0  0  0
   20.6029   37.0553   46.3137 C   0  0  0  0  0  0  0  0  0  0  0  0
   19.3654   37.1221   46.9568 C   0  0  0  0  0  0  0  0  0  0  0  0
   18.2423   36.6880   46.3146 O   0  0  0  0  0  0  0  0  0  0  0  0
   19.2621   37.6659   48.3493 C   0  0  0  0  0  0  0  0  0  0  0  0
   17.9442   37.7407   49.0530 C   0  0  0  0  0  0  0  0  0  0  0  0
   18.1381   37.2202   50.4747 C   0  0  0  0  0  0  0  0  0  0  0  0
   19.2823   37.8928   51.2593 C   0  0  0  0  0  0  0  0  0  0  0  0
   19.9916   36.8535   51.9704 O   0  0  0  0  0  0  0  0  0  0  0  0
   20.3036   38.6527   50.3943 C   0  0  0  0  0  0  0  0  0  0  0  0
   20.3951   38.0974   48.9902 C   0  0  0  0  0  0  0  0  0  0  0  0
   21.7148   38.0170   48.2751 C   0  0  0  0  0  0  0  0  0  0  0  0
   22.8666   38.4482   48.8993 O   0  0  0  0  0  0  0  0  0  0  0  0
   21.7724   37.4999   46.9644 C   0  0  0  0  0  0  0  0  0  0  0  0
   23.0042   37.4254   46.3006 C   0  0  0  0  0  0  0  0  0  0  0  0
   24.0412   37.8156   46.8695 O   0  0  0  0  0  0  0  0  0  0  0  0
   23.0657   36.9080   44.9917 C   0  0  0  0  0  0  0  0  0  0  0  0
   18.3026   36.3473   45.4438 H   0  0  0  0  0  0  0  0  0  0  0  0
   19.3687   36.3580   52.5248 H   0  0  0  0  0  0  0  0  0  0  0  0
   22.8270   38.7917   49.7702 H   0  0  0  0  0  0  0  0  0  0  0  0
   18.6685   38.8597   52.2837 C   0  0  0  0  0  0  0  0  0  0  0  0
   17.4100   39.2288   52.1560 O   0  0  0  0  0  0  0  0  0  0  0  0
   19.5247   39.3634   53.4176 C   0  0  0  0  0  0  0  0  0  0  0  0
   20.9612   35.5541   42.4456 O   0  0  0  0  0  0  0  0  0  0  0  0
   20.7391   35.8949   41.0936 C   0  0  0  0  0  0  0  0  0  0  0  0
   17.0203   36.8897   48.3968 O   0  0  0  0  0  0  0  0  0  0  0  0
   15.7098   36.9733   48.9334 C   0  0  0  0  0  0  0  0  0  0  0  0
   14.7543   37.5443   47.8738 C   0  0  0  0  0  0  0  0  0  0  0  0
   14.5633   36.5733   46.6970 C   0  0  0  0  0  0  0  0  0  0  0  0
   13.4694   37.0341   45.8551 N   0  0  0  0  0  0  0  0  0  0  0  0
   14.2914   35.1318   47.1760 C   0  0  0  0  0  0  0  0  0  0  0  0
   12.9477   35.0046   47.6200 O   0  0  0  0  0  0  0  0  0  0  0  0
   15.2697   34.7178   48.2957 C   0  0  0  0  0  0  0  0  0  0  0  0
   15.2566   35.6820   49.3495 O   0  0  0  0  0  0  0  0  0  0  0  0
   14.9392   33.3357   48.8570 C   0  0  0  0  0  0  0  0  0  0  0  0
   12.6054   37.0470   46.3971 H   0  0  0  0  0  0  0  0  0  0  0  0
   13.3629   36.4034   45.0606 H   0  0  0  0  0  0  0  0  0  0  0  0
   12.7984   35.5977   48.3728 H   0  0  0  0  0  0  0  0  0  0  0  0
  1  2  2  0  0  0
  1 23  1  0  0  0
  2  3  1  0  0  0
  3  4  2  0  0  0
  4 30  1  0  0  0
  4  5  1  0  0  0
 30 31  1  0  0  0
  5  6  1  0  0  0
  5 23  2  0  0  0
  6  7  2  0  0  0
  6  8  1  0  0  0
  8  9  2  0  0  0
  8 20  1  0  0  0
  9 10  1  0  0  0
  9 11  1  0  0  0
 11 12  1  0  0  0
 11 17  2  0  0  0
 12 32  1  0  0  0
 12 13  1  0  0  0
 32 33  1  0  0  0
 13 14  1  0  0  0
 14 15  1  0  0  0
 14 27  1  0  0  0
 14 16  1  0  0  0
 27 28  2  0  0  0
 27 29  1  0  0  0
 16 17  1  0  0  0
 17 18  1  0  0  0
 18 19  1  0  0  0
 18 20  2  0  0  0
 20 21  1  0  0  0
 21 22  2  0  0  0
 21 23  1  0  0  0
 33 34  1  0  0  0
 33 40  1  0  0  0
 34 35  1  0  0  0
 35 36  1  0  0  0
 35 37  1  0  0  0
 37 38  1  0  0  0
 37 39  1  0  0  0
 39 40  1  0  0  0
 39 41  1  0  0  0
 10 24  1  0  0  0
 15 25  1  0  0  0
 19 26  1  0  0  0
 36 42  1  0  0  0
 36 43  1  0  0  0
 38 44  1  0  0  0
M  END
> <minimizedAffinity>
-10.79267

$$$$
3F8F_DM1_A_127


 44 48  0  0  0  0  0  0  0  0999 V2000
   20.9425   39.6824   52.3723 C   0  0  0  0  0  0  0  0  0  0  0  0
   20.0418   39.6762   53.4273 C   0  0  0  0  0  0  0  0  0  0  0  0
   18.9773   38.7900   53.4403 C   0  0  0  0  0  0  0  0  0  0  0  0
   18.7998   37.8930   52.3899 C   0  0  0  0  0  0  0  0  0  0  0  0
   19.7145   37.8939   51.3136 C   0  0  0  0  0  0  0  0  0  0  0  0
   19.5592   37.0037   50.2501 C   0  0  0  0  0  0  0  0  0  0  0  0
   18.6162   36.2105   50.2505 O   0  0  0  0  0  0  0  0  0  0  0  0
   20.4716   37.0100   49.1818 C   0  0  0  0  0  0  0  0  0  0  0  0
   20.2988   36.1111   48.1275 C   0  0  0  0  0  0  0  0  0  0  0  0
   19.2488   35.2397   48.1434 O   0  0  0  0  0  0  0  0  0  0  0  0
   21.2584   36.0978   46.9765 C   0  0  0  0  0  0  0  0  0  0  0  0
   21.0849   35.1433   45.8379 C   0  0  0  0  0  0  0  0  0  0  0  0
   21.2838   35.9181   44.5379 C   0  0  0  0  0  0  0  0  0  0  0  0
   22.5968   36.7225   44.4589 C   0  0  0  0  0  0  0  0  0  0  0  0
   22.2846   38.0087   43.8782 O   0  0  0  0  0  0  0  0  0  0  0  0
   23.2878   36.9719   45.8113 C   0  0  0  0  0  0  0  0  0  0  0  0
   22.3097   36.9784   46.9651 C   0  0  0  0  0  0  0  0  0  0  0  0
   22.4747   37.9343   48.1133 C   0  0  0  0  0  0  0  0  0  0  0  0
   23.5264   38.8264   48.1243 O   0  0  0  0  0  0  0  0  0  0  0  0
   21.5517   37.9167   49.1794 C   0  0  0  0  0  0  0  0  0  0  0  0
   21.7077   38.8096   50.2480 C   0  0  0  0  0  0  0  0  0  0  0  0
   22.6589   39.6135   50.2521 O   0  0  0  0  0  0  0  0  0  0  0  0
   20.7868   38.7958   51.3140 C   0  0  0  0  0  0  0  0  0  0  0  0
   18.6465   35.2448   48.8612 H   0  0  0  0  0  0  0  0  0  0  0  0
   21.8469   37.8793   43.0222 H   0  0  0  0  0  0  0  0  0  0  0  0
   24.1390   38.8372   47.4153 H   0  0  0  0  0  0  0  0  0  0  0  0
   23.5664   35.9824   43.5245 C   0  0  0  0  0  0  0  0  0  0  0  0
   23.8457   36.4920   42.3418 O   0  0  0  0  0  0  0  0  0  0  0  0
   24.1801   34.6854   43.9869 C   0  0  0  0  0  0  0  0  0  0  0  0
   17.8418   37.1014   52.4097 O   0  0  0  0  0  0  0  0  0  0  0  0
   16.5813   37.5165   52.8917 C   0  0  0  0  0  0  0  0  0  0  0  0
   19.7591   34.6429   45.8514 O   0  0  0  0  0  0  0  0  0  0  0  0
   19.4684   33.8092   44.7411 C   0  0  0  0  0  0  0  0  0  0  0  0
   20.5090   32.6813   44.6570 C   0  0  0  0  0  0  0  0  0  0  0  0
   20.3871   31.7049   45.8385 C   0  0  0  0  0  0  0  0  0  0  0  0
   21.2070   30.5290   45.5879 N   0  0  0  0  0  0  0  0  0  0  0  0
   18.9240   31.2855   46.0925 C   0  0  0  0  0  0  0  0  0  0  0  0
   18.5134   30.3214   45.1330 O   0  0  0  0  0  0  0  0  0  0  0  0
   17.9779   32.5047   46.0694 C   0  0  0  0  0  0  0  0  0  0  0  0
   18.1573   33.2510   44.8648 O   0  0  0  0  0  0  0  0  0  0  0  0
   16.5136   32.0906   46.2064 C   0  0  0  0  0  0  0  0  0  0  0  0
   20.8725   30.0536   44.7497 H   0  0  0  0  0  0  0  0  0  0  0  0
   21.1460   29.8957   46.3851 H   0  0  0  0  0  0  0  0  0  0  0  0
   18.5581   30.7095   44.2451 H   0  0  0  0  0  0  0  0  0  0  0  0
  1  2  2  0  0  0
  1 23  1  0  0  0
  2  3  1  0  0  0
  3  4  2  0  0  0
  4 30  1  0  0  0
  4  5  1  0  0  0
 30 31  1  0  0  0
  5  6  1  0  0  0
  5 23  2  0  0  0
  6  7  2  0  0  0
  6  8  1  0  0  0
  8  9  2  0  0  0
  8 20  1  0  0  0
  9 10  1  0  0  0
  9 11  1  0  0  0
 11 12  1  0  0  0
 11 17  2  0  0  0
 12 32  1  0  0  0
 12 13  1  0  0  0
 32 33  1  0  0  0
 13 14  1  0  0  0
 14 15  1  0  0  0
 14 27  1  0  0  0
 14 16  1  0  0  0
 27 28  2  0  0  0
 27 29  1  0  0  0
 16 17  1  0  0  0
 17 18  1  0  0  0
 18 19  1  0  0  0
 18 20  2  0  0  0
 20 21  1  0  0  0
 21 22  2  0  0  0
 21 23  1  0  0  0
 33 34  1  0  0  0
 33 40  1  0  0  0
 34 35  1  0  0  0
 35 36  1  0  0  0
 35 37  1  0  0  0
 37 38  1  0  0  0
 37 39  1  0  0  0
 39 40  1  0  0  0
 39 41  1  0  0  0
 10 24  1  0  0  0
 15 25  1  0  0  0
 19 26  1  0  0  0
 36 42  1  0  0  0
 36 43  1  0  0  0
 38 44  1  0  0  0
M  END
> <minimizedAffinity>
-10.79248

$$$$
3F8F_DM1_A_127


 44 48  0  0  0  0  0  0  0  0999 V2000
   23.6568   41.0921   52.1400 C   0  0  0  0  0  0  0  0  0  0  0  0
   24.8900   41.7051   51.9730 C   0  0  0  0  0  0  0  0  0  0  0  0
   25.6635   41.4397   50.8551 C   0  0  0  0  0  0  0  0  0  0  0  0
   25.2091   40.5511   49.8837 C   0  0  0  0  0  0  0  0  0  0  0  0
   23.9537   39.9250   50.0479 C   0  0  0  0  0  0  0  0  0  0  0  0
   23.4757   39.0320   49.0878 C   0  0  0  0  0  0  0  0  0  0  0  0
   24.1547   38.7881   48.0890 O   0  0  0  0  0  0  0  0  0  0  0  0
   22.2266   38.4114   49.2570 C   0  0  0  0  0  0  0  0  0  0  0  0
   21.7661   37.5213   48.2849 C   0  0  0  0  0  0  0  0  0  0  0  0
   22.5310   37.2620   47.1849 O   0  0  0  0  0  0  0  0  0  0  0  0
   20.4372   36.8468   48.4420 C   0  0  0  0  0  0  0  0  0  0  0  0
   19.9315   35.8881   47.4110 C   0  0  0  0  0  0  0  0  0  0  0  0
   19.3763   34.6649   48.1359 C   0  0  0  0  0  0  0  0  0  0  0  0
   18.3382   34.9785   49.2319 C   0  0  0  0  0  0  0  0  0  0  0  0
   18.6360   34.1350   50.3671 O   0  0  0  0  0  0  0  0  0  0  0  0
   18.3297   36.4383   49.7195 C   0  0  0  0  0  0  0  0  0  0  0  0
   19.6750   37.1093   49.5513 C   0  0  0  0  0  0  0  0  0  0  0  0
   20.1924   38.0732   50.5822 C   0  0  0  0  0  0  0  0  0  0  0  0
   19.4412   38.3545   51.7041 O   0  0  0  0  0  0  0  0  0  0  0  0
   21.4476   38.6894   50.3993 C   0  0  0  0  0  0  0  0  0  0  0  0
   21.9278   39.5868   51.3624 C   0  0  0  0  0  0  0  0  0  0  0  0
   21.2454   39.8365   52.3739 O   0  0  0  0  0  0  0  0  0  0  0  0
   23.1819   40.2031   51.1837 C   0  0  0  0  0  0  0  0  0  0  0  0
   23.3625   37.6817   47.0829 H   0  0  0  0  0  0  0  0  0  0  0  0
   18.6473   33.2067   50.0860 H   0  0  0  0  0  0  0  0  0  0  0  0
   18.6074   37.9445   51.8245 H   0  0  0  0  0  0  0  0  0  0  0  0
   16.9431   34.6149   48.7004 C   0  0  0  0  0  0  0  0  0  0  0  0
   16.2599   35.5031   48.0071 O   0  0  0  0  0  0  0  0  0  0  0  0
   16.3878   33.2424   48.9842 C   0  0  0  0  0  0  0  0  0  0  0  0
   25.9099   40.3187   48.8839 O   0  0  0  0  0  0  0  0  0  0  0  0
   27.2505   39.9010   49.0317 C   0  0  0  0  0  0  0  0  0  0  0  0
   21.0153   35.4639   46.6023 O   0  0  0  0  0  0  0  0  0  0  0  0
   20.6047   34.9683   45.3382 C   0  0  0  0  0  0  0  0  0  0  0  0
   20.0186   36.1156   44.5002 C   0  0  0  0  0  0  0  0  0  0  0  0
   21.0934   37.1448   44.1134 C   0  0  0  0  0  0  0  0  0  0  0  0
   20.5564   38.0633   43.1206 N   0  0  0  0  0  0  0  0  0  0  0  0
   22.3716   36.4697   43.5731 C   0  0  0  0  0  0  0  0  0  0  0  0
   22.1725   36.0363   42.2347 O   0  0  0  0  0  0  0  0  0  0  0  0
   22.8010   35.2851   44.4643 C   0  0  0  0  0  0  0  0  0  0  0  0
   21.7112   34.3803   44.6484 O   0  0  0  0  0  0  0  0  0  0  0  0
   23.9983   34.5381   43.8789 C   0  0  0  0  0  0  0  0  0  0  0  0
   20.2996   37.5443   42.2809 H   0  0  0  0  0  0  0  0  0  0  0  0
   21.2622   38.7614   42.8863 H   0  0  0  0  0  0  0  0  0  0  0  0
   21.4598   35.3787   42.2104 H   0  0  0  0  0  0  0  0  0  0  0  0
  1  2  2  0  0  0
  1 23  1  0  0  0
  2  3  1  0  0  0
  3  4  2  0  0  0
  4 30  1  0  0  0
  4  5  1  0  0  0
 30 31  1  0  0  0
  5  6  1  0  0  0
  5 23  2  0  0  0
  6  7  2  0  0  0
  6  8  1  0  0  0
  8  9  2  0  0  0
  8 20  1  0  0  0
  9 10  1  0  0  0
  9 11  1  0  0  0
 11 12  1  0  0  0
 11 17  2  0  0  0
 12 32  1  0  0  0
 12 13  1  0  0  0
 32 33  1  0  0  0
 13 14  1  0  0  0
 14 15  1  0  0  0
 14 27  1  0  0  0
 14 16  1  0  0  0
 27 28  2  0  0  0
 27 29  1  0  0  0
 16 17  1  0  0  0
 17 18  1  0  0  0
 18 19  1  0  0  0
 18 20  2  0  0  0
 20 21  1  0  0  0
 21 22  2  0  0  0
 21 23  1  0  0  0
 33 34  1  0  0  0
 33 40  1  0  0  0
 34 35  1  0  0  0
 35 36  1  0  0  0
 35 37  1  0  0  0
 37 38  1  0  0  0
 37 39  1  0  0  0
 39 40  1  0  0  0
 39 41  1  0  0  0
 10 24  1  0  0  0
 15 25  1  0  0  0
 19 26  1  0  0  0
 36 42  1  0  0  0
 36 43  1  0  0  0
 38 44  1  0  0  0
M  END
> <minimizedAffinity>
-10.53132

$$$$
3F8F_DM1_A_127


 44 48  0  0  0  0  0  0  0  0999 V2000
   21.2385   39.9135   52.4161 C   0  0  0  0  0  0  0  0  0  0  0  0
   20.3939   39.9881   53.5140 C   0  0  0  0  0  0  0  0  0  0  0  0
   19.3059   39.1382   53.6254 C   0  0  0  0  0  0  0  0  0  0  0  0
   19.0479   38.1967   52.6323 C   0  0  0  0  0  0  0  0  0  0  0  0
   19.9053   38.1153   51.5127 C   0  0  0  0  0  0  0  0  0  0  0  0
   19.6689   37.1792   50.5050 C   0  0  0  0  0  0  0  0  0  0  0  0
   18.7043   36.4176   50.5931 O   0  0  0  0  0  0  0  0  0  0  0  0
   20.5246   37.1037   49.3932 C   0  0  0  0  0  0  0  0  0  0  0  0
   20.2711   36.1600   48.3959 C   0  0  0  0  0  0  0  0  0  0  0  0
   19.1980   35.3244   48.5088 O   0  0  0  0  0  0  0  0  0  0  0  0
   21.1690   36.0593   47.2004 C   0  0  0  0  0  0  0  0  0  0  0  0
   20.9087   35.0559   46.1219 C   0  0  0  0  0  0  0  0  0  0  0  0
   21.0628   35.7590   44.7759 C   0  0  0  0  0  0  0  0  0  0  0  0
   22.3930   36.5161   44.5902 C   0  0  0  0  0  0  0  0  0  0  0  0
   22.0892   37.7814   43.9613 O   0  0  0  0  0  0  0  0  0  0  0  0
   23.1602   36.8096   45.8918 C   0  0  0  0  0  0  0  0  0  0  0  0
   22.2437   36.9041   47.0915 C   0  0  0  0  0  0  0  0  0  0  0  0
   22.4960   37.9097   48.1799 C   0  0  0  0  0  0  0  0  0  0  0  0
   23.5727   38.7671   48.0926 O   0  0  0  0  0  0  0  0  0  0  0  0
   21.6294   37.9741   49.2905 C   0  0  0  0  0  0  0  0  0  0  0  0
   21.8667   38.9132   50.3031 C   0  0  0  0  0  0  0  0  0  0  0  0
   22.8402   39.6855   50.2186 O   0  0  0  0  0  0  0  0  0  0  0  0
   21.0022   38.9814   51.4134 C   0  0  0  0  0  0  0  0  0  0  0  0
   18.6342   35.3842   49.2548 H   0  0  0  0  0  0  0  0  0  0  0  0
   21.6042   37.6242   43.1361 H   0  0  0  0  0  0  0  0  0  0  0  0
   24.1478   38.7234   47.3542 H   0  0  0  0  0  0  0  0  0  0  0  0
   23.2907   35.7002   43.6471 C   0  0  0  0  0  0  0  0  0  0  0  0
   24.3362   36.2743   43.0868 O   0  0  0  0  0  0  0  0  0  0  0  0
   22.9535   34.2543   43.3863 C   0  0  0  0  0  0  0  0  0  0  0  0
   18.0693   37.4381   52.7404 O   0  0  0  0  0  0  0  0  0  0  0  0
   17.7517   36.8538   53.9858 C   0  0  0  0  0  0  0  0  0  0  0  0
   19.5712   34.5995   46.2274 O   0  0  0  0  0  0  0  0  0  0  0  0
   18.7371   35.0769   45.1841 C   0  0  0  0  0  0  0  0  0  0  0  0
   17.9922   33.8976   44.5389 C   0  0  0  0  0  0  0  0  0  0  0  0
   16.9762   33.2681   45.5062 C   0  0  0  0  0  0  0  0  0  0  0  0
   16.1245   32.3360   44.7827 N   0  0  0  0  0  0  0  0  0  0  0  0
   16.1132   34.3350   46.2121 C   0  0  0  0  0  0  0  0  0  0  0  0
   15.1116   34.8220   45.3298 O   0  0  0  0  0  0  0  0  0  0  0  0
   16.9788   35.4993   46.7390 C   0  0  0  0  0  0  0  0  0  0  0  0
   17.7951   36.0260   45.6918 O   0  0  0  0  0  0  0  0  0  0  0  0
   16.1255   36.6156   47.3389 C   0  0  0  0  0  0  0  0  0  0  0  0
   15.6054   32.8385   44.0627 H   0  0  0  0  0  0  0  0  0  0  0  0
   15.4698   31.8996   45.4318 H   0  0  0  0  0  0  0  0  0  0  0  0
   15.5323   35.2435   44.5641 H   0  0  0  0  0  0  0  0  0  0  0  0
  1  2  2  0  0  0
  1 23  1  0  0  0
  2  3  1  0  0  0
  3  4  2  0  0  0
  4 30  1  0  0  0
  4  5  1  0  0  0
 30 31  1  0  0  0
  5  6  1  0  0  0
  5 23  2  0  0  0
  6  7  2  0  0  0
  6  8  1  0  0  0
  8  9  2  0  0  0
  8 20  1  0  0  0
  9 10  1  0  0  0
  9 11  1  0  0  0
 11 12  1  0  0  0
 11 17  2  0  0  0
 12 32  1  0  0  0
 12 13  1  0  0  0
 32 33  1  0  0  0
 13 14  1  0  0  0
 14 15  1  0  0  0
 14 27  1  0  0  0
 14 16  1  0  0  0
 27 28  2  0  0  0
 27 29  1  0  0  0
 16 17  1  0  0  0
 17 18  1  0  0  0
 18 19  1  0  0  0
 18 20  2  0  0  0
 20 21  1  0  0  0
 21 22  2  0  0  0
 21 23  1  0  0  0
 33 34  1  0  0  0
 33 40  1  0  0  0
 34 35  1  0  0  0
 35 36  1  0  0  0
 35 37  1  0  0  0
 37 38  1  0  0  0
 37 39  1  0  0  0
 39 40  1  0  0  0
 39 41  1  0  0  0
 10 24  1  0  0  0
 15 25  1  0  0  0
 19 26  1  0  0  0
 36 42  1  0  0  0
 36 43  1  0  0  0
 38 44  1  0  0  0
M  END
> <minimizedAffinity>
-10.43355

$$$$
3F8F_DM1_A_127


 44 48  0  0  0  0  0  0  0  0999 V2000
   25.2837   37.4031   44.9544 C   0  0  0  0  0  0  0  0  0  0  0  0
   25.5721   36.8858   43.6999 C   0  0  0  0  0  0  0  0  0  0  0  0
   24.5865   36.2664   42.9492 C   0  0  0  0  0  0  0  0  0  0  0  0
   23.2912   36.1560   43.4485 C   0  0  0  0  0  0  0  0  0  0  0  0
   22.9915   36.6819   44.7247 C   0  0  0  0  0  0  0  0  0  0  0  0
   21.7006   36.5852   45.2464 C   0  0  0  0  0  0  0  0  0  0  0  0
   20.8155   36.0365   44.5878 O   0  0  0  0  0  0  0  0  0  0  0  0
   21.4088   37.1092   46.5168 C   0  0  0  0  0  0  0  0  0  0  0  0
   20.1110   37.0026   47.0207 C   0  0  0  0  0  0  0  0  0  0  0  0
   19.1426   36.3914   46.2785 O   0  0  0  0  0  0  0  0  0  0  0  0
   19.7743   37.5538   48.3729 C   0  0  0  0  0  0  0  0  0  0  0  0
   18.3895   37.4444   48.9280 C   0  0  0  0  0  0  0  0  0  0  0  0
   18.4980   36.9887   50.3808 C   0  0  0  0  0  0  0  0  0  0  0  0
   19.4362   37.8417   51.2579 C   0  0  0  0  0  0  0  0  0  0  0  0
   20.2069   36.9359   52.0790 O   0  0  0  0  0  0  0  0  0  0  0  0
   20.4247   38.7283   50.4795 C   0  0  0  0  0  0  0  0  0  0  0  0
   20.7529   38.1639   49.1150 C   0  0  0  0  0  0  0  0  0  0  0  0
   22.1414   38.2678   48.5489 C   0  0  0  0  0  0  0  0  0  0  0  0
   23.1404   38.8801   49.2764 O   0  0  0  0  0  0  0  0  0  0  0  0
   22.4203   37.7379   47.2721 C   0  0  0  0  0  0  0  0  0  0  0  0
   23.7159   37.8355   46.7474 C   0  0  0  0  0  0  0  0  0  0  0  0
   24.6142   38.3889   47.4092 O   0  0  0  0  0  0  0  0  0  0  0  0
   23.9984   37.3061   45.4728 C   0  0  0  0  0  0  0  0  0  0  0  0
   19.3491   36.0455   45.4325 H   0  0  0  0  0  0  0  0  0  0  0  0
   19.6057   36.3641   52.5816 H   0  0  0  0  0  0  0  0  0  0  0  0
   22.9539   39.2318   50.1246 H   0  0  0  0  0  0  0  0  0  0  0  0
   18.5765   38.7266   52.1738 C   0  0  0  0  0  0  0  0  0  0  0  0
   17.5410   39.3687   51.6718 O   0  0  0  0  0  0  0  0  0  0  0  0
   18.9388   38.8374   53.6329 C   0  0  0  0  0  0  0  0  0  0  0  0
   22.4131   35.5985   42.7681 O   0  0  0  0  0  0  0  0  0  0  0  0
   22.3971   35.7435   41.3638 C   0  0  0  0  0  0  0  0  0  0  0  0
   17.6797   36.4507   48.2088 O   0  0  0  0  0  0  0  0  0  0  0  0
   17.4382   35.2790   48.9710 C   0  0  0  0  0  0  0  0  0  0  0  0
   15.9671   34.8603   48.8208 C   0  0  0  0  0  0  0  0  0  0  0  0
   15.6521   34.3900   47.3913 C   0  0  0  0  0  0  0  0  0  0  0  0
   14.3360   33.7697   47.3592 N   0  0  0  0  0  0  0  0  0  0  0  0
   16.7145   33.4049   46.8601 C   0  0  0  0  0  0  0  0  0  0  0  0
   16.5196   32.1165   47.4265 O   0  0  0  0  0  0  0  0  0  0  0  0
   18.1439   33.9098   47.1502 C   0  0  0  0  0  0  0  0  0  0  0  0
   18.2914   34.2159   48.5376 O   0  0  0  0  0  0  0  0  0  0  0  0
   19.2025   32.8910   46.7312 C   0  0  0  0  0  0  0  0  0  0  0  0
   14.3306   32.9520   47.9690 H   0  0  0  0  0  0  0  0  0  0  0  0
   14.1182   33.4835   46.4047 H   0  0  0  0  0  0  0  0  0  0  0  0
   16.6217   32.1679   48.3898 H   0  0  0  0  0  0  0  0  0  0  0  0
  1  2  2  0  0  0
  1 23  1  0  0  0
  2  3  1  0  0  0
  3  4  2  0  0  0
  4 30  1  0  0  0
  4  5  1  0  0  0
 30 31  1  0  0  0
  5  6  1  0  0  0
  5 23  2  0  0  0
  6  7  2  0  0  0
  6  8  1  0  0  0
  8  9  2  0  0  0
  8 20  1  0  0  0
  9 10  1  0  0  0
  9 11  1  0  0  0
 11 12  1  0  0  0
 11 17  2  0  0  0
 12 32  1  0  0  0
 12 13  1  0  0  0
 32 33  1  0  0  0
 13 14  1  0  0  0
 14 15  1  0  0  0
 14 27  1  0  0  0
 14 16  1  0  0  0
 27 28  2  0  0  0
 27 29  1  0  0  0
 16 17  1  0  0  0
 17 18  1  0  0  0
 18 19  1  0  0  0
 18 20  2  0  0  0
 20 21  1  0  0  0
 21 22  2  0  0  0
 21 23  1  0  0  0
 33 34  1  0  0  0
 33 40  1  0  0  0
 34 35  1  0  0  0
 35 36  1  0  0  0
 35 37  1  0  0  0
 37 38  1  0  0  0
 37 39  1  0  0  0
 39 40  1  0  0  0
 39 41  1  0  0  0
 10 24  1  0  0  0
 15 25  1  0  0  0
 19 26  1  0  0  0
 36 42  1  0  0  0
 36 43  1  0  0  0
 38 44  1  0  0  0
M  END
> <minimizedAffinity>
-10.26577

$$$$
3F8F_DM1_A_127


 44 48  0  0  0  0  0  0  0  0999 V2000
   13.9578   31.3334   54.6754 C   0  0  0  0  0  0  0  0  0  0  0  0
   13.6215   30.1588   54.0184 C   0  0  0  0  0  0  0  0  0  0  0  0
   14.1936   29.8459   52.7964 C   0  0  0  0  0  0  0  0  0  0  0  0
   15.1157   30.7110   52.2127 C   0  0  0  0  0  0  0  0  0  0  0  0
   15.4628   31.9079   52.8776 C   0  0  0  0  0  0  0  0  0  0  0  0
   16.3855   32.7903   52.3140 C   0  0  0  0  0  0  0  0  0  0  0  0
   16.9013   32.5228   51.2274 O   0  0  0  0  0  0  0  0  0  0  0  0
   16.7261   33.9799   52.9796 C   0  0  0  0  0  0  0  0  0  0  0  0
   17.6516   34.8493   52.3991 C   0  0  0  0  0  0  0  0  0  0  0  0
   18.2130   34.5380   51.1949 O   0  0  0  0  0  0  0  0  0  0  0  0
   18.0317   36.1241   53.0891 C   0  0  0  0  0  0  0  0  0  0  0  0
   19.0190   37.0675   52.4786 C   0  0  0  0  0  0  0  0  0  0  0  0
   18.4595   38.4822   52.6034 C   0  0  0  0  0  0  0  0  0  0  0  0
   18.0373   38.8873   54.0298 C   0  0  0  0  0  0  0  0  0  0  0  0
   16.7804   39.5933   53.9274 O   0  0  0  0  0  0  0  0  0  0  0  0
   17.8400   37.7141   55.0063 C   0  0  0  0  0  0  0  0  0  0  0  0
   17.4614   36.4325   54.2975 C   0  0  0  0  0  0  0  0  0  0  0  0
   16.4695   35.4786   54.9022 C   0  0  0  0  0  0  0  0  0  0  0  0
   15.8859   35.7670   56.1181 O   0  0  0  0  0  0  0  0  0  0  0  0
   16.1373   34.2879   54.2234 C   0  0  0  0  0  0  0  0  0  0  0  0
   15.2116   33.4010   54.7892 C   0  0  0  0  0  0  0  0  0  0  0  0
   14.6872   33.6670   55.8871 O   0  0  0  0  0  0  0  0  0  0  0  0
   14.8763   32.2113   54.1133 C   0  0  0  0  0  0  0  0  0  0  0  0
   17.9780   33.7419   50.7602 H   0  0  0  0  0  0  0  0  0  0  0  0
   16.8779   40.3400   53.3159 H   0  0  0  0  0  0  0  0  0  0  0  0
   16.1074   36.5584   56.5681 H   0  0  0  0  0  0  0  0  0  0  0  0
   19.0958   39.8454   54.5979 C   0  0  0  0  0  0  0  0  0  0  0  0
   20.0933   40.2396   53.8324 O   0  0  0  0  0  0  0  0  0  0  0  0
   18.9654   40.3158   56.0242 C   0  0  0  0  0  0  0  0  0  0  0  0
   15.6240   30.4224   51.1158 O   0  0  0  0  0  0  0  0  0  0  0  0
   15.2660   29.2276   50.4542 C   0  0  0  0  0  0  0  0  0  0  0  0
   19.1527   36.7691   51.0996 O   0  0  0  0  0  0  0  0  0  0  0  0
   19.2513   37.9277   50.2873 C   0  0  0  0  0  0  0  0  0  0  0  0
   20.6349   37.9730   49.6197 C   0  0  0  0  0  0  0  0  0  0  0  0
   20.8098   36.8404   48.5946 C   0  0  0  0  0  0  0  0  0  0  0  0
   22.0155   37.0702   47.8128 N   0  0  0  0  0  0  0  0  0  0  0  0
   19.5888   36.7141   47.6595 C   0  0  0  0  0  0  0  0  0  0  0  0
   19.6149   37.7365   46.6732 O   0  0  0  0  0  0  0  0  0  0  0  0
   18.2658   36.7652   48.4529 C   0  0  0  0  0  0  0  0  0  0  0  0
   18.2298   37.9248   49.2861 O   0  0  0  0  0  0  0  0  0  0  0  0
   17.0486   36.7555   47.5295 C   0  0  0  0  0  0  0  0  0  0  0  0
   21.9268   37.9481   47.3011 H   0  0  0  0  0  0  0  0  0  0  0  0
   22.1439   36.3033   47.1525 H   0  0  0  0  0  0  0  0  0  0  0  0
   19.5662   38.6037   47.1050 H   0  0  0  0  0  0  0  0  0  0  0  0
  1  2  2  0  0  0
  1 23  1  0  0  0
  2  3  1  0  0  0
  3  4  2  0  0  0
  4 30  1  0  0  0
  4  5  1  0  0  0
 30 31  1  0  0  0
  5  6  1  0  0  0
  5 23  2  0  0  0
  6  7  2  0  0  0
  6  8  1  0  0  0
  8  9  2  0  0  0
  8 20  1  0  0  0
  9 10  1  0  0  0
  9 11  1  0  0  0
 11 12  1  0  0  0
 11 17  2  0  0  0
 12 32  1  0  0  0
 12 13  1  0  0  0
 32 33  1  0  0  0
 13 14  1  0  0  0
 14 15  1  0  0  0
 14 27  1  0  0  0
 14 16  1  0  0  0
 27 28  2  0  0  0
 27 29  1  0  0  0
 16 17  1  0  0  0
 17 18  1  0  0  0
 18 19  1  0  0  0
 18 20  2  0  0  0
 20 21  1  0  0  0
 21 22  2  0  0  0
 21 23  1  0  0  0
 33 34  1  0  0  0
 33 40  1  0  0  0
 34 35  1  0  0  0
 35 36  1  0  0  0
 35 37  1  0  0  0
 37 38  1  0  0  0
 37 39  1  0  0  0
 39 40  1  0  0  0
 39 41  1  0  0  0
 10 24  1  0  0  0
 15 25  1  0  0  0
 19 26  1  0  0  0
 36 42  1  0  0  0
 36 43  1  0  0  0
 38 44  1  0  0  0
M  END
> <minimizedAffinity>
-10.04317

$$$$
