4ITP_1GD_A_304


 24 25  0  0  0  0  0  0  0  0999 V2000
   15.3357    4.5585   15.1631 C   0  0  0  0  0  0  0  0  0  0  0  0
   14.9790    3.4046   15.9146 C   0  0  0  0  0  0  0  0  0  0  0  0
   15.8097    2.2826   16.0720 C   0  0  0  0  0  0  0  0  0  0  0  0
   17.0039    2.3943   15.3953 C   0  0  0  0  0  0  0  0  0  0  0  0
   17.4015    3.4901   14.6483 C   0  0  0  0  0  0  0  0  0  0  0  0
   16.5844    4.5892   14.4995 C   0  0  0  0  0  0  0  0  0  0  0  0
   13.6890    0.8934   16.9259 N   0  0  0  0  0  0  0  0  0  0  0  0
   15.3481    0.8888   16.9801 S   0  0  0  0  0  0  0  0  0  0  0  0
   15.8524   -0.2677   16.3473 O   0  0  0  0  0  0  0  0  0  0  0  0
   15.7411    1.1090   18.3420 O   0  0  0  0  0  0  0  0  0  0  0  0
   13.3362    1.7327   17.3856 H   0  0  0  0  0  0  0  0  0  0  0  0
   13.3309    0.0672   17.4050 H   0  0  0  0  0  0  0  0  0  0  0  0
   16.9804    5.8370   13.7432 C   0  0  0  0  0  0  0  0  0  0  0  0
   17.1150    5.7578   12.2809 N   0  0  0  0  0  0  0  0  0  0  0  0
   15.9411    6.1617   11.5992 C   0  0  0  0  0  0  0  0  0  0  0  0
   14.9716    6.5313   12.1914 O   0  0  0  0  0  0  0  0  0  0  0  0
   17.9335    5.4561   11.8246 H   0  0  0  0  0  0  0  0  0  0  0  0
   15.9277    6.1726   10.0483 C   0  0  0  0  0  0  0  0  0  0  0  0
   13.7766    6.6979    8.8986 C   0  0  0  0  0  0  0  0  0  0  0  0
   13.1890    9.0418    8.3550 C   0  0  0  0  0  0  0  0  0  0  0  0
   14.9699    7.1729    9.4774 C   0  0  0  0  0  0  0  0  0  0  0  0
   12.8995    7.6726    8.3469 C   0  0  0  0  0  0  0  0  0  0  0  0
   14.3971    9.4376    8.9369 C   0  0  0  0  0  0  0  0  0  0  0  0
   15.2500    8.5137    9.4738 C   0  0  0  0  0  0  0  0  0  0  0  0
 16 15  2  0  0  0
 23 24  2  0  0  0
 23 20  1  0  0  0
 24 21  1  0  0  0
 15 18  1  0  0  0
 15 14  1  0  0  0
 20 22  2  0  0  0
 21 18  1  0  0  0
 21 19  2  0  0  0
 13 14  1  0  0  0
 13  6  1  0  0  0
 22 19  1  0  0  0
  6  5  2  0  0  0
  6  1  1  0  0  0
  5  4  1  0  0  0
  1  2  2  0  0  0
  4  3  2  0  0  0
  2  3  1  0  0  0
  3  8  1  0  0  0
  7  8  1  0  0  0
 10  8  2  0  0  0
  8  9  2  0  0  0
  7 11  1  0  0  0
  7 12  1  0  0  0
 14 17  1  0  0  0
M  END
> <minimizedAffinity>
-7.62588

$$$$
4ITP_1GD_A_304


 24 25  0  0  0  0  0  0  0  0999 V2000
   16.9318    3.5317   14.8146 C   0  0  0  0  0  0  0  0  0  0  0  0
   16.4996    2.4716   15.6589 C   0  0  0  0  0  0  0  0  0  0  0  0
   15.3206    2.5068   16.4222 C   0  0  0  0  0  0  0  0  0  0  0  0
   14.6310    3.6925   16.2984 C   0  0  0  0  0  0  0  0  0  0  0  0
   15.0054    4.7564   15.4954 C   0  0  0  0  0  0  0  0  0  0  0  0
   16.1609    4.7156   14.7465 C   0  0  0  0  0  0  0  0  0  0  0  0
   15.8377   -0.0418   17.0496 N   0  0  0  0  0  0  0  0  0  0  0  0
   14.8242    1.2107   17.4489 S   0  0  0  0  0  0  0  0  0  0  0  0
   15.0183    1.5831   18.7964 O   0  0  0  0  0  0  0  0  0  0  0  0
   13.4944    0.8366   17.0624 O   0  0  0  0  0  0  0  0  0  0  0  0
   15.6887   -0.3021   16.0747 H   0  0  0  0  0  0  0  0  0  0  0  0
   15.6407   -0.8430   17.6494 H   0  0  0  0  0  0  0  0  0  0  0  0
   16.5973    5.8198   13.8103 C   0  0  0  0  0  0  0  0  0  0  0  0
   17.5558    5.4962   12.7428 N   0  0  0  0  0  0  0  0  0  0  0  0
   16.9322    5.3010   11.4863 C   0  0  0  0  0  0  0  0  0  0  0  0
   15.7500    5.4093   11.3528 O   0  0  0  0  0  0  0  0  0  0  0  0
   18.5270    5.4231   12.8864 H   0  0  0  0  0  0  0  0  0  0  0  0
   17.8063    4.9879   10.2438 C   0  0  0  0  0  0  0  0  0  0  0  0
   17.9239    2.5749   10.8670 C   0  0  0  0  0  0  0  0  0  0  0  0
   20.0655    1.3422   10.6971 C   0  0  0  0  0  0  0  0  0  0  0  0
   18.5891    3.7183   10.3828 C   0  0  0  0  0  0  0  0  0  0  0  0
   18.7016    1.3920   11.0071 C   0  0  0  0  0  0  0  0  0  0  0  0
   20.6601    2.5192   10.2323 C   0  0  0  0  0  0  0  0  0  0  0  0
   19.9261    3.6638   10.0898 C   0  0  0  0  0  0  0  0  0  0  0  0
 16 15  2  0  0  0
 23 24  2  0  0  0
 23 20  1  0  0  0
 24 21  1  0  0  0
 15 18  1  0  0  0
 15 14  1  0  0  0
 20 22  2  0  0  0
 21 18  1  0  0  0
 21 19  2  0  0  0
 13 14  1  0  0  0
 13  6  1  0  0  0
 22 19  1  0  0  0
  6  5  2  0  0  0
  6  1  1  0  0  0
  5  4  1  0  0  0
  1  2  2  0  0  0
  4  3  2  0  0  0
  2  3  1  0  0  0
  3  8  1  0  0  0
  7  8  1  0  0  0
 10  8  2  0  0  0
  8  9  2  0  0  0
  7 11  1  0  0  0
  7 12  1  0  0  0
 14 17  1  0  0  0
M  END
> <minimizedAffinity>
-7.46857

$$$$
4ITP_1GD_A_304


 24 25  0  0  0  0  0  0  0  0999 V2000
   17.1536    3.3252   14.7270 C   0  0  0  0  0  0  0  0  0  0  0  0
   16.6774    2.3488   15.6452 C   0  0  0  0  0  0  0  0  0  0  0  0
   15.4237    2.4101   16.2763 C   0  0  0  0  0  0  0  0  0  0  0  0
   14.7039    3.5355   15.9416 C   0  0  0  0  0  0  0  0  0  0  0  0
   15.1181    4.5175   15.0580 C   0  0  0  0  0  0  0  0  0  0  0  0
   16.3473    4.4511   14.4394 C   0  0  0  0  0  0  0  0  0  0  0  0
   15.8314   -0.1043   17.0937 N   0  0  0  0  0  0  0  0  0  0  0  0
   14.8738    1.2173   17.3967 S   0  0  0  0  0  0  0  0  0  0  0  0
   15.0865    1.6809   18.7127 O   0  0  0  0  0  0  0  0  0  0  0  0
   13.5282    0.8731   17.0377 O   0  0  0  0  0  0  0  0  0  0  0  0
   15.6693   -0.4303   16.1409 H   0  0  0  0  0  0  0  0  0  0  0  0
   15.6012   -0.8490   17.7516 H   0  0  0  0  0  0  0  0  0  0  0  0
   16.8357    5.4609   13.4256 C   0  0  0  0  0  0  0  0  0  0  0  0
   17.7800    6.4980   13.8676 N   0  0  0  0  0  0  0  0  0  0  0  0
   19.0538    6.3748   13.2609 C   0  0  0  0  0  0  0  0  0  0  0  0
   19.2873    5.5102   12.4702 O   0  0  0  0  0  0  0  0  0  0  0  0
   17.5512    7.2027   14.5160 H   0  0  0  0  0  0  0  0  0  0  0  0
   20.1574    7.4135   13.5911 C   0  0  0  0  0  0  0  0  0  0  0  0
   19.3332    9.2836   12.1599 C   0  0  0  0  0  0  0  0  0  0  0  0
   18.8668   11.5051   13.1510 C   0  0  0  0  0  0  0  0  0  0  0  0
   19.6920    8.8298   13.4444 C   0  0  0  0  0  0  0  0  0  0  0  0
   18.9163   10.6394   12.0524 C   0  0  0  0  0  0  0  0  0  0  0  0
   19.2483   10.9870   14.3923 C   0  0  0  0  0  0  0  0  0  0  0  0
   19.6491    9.6855   14.5131 C   0  0  0  0  0  0  0  0  0  0  0  0
 16 15  2  0  0  0
 23 24  2  0  0  0
 23 20  1  0  0  0
 24 21  1  0  0  0
 15 18  1  0  0  0
 15 14  1  0  0  0
 20 22  2  0  0  0
 21 18  1  0  0  0
 21 19  2  0  0  0
 13 14  1  0  0  0
 13  6  1  0  0  0
 22 19  1  0  0  0
  6  5  2  0  0  0
  6  1  1  0  0  0
  5  4  1  0  0  0
  1  2  2  0  0  0
  4  3  2  0  0  0
  2  3  1  0  0  0
  3  8  1  0  0  0
  7  8  1  0  0  0
 10  8  2  0  0  0
  8  9  2  0  0  0
  7 11  1  0  0  0
  7 12  1  0  0  0
 14 17  1  0  0  0
M  END
> <minimizedAffinity>
-7.34801

$$$$
4ITP_1GD_A_304


 24 25  0  0  0  0  0  0  0  0999 V2000
   15.4645    4.4102   14.8905 C   0  0  0  0  0  0  0  0  0  0  0  0
   14.9011    3.4963   15.8235 C   0  0  0  0  0  0  0  0  0  0  0  0
   15.5631    2.3521   16.2995 C   0  0  0  0  0  0  0  0  0  0  0  0
   16.8125    2.1805   15.7460 C   0  0  0  0  0  0  0  0  0  0  0  0
   17.4084    3.0346   14.8339 C   0  0  0  0  0  0  0  0  0  0  0  0
   16.7561    4.1569   14.3726 C   0  0  0  0  0  0  0  0  0  0  0  0
   15.7334   -0.1439   17.2467 N   0  0  0  0  0  0  0  0  0  0  0  0
   14.8521    1.2516   17.4236 S   0  0  0  0  0  0  0  0  0  0  0  0
   15.0025    1.7596   18.7318 O   0  0  0  0  0  0  0  0  0  0  0  0
   13.5147    0.9826   16.9799 O   0  0  0  0  0  0  0  0  0  0  0  0
   15.6172   -0.5015   16.2986 H   0  0  0  0  0  0  0  0  0  0  0  0
   15.4050   -0.8405   17.9155 H   0  0  0  0  0  0  0  0  0  0  0  0
   17.3710    5.1565   13.4194 C   0  0  0  0  0  0  0  0  0  0  0  0
   16.4940    6.1528   12.7861 N   0  0  0  0  0  0  0  0  0  0  0  0
   16.3730    5.9670   11.3873 C   0  0  0  0  0  0  0  0  0  0  0  0
   16.9338    5.0741   10.8256 O   0  0  0  0  0  0  0  0  0  0  0  0
   16.0396    6.8721   13.2815 H   0  0  0  0  0  0  0  0  0  0  0  0
   15.4535    6.9125   10.5710 C   0  0  0  0  0  0  0  0  0  0  0  0
   14.9573    9.3511   10.3926 C   0  0  0  0  0  0  0  0  0  0  0  0
   16.7845   11.0148   10.5618 C   0  0  0  0  0  0  0  0  0  0  0  0
   15.9159    8.3372   10.5867 C   0  0  0  0  0  0  0  0  0  0  0  0
   15.4334   10.6917   10.3918 C   0  0  0  0  0  0  0  0  0  0  0  0
   17.6792    9.9550   10.7380 C   0  0  0  0  0  0  0  0  0  0  0  0
   17.2375    8.6611   10.7437 C   0  0  0  0  0  0  0  0  0  0  0  0
 16 15  2  0  0  0
 23 24  2  0  0  0
 23 20  1  0  0  0
 24 21  1  0  0  0
 15 18  1  0  0  0
 15 14  1  0  0  0
 20 22  2  0  0  0
 21 18  1  0  0  0
 21 19  2  0  0  0
 13 14  1  0  0  0
 13  6  1  0  0  0
 22 19  1  0  0  0
  6  5  2  0  0  0
  6  1  1  0  0  0
  5  4  1  0  0  0
  1  2  2  0  0  0
  4  3  2  0  0  0
  2  3  1  0  0  0
  3  8  1  0  0  0
  7  8  1  0  0  0
 10  8  2  0  0  0
  8  9  2  0  0  0
  7 11  1  0  0  0
  7 12  1  0  0  0
 14 17  1  0  0  0
M  END
> <minimizedAffinity>
-7.20897

$$$$
4ITP_1GD_A_304


 24 25  0  0  0  0  0  0  0  0999 V2000
   16.2499    3.1793   14.1607 C   0  0  0  0  0  0  0  0  0  0  0  0
   15.5840    2.7509   15.3424 C   0  0  0  0  0  0  0  0  0  0  0  0
   15.6938    1.4578   15.8806 C   0  0  0  0  0  0  0  0  0  0  0  0
   16.4922    0.6248   15.1286 C   0  0  0  0  0  0  0  0  0  0  0  0
   17.1610    0.9865   13.9716 C   0  0  0  0  0  0  0  0  0  0  0  0
   17.0523    2.2567   13.4497 C   0  0  0  0  0  0  0  0  0  0  0  0
   15.0079    2.2527   18.3411 N   0  0  0  0  0  0  0  0  0  0  0  0
   14.8652    0.9591   17.3106 S   0  0  0  0  0  0  0  0  0  0  0  0
   13.5068    0.7278   17.0054 O   0  0  0  0  0  0  0  0  0  0  0  0
   15.5999   -0.1344   17.8783 O   0  0  0  0  0  0  0  0  0  0  0  0
   15.9928    2.4104   18.5544 H   0  0  0  0  0  0  0  0  0  0  0  0
   14.5001    2.0577   19.2039 H   0  0  0  0  0  0  0  0  0  0  0  0
   17.7977    2.7297   12.2222 C   0  0  0  0  0  0  0  0  0  0  0  0
   17.8617    4.1742   11.9538 N   0  0  0  0  0  0  0  0  0  0  0  0
   17.5461    4.4974   10.6115 C   0  0  0  0  0  0  0  0  0  0  0  0
   17.2534    3.6531    9.8187 O   0  0  0  0  0  0  0  0  0  0  0  0
   18.0987    4.8449   12.6345 H   0  0  0  0  0  0  0  0  0  0  0  0
   17.5312    5.9844   10.1704 C   0  0  0  0  0  0  0  0  0  0  0  0
   15.5816    6.9830   11.3649 C   0  0  0  0  0  0  0  0  0  0  0  0
   13.5472    7.6350   10.1116 C   0  0  0  0  0  0  0  0  0  0  0  0
   16.1545    6.5743   10.1445 C   0  0  0  0  0  0  0  0  0  0  0  0
   14.2651    7.5189   11.3073 C   0  0  0  0  0  0  0  0  0  0  0  0
   14.1763    7.1984    8.9418 C   0  0  0  0  0  0  0  0  0  0  0  0
   15.4421    6.6831    8.9797 C   0  0  0  0  0  0  0  0  0  0  0  0
 16 15  2  0  0  0
 23 24  2  0  0  0
 23 20  1  0  0  0
 24 21  1  0  0  0
 15 18  1  0  0  0
 15 14  1  0  0  0
 20 22  2  0  0  0
 21 18  1  0  0  0
 21 19  2  0  0  0
 13 14  1  0  0  0
 13  6  1  0  0  0
 22 19  1  0  0  0
  6  5  2  0  0  0
  6  1  1  0  0  0
  5  4  1  0  0  0
  1  2  2  0  0  0
  4  3  2  0  0  0
  2  3  1  0  0  0
  3  8  1  0  0  0
  7  8  1  0  0  0
 10  8  2  0  0  0
  8  9  2  0  0  0
  7 11  1  0  0  0
  7 12  1  0  0  0
 14 17  1  0  0  0
M  END
> <minimizedAffinity>
-7.20134

$$$$
4ITP_1GD_A_304


 24 25  0  0  0  0  0  0  0  0999 V2000
   20.1478    7.1639   13.2683 C   0  0  0  0  0  0  0  0  0  0  0  0
   20.9023    8.3474   13.4993 C   0  0  0  0  0  0  0  0  0  0  0  0
   20.7040    9.2034   14.5957 C   0  0  0  0  0  0  0  0  0  0  0  0
   19.6760    8.7996   15.4183 C   0  0  0  0  0  0  0  0  0  0  0  0
   18.9086    7.6610   15.2409 C   0  0  0  0  0  0  0  0  0  0  0  0
   19.1091    6.8234   14.1658 C   0  0  0  0  0  0  0  0  0  0  0  0
   22.6348   10.7183   13.5310 N   0  0  0  0  0  0  0  0  0  0  0  0
   21.6260   10.6411   14.8470 S   0  0  0  0  0  0  0  0  0  0  0  0
   20.7585   11.7544   14.8611 O   0  0  0  0  0  0  0  0  0  0  0  0
   22.4403   10.4361   16.0100 O   0  0  0  0  0  0  0  0  0  0  0  0
   23.2564    9.9096   13.5313 H   0  0  0  0  0  0  0  0  0  0  0  0
   23.1892   11.5733   13.5773 H   0  0  0  0  0  0  0  0  0  0  0  0
   18.3427    5.5390   13.9443 C   0  0  0  0  0  0  0  0  0  0  0  0
   17.2378    5.2149   14.8592 N   0  0  0  0  0  0  0  0  0  0  0  0
   16.1126    4.6738   14.1906 C   0  0  0  0  0  0  0  0  0  0  0  0
   16.1109    4.5056   13.0078 O   0  0  0  0  0  0  0  0  0  0  0  0
   17.2762    5.3587   15.8324 H   0  0  0  0  0  0  0  0  0  0  0  0
   14.8720    4.2430   15.0158 C   0  0  0  0  0  0  0  0  0  0  0  0
   15.9895    2.0329   15.3183 C   0  0  0  0  0  0  0  0  0  0  0  0
   15.5186    0.6574   17.3235 C   0  0  0  0  0  0  0  0  0  0  0  0
   15.1088    3.0069   15.8283 C   0  0  0  0  0  0  0  0  0  0  0  0
   16.1753    0.8621   16.1046 C   0  0  0  0  0  0  0  0  0  0  0  0
   14.6511    1.6629   17.7605 C   0  0  0  0  0  0  0  0  0  0  0  0
   14.4633    2.7953   17.0177 C   0  0  0  0  0  0  0  0  0  0  0  0
 16 15  2  0  0  0
 23 24  2  0  0  0
 23 20  1  0  0  0
 24 21  1  0  0  0
 15 18  1  0  0  0
 15 14  1  0  0  0
 20 22  2  0  0  0
 21 18  1  0  0  0
 21 19  2  0  0  0
 13 14  1  0  0  0
 13  6  1  0  0  0
 22 19  1  0  0  0
  6  5  2  0  0  0
  6  1  1  0  0  0
  5  4  1  0  0  0
  1  2  2  0  0  0
  4  3  2  0  0  0
  2  3  1  0  0  0
  3  8  1  0  0  0
  7  8  1  0  0  0
 10  8  2  0  0  0
  8  9  2  0  0  0
  7 11  1  0  0  0
  7 12  1  0  0  0
 14 17  1  0  0  0
M  END
> <minimizedAffinity>
-7.17783

$$$$
4ITP_1GD_A_304


 24 25  0  0  0  0  0  0  0  0999 V2000
   17.1007    1.4114   13.8156 C   0  0  0  0  0  0  0  0  0  0  0  0
   16.5510    0.9713   15.0514 C   0  0  0  0  0  0  0  0  0  0  0  0
   15.7614    1.7757   15.8903 C   0  0  0  0  0  0  0  0  0  0  0  0
   15.5947    3.0562   15.4116 C   0  0  0  0  0  0  0  0  0  0  0  0
   16.1078    3.5386   14.2196 C   0  0  0  0  0  0  0  0  0  0  0  0
   16.8789    2.7448   13.3992 C   0  0  0  0  0  0  0  0  0  0  0  0
   13.5439    0.8185   17.0403 N   0  0  0  0  0  0  0  0  0  0  0  0
   15.1155    1.2209   17.3920 S   0  0  0  0  0  0  0  0  0  0  0  0
   15.8283    0.0772   17.8118 O   0  0  0  0  0  0  0  0  0  0  0  0
   15.0894    2.3378   18.2917 O   0  0  0  0  0  0  0  0  0  0  0  0
   13.0390    1.6518   16.7385 H   0  0  0  0  0  0  0  0  0  0  0  0
   13.0972    0.4332   17.8725 H   0  0  0  0  0  0  0  0  0  0  0  0
   17.4230    3.1937   12.0619 C   0  0  0  0  0  0  0  0  0  0  0  0
   18.0737    4.5098   11.9755 N   0  0  0  0  0  0  0  0  0  0  0  0
   19.4399    4.4718   12.3468 C   0  0  0  0  0  0  0  0  0  0  0  0
   19.9685    3.4528   12.6774 O   0  0  0  0  0  0  0  0  0  0  0  0
   17.6092    5.3296   11.6901 H   0  0  0  0  0  0  0  0  0  0  0  0
   20.2838    5.7713   12.2761 C   0  0  0  0  0  0  0  0  0  0  0  0
   18.9299    6.4085   14.2727 C   0  0  0  0  0  0  0  0  0  0  0  0
   19.3256    8.5710   15.4137 C   0  0  0  0  0  0  0  0  0  0  0  0
   19.9655    6.7373   13.3760 C   0  0  0  0  0  0  0  0  0  0  0  0
   18.6394    7.3573   15.2920 C   0  0  0  0  0  0  0  0  0  0  0  0
   20.3334    8.8333   14.4807 C   0  0  0  0  0  0  0  0  0  0  0  0
   20.6266    7.9309   13.4965 C   0  0  0  0  0  0  0  0  0  0  0  0
 16 15  2  0  0  0
 23 24  2  0  0  0
 23 20  1  0  0  0
 24 21  1  0  0  0
 15 18  1  0  0  0
 15 14  1  0  0  0
 20 22  2  0  0  0
 21 18  1  0  0  0
 21 19  2  0  0  0
 13 14  1  0  0  0
 13  6  1  0  0  0
 22 19  1  0  0  0
  6  5  2  0  0  0
  6  1  1  0  0  0
  5  4  1  0  0  0
  1  2  2  0  0  0
  4  3  2  0  0  0
  2  3  1  0  0  0
  3  8  1  0  0  0
  7  8  1  0  0  0
 10  8  2  0  0  0
  8  9  2  0  0  0
  7 11  1  0  0  0
  7 12  1  0  0  0
 14 17  1  0  0  0
M  END
> <minimizedAffinity>
-7.11952

$$$$
4ITP_1GD_A_304


 24 25  0  0  0  0  0  0  0  0999 V2000
   18.8570    7.2528   12.6096 C   0  0  0  0  0  0  0  0  0  0  0  0
   19.2366    8.6111   12.4250 C   0  0  0  0  0  0  0  0  0  0  0  0
   19.5956    9.4753   13.4730 C   0  0  0  0  0  0  0  0  0  0  0  0
   19.5135    8.8840   14.7140 C   0  0  0  0  0  0  0  0  0  0  0  0
   19.1483    7.5700   14.9524 C   0  0  0  0  0  0  0  0  0  0  0  0
   18.8000    6.7258   13.9209 C   0  0  0  0  0  0  0  0  0  0  0  0
   18.7908   11.9931   13.8842 N   0  0  0  0  0  0  0  0  0  0  0  0
   20.0413   11.1243   13.2233 S   0  0  0  0  0  0  0  0  0  0  0  0
   21.2406   11.3931   13.9171 O   0  0  0  0  0  0  0  0  0  0  0  0
   20.0401   11.3643   11.8090 O   0  0  0  0  0  0  0  0  0  0  0  0
   17.9302   11.7912   13.3754 H   0  0  0  0  0  0  0  0  0  0  0  0
   18.9979   12.9898   13.8199 H   0  0  0  0  0  0  0  0  0  0  0  0
   18.4444    5.2684   14.1089 C   0  0  0  0  0  0  0  0  0  0  0  0
   17.2840    4.9321   14.9475 N   0  0  0  0  0  0  0  0  0  0  0  0
   16.1712    4.4886   14.1919 C   0  0  0  0  0  0  0  0  0  0  0  0
   16.2199    4.4018   13.0014 O   0  0  0  0  0  0  0  0  0  0  0  0
   17.2810    5.0073   15.9291 H   0  0  0  0  0  0  0  0  0  0  0  0
   14.8752    4.0583   14.9275 C   0  0  0  0  0  0  0  0  0  0  0  0
   15.9347    1.8532   15.4172 C   0  0  0  0  0  0  0  0  0  0  0  0
   15.4314    0.6660   17.5319 C   0  0  0  0  0  0  0  0  0  0  0  0
   15.0808    2.8899   15.8422 C   0  0  0  0  0  0  0  0  0  0  0  0
   16.0910    0.7489   16.3004 C   0  0  0  0  0  0  0  0  0  0  0  0
   14.5914    1.7276   17.8814 C   0  0  0  0  0  0  0  0  0  0  0  0
   14.4322    2.7973   17.0451 C   0  0  0  0  0  0  0  0  0  0  0  0
 16 15  2  0  0  0
 23 24  2  0  0  0
 23 20  1  0  0  0
 24 21  1  0  0  0
 15 18  1  0  0  0
 15 14  1  0  0  0
 20 22  2  0  0  0
 21 18  1  0  0  0
 21 19  2  0  0  0
 13 14  1  0  0  0
 13  6  1  0  0  0
 22 19  1  0  0  0
  6  5  2  0  0  0
  6  1  1  0  0  0
  5  4  1  0  0  0
  1  2  2  0  0  0
  4  3  2  0  0  0
  2  3  1  0  0  0
  3  8  1  0  0  0
  7  8  1  0  0  0
 10  8  2  0  0  0
  8  9  2  0  0  0
  7 11  1  0  0  0
  7 12  1  0  0  0
 14 17  1  0  0  0
M  END
> <minimizedAffinity>
-6.82745

$$$$
4ITP_1GD_A_304


 24 25  0  0  0  0  0  0  0  0999 V2000
   17.3843    3.1722   15.1329 C   0  0  0  0  0  0  0  0  0  0  0  0
   16.8423    2.2768   16.0961 C   0  0  0  0  0  0  0  0  0  0  0  0
   15.5688    2.4200   16.6720 C   0  0  0  0  0  0  0  0  0  0  0  0
   14.8997    3.5410   16.2336 C   0  0  0  0  0  0  0  0  0  0  0  0
   15.3787    4.4462   15.3020 C   0  0  0  0  0  0  0  0  0  0  0  0
   16.6269    4.2996   14.7380 C   0  0  0  0  0  0  0  0  0  0  0  0
   13.4506    0.8931   17.2533 N   0  0  0  0  0  0  0  0  0  0  0  0
   14.9386    1.3251   17.8486 S   0  0  0  0  0  0  0  0  0  0  0  0
   15.7780    0.1932   17.9286 O   0  0  0  0  0  0  0  0  0  0  0  0
   14.7266    2.0647   19.0593 O   0  0  0  0  0  0  0  0  0  0  0  0
   12.8531    1.7181   17.1999 H   0  0  0  0  0  0  0  0  0  0  0  0
   13.0238    0.2037   17.8722 H   0  0  0  0  0  0  0  0  0  0  0  0
   17.1857    5.2213   13.6776 C   0  0  0  0  0  0  0  0  0  0  0  0
   17.4520    4.6713   12.3399 N   0  0  0  0  0  0  0  0  0  0  0  0
   18.7044    4.0152   12.2558 C   0  0  0  0  0  0  0  0  0  0  0  0
   19.4300    3.9321   13.2012 O   0  0  0  0  0  0  0  0  0  0  0  0
   16.8266    4.7506   11.5838 H   0  0  0  0  0  0  0  0  0  0  0  0
   19.1243    3.3459   10.9211 C   0  0  0  0  0  0  0  0  0  0  0  0
   17.4273    1.5550   10.5499 C   0  0  0  0  0  0  0  0  0  0  0  0
   18.0560   -0.8300   10.7763 C   0  0  0  0  0  0  0  0  0  0  0  0
   18.7604    1.8944   10.8534 C   0  0  0  0  0  0  0  0  0  0  0  0
   17.1108    0.1686   10.5147 C   0  0  0  0  0  0  0  0  0  0  0  0
   19.3564   -0.4169   11.0811 C   0  0  0  0  0  0  0  0  0  0  0  0
   19.6775    0.9115   11.1166 C   0  0  0  0  0  0  0  0  0  0  0  0
 16 15  2  0  0  0
 23 24  2  0  0  0
 23 20  1  0  0  0
 24 21  1  0  0  0
 15 18  1  0  0  0
 15 14  1  0  0  0
 20 22  2  0  0  0
 21 18  1  0  0  0
 21 19  2  0  0  0
 13 14  1  0  0  0
 13  6  1  0  0  0
 22 19  1  0  0  0
  6  5  2  0  0  0
  6  1  1  0  0  0
  5  4  1  0  0  0
  1  2  2  0  0  0
  4  3  2  0  0  0
  2  3  1  0  0  0
  3  8  1  0  0  0
  7  8  1  0  0  0
 10  8  2  0  0  0
  8  9  2  0  0  0
  7 11  1  0  0  0
  7 12  1  0  0  0
 14 17  1  0  0  0
M  END
> <minimizedAffinity>
-6.76066

$$$$
4ITP_1GD_A_304


 24 25  0  0  0  0  0  0  0  0999 V2000
   17.1054    1.1001   13.5871 C   0  0  0  0  0  0  0  0  0  0  0  0
   16.5667    0.6134   14.8103 C   0  0  0  0  0  0  0  0  0  0  0  0
   15.8252    1.3984   15.7091 C   0  0  0  0  0  0  0  0  0  0  0  0
   15.6949    2.7081   15.3034 C   0  0  0  0  0  0  0  0  0  0  0  0
   16.1994    3.2359   14.1271 C   0  0  0  0  0  0  0  0  0  0  0  0
   16.9233    2.4610   13.2477 C   0  0  0  0  0  0  0  0  0  0  0  0
   13.5515    1.0029   17.0620 N   0  0  0  0  0  0  0  0  0  0  0  0
   15.1920    0.7863   17.1939 S   0  0  0  0  0  0  0  0  0  0  0  0
   15.4944   -0.5884   17.2979 O   0  0  0  0  0  0  0  0  0  0  0  0
   15.6613    1.6374   18.2489 O   0  0  0  0  0  0  0  0  0  0  0  0
   13.3450    1.9990   16.9875 H   0  0  0  0  0  0  0  0  0  0  0  0
   13.0906    0.6209   17.8878 H   0  0  0  0  0  0  0  0  0  0  0  0
   17.4544    2.9622   11.9238 C   0  0  0  0  0  0  0  0  0  0  0  0
   18.6425    3.8289   11.9277 N   0  0  0  0  0  0  0  0  0  0  0  0
   19.8481    3.1082   11.7458 C   0  0  0  0  0  0  0  0  0  0  0  0
   19.8500    1.9228   11.5974 O   0  0  0  0  0  0  0  0  0  0  0  0
   18.6040    4.8057   12.0442 H   0  0  0  0  0  0  0  0  0  0  0  0
   21.1933    3.8780   11.6883 C   0  0  0  0  0  0  0  0  0  0  0  0
   20.9312    3.9090    9.2073 C   0  0  0  0  0  0  0  0  0  0  0  0
   22.9255    3.8880    7.7386 C   0  0  0  0  0  0  0  0  0  0  0  0
   21.7979    3.9001   10.3179 C   0  0  0  0  0  0  0  0  0  0  0  0
   21.5380    3.9082    7.9207 C   0  0  0  0  0  0  0  0  0  0  0  0
   23.7220    3.8687    8.8875 C   0  0  0  0  0  0  0  0  0  0  0  0
   23.1546    3.8717   10.1314 C   0  0  0  0  0  0  0  0  0  0  0  0
 16 15  2  0  0  0
 23 24  2  0  0  0
 23 20  1  0  0  0
 24 21  1  0  0  0
 15 18  1  0  0  0
 15 14  1  0  0  0
 20 22  2  0  0  0
 21 18  1  0  0  0
 21 19  2  0  0  0
 13 14  1  0  0  0
 13  6  1  0  0  0
 22 19  1  0  0  0
  6  5  2  0  0  0
  6  1  1  0  0  0
  5  4  1  0  0  0
  1  2  2  0  0  0
  4  3  2  0  0  0
  2  3  1  0  0  0
  3  8  1  0  0  0
  7  8  1  0  0  0
 10  8  2  0  0  0
  8  9  2  0  0  0
  7 11  1  0  0  0
  7 12  1  0  0  0
 14 17  1  0  0  0
M  END
> <minimizedAffinity>
-6.66851

$$$$
