4ITP_1GD_A_304
  RCSB PDB12061713043D
Coordinates from PDB:4ITP:A:304 Model:1 without hydrogens
 21 22  0  0  0  0            999 V2000
   20.5970    7.7900   13.4970   C 0  0  0  0  0  0  0  0  0  0  0  0
   20.7170   10.1170   14.3890   C 0  0  0  0  0  0  0  0  0  0  0  0
   19.5130   11.9570   13.2490   C 0  0  0  0  0  0  0  0  0  0  0  0
   17.8560    3.2110   14.7970   C 0  0  0  0  0  0  0  0  0  0  0  0
   17.3040    2.1500   15.5670   C 0  0  0  0  0  0  0  0  0  0  0  0
   15.8770   -0.6040   16.1330   N 0  0  0  0  0  0  0  0  0  0  0  0
   15.3050    0.7690   16.8700   S 0  0  0  0  0  0  0  0  0  0  0  0
   15.8070    0.8600   18.1860   O 0  0  0  0  0  0  0  0  0  0  0  0
   13.8790    0.7860   16.7150   O 0  0  0  0  0  0  0  0  0  0  0  0
   15.9480    2.0620   15.9240   C 0  0  0  0  0  0  0  0  0  0  0  0
   15.2010    3.1300   15.4790   C 0  0  0  0  0  0  0  0  0  0  0  0
   15.6850    4.1890   14.7300   C 0  0  0  0  0  0  0  0  0  0  0  0
   17.0150    4.2690   14.3800   C 0  0  0  0  0  0  0  0  0  0  0  0
   17.5950    5.3690   13.5200   C 0  0  0  0  0  0  0  0  0  0  0  0
   18.6730    6.2000   14.0770   N 0  0  0  0  0  0  0  0  0  0  0  0
   19.4410    6.8450   13.0770   C 0  0  0  0  0  0  0  0  0  0  0  0
   19.1950    6.7080   11.9160   O 0  0  0  0  0  0  0  0  0  0  0  0
   20.2340    9.2400   13.3980   C 0  0  0  0  0  0  0  0  0  0  0  0
   20.3360   11.4830   14.2770   C 0  0  0  0  0  0  0  0  0  0  0  0
   19.0630   11.0260   12.3080   C 0  0  0  0  0  0  0  0  0  0  0  0
   19.4220    9.7100   12.4000   C 0  0  0  0  0  0  0  0  0  0  0  0
 17 16  2  0  0  0  0
 20 21  2  0  0  0  0
 20  3  1  0  0  0  0
 21 18  1  0  0  0  0
 16  1  1  0  0  0  0
 16 15  1  0  0  0  0
  3 19  2  0  0  0  0
 18  1  1  0  0  0  0
 18  2  2  0  0  0  0
 14 15  1  0  0  0  0
 14 13  1  0  0  0  0
 19  2  1  0  0  0  0
 13 12  2  0  0  0  0
 13  4  1  0  0  0  0
 12 11  1  0  0  0  0
  4  5  2  0  0  0  0
 11 10  2  0  0  0  0
  5 10  1  0  0  0  0
 10  7  1  0  0  0  0
  6  7  1  0  0  0  0
  9  7  2  0  0  0  0
  7  8  2  0  0  0  0
A    1
C13
A    2
C15
A    3
C17
A    4
C20
A    5
C21
A    6
N1
A    7
S02
A    8
O3
A    9
O4
A   10
C5
A   11
C6
A   12
C7
A   13
C8
A   14
C9
A   15
N10
A   16
C11
A   17
O12
A   18
C14
A   19
C16
A   20
C18
A   21
C19
M  END
>  <InstanceId>
4ITP_1GD_A_304

>  <ChemCompId>
1GD

>  <PdbId>
4ITP

>  <ChainId>
A

>  <ResidueNumber>
304

>  <InsertionCode>


>  <Model>
1

>  <AltIds>


>  <MissingHeavyAtoms>
0

>  <ObservedFormula>
C15 N2 O3 S

>  <Name>
2-phenyl-N-(4-sulfamoylbenzyl)acetamide

>  <SystematicName>
2-phenyl-N-[(4-sulfamoylphenyl)methyl]ethanamide

>  <Synonyms>


>  <Type>
NON-POLYMER

>  <Formula>
C15 H16 N2 O3 S

>  <MolecularWeight>
304.364

>  <ModifiedDate>
2013-12-27

>  <Parent>


>  <OneLetterCode>


>  <SubcomponentList>


>  <AmbiguousFlag>
N

>  <InChI>
InChI=1S/C15H16N2O3S/c16-21(19,20)14-8-6-13(7-9-14)11-17-15(18)10-12-4-2-1-3-5-12/h1-9H,10-11H2,(H,17,18)(H2,16,19,20)

>  <InChIKey>
FTDLZZRRCJRQAA-UHFFFAOYSA-N

>  <SMILES>
c1ccc(cc1)CC(=O)NCc2ccc(cc2)S(=O)(=O)N

$$$$
