4Q19_2XL_A_301


 32 34  0  0  0  0  0  0  0  0999 V2000
  -32.6516   12.7913   -4.4266 C   0  0  0  0  0  0  0  0  0  0  0  0
  -31.9225   11.6795   -4.3440 N   0  0  0  0  0  0  0  0  0  0  0  0
  -31.7408   13.9138   -4.9527 S   0  0  0  0  0  0  0  0  0  0  0  0
  -30.4342   13.1508   -5.0952 C   0  0  0  0  0  0  0  0  0  0  0  0
  -30.6502   11.9026   -4.6982 C   0  0  0  0  0  0  0  0  0  0  0  0
  -36.6600   12.9376   -3.4362 C   0  0  0  0  0  0  0  0  0  0  0  0
  -36.1593   12.0329   -4.3854 C   0  0  0  0  0  0  0  0  0  0  0  0
  -34.8094   12.0054   -4.6937 C   0  0  0  0  0  0  0  0  0  0  0  0
  -36.9968   11.1443   -4.9843 O   0  0  0  0  0  0  0  0  0  0  0  0
  -35.7862   13.8229   -2.7919 C   0  0  0  0  0  0  0  0  0  0  0  0
  -34.4236   13.7910   -3.1175 C   0  0  0  0  0  0  0  0  0  0  0  0
  -33.9401   12.8870   -4.0916 C   0  0  0  0  0  0  0  0  0  0  0  0
  -37.9119   11.1540   -4.7832 H   0  0  0  0  0  0  0  0  0  0  0  0
  -38.8075   13.8870   -3.8562 C   0  0  0  0  0  0  0  0  0  0  0  0
  -38.0123   12.8855   -3.1843 O   0  0  0  0  0  0  0  0  0  0  0  0
  -29.1206   13.7769   -5.5999 C   0  0  0  0  0  0  0  0  0  0  0  0
  -29.1863   15.2673   -5.3761 C   0  0  0  0  0  0  0  0  0  0  0  0
  -28.4671   15.6026   -4.0473 C   0  0  0  0  0  0  0  0  0  0  0  0
  -29.6122   10.8159   -4.7213 C   0  0  0  0  0  0  0  0  0  0  0  0
  -28.7255   10.8569   -3.1193 S   0  0  0  0  0  0  0  0  0  0  0  0
  -27.0911   11.3114   -3.5511 C   0  0  0  0  0  0  0  0  0  0  0  0
  -26.2667   10.3537   -4.0686 N   0  0  0  0  0  0  0  0  0  0  0  0
  -26.6704   12.5548   -3.3403 N   0  0  0  0  0  0  0  0  0  0  0  0
  -25.3904   12.8669   -3.6791 C   0  0  0  0  0  0  0  0  0  0  0  0
  -24.9447   14.1066   -3.4950 N   0  0  0  0  0  0  0  0  0  0  0  0
  -24.5179   11.9018   -4.2016 C   0  0  0  0  0  0  0  0  0  0  0  0
  -24.9951   10.6036   -4.4112 C   0  0  0  0  0  0  0  0  0  0  0  0
  -24.2057    9.6171   -4.8997 N   0  0  0  0  0  0  0  0  0  0  0  0
  -24.0193   14.3382   -3.7384 H   0  0  0  0  0  0  0  0  0  0  0  0
  -25.5403   14.7925   -3.1154 H   0  0  0  0  0  0  0  0  0  0  0  0
  -23.2730    9.8107   -5.1486 H   0  0  0  0  0  0  0  0  0  0  0  0
  -24.5646    8.7065   -5.0060 H   0  0  0  0  0  0  0  0  0  0  0  0
 16 17  1  0  0  0
 16  4  1  0  0  0
 17 18  1  0  0  0
  3  4  1  0  0  0
  3  1  1  0  0  0
  4  5  2  0  0  0
 11 10  2  0  0  0
 11 12  1  0  0  0
 28 27  1  0  0  0
 14 15  1  0  0  0
 10  6  1  0  0  0
 27 26  2  0  0  0
 27 22  1  0  0  0
 26 24  1  0  0  0
  1 12  1  0  0  0
  1  2  2  0  0  0
 12  8  2  0  0  0
 22 21  2  0  0  0
 24 25  1  0  0  0
 24 23  2  0  0  0
  6 15  1  0  0  0
  6  7  2  0  0  0
 21 23  1  0  0  0
 21 20  1  0  0  0
  5  2  1  0  0  0
  5 19  1  0  0  0
 20 19  1  0  0  0
  8  7  1  0  0  0
  7  9  1  0  0  0
  9 13  1  0  0  0
 25 29  1  0  0  0
 25 30  1  0  0  0
 28 31  1  0  0  0
 28 32  1  0  0  0
M  END
> <minimizedAffinity>
-9.40057

$$$$
4Q19_2XL_A_301


 32 34  0  0  0  0  0  0  0  0999 V2000
  -32.6605   13.6203   -3.9254 C   0  0  0  0  0  0  0  0  0  0  0  0
  -31.8302   12.7798   -4.5407 N   0  0  0  0  0  0  0  0  0  0  0  0
  -31.8480   14.8532   -3.4937 S   0  0  0  0  0  0  0  0  0  0  0  0
  -30.4706   14.4527   -3.9958 C   0  0  0  0  0  0  0  0  0  0  0  0
  -30.5761   13.2501   -4.5480 C   0  0  0  0  0  0  0  0  0  0  0  0
  -36.6656   12.7856   -3.3495 C   0  0  0  0  0  0  0  0  0  0  0  0
  -35.8821   12.0776   -4.2742 C   0  0  0  0  0  0  0  0  0  0  0  0
  -34.5407   12.3783   -4.4423 C   0  0  0  0  0  0  0  0  0  0  0  0
  -36.4299   11.0579   -4.9883 O   0  0  0  0  0  0  0  0  0  0  0  0
  -36.0861   13.8077   -2.5866 C   0  0  0  0  0  0  0  0  0  0  0  0
  -34.7298   14.1081   -2.7708 C   0  0  0  0  0  0  0  0  0  0  0  0
  -33.9609   13.3983   -3.7220 C   0  0  0  0  0  0  0  0  0  0  0  0
  -37.3364   10.8458   -4.8824 H   0  0  0  0  0  0  0  0  0  0  0  0
  -38.9355   13.2905   -3.8805 C   0  0  0  0  0  0  0  0  0  0  0  0
  -37.9856   12.4102   -3.2406 O   0  0  0  0  0  0  0  0  0  0  0  0
  -29.2102   15.3248   -3.8437 C   0  0  0  0  0  0  0  0  0  0  0  0
  -29.4790   16.6659   -4.4799 C   0  0  0  0  0  0  0  0  0  0  0  0
  -29.1298   16.5810   -5.9853 C   0  0  0  0  0  0  0  0  0  0  0  0
  -29.4381   12.5154   -5.1990 C   0  0  0  0  0  0  0  0  0  0  0  0
  -28.8665   11.2249   -4.0319 S   0  0  0  0  0  0  0  0  0  0  0  0
  -27.1306   11.4433   -3.9757 C   0  0  0  0  0  0  0  0  0  0  0  0
  -26.6406   12.7079   -3.8171 N   0  0  0  0  0  0  0  0  0  0  0  0
  -26.3249   10.3957   -4.1209 N   0  0  0  0  0  0  0  0  0  0  0  0
  -24.9816   10.6072   -4.0821 C   0  0  0  0  0  0  0  0  0  0  0  0
  -24.1495    9.5771   -4.2086 N   0  0  0  0  0  0  0  0  0  0  0  0
  -24.4498   11.8956   -3.9319 C   0  0  0  0  0  0  0  0  0  0  0  0
  -25.3274   12.9745   -3.7807 C   0  0  0  0  0  0  0  0  0  0  0  0
  -24.8855   14.2478   -3.6447 N   0  0  0  0  0  0  0  0  0  0  0  0
  -23.1765    9.7241   -4.1813 H   0  0  0  0  0  0  0  0  0  0  0  0
  -24.5068    8.6677   -4.3296 H   0  0  0  0  0  0  0  0  0  0  0  0
  -23.9190   14.4333   -3.6190 H   0  0  0  0  0  0  0  0  0  0  0  0
  -25.5309   14.9877   -3.5715 H   0  0  0  0  0  0  0  0  0  0  0  0
 16 17  1  0  0  0
 16  4  1  0  0  0
 17 18  1  0  0  0
  3  4  1  0  0  0
  3  1  1  0  0  0
  4  5  2  0  0  0
 11 10  2  0  0  0
 11 12  1  0  0  0
 28 27  1  0  0  0
 14 15  1  0  0  0
 10  6  1  0  0  0
 27 26  2  0  0  0
 27 22  1  0  0  0
 26 24  1  0  0  0
  1 12  1  0  0  0
  1  2  2  0  0  0
 12  8  2  0  0  0
 22 21  2  0  0  0
 24 25  1  0  0  0
 24 23  2  0  0  0
  6 15  1  0  0  0
  6  7  2  0  0  0
 21 23  1  0  0  0
 21 20  1  0  0  0
  5  2  1  0  0  0
  5 19  1  0  0  0
 20 19  1  0  0  0
  8  7  1  0  0  0
  7  9  1  0  0  0
  9 13  1  0  0  0
 25 29  1  0  0  0
 25 30  1  0  0  0
 28 31  1  0  0  0
 28 32  1  0  0  0
M  END
> <minimizedAffinity>
-9.11978

$$$$
4Q19_2XL_A_301


 32 34  0  0  0  0  0  0  0  0999 V2000
  -28.4442   15.8243   -3.8900 C   0  0  0  0  0  0  0  0  0  0  0  0
  -28.3276   14.6462   -3.2792 N   0  0  0  0  0  0  0  0  0  0  0  0
  -29.7712   15.8221   -4.6681 S   0  0  0  0  0  0  0  0  0  0  0  0
  -30.2702   14.4249   -4.3383 C   0  0  0  0  0  0  0  0  0  0  0  0
  -29.3601   13.8429   -3.5668 C   0  0  0  0  0  0  0  0  0  0  0  0
  -25.6024   18.8063   -3.5721 C   0  0  0  0  0  0  0  0  0  0  0  0
  -26.0382   18.0703   -2.4592 C   0  0  0  0  0  0  0  0  0  0  0  0
  -26.9900   17.0739   -2.5982 C   0  0  0  0  0  0  0  0  0  0  0  0
  -25.4958   18.3061   -1.2345 O   0  0  0  0  0  0  0  0  0  0  0  0
  -26.1343   18.5311   -4.8385 C   0  0  0  0  0  0  0  0  0  0  0  0
  -27.1023   17.5258   -4.9657 C   0  0  0  0  0  0  0  0  0  0  0  0
  -27.5448   16.8087   -3.8301 C   0  0  0  0  0  0  0  0  0  0  0  0
  -24.8511   18.9777   -1.1290 H   0  0  0  0  0  0  0  0  0  0  0  0
  -23.2803   19.2941   -3.3279 C   0  0  0  0  0  0  0  0  0  0  0  0
  -24.6448   19.7682   -3.3420 O   0  0  0  0  0  0  0  0  0  0  0  0
  -31.5980   13.8394   -4.8543 C   0  0  0  0  0  0  0  0  0  0  0  0
  -32.6830   14.1693   -3.8595 C   0  0  0  0  0  0  0  0  0  0  0  0
  -33.6138   12.9414   -3.7135 C   0  0  0  0  0  0  0  0  0  0  0  0
  -29.4972   12.4610   -2.9919 C   0  0  0  0  0  0  0  0  0  0  0  0
  -28.8350   11.2766   -4.2219 S   0  0  0  0  0  0  0  0  0  0  0  0
  -27.0986   11.4514   -4.0863 C   0  0  0  0  0  0  0  0  0  0  0  0
  -26.5876   12.6977   -3.8625 N   0  0  0  0  0  0  0  0  0  0  0  0
  -26.3111   10.3906   -4.2354 N   0  0  0  0  0  0  0  0  0  0  0  0
  -24.9663   10.5685   -4.1336 C   0  0  0  0  0  0  0  0  0  0  0  0
  -24.1529    9.5239   -4.2623 N   0  0  0  0  0  0  0  0  0  0  0  0
  -24.4126   11.8379   -3.9157 C   0  0  0  0  0  0  0  0  0  0  0  0
  -25.2715   12.9315   -3.7624 C   0  0  0  0  0  0  0  0  0  0  0  0
  -24.8073   14.1884   -3.5629 N   0  0  0  0  0  0  0  0  0  0  0  0
  -23.1788    9.6466   -4.1896 H   0  0  0  0  0  0  0  0  0  0  0  0
  -24.5250    8.6280   -4.4303 H   0  0  0  0  0  0  0  0  0  0  0  0
  -23.8388   14.3498   -3.4907 H   0  0  0  0  0  0  0  0  0  0  0  0
  -25.4384   14.9405   -3.4901 H   0  0  0  0  0  0  0  0  0  0  0  0
 16 17  1  0  0  0
 16  4  1  0  0  0
 17 18  1  0  0  0
  3  4  1  0  0  0
  3  1  1  0  0  0
  4  5  2  0  0  0
 11 10  2  0  0  0
 11 12  1  0  0  0
 28 27  1  0  0  0
 14 15  1  0  0  0
 10  6  1  0  0  0
 27 26  2  0  0  0
 27 22  1  0  0  0
 26 24  1  0  0  0
  1 12  1  0  0  0
  1  2  2  0  0  0
 12  8  2  0  0  0
 22 21  2  0  0  0
 24 25  1  0  0  0
 24 23  2  0  0  0
  6 15  1  0  0  0
  6  7  2  0  0  0
 21 23  1  0  0  0
 21 20  1  0  0  0
  5  2  1  0  0  0
  5 19  1  0  0  0
 20 19  1  0  0  0
  8  7  1  0  0  0
  7  9  1  0  0  0
  9 13  1  0  0  0
 25 29  1  0  0  0
 25 30  1  0  0  0
 28 31  1  0  0  0
 28 32  1  0  0  0
M  END
> <minimizedAffinity>
-8.73166

$$$$
4Q19_2XL_A_301


 32 34  0  0  0  0  0  0  0  0999 V2000
  -29.1044   14.7183   -4.5786 C   0  0  0  0  0  0  0  0  0  0  0  0
  -30.4168   14.7423   -4.8056 N   0  0  0  0  0  0  0  0  0  0  0  0
  -28.6254   13.2651   -4.7382 S   0  0  0  0  0  0  0  0  0  0  0  0
  -29.9442   12.5854   -5.0676 C   0  0  0  0  0  0  0  0  0  0  0  0
  -30.8921   13.5148   -5.0531 C   0  0  0  0  0  0  0  0  0  0  0  0
  -26.9150   18.1012   -3.6667 C   0  0  0  0  0  0  0  0  0  0  0  0
  -27.7465   18.0333   -4.7955 C   0  0  0  0  0  0  0  0  0  0  0  0
  -28.4711   16.8860   -5.0729 C   0  0  0  0  0  0  0  0  0  0  0  0
  -27.8771   19.1156   -5.6088 O   0  0  0  0  0  0  0  0  0  0  0  0
  -26.8161   16.9977   -2.8094 C   0  0  0  0  0  0  0  0  0  0  0  0
  -27.5481   15.8397   -3.1044 C   0  0  0  0  0  0  0  0  0  0  0  0
  -28.3646   15.7818   -4.2575 C   0  0  0  0  0  0  0  0  0  0  0  0
  -27.3916   19.8969   -5.4305 H   0  0  0  0  0  0  0  0  0  0  0  0
  -25.9142   19.5835   -2.0885 C   0  0  0  0  0  0  0  0  0  0  0  0
  -26.2426   19.2850   -3.4633 O   0  0  0  0  0  0  0  0  0  0  0  0
  -30.0920   11.0770   -5.3418 C   0  0  0  0  0  0  0  0  0  0  0  0
  -30.4962   10.3966   -4.0575 C   0  0  0  0  0  0  0  0  0  0  0  0
  -29.2229   10.1041   -3.2278 C   0  0  0  0  0  0  0  0  0  0  0  0
  -32.3383   13.2530   -5.3674 C   0  0  0  0  0  0  0  0  0  0  0  0
  -33.3208   13.6995   -3.8877 S   0  0  0  0  0  0  0  0  0  0  0  0
  -34.4582   12.3795   -3.7202 C   0  0  0  0  0  0  0  0  0  0  0  0
  -34.1402   11.3519   -2.8791 N   0  0  0  0  0  0  0  0  0  0  0  0
  -35.5827   12.3784   -4.4295 N   0  0  0  0  0  0  0  0  0  0  0  0
  -36.4365   11.3299   -4.2799 C   0  0  0  0  0  0  0  0  0  0  0  0
  -37.5771   11.3076   -4.9639 N   0  0  0  0  0  0  0  0  0  0  0  0
  -36.1313   10.2556   -3.4324 C   0  0  0  0  0  0  0  0  0  0  0  0
  -34.9396   10.2908   -2.7005 C   0  0  0  0  0  0  0  0  0  0  0  0
  -34.5733    9.2826   -1.8733 N   0  0  0  0  0  0  0  0  0  0  0  0
  -38.1989   10.5514   -4.8596 H   0  0  0  0  0  0  0  0  0  0  0  0
  -37.7996   12.0472   -5.5744 H   0  0  0  0  0  0  0  0  0  0  0  0
  -35.1675    8.5075   -1.7488 H   0  0  0  0  0  0  0  0  0  0  0  0
  -33.7130    9.3249   -1.3966 H   0  0  0  0  0  0  0  0  0  0  0  0
 16 17  1  0  0  0
 16  4  1  0  0  0
 17 18  1  0  0  0
  3  4  1  0  0  0
  3  1  1  0  0  0
  4  5  2  0  0  0
 11 10  2  0  0  0
 11 12  1  0  0  0
 28 27  1  0  0  0
 14 15  1  0  0  0
 10  6  1  0  0  0
 27 26  2  0  0  0
 27 22  1  0  0  0
 26 24  1  0  0  0
  1 12  1  0  0  0
  1  2  2  0  0  0
 12  8  2  0  0  0
 22 21  2  0  0  0
 24 25  1  0  0  0
 24 23  2  0  0  0
  6 15  1  0  0  0
  6  7  2  0  0  0
 21 23  1  0  0  0
 21 20  1  0  0  0
  5  2  1  0  0  0
  5 19  1  0  0  0
 20 19  1  0  0  0
  8  7  1  0  0  0
  7  9  1  0  0  0
  9 13  1  0  0  0
 25 29  1  0  0  0
 25 30  1  0  0  0
 28 31  1  0  0  0
 28 32  1  0  0  0
M  END
> <minimizedAffinity>
-8.54257

$$$$
4Q19_2XL_A_301


 32 34  0  0  0  0  0  0  0  0999 V2000
  -26.9423   13.9258   -3.8316 C   0  0  0  0  0  0  0  0  0  0  0  0
  -28.1598   14.1277   -4.3328 N   0  0  0  0  0  0  0  0  0  0  0  0
  -26.4869   15.2326   -3.1598 S   0  0  0  0  0  0  0  0  0  0  0  0
  -27.6958   16.1102   -3.4392 C   0  0  0  0  0  0  0  0  0  0  0  0
  -28.5682   15.3873   -4.1310 C   0  0  0  0  0  0  0  0  0  0  0  0
  -24.7124   10.4529   -4.0209 C   0  0  0  0  0  0  0  0  0  0  0  0
  -24.1343   11.6938   -3.7111 C   0  0  0  0  0  0  0  0  0  0  0  0
  -24.9090   12.8404   -3.6516 C   0  0  0  0  0  0  0  0  0  0  0  0
  -22.8067   11.7725   -3.4267 O   0  0  0  0  0  0  0  0  0  0  0  0
  -26.0881   10.3708   -4.2724 C   0  0  0  0  0  0  0  0  0  0  0  0
  -26.8604   11.5388   -4.2169 C   0  0  0  0  0  0  0  0  0  0  0  0
  -26.2574   12.7838   -3.9237 C   0  0  0  0  0  0  0  0  0  0  0  0
  -22.2732   11.0030   -3.4639 H   0  0  0  0  0  0  0  0  0  0  0  0
  -23.5123    8.8864   -5.3608 C   0  0  0  0  0  0  0  0  0  0  0  0
  -23.8685    9.3656   -4.0453 O   0  0  0  0  0  0  0  0  0  0  0  0
  -27.8186   17.5778   -2.9884 C   0  0  0  0  0  0  0  0  0  0  0  0
  -26.5022   18.2676   -3.2470 C   0  0  0  0  0  0  0  0  0  0  0  0
  -25.8867   18.6885   -1.8907 C   0  0  0  0  0  0  0  0  0  0  0  0
  -29.9164   15.8835   -4.5727 C   0  0  0  0  0  0  0  0  0  0  0  0
  -31.1324   15.4162   -3.2853 S   0  0  0  0  0  0  0  0  0  0  0  0
  -31.7181   13.8503   -3.8041 C   0  0  0  0  0  0  0  0  0  0  0  0
  -30.9435   12.7534   -3.5567 N   0  0  0  0  0  0  0  0  0  0  0  0
  -32.8749   13.7560   -4.4527 N   0  0  0  0  0  0  0  0  0  0  0  0
  -33.2913   12.5231   -4.8490 C   0  0  0  0  0  0  0  0  0  0  0  0
  -34.4518   12.3941   -5.4862 N   0  0  0  0  0  0  0  0  0  0  0  0
  -32.5119   11.3808   -4.6190 C   0  0  0  0  0  0  0  0  0  0  0  0
  -31.3007   11.5173   -3.9324 C   0  0  0  0  0  0  0  0  0  0  0  0
  -30.4899   10.4602   -3.6866 N   0  0  0  0  0  0  0  0  0  0  0  0
  -34.7584   11.5044   -5.7754 H   0  0  0  0  0  0  0  0  0  0  0  0
  -35.0042   13.1884   -5.6686 H   0  0  0  0  0  0  0  0  0  0  0  0
  -30.7613    9.5562   -3.9665 H   0  0  0  0  0  0  0  0  0  0  0  0
  -29.6294   10.5960   -3.2280 H   0  0  0  0  0  0  0  0  0  0  0  0
 16 17  1  0  0  0
 16  4  1  0  0  0
 17 18  1  0  0  0
  3  4  1  0  0  0
  3  1  1  0  0  0
  4  5  2  0  0  0
 11 10  2  0  0  0
 11 12  1  0  0  0
 28 27  1  0  0  0
 14 15  1  0  0  0
 10  6  1  0  0  0
 27 26  2  0  0  0
 27 22  1  0  0  0
 26 24  1  0  0  0
  1 12  1  0  0  0
  1  2  2  0  0  0
 12  8  2  0  0  0
 22 21  2  0  0  0
 24 25  1  0  0  0
 24 23  2  0  0  0
  6 15  1  0  0  0
  6  7  2  0  0  0
 21 23  1  0  0  0
 21 20  1  0  0  0
  5  2  1  0  0  0
  5 19  1  0  0  0
 20 19  1  0  0  0
  8  7  1  0  0  0
  7  9  1  0  0  0
  9 13  1  0  0  0
 25 29  1  0  0  0
 25 30  1  0  0  0
 28 31  1  0  0  0
 28 32  1  0  0  0
M  END
> <minimizedAffinity>
-8.51015

$$$$
4Q19_2XL_A_301


 32 34  0  0  0  0  0  0  0  0999 V2000
  -29.4587   12.2193   -4.3048 C   0  0  0  0  0  0  0  0  0  0  0  0
  -28.6893   13.2776   -4.0547 N   0  0  0  0  0  0  0  0  0  0  0  0
  -28.5701   10.9652   -4.2398 S   0  0  0  0  0  0  0  0  0  0  0  0
  -27.2277   11.6066   -3.9292 C   0  0  0  0  0  0  0  0  0  0  0  0
  -27.4114   12.9202   -3.8726 C   0  0  0  0  0  0  0  0  0  0  0  0
  -33.5312   12.3315   -4.9911 C   0  0  0  0  0  0  0  0  0  0  0  0
  -32.9668   11.5328   -3.9843 C   0  0  0  0  0  0  0  0  0  0  0  0
  -31.5976   11.5192   -3.7760 C   0  0  0  0  0  0  0  0  0  0  0  0
  -33.7702   10.7916   -3.1751 O   0  0  0  0  0  0  0  0  0  0  0  0
  -32.7024   13.1249   -5.7949 C   0  0  0  0  0  0  0  0  0  0  0  0
  -31.3179   13.0971   -5.5799 C   0  0  0  0  0  0  0  0  0  0  0  0
  -30.7649   12.2704   -4.5746 C   0  0  0  0  0  0  0  0  0  0  0  0
  -34.6979   10.7935   -3.3071 H   0  0  0  0  0  0  0  0  0  0  0  0
  -35.6383   13.0331   -4.1208 C   0  0  0  0  0  0  0  0  0  0  0  0
  -34.9014   12.2916   -5.1178 O   0  0  0  0  0  0  0  0  0  0  0  0
  -25.9179   10.8182   -3.7425 C   0  0  0  0  0  0  0  0  0  0  0  0
  -25.2038   10.7592   -5.0701 C   0  0  0  0  0  0  0  0  0  0  0  0
  -23.7080   11.0867   -4.8450 C   0  0  0  0  0  0  0  0  0  0  0  0
  -26.3297   13.9125   -3.5500 C   0  0  0  0  0  0  0  0  0  0  0  0
  -26.9074   14.9296   -2.1408 S   0  0  0  0  0  0  0  0  0  0  0  0
  -26.7882   16.5742   -2.7283 C   0  0  0  0  0  0  0  0  0  0  0  0
  -26.1522   17.4972   -1.9485 N   0  0  0  0  0  0  0  0  0  0  0  0
  -27.3405   16.9050   -3.8916 N   0  0  0  0  0  0  0  0  0  0  0  0
  -27.2359   18.1955   -4.3093 C   0  0  0  0  0  0  0  0  0  0  0  0
  -27.7643   18.5541   -5.4761 N   0  0  0  0  0  0  0  0  0  0  0  0
  -26.5987   19.1670   -3.5247 C   0  0  0  0  0  0  0  0  0  0  0  0
  -26.0280   18.7829   -2.3067 C   0  0  0  0  0  0  0  0  0  0  0  0
  -25.4088   19.6696   -1.4909 N   0  0  0  0  0  0  0  0  0  0  0  0
  -27.6918   19.4865   -5.7836 H   0  0  0  0  0  0  0  0  0  0  0  0
  -28.2280   17.8870   -6.0323 H   0  0  0  0  0  0  0  0  0  0  0  0
  -25.3226   20.6118   -1.7630 H   0  0  0  0  0  0  0  0  0  0  0  0
  -25.0450   19.3718   -0.6259 H   0  0  0  0  0  0  0  0  0  0  0  0
 16 17  1  0  0  0
 16  4  1  0  0  0
 17 18  1  0  0  0
  3  4  1  0  0  0
  3  1  1  0  0  0
  4  5  2  0  0  0
 11 10  2  0  0  0
 11 12  1  0  0  0
 28 27  1  0  0  0
 14 15  1  0  0  0
 10  6  1  0  0  0
 27 26  2  0  0  0
 27 22  1  0  0  0
 26 24  1  0  0  0
  1 12  1  0  0  0
  1  2  2  0  0  0
 12  8  2  0  0  0
 22 21  2  0  0  0
 24 25  1  0  0  0
 24 23  2  0  0  0
  6 15  1  0  0  0
  6  7  2  0  0  0
 21 23  1  0  0  0
 21 20  1  0  0  0
  5  2  1  0  0  0
  5 19  1  0  0  0
 20 19  1  0  0  0
  8  7  1  0  0  0
  7  9  1  0  0  0
  9 13  1  0  0  0
 25 29  1  0  0  0
 25 30  1  0  0  0
 28 31  1  0  0  0
 28 32  1  0  0  0
M  END
> <minimizedAffinity>
-8.34047

$$$$
4Q19_2XL_A_301


 32 34  0  0  0  0  0  0  0  0999 V2000
  -32.7915   12.5921   -4.3607 C   0  0  0  0  0  0  0  0  0  0  0  0
  -31.9554   13.4695   -4.9138 N   0  0  0  0  0  0  0  0  0  0  0  0
  -31.9991   11.3064   -4.0683 S   0  0  0  0  0  0  0  0  0  0  0  0
  -30.6318   11.7117   -4.5937 C   0  0  0  0  0  0  0  0  0  0  0  0
  -30.7325   12.9463   -5.0712 C   0  0  0  0  0  0  0  0  0  0  0  0
  -36.8303   13.1258   -3.6734 C   0  0  0  0  0  0  0  0  0  0  0  0
  -36.3451   12.1154   -4.5183 C   0  0  0  0  0  0  0  0  0  0  0  0
  -34.9848   11.9592   -4.7262 C   0  0  0  0  0  0  0  0  0  0  0  0
  -37.2123   11.2520   -5.1119 O   0  0  0  0  0  0  0  0  0  0  0  0
  -35.9302   13.9864   -3.0317 C   0  0  0  0  0  0  0  0  0  0  0  0
  -34.5565   13.8236   -3.2557 C   0  0  0  0  0  0  0  0  0  0  0  0
  -34.0868   12.8134   -4.1266 C   0  0  0  0  0  0  0  0  0  0  0  0
  -38.1347   11.3485   -4.9781 H   0  0  0  0  0  0  0  0  0  0  0  0
  -38.6637   14.2419   -2.6331 C   0  0  0  0  0  0  0  0  0  0  0  0
  -38.1959   13.1987   -3.5161 O   0  0  0  0  0  0  0  0  0  0  0  0
  -29.3918   10.7986   -4.5653 C   0  0  0  0  0  0  0  0  0  0  0  0
  -28.6161   11.0873   -3.3041 C   0  0  0  0  0  0  0  0  0  0  0  0
  -27.1874   11.5390   -3.6915 C   0  0  0  0  0  0  0  0  0  0  0  0
  -29.5851   13.7258   -5.6495 C   0  0  0  0  0  0  0  0  0  0  0  0
  -29.9638   15.5067   -5.4511 S   0  0  0  0  0  0  0  0  0  0  0  0
  -28.7349   16.0805   -4.3445 C   0  0  0  0  0  0  0  0  0  0  0  0
  -28.3733   17.3960   -4.4020 N   0  0  0  0  0  0  0  0  0  0  0  0
  -28.1544   15.2334   -3.5001 N   0  0  0  0  0  0  0  0  0  0  0  0
  -27.1962   15.7150   -2.6631 C   0  0  0  0  0  0  0  0  0  0  0  0
  -26.6080   14.8957   -1.7958 N   0  0  0  0  0  0  0  0  0  0  0  0
  -26.7965   17.0581   -2.7073 C   0  0  0  0  0  0  0  0  0  0  0  0
  -27.4299   17.9213   -3.6077 C   0  0  0  0  0  0  0  0  0  0  0  0
  -27.0865   19.2273   -3.7150 N   0  0  0  0  0  0  0  0  0  0  0  0
  -25.9139   15.2385   -1.1876 H   0  0  0  0  0  0  0  0  0  0  0  0
  -26.8668   13.9464   -1.7622 H   0  0  0  0  0  0  0  0  0  0  0  0
  -26.3923   19.6036   -3.1270 H   0  0  0  0  0  0  0  0  0  0  0  0
  -27.5311   19.8000   -4.3810 H   0  0  0  0  0  0  0  0  0  0  0  0
 16 17  1  0  0  0
 16  4  1  0  0  0
 17 18  1  0  0  0
  3  4  1  0  0  0
  3  1  1  0  0  0
  4  5  2  0  0  0
 11 10  2  0  0  0
 11 12  1  0  0  0
 28 27  1  0  0  0
 14 15  1  0  0  0
 10  6  1  0  0  0
 27 26  2  0  0  0
 27 22  1  0  0  0
 26 24  1  0  0  0
  1 12  1  0  0  0
  1  2  2  0  0  0
 12  8  2  0  0  0
 22 21  2  0  0  0
 24 25  1  0  0  0
 24 23  2  0  0  0
  6 15  1  0  0  0
  6  7  2  0  0  0
 21 23  1  0  0  0
 21 20  1  0  0  0
  5  2  1  0  0  0
  5 19  1  0  0  0
 20 19  1  0  0  0
  8  7  1  0  0  0
  7  9  1  0  0  0
  9 13  1  0  0  0
 25 29  1  0  0  0
 25 30  1  0  0  0
 28 31  1  0  0  0
 28 32  1  0  0  0
M  END
> <minimizedAffinity>
-8.24656

$$$$
4Q19_2XL_A_301


 32 34  0  0  0  0  0  0  0  0999 V2000
  -29.0280   12.3758   -4.0545 C   0  0  0  0  0  0  0  0  0  0  0  0
  -29.6127   13.5642   -3.9124 N   0  0  0  0  0  0  0  0  0  0  0  0
  -30.1371   11.3190   -4.1944 S   0  0  0  0  0  0  0  0  0  0  0  0
  -31.3656   12.2062   -4.0784 C   0  0  0  0  0  0  0  0  0  0  0  0
  -30.9474   13.4529   -3.8959 C   0  0  0  0  0  0  0  0  0  0  0  0
  -24.9290   11.8645   -3.9773 C   0  0  0  0  0  0  0  0  0  0  0  0
  -25.5264   13.1234   -3.8088 C   0  0  0  0  0  0  0  0  0  0  0  0
  -26.9041   13.2624   -3.8361 C   0  0  0  0  0  0  0  0  0  0  0  0
  -24.7519   14.2171   -3.5769 O   0  0  0  0  0  0  0  0  0  0  0  0
  -25.7334   10.7347   -4.1746 C   0  0  0  0  0  0  0  0  0  0  0  0
  -27.1259   10.8887   -4.2079 C   0  0  0  0  0  0  0  0  0  0  0  0
  -27.7095   12.1679   -4.0573 C   0  0  0  0  0  0  0  0  0  0  0  0
  -23.8188   14.1345   -3.5563 H   0  0  0  0  0  0  0  0  0  0  0  0
  -22.9105   11.1697   -5.0414 C   0  0  0  0  0  0  0  0  0  0  0  0
  -23.5542   11.8193   -3.9232 O   0  0  0  0  0  0  0  0  0  0  0  0
  -32.8139   11.6872   -4.1496 C   0  0  0  0  0  0  0  0  0  0  0  0
  -33.5100   12.3731   -5.2989 C   0  0  0  0  0  0  0  0  0  0  0  0
  -35.0282   12.4228   -5.0022 C   0  0  0  0  0  0  0  0  0  0  0  0
  -31.8590   14.6413   -3.7720 C   0  0  0  0  0  0  0  0  0  0  0  0
  -31.0088   15.8916   -2.7385 S   0  0  0  0  0  0  0  0  0  0  0  0
  -29.8478   16.6219   -3.8261 C   0  0  0  0  0  0  0  0  0  0  0  0
  -28.5260   16.5821   -3.4860 N   0  0  0  0  0  0  0  0  0  0  0  0
  -30.2655   17.2266   -4.9340 N   0  0  0  0  0  0  0  0  0  0  0  0
  -29.3339   17.7916   -5.7486 C   0  0  0  0  0  0  0  0  0  0  0  0
  -29.7190   18.3902   -6.8724 N   0  0  0  0  0  0  0  0  0  0  0  0
  -27.9712   17.7762   -5.4196 C   0  0  0  0  0  0  0  0  0  0  0  0
  -27.5676   17.1298   -4.2464 C   0  0  0  0  0  0  0  0  0  0  0  0
  -26.2704   17.0869   -3.8585 N   0  0  0  0  0  0  0  0  0  0  0  0
  -29.0493   18.8008   -7.4658 H   0  0  0  0  0  0  0  0  0  0  0  0
  -30.6737   18.4226   -7.1106 H   0  0  0  0  0  0  0  0  0  0  0  0
  -25.5738   17.4921   -4.4241 H   0  0  0  0  0  0  0  0  0  0  0  0
  -26.0242   16.6505   -3.0111 H   0  0  0  0  0  0  0  0  0  0  0  0
 16 17  1  0  0  0
 16  4  1  0  0  0
 17 18  1  0  0  0
  3  4  1  0  0  0
  3  1  1  0  0  0
  4  5  2  0  0  0
 11 10  2  0  0  0
 11 12  1  0  0  0
 28 27  1  0  0  0
 14 15  1  0  0  0
 10  6  1  0  0  0
 27 26  2  0  0  0
 27 22  1  0  0  0
 26 24  1  0  0  0
  1 12  1  0  0  0
  1  2  2  0  0  0
 12  8  2  0  0  0
 22 21  2  0  0  0
 24 25  1  0  0  0
 24 23  2  0  0  0
  6 15  1  0  0  0
  6  7  2  0  0  0
 21 23  1  0  0  0
 21 20  1  0  0  0
  5  2  1  0  0  0
  5 19  1  0  0  0
 20 19  1  0  0  0
  8  7  1  0  0  0
  7  9  1  0  0  0
  9 13  1  0  0  0
 25 29  1  0  0  0
 25 30  1  0  0  0
 28 31  1  0  0  0
 28 32  1  0  0  0
M  END
> <minimizedAffinity>
-8.17173

$$$$
4Q19_2XL_A_301


 32 34  0  0  0  0  0  0  0  0999 V2000
  -27.6160   13.6570   -3.8001 C   0  0  0  0  0  0  0  0  0  0  0  0
  -28.9351   13.4979   -3.7051 N   0  0  0  0  0  0  0  0  0  0  0  0
  -27.3225   15.1671   -3.7987 S   0  0  0  0  0  0  0  0  0  0  0  0
  -28.7377   15.7126   -3.7023 C   0  0  0  0  0  0  0  0  0  0  0  0
  -29.5687   14.6777   -3.6814 C   0  0  0  0  0  0  0  0  0  0  0  0
  -24.7831   10.6552   -3.9839 C   0  0  0  0  0  0  0  0  0  0  0  0
  -24.4548   11.9682   -3.6117 C   0  0  0  0  0  0  0  0  0  0  0  0
  -25.4277   12.9523   -3.5559 C   0  0  0  0  0  0  0  0  0  0  0  0
  -23.1767   12.2757   -3.2630 O   0  0  0  0  0  0  0  0  0  0  0  0
  -26.1091   10.3344   -4.3022 C   0  0  0  0  0  0  0  0  0  0  0  0
  -27.0835   11.3402   -4.2495 C   0  0  0  0  0  0  0  0  0  0  0  0
  -26.7307   12.6623   -3.8927 C   0  0  0  0  0  0  0  0  0  0  0  0
  -22.5105   11.6176   -3.2971 H   0  0  0  0  0  0  0  0  0  0  0  0
  -23.5994    9.0029   -5.2321 C   0  0  0  0  0  0  0  0  0  0  0  0
  -23.7545    9.7405   -3.9998 O   0  0  0  0  0  0  0  0  0  0  0  0
  -29.0822   17.2132   -3.6588 C   0  0  0  0  0  0  0  0  0  0  0  0
  -28.4426   17.8837   -4.8492 C   0  0  0  0  0  0  0  0  0  0  0  0
  -29.2451   17.5125   -6.1195 C   0  0  0  0  0  0  0  0  0  0  0  0
  -31.0617   14.7941   -3.5539 C   0  0  0  0  0  0  0  0  0  0  0  0
  -31.8162   13.5913   -4.7107 S   0  0  0  0  0  0  0  0  0  0  0  0
  -33.2198   12.9980   -3.8493 C   0  0  0  0  0  0  0  0  0  0  0  0
  -34.1692   13.8980   -3.4580 N   0  0  0  0  0  0  0  0  0  0  0  0
  -33.3240   11.7041   -3.5616 N   0  0  0  0  0  0  0  0  0  0  0  0
  -34.4244   11.2830   -2.8816 C   0  0  0  0  0  0  0  0  0  0  0  0
  -34.5652    9.9923   -2.5927 N   0  0  0  0  0  0  0  0  0  0  0  0
  -35.4096   12.1856   -2.4572 C   0  0  0  0  0  0  0  0  0  0  0  0
  -35.2677   13.5397   -2.7786 C   0  0  0  0  0  0  0  0  0  0  0  0
  -36.1727   14.4700   -2.3901 N   0  0  0  0  0  0  0  0  0  0  0  0
  -35.3594    9.6817   -2.1008 H   0  0  0  0  0  0  0  0  0  0  0  0
  -33.8751    9.3475   -2.8708 H   0  0  0  0  0  0  0  0  0  0  0  0
  -36.9764   14.1968   -1.8915 H   0  0  0  0  0  0  0  0  0  0  0  0
  -36.0266   15.4193   -2.6064 H   0  0  0  0  0  0  0  0  0  0  0  0
 16 17  1  0  0  0
 16  4  1  0  0  0
 17 18  1  0  0  0
  3  4  1  0  0  0
  3  1  1  0  0  0
  4  5  2  0  0  0
 11 10  2  0  0  0
 11 12  1  0  0  0
 28 27  1  0  0  0
 14 15  1  0  0  0
 10  6  1  0  0  0
 27 26  2  0  0  0
 27 22  1  0  0  0
 26 24  1  0  0  0
  1 12  1  0  0  0
  1  2  2  0  0  0
 12  8  2  0  0  0
 22 21  2  0  0  0
 24 25  1  0  0  0
 24 23  2  0  0  0
  6 15  1  0  0  0
  6  7  2  0  0  0
 21 23  1  0  0  0
 21 20  1  0  0  0
  5  2  1  0  0  0
  5 19  1  0  0  0
 20 19  1  0  0  0
  8  7  1  0  0  0
  7  9  1  0  0  0
  9 13  1  0  0  0
 25 29  1  0  0  0
 25 30  1  0  0  0
 28 31  1  0  0  0
 28 32  1  0  0  0
M  END
> <minimizedAffinity>
-8.13744

$$$$
4Q19_2XL_A_301


 32 34  0  0  0  0  0  0  0  0999 V2000
  -33.2068   12.8537   -4.1419 C   0  0  0  0  0  0  0  0  0  0  0  0
  -32.2687   13.7702   -4.3752 N   0  0  0  0  0  0  0  0  0  0  0  0
  -32.5611   11.4669   -4.3044 S   0  0  0  0  0  0  0  0  0  0  0  0
  -31.1447   11.8752   -4.6744 C   0  0  0  0  0  0  0  0  0  0  0  0
  -31.1028   13.2016   -4.7090 C   0  0  0  0  0  0  0  0  0  0  0  0
  -37.1819   13.5388   -3.2482 C   0  0  0  0  0  0  0  0  0  0  0  0
  -36.7859   12.5961   -4.2097 C   0  0  0  0  0  0  0  0  0  0  0  0
  -35.4448   12.3862   -4.4848 C   0  0  0  0  0  0  0  0  0  0  0  0
  -37.7220   11.8491   -4.8541 O   0  0  0  0  0  0  0  0  0  0  0  0
  -36.2115   14.2763   -2.5575 C   0  0  0  0  0  0  0  0  0  0  0  0
  -34.8580   14.0608   -2.8498 C   0  0  0  0  0  0  0  0  0  0  0  0
  -34.4782   13.1217   -3.8366 C   0  0  0  0  0  0  0  0  0  0  0  0
  -38.6321   11.9827   -4.6756 H   0  0  0  0  0  0  0  0  0  0  0  0
  -39.1725   14.7580   -3.7386 C   0  0  0  0  0  0  0  0  0  0  0  0
  -38.5348   13.6715   -3.0316 O   0  0  0  0  0  0  0  0  0  0  0  0
  -30.0076   10.8775   -4.9642 C   0  0  0  0  0  0  0  0  0  0  0  0
  -29.3789   10.4773   -3.6526 C   0  0  0  0  0  0  0  0  0  0  0  0
  -27.9015   10.9385   -3.6482 C   0  0  0  0  0  0  0  0  0  0  0  0
  -29.8646   14.0015   -5.0014 C   0  0  0  0  0  0  0  0  0  0  0  0
  -28.9983   14.2897   -3.4138 S   0  0  0  0  0  0  0  0  0  0  0  0
  -28.2999   15.8845   -3.5955 C   0  0  0  0  0  0  0  0  0  0  0  0
  -28.6301   16.6152   -4.7007 N   0  0  0  0  0  0  0  0  0  0  0  0
  -27.4437   16.3416   -2.6869 N   0  0  0  0  0  0  0  0  0  0  0  0
  -26.9140   17.5813   -2.8685 C   0  0  0  0  0  0  0  0  0  0  0  0
  -26.0665   18.0729   -1.9688 N   0  0  0  0  0  0  0  0  0  0  0  0
  -27.2258   18.3496   -3.9990 C   0  0  0  0  0  0  0  0  0  0  0  0
  -28.1315   17.8374   -4.9341 C   0  0  0  0  0  0  0  0  0  0  0  0
  -28.4690   18.5175   -6.0560 N   0  0  0  0  0  0  0  0  0  0  0  0
  -25.6800   18.9695   -2.0949 H   0  0  0  0  0  0  0  0  0  0  0  0
  -25.8258   17.5401   -1.1767 H   0  0  0  0  0  0  0  0  0  0  0  0
  -28.0974   19.4146   -6.2184 H   0  0  0  0  0  0  0  0  0  0  0  0
  -29.0858   18.1146   -6.7091 H   0  0  0  0  0  0  0  0  0  0  0  0
 16 17  1  0  0  0
 16  4  1  0  0  0
 17 18  1  0  0  0
  3  4  1  0  0  0
  3  1  1  0  0  0
  4  5  2  0  0  0
 11 10  2  0  0  0
 11 12  1  0  0  0
 28 27  1  0  0  0
 14 15  1  0  0  0
 10  6  1  0  0  0
 27 26  2  0  0  0
 27 22  1  0  0  0
 26 24  1  0  0  0
  1 12  1  0  0  0
  1  2  2  0  0  0
 12  8  2  0  0  0
 22 21  2  0  0  0
 24 25  1  0  0  0
 24 23  2  0  0  0
  6 15  1  0  0  0
  6  7  2  0  0  0
 21 23  1  0  0  0
 21 20  1  0  0  0
  5  2  1  0  0  0
  5 19  1  0  0  0
 20 19  1  0  0  0
  8  7  1  0  0  0
  7  9  1  0  0  0
  9 13  1  0  0  0
 25 29  1  0  0  0
 25 30  1  0  0  0
 28 31  1  0  0  0
 28 32  1  0  0  0
M  END
> <minimizedAffinity>
-8.12120

$$$$
