5EHR_5OD_A_601


 27 29  0  0  0  0  0  0  0  0999 V2000
   21.0859   40.6780    4.8820 C   0  0  0  0  0  0  0  0  0  0  0  0
   22.2986   41.9243    3.3025 C   0  0  0  0  0  0  0  0  0  0  0  0
   21.1466   41.6613    3.9434 N   0  0  0  0  0  0  0  0  0  0  0  0
   23.4398   41.1276    3.5165 C   0  0  0  0  0  0  0  0  0  0  0  0
   23.3782   40.1475    4.4671 N   0  0  0  0  0  0  0  0  0  0  0  0
   22.2327   39.8870    5.1439 C   0  0  0  0  0  0  0  0  0  0  0  0
   22.2548   38.8702    6.0367 N   0  0  0  0  0  0  0  0  0  0  0  0
   23.0823   38.3554    6.1761 H   0  0  0  0  0  0  0  0  0  0  0  0
   21.4433   38.6454    6.5469 H   0  0  0  0  0  0  0  0  0  0  0  0
   26.9058   41.0053    3.5399 C   0  0  0  0  0  0  0  0  0  0  0  0
   27.3093   42.4338    2.9924 C   0  0  0  0  0  0  0  0  0  0  0  0
   26.0453   43.3559    2.8940 C   0  0  0  0  0  0  0  0  0  0  0  0
   24.8289   42.6909    2.1984 C   0  0  0  0  0  0  0  0  0  0  0  0
   27.9991   42.3180    1.6037 C   0  0  0  0  0  0  0  0  0  0  0  0
   24.6046   41.3825    2.8496 N   0  0  0  0  0  0  0  0  0  0  0  0
   25.6792   40.4025    2.7868 C   0  0  0  0  0  0  0  0  0  0  0  0
   28.3140   43.0329    3.8979 N   0  0  0  0  0  0  0  0  0  0  0  0
   28.5784   43.9546    3.5501 H   0  0  0  0  0  0  0  0  0  0  0  0
   29.1387   42.4338    3.9345 H   0  0  0  0  0  0  0  0  0  0  0  0
   19.4845   40.7511    6.8265 C   0  0  0  0  0  0  0  0  0  0  0  0
   18.1995   40.5731    7.3534 C   0  0  0  0  0  0  0  0  0  0  0  0
   17.1520   40.0944    6.5390 C   0  0  0  0  0  0  0  0  0  0  0  0
   17.4147   39.7493    5.1966 C   0  0  0  0  0  0  0  0  0  0  0  0
   18.6994   39.9719    4.6625 C   0  0  0  0  0  0  0  0  0  0  0  0
   19.7424   40.4717    5.4809 C   0  0  0  0  0  0  0  0  0  0  0  0
   20.7268   41.4189    7.8332 Cl  0  0  0  0  0  0  0  0  0  0  0  0
   17.9097   41.0041    9.0193 Cl  0  0  0  0  0  0  0  0  0  0  0  0
 14 11  1  0  0  0
 13 12  1  0  0  0
 13 15  1  0  0  0
 12 11  1  0  0  0
 15 16  1  0  0  0
 15  4  1  0  0  0
 11 10  1  0  0  0
 11 17  1  0  0  0
 16 10  1  0  0  0
  2  4  2  0  0  0
  2  3  1  0  0  0
  4  5  1  0  0  0
  3  1  2  0  0  0
  5  6  2  0  0  0
 24 23  2  0  0  0
 24 25  1  0  0  0
  1  6  1  0  0  0
  1 25  1  0  0  0
 23 22  1  0  0  0
  6  7  1  0  0  0
 25 20  2  0  0  0
 22 21  2  0  0  0
 20 21  1  0  0  0
 20 26  1  0  0  0
 21 27  1  0  0  0
  7  8  1  0  0  0
  7  9  1  0  0  0
 17 18  1  0  0  0
 17 19  1  0  0  0
M  END
> <minimizedAffinity>
-11.03663

$$$$
5EHR_5OD_A_601


 27 29  0  0  0  0  0  0  0  0999 V2000
   21.3704   40.8221    5.5758 C   0  0  0  0  0  0  0  0  0  0  0  0
   22.4364   42.0844    3.9057 C   0  0  0  0  0  0  0  0  0  0  0  0
   21.4219   41.9189    4.7721 N   0  0  0  0  0  0  0  0  0  0  0  0
   23.4135   41.0839    3.7414 C   0  0  0  0  0  0  0  0  0  0  0  0
   23.3643   39.9883    4.5572 N   0  0  0  0  0  0  0  0  0  0  0  0
   22.3644   39.8185    5.4568 C   0  0  0  0  0  0  0  0  0  0  0  0
   22.3753   38.6825    6.1924 N   0  0  0  0  0  0  0  0  0  0  0  0
   23.0930   38.0207    6.0653 H   0  0  0  0  0  0  0  0  0  0  0  0
   21.6655   38.5180    6.8545 H   0  0  0  0  0  0  0  0  0  0  0  0
   26.8164   40.8429    3.1160 C   0  0  0  0  0  0  0  0  0  0  0  0
   27.1339   42.2079    2.3815 C   0  0  0  0  0  0  0  0  0  0  0  0
   25.8922   43.1626    2.4467 C   0  0  0  0  0  0  0  0  0  0  0  0
   24.5524   42.4867    2.0544 C   0  0  0  0  0  0  0  0  0  0  0  0
   27.5414   41.9568    0.9021 C   0  0  0  0  0  0  0  0  0  0  0  0
   24.4328   41.2435    2.8459 N   0  0  0  0  0  0  0  0  0  0  0  0
   25.4567   40.2247    2.6641 C   0  0  0  0  0  0  0  0  0  0  0  0
   28.3051   42.8423    3.0249 N   0  0  0  0  0  0  0  0  0  0  0  0
   28.5151   43.7233    2.5557 H   0  0  0  0  0  0  0  0  0  0  0  0
   29.1101   42.2197    2.9552 H   0  0  0  0  0  0  0  0  0  0  0  0
   18.9055   40.4544    5.9499 C   0  0  0  0  0  0  0  0  0  0  0  0
   17.8040   40.3661    6.8097 C   0  0  0  0  0  0  0  0  0  0  0  0
   17.9566   40.5907    8.1939 C   0  0  0  0  0  0  0  0  0  0  0  0
   19.2204   40.9523    8.7062 C   0  0  0  0  0  0  0  0  0  0  0  0
   20.3319   40.9966    7.8414 C   0  0  0  0  0  0  0  0  0  0  0  0
   20.1753   40.7506    6.4549 C   0  0  0  0  0  0  0  0  0  0  0  0
   18.6976   40.0914    4.2683 Cl  0  0  0  0  0  0  0  0  0  0  0  0
   16.2536   39.9226    6.1428 Cl  0  0  0  0  0  0  0  0  0  0  0  0
 14 11  1  0  0  0
 13 12  1  0  0  0
 13 15  1  0  0  0
 12 11  1  0  0  0
 15 16  1  0  0  0
 15  4  1  0  0  0
 11 10  1  0  0  0
 11 17  1  0  0  0
 16 10  1  0  0  0
  2  4  2  0  0  0
  2  3  1  0  0  0
  4  5  1  0  0  0
  3  1  2  0  0  0
  5  6  2  0  0  0
 24 23  2  0  0  0
 24 25  1  0  0  0
  1  6  1  0  0  0
  1 25  1  0  0  0
 23 22  1  0  0  0
  6  7  1  0  0  0
 25 20  2  0  0  0
 22 21  2  0  0  0
 20 21  1  0  0  0
 20 26  1  0  0  0
 21 27  1  0  0  0
  7  8  1  0  0  0
  7  9  1  0  0  0
 17 18  1  0  0  0
 17 19  1  0  0  0
M  END
> <minimizedAffinity>
-10.40386

$$$$
5EHR_5OD_A_601


 27 29  0  0  0  0  0  0  0  0999 V2000
   21.8253   40.7809    4.9973 C   0  0  0  0  0  0  0  0  0  0  0  0
   23.8297   39.6989    4.4222 C   0  0  0  0  0  0  0  0  0  0  0  0
   22.7540   39.8118    5.2205 N   0  0  0  0  0  0  0  0  0  0  0  0
   24.0694   40.6374    3.4002 C   0  0  0  0  0  0  0  0  0  0  0  0
   23.1296   41.6033    3.1723 N   0  0  0  0  0  0  0  0  0  0  0  0
   22.0242   41.7145    3.9494 C   0  0  0  0  0  0  0  0  0  0  0  0
   21.1698   42.7275    3.6749 N   0  0  0  0  0  0  0  0  0  0  0  0
   21.3613   43.3456    2.9329 H   0  0  0  0  0  0  0  0  0  0  0  0
   20.3568   42.8463    4.2172 H   0  0  0  0  0  0  0  0  0  0  0  0
   26.1201   38.5825    1.5025 C   0  0  0  0  0  0  0  0  0  0  0  0
   27.5709   39.0282    1.9497 C   0  0  0  0  0  0  0  0  0  0  0  0
   27.4876   39.9992    3.1775 C   0  0  0  0  0  0  0  0  0  0  0  0
   26.4568   41.1459    3.0093 C   0  0  0  0  0  0  0  0  0  0  0  0
   28.3252   39.7118    0.7743 C   0  0  0  0  0  0  0  0  0  0  0  0
   25.1736   40.5343    2.6023 N   0  0  0  0  0  0  0  0  0  0  0  0
   25.1452   39.7915    1.3506 C   0  0  0  0  0  0  0  0  0  0  0  0
   28.3605   37.8264    2.2967 N   0  0  0  0  0  0  0  0  0  0  0  0
   29.2975   38.1071    2.5860 H   0  0  0  0  0  0  0  0  0  0  0  0
   28.4249   37.2151    1.4827 H   0  0  0  0  0  0  0  0  0  0  0  0
   19.4023   40.4757    5.6191 C   0  0  0  0  0  0  0  0  0  0  0  0
   18.3794   40.4877    6.5751 C   0  0  0  0  0  0  0  0  0  0  0  0
   18.6512   40.8552    7.9096 C   0  0  0  0  0  0  0  0  0  0  0  0
   19.9543   41.2578    8.2701 C   0  0  0  0  0  0  0  0  0  0  0  0
   20.9867   41.2015    7.3129 C   0  0  0  0  0  0  0  0  0  0  0  0
   20.7108   40.8125    5.9788 C   0  0  0  0  0  0  0  0  0  0  0  0
   19.0498   39.9396    4.0094 Cl  0  0  0  0  0  0  0  0  0  0  0  0
   16.7774   39.9897    6.0948 Cl  0  0  0  0  0  0  0  0  0  0  0  0
 14 11  1  0  0  0
 13 12  1  0  0  0
 13 15  1  0  0  0
 12 11  1  0  0  0
 15 16  1  0  0  0
 15  4  1  0  0  0
 11 10  1  0  0  0
 11 17  1  0  0  0
 16 10  1  0  0  0
  2  4  2  0  0  0
  2  3  1  0  0  0
  4  5  1  0  0  0
  3  1  2  0  0  0
  5  6  2  0  0  0
 24 23  2  0  0  0
 24 25  1  0  0  0
  1  6  1  0  0  0
  1 25  1  0  0  0
 23 22  1  0  0  0
  6  7  1  0  0  0
 25 20  2  0  0  0
 22 21  2  0  0  0
 20 21  1  0  0  0
 20 26  1  0  0  0
 21 27  1  0  0  0
  7  8  1  0  0  0
  7  9  1  0  0  0
 17 18  1  0  0  0
 17 19  1  0  0  0
M  END
> <minimizedAffinity>
-8.68140

$$$$
5EHR_5OD_A_601


 27 29  0  0  0  0  0  0  0  0999 V2000
   20.8674   40.5341    4.5349 C   0  0  0  0  0  0  0  0  0  0  0  0
   23.1642   40.0432    4.5858 C   0  0  0  0  0  0  0  0  0  0  0  0
   21.9395   39.9456    5.1314 N   0  0  0  0  0  0  0  0  0  0  0  0
   23.3818   40.8349    3.4418 C   0  0  0  0  0  0  0  0  0  0  0  0
   22.3014   41.4162    2.8396 N   0  0  0  0  0  0  0  0  0  0  0  0
   21.0544   41.3046    3.3598 C   0  0  0  0  0  0  0  0  0  0  0  0
   20.0522   41.9489    2.7179 N   0  0  0  0  0  0  0  0  0  0  0  0
   20.2433   42.4697    1.9045 H   0  0  0  0  0  0  0  0  0  0  0  0
   19.1321   41.8969    3.0642 H   0  0  0  0  0  0  0  0  0  0  0  0
   25.9078   39.3535    1.5833 C   0  0  0  0  0  0  0  0  0  0  0  0
   27.2038   39.6868    2.4275 C   0  0  0  0  0  0  0  0  0  0  0  0
   26.8073   40.3126    3.8091 C   0  0  0  0  0  0  0  0  0  0  0  0
   25.7603   41.4527    3.7108 C   0  0  0  0  0  0  0  0  0  0  0  0
   28.1369   40.6554    1.6470 C   0  0  0  0  0  0  0  0  0  0  0  0
   24.6306   40.9505    2.8998 N   0  0  0  0  0  0  0  0  0  0  0  0
   24.9079   40.5503    1.5278 C   0  0  0  0  0  0  0  0  0  0  0  0
   27.9822   38.4452    2.6293 N   0  0  0  0  0  0  0  0  0  0  0  0
   28.8195   38.6535    3.1732 H   0  0  0  0  0  0  0  0  0  0  0  0
   28.2518   38.0619    1.7234 H   0  0  0  0  0  0  0  0  0  0  0  0
   19.4784   40.6486    6.6345 C   0  0  0  0  0  0  0  0  0  0  0  0
   18.2475   40.5186    7.2891 C   0  0  0  0  0  0  0  0  0  0  0  0
   17.1020   40.0969    6.5823 C   0  0  0  0  0  0  0  0  0  0  0  0
   17.2103   39.7598    5.2167 C   0  0  0  0  0  0  0  0  0  0  0  0
   18.4421   39.9345    4.5554 C   0  0  0  0  0  0  0  0  0  0  0  0
   19.5845   40.3774    5.2669 C   0  0  0  0  0  0  0  0  0  0  0  0
   20.8456   41.2480    7.5144 Cl  0  0  0  0  0  0  0  0  0  0  0  0
   18.1492   40.9381    8.9801 Cl  0  0  0  0  0  0  0  0  0  0  0  0
 14 11  1  0  0  0
 13 12  1  0  0  0
 13 15  1  0  0  0
 12 11  1  0  0  0
 15 16  1  0  0  0
 15  4  1  0  0  0
 11 10  1  0  0  0
 11 17  1  0  0  0
 16 10  1  0  0  0
  2  4  2  0  0  0
  2  3  1  0  0  0
  4  5  1  0  0  0
  3  1  2  0  0  0
  5  6  2  0  0  0
 24 23  2  0  0  0
 24 25  1  0  0  0
  1  6  1  0  0  0
  1 25  1  0  0  0
 23 22  1  0  0  0
  6  7  1  0  0  0
 25 20  2  0  0  0
 22 21  2  0  0  0
 20 21  1  0  0  0
 20 26  1  0  0  0
 21 27  1  0  0  0
  7  8  1  0  0  0
  7  9  1  0  0  0
 17 18  1  0  0  0
 17 19  1  0  0  0
M  END
> <minimizedAffinity>
-8.28686

$$$$
5EHR_5OD_A_601


 27 29  0  0  0  0  0  0  0  0999 V2000
   26.7759   39.7219    1.5564 C   0  0  0  0  0  0  0  0  0  0  0  0
   26.0328   40.2582    3.7195 C   0  0  0  0  0  0  0  0  0  0  0  0
   27.0217   39.8982    2.8830 N   0  0  0  0  0  0  0  0  0  0  0  0
   24.7057   40.3660    3.2613 C   0  0  0  0  0  0  0  0  0  0  0  0
   24.4641   40.1981    1.9266 N   0  0  0  0  0  0  0  0  0  0  0  0
   25.4544   39.8630    1.0634 C   0  0  0  0  0  0  0  0  0  0  0  0
   25.1135   39.6768   -0.2330 N   0  0  0  0  0  0  0  0  0  0  0  0
   24.1775   39.7892   -0.5168 H   0  0  0  0  0  0  0  0  0  0  0  0
   25.8014   39.4290   -0.8922 H   0  0  0  0  0  0  0  0  0  0  0  0
   21.8048   39.4006    4.8990 C   0  0  0  0  0  0  0  0  0  0  0  0
   20.8467   40.6389    4.6712 C   0  0  0  0  0  0  0  0  0  0  0  0
   21.4863   41.6411    3.6494 C   0  0  0  0  0  0  0  0  0  0  0  0
   22.9691   41.9870    3.9451 C   0  0  0  0  0  0  0  0  0  0  0  0
   20.5479   41.3603    6.0159 C   0  0  0  0  0  0  0  0  0  0  0  0
   23.6977   40.7118    4.1162 N   0  0  0  0  0  0  0  0  0  0  0  0
   23.2753   39.8308    5.1954 C   0  0  0  0  0  0  0  0  0  0  0  0
   19.5420   40.1551    4.1695 N   0  0  0  0  0  0  0  0  0  0  0  0
   18.9193   40.9492    4.0205 H   0  0  0  0  0  0  0  0  0  0  0  0
   19.1280   39.5221    4.8539 H   0  0  0  0  0  0  0  0  0  0  0  0
   28.6766   40.1841   -0.0325 C   0  0  0  0  0  0  0  0  0  0  0  0
   29.7972   39.7488   -0.7504 C   0  0  0  0  0  0  0  0  0  0  0  0
   30.1998   38.3979   -0.6989 C   0  0  0  0  0  0  0  0  0  0  0  0
   29.4388   37.4717    0.0450 C   0  0  0  0  0  0  0  0  0  0  0  0
   28.3384   37.9256    0.7988 C   0  0  0  0  0  0  0  0  0  0  0  0
   27.9511   39.2878    0.7583 C   0  0  0  0  0  0  0  0  0  0  0  0
   28.2596   41.8659   -0.0528 Cl  0  0  0  0  0  0  0  0  0  0  0  0
   30.7128   40.9191   -1.6653 Cl  0  0  0  0  0  0  0  0  0  0  0  0
 14 11  1  0  0  0
 13 12  1  0  0  0
 13 15  1  0  0  0
 12 11  1  0  0  0
 15 16  1  0  0  0
 15  4  1  0  0  0
 11 10  1  0  0  0
 11 17  1  0  0  0
 16 10  1  0  0  0
  2  4  2  0  0  0
  2  3  1  0  0  0
  4  5  1  0  0  0
  3  1  2  0  0  0
  5  6  2  0  0  0
 24 23  2  0  0  0
 24 25  1  0  0  0
  1  6  1  0  0  0
  1 25  1  0  0  0
 23 22  1  0  0  0
  6  7  1  0  0  0
 25 20  2  0  0  0
 22 21  2  0  0  0
 20 21  1  0  0  0
 20 26  1  0  0  0
 21 27  1  0  0  0
  7  8  1  0  0  0
  7  9  1  0  0  0
 17 18  1  0  0  0
 17 19  1  0  0  0
M  END
> <minimizedAffinity>
-8.07978

$$$$
