2D0K_FOL_A_1161
  RCSB PDB12061705183D
Coordinates from PDB:2D0K:A:1161 Model:1 without hydrogens
 32 34  0  0  0  0            999 V2000
   25.7130   -0.1330    4.2750   N 0  0  0  0  0  0  0  0  0  0  0  0
   26.2710   -0.3150    3.0890   C 0  0  0  0  0  0  0  0  0  0  0  0
   25.7410   -0.6880    2.0920   N 0  0  0  0  0  0  0  0  0  0  0  0
   27.5850   -0.0500    2.9650   N 0  0  0  0  0  0  0  0  0  0  0  0
   28.3040    0.3780    3.9530   C 0  0  0  0  0  0  0  0  0  0  0  0
   29.4380    0.5880    3.7640   O 0  0  0  0  0  0  0  0  0  0  0  0
   27.6520    0.5690    5.2130   C 0  0  0  0  0  0  0  0  0  0  0  0
   28.3700    1.0460    6.3350   N 0  0  0  0  0  0  0  0  0  0  0  0
   27.5940    1.1820    7.4800   C 0  0  0  0  0  0  0  0  0  0  0  0
   26.2380    0.8330    7.3980   C 0  0  0  0  0  0  0  0  0  0  0  0
   25.6260    0.4320    6.4720   N 0  0  0  0  0  0  0  0  0  0  0  0
   26.3710    0.2950    5.3150   C 0  0  0  0  0  0  0  0  0  0  0  0
   28.2430    1.6700    8.6450   C 0  0  0  0  0  0  0  0  0  0  0  0
   29.6990    2.1740    8.4260   N 0  0  0  0  0  0  0  0  0  0  0  0
   30.7510    5.7450    6.1770   C 0  0  0  0  0  0  0  0  0  0  0  0
   31.7260    4.8990    6.7820   C 0  0  0  0  0  0  0  0  0  0  0  0
   31.4170    3.6730    7.5650   C 0  0  0  0  0  0  0  0  0  0  0  0
   29.9990    3.3010    7.7260   C 0  0  0  0  0  0  0  0  0  0  0  0
   29.1170    4.0920    7.1670   C 0  0  0  0  0  0  0  0  0  0  0  0
   29.4850    5.3610    6.3620   C 0  0  0  0  0  0  0  0  0  0  0  0
   31.1030    6.9670    5.3850   C 0  0  0  0  0  0  0  0  0  0  0  0
   32.2050    7.7750    5.6790   O 0  0  0  0  0  0  0  0  0  0  0  0
   30.3340    7.2710    4.3580   N 0  0  0  0  0  0  0  0  0  0  0  0
   30.3960    8.4790    3.6150   C 0  0  0  0  0  0  0  0  0  0  0  0
   30.7060    8.1460    2.0550   C 0  0  0  0  0  0  0  0  0  0  0  0
   32.0230    8.5750    1.7430   C 0  0  0  0  0  0  0  0  0  0  0  0
   32.0030    8.7940    0.4780   C 0  0  0  0  0  0  0  0  0  0  0  0
   31.9240   10.2340    0.2760   O 0  0  0  0  0  0  0  0  0  0  0  0
   32.0540    7.7580   -0.3590   O 0  0  0  0  0  0  0  0  0  0  0  0
   29.0780    9.0430    3.5080   C 0  0  0  0  0  0  0  0  0  0  0  0
   27.9580    8.3150    3.5160   O 0  0  0  0  0  0  0  0  0  0  0  0
   29.1130   10.2300    3.4120   O 0  0  0  0  0  0  0  0  0  0  0  0
  1  2  1  0  0  0  0
  1 12  1  0  0  0  0
  2  3  1  0  0  0  0
  2  4  2  0  0  0  0
  4  5  1  0  0  0  0
  5  6  2  0  0  0  0
  5  7  1  0  0  0  0
  7  8  1  0  0  0  0
  7 12  2  0  0  0  0
  8  9  2  0  0  0  0
  9 10  1  0  0  0  0
  9 13  1  0  0  0  0
 10 11  2  0  0  0  0
 11 12  1  0  0  0  0
 13 14  1  0  0  0  0
 14 18  1  0  0  0  0
 15 16  2  0  0  0  0
 15 20  1  0  0  0  0
 15 21  1  0  0  0  0
 16 17  1  0  0  0  0
 17 18  2  0  0  0  0
 18 19  1  0  0  0  0
 19 20  2  0  0  0  0
 21 22  2  0  0  0  0
 21 23  1  0  0  0  0
 23 24  1  0  0  0  0
 24 25  1  0  0  0  0
 24 30  1  0  0  0  0
 25 26  1  0  0  0  0
 26 27  1  0  0  0  0
 27 28  2  0  0  0  0
 27 29  1  0  0  0  0
 30 31  2  0  0  0  0
 30 32  1  0  0  0  0
A    1
N1
A    2
C2
A    3
NA2
A    4
N3
A    5
C4
A    6
O4
A    7
C4A
A    8
N5
A    9
C6
A   10
C7
A   11
N8
A   12
C8A
A   13
C9
A   14
N10
A   15
C11
A   16
C12
A   17
C13
A   18
C14
A   19
C15
A   20
C16
A   21
C
A   22
O
A   23
N
A   24
CA
A   25
CB
A   26
CG
A   27
CD
A   28
OE1
A   29
OE2
A   30
CT
A   31
O1
A   32
O2
M  END
>  <InstanceId>
2D0K_FOL_A_1161

>  <ChemCompId>
FOL

>  <PdbId>
2D0K

>  <ChainId>
A

>  <ResidueNumber>
1161

>  <InsertionCode>


>  <Model>
1

>  <AltIds>


>  <MissingHeavyAtoms>
0

>  <ObservedFormula>
C19 N7 O6

>  <Name>
FOLIC ACID

>  <SystematicName>
(2S)-2-[[4-[(2-amino-4-oxo-1H-pteridin-6-yl)methylamino]phenyl]carbonylamino]pentanedioic acid

>  <Synonyms>


>  <Type>
NON-POLYMER

>  <Formula>
C19 H19 N7 O6

>  <MolecularWeight>
441.397

>  <ModifiedDate>
2011-06-04

>  <Parent>


>  <OneLetterCode>


>  <SubcomponentList>


>  <AmbiguousFlag>
N

>  <InChI>
InChI=1S/C19H19N7O6/c20-19-25-15-14(17(30)26-19)23-11(8-22-15)7-21-10-3-1-9(2-4-10)16(29)24-12(18(31)32)5-6-13(27)28/h1-4,8,12,21H,5-7H2,(H,24,29)(H,27,28)(H,31,32)(H3,20,22,25,26,30)/t12-/m0/s1

>  <InChIKey>
OVBPIULPVIDEAO-LBPRGKRZSA-N

>  <SMILES>
c1cc(ccc1C(=O)N[C@@H](CCC(=O)O)C(=O)O)NCc2cnc3c(n2)C(=O)N=C(N3)N

$$$$
