2D0K_FOL_A_1161


 39 41  0  0  0  0  0  0  0  0999 V2000
   28.5833    3.1734    6.5288 C   0  0  0  0  0  0  0  0  0  0  0  0
   28.5428    4.1576    7.5594 C   0  0  0  0  0  0  0  0  0  0  0  0
   29.4852    5.3019    7.6773 C   0  0  0  0  0  0  0  0  0  0  0  0
   30.5376    5.4324    6.6523 C   0  0  0  0  0  0  0  0  0  0  0  0
   30.5621    4.5170    5.7156 C   0  0  0  0  0  0  0  0  0  0  0  0
   29.5608    3.3403    5.6339 C   0  0  0  0  0  0  0  0  0  0  0  0
   27.6075    2.0402    6.4376 C   0  0  0  0  0  0  0  0  0  0  0  0
   26.6717    1.7574    7.4366 O   0  0  0  0  0  0  0  0  0  0  0  0
   27.6386    1.2942    5.3509 N   0  0  0  0  0  0  0  0  0  0  0  0
   28.1987    1.6067    4.6039 H   0  0  0  0  0  0  0  0  0  0  0  0
   26.9305    0.0772    5.1698 C   0  0  0  0  0  0  0  0  0  0  0  0
   27.7871   -1.0286    5.5015 C   0  0  0  0  0  0  0  0  0  0  0  0
   27.4002   -2.0676    6.2467 O   0  0  0  0  0  0  0  0  0  0  0  0
   28.8744   -0.9002    5.0317 O   0  0  0  0  0  0  0  0  0  0  0  0
   29.0763   -0.1432    4.5178 H   0  0  0  0  0  0  0  0  0  0  0  0
   26.6987   -0.1896    3.5837 C   0  0  0  0  0  0  0  0  0  0  0  0
   25.3057   -0.2977    3.3313 C   0  0  0  0  0  0  0  0  0  0  0  0
   25.2013   -0.2427    2.0527 C   0  0  0  0  0  0  0  0  0  0  0  0
   24.1085   -1.1198    1.6565 O   0  0  0  0  0  0  0  0  0  0  0  0
   26.0364    0.5387    1.3683 O   0  0  0  0  0  0  0  0  0  0  0  0
   26.6881    1.0375    1.8205 H   0  0  0  0  0  0  0  0  0  0  0  0
   31.3986    6.4821    6.7360 N   0  0  0  0  0  0  0  0  0  0  0  0
   31.3386    7.0760    7.5189 H   0  0  0  0  0  0  0  0  0  0  0  0
   32.4738    6.7897    5.6538 C   0  0  0  0  0  0  0  0  0  0  0  0
   31.4567   10.9616    2.4430 N   0  0  0  0  0  0  0  0  0  0  0  0
   30.2575   11.3230    2.0159 C   0  0  0  0  0  0  0  0  0  0  0  0
   29.9931   12.2234    1.2855 N   0  0  0  0  0  0  0  0  0  0  0  0
   29.1984   10.6048    2.4336 N   0  0  0  0  0  0  0  0  0  0  0  0
   29.3178    9.5838    3.2207 C   0  0  0  0  0  0  0  0  0  0  0  0
   28.3497    9.0100    3.5361 O   0  0  0  0  0  0  0  0  0  0  0  0
   30.6368    9.2263    3.6467 C   0  0  0  0  0  0  0  0  0  0  0  0
   30.8470    8.1151    4.4971 N   0  0  0  0  0  0  0  0  0  0  0  0
   32.1825    7.8974    4.8144 C   0  0  0  0  0  0  0  0  0  0  0  0
   33.1346    8.7794    4.2828 C   0  0  0  0  0  0  0  0  0  0  0  0
   32.9754    9.7106    3.5754 N   0  0  0  0  0  0  0  0  0  0  0  0
   31.6559    9.9465    3.2353 C   0  0  0  0  0  0  0  0  0  0  0  0
   32.2364   11.4852    2.1478 H   0  0  0  0  0  0  0  0  0  0  0  0
   30.7102   12.7989    0.9338 H   0  0  0  0  0  0  0  0  0  0  0  0
   29.0569   12.3934    1.0327 H   0  0  0  0  0  0  0  0  0  0  0  0
 25 26  1  0  0  0
 25 36  1  0  0  0
 26 27  1  0  0  0
 26 28  2  0  0  0
 28 29  1  0  0  0
 29 30  2  0  0  0
 29 31  1  0  0  0
 31 32  1  0  0  0
 31 36  2  0  0  0
 32 33  2  0  0  0
 33 34  1  0  0  0
 33 24  1  0  0  0
 34 35  2  0  0  0
 35 36  1  0  0  0
 24 22  1  0  0  0
 22  4  1  0  0  0
  1  2  2  0  0  0
  1  6  1  0  0  0
  1  7  1  0  0  0
  2  3  1  0  0  0
  3  4  2  0  0  0
  4  5  1  0  0  0
  5  6  2  0  0  0
  7  8  2  0  0  0
  7  9  1  0  0  0
  9 11  1  0  0  0
 11 16  1  0  0  0
 11 12  1  0  0  0
 16 17  1  0  0  0
 17 18  1  0  0  0
 18 19  2  0  0  0
 18 20  1  0  0  0
 12 13  2  0  0  0
 12 14  1  0  0  0
 25 37  1  0  0  0
 27 38  1  0  0  0
 27 39  1  0  0  0
 22 23  1  0  0  0
  9 10  1  0  0  0
 20 21  1  0  0  0
 14 15  1  0  0  0
M  END
> <minimizedAffinity>
-8.36004

$$$$
2D0K_FOL_A_1161


 39 41  0  0  0  0  0  0  0  0999 V2000
   30.3715    5.8786    6.2836 C   0  0  0  0  0  0  0  0  0  0  0  0
   31.0608    4.6506    6.5051 C   0  0  0  0  0  0  0  0  0  0  0  0
   30.5532    3.5317    7.3430 C   0  0  0  0  0  0  0  0  0  0  0  0
   29.2390    3.7010    7.9906 C   0  0  0  0  0  0  0  0  0  0  0  0
   28.6220    4.8371    7.7794 C   0  0  0  0  0  0  0  0  0  0  0  0
   29.1905    5.9763    6.9003 C   0  0  0  0  0  0  0  0  0  0  0  0
   30.9115    6.9789    5.4222 C   0  0  0  0  0  0  0  0  0  0  0  0
   32.1488    7.5880    5.6497 O   0  0  0  0  0  0  0  0  0  0  0  0
   30.1777    7.3682    4.3982 N   0  0  0  0  0  0  0  0  0  0  0  0
   29.3893    6.8230    4.1739 H   0  0  0  0  0  0  0  0  0  0  0  0
   30.4316    8.5093    3.5929 C   0  0  0  0  0  0  0  0  0  0  0  0
   29.2076    9.2367    3.3944 C   0  0  0  0  0  0  0  0  0  0  0  0
   29.1439   10.4310    2.7995 O   0  0  0  0  0  0  0  0  0  0  0  0
   28.2679    8.6439    3.8245 O   0  0  0  0  0  0  0  0  0  0  0  0
   28.3871    7.8079    4.2306 H   0  0  0  0  0  0  0  0  0  0  0  0
   30.7523    8.0430    2.0696 C   0  0  0  0  0  0  0  0  0  0  0  0
   32.0473    8.4997    1.7087 C   0  0  0  0  0  0  0  0  0  0  0  0
   31.8524    9.2638    0.6954 C   0  0  0  0  0  0  0  0  0  0  0  0
   32.0914    8.4788   -0.5076 O   0  0  0  0  0  0  0  0  0  0  0  0
   31.4958   10.5316    0.9001 O   0  0  0  0  0  0  0  0  0  0  0  0
   31.3913   10.8537    1.7738 H   0  0  0  0  0  0  0  0  0  0  0  0
   28.7523    2.6814    8.7479 N   0  0  0  0  0  0  0  0  0  0  0  0
   28.3394    2.8976    9.6151 H   0  0  0  0  0  0  0  0  0  0  0  0
   28.8168    1.1894    8.3098 C   0  0  0  0  0  0  0  0  0  0  0  0
   25.5025   -0.0969    4.2962 N   0  0  0  0  0  0  0  0  0  0  0  0
   25.8061   -0.0498    3.0091 C   0  0  0  0  0  0  0  0  0  0  0  0
   25.0945   -0.3020    2.0903 N   0  0  0  0  0  0  0  0  0  0  0  0
   27.0527    0.3291    2.6705 N   0  0  0  0  0  0  0  0  0  0  0  0
   27.9448    0.6511    3.5519 C   0  0  0  0  0  0  0  0  0  0  0  0
   29.0042    0.9725    3.1775 O   0  0  0  0  0  0  0  0  0  0  0  0
   27.5645    0.5943    4.9308 C   0  0  0  0  0  0  0  0  0  0  0  0
   28.4817    0.9436    5.9500 N   0  0  0  0  0  0  0  0  0  0  0  0
   27.9584    0.8412    7.2335 C   0  0  0  0  0  0  0  0  0  0  0  0
   26.6310    0.4084    7.3675 C   0  0  0  0  0  0  0  0  0  0  0  0
   25.8554    0.1114    6.5291 N   0  0  0  0  0  0  0  0  0  0  0  0
   26.3459    0.2124    5.2400 C   0  0  0  0  0  0  0  0  0  0  0  0
   24.5951   -0.3794    4.5532 H   0  0  0  0  0  0  0  0  0  0  0  0
   24.1660   -0.5872    2.2507 H   0  0  0  0  0  0  0  0  0  0  0  0
   25.4339   -0.2255    1.1693 H   0  0  0  0  0  0  0  0  0  0  0  0
 25 26  1  0  0  0
 25 36  1  0  0  0
 26 27  1  0  0  0
 26 28  2  0  0  0
 28 29  1  0  0  0
 29 30  2  0  0  0
 29 31  1  0  0  0
 31 32  1  0  0  0
 31 36  2  0  0  0
 32 33  2  0  0  0
 33 34  1  0  0  0
 33 24  1  0  0  0
 34 35  2  0  0  0
 35 36  1  0  0  0
 24 22  1  0  0  0
 22  4  1  0  0  0
  1  2  2  0  0  0
  1  6  1  0  0  0
  1  7  1  0  0  0
  2  3  1  0  0  0
  3  4  2  0  0  0
  4  5  1  0  0  0
  5  6  2  0  0  0
  7  8  2  0  0  0
  7  9  1  0  0  0
  9 11  1  0  0  0
 11 16  1  0  0  0
 11 12  1  0  0  0
 16 17  1  0  0  0
 17 18  1  0  0  0
 18 19  2  0  0  0
 18 20  1  0  0  0
 12 13  2  0  0  0
 12 14  1  0  0  0
 25 37  1  0  0  0
 27 38  1  0  0  0
 27 39  1  0  0  0
 22 23  1  0  0  0
  9 10  1  0  0  0
 20 21  1  0  0  0
 14 15  1  0  0  0
M  END
> <minimizedAffinity>
-8.27957

$$$$
2D0K_FOL_A_1161


 39 41  0  0  0  0  0  0  0  0999 V2000
   29.6897    5.3925    6.1357 C   0  0  0  0  0  0  0  0  0  0  0  0
   29.1346    5.4984    7.4445 C   0  0  0  0  0  0  0  0  0  0  0  0
   28.4151    4.4059    8.1520 C   0  0  0  0  0  0  0  0  0  0  0  0
   28.2666    3.1164    7.4520 C   0  0  0  0  0  0  0  0  0  0  0  0
   28.7792    3.0386    6.2489 C   0  0  0  0  0  0  0  0  0  0  0  0
   29.5187    4.2042    5.5500 C   0  0  0  0  0  0  0  0  0  0  0  0
   30.4186    6.5136    5.4604 C   0  0  0  0  0  0  0  0  0  0  0  0
   31.7153    6.9006    5.8106 O   0  0  0  0  0  0  0  0  0  0  0  0
   29.7974    7.1442    4.4831 N   0  0  0  0  0  0  0  0  0  0  0  0
   28.9535    6.7548    4.1585 H   0  0  0  0  0  0  0  0  0  0  0  0
   30.2461    8.3386    3.8607 C   0  0  0  0  0  0  0  0  0  0  0  0
   29.1113    9.1100    3.4320 C   0  0  0  0  0  0  0  0  0  0  0  0
   29.2080   10.2405    2.7269 O   0  0  0  0  0  0  0  0  0  0  0  0
   28.0851    8.6169    3.7830 O   0  0  0  0  0  0  0  0  0  0  0  0
   28.0927    7.8204    4.2765 H   0  0  0  0  0  0  0  0  0  0  0  0
   30.9263    7.9861    2.4277 C   0  0  0  0  0  0  0  0  0  0  0  0
   32.3343    8.1342    2.5347 C   0  0  0  0  0  0  0  0  0  0  0  0
   32.5433    9.3898    2.3666 C   0  0  0  0  0  0  0  0  0  0  0  0
   33.4355    9.8391    3.4262 O   0  0  0  0  0  0  0  0  0  0  0  0
   31.9602   10.0114    1.3419 O   0  0  0  0  0  0  0  0  0  0  0  0
   31.4066    9.5325    0.7570 H   0  0  0  0  0  0  0  0  0  0  0  0
   27.6249    2.1012    8.0905 N   0  0  0  0  0  0  0  0  0  0  0  0
   27.2964    2.2567    9.0055 H   0  0  0  0  0  0  0  0  0  0  0  0
   27.3850    0.7058    7.4446 C   0  0  0  0  0  0  0  0  0  0  0  0
   28.5801   -3.5318   10.5045 N   0  0  0  0  0  0  0  0  0  0  0  0
   29.1246   -3.4757   11.7092 C   0  0  0  0  0  0  0  0  0  0  0  0
   29.4271   -4.3894   12.4075 N   0  0  0  0  0  0  0  0  0  0  0  0
   29.3828   -2.2599   12.2265 N   0  0  0  0  0  0  0  0  0  0  0  0
   29.1258   -1.1637   11.5873 C   0  0  0  0  0  0  0  0  0  0  0  0
   29.3822   -0.1471   12.1036 O   0  0  0  0  0  0  0  0  0  0  0  0
   28.5467   -1.2774   10.2832 C   0  0  0  0  0  0  0  0  0  0  0  0
   28.2497   -0.1239    9.5196 N   0  0  0  0  0  0  0  0  0  0  0  0
   27.6971   -0.4029    8.2752 C   0  0  0  0  0  0  0  0  0  0  0  0
   27.4944   -1.7484    7.9349 C   0  0  0  0  0  0  0  0  0  0  0  0
   27.7340   -2.7200    8.5606 N   0  0  0  0  0  0  0  0  0  0  0  0
   28.2936   -2.4732    9.8010 C   0  0  0  0  0  0  0  0  0  0  0  0
   28.3817   -4.4166   10.1211 H   0  0  0  0  0  0  0  0  0  0  0  0
   29.2720   -5.3131   12.1042 H   0  0  0  0  0  0  0  0  0  0  0  0
   29.8327   -4.2223   13.2888 H   0  0  0  0  0  0  0  0  0  0  0  0
 25 26  1  0  0  0
 25 36  1  0  0  0
 26 27  1  0  0  0
 26 28  2  0  0  0
 28 29  1  0  0  0
 29 30  2  0  0  0
 29 31  1  0  0  0
 31 32  1  0  0  0
 31 36  2  0  0  0
 32 33  2  0  0  0
 33 34  1  0  0  0
 33 24  1  0  0  0
 34 35  2  0  0  0
 35 36  1  0  0  0
 24 22  1  0  0  0
 22  4  1  0  0  0
  1  2  2  0  0  0
  1  6  1  0  0  0
  1  7  1  0  0  0
  2  3  1  0  0  0
  3  4  2  0  0  0
  4  5  1  0  0  0
  5  6  2  0  0  0
  7  8  2  0  0  0
  7  9  1  0  0  0
  9 11  1  0  0  0
 11 16  1  0  0  0
 11 12  1  0  0  0
 16 17  1  0  0  0
 17 18  1  0  0  0
 18 19  2  0  0  0
 18 20  1  0  0  0
 12 13  2  0  0  0
 12 14  1  0  0  0
 25 37  1  0  0  0
 27 38  1  0  0  0
 27 39  1  0  0  0
 22 23  1  0  0  0
  9 10  1  0  0  0
 20 21  1  0  0  0
 14 15  1  0  0  0
M  END
> <minimizedAffinity>
-8.09176

$$$$
2D0K_FOL_A_1161


 39 41  0  0  0  0  0  0  0  0999 V2000
   31.0894    5.1229    6.8304 C   0  0  0  0  0  0  0  0  0  0  0  0
   31.4840    3.8501    7.3370 C   0  0  0  0  0  0  0  0  0  0  0  0
   30.5963    2.9240    8.0893 C   0  0  0  0  0  0  0  0  0  0  0  0
   29.2043    3.3496    8.3270 C   0  0  0  0  0  0  0  0  0  0  0  0
   28.8607    4.5235    7.8581 C   0  0  0  0  0  0  0  0  0  0  0  0
   29.8204    5.4562    7.0818 C   0  0  0  0  0  0  0  0  0  0  0  0
   32.0110    6.0235    6.0662 C   0  0  0  0  0  0  0  0  0  0  0  0
   33.3685    5.7462    5.8815 O   0  0  0  0  0  0  0  0  0  0  0  0
   31.4969    7.1172    5.5388 N   0  0  0  0  0  0  0  0  0  0  0  0
   30.5168    7.2088    5.5541 H   0  0  0  0  0  0  0  0  0  0  0  0
   32.2412    8.1733    4.9508 C   0  0  0  0  0  0  0  0  0  0  0  0
   32.8805    8.9413    5.9843 C   0  0  0  0  0  0  0  0  0  0  0  0
   32.2143    9.6126    6.9278 O   0  0  0  0  0  0  0  0  0  0  0  0
   34.0676    8.9026    5.8918 O   0  0  0  0  0  0  0  0  0  0  0  0
   34.4680    8.4101    5.2026 H   0  0  0  0  0  0  0  0  0  0  0  0
   31.2247    9.2837    4.3390 C   0  0  0  0  0  0  0  0  0  0  0  0
   30.3656    8.6565    3.3985 C   0  0  0  0  0  0  0  0  0  0  0  0
   29.2567    9.2969    3.4927 C   0  0  0  0  0  0  0  0  0  0  0  0
   29.5608   10.7208    3.4683 O   0  0  0  0  0  0  0  0  0  0  0  0
   28.1186    8.6097    3.5877 O   0  0  0  0  0  0  0  0  0  0  0  0
   28.1354    7.6729    3.5856 H   0  0  0  0  0  0  0  0  0  0  0  0
   28.3742    2.5080    8.9999 N   0  0  0  0  0  0  0  0  0  0  0  0
   27.8398    2.8716    9.7425 H   0  0  0  0  0  0  0  0  0  0  0  0
   28.2283    0.9980    8.6525 C   0  0  0  0  0  0  0  0  0  0  0  0
   25.3169    0.0082    4.2601 N   0  0  0  0  0  0  0  0  0  0  0  0
   25.8086   -0.2782    3.0655 C   0  0  0  0  0  0  0  0  0  0  0  0
   25.1998   -0.4789    2.0639 N   0  0  0  0  0  0  0  0  0  0  0  0
   27.1467   -0.3512    2.9373 N   0  0  0  0  0  0  0  0  0  0  0  0
   27.9523   -0.1449    3.9296 C   0  0  0  0  0  0  0  0  0  0  0  0
   29.1022   -0.2238    3.7366 O   0  0  0  0  0  0  0  0  0  0  0  0
   27.3720    0.1721    5.1993 C   0  0  0  0  0  0  0  0  0  0  0  0
   28.1893    0.4225    6.3268 N   0  0  0  0  0  0  0  0  0  0  0  0
   27.4749    0.7206    7.4811 C   0  0  0  0  0  0  0  0  0  0  0  0
   26.0746    0.7283    7.4017 C   0  0  0  0  0  0  0  0  0  0  0  0
   25.3794    0.5195    6.4711 N   0  0  0  0  0  0  0  0  0  0  0  0
   26.0635    0.2285    5.3050 C   0  0  0  0  0  0  0  0  0  0  0  0
   24.3391    0.0571    4.3646 H   0  0  0  0  0  0  0  0  0  0  0  0
   24.2159   -0.4446    2.0707 H   0  0  0  0  0  0  0  0  0  0  0  0
   25.6796   -0.6794    1.2280 H   0  0  0  0  0  0  0  0  0  0  0  0
 25 26  1  0  0  0
 25 36  1  0  0  0
 26 27  1  0  0  0
 26 28  2  0  0  0
 28 29  1  0  0  0
 29 30  2  0  0  0
 29 31  1  0  0  0
 31 32  1  0  0  0
 31 36  2  0  0  0
 32 33  2  0  0  0
 33 34  1  0  0  0
 33 24  1  0  0  0
 34 35  2  0  0  0
 35 36  1  0  0  0
 24 22  1  0  0  0
 22  4  1  0  0  0
  1  2  2  0  0  0
  1  6  1  0  0  0
  1  7  1  0  0  0
  2  3  1  0  0  0
  3  4  2  0  0  0
  4  5  1  0  0  0
  5  6  2  0  0  0
  7  8  2  0  0  0
  7  9  1  0  0  0
  9 11  1  0  0  0
 11 16  1  0  0  0
 11 12  1  0  0  0
 16 17  1  0  0  0
 17 18  1  0  0  0
 18 19  2  0  0  0
 18 20  1  0  0  0
 12 13  2  0  0  0
 12 14  1  0  0  0
 25 37  1  0  0  0
 27 38  1  0  0  0
 27 39  1  0  0  0
 22 23  1  0  0  0
  9 10  1  0  0  0
 20 21  1  0  0  0
 14 15  1  0  0  0
M  END
> <minimizedAffinity>
-8.07055

$$$$
2D0K_FOL_A_1161


 39 41  0  0  0  0  0  0  0  0999 V2000
   30.2420    4.9889    5.7323 C   0  0  0  0  0  0  0  0  0  0  0  0
   29.6395    5.2509    6.9975 C   0  0  0  0  0  0  0  0  0  0  0  0
   28.6278    4.3794    7.6523 C   0  0  0  0  0  0  0  0  0  0  0  0
   28.2188    3.1518    6.9447 C   0  0  0  0  0  0  0  0  0  0  0  0
   28.7796    2.9294    5.7819 C   0  0  0  0  0  0  0  0  0  0  0  0
   29.8278    3.8671    5.1370 C   0  0  0  0  0  0  0  0  0  0  0  0
   31.2675    5.8865    5.1103 C   0  0  0  0  0  0  0  0  0  0  0  0
   32.4885    5.4207    4.6145 O   0  0  0  0  0  0  0  0  0  0  0  0
   30.9816    7.1707    5.0224 N   0  0  0  0  0  0  0  0  0  0  0  0
   30.0609    7.4445    5.2379 H   0  0  0  0  0  0  0  0  0  0  0  0
   31.8930    8.1906    4.6426 C   0  0  0  0  0  0  0  0  0  0  0  0
   32.6066    8.6508    5.8027 C   0  0  0  0  0  0  0  0  0  0  0  0
   32.1420    9.5864    6.6352 O   0  0  0  0  0  0  0  0  0  0  0  0
   33.6542    8.0965    5.9242 O   0  0  0  0  0  0  0  0  0  0  0  0
   33.9166    7.4485    5.3004 H   0  0  0  0  0  0  0  0  0  0  0  0
   31.0730    9.5356    4.2435 C   0  0  0  0  0  0  0  0  0  0  0  0
   30.5203    9.3727    2.9458 C   0  0  0  0  0  0  0  0  0  0  0  0
   29.2786    9.6700    3.0810 C   0  0  0  0  0  0  0  0  0  0  0  0
   29.0517   10.9482    2.4211 O   0  0  0  0  0  0  0  0  0  0  0  0
   28.4809    8.8322    3.7430 O   0  0  0  0  0  0  0  0  0  0  0  0
   28.8286    8.0396    4.1021 H   0  0  0  0  0  0  0  0  0  0  0  0
   27.3060    2.3351    7.5362 N   0  0  0  0  0  0  0  0  0  0  0  0
   26.8669    2.6434    8.3617 H   0  0  0  0  0  0  0  0  0  0  0  0
   26.9221    0.9368    6.9712 C   0  0  0  0  0  0  0  0  0  0  0  0
   28.5093   -3.2757    9.8841 N   0  0  0  0  0  0  0  0  0  0  0  0
   29.0534   -3.2109   11.0886 C   0  0  0  0  0  0  0  0  0  0  0  0
   29.4405   -4.1165   11.7550 N   0  0  0  0  0  0  0  0  0  0  0  0
   29.2045   -1.9947   11.6457 N   0  0  0  0  0  0  0  0  0  0  0  0
   28.8467   -0.9054   11.0443 C   0  0  0  0  0  0  0  0  0  0  0  0
   29.0139    0.1124   11.5937 O   0  0  0  0  0  0  0  0  0  0  0  0
   28.2728   -1.0273    9.7386 C   0  0  0  0  0  0  0  0  0  0  0  0
   27.8693    0.1197    9.0149 N   0  0  0  0  0  0  0  0  0  0  0  0
   27.3370   -0.1664    7.7633 C   0  0  0  0  0  0  0  0  0  0  0  0
   27.2538   -1.5126    7.3786 C   0  0  0  0  0  0  0  0  0  0  0  0
   27.5830   -2.4790    7.9707 N   0  0  0  0  0  0  0  0  0  0  0  0
   28.1251   -2.2243    9.2172 C   0  0  0  0  0  0  0  0  0  0  0  0
   28.3889   -4.1615    9.4717 H   0  0  0  0  0  0  0  0  0  0  0  0
   29.3670   -5.0398   11.4213 H   0  0  0  0  0  0  0  0  0  0  0  0
   29.8344   -3.9430   12.6404 H   0  0  0  0  0  0  0  0  0  0  0  0
 25 26  1  0  0  0
 25 36  1  0  0  0
 26 27  1  0  0  0
 26 28  2  0  0  0
 28 29  1  0  0  0
 29 30  2  0  0  0
 29 31  1  0  0  0
 31 32  1  0  0  0
 31 36  2  0  0  0
 32 33  2  0  0  0
 33 34  1  0  0  0
 33 24  1  0  0  0
 34 35  2  0  0  0
 35 36  1  0  0  0
 24 22  1  0  0  0
 22  4  1  0  0  0
  1  2  2  0  0  0
  1  6  1  0  0  0
  1  7  1  0  0  0
  2  3  1  0  0  0
  3  4  2  0  0  0
  4  5  1  0  0  0
  5  6  2  0  0  0
  7  8  2  0  0  0
  7  9  1  0  0  0
  9 11  1  0  0  0
 11 16  1  0  0  0
 11 12  1  0  0  0
 16 17  1  0  0  0
 17 18  1  0  0  0
 18 19  2  0  0  0
 18 20  1  0  0  0
 12 13  2  0  0  0
 12 14  1  0  0  0
 25 37  1  0  0  0
 27 38  1  0  0  0
 27 39  1  0  0  0
 22 23  1  0  0  0
  9 10  1  0  0  0
 20 21  1  0  0  0
 14 15  1  0  0  0
M  END
> <minimizedAffinity>
-8.04244

$$$$
2D0K_FOL_A_1161


 39 41  0  0  0  0  0  0  0  0999 V2000
   27.8886    1.9718    7.4753 C   0  0  0  0  0  0  0  0  0  0  0  0
   28.4314    2.1736    6.1726 C   0  0  0  0  0  0  0  0  0  0  0  0
   29.0385    3.4440    5.6937 C   0  0  0  0  0  0  0  0  0  0  0  0
   29.0868    4.5787    6.6345 C   0  0  0  0  0  0  0  0  0  0  0  0
   28.5797    4.3764    7.8254 C   0  0  0  0  0  0  0  0  0  0  0  0
   27.9550    3.0360    8.2800 C   0  0  0  0  0  0  0  0  0  0  0  0
   27.2952    0.6717    7.9246 C   0  0  0  0  0  0  0  0  0  0  0  0
   26.0956    0.1649    7.4167 O   0  0  0  0  0  0  0  0  0  0  0  0
   27.9564   -0.0197    8.8320 N   0  0  0  0  0  0  0  0  0  0  0  0
   28.8655    0.2836    9.0574 H   0  0  0  0  0  0  0  0  0  0  0  0
   27.4646   -1.1654    9.5106 C   0  0  0  0  0  0  0  0  0  0  0  0
   27.8765   -1.1198   10.8871 C   0  0  0  0  0  0  0  0  0  0  0  0
   27.9670    0.0088   11.5960 O   0  0  0  0  0  0  0  0  0  0  0  0
   28.1244   -2.2059   11.3093 O   0  0  0  0  0  0  0  0  0  0  0  0
   28.0385   -2.9554   10.7535 H   0  0  0  0  0  0  0  0  0  0  0  0
   28.2637   -2.4862    9.0032 C   0  0  0  0  0  0  0  0  0  0  0  0
   27.4876   -3.1452    8.0136 C   0  0  0  0  0  0  0  0  0  0  0  0
   28.2611   -3.2230    6.9917 C   0  0  0  0  0  0  0  0  0  0  0  0
   27.9595   -2.0981    6.1175 O   0  0  0  0  0  0  0  0  0  0  0  0
   29.1305   -4.2302    6.9134 O   0  0  0  0  0  0  0  0  0  0  0  0
   29.1706   -4.8688    7.5980 H   0  0  0  0  0  0  0  0  0  0  0  0
   29.6527    5.7434    6.2183 N   0  0  0  0  0  0  0  0  0  0  0  0
   29.6995    6.4946    6.8530 H   0  0  0  0  0  0  0  0  0  0  0  0
   30.2298    5.9459    4.7873 C   0  0  0  0  0  0  0  0  0  0  0  0
   29.7542   10.9455    2.9093 N   0  0  0  0  0  0  0  0  0  0  0  0
   30.7607   11.7678    2.6607 C   0  0  0  0  0  0  0  0  0  0  0  0
   30.6966   12.8886    2.2689 N   0  0  0  0  0  0  0  0  0  0  0  0
   32.0103   11.3139    2.8722 N   0  0  0  0  0  0  0  0  0  0  0  0
   32.2512   10.1202    3.3117 C   0  0  0  0  0  0  0  0  0  0  0  0
   33.3642    9.8020    3.4723 O   0  0  0  0  0  0  0  0  0  0  0  0
   31.1284    9.2722    3.5756 C   0  0  0  0  0  0  0  0  0  0  0  0
   31.3128    7.9591    4.0693 N   0  0  0  0  0  0  0  0  0  0  0  0
   30.1255    7.2675    4.2783 C   0  0  0  0  0  0  0  0  0  0  0  0
   28.9231    7.9235    3.9765 C   0  0  0  0  0  0  0  0  0  0  0  0
   28.7531    9.0155    3.5625 N   0  0  0  0  0  0  0  0  0  0  0  0
   29.9176    9.7313    3.3531 C   0  0  0  0  0  0  0  0  0  0  0  0
   28.8371   11.2667    2.7512 H   0  0  0  0  0  0  0  0  0  0  0  0
   29.8194   13.2978    2.0890 H   0  0  0  0  0  0  0  0  0  0  0  0
   31.5207   13.4074    2.1243 H   0  0  0  0  0  0  0  0  0  0  0  0
 25 26  1  0  0  0
 25 36  1  0  0  0
 26 27  1  0  0  0
 26 28  2  0  0  0
 28 29  1  0  0  0
 29 30  2  0  0  0
 29 31  1  0  0  0
 31 32  1  0  0  0
 31 36  2  0  0  0
 32 33  2  0  0  0
 33 34  1  0  0  0
 33 24  1  0  0  0
 34 35  2  0  0  0
 35 36  1  0  0  0
 24 22  1  0  0  0
 22  4  1  0  0  0
  1  2  2  0  0  0
  1  6  1  0  0  0
  1  7  1  0  0  0
  2  3  1  0  0  0
  3  4  2  0  0  0
  4  5  1  0  0  0
  5  6  2  0  0  0
  7  8  2  0  0  0
  7  9  1  0  0  0
  9 11  1  0  0  0
 11 16  1  0  0  0
 11 12  1  0  0  0
 16 17  1  0  0  0
 17 18  1  0  0  0
 18 19  2  0  0  0
 18 20  1  0  0  0
 12 13  2  0  0  0
 12 14  1  0  0  0
 25 37  1  0  0  0
 27 38  1  0  0  0
 27 39  1  0  0  0
 22 23  1  0  0  0
  9 10  1  0  0  0
 20 21  1  0  0  0
 14 15  1  0  0  0
M  END
> <minimizedAffinity>
-8.02629

$$$$
2D0K_FOL_A_1161


 39 41  0  0  0  0  0  0  0  0999 V2000
   27.8400    1.7473    7.2875 C   0  0  0  0  0  0  0  0  0  0  0  0
   28.4264    2.2251    6.0792 C   0  0  0  0  0  0  0  0  0  0  0  0
   29.1108    3.5369    5.9289 C   0  0  0  0  0  0  0  0  0  0  0  0
   29.1932    4.4077    7.1164 C   0  0  0  0  0  0  0  0  0  0  0  0
   28.6454    3.9543    8.2166 C   0  0  0  0  0  0  0  0  0  0  0  0
   27.9404    2.5814    8.3261 C   0  0  0  0  0  0  0  0  0  0  0  0
   27.1685    0.4130    7.4021 C   0  0  0  0  0  0  0  0  0  0  0  0
   25.8377    0.1950    7.0347 O   0  0  0  0  0  0  0  0  0  0  0  0
   27.8861   -0.5940    7.8599 N   0  0  0  0  0  0  0  0  0  0  0  0
   28.8541   -0.4482    7.9653 H   0  0  0  0  0  0  0  0  0  0  0  0
   27.3772   -1.8712    8.2132 C   0  0  0  0  0  0  0  0  0  0  0  0
   27.4921   -2.0556    9.6343 C   0  0  0  0  0  0  0  0  0  0  0  0
   28.2376   -3.0092   10.1995 O   0  0  0  0  0  0  0  0  0  0  0  0
   26.8439   -1.2575   10.2361 O   0  0  0  0  0  0  0  0  0  0  0  0
   26.3435   -0.6150    9.7726 H   0  0  0  0  0  0  0  0  0  0  0  0
   28.3855   -3.0283    7.6793 C   0  0  0  0  0  0  0  0  0  0  0  0
   29.5156   -2.4155    7.0766 C   0  0  0  0  0  0  0  0  0  0  0  0
   29.8839   -3.2389    6.1629 C   0  0  0  0  0  0  0  0  0  0  0  0
   30.3591   -2.4613    5.0271 O   0  0  0  0  0  0  0  0  0  0  0  0
   29.7781   -4.5479    6.3906 O   0  0  0  0  0  0  0  0  0  0  0  0
   29.4384   -4.8553    7.2080 H   0  0  0  0  0  0  0  0  0  0  0  0
   29.8293    5.6044    7.0009 N   0  0  0  0  0  0  0  0  0  0  0  0
   29.4522    6.3827    7.4712 H   0  0  0  0  0  0  0  0  0  0  0  0
   31.1246    5.8025    6.1612 C   0  0  0  0  0  0  0  0  0  0  0  0
   31.5156   10.4408    3.5000 N   0  0  0  0  0  0  0  0  0  0  0  0
   30.5530   10.9915    2.7781 C   0  0  0  0  0  0  0  0  0  0  0  0
   30.6075   12.0026    2.1546 N   0  0  0  0  0  0  0  0  0  0  0  0
   29.3686   10.3545    2.7189 N   0  0  0  0  0  0  0  0  0  0  0  0
   29.1505    9.2343    3.3304 C   0  0  0  0  0  0  0  0  0  0  0  0
   28.0956    8.7420    3.2273 O   0  0  0  0  0  0  0  0  0  0  0  0
   30.2266    8.6736    4.0898 C   0  0  0  0  0  0  0  0  0  0  0  0
   30.0669    7.4459    4.7748 N   0  0  0  0  0  0  0  0  0  0  0  0
   31.2040    7.0349    5.4601 C   0  0  0  0  0  0  0  0  0  0  0  0
   32.3367    7.8603    5.4050 C   0  0  0  0  0  0  0  0  0  0  0  0
   32.4846    8.8865    4.8412 N   0  0  0  0  0  0  0  0  0  0  0  0
   31.3714    9.3165    4.1425 C   0  0  0  0  0  0  0  0  0  0  0  0
   32.3831   10.9032    3.5543 H   0  0  0  0  0  0  0  0  0  0  0  0
   31.4384   12.5306    2.1444 H   0  0  0  0  0  0  0  0  0  0  0  0
   29.8216   12.3118    1.6485 H   0  0  0  0  0  0  0  0  0  0  0  0
 25 26  1  0  0  0
 25 36  1  0  0  0
 26 27  1  0  0  0
 26 28  2  0  0  0
 28 29  1  0  0  0
 29 30  2  0  0  0
 29 31  1  0  0  0
 31 32  1  0  0  0
 31 36  2  0  0  0
 32 33  2  0  0  0
 33 34  1  0  0  0
 33 24  1  0  0  0
 34 35  2  0  0  0
 35 36  1  0  0  0
 24 22  1  0  0  0
 22  4  1  0  0  0
  1  2  2  0  0  0
  1  6  1  0  0  0
  1  7  1  0  0  0
  2  3  1  0  0  0
  3  4  2  0  0  0
  4  5  1  0  0  0
  5  6  2  0  0  0
  7  8  2  0  0  0
  7  9  1  0  0  0
  9 11  1  0  0  0
 11 16  1  0  0  0
 11 12  1  0  0  0
 16 17  1  0  0  0
 17 18  1  0  0  0
 18 19  2  0  0  0
 18 20  1  0  0  0
 12 13  2  0  0  0
 12 14  1  0  0  0
 25 37  1  0  0  0
 27 38  1  0  0  0
 27 39  1  0  0  0
 22 23  1  0  0  0
  9 10  1  0  0  0
 20 21  1  0  0  0
 14 15  1  0  0  0
M  END
> <minimizedAffinity>
-7.98502

$$$$
2D0K_FOL_A_1161


 39 41  0  0  0  0  0  0  0  0999 V2000
   28.7977    1.5897    9.4827 C   0  0  0  0  0  0  0  0  0  0  0  0
   27.8207    2.3372    8.7622 C   0  0  0  0  0  0  0  0  0  0  0  0
   28.1026    3.5706    7.9807 C   0  0  0  0  0  0  0  0  0  0  0  0
   29.4946    4.0563    7.9438 C   0  0  0  0  0  0  0  0  0  0  0  0
   30.3779    3.3595    8.6148 C   0  0  0  0  0  0  0  0  0  0  0  0
   30.0381    2.0812    9.4174 C   0  0  0  0  0  0  0  0  0  0  0  0
   28.4761    0.3438   10.2499 C   0  0  0  0  0  0  0  0  0  0  0  0
   28.1175    0.3513   11.6009 O   0  0  0  0  0  0  0  0  0  0  0  0
   28.5253   -0.8026    9.6004 N   0  0  0  0  0  0  0  0  0  0  0  0
   28.6299   -0.7638    8.6222 H   0  0  0  0  0  0  0  0  0  0  0  0
   28.4397   -2.0882   10.1962 C   0  0  0  0  0  0  0  0  0  0  0  0
   29.7621   -2.5648   10.4975 C   0  0  0  0  0  0  0  0  0  0  0  0
   30.2312   -2.7120   11.7396 O   0  0  0  0  0  0  0  0  0  0  0  0
   30.3790   -2.8084    9.5078 O   0  0  0  0  0  0  0  0  0  0  0  0
   29.9854   -2.6810    8.6671 H   0  0  0  0  0  0  0  0  0  0  0  0
   27.9763   -3.1771    9.0825 C   0  0  0  0  0  0  0  0  0  0  0  0
   27.3243   -2.5013    8.0177 C   0  0  0  0  0  0  0  0  0  0  0  0
   27.9880   -2.8297    6.9687 C   0  0  0  0  0  0  0  0  0  0  0  0
   27.6404   -1.8925    5.9097 O   0  0  0  0  0  0  0  0  0  0  0  0
   28.8088   -3.8783    7.0242 O   0  0  0  0  0  0  0  0  0  0  0  0
   28.8946   -4.3644    7.8206 H   0  0  0  0  0  0  0  0  0  0  0  0
   29.7731    5.1743    7.2209 N   0  0  0  0  0  0  0  0  0  0  0  0
   29.7861    6.0419    7.6861 H   0  0  0  0  0  0  0  0  0  0  0  0
   30.0721    5.1483    5.6938 C   0  0  0  0  0  0  0  0  0  0  0  0
   31.5647    0.3613    3.7952 N   0  0  0  0  0  0  0  0  0  0  0  0
   30.7412   -0.5825    3.3684 C   0  0  0  0  0  0  0  0  0  0  0  0
   31.0297   -1.6632    2.9646 N   0  0  0  0  0  0  0  0  0  0  0  0
   29.4208   -0.3208    3.3876 N   0  0  0  0  0  0  0  0  0  0  0  0
   28.9415    0.8047    3.8117 C   0  0  0  0  0  0  0  0  0  0  0  0
   27.7825    0.9540    3.7994 O   0  0  0  0  0  0  0  0  0  0  0  0
   29.8723    1.7895    4.2729 C   0  0  0  0  0  0  0  0  0  0  0  0
   29.4221    3.0384    4.7625 N   0  0  0  0  0  0  0  0  0  0  0  0
   30.4476    3.8804    5.1762 C   0  0  0  0  0  0  0  0  0  0  0  0
   31.7656    3.4164    5.0552 C   0  0  0  0  0  0  0  0  0  0  0  0
   32.1569    2.3803    4.6473 N   0  0  0  0  0  0  0  0  0  0  0  0
   31.1573    1.5176    4.2364 C   0  0  0  0  0  0  0  0  0  0  0  0
   32.5324    0.1810    3.7784 H   0  0  0  0  0  0  0  0  0  0  0  0
   31.9748   -1.9350    2.9179 H   0  0  0  0  0  0  0  0  0  0  0  0
   30.3236   -2.2860    2.6771 H   0  0  0  0  0  0  0  0  0  0  0  0
 25 26  1  0  0  0
 25 36  1  0  0  0
 26 27  1  0  0  0
 26 28  2  0  0  0
 28 29  1  0  0  0
 29 30  2  0  0  0
 29 31  1  0  0  0
 31 32  1  0  0  0
 31 36  2  0  0  0
 32 33  2  0  0  0
 33 34  1  0  0  0
 33 24  1  0  0  0
 34 35  2  0  0  0
 35 36  1  0  0  0
 24 22  1  0  0  0
 22  4  1  0  0  0
  1  2  2  0  0  0
  1  6  1  0  0  0
  1  7  1  0  0  0
  2  3  1  0  0  0
  3  4  2  0  0  0
  4  5  1  0  0  0
  5  6  2  0  0  0
  7  8  2  0  0  0
  7  9  1  0  0  0
  9 11  1  0  0  0
 11 16  1  0  0  0
 11 12  1  0  0  0
 16 17  1  0  0  0
 17 18  1  0  0  0
 18 19  2  0  0  0
 18 20  1  0  0  0
 12 13  2  0  0  0
 12 14  1  0  0  0
 25 37  1  0  0  0
 27 38  1  0  0  0
 27 39  1  0  0  0
 22 23  1  0  0  0
  9 10  1  0  0  0
 20 21  1  0  0  0
 14 15  1  0  0  0
M  END
> <minimizedAffinity>
-7.90449

$$$$
2D0K_FOL_A_1161


 39 41  0  0  0  0  0  0  0  0999 V2000
   30.4073    5.3994    7.0842 C   0  0  0  0  0  0  0  0  0  0  0  0
   29.0236    5.2875    7.4085 C   0  0  0  0  0  0  0  0  0  0  0  0
   28.3972    4.1054    8.0579 C   0  0  0  0  0  0  0  0  0  0  0  0
   29.2697    2.9653    8.3954 C   0  0  0  0  0  0  0  0  0  0  0  0
   30.5372    3.0840    8.0864 C   0  0  0  0  0  0  0  0  0  0  0  0
   31.1456    4.3342    7.4077 C   0  0  0  0  0  0  0  0  0  0  0  0
   31.0035    6.6133    6.4397 C   0  0  0  0  0  0  0  0  0  0  0  0
   31.7462    7.5643    7.1452 O   0  0  0  0  0  0  0  0  0  0  0  0
   30.8204    6.7679    5.1431 N   0  0  0  0  0  0  0  0  0  0  0  0
   30.4282    6.0123    4.6488 H   0  0  0  0  0  0  0  0  0  0  0  0
   31.1425    7.9349    4.4018 C   0  0  0  0  0  0  0  0  0  0  0  0
   30.1178    8.1780    3.4232 C   0  0  0  0  0  0  0  0  0  0  0  0
   30.3694    8.4622    2.1424 O   0  0  0  0  0  0  0  0  0  0  0  0
   29.0276    8.0945    3.8964 O   0  0  0  0  0  0  0  0  0  0  0  0
   28.9258    7.8911    4.8054 H   0  0  0  0  0  0  0  0  0  0  0  0
   32.4137    7.6349    3.4351 C   0  0  0  0  0  0  0  0  0  0  0  0
   33.5787    7.4910    4.2338 C   0  0  0  0  0  0  0  0  0  0  0  0
   33.8634    8.6843    4.6125 C   0  0  0  0  0  0  0  0  0  0  0  0
   33.9622    9.5181    3.4227 O   0  0  0  0  0  0  0  0  0  0  0  0
   34.0063    8.9334    5.9141 O   0  0  0  0  0  0  0  0  0  0  0  0
   33.8995    8.2424    6.5378 H   0  0  0  0  0  0  0  0  0  0  0  0
   28.7162    1.8821    9.0040 N   0  0  0  0  0  0  0  0  0  0  0  0
   28.2966    2.0039    9.8862 H   0  0  0  0  0  0  0  0  0  0  0  0
   28.7143    0.4595    8.3730 C   0  0  0  0  0  0  0  0  0  0  0  0
   25.4989   -0.0801    4.1164 N   0  0  0  0  0  0  0  0  0  0  0  0
   25.8672    0.0770    2.8552 C   0  0  0  0  0  0  0  0  0  0  0  0
   25.1817   -0.0090    1.8874 N   0  0  0  0  0  0  0  0  0  0  0  0
   27.1569    0.3746    2.6093 N   0  0  0  0  0  0  0  0  0  0  0  0
   28.0298    0.5171    3.5547 C   0  0  0  0  0  0  0  0  0  0  0  0
   29.1299    0.7787    3.2595 O   0  0  0  0  0  0  0  0  0  0  0  0
   27.5799    0.3476    4.9030 C   0  0  0  0  0  0  0  0  0  0  0  0
   28.4736    0.5001    5.9893 N   0  0  0  0  0  0  0  0  0  0  0  0
   27.8820    0.3088    7.2324 C   0  0  0  0  0  0  0  0  0  0  0  0
   26.5172   -0.0128    7.2661 C   0  0  0  0  0  0  0  0  0  0  0  0
   25.7601   -0.1459    6.3706 N   0  0  0  0  0  0  0  0  0  0  0  0
   26.3193    0.0476    5.1206 C   0  0  0  0  0  0  0  0  0  0  0  0
   24.5590   -0.3044    4.3053 H   0  0  0  0  0  0  0  0  0  0  0  0
   24.2253   -0.2237    1.9791 H   0  0  0  0  0  0  0  0  0  0  0  0
   25.5705    0.1346    0.9944 H   0  0  0  0  0  0  0  0  0  0  0  0
 25 26  1  0  0  0
 25 36  1  0  0  0
 26 27  1  0  0  0
 26 28  2  0  0  0
 28 29  1  0  0  0
 29 30  2  0  0  0
 29 31  1  0  0  0
 31 32  1  0  0  0
 31 36  2  0  0  0
 32 33  2  0  0  0
 33 34  1  0  0  0
 33 24  1  0  0  0
 34 35  2  0  0  0
 35 36  1  0  0  0
 24 22  1  0  0  0
 22  4  1  0  0  0
  1  2  2  0  0  0
  1  6  1  0  0  0
  1  7  1  0  0  0
  2  3  1  0  0  0
  3  4  2  0  0  0
  4  5  1  0  0  0
  5  6  2  0  0  0
  7  8  2  0  0  0
  7  9  1  0  0  0
  9 11  1  0  0  0
 11 16  1  0  0  0
 11 12  1  0  0  0
 16 17  1  0  0  0
 17 18  1  0  0  0
 18 19  2  0  0  0
 18 20  1  0  0  0
 12 13  2  0  0  0
 12 14  1  0  0  0
 25 37  1  0  0  0
 27 38  1  0  0  0
 27 39  1  0  0  0
 22 23  1  0  0  0
  9 10  1  0  0  0
 20 21  1  0  0  0
 14 15  1  0  0  0
M  END
> <minimizedAffinity>
-7.61245

$$$$
2D0K_FOL_A_1161


 39 41  0  0  0  0  0  0  0  0999 V2000
   31.0309    6.0849    5.7892 C   0  0  0  0  0  0  0  0  0  0  0  0
   29.8767    5.3103    5.4725 C   0  0  0  0  0  0  0  0  0  0  0  0
   29.5609    3.9800    6.0575 C   0  0  0  0  0  0  0  0  0  0  0  0
   30.5076    3.4204    7.0401 C   0  0  0  0  0  0  0  0  0  0  0  0
   31.5643    4.1440    7.3158 C   0  0  0  0  0  0  0  0  0  0  0  0
   31.8538    5.5243    6.6796 C   0  0  0  0  0  0  0  0  0  0  0  0
   31.3084    7.4280    5.1863 C   0  0  0  0  0  0  0  0  0  0  0  0
   32.1588    8.3676    5.7760 O   0  0  0  0  0  0  0  0  0  0  0  0
   30.7254    7.7141    4.0388 N   0  0  0  0  0  0  0  0  0  0  0  0
   30.2579    6.9825    3.5746 H   0  0  0  0  0  0  0  0  0  0  0  0
   30.7167    8.9906    3.4180 C   0  0  0  0  0  0  0  0  0  0  0  0
   29.3586    9.4289    3.2443 C   0  0  0  0  0  0  0  0  0  0  0  0
   28.2956    8.7151    3.6250 O   0  0  0  0  0  0  0  0  0  0  0  0
   29.3040   10.4986    2.7227 O   0  0  0  0  0  0  0  0  0  0  0  0
   30.0928   10.9432    2.4818 H   0  0  0  0  0  0  0  0  0  0  0  0
   31.1851    8.8482    1.8685 C   0  0  0  0  0  0  0  0  0  0  0  0
   32.0665    7.7413    1.7513 C   0  0  0  0  0  0  0  0  0  0  0  0
   32.4727    7.7760    0.5337 C   0  0  0  0  0  0  0  0  0  0  0  0
   33.5438    6.7995    0.3931 O   0  0  0  0  0  0  0  0  0  0  0  0
   31.8953    8.6240   -0.3172 O   0  0  0  0  0  0  0  0  0  0  0  0
   31.2038    9.1841   -0.0237 H   0  0  0  0  0  0  0  0  0  0  0  0
   30.2265    2.2117    7.5970 N   0  0  0  0  0  0  0  0  0  0  0  0
   29.8443    2.1913    8.5040 H   0  0  0  0  0  0  0  0  0  0  0  0
   30.4798    0.8595    6.8694 C   0  0  0  0  0  0  0  0  0  0  0  0
   27.0884   -0.3385    2.8930 N   0  0  0  0  0  0  0  0  0  0  0  0
   25.7697   -0.3736    2.9973 C   0  0  0  0  0  0  0  0  0  0  0  0
   24.9863   -0.6580    2.1491 N   0  0  0  0  0  0  0  0  0  0  0  0
   25.2248   -0.0633    4.1885 N   0  0  0  0  0  0  0  0  0  0  0  0
   25.9412    0.2549    5.2189 C   0  0  0  0  0  0  0  0  0  0  0  0
   25.3928    0.5085    6.2192 O   0  0  0  0  0  0  0  0  0  0  0  0
   27.3636    0.2684    5.0582 C   0  0  0  0  0  0  0  0  0  0  0  0
   28.2119    0.5942    6.1428 N   0  0  0  0  0  0  0  0  0  0  0  0
   29.5648    0.5573    5.8263 C   0  0  0  0  0  0  0  0  0  0  0  0
   29.9215    0.2234    4.5116 C   0  0  0  0  0  0  0  0  0  0  0  0
   29.2271   -0.0480    3.5967 N   0  0  0  0  0  0  0  0  0  0  0  0
   27.8746   -0.0281    3.8846 C   0  0  0  0  0  0  0  0  0  0  0  0
   27.4953   -0.5576    2.0237 H   0  0  0  0  0  0  0  0  0  0  0  0
   25.3019   -0.8980    1.2480 H   0  0  0  0  0  0  0  0  0  0  0  0
   24.0221   -0.6533    2.3481 H   0  0  0  0  0  0  0  0  0  0  0  0
 25 26  1  0  0  0
 25 36  1  0  0  0
 26 27  1  0  0  0
 26 28  2  0  0  0
 28 29  1  0  0  0
 29 30  2  0  0  0
 29 31  1  0  0  0
 31 32  1  0  0  0
 31 36  2  0  0  0
 32 33  2  0  0  0
 33 34  1  0  0  0
 33 24  1  0  0  0
 34 35  2  0  0  0
 35 36  1  0  0  0
 24 22  1  0  0  0
 22  4  1  0  0  0
  1  2  2  0  0  0
  1  6  1  0  0  0
  1  7  1  0  0  0
  2  3  1  0  0  0
  3  4  2  0  0  0
  4  5  1  0  0  0
  5  6  2  0  0  0
  7  8  2  0  0  0
  7  9  1  0  0  0
  9 11  1  0  0  0
 11 16  1  0  0  0
 11 12  1  0  0  0
 16 17  1  0  0  0
 17 18  1  0  0  0
 18 19  2  0  0  0
 18 20  1  0  0  0
 12 13  2  0  0  0
 12 14  1  0  0  0
 25 37  1  0  0  0
 27 38  1  0  0  0
 27 39  1  0  0  0
 22 23  1  0  0  0
  9 10  1  0  0  0
 20 21  1  0  0  0
 14 15  1  0  0  0
M  END
> <minimizedAffinity>
-7.59357

$$$$
