5FUT_PQ7_A_1467


 38 42  0  0  0  0  0  0  0  0999 V2000
   14.5934  -21.0005    6.5766 C   0  0  0  0  0  0  0  0  0  0  0  0
   11.2524  -19.1190    5.2866 C   0  0  0  0  0  0  0  0  0  0  0  0
   11.2006  -20.4912    5.4734 C   0  0  0  0  0  0  0  0  0  0  0  0
   12.3196  -21.1692    5.8808 C   0  0  0  0  0  0  0  0  0  0  0  0
   13.4611  -20.4265    6.1167 C   0  0  0  0  0  0  0  0  0  0  0  0
   13.5151  -19.0457    5.9800 C   0  0  0  0  0  0  0  0  0  0  0  0
   12.3963  -18.3726    5.5516 C   0  0  0  0  0  0  0  0  0  0  0  0
   10.0773  -18.5127    4.9718 C   0  0  0  0  0  0  0  0  0  0  0  0
    9.7425  -18.1737    6.4027 N   0  0  0  0  0  0  0  0  0  0  0  0
   10.1473  -16.9656    7.0194 C   0  0  0  0  0  0  0  0  0  0  0  0
    9.7630  -16.6945    8.3298 C   0  0  0  0  0  0  0  0  0  0  0  0
    8.9602  -17.5956    9.0261 C   0  0  0  0  0  0  0  0  0  0  0  0
    8.5383  -18.7742    8.4391 C   0  0  0  0  0  0  0  0  0  0  0  0
    8.9202  -19.0500    7.1429 C   0  0  0  0  0  0  0  0  0  0  0  0
    8.5919  -17.3727   10.2749 N   0  0  0  0  0  0  0  0  0  0  0  0
    7.7246  -18.0179   11.2077 C   0  0  0  0  0  0  0  0  0  0  0  0
    7.2701  -16.9203   12.2428 C   0  0  0  0  0  0  0  0  0  0  0  0
    8.9627  -16.2778   11.1077 C   0  0  0  0  0  0  0  0  0  0  0  0
    8.7046  -16.7037   12.5848 C   0  0  0  0  0  0  0  0  0  0  0  0
   14.0297  -21.9215    7.7042 C   0  0  0  0  0  0  0  0  0  0  0  0
   14.5486  -23.3674    7.7072 C   0  0  0  0  0  0  0  0  0  0  0  0
   13.4745  -24.3501    7.2296 C   0  0  0  0  0  0  0  0  0  0  0  0
   13.6140  -24.4384    5.8524 C   0  0  0  0  0  0  0  0  0  0  0  0
   14.7796  -24.2283    5.1106 C   0  0  0  0  0  0  0  0  0  0  0  0
   14.7234  -24.3769    3.7160 C   0  0  0  0  0  0  0  0  0  0  0  0
   13.5208  -24.7247    3.0871 C   0  0  0  0  0  0  0  0  0  0  0  0
   12.3848  -24.9402    3.8460 C   0  0  0  0  0  0  0  0  0  0  0  0
   12.4381  -24.7948    5.2174 C   0  0  0  0  0  0  0  0  0  0  0  0
   13.3864  -24.9162    1.7098 C   0  0  0  0  0  0  0  0  0  0  0  0
   14.4190  -25.7387    1.0406 N   0  0  0  0  0  0  0  0  0  0  0  0
   14.4031  -27.1446    1.0564 C   0  0  0  0  0  0  0  0  0  0  0  0
   15.4098  -27.8632    0.4126 C   0  0  0  0  0  0  0  0  0  0  0  0
   16.4545  -27.1984   -0.2282 C   0  0  0  0  0  0  0  0  0  0  0  0
   16.4699  -25.8047   -0.2399 C   0  0  0  0  0  0  0  0  0  0  0  0
   15.4668  -25.0774    0.3900 C   0  0  0  0  0  0  0  0  0  0  0  0
   17.4259  -27.8697   -0.8571 N   0  0  0  0  0  0  0  0  0  0  0  0
   18.8326  -27.4609   -0.6848 C   0  0  0  0  0  0  0  0  0  0  0  0
   17.0583  -29.0413   -1.6602 C   0  0  0  0  0  0  0  0  0  0  0  0
 29 30  1  0  0  0
 29 26  1  0  0  0
 30 31  2  0  0  0
 30 35  1  0  0  0
 31 32  1  0  0  0
 32 33  2  0  0  0
 33 34  1  0  0  0
 33 36  1  0  0  0
 34 35  2  0  0  0
 36 37  1  0  0  0
 36 38  1  0  0  0
  9 10  2  0  0  0
  9 14  1  0  0  0
  9  8  1  0  0  0
 10 11  1  0  0  0
 11 12  2  0  0  0
 12 13  1  0  0  0
 12 15  1  0  0  0
 13 14  2  0  0  0
 15 16  1  0  0  0
 15 18  1  0  0  0
 16 17  1  0  0  0
 17 19  1  0  0  0
 18 19  1  0  0  0
  8  2  1  0  0  0
  2  3  2  0  0  0
  2  7  1  0  0  0
  3  4  1  0  0  0
  4  5  2  0  0  0
  5  6  1  0  0  0
  5  1  1  0  0  0
  6  7  2  0  0  0
  1 20  1  0  0  0
 20 21  1  0  0  0
 21 22  1  0  0  0
 22 23  1  0  0  0
 23 24  2  0  0  0
 23 28  1  0  0  0
 24 25  1  0  0  0
 25 26  2  0  0  0
 26 27  1  0  0  0
 27 28  2  0  0  0
M  CHG 1   9   1
M  CHG 1  30   1
M  END
> <minimizedAffinity>
-10.40171

$$$$
5FUT_PQ7_A_1467


 38 42  0  0  0  0  0  0  0  0999 V2000
   14.6735  -24.0431    6.6727 C   0  0  0  0  0  0  0  0  0  0  0  0
   12.4604  -24.9245    3.4029 C   0  0  0  0  0  0  0  0  0  0  0  0
   11.8088  -24.7933    4.6189 C   0  0  0  0  0  0  0  0  0  0  0  0
   12.5268  -24.5246    5.7547 C   0  0  0  0  0  0  0  0  0  0  0  0
   13.8933  -24.3671    5.6195 C   0  0  0  0  0  0  0  0  0  0  0  0
   14.5541  -24.4484    4.4009 C   0  0  0  0  0  0  0  0  0  0  0  0
   13.8326  -24.7381    3.2678 C   0  0  0  0  0  0  0  0  0  0  0  0
   11.6662  -25.0988    2.3137 C   0  0  0  0  0  0  0  0  0  0  0  0
   11.2195  -23.6589    2.2726 N   0  0  0  0  0  0  0  0  0  0  0  0
   12.0774  -22.6006    1.8885 C   0  0  0  0  0  0  0  0  0  0  0  0
   11.5865  -21.2992    1.8264 C   0  0  0  0  0  0  0  0  0  0  0  0
   10.2484  -21.0396    2.1153 C   0  0  0  0  0  0  0  0  0  0  0  0
    9.3872  -22.0592    2.4763 C   0  0  0  0  0  0  0  0  0  0  0  0
    9.8695  -23.3495    2.5442 C   0  0  0  0  0  0  0  0  0  0  0  0
    9.7578  -19.8137    2.0791 N   0  0  0  0  0  0  0  0  0  0  0  0
    8.4704  -19.2426    1.8446 C   0  0  0  0  0  0  0  0  0  0  0  0
    8.7101  -17.7710    1.3348 C   0  0  0  0  0  0  0  0  0  0  0  0
   10.4686  -18.5886    2.2322 C   0  0  0  0  0  0  0  0  0  0  0  0
    9.4307  -17.4881    2.6085 C   0  0  0  0  0  0  0  0  0  0  0  0
   14.0470  -22.6802    7.1058 C   0  0  0  0  0  0  0  0  0  0  0  0
   14.6462  -21.4297    6.4446 C   0  0  0  0  0  0  0  0  0  0  0  0
   13.9973  -21.1480    5.0855 C   0  0  0  0  0  0  0  0  0  0  0  0
   12.8219  -20.4613    5.3515 C   0  0  0  0  0  0  0  0  0  0  0  0
   11.5299  -20.9921    5.3957 C   0  0  0  0  0  0  0  0  0  0  0  0
   10.4613  -20.1329    5.6955 C   0  0  0  0  0  0  0  0  0  0  0  0
   10.6911  -18.7728    5.9402 C   0  0  0  0  0  0  0  0  0  0  0  0
   11.9812  -18.2757    5.9035 C   0  0  0  0  0  0  0  0  0  0  0  0
   13.0333  -19.1189    5.6093 C   0  0  0  0  0  0  0  0  0  0  0  0
    9.6879  -17.8578    6.2690 C   0  0  0  0  0  0  0  0  0  0  0  0
    9.4211  -17.6397    7.7084 N   0  0  0  0  0  0  0  0  0  0  0  0
    8.6764  -18.5394    8.4914 C   0  0  0  0  0  0  0  0  0  0  0  0
    8.4534  -18.2734    9.8418 C   0  0  0  0  0  0  0  0  0  0  0  0
    8.9409  -17.1032   10.4223 C   0  0  0  0  0  0  0  0  0  0  0  0
    9.6762  -16.2113    9.6435 C   0  0  0  0  0  0  0  0  0  0  0  0
    9.9134  -16.4702    8.2987 C   0  0  0  0  0  0  0  0  0  0  0  0
    8.7432  -16.8332   11.7177 N   0  0  0  0  0  0  0  0  0  0  0  0
    7.4288  -17.0990   12.3318 C   0  0  0  0  0  0  0  0  0  0  0  0
    9.8734  -16.3306   12.5068 C   0  0  0  0  0  0  0  0  0  0  0  0
 29 30  1  0  0  0
 29 26  1  0  0  0
 30 31  2  0  0  0
 30 35  1  0  0  0
 31 32  1  0  0  0
 32 33  2  0  0  0
 33 34  1  0  0  0
 33 36  1  0  0  0
 34 35  2  0  0  0
 36 37  1  0  0  0
 36 38  1  0  0  0
  9 10  2  0  0  0
  9 14  1  0  0  0
  9  8  1  0  0  0
 10 11  1  0  0  0
 11 12  2  0  0  0
 12 13  1  0  0  0
 12 15  1  0  0  0
 13 14  2  0  0  0
 15 16  1  0  0  0
 15 18  1  0  0  0
 16 17  1  0  0  0
 17 19  1  0  0  0
 18 19  1  0  0  0
  8  2  1  0  0  0
  2  3  2  0  0  0
  2  7  1  0  0  0
  3  4  1  0  0  0
  4  5  2  0  0  0
  5  6  1  0  0  0
  5  1  1  0  0  0
  6  7  2  0  0  0
  1 20  1  0  0  0
 20 21  1  0  0  0
 21 22  1  0  0  0
 22 23  1  0  0  0
 23 24  2  0  0  0
 23 28  1  0  0  0
 24 25  1  0  0  0
 25 26  2  0  0  0
 26 27  1  0  0  0
 27 28  2  0  0  0
M  CHG 1   9   1
M  CHG 1  30   1
M  END
> <minimizedAffinity>
-10.03087

$$$$
5FUT_PQ7_A_1467


 38 42  0  0  0  0  0  0  0  0999 V2000
   14.5954  -21.0793    6.0846 C   0  0  0  0  0  0  0  0  0  0  0  0
   11.2064  -19.1597    4.9910 C   0  0  0  0  0  0  0  0  0  0  0  0
   11.2900  -20.5237    4.7604 C   0  0  0  0  0  0  0  0  0  0  0  0
   12.4328  -21.2045    5.0894 C   0  0  0  0  0  0  0  0  0  0  0  0
   13.4561  -20.4823    5.6739 C   0  0  0  0  0  0  0  0  0  0  0  0
   13.3688  -19.1252    5.9547 C   0  0  0  0  0  0  0  0  0  0  0  0
   12.2288  -18.4426    5.6045 C   0  0  0  0  0  0  0  0  0  0  0  0
   10.0071  -18.5793    4.7218 C   0  0  0  0  0  0  0  0  0  0  0  0
    9.7162  -18.2548    6.1656 N   0  0  0  0  0  0  0  0  0  0  0  0
   10.1196  -17.0428    6.7755 C   0  0  0  0  0  0  0  0  0  0  0  0
    9.7763  -16.7866    8.1002 C   0  0  0  0  0  0  0  0  0  0  0  0
    9.0153  -17.7067    8.8183 C   0  0  0  0  0  0  0  0  0  0  0  0
    8.5953  -18.8896    8.2389 C   0  0  0  0  0  0  0  0  0  0  0  0
    8.9368  -19.1507    6.9284 C   0  0  0  0  0  0  0  0  0  0  0  0
    8.6868  -17.4978   10.0805 N   0  0  0  0  0  0  0  0  0  0  0  0
    7.5908  -17.8665   10.9181 C   0  0  0  0  0  0  0  0  0  0  0  0
    7.5196  -16.7971   12.0733 C   0  0  0  0  0  0  0  0  0  0  0  0
    9.3906  -16.7193   11.0440 C   0  0  0  0  0  0  0  0  0  0  0  0
    8.9101  -17.1737   12.4556 C   0  0  0  0  0  0  0  0  0  0  0  0
   14.2663  -21.3601    7.5847 C   0  0  0  0  0  0  0  0  0  0  0  0
   13.7601  -22.7750    7.9038 C   0  0  0  0  0  0  0  0  0  0  0  0
   14.6890  -23.8472    7.3246 C   0  0  0  0  0  0  0  0  0  0  0  0
   14.1478  -24.2089    6.0998 C   0  0  0  0  0  0  0  0  0  0  0  0
   14.8061  -24.2443    4.8676 C   0  0  0  0  0  0  0  0  0  0  0  0
   14.0863  -24.6518    3.7337 C   0  0  0  0  0  0  0  0  0  0  0  0
   12.7362  -25.0102    3.8409 C   0  0  0  0  0  0  0  0  0  0  0  0
   12.1122  -24.9793    5.0747 C   0  0  0  0  0  0  0  0  0  0  0  0
   12.8183  -24.5792    6.1909 C   0  0  0  0  0  0  0  0  0  0  0  0
   11.9571  -25.4497    2.7678 C   0  0  0  0  0  0  0  0  0  0  0  0
   11.3708  -24.4109    1.8916 N   0  0  0  0  0  0  0  0  0  0  0  0
   10.5762  -23.3592    2.3811 C   0  0  0  0  0  0  0  0  0  0  0  0
   10.0462  -22.4150    1.5026 C   0  0  0  0  0  0  0  0  0  0  0  0
   10.2743  -22.5183    0.1310 C   0  0  0  0  0  0  0  0  0  0  0  0
   11.0597  -23.5635   -0.3523 C   0  0  0  0  0  0  0  0  0  0  0  0
   11.6016  -24.5052    0.5145 C   0  0  0  0  0  0  0  0  0  0  0  0
    9.7802  -21.6188   -0.7273 N   0  0  0  0  0  0  0  0  0  0  0  0
   10.1772  -21.6620   -2.1471 C   0  0  0  0  0  0  0  0  0  0  0  0
    8.8019  -20.6443   -0.2315 C   0  0  0  0  0  0  0  0  0  0  0  0
 29 30  1  0  0  0
 29 26  1  0  0  0
 30 31  2  0  0  0
 30 35  1  0  0  0
 31 32  1  0  0  0
 32 33  2  0  0  0
 33 34  1  0  0  0
 33 36  1  0  0  0
 34 35  2  0  0  0
 36 37  1  0  0  0
 36 38  1  0  0  0
  9 10  2  0  0  0
  9 14  1  0  0  0
  9  8  1  0  0  0
 10 11  1  0  0  0
 11 12  2  0  0  0
 12 13  1  0  0  0
 12 15  1  0  0  0
 13 14  2  0  0  0
 15 16  1  0  0  0
 15 18  1  0  0  0
 16 17  1  0  0  0
 17 19  1  0  0  0
 18 19  1  0  0  0
  8  2  1  0  0  0
  2  3  2  0  0  0
  2  7  1  0  0  0
  3  4  1  0  0  0
  4  5  2  0  0  0
  5  6  1  0  0  0
  5  1  1  0  0  0
  6  7  2  0  0  0
  1 20  1  0  0  0
 20 21  1  0  0  0
 21 22  1  0  0  0
 22 23  1  0  0  0
 23 24  2  0  0  0
 23 28  1  0  0  0
 24 25  1  0  0  0
 25 26  2  0  0  0
 26 27  1  0  0  0
 27 28  2  0  0  0
M  CHG 1   9   1
M  CHG 1  30   1
M  END
> <minimizedAffinity>
-9.84295

$$$$
5FUT_PQ7_A_1467


 38 42  0  0  0  0  0  0  0  0999 V2000
   13.9815  -20.4294    6.4138 C   0  0  0  0  0  0  0  0  0  0  0  0
   11.5575  -21.5324    3.3685 C   0  0  0  0  0  0  0  0  0  0  0  0
   12.8993  -21.3209    3.0939 C   0  0  0  0  0  0  0  0  0  0  0  0
   13.7468  -20.9176    4.0922 C   0  0  0  0  0  0  0  0  0  0  0  0
   13.2112  -20.7664    5.3574 C   0  0  0  0  0  0  0  0  0  0  0  0
   11.8794  -21.0206    5.6576 C   0  0  0  0  0  0  0  0  0  0  0  0
   11.0289  -21.4052    4.6492 C   0  0  0  0  0  0  0  0  0  0  0  0
   10.8063  -22.0191    2.3455 C   0  0  0  0  0  0  0  0  0  0  0  0
   10.2684  -20.6662    1.9516 N   0  0  0  0  0  0  0  0  0  0  0  0
   11.0088  -19.7431    1.1751 C   0  0  0  0  0  0  0  0  0  0  0  0
   10.4334  -18.5300    0.8065 C   0  0  0  0  0  0  0  0  0  0  0  0
    9.1233  -18.2337    1.1770 C   0  0  0  0  0  0  0  0  0  0  0  0
    8.3746  -19.1267    1.9210 C   0  0  0  0  0  0  0  0  0  0  0  0
    8.9415  -20.3277    2.2930 C   0  0  0  0  0  0  0  0  0  0  0  0
    8.5558  -17.0853    0.8546 N   0  0  0  0  0  0  0  0  0  0  0  0
    7.9148  -16.0326    1.5754 C   0  0  0  0  0  0  0  0  0  0  0  0
    6.9463  -15.3108    0.5635 C   0  0  0  0  0  0  0  0  0  0  0  0
    8.3633  -16.5477   -0.4506 C   0  0  0  0  0  0  0  0  0  0  0  0
    8.1274  -15.0146   -0.2961 C   0  0  0  0  0  0  0  0  0  0  0  0
   13.6331  -21.5718    7.4193 C   0  0  0  0  0  0  0  0  0  0  0  0
   14.4895  -22.8424    7.3094 C   0  0  0  0  0  0  0  0  0  0  0  0
   13.6242  -24.0828    7.0633 C   0  0  0  0  0  0  0  0  0  0  0  0
   13.6938  -24.3407    5.7023 C   0  0  0  0  0  0  0  0  0  0  0  0
   14.8136  -24.2051    4.8773 C   0  0  0  0  0  0  0  0  0  0  0  0
   14.6883  -24.5285    3.5172 C   0  0  0  0  0  0  0  0  0  0  0  0
   13.4633  -24.9733    3.0033 C   0  0  0  0  0  0  0  0  0  0  0  0
   12.3740  -25.1115    3.8442 C   0  0  0  0  0  0  0  0  0  0  0  0
   12.4953  -24.7944    5.1819 C   0  0  0  0  0  0  0  0  0  0  0  0
   13.2619  -25.3384    1.6699 C   0  0  0  0  0  0  0  0  0  0  0  0
   14.3692  -26.0487    0.9918 N   0  0  0  0  0  0  0  0  0  0  0  0
   14.5596  -27.4382    1.0925 C   0  0  0  0  0  0  0  0  0  0  0  0
   15.6274  -28.0478    0.4350 C   0  0  0  0  0  0  0  0  0  0  0  0
   16.5311  -27.2857   -0.3044 C   0  0  0  0  0  0  0  0  0  0  0  0
   16.3421  -25.9080   -0.4002 C   0  0  0  0  0  0  0  0  0  0  0  0
   15.2759  -25.2902    0.2427 C   0  0  0  0  0  0  0  0  0  0  0  0
   17.5579  -27.8526   -0.9479 N   0  0  0  0  0  0  0  0  0  0  0  0
   18.9343  -27.3919   -0.6860 C   0  0  0  0  0  0  0  0  0  0  0  0
   17.2806  -28.9679   -1.8600 C   0  0  0  0  0  0  0  0  0  0  0  0
 29 30  1  0  0  0
 29 26  1  0  0  0
 30 31  2  0  0  0
 30 35  1  0  0  0
 31 32  1  0  0  0
 32 33  2  0  0  0
 33 34  1  0  0  0
 33 36  1  0  0  0
 34 35  2  0  0  0
 36 37  1  0  0  0
 36 38  1  0  0  0
  9 10  2  0  0  0
  9 14  1  0  0  0
  9  8  1  0  0  0
 10 11  1  0  0  0
 11 12  2  0  0  0
 12 13  1  0  0  0
 12 15  1  0  0  0
 13 14  2  0  0  0
 15 16  1  0  0  0
 15 18  1  0  0  0
 16 17  1  0  0  0
 17 19  1  0  0  0
 18 19  1  0  0  0
  8  2  1  0  0  0
  2  3  2  0  0  0
  2  7  1  0  0  0
  3  4  1  0  0  0
  4  5  2  0  0  0
  5  6  1  0  0  0
  5  1  1  0  0  0
  6  7  2  0  0  0
  1 20  1  0  0  0
 20 21  1  0  0  0
 21 22  1  0  0  0
 22 23  1  0  0  0
 23 24  2  0  0  0
 23 28  1  0  0  0
 24 25  1  0  0  0
 25 26  2  0  0  0
 26 27  1  0  0  0
 27 28  2  0  0  0
M  CHG 1   9   1
M  CHG 1  30   1
M  END
> <minimizedAffinity>
-9.78173

$$$$
5FUT_PQ7_A_1467


 38 42  0  0  0  0  0  0  0  0999 V2000
   13.3423  -24.3020    6.8858 C   0  0  0  0  0  0  0  0  0  0  0  0
   14.2410  -24.6322    2.9552 C   0  0  0  0  0  0  0  0  0  0  0  0
   15.2659  -24.3324    3.8385 C   0  0  0  0  0  0  0  0  0  0  0  0
   14.9968  -24.1829    5.1737 C   0  0  0  0  0  0  0  0  0  0  0  0
   13.6902  -24.3711    5.5831 C   0  0  0  0  0  0  0  0  0  0  0  0
   12.6617  -24.7185    4.7171 C   0  0  0  0  0  0  0  0  0  0  0  0
   12.9323  -24.8474    3.3761 C   0  0  0  0  0  0  0  0  0  0  0  0
   14.6077  -24.8542    1.6653 C   0  0  0  0  0  0  0  0  0  0  0  0
   14.6856  -23.3881    1.3200 N   0  0  0  0  0  0  0  0  0  0  0  0
   15.8268  -22.5960    1.5912 C   0  0  0  0  0  0  0  0  0  0  0  0
   15.8501  -21.2593    1.2024 C   0  0  0  0  0  0  0  0  0  0  0  0
   14.7653  -20.7068    0.5247 C   0  0  0  0  0  0  0  0  0  0  0  0
   13.6465  -21.4651    0.2335 C   0  0  0  0  0  0  0  0  0  0  0  0
   13.6162  -22.7885    0.6208 C   0  0  0  0  0  0  0  0  0  0  0  0
   14.7526  -19.4383    0.1563 N   0  0  0  0  0  0  0  0  0  0  0  0
   14.1765  -18.7005   -0.9218 C   0  0  0  0  0  0  0  0  0  0  0  0
   15.0478  -17.4000   -1.1017 C   0  0  0  0  0  0  0  0  0  0  0  0
   15.4267  -18.3470    0.7760 C   0  0  0  0  0  0  0  0  0  0  0  0
   14.7259  -17.0358    0.3073 C   0  0  0  0  0  0  0  0  0  0  0  0
   14.5424  -23.4975    7.4774 C   0  0  0  0  0  0  0  0  0  0  0  0
   14.1893  -22.1479    8.1207 C   0  0  0  0  0  0  0  0  0  0  0  0
   14.5587  -20.9761    7.2052 C   0  0  0  0  0  0  0  0  0  0  0  0
   13.5927  -20.9414    6.2105 C   0  0  0  0  0  0  0  0  0  0  0  0
   12.2062  -20.9347    6.3851 C   0  0  0  0  0  0  0  0  0  0  0  0
   11.3867  -20.8851    5.2467 C   0  0  0  0  0  0  0  0  0  0  0  0
   11.9526  -20.8472    3.9657 C   0  0  0  0  0  0  0  0  0  0  0  0
   13.3280  -20.8411    3.8213 C   0  0  0  0  0  0  0  0  0  0  0  0
   14.1356  -20.8895    4.9393 C   0  0  0  0  0  0  0  0  0  0  0  0
   11.2093  -20.7719    2.7852 C   0  0  0  0  0  0  0  0  0  0  0  0
   10.7407  -19.4311    2.3690 N   0  0  0  0  0  0  0  0  0  0  0  0
   11.5984  -18.4568    1.8284 C   0  0  0  0  0  0  0  0  0  0  0  0
   11.0968  -17.2085    1.4621 C   0  0  0  0  0  0  0  0  0  0  0  0
    9.7497  -16.9036    1.6525 C   0  0  0  0  0  0  0  0  0  0  0  0
    8.9020  -17.8699    2.1915 C   0  0  0  0  0  0  0  0  0  0  0  0
    9.3882  -19.1212    2.5515 C   0  0  0  0  0  0  0  0  0  0  0  0
    9.2481  -15.7141    1.3013 N   0  0  0  0  0  0  0  0  0  0  0  0
    9.9840  -14.8567    0.3533 C   0  0  0  0  0  0  0  0  0  0  0  0
    7.9372  -15.3243    1.8329 C   0  0  0  0  0  0  0  0  0  0  0  0
 29 30  1  0  0  0
 29 26  1  0  0  0
 30 31  2  0  0  0
 30 35  1  0  0  0
 31 32  1  0  0  0
 32 33  2  0  0  0
 33 34  1  0  0  0
 33 36  1  0  0  0
 34 35  2  0  0  0
 36 37  1  0  0  0
 36 38  1  0  0  0
  9 10  2  0  0  0
  9 14  1  0  0  0
  9  8  1  0  0  0
 10 11  1  0  0  0
 11 12  2  0  0  0
 12 13  1  0  0  0
 12 15  1  0  0  0
 13 14  2  0  0  0
 15 16  1  0  0  0
 15 18  1  0  0  0
 16 17  1  0  0  0
 17 19  1  0  0  0
 18 19  1  0  0  0
  8  2  1  0  0  0
  2  3  2  0  0  0
  2  7  1  0  0  0
  3  4  1  0  0  0
  4  5  2  0  0  0
  5  6  1  0  0  0
  5  1  1  0  0  0
  6  7  2  0  0  0
  1 20  1  0  0  0
 20 21  1  0  0  0
 21 22  1  0  0  0
 22 23  1  0  0  0
 23 24  2  0  0  0
 23 28  1  0  0  0
 24 25  1  0  0  0
 25 26  2  0  0  0
 26 27  1  0  0  0
 27 28  2  0  0  0
M  CHG 1   9   1
M  CHG 1  30   1
M  END
> <minimizedAffinity>
-9.65919

$$$$
5FUT_PQ7_A_1467


 38 42  0  0  0  0  0  0  0  0999 V2000
   13.4977  -24.1073    7.5169 C   0  0  0  0  0  0  0  0  0  0  0  0
   13.7119  -24.7614    3.5303 C   0  0  0  0  0  0  0  0  0  0  0  0
   12.4946  -24.9602    4.1621 C   0  0  0  0  0  0  0  0  0  0  0  0
   12.3885  -24.7780    5.5161 C   0  0  0  0  0  0  0  0  0  0  0  0
   13.5222  -24.3684    6.1924 C   0  0  0  0  0  0  0  0  0  0  0  0
   14.7363  -24.1192    5.5660 C   0  0  0  0  0  0  0  0  0  0  0  0
   14.8433  -24.3228    4.2113 C   0  0  0  0  0  0  0  0  0  0  0  0
   13.7089  -24.8734    2.1757 C   0  0  0  0  0  0  0  0  0  0  0  0
   13.5314  -23.3936    1.9442 N   0  0  0  0  0  0  0  0  0  0  0  0
   12.2608  -22.7716    1.8988 C   0  0  0  0  0  0  0  0  0  0  0  0
   12.1707  -21.3926    1.7290 C   0  0  0  0  0  0  0  0  0  0  0  0
   13.3266  -20.6210    1.6301 C   0  0  0  0  0  0  0  0  0  0  0  0
   14.5790  -21.2039    1.6887 C   0  0  0  0  0  0  0  0  0  0  0  0
   14.6739  -22.5701    1.8518 C   0  0  0  0  0  0  0  0  0  0  0  0
   13.2726  -19.3130    1.4539 N   0  0  0  0  0  0  0  0  0  0  0  0
   12.9406  -18.4483    0.3673 C   0  0  0  0  0  0  0  0  0  0  0  0
   13.6728  -17.0788    0.6338 C   0  0  0  0  0  0  0  0  0  0  0  0
   13.6171  -18.2954    2.3896 C   0  0  0  0  0  0  0  0  0  0  0  0
   12.9303  -16.9764    1.9221 C   0  0  0  0  0  0  0  0  0  0  0  0
   14.6113  -23.0192    7.6317 C   0  0  0  0  0  0  0  0  0  0  0  0
   14.1219  -21.5633    7.6603 C   0  0  0  0  0  0  0  0  0  0  0  0
   14.4262  -20.8430    6.3427 C   0  0  0  0  0  0  0  0  0  0  0  0
   13.2458  -20.2256    5.9563 C   0  0  0  0  0  0  0  0  0  0  0  0
   12.9687  -18.8560    5.9741 C   0  0  0  0  0  0  0  0  0  0  0  0
   11.7107  -18.4200    5.5296 C   0  0  0  0  0  0  0  0  0  0  0  0
   10.7565  -19.3434    5.0827 C   0  0  0  0  0  0  0  0  0  0  0  0
   11.0613  -20.6923    5.0627 C   0  0  0  0  0  0  0  0  0  0  0  0
   12.2977  -21.1229    5.4990 C   0  0  0  0  0  0  0  0  0  0  0  0
    9.4932  -18.9904    4.6020 C   0  0  0  0  0  0  0  0  0  0  0  0
    9.4468  -18.1507    3.3841 N   0  0  0  0  0  0  0  0  0  0  0  0
    9.5134  -18.6855    2.0854 C   0  0  0  0  0  0  0  0  0  0  0  0
    9.4721  -17.8402    0.9774 C   0  0  0  0  0  0  0  0  0  0  0  0
    9.3925  -16.4582    1.1443 C   0  0  0  0  0  0  0  0  0  0  0  0
    9.3297  -15.9301    2.4327 C   0  0  0  0  0  0  0  0  0  0  0  0
    9.3603  -16.7632    3.5448 C   0  0  0  0  0  0  0  0  0  0  0  0
    9.3449  -15.6310    0.0940 N   0  0  0  0  0  0  0  0  0  0  0  0
   10.5767  -15.3254   -0.6575 C   0  0  0  0  0  0  0  0  0  0  0  0
    8.0416  -15.0958   -0.3153 C   0  0  0  0  0  0  0  0  0  0  0  0
 29 30  1  0  0  0
 29 26  1  0  0  0
 30 31  2  0  0  0
 30 35  1  0  0  0
 31 32  1  0  0  0
 32 33  2  0  0  0
 33 34  1  0  0  0
 33 36  1  0  0  0
 34 35  2  0  0  0
 36 37  1  0  0  0
 36 38  1  0  0  0
  9 10  2  0  0  0
  9 14  1  0  0  0
  9  8  1  0  0  0
 10 11  1  0  0  0
 11 12  2  0  0  0
 12 13  1  0  0  0
 12 15  1  0  0  0
 13 14  2  0  0  0
 15 16  1  0  0  0
 15 18  1  0  0  0
 16 17  1  0  0  0
 17 19  1  0  0  0
 18 19  1  0  0  0
  8  2  1  0  0  0
  2  3  2  0  0  0
  2  7  1  0  0  0
  3  4  1  0  0  0
  4  5  2  0  0  0
  5  6  1  0  0  0
  5  1  1  0  0  0
  6  7  2  0  0  0
  1 20  1  0  0  0
 20 21  1  0  0  0
 21 22  1  0  0  0
 22 23  1  0  0  0
 23 24  2  0  0  0
 23 28  1  0  0  0
 24 25  1  0  0  0
 25 26  2  0  0  0
 26 27  1  0  0  0
 27 28  2  0  0  0
M  CHG 1   9   1
M  CHG 1  30   1
M  END
> <minimizedAffinity>
-9.60256

$$$$
5FUT_PQ7_A_1467


 38 42  0  0  0  0  0  0  0  0999 V2000
   13.9536  -20.1815    6.2582 C   0  0  0  0  0  0  0  0  0  0  0  0
   11.4449  -21.6408    3.4398 C   0  0  0  0  0  0  0  0  0  0  0  0
   10.9314  -21.3745    4.6991 C   0  0  0  0  0  0  0  0  0  0  0  0
   11.7553  -20.9075    5.6894 C   0  0  0  0  0  0  0  0  0  0  0  0
   13.0817  -20.6949    5.3641 C   0  0  0  0  0  0  0  0  0  0  0  0
   13.6003  -20.9117    4.0944 C   0  0  0  0  0  0  0  0  0  0  0  0
   12.7749  -21.3994    3.1099 C   0  0  0  0  0  0  0  0  0  0  0  0
   10.5441  -22.0122    2.4920 C   0  0  0  0  0  0  0  0  0  0  0  0
   10.3170  -20.6048    1.9996 N   0  0  0  0  0  0  0  0  0  0  0  0
   11.2814  -19.8898    1.2498 C   0  0  0  0  0  0  0  0  0  0  0  0
   10.9880  -18.6105    0.7853 C   0  0  0  0  0  0  0  0  0  0  0  0
    9.7398  -18.0433    1.0334 C   0  0  0  0  0  0  0  0  0  0  0  0
    8.7756  -18.7289    1.7488 C   0  0  0  0  0  0  0  0  0  0  0  0
    9.0629  -19.9946    2.2156 C   0  0  0  0  0  0  0  0  0  0  0  0
    9.4378  -16.8262    0.6181 N   0  0  0  0  0  0  0  0  0  0  0  0
    8.4571  -15.8491    0.9675 C   0  0  0  0  0  0  0  0  0  0  0  0
    8.2604  -14.9282   -0.2959 C   0  0  0  0  0  0  0  0  0  0  0  0
   10.0444  -16.0951   -0.4435 C   0  0  0  0  0  0  0  0  0  0  0  0
    9.7100  -14.5882   -0.2262 C   0  0  0  0  0  0  0  0  0  0  0  0
   13.8574  -21.2297    7.4112 C   0  0  0  0  0  0  0  0  0  0  0  0
   14.6536  -22.5269    7.2025 C   0  0  0  0  0  0  0  0  0  0  0  0
   13.7430  -23.7582    7.2517 C   0  0  0  0  0  0  0  0  0  0  0  0
   13.6279  -24.2081    5.9447 C   0  0  0  0  0  0  0  0  0  0  0  0
   12.4887  -24.7433    5.3373 C   0  0  0  0  0  0  0  0  0  0  0  0
   12.5667  -25.1341    3.9914 C   0  0  0  0  0  0  0  0  0  0  0  0
   13.7647  -24.9918    3.2792 C   0  0  0  0  0  0  0  0  0  0  0  0
   14.8736  -24.4467    3.9003 C   0  0  0  0  0  0  0  0  0  0  0  0
   14.7989  -24.0614    5.2234 C   0  0  0  0  0  0  0  0  0  0  0  0
   13.9183  -25.3326    1.9331 C   0  0  0  0  0  0  0  0  0  0  0  0
   13.2112  -24.4923    0.9409 N   0  0  0  0  0  0  0  0  0  0  0  0
   13.7869  -23.3475    0.3619 C   0  0  0  0  0  0  0  0  0  0  0  0
   13.0657  -22.5927   -0.5623 C   0  0  0  0  0  0  0  0  0  0  0  0
   11.7605  -22.9473   -0.9009 C   0  0  0  0  0  0  0  0  0  0  0  0
   11.1908  -24.0808   -0.3234 C   0  0  0  0  0  0  0  0  0  0  0  0
   11.9032  -24.8468    0.5919 C   0  0  0  0  0  0  0  0  0  0  0  0
   11.0546  -22.2400   -1.7905 N   0  0  0  0  0  0  0  0  0  0  0  0
   11.6664  -21.8563   -3.0765 C   0  0  0  0  0  0  0  0  0  0  0  0
    9.6584  -21.9169   -1.4762 C   0  0  0  0  0  0  0  0  0  0  0  0
 29 30  1  0  0  0
 29 26  1  0  0  0
 30 31  2  0  0  0
 30 35  1  0  0  0
 31 32  1  0  0  0
 32 33  2  0  0  0
 33 34  1  0  0  0
 33 36  1  0  0  0
 34 35  2  0  0  0
 36 37  1  0  0  0
 36 38  1  0  0  0
  9 10  2  0  0  0
  9 14  1  0  0  0
  9  8  1  0  0  0
 10 11  1  0  0  0
 11 12  2  0  0  0
 12 13  1  0  0  0
 12 15  1  0  0  0
 13 14  2  0  0  0
 15 16  1  0  0  0
 15 18  1  0  0  0
 16 17  1  0  0  0
 17 19  1  0  0  0
 18 19  1  0  0  0
  8  2  1  0  0  0
  2  3  2  0  0  0
  2  7  1  0  0  0
  3  4  1  0  0  0
  4  5  2  0  0  0
  5  6  1  0  0  0
  5  1  1  0  0  0
  6  7  2  0  0  0
  1 20  1  0  0  0
 20 21  1  0  0  0
 21 22  1  0  0  0
 22 23  1  0  0  0
 23 24  2  0  0  0
 23 28  1  0  0  0
 24 25  1  0  0  0
 25 26  2  0  0  0
 26 27  1  0  0  0
 27 28  2  0  0  0
M  CHG 1   9   1
M  CHG 1  30   1
M  END
> <minimizedAffinity>
-9.44280

$$$$
5FUT_PQ7_A_1467


 38 42  0  0  0  0  0  0  0  0999 V2000
   13.5591  -24.1161    7.4725 C   0  0  0  0  0  0  0  0  0  0  0  0
   13.5680  -24.7232    3.4728 C   0  0  0  0  0  0  0  0  0  0  0  0
   12.3907  -24.9517    4.1673 C   0  0  0  0  0  0  0  0  0  0  0  0
   12.3551  -24.7860    5.5271 C   0  0  0  0  0  0  0  0  0  0  0  0
   13.5163  -24.3624    6.1456 C   0  0  0  0  0  0  0  0  0  0  0  0
   14.6897  -24.0837    5.4574 C   0  0  0  0  0  0  0  0  0  0  0  0
   14.7265  -24.2707    4.0965 C   0  0  0  0  0  0  0  0  0  0  0  0
   13.4932  -24.8207    2.1191 C   0  0  0  0  0  0  0  0  0  0  0  0
   13.4773  -23.3281    1.9028 N   0  0  0  0  0  0  0  0  0  0  0  0
   14.5786  -22.6193    1.3660 C   0  0  0  0  0  0  0  0  0  0  0  0
   14.4793  -21.2478    1.1478 C   0  0  0  0  0  0  0  0  0  0  0  0
   13.2917  -20.5765    1.4312 C   0  0  0  0  0  0  0  0  0  0  0  0
   12.1970  -21.2503    1.9401 C   0  0  0  0  0  0  0  0  0  0  0  0
   12.2915  -22.6081    2.1629 C   0  0  0  0  0  0  0  0  0  0  0  0
   13.1725  -19.2737    1.2484 N   0  0  0  0  0  0  0  0  0  0  0  0
   12.8284  -18.4307    0.1486 C   0  0  0  0  0  0  0  0  0  0  0  0
   13.4769  -17.0229    0.4324 C   0  0  0  0  0  0  0  0  0  0  0  0
   13.4321  -18.2370    2.1904 C   0  0  0  0  0  0  0  0  0  0  0  0
   12.6899  -16.9581    1.6966 C   0  0  0  0  0  0  0  0  0  0  0  0
   14.6527  -23.0039    7.5389 C   0  0  0  0  0  0  0  0  0  0  0  0
   14.1337  -21.5642    7.6724 C   0  0  0  0  0  0  0  0  0  0  0  0
   14.4351  -20.7402    6.4163 C   0  0  0  0  0  0  0  0  0  0  0  0
   13.2346  -20.1584    6.0366 C   0  0  0  0  0  0  0  0  0  0  0  0
   12.9706  -18.7937    5.8920 C   0  0  0  0  0  0  0  0  0  0  0  0
   11.6871  -18.3980    5.4844 C   0  0  0  0  0  0  0  0  0  0  0  0
   10.6954  -19.3552    5.2333 C   0  0  0  0  0  0  0  0  0  0  0  0
   10.9870  -20.7001    5.3709 C   0  0  0  0  0  0  0  0  0  0  0  0
   12.2485  -21.0912    5.7712 C   0  0  0  0  0  0  0  0  0  0  0  0
    9.4033  -19.0464    4.8012 C   0  0  0  0  0  0  0  0  0  0  0  0
    9.0406  -19.4466    3.4232 N   0  0  0  0  0  0  0  0  0  0  0  0
    8.2348  -20.5636    3.1401 C   0  0  0  0  0  0  0  0  0  0  0  0
    7.9345  -20.8931    1.8190 C   0  0  0  0  0  0  0  0  0  0  0  0
    8.4504  -20.1379    0.7666 C   0  0  0  0  0  0  0  0  0  0  0  0
    9.2515  -19.0328    1.0496 C   0  0  0  0  0  0  0  0  0  0  0  0
    9.5499  -18.6887    2.3627 C   0  0  0  0  0  0  0  0  0  0  0  0
    8.1684  -20.4338   -0.5073 N   0  0  0  0  0  0  0  0  0  0  0  0
    8.6032  -21.7233   -1.0761 C   0  0  0  0  0  0  0  0  0  0  0  0
    7.3747  -19.4777   -1.2873 C   0  0  0  0  0  0  0  0  0  0  0  0
 29 30  1  0  0  0
 29 26  1  0  0  0
 30 31  2  0  0  0
 30 35  1  0  0  0
 31 32  1  0  0  0
 32 33  2  0  0  0
 33 34  1  0  0  0
 33 36  1  0  0  0
 34 35  2  0  0  0
 36 37  1  0  0  0
 36 38  1  0  0  0
  9 10  2  0  0  0
  9 14  1  0  0  0
  9  8  1  0  0  0
 10 11  1  0  0  0
 11 12  2  0  0  0
 12 13  1  0  0  0
 12 15  1  0  0  0
 13 14  2  0  0  0
 15 16  1  0  0  0
 15 18  1  0  0  0
 16 17  1  0  0  0
 17 19  1  0  0  0
 18 19  1  0  0  0
  8  2  1  0  0  0
  2  3  2  0  0  0
  2  7  1  0  0  0
  3  4  1  0  0  0
  4  5  2  0  0  0
  5  6  1  0  0  0
  5  1  1  0  0  0
  6  7  2  0  0  0
  1 20  1  0  0  0
 20 21  1  0  0  0
 21 22  1  0  0  0
 22 23  1  0  0  0
 23 24  2  0  0  0
 23 28  1  0  0  0
 24 25  1  0  0  0
 25 26  2  0  0  0
 26 27  1  0  0  0
 27 28  2  0  0  0
M  CHG 1   9   1
M  CHG 1  30   1
M  END
> <minimizedAffinity>
-9.28933

$$$$
5FUT_PQ7_A_1467


 38 42  0  0  0  0  0  0  0  0999 V2000
   12.1078  -20.7638    6.0695 C   0  0  0  0  0  0  0  0  0  0  0  0
   13.0102  -19.8614    2.2305 C   0  0  0  0  0  0  0  0  0  0  0  0
   12.5683  -21.1436    2.5154 C   0  0  0  0  0  0  0  0  0  0  0  0
   12.2810  -21.4971    3.8078 C   0  0  0  0  0  0  0  0  0  0  0  0
   12.4237  -20.5240    4.7789 C   0  0  0  0  0  0  0  0  0  0  0  0
   12.8196  -19.2220    4.5023 C   0  0  0  0  0  0  0  0  0  0  0  0
   13.1262  -18.8777    3.2078 C   0  0  0  0  0  0  0  0  0  0  0  0
   13.1839  -19.5662    0.9151 C   0  0  0  0  0  0  0  0  0  0  0  0
   14.6766  -19.7784    0.9517 N   0  0  0  0  0  0  0  0  0  0  0  0
   15.6053  -18.7356    0.7198 C   0  0  0  0  0  0  0  0  0  0  0  0
   16.9707  -18.9904    0.8161 C   0  0  0  0  0  0  0  0  0  0  0  0
   17.4244  -20.2606    1.1653 C   0  0  0  0  0  0  0  0  0  0  0  0
   16.5362  -21.2907    1.4131 C   0  0  0  0  0  0  0  0  0  0  0  0
   15.1826  -21.0451    1.3143 C   0  0  0  0  0  0  0  0  0  0  0  0
   18.7135  -20.5359    1.2501 N   0  0  0  0  0  0  0  0  0  0  0  0
   19.7493  -20.8419    0.3162 C   0  0  0  0  0  0  0  0  0  0  0  0
   20.8464  -21.6555    1.1020 C   0  0  0  0  0  0  0  0  0  0  0  0
   19.4982  -20.6658    2.4321 C   0  0  0  0  0  0  0  0  0  0  0  0
   20.9928  -20.4936    2.0241 C   0  0  0  0  0  0  0  0  0  0  0  0
   13.4932  -21.1965    6.6450 C   0  0  0  0  0  0  0  0  0  0  0  0
   13.4874  -22.4571    7.5228 C   0  0  0  0  0  0  0  0  0  0  0  0
   14.5179  -23.4826    7.0390 C   0  0  0  0  0  0  0  0  0  0  0  0
   13.9931  -24.0455    5.8850 C   0  0  0  0  0  0  0  0  0  0  0  0
   12.7215  -24.6027    5.7249 C   0  0  0  0  0  0  0  0  0  0  0  0
   12.3671  -25.1155    4.4674 C   0  0  0  0  0  0  0  0  0  0  0  0
   13.2744  -25.0702    3.4008 C   0  0  0  0  0  0  0  0  0  0  0  0
   14.5217  -24.5010    3.5826 C   0  0  0  0  0  0  0  0  0  0  0  0
   14.8720  -23.9959    4.8182 C   0  0  0  0  0  0  0  0  0  0  0  0
   12.9914  -25.5352    2.1142 C   0  0  0  0  0  0  0  0  0  0  0  0
   12.4554  -24.5525    1.1459 N   0  0  0  0  0  0  0  0  0  0  0  0
   11.1098  -24.1446    1.1383 C   0  0  0  0  0  0  0  0  0  0  0  0
   10.6641  -23.2199    0.1947 C   0  0  0  0  0  0  0  0  0  0  0  0
   11.5380  -22.7118   -0.7657 C   0  0  0  0  0  0  0  0  0  0  0  0
   12.8707  -23.1200   -0.7581 C   0  0  0  0  0  0  0  0  0  0  0  0
   13.3291  -24.0338    0.1835 C   0  0  0  0  0  0  0  0  0  0  0  0
   11.1313  -21.8188   -1.6751 N   0  0  0  0  0  0  0  0  0  0  0  0
   11.5912  -21.9305   -3.0720 C   0  0  0  0  0  0  0  0  0  0  0  0
   10.1824  -20.7802   -1.2584 C   0  0  0  0  0  0  0  0  0  0  0  0
 29 30  1  0  0  0
 29 26  1  0  0  0
 30 31  2  0  0  0
 30 35  1  0  0  0
 31 32  1  0  0  0
 32 33  2  0  0  0
 33 34  1  0  0  0
 33 36  1  0  0  0
 34 35  2  0  0  0
 36 37  1  0  0  0
 36 38  1  0  0  0
  9 10  2  0  0  0
  9 14  1  0  0  0
  9  8  1  0  0  0
 10 11  1  0  0  0
 11 12  2  0  0  0
 12 13  1  0  0  0
 12 15  1  0  0  0
 13 14  2  0  0  0
 15 16  1  0  0  0
 15 18  1  0  0  0
 16 17  1  0  0  0
 17 19  1  0  0  0
 18 19  1  0  0  0
  8  2  1  0  0  0
  2  3  2  0  0  0
  2  7  1  0  0  0
  3  4  1  0  0  0
  4  5  2  0  0  0
  5  6  1  0  0  0
  5  1  1  0  0  0
  6  7  2  0  0  0
  1 20  1  0  0  0
 20 21  1  0  0  0
 21 22  1  0  0  0
 22 23  1  0  0  0
 23 24  2  0  0  0
 23 28  1  0  0  0
 24 25  1  0  0  0
 25 26  2  0  0  0
 26 27  1  0  0  0
 27 28  2  0  0  0
M  CHG 1   9   1
M  CHG 1  30   1
M  END
> <minimizedAffinity>
-9.20984

$$$$
5FUT_PQ7_A_1467


 38 42  0  0  0  0  0  0  0  0999 V2000
   12.1376  -20.8873    6.0487 C   0  0  0  0  0  0  0  0  0  0  0  0
   12.8010  -20.1019    2.1360 C   0  0  0  0  0  0  0  0  0  0  0  0
   13.1236  -19.1245    3.0640 C   0  0  0  0  0  0  0  0  0  0  0  0
   12.8863  -19.3408    4.3962 C   0  0  0  0  0  0  0  0  0  0  0  0
   12.3505  -20.5633    4.7554 C   0  0  0  0  0  0  0  0  0  0  0  0
   12.0665  -21.5700    3.8421 C   0  0  0  0  0  0  0  0  0  0  0  0
   12.2871  -21.3411    2.5053 C   0  0  0  0  0  0  0  0  0  0  0  0
   13.1531  -19.8447    0.8485 C   0  0  0  0  0  0  0  0  0  0  0  0
   14.6194  -20.1102    1.0812 N   0  0  0  0  0  0  0  0  0  0  0  0
   15.1323  -21.4030    1.3441 C   0  0  0  0  0  0  0  0  0  0  0  0
   16.5036  -21.5848    1.5022 C   0  0  0  0  0  0  0  0  0  0  0  0
   17.3737  -20.5039    1.3764 C   0  0  0  0  0  0  0  0  0  0  0  0
   16.8978  -19.2349    1.1031 C   0  0  0  0  0  0  0  0  0  0  0  0
   15.5399  -19.0483    0.9505 C   0  0  0  0  0  0  0  0  0  0  0  0
   18.6776  -20.6430    1.5355 N   0  0  0  0  0  0  0  0  0  0  0  0
   19.6877  -21.4706    0.9581 C   0  0  0  0  0  0  0  0  0  0  0  0
   20.8567  -21.5651    2.0104 C   0  0  0  0  0  0  0  0  0  0  0  0
   19.5166  -19.9641    2.4654 C   0  0  0  0  0  0  0  0  0  0  0  0
   20.9822  -20.0812    1.9472 C   0  0  0  0  0  0  0  0  0  0  0  0
   13.5550  -21.3853    6.4734 C   0  0  0  0  0  0  0  0  0  0  0  0
   13.5813  -22.5562    7.4675 C   0  0  0  0  0  0  0  0  0  0  0  0
   14.5184  -23.6726    6.9950 C   0  0  0  0  0  0  0  0  0  0  0  0
   13.9807  -24.1554    5.8111 C   0  0  0  0  0  0  0  0  0  0  0  0
   12.7100  -24.7077    5.6287 C   0  0  0  0  0  0  0  0  0  0  0  0
   12.3411  -25.1322    4.3427 C   0  0  0  0  0  0  0  0  0  0  0  0
   13.2335  -25.0058    3.2701 C   0  0  0  0  0  0  0  0  0  0  0  0
   14.4802  -24.4432    3.4753 C   0  0  0  0  0  0  0  0  0  0  0  0
   14.8448  -24.0249    4.7389 C   0  0  0  0  0  0  0  0  0  0  0  0
   12.9354  -25.3800    1.9576 C   0  0  0  0  0  0  0  0  0  0  0  0
   14.0655  -25.8228    1.1106 N   0  0  0  0  0  0  0  0  0  0  0  0
   14.7452  -24.9598    0.2328 C   0  0  0  0  0  0  0  0  0  0  0  0
   15.7983  -25.4398   -0.5448 C   0  0  0  0  0  0  0  0  0  0  0  0
   16.1701  -26.7821   -0.4814 C   0  0  0  0  0  0  0  0  0  0  0  0
   15.4930  -27.6364    0.3872 C   0  0  0  0  0  0  0  0  0  0  0  0
   14.4479  -27.1675    1.1746 C   0  0  0  0  0  0  0  0  0  0  0  0
   17.1821  -27.2602   -1.2143 N   0  0  0  0  0  0  0  0  0  0  0  0
   18.1616  -28.1789   -0.6045 C   0  0  0  0  0  0  0  0  0  0  0  0
   17.2495  -26.8958   -2.6339 C   0  0  0  0  0  0  0  0  0  0  0  0
 29 30  1  0  0  0
 29 26  1  0  0  0
 30 31  2  0  0  0
 30 35  1  0  0  0
 31 32  1  0  0  0
 32 33  2  0  0  0
 33 34  1  0  0  0
 33 36  1  0  0  0
 34 35  2  0  0  0
 36 37  1  0  0  0
 36 38  1  0  0  0
  9 10  2  0  0  0
  9 14  1  0  0  0
  9  8  1  0  0  0
 10 11  1  0  0  0
 11 12  2  0  0  0
 12 13  1  0  0  0
 12 15  1  0  0  0
 13 14  2  0  0  0
 15 16  1  0  0  0
 15 18  1  0  0  0
 16 17  1  0  0  0
 17 19  1  0  0  0
 18 19  1  0  0  0
  8  2  1  0  0  0
  2  3  2  0  0  0
  2  7  1  0  0  0
  3  4  1  0  0  0
  4  5  2  0  0  0
  5  6  1  0  0  0
  5  1  1  0  0  0
  6  7  2  0  0  0
  1 20  1  0  0  0
 20 21  1  0  0  0
 21 22  1  0  0  0
 22 23  1  0  0  0
 23 24  2  0  0  0
 23 28  1  0  0  0
 24 25  1  0  0  0
 25 26  2  0  0  0
 26 27  1  0  0  0
 27 28  2  0  0  0
M  CHG 1   9   1
M  CHG 1  30   1
M  END
> <minimizedAffinity>
-9.19442

$$$$
