3HU3_AGS_A_800


 39 41  0  0  0  0  0  0  0  0999 V2000
   19.6784   45.0398   -9.9485 C   0  0  0  0  0  0  0  0  0  0  0  0
   20.1173   44.4111  -11.1698 O   0  0  0  0  0  0  0  0  0  0  0  0
   20.9309   45.1378   -9.0895 C   0  0  0  0  0  0  0  0  0  0  0  0
   20.6817   45.2658   -7.6776 O   0  0  0  0  0  0  0  0  0  0  0  0
   21.7256   43.9192   -9.4739 C   0  0  0  0  0  0  0  0  0  0  0  0
   21.1602   42.7850   -8.8001 O   0  0  0  0  0  0  0  0  0  0  0  0
   21.4205   43.8033  -10.9776 C   0  0  0  0  0  0  0  0  0  0  0  0
   20.1862   44.4927   -7.3654 H   0  0  0  0  0  0  0  0  0  0  0  0
   20.2139   42.7261   -9.0047 H   0  0  0  0  0  0  0  0  0  0  0  0
   22.4699   44.4839  -11.7747 N   0  0  0  0  0  0  0  0  0  0  0  0
   22.3131   45.6672  -12.3764 C   0  0  0  0  0  0  0  0  0  0  0  0
   23.4361   46.0586  -13.0225 N   0  0  0  0  0  0  0  0  0  0  0  0
   24.3662   45.1065  -12.8432 C   0  0  0  0  0  0  0  0  0  0  0  0
   25.7744   44.9038  -13.2615 C   0  0  0  0  0  0  0  0  0  0  0  0
   26.4209   45.8126  -14.0354 N   0  0  0  0  0  0  0  0  0  0  0  0
   26.3992   43.7741  -12.8613 N   0  0  0  0  0  0  0  0  0  0  0  0
   25.7751   42.8592  -12.1045 C   0  0  0  0  0  0  0  0  0  0  0  0
   24.5034   42.9846  -11.7059 N   0  0  0  0  0  0  0  0  0  0  0  0
   23.7390   44.0659  -12.0276 C   0  0  0  0  0  0  0  0  0  0  0  0
   25.9580   46.6328  -14.3223 H   0  0  0  0  0  0  0  0  0  0  0  0
   27.3526   45.6516  -14.3096 H   0  0  0  0  0  0  0  0  0  0  0  0
   19.0881   46.4250  -10.2437 C   0  0  0  0  0  0  0  0  0  0  0  0
   20.1684   47.2992  -10.5850 O   0  0  0  0  0  0  0  0  0  0  0  0
   20.3086   48.8079  -10.0127 P   0  0  0  0  0  0  0  0  0  0  0  0
   21.6171   48.9680   -9.3012 O   0  0  0  0  0  0  0  0  0  0  0  0
   19.0310   49.3786   -9.4576 O   0  0  0  0  0  0  0  0  0  0  0  0
   19.1922   50.2793   -9.1357 H   0  0  0  0  0  0  0  0  0  0  0  0
   20.4543   49.5589  -11.4261 O   0  0  0  0  0  0  0  0  0  0  0  0
   20.5088   51.1669  -11.6021 P   0  0  0  0  0  0  0  0  0  0  0  0
   21.1819   51.4504  -12.9045 O   0  0  0  0  0  0  0  0  0  0  0  0
   20.8404   51.7895  -10.2933 O   0  0  0  0  0  0  0  0  0  0  0  0
   20.8743   52.7537  -10.3933 H   0  0  0  0  0  0  0  0  0  0  0  0
   18.9048   51.3506  -11.8499 O   0  0  0  0  0  0  0  0  0  0  0  0
   18.0254   52.6852  -12.0702 P   0  0  0  0  0  0  0  0  0  0  0  0
   16.2249   51.9545  -12.8142 S   0  0  0  0  0  0  0  0  0  0  0  0
   17.6485   53.3210  -10.7508 O   0  0  0  0  0  0  0  0  0  0  0  0
   18.7824   53.6089  -13.0217 O   0  0  0  0  0  0  0  0  0  0  0  0
   17.1218   54.1189  -10.9152 H   0  0  0  0  0  0  0  0  0  0  0  0
   18.2668   54.4179  -13.1655 H   0  0  0  0  0  0  0  0  0  0  0  0
 34 35  2  0  0  0
 34 36  1  0  0  0
 34 37  1  0  0  0
 34 33  1  0  0  0
 29 30  2  0  0  0
 29 31  1  0  0  0
 29 33  1  0  0  0
 29 28  1  0  0  0
 24 25  2  0  0  0
 24 26  1  0  0  0
 24 28  1  0  0  0
 24 23  1  0  0  0
 23 22  1  0  0  0
 22  1  1  0  0  0
  1  2  1  0  0  0
  1  3  1  0  0  0
  2  7  1  0  0  0
  3  4  1  0  0  0
  3  5  1  0  0  0
  5  6  1  0  0  0
  5  7  1  0  0  0
  7 10  1  0  0  0
 10 11  1  0  0  0
 10 19  1  0  0  0
 11 12  2  0  0  0
 12 13  1  0  0  0
 13 14  1  0  0  0
 13 19  2  0  0  0
 14 15  1  0  0  0
 14 16  2  0  0  0
 16 17  1  0  0  0
 17 18  2  0  0  0
 18 19  1  0  0  0
 36 38  1  0  0  0
 37 39  1  0  0  0
 31 32  1  0  0  0
 26 27  1  0  0  0
  4  8  1  0  0  0
  6  9  1  0  0  0
 15 20  1  0  0  0
 15 21  1  0  0  0
M  END
> <minimizedAffinity>
-10.89642

$$$$
3HU3_AGS_A_800


 39 41  0  0  0  0  0  0  0  0999 V2000
   16.5394   49.7639   -7.9501 C   0  0  0  0  0  0  0  0  0  0  0  0
   16.3019   48.3478   -8.0842 O   0  0  0  0  0  0  0  0  0  0  0  0
   16.2159   50.0766   -6.4962 C   0  0  0  0  0  0  0  0  0  0  0  0
   15.9006   51.4565   -6.2350 O   0  0  0  0  0  0  0  0  0  0  0  0
   15.1125   49.1107   -6.1586 C   0  0  0  0  0  0  0  0  0  0  0  0
   13.8878   49.6209   -6.7063 O   0  0  0  0  0  0  0  0  0  0  0  0
   15.5286   47.8628   -6.9567 C   0  0  0  0  0  0  0  0  0  0  0  0
   15.1257   51.7157   -6.7577 H   0  0  0  0  0  0  0  0  0  0  0  0
   14.0009   49.7826   -7.6560 H   0  0  0  0  0  0  0  0  0  0  0  0
   16.3160   46.9393   -6.1039 N   0  0  0  0  0  0  0  0  0  0  0  0
   15.9016   46.4595   -4.9270 C   0  0  0  0  0  0  0  0  0  0  0  0
   16.8130   45.6277   -4.3711 N   0  0  0  0  0  0  0  0  0  0  0  0
   17.8634   45.5530   -5.2047 C   0  0  0  0  0  0  0  0  0  0  0  0
   19.1651   44.8425   -5.2136 C   0  0  0  0  0  0  0  0  0  0  0  0
   19.5411   44.0408   -4.1848 N   0  0  0  0  0  0  0  0  0  0  0  0
   19.9813   45.0264   -6.2751 N   0  0  0  0  0  0  0  0  0  0  0  0
   19.6326   45.8219   -7.2972 C   0  0  0  0  0  0  0  0  0  0  0  0
   18.4761   46.4948   -7.3383 N   0  0  0  0  0  0  0  0  0  0  0  0
   17.5473   46.4146   -6.3444 C   0  0  0  0  0  0  0  0  0  0  0  0
   18.9402   43.9126   -3.4156 H   0  0  0  0  0  0  0  0  0  0  0  0
   20.4148   43.5876   -4.2078 H   0  0  0  0  0  0  0  0  0  0  0  0
   17.9998   50.0941   -8.2857 C   0  0  0  0  0  0  0  0  0  0  0  0
   18.0282   50.6851   -9.5887 O   0  0  0  0  0  0  0  0  0  0  0  0
   18.2162   49.8297  -10.9512 P   0  0  0  0  0  0  0  0  0  0  0  0
   16.8864   49.6008  -11.6017 O   0  0  0  0  0  0  0  0  0  0  0  0
   19.2496   48.7390  -10.8575 O   0  0  0  0  0  0  0  0  0  0  0  0
   19.3057   48.2730  -11.7063 H   0  0  0  0  0  0  0  0  0  0  0  0
   18.9647   50.9620  -11.8117 O   0  0  0  0  0  0  0  0  0  0  0  0
   20.4758   51.4694  -11.5312 P   0  0  0  0  0  0  0  0  0  0  0  0
   21.2139   51.4106  -12.8279 O   0  0  0  0  0  0  0  0  0  0  0  0
   20.9433   50.9144  -10.2335 O   0  0  0  0  0  0  0  0  0  0  0  0
   21.8490   51.2156  -10.0605 H   0  0  0  0  0  0  0  0  0  0  0  0
   20.0720   53.0334  -11.2883 O   0  0  0  0  0  0  0  0  0  0  0  0
   18.7298   53.8406  -11.6754 P   0  0  0  0  0  0  0  0  0  0  0  0
   19.2362   55.8223  -11.2937 S   0  0  0  0  0  0  0  0  0  0  0  0
   18.4757   53.8052  -13.1658 O   0  0  0  0  0  0  0  0  0  0  0  0
   17.5811   53.2995  -10.8271 O   0  0  0  0  0  0  0  0  0  0  0  0
   17.6645   54.2974  -13.3673 H   0  0  0  0  0  0  0  0  0  0  0  0
   16.7647   53.7748  -11.0475 H   0  0  0  0  0  0  0  0  0  0  0  0
 34 35  2  0  0  0
 34 36  1  0  0  0
 34 37  1  0  0  0
 34 33  1  0  0  0
 29 30  2  0  0  0
 29 31  1  0  0  0
 29 33  1  0  0  0
 29 28  1  0  0  0
 24 25  2  0  0  0
 24 26  1  0  0  0
 24 28  1  0  0  0
 24 23  1  0  0  0
 23 22  1  0  0  0
 22  1  1  0  0  0
  1  2  1  0  0  0
  1  3  1  0  0  0
  2  7  1  0  0  0
  3  4  1  0  0  0
  3  5  1  0  0  0
  5  6  1  0  0  0
  5  7  1  0  0  0
  7 10  1  0  0  0
 10 11  1  0  0  0
 10 19  1  0  0  0
 11 12  2  0  0  0
 12 13  1  0  0  0
 13 14  1  0  0  0
 13 19  2  0  0  0
 14 15  1  0  0  0
 14 16  2  0  0  0
 16 17  1  0  0  0
 17 18  2  0  0  0
 18 19  1  0  0  0
 36 38  1  0  0  0
 37 39  1  0  0  0
 31 32  1  0  0  0
 26 27  1  0  0  0
  4  8  1  0  0  0
  6  9  1  0  0  0
 15 20  1  0  0  0
 15 21  1  0  0  0
M  END
> <minimizedAffinity>
-9.82709

$$$$
3HU3_AGS_A_800


 39 41  0  0  0  0  0  0  0  0999 V2000
   16.0918   49.7002   -7.8598 C   0  0  0  0  0  0  0  0  0  0  0  0
   15.9800   48.2807   -8.0882 O   0  0  0  0  0  0  0  0  0  0  0  0
   15.8953   49.8695   -6.3602 C   0  0  0  0  0  0  0  0  0  0  0  0
   15.4770   51.1857   -5.9546 O   0  0  0  0  0  0  0  0  0  0  0  0
   14.9330   48.7708   -5.9982 C   0  0  0  0  0  0  0  0  0  0  0  0
   13.6134   49.1880   -6.3786 O   0  0  0  0  0  0  0  0  0  0  0  0
   15.3814   47.6355   -6.9350 C   0  0  0  0  0  0  0  0  0  0  0  0
   14.6295   51.3996   -6.3753 H   0  0  0  0  0  0  0  0  0  0  0  0
   13.6090   49.4301   -7.3179 H   0  0  0  0  0  0  0  0  0  0  0  0
   16.3407   46.7399   -6.2438 N   0  0  0  0  0  0  0  0  0  0  0  0
   16.2217   46.3419   -4.9733 C   0  0  0  0  0  0  0  0  0  0  0  0
   17.2296   45.5169   -4.6055 N   0  0  0  0  0  0  0  0  0  0  0  0
   18.0412   45.3623   -5.6643 C   0  0  0  0  0  0  0  0  0  0  0  0
   19.2899   44.6138   -5.9464 C   0  0  0  0  0  0  0  0  0  0  0  0
   19.8957   43.8623   -4.9920 N   0  0  0  0  0  0  0  0  0  0  0  0
   19.8224   44.7112   -7.1849 N   0  0  0  0  0  0  0  0  0  0  0  0
   19.2446   45.4561   -8.1390 C   0  0  0  0  0  0  0  0  0  0  0  0
   18.1237   46.1598   -7.9386 N   0  0  0  0  0  0  0  0  0  0  0  0
   17.4670   46.1654   -6.7445 C   0  0  0  0  0  0  0  0  0  0  0  0
   19.5008   43.7970   -4.0926 H   0  0  0  0  0  0  0  0  0  0  0  0
   20.7300   43.3825   -5.1993 H   0  0  0  0  0  0  0  0  0  0  0  0
   17.4693   50.2060   -8.3081 C   0  0  0  0  0  0  0  0  0  0  0  0
   17.3328   51.5812   -8.6793 O   0  0  0  0  0  0  0  0  0  0  0  0
   16.5065   52.0748   -9.9820 P   0  0  0  0  0  0  0  0  0  0  0  0
   15.4094   53.0084   -9.5713 O   0  0  0  0  0  0  0  0  0  0  0  0
   16.2879   51.0033  -11.0166 O   0  0  0  0  0  0  0  0  0  0  0  0
   15.7892   51.3712  -11.7628 H   0  0  0  0  0  0  0  0  0  0  0  0
   17.6629   52.9779  -10.6378 O   0  0  0  0  0  0  0  0  0  0  0  0
   17.9748   53.0478  -12.2244 P   0  0  0  0  0  0  0  0  0  0  0  0
   18.9133   54.1882  -12.4446 O   0  0  0  0  0  0  0  0  0  0  0  0
   16.7203   52.7900  -12.9796 O   0  0  0  0  0  0  0  0  0  0  0  0
   16.9018   52.8307  -13.9316 H   0  0  0  0  0  0  0  0  0  0  0  0
   18.8719   51.6834  -12.2667 O   0  0  0  0  0  0  0  0  0  0  0  0
   20.3338   51.3723  -11.6593 P   0  0  0  0  0  0  0  0  0  0  0  0
   20.1494   49.4287  -10.9397 S   0  0  0  0  0  0  0  0  0  0  0  0
   21.3733   51.2639  -12.7524 O   0  0  0  0  0  0  0  0  0  0  0  0
   20.6460   52.4213  -10.5944 O   0  0  0  0  0  0  0  0  0  0  0  0
   22.2394   51.0769  -12.3576 H   0  0  0  0  0  0  0  0  0  0  0  0
   21.5232   52.2488  -10.2180 H   0  0  0  0  0  0  0  0  0  0  0  0
 34 35  2  0  0  0
 34 36  1  0  0  0
 34 37  1  0  0  0
 34 33  1  0  0  0
 29 30  2  0  0  0
 29 31  1  0  0  0
 29 33  1  0  0  0
 29 28  1  0  0  0
 24 25  2  0  0  0
 24 26  1  0  0  0
 24 28  1  0  0  0
 24 23  1  0  0  0
 23 22  1  0  0  0
 22  1  1  0  0  0
  1  2  1  0  0  0
  1  3  1  0  0  0
  2  7  1  0  0  0
  3  4  1  0  0  0
  3  5  1  0  0  0
  5  6  1  0  0  0
  5  7  1  0  0  0
  7 10  1  0  0  0
 10 11  1  0  0  0
 10 19  1  0  0  0
 11 12  2  0  0  0
 12 13  1  0  0  0
 13 14  1  0  0  0
 13 19  2  0  0  0
 14 15  1  0  0  0
 14 16  2  0  0  0
 16 17  1  0  0  0
 17 18  2  0  0  0
 18 19  1  0  0  0
 36 38  1  0  0  0
 37 39  1  0  0  0
 31 32  1  0  0  0
 26 27  1  0  0  0
  4  8  1  0  0  0
  6  9  1  0  0  0
 15 20  1  0  0  0
 15 21  1  0  0  0
M  END
> <minimizedAffinity>
-9.82505

$$$$
3HU3_AGS_A_800


 39 41  0  0  0  0  0  0  0  0999 V2000
   20.7004   47.6469   -9.7089 C   0  0  0  0  0  0  0  0  0  0  0  0
   20.5468   47.3040   -8.3167 O   0  0  0  0  0  0  0  0  0  0  0  0
   19.3493   47.3374  -10.3373 C   0  0  0  0  0  0  0  0  0  0  0  0
   19.3838   47.1254  -11.7606 O   0  0  0  0  0  0  0  0  0  0  0  0
   18.8460   46.1617   -9.5443 C   0  0  0  0  0  0  0  0  0  0  0  0
   19.5142   44.9831  -10.0180 O   0  0  0  0  0  0  0  0  0  0  0  0
   19.3616   46.4881   -8.1318 C   0  0  0  0  0  0  0  0  0  0  0  0
   19.9660   46.3761  -11.9618 H   0  0  0  0  0  0  0  0  0  0  0  0
   20.4741   45.1150   -9.9718 H   0  0  0  0  0  0  0  0  0  0  0  0
   18.3199   47.1972   -7.3494 N   0  0  0  0  0  0  0  0  0  0  0  0
   18.3403   48.5054   -7.0759 C   0  0  0  0  0  0  0  0  0  0  0  0
   17.2588   48.8887   -6.3582 N   0  0  0  0  0  0  0  0  0  0  0  0
   16.4976   47.8020   -6.1501 C   0  0  0  0  0  0  0  0  0  0  0  0
   15.2140   47.5187   -5.4636 C   0  0  0  0  0  0  0  0  0  0  0  0
   14.5218   48.4964   -4.8251 N   0  0  0  0  0  0  0  0  0  0  0  0
   14.7536   46.2480   -5.4775 N   0  0  0  0  0  0  0  0  0  0  0  0
   15.4273   45.2658   -6.0944 C   0  0  0  0  0  0  0  0  0  0  0  0
   16.5939   45.4611   -6.7209 N   0  0  0  0  0  0  0  0  0  0  0  0
   17.1889   46.6849   -6.7947 C   0  0  0  0  0  0  0  0  0  0  0  0
   14.8646   49.4193   -4.8201 H   0  0  0  0  0  0  0  0  0  0  0  0
   13.6770   48.2826   -4.3669 H   0  0  0  0  0  0  0  0  0  0  0  0
   21.0634   49.1305   -9.8562 C   0  0  0  0  0  0  0  0  0  0  0  0
   20.3571   49.6451  -10.9893 O   0  0  0  0  0  0  0  0  0  0  0  0
   20.5053   51.1702  -11.5143 P   0  0  0  0  0  0  0  0  0  0  0  0
   21.3179   51.2039  -12.7723 O   0  0  0  0  0  0  0  0  0  0  0  0
   20.7007   52.1838  -10.4186 O   0  0  0  0  0  0  0  0  0  0  0  0
   20.7811   53.0688  -10.8073 H   0  0  0  0  0  0  0  0  0  0  0  0
   18.9736   51.3966  -11.9453 O   0  0  0  0  0  0  0  0  0  0  0  0
   17.7016   50.8347  -11.1172 P   0  0  0  0  0  0  0  0  0  0  0  0
   17.9454   51.1265   -9.6732 O   0  0  0  0  0  0  0  0  0  0  0  0
   17.2894   49.5246  -11.6867 O   0  0  0  0  0  0  0  0  0  0  0  0
   16.5270   49.1833  -11.1937 H   0  0  0  0  0  0  0  0  0  0  0  0
   16.6533   51.9652  -11.6567 O   0  0  0  0  0  0  0  0  0  0  0  0
   16.1379   53.3295  -10.9667 P   0  0  0  0  0  0  0  0  0  0  0  0
   17.8298   54.5406  -10.9788 S   0  0  0  0  0  0  0  0  0  0  0  0
   15.1553   54.0594  -11.8548 O   0  0  0  0  0  0  0  0  0  0  0  0
   15.6022   52.9935   -9.5767 O   0  0  0  0  0  0  0  0  0  0  0  0
   14.8642   54.8732  -11.4145 H   0  0  0  0  0  0  0  0  0  0  0  0
   15.2875   53.8041   -9.1469 H   0  0  0  0  0  0  0  0  0  0  0  0
 34 35  2  0  0  0
 34 36  1  0  0  0
 34 37  1  0  0  0
 34 33  1  0  0  0
 29 30  2  0  0  0
 29 31  1  0  0  0
 29 33  1  0  0  0
 29 28  1  0  0  0
 24 25  2  0  0  0
 24 26  1  0  0  0
 24 28  1  0  0  0
 24 23  1  0  0  0
 23 22  1  0  0  0
 22  1  1  0  0  0
  1  2  1  0  0  0
  1  3  1  0  0  0
  2  7  1  0  0  0
  3  4  1  0  0  0
  3  5  1  0  0  0
  5  6  1  0  0  0
  5  7  1  0  0  0
  7 10  1  0  0  0
 10 11  1  0  0  0
 10 19  1  0  0  0
 11 12  2  0  0  0
 12 13  1  0  0  0
 13 14  1  0  0  0
 13 19  2  0  0  0
 14 15  1  0  0  0
 14 16  2  0  0  0
 16 17  1  0  0  0
 17 18  2  0  0  0
 18 19  1  0  0  0
 36 38  1  0  0  0
 37 39  1  0  0  0
 31 32  1  0  0  0
 26 27  1  0  0  0
  4  8  1  0  0  0
  6  9  1  0  0  0
 15 20  1  0  0  0
 15 21  1  0  0  0
M  END
> <minimizedAffinity>
-9.74605

$$$$
3HU3_AGS_A_800


 39 41  0  0  0  0  0  0  0  0999 V2000
   21.0430   47.5799  -10.5073 C   0  0  0  0  0  0  0  0  0  0  0  0
   21.0255   47.5236   -9.0664 O   0  0  0  0  0  0  0  0  0  0  0  0
   20.4327   46.2597  -10.9555 C   0  0  0  0  0  0  0  0  0  0  0  0
   20.7784   45.8632  -12.2954 O   0  0  0  0  0  0  0  0  0  0  0  0
   20.8580   45.2875   -9.8887 C   0  0  0  0  0  0  0  0  0  0  0  0
   22.2239   44.9218  -10.1349 O   0  0  0  0  0  0  0  0  0  0  0  0
   20.8007   46.1607   -8.6231 C   0  0  0  0  0  0  0  0  0  0  0  0
   21.7410   45.7664  -12.3658 H   0  0  0  0  0  0  0  0  0  0  0  0
   22.7688   45.7227  -10.1862 H   0  0  0  0  0  0  0  0  0  0  0  0
   19.4894   46.0096   -7.9465 N   0  0  0  0  0  0  0  0  0  0  0  0
   18.9358   44.8360   -7.6255 C   0  0  0  0  0  0  0  0  0  0  0  0
   17.7441   44.9926   -7.0033 N   0  0  0  0  0  0  0  0  0  0  0  0
   17.5003   46.3099   -6.9082 C   0  0  0  0  0  0  0  0  0  0  0  0
   16.4127   47.1525   -6.3545 C   0  0  0  0  0  0  0  0  0  0  0  0
   15.3126   46.6016   -5.7809 N   0  0  0  0  0  0  0  0  0  0  0  0
   16.5389   48.4948   -6.4492 N   0  0  0  0  0  0  0  0  0  0  0  0
   17.6134   49.0586   -7.0210 C   0  0  0  0  0  0  0  0  0  0  0  0
   18.6195   48.3485   -7.5455 N   0  0  0  0  0  0  0  0  0  0  0  0
   18.6400   46.9860   -7.5288 C   0  0  0  0  0  0  0  0  0  0  0  0
   15.2291   45.6228   -5.7161 H   0  0  0  0  0  0  0  0  0  0  0  0
   14.5983   47.1809   -5.4296 H   0  0  0  0  0  0  0  0  0  0  0  0
   20.2225   48.7773  -11.0045 C   0  0  0  0  0  0  0  0  0  0  0  0
   21.0461   49.9438  -10.9100 O   0  0  0  0  0  0  0  0  0  0  0  0
   20.6861   51.3494  -11.6298 P   0  0  0  0  0  0  0  0  0  0  0  0
   21.3488   51.4243  -12.9711 O   0  0  0  0  0  0  0  0  0  0  0  0
   20.6531   52.5300  -10.6964 O   0  0  0  0  0  0  0  0  0  0  0  0
   20.4322   53.3313  -11.1963 H   0  0  0  0  0  0  0  0  0  0  0  0
   19.1283   51.0584  -11.8977 O   0  0  0  0  0  0  0  0  0  0  0  0
   18.0407   52.1961  -12.2749 P   0  0  0  0  0  0  0  0  0  0  0  0
   16.8643   51.5047  -12.8813 O   0  0  0  0  0  0  0  0  0  0  0  0
   18.7464   53.3773  -12.8383 O   0  0  0  0  0  0  0  0  0  0  0  0
   18.0987   54.0625  -13.0661 H   0  0  0  0  0  0  0  0  0  0  0  0
   17.6387   52.5449  -10.7306 O   0  0  0  0  0  0  0  0  0  0  0  0
   16.1919   52.6657  -10.0270 P   0  0  0  0  0  0  0  0  0  0  0  0
   15.2775   54.2128  -11.0758 S   0  0  0  0  0  0  0  0  0  0  0  0
   15.3312   51.4586  -10.3254 O   0  0  0  0  0  0  0  0  0  0  0  0
   16.4013   52.9385   -8.5392 O   0  0  0  0  0  0  0  0  0  0  0  0
   14.4702   51.5598   -9.8902 H   0  0  0  0  0  0  0  0  0  0  0  0
   15.5397   53.0141   -8.0999 H   0  0  0  0  0  0  0  0  0  0  0  0
 34 35  2  0  0  0
 34 36  1  0  0  0
 34 37  1  0  0  0
 34 33  1  0  0  0
 29 30  2  0  0  0
 29 31  1  0  0  0
 29 33  1  0  0  0
 29 28  1  0  0  0
 24 25  2  0  0  0
 24 26  1  0  0  0
 24 28  1  0  0  0
 24 23  1  0  0  0
 23 22  1  0  0  0
 22  1  1  0  0  0
  1  2  1  0  0  0
  1  3  1  0  0  0
  2  7  1  0  0  0
  3  4  1  0  0  0
  3  5  1  0  0  0
  5  6  1  0  0  0
  5  7  1  0  0  0
  7 10  1  0  0  0
 10 11  1  0  0  0
 10 19  1  0  0  0
 11 12  2  0  0  0
 12 13  1  0  0  0
 13 14  1  0  0  0
 13 19  2  0  0  0
 14 15  1  0  0  0
 14 16  2  0  0  0
 16 17  1  0  0  0
 17 18  2  0  0  0
 18 19  1  0  0  0
 36 38  1  0  0  0
 37 39  1  0  0  0
 31 32  1  0  0  0
 26 27  1  0  0  0
  4  8  1  0  0  0
  6  9  1  0  0  0
 15 20  1  0  0  0
 15 21  1  0  0  0
M  END
> <minimizedAffinity>
-9.69112

$$$$
3HU3_AGS_A_800


 39 41  0  0  0  0  0  0  0  0999 V2000
   20.3912   47.5474   -9.8847 C   0  0  0  0  0  0  0  0  0  0  0  0
   20.3574   47.9719   -8.5070 O   0  0  0  0  0  0  0  0  0  0  0  0
   19.6031   46.2456   -9.9101 C   0  0  0  0  0  0  0  0  0  0  0  0
   19.8972   45.3878  -11.0280 O   0  0  0  0  0  0  0  0  0  0  0  0
   19.8803   45.6323   -8.5643 C   0  0  0  0  0  0  0  0  0  0  0  0
   21.1822   45.0296   -8.6065 O   0  0  0  0  0  0  0  0  0  0  0  0
   19.9395   46.8732   -7.6566 C   0  0  0  0  0  0  0  0  0  0  0  0
   20.8369   45.1476  -11.0128 H   0  0  0  0  0  0  0  0  0  0  0  0
   21.8352   45.6897   -8.8871 H   0  0  0  0  0  0  0  0  0  0  0  0
   18.6160   47.1275   -7.0371 N   0  0  0  0  0  0  0  0  0  0  0  0
   18.1267   48.3430   -6.7727 C   0  0  0  0  0  0  0  0  0  0  0  0
   16.8925   48.2819   -6.2206 N   0  0  0  0  0  0  0  0  0  0  0  0
   16.5526   46.9868   -6.1164 C   0  0  0  0  0  0  0  0  0  0  0  0
   15.3760   46.2331   -5.6196 C   0  0  0  0  0  0  0  0  0  0  0  0
   14.2981   46.8692   -5.0940 N   0  0  0  0  0  0  0  0  0  0  0  0
   15.4103   44.8838   -5.6905 N   0  0  0  0  0  0  0  0  0  0  0  0
   16.4698   44.2359   -6.1972 C   0  0  0  0  0  0  0  0  0  0  0  0
   17.5619   44.8630   -6.6509 N   0  0  0  0  0  0  0  0  0  0  0  0
   17.6807   46.2206   -6.6470 C   0  0  0  0  0  0  0  0  0  0  0  0
   14.2817   47.8524   -5.0463 H   0  0  0  0  0  0  0  0  0  0  0  0
   13.5328   46.3474   -4.7606 H   0  0  0  0  0  0  0  0  0  0  0  0
   19.7512   48.6110  -10.7866 C   0  0  0  0  0  0  0  0  0  0  0  0
   20.7977   49.4467  -11.2908 O   0  0  0  0  0  0  0  0  0  0  0  0
   20.6135   51.0303  -11.5770 P   0  0  0  0  0  0  0  0  0  0  0  0
   21.2746   51.3991  -12.8696 O   0  0  0  0  0  0  0  0  0  0  0  0
   20.7325   51.8968  -10.3518 O   0  0  0  0  0  0  0  0  0  0  0  0
   20.6116   52.8266  -10.6003 H   0  0  0  0  0  0  0  0  0  0  0  0
   19.0304   51.0137  -11.8539 O   0  0  0  0  0  0  0  0  0  0  0  0
   18.1411   52.3360  -12.1368 P   0  0  0  0  0  0  0  0  0  0  0  0
   16.9333   51.9058  -12.9022 O   0  0  0  0  0  0  0  0  0  0  0  0
   19.0433   53.4640  -12.4894 O   0  0  0  0  0  0  0  0  0  0  0  0
   18.5151   54.2594  -12.6600 H   0  0  0  0  0  0  0  0  0  0  0  0
   17.6692   52.5406  -10.5865 O   0  0  0  0  0  0  0  0  0  0  0  0
   16.2684   52.1957   -9.8642 P   0  0  0  0  0  0  0  0  0  0  0  0
   16.2920   50.1187   -9.7412 S   0  0  0  0  0  0  0  0  0  0  0  0
   16.2652   52.6506   -8.4219 O   0  0  0  0  0  0  0  0  0  0  0  0
   15.1357   52.7732  -10.7099 O   0  0  0  0  0  0  0  0  0  0  0  0
   15.4125   52.4303   -8.0153 H   0  0  0  0  0  0  0  0  0  0  0  0
   14.2845   52.5746  -10.2892 H   0  0  0  0  0  0  0  0  0  0  0  0
 34 35  2  0  0  0
 34 36  1  0  0  0
 34 37  1  0  0  0
 34 33  1  0  0  0
 29 30  2  0  0  0
 29 31  1  0  0  0
 29 33  1  0  0  0
 29 28  1  0  0  0
 24 25  2  0  0  0
 24 26  1  0  0  0
 24 28  1  0  0  0
 24 23  1  0  0  0
 23 22  1  0  0  0
 22  1  1  0  0  0
  1  2  1  0  0  0
  1  3  1  0  0  0
  2  7  1  0  0  0
  3  4  1  0  0  0
  3  5  1  0  0  0
  5  6  1  0  0  0
  5  7  1  0  0  0
  7 10  1  0  0  0
 10 11  1  0  0  0
 10 19  1  0  0  0
 11 12  2  0  0  0
 12 13  1  0  0  0
 13 14  1  0  0  0
 13 19  2  0  0  0
 14 15  1  0  0  0
 14 16  2  0  0  0
 16 17  1  0  0  0
 17 18  2  0  0  0
 18 19  1  0  0  0
 36 38  1  0  0  0
 37 39  1  0  0  0
 31 32  1  0  0  0
 26 27  1  0  0  0
  4  8  1  0  0  0
  6  9  1  0  0  0
 15 20  1  0  0  0
 15 21  1  0  0  0
M  END
> <minimizedAffinity>
-9.32973

$$$$
3HU3_AGS_A_800


 39 41  0  0  0  0  0  0  0  0999 V2000
   16.0815   50.7425   -8.5044 C   0  0  0  0  0  0  0  0  0  0  0  0
   15.6382   49.4622   -8.0107 O   0  0  0  0  0  0  0  0  0  0  0  0
   17.2469   51.1247   -7.6033 C   0  0  0  0  0  0  0  0  0  0  0  0
   17.5386   52.5337   -7.5646 O   0  0  0  0  0  0  0  0  0  0  0  0
   16.8812   50.5273   -6.2714 C   0  0  0  0  0  0  0  0  0  0  0  0
   15.9121   51.3830   -5.6479 O   0  0  0  0  0  0  0  0  0  0  0  0
   16.1883   49.2190   -6.6905 C   0  0  0  0  0  0  0  0  0  0  0  0
   16.7620   53.0159   -7.2399 H   0  0  0  0  0  0  0  0  0  0  0  0
   15.1610   51.5120   -6.2480 H   0  0  0  0  0  0  0  0  0  0  0  0
   17.1573   48.0961   -6.6946 N   0  0  0  0  0  0  0  0  0  0  0  0
   18.4774   48.2379   -6.8498 C   0  0  0  0  0  0  0  0  0  0  0  0
   19.1230   47.0496   -6.7982 N   0  0  0  0  0  0  0  0  0  0  0  0
   18.2035   46.0906   -6.6020 C   0  0  0  0  0  0  0  0  0  0  0  0
   18.2214   44.6154   -6.4508 C   0  0  0  0  0  0  0  0  0  0  0  0
   19.3796   43.9108   -6.5196 N   0  0  0  0  0  0  0  0  0  0  0  0
   17.0431   43.9830   -6.2555 N   0  0  0  0  0  0  0  0  0  0  0  0
   15.8867   44.6598   -6.1942 C   0  0  0  0  0  0  0  0  0  0  0  0
   15.8093   45.9889   -6.3334 N   0  0  0  0  0  0  0  0  0  0  0  0
   16.9083   46.7686   -6.5365 C   0  0  0  0  0  0  0  0  0  0  0  0
   20.2334   44.3798   -6.6621 H   0  0  0  0  0  0  0  0  0  0  0  0
   19.3658   42.9308   -6.4269 H   0  0  0  0  0  0  0  0  0  0  0  0
   16.5179   50.6270   -9.9709 C   0  0  0  0  0  0  0  0  0  0  0  0
   17.2240   51.8232  -10.3147 O   0  0  0  0  0  0  0  0  0  0  0  0
   17.9230   52.0624  -11.7561 P   0  0  0  0  0  0  0  0  0  0  0  0
   18.8357   53.2485  -11.6941 O   0  0  0  0  0  0  0  0  0  0  0  0
   17.0117   51.8255  -12.9307 O   0  0  0  0  0  0  0  0  0  0  0  0
   17.4974   51.9873  -13.7546 H   0  0  0  0  0  0  0  0  0  0  0  0
   18.8594   50.7561  -11.7578 O   0  0  0  0  0  0  0  0  0  0  0  0
   20.4460   50.7722  -11.4387 P   0  0  0  0  0  0  0  0  0  0  0  0
   20.6111   51.2072  -10.0198 O   0  0  0  0  0  0  0  0  0  0  0  0
   21.1737   51.3236  -12.6122 O   0  0  0  0  0  0  0  0  0  0  0  0
   22.1256   51.3354  -12.4260 H   0  0  0  0  0  0  0  0  0  0  0  0
   20.6250   49.1487  -11.4584 O   0  0  0  0  0  0  0  0  0  0  0  0
   20.4623   48.0629  -10.2763 P   0  0  0  0  0  0  0  0  0  0  0  0
   21.5272   46.4215  -10.9842 S   0  0  0  0  0  0  0  0  0  0  0  0
   21.2153   48.4834   -9.0340 O   0  0  0  0  0  0  0  0  0  0  0  0
   18.9724   47.8113  -10.0554 O   0  0  0  0  0  0  0  0  0  0  0  0
   21.0990   47.8128   -8.3429 H   0  0  0  0  0  0  0  0  0  0  0  0
   18.8562   47.1595   -9.3464 H   0  0  0  0  0  0  0  0  0  0  0  0
 34 35  2  0  0  0
 34 36  1  0  0  0
 34 37  1  0  0  0
 34 33  1  0  0  0
 29 30  2  0  0  0
 29 31  1  0  0  0
 29 33  1  0  0  0
 29 28  1  0  0  0
 24 25  2  0  0  0
 24 26  1  0  0  0
 24 28  1  0  0  0
 24 23  1  0  0  0
 23 22  1  0  0  0
 22  1  1  0  0  0
  1  2  1  0  0  0
  1  3  1  0  0  0
  2  7  1  0  0  0
  3  4  1  0  0  0
  3  5  1  0  0  0
  5  6  1  0  0  0
  5  7  1  0  0  0
  7 10  1  0  0  0
 10 11  1  0  0  0
 10 19  1  0  0  0
 11 12  2  0  0  0
 12 13  1  0  0  0
 13 14  1  0  0  0
 13 19  2  0  0  0
 14 15  1  0  0  0
 14 16  2  0  0  0
 16 17  1  0  0  0
 17 18  2  0  0  0
 18 19  1  0  0  0
 36 38  1  0  0  0
 37 39  1  0  0  0
 31 32  1  0  0  0
 26 27  1  0  0  0
  4  8  1  0  0  0
  6  9  1  0  0  0
 15 20  1  0  0  0
 15 21  1  0  0  0
M  END
> <minimizedAffinity>
-9.22324

$$$$
3HU3_AGS_A_800


 39 41  0  0  0  0  0  0  0  0999 V2000
   18.9364   48.2378   -9.6555 C   0  0  0  0  0  0  0  0  0  0  0  0
   18.5405   49.2086   -8.6654 O   0  0  0  0  0  0  0  0  0  0  0  0
   18.5280   46.8945   -9.0683 C   0  0  0  0  0  0  0  0  0  0  0  0
   19.2341   45.7632   -9.6100 O   0  0  0  0  0  0  0  0  0  0  0  0
   18.6997   47.0843   -7.5854 C   0  0  0  0  0  0  0  0  0  0  0  0
   20.0974   46.9725   -7.2785 O   0  0  0  0  0  0  0  0  0  0  0  0
   18.2692   48.5500   -7.4016 C   0  0  0  0  0  0  0  0  0  0  0  0
   20.1844   45.8655   -9.4442 H   0  0  0  0  0  0  0  0  0  0  0  0
   20.5990   47.5996   -7.8226 H   0  0  0  0  0  0  0  0  0  0  0  0
   16.8339   48.6279   -7.0357 N   0  0  0  0  0  0  0  0  0  0  0  0
   15.9151   49.3134   -7.7233 C   0  0  0  0  0  0  0  0  0  0  0  0
   14.6835   49.1997   -7.1739 N   0  0  0  0  0  0  0  0  0  0  0  0
   14.7884   48.4144   -6.0894 C   0  0  0  0  0  0  0  0  0  0  0  0
   13.8567   47.8933   -5.0600 C   0  0  0  0  0  0  0  0  0  0  0  0
   12.5375   48.2134   -5.0721 N   0  0  0  0  0  0  0  0  0  0  0  0
   14.3613   47.0960   -4.0924 N   0  0  0  0  0  0  0  0  0  0  0  0
   15.6634   46.7757   -4.0571 C   0  0  0  0  0  0  0  0  0  0  0  0
   16.5510   47.2241   -4.9531 N   0  0  0  0  0  0  0  0  0  0  0  0
   16.1986   48.0370   -5.9885 C   0  0  0  0  0  0  0  0  0  0  0  0
   12.1786   48.7949   -5.7808 H   0  0  0  0  0  0  0  0  0  0  0  0
   11.9398   47.8641   -4.3721 H   0  0  0  0  0  0  0  0  0  0  0  0
   18.2229   48.5112  -10.9861 C   0  0  0  0  0  0  0  0  0  0  0  0
   17.4885   49.7316  -10.8480 O   0  0  0  0  0  0  0  0  0  0  0  0
   16.2837   50.1638  -11.8406 P   0  0  0  0  0  0  0  0  0  0  0  0
   15.2763   49.0593  -11.9371 O   0  0  0  0  0  0  0  0  0  0  0  0
   16.7301   50.9359  -13.0533 O   0  0  0  0  0  0  0  0  0  0  0  0
   15.9584   51.1585  -13.5971 H   0  0  0  0  0  0  0  0  0  0  0  0
   15.6369   51.3013  -10.9074 O   0  0  0  0  0  0  0  0  0  0  0  0
   15.9677   52.8805  -11.0342 P   0  0  0  0  0  0  0  0  0  0  0  0
   15.5552   53.5267   -9.7528 O   0  0  0  0  0  0  0  0  0  0  0  0
   15.6123   53.3448  -12.4012 O   0  0  0  0  0  0  0  0  0  0  0  0
   15.8087   54.2912  -12.4825 H   0  0  0  0  0  0  0  0  0  0  0  0
   17.5905   52.7048  -10.9731 O   0  0  0  0  0  0  0  0  0  0  0  0
   18.7580   53.4748  -11.7774 P   0  0  0  0  0  0  0  0  0  0  0  0
   18.6360   55.4210  -11.0514 S   0  0  0  0  0  0  0  0  0  0  0  0
   20.1285   53.0046  -11.3440 O   0  0  0  0  0  0  0  0  0  0  0  0
   18.4866   53.3325  -13.2734 O   0  0  0  0  0  0  0  0  0  0  0  0
   20.8078   53.4841  -11.8436 H   0  0  0  0  0  0  0  0  0  0  0  0
   19.1806   53.7906  -13.7729 H   0  0  0  0  0  0  0  0  0  0  0  0
 34 35  2  0  0  0
 34 36  1  0  0  0
 34 37  1  0  0  0
 34 33  1  0  0  0
 29 30  2  0  0  0
 29 31  1  0  0  0
 29 33  1  0  0  0
 29 28  1  0  0  0
 24 25  2  0  0  0
 24 26  1  0  0  0
 24 28  1  0  0  0
 24 23  1  0  0  0
 23 22  1  0  0  0
 22  1  1  0  0  0
  1  2  1  0  0  0
  1  3  1  0  0  0
  2  7  1  0  0  0
  3  4  1  0  0  0
  3  5  1  0  0  0
  5  6  1  0  0  0
  5  7  1  0  0  0
  7 10  1  0  0  0
 10 11  1  0  0  0
 10 19  1  0  0  0
 11 12  2  0  0  0
 12 13  1  0  0  0
 13 14  1  0  0  0
 13 19  2  0  0  0
 14 15  1  0  0  0
 14 16  2  0  0  0
 16 17  1  0  0  0
 17 18  2  0  0  0
 18 19  1  0  0  0
 36 38  1  0  0  0
 37 39  1  0  0  0
 31 32  1  0  0  0
 26 27  1  0  0  0
  4  8  1  0  0  0
  6  9  1  0  0  0
 15 20  1  0  0  0
 15 21  1  0  0  0
M  END
> <minimizedAffinity>
-9.14705

$$$$
3HU3_AGS_A_800


 39 41  0  0  0  0  0  0  0  0999 V2000
   19.9791   45.7795   -8.8195 C   0  0  0  0  0  0  0  0  0  0  0  0
   19.6105   46.7720   -7.8404 O   0  0  0  0  0  0  0  0  0  0  0  0
   19.2291   44.5230   -8.4012 C   0  0  0  0  0  0  0  0  0  0  0  0
   19.7902   43.2950   -8.9002 O   0  0  0  0  0  0  0  0  0  0  0  0
   19.1768   44.6195   -6.9004 C   0  0  0  0  0  0  0  0  0  0  0  0
   20.4543   44.2211   -6.3814 O   0  0  0  0  0  0  0  0  0  0  0  0
   19.0067   46.1336   -6.6860 C   0  0  0  0  0  0  0  0  0  0  0  0
   20.6999   43.2004   -8.5771 H   0  0  0  0  0  0  0  0  0  0  0  0
   21.1514   44.7560   -6.7924 H   0  0  0  0  0  0  0  0  0  0  0  0
   17.5711   46.4813   -6.5511 N   0  0  0  0  0  0  0  0  0  0  0  0
   16.6072   45.6060   -6.2485 C   0  0  0  0  0  0  0  0  0  0  0  0
   15.3920   46.1975   -6.1759 N   0  0  0  0  0  0  0  0  0  0  0  0
   15.5550   47.5047   -6.4375 C   0  0  0  0  0  0  0  0  0  0  0  0
   14.6691   48.6912   -6.5186 C   0  0  0  0  0  0  0  0  0  0  0  0
   13.3303   48.5901   -6.3184 N   0  0  0  0  0  0  0  0  0  0  0  0
   15.2314   49.8843   -6.8139 N   0  0  0  0  0  0  0  0  0  0  0  0
   16.5507   50.0036   -7.0248 C   0  0  0  0  0  0  0  0  0  0  0  0
   17.3959   48.9669   -6.9742 N   0  0  0  0  0  0  0  0  0  0  0  0
   16.9833   47.6998   -6.6890 C   0  0  0  0  0  0  0  0  0  0  0  0
   12.9292   47.7170   -6.1037 H   0  0  0  0  0  0  0  0  0  0  0  0
   12.7604   49.3899   -6.3879 H   0  0  0  0  0  0  0  0  0  0  0  0
   19.5691   46.2385  -10.2250 C   0  0  0  0  0  0  0  0  0  0  0  0
   20.4908   47.2502  -10.6430 O   0  0  0  0  0  0  0  0  0  0  0  0
   20.4576   48.7709  -10.0862 P   0  0  0  0  0  0  0  0  0  0  0  0
   21.7338   49.0825   -9.3666 O   0  0  0  0  0  0  0  0  0  0  0  0
   19.1196   49.2016   -9.5473 O   0  0  0  0  0  0  0  0  0  0  0  0
   19.1769   50.1178   -9.2340 H   0  0  0  0  0  0  0  0  0  0  0  0
   20.5314   49.5192  -11.5067 O   0  0  0  0  0  0  0  0  0  0  0  0
   20.5675   51.1269  -11.6887 P   0  0  0  0  0  0  0  0  0  0  0  0
   21.3154   51.4165  -12.9483 O   0  0  0  0  0  0  0  0  0  0  0  0
   20.8051   51.7621  -10.3655 O   0  0  0  0  0  0  0  0  0  0  0  0
   20.8276   52.7263  -10.4691 H   0  0  0  0  0  0  0  0  0  0  0  0
   18.9790   51.2796  -12.0373 O   0  0  0  0  0  0  0  0  0  0  0  0
   17.9793   52.5305  -11.8406 P   0  0  0  0  0  0  0  0  0  0  0  0
   16.6228   51.8406  -10.4216 S   0  0  0  0  0  0  0  0  0  0  0  0
   18.6722   53.6877  -11.1565 O   0  0  0  0  0  0  0  0  0  0  0  0
   17.3666   52.8750  -13.1962 O   0  0  0  0  0  0  0  0  0  0  0  0
   18.0478   54.4226  -11.0524 H   0  0  0  0  0  0  0  0  0  0  0  0
   16.7616   53.6266  -13.0960 H   0  0  0  0  0  0  0  0  0  0  0  0
 34 35  2  0  0  0
 34 36  1  0  0  0
 34 37  1  0  0  0
 34 33  1  0  0  0
 29 30  2  0  0  0
 29 31  1  0  0  0
 29 33  1  0  0  0
 29 28  1  0  0  0
 24 25  2  0  0  0
 24 26  1  0  0  0
 24 28  1  0  0  0
 24 23  1  0  0  0
 23 22  1  0  0  0
 22  1  1  0  0  0
  1  2  1  0  0  0
  1  3  1  0  0  0
  2  7  1  0  0  0
  3  4  1  0  0  0
  3  5  1  0  0  0
  5  6  1  0  0  0
  5  7  1  0  0  0
  7 10  1  0  0  0
 10 11  1  0  0  0
 10 19  1  0  0  0
 11 12  2  0  0  0
 12 13  1  0  0  0
 13 14  1  0  0  0
 13 19  2  0  0  0
 14 15  1  0  0  0
 14 16  2  0  0  0
 16 17  1  0  0  0
 17 18  2  0  0  0
 18 19  1  0  0  0
 36 38  1  0  0  0
 37 39  1  0  0  0
 31 32  1  0  0  0
 26 27  1  0  0  0
  4  8  1  0  0  0
  6  9  1  0  0  0
 15 20  1  0  0  0
 15 21  1  0  0  0
M  END
> <minimizedAffinity>
-9.14507

$$$$
3HU3_AGS_A_800


 39 41  0  0  0  0  0  0  0  0999 V2000
   19.5892   45.2075   -9.9159 C   0  0  0  0  0  0  0  0  0  0  0  0
   20.0034   44.5796  -11.1463 O   0  0  0  0  0  0  0  0  0  0  0  0
   20.8487   45.2605   -9.0631 C   0  0  0  0  0  0  0  0  0  0  0  0
   20.6109   45.3804   -7.6485 O   0  0  0  0  0  0  0  0  0  0  0  0
   21.6062   44.0240   -9.4649 C   0  0  0  0  0  0  0  0  0  0  0  0
   21.0124   42.8992   -8.7999 O   0  0  0  0  0  0  0  0  0  0  0  0
   21.2898   43.9330  -10.9679 C   0  0  0  0  0  0  0  0  0  0  0  0
   20.0952   44.6183   -7.3416 H   0  0  0  0  0  0  0  0  0  0  0  0
   20.0636   42.8694   -8.9997 H   0  0  0  0  0  0  0  0  0  0  0  0
   22.3539   44.5920  -11.7638 N   0  0  0  0  0  0  0  0  0  0  0  0
   22.2249   45.7823  -12.3583 C   0  0  0  0  0  0  0  0  0  0  0  0
   23.3558   46.1495  -13.0050 N   0  0  0  0  0  0  0  0  0  0  0  0
   24.2624   45.1736  -12.8335 C   0  0  0  0  0  0  0  0  0  0  0  0
   25.6642   44.9384  -13.2566 C   0  0  0  0  0  0  0  0  0  0  0  0
   26.3311   45.8354  -14.0268 N   0  0  0  0  0  0  0  0  0  0  0  0
   26.2617   43.7913  -12.8644 N   0  0  0  0  0  0  0  0  0  0  0  0
   25.6169   42.8878  -12.1113 C   0  0  0  0  0  0  0  0  0  0  0  0
   24.3497   43.0423  -11.7088 N   0  0  0  0  0  0  0  0  0  0  0  0
   23.6116   44.1441  -12.0223 C   0  0  0  0  0  0  0  0  0  0  0  0
   25.8881   46.6685  -14.3079 H   0  0  0  0  0  0  0  0  0  0  0  0
   27.2579   45.6530  -14.3044 H   0  0  0  0  0  0  0  0  0  0  0  0
   19.0371   46.6119  -10.1930 C   0  0  0  0  0  0  0  0  0  0  0  0
   18.8621   47.2712   -8.9351 O   0  0  0  0  0  0  0  0  0  0  0  0
   17.4617   47.9350   -8.4641 P   0  0  0  0  0  0  0  0  0  0  0  0
   17.3154   47.8251   -6.9774 O   0  0  0  0  0  0  0  0  0  0  0  0
   16.3088   47.6687   -9.3947 O   0  0  0  0  0  0  0  0  0  0  0  0
   15.5091   48.0951   -9.0490 H   0  0  0  0  0  0  0  0  0  0  0  0
   17.8345   49.4658   -8.7816 O   0  0  0  0  0  0  0  0  0  0  0  0
   16.9259   50.7333   -8.3489 P   0  0  0  0  0  0  0  0  0  0  0  0
   17.7340   51.5591   -7.4029 O   0  0  0  0  0  0  0  0  0  0  0  0
   15.5259   50.2798   -8.1368 O   0  0  0  0  0  0  0  0  0  0  0  0
   14.9769   51.0361   -7.8771 H   0  0  0  0  0  0  0  0  0  0  0  0
   16.9946   51.4769   -9.8017 O   0  0  0  0  0  0  0  0  0  0  0  0
   16.9229   50.8681  -11.2940 P   0  0  0  0  0  0  0  0  0  0  0  0
   16.3932   52.5108  -12.4561 S   0  0  0  0  0  0  0  0  0  0  0  0
   18.2957   50.4856  -11.8000 O   0  0  0  0  0  0  0  0  0  0  0  0
   15.9082   49.7269  -11.3002 O   0  0  0  0  0  0  0  0  0  0  0  0
   18.2205   50.1237  -12.6968 H   0  0  0  0  0  0  0  0  0  0  0  0
   15.8523   49.3487  -12.1916 H   0  0  0  0  0  0  0  0  0  0  0  0
 34 35  2  0  0  0
 34 36  1  0  0  0
 34 37  1  0  0  0
 34 33  1  0  0  0
 29 30  2  0  0  0
 29 31  1  0  0  0
 29 33  1  0  0  0
 29 28  1  0  0  0
 24 25  2  0  0  0
 24 26  1  0  0  0
 24 28  1  0  0  0
 24 23  1  0  0  0
 23 22  1  0  0  0
 22  1  1  0  0  0
  1  2  1  0  0  0
  1  3  1  0  0  0
  2  7  1  0  0  0
  3  4  1  0  0  0
  3  5  1  0  0  0
  5  6  1  0  0  0
  5  7  1  0  0  0
  7 10  1  0  0  0
 10 11  1  0  0  0
 10 19  1  0  0  0
 11 12  2  0  0  0
 12 13  1  0  0  0
 13 14  1  0  0  0
 13 19  2  0  0  0
 14 15  1  0  0  0
 14 16  2  0  0  0
 16 17  1  0  0  0
 17 18  2  0  0  0
 18 19  1  0  0  0
 36 38  1  0  0  0
 37 39  1  0  0  0
 31 32  1  0  0  0
 26 27  1  0  0  0
  4  8  1  0  0  0
  6  9  1  0  0  0
 15 20  1  0  0  0
 15 21  1  0  0  0
M  END
> <minimizedAffinity>
-9.08248

$$$$
