3HU3_AGS_A_800
  RCSB PDB12061708573D
Coordinates from PDB:3HU3:A:800 Model:1 without hydrogens
 31 33  0  0  0  0            999 V2000
   18.1600   52.9450  -12.0610   P 0  0  0  0  0  0  0  0  0  0  0  0
   16.2960   52.4140  -12.8180   S 0  0  0  0  0  0  0  0  0  0  0  0
   17.8770   53.3440  -10.6300   O 0  0  0  0  0  0  0  0  0  0  0  0
   18.9030   54.0020  -12.8750   O 0  0  0  0  0  0  0  0  0  0  0  0
   20.4530   51.1770  -11.5060   P 0  0  0  0  0  0  0  0  0  0  0  0
   21.4500   51.3230  -12.6080   O 0  0  0  0  0  0  0  0  0  0  0  0
   20.5460   51.7930  -10.1560   O 0  0  0  0  0  0  0  0  0  0  0  0
   18.9960   51.5670  -12.1330   O 0  0  0  0  0  0  0  0  0  0  0  0
   20.4810   48.7320  -10.0390   P 0  0  0  0  0  0  0  0  0  0  0  0
   21.9230   48.9850   -9.7220   O 0  0  0  0  0  0  0  0  0  0  0  0
   19.3820   49.1120   -9.0830   O 0  0  0  0  0  0  0  0  0  0  0  0
   20.1350   49.5980  -11.3480   O 0  0  0  0  0  0  0  0  0  0  0  0
   20.3070   47.2640  -10.7010   O 0  0  0  0  0  0  0  0  0  0  0  0
   19.1300   46.4650  -10.5460   C 0  0  0  0  0  0  0  0  0  0  0  0
   19.5690   45.0010  -10.4110   C 0  0  0  0  0  0  0  0  0  0  0  0
   20.0870   44.5150  -11.6660   O 0  0  0  0  0  0  0  0  0  0  0  0
   20.7230   44.8520   -9.4300   C 0  0  0  0  0  0  0  0  0  0  0  0
   20.3310   44.7990   -8.0460   O 0  0  0  0  0  0  0  0  0  0  0  0
   21.4530   43.6300   -9.9180   C 0  0  0  0  0  0  0  0  0  0  0  0
   20.7260   42.4710   -9.4840   O 0  0  0  0  0  0  0  0  0  0  0  0
   21.3070   43.7620  -11.4440   C 0  0  0  0  0  0  0  0  0  0  0  0
   22.4900   44.4450  -12.0220   N 0  0  0  0  0  0  0  0  0  0  0  0
   22.4570   45.6450  -12.6100   C 0  0  0  0  0  0  0  0  0  0  0  0
   23.6820   46.0340  -13.0340   N 0  0  0  0  0  0  0  0  0  0  0  0
   24.5540   45.0630  -12.7170   C 0  0  0  0  0  0  0  0  0  0  0  0
   26.0120   44.8480  -12.8820   C 0  0  0  0  0  0  0  0  0  0  0  0
   26.7970   45.7650  -13.5030   N 0  0  0  0  0  0  0  0  0  0  0  0
   26.5420   43.6990  -12.4070   N 0  0  0  0  0  0  0  0  0  0  0  0
   25.7820   42.7760  -11.7990   C 0  0  0  0  0  0  0  0  0  0  0  0
   24.4610   42.9120  -11.6310   N 0  0  0  0  0  0  0  0  0  0  0  0
   23.7790   44.0130  -12.0550   C 0  0  0  0  0  0  0  0  0  0  0  0
  1  2  2  0  0  0  0
  1  3  1  0  0  0  0
  1  4  1  0  0  0  0
  1  8  1  0  0  0  0
  5  6  2  0  0  0  0
  5  7  1  0  0  0  0
  5  8  1  0  0  0  0
  5 12  1  0  0  0  0
  9 10  2  0  0  0  0
  9 11  1  0  0  0  0
  9 12  1  0  0  0  0
  9 13  1  0  0  0  0
 13 14  1  0  0  0  0
 14 15  1  0  0  0  0
 15 16  1  0  0  0  0
 15 17  1  0  0  0  0
 16 21  1  0  0  0  0
 17 18  1  0  0  0  0
 17 19  1  0  0  0  0
 19 20  1  0  0  0  0
 19 21  1  0  0  0  0
 21 22  1  0  0  0  0
 22 23  1  0  0  0  0
 22 31  1  0  0  0  0
 23 24  2  0  0  0  0
 24 25  1  0  0  0  0
 25 26  1  0  0  0  0
 25 31  2  0  0  0  0
 26 27  1  0  0  0  0
 26 28  2  0  0  0  0
 28 29  1  0  0  0  0
 29 30  2  0  0  0  0
 30 31  1  0  0  0  0
A    1
PG
A    2
S1G
A    3
O2G
A    4
O3G
A    5
PB
A    6
O1B
A    7
O2B
A    8
O3B
A    9
PA
A   10
O1A
A   11
O2A
A   12
O3A
A   13
O5'
A   14
C5'
A   15
C4'
A   16
O4'
A   17
C3'
A   18
O3'
A   19
C2'
A   20
O2'
A   21
C1'
A   22
N9
A   23
C8
A   24
N7
A   25
C5
A   26
C6
A   27
N6
A   28
N1
A   29
C2
A   30
N3
A   31
C4
M  END
>  <InstanceId>
3HU3_AGS_A_800

>  <ChemCompId>
AGS

>  <PdbId>
3HU3

>  <ChainId>
A

>  <ResidueNumber>
800

>  <InsertionCode>


>  <Model>
1

>  <AltIds>


>  <MissingHeavyAtoms>
0

>  <ObservedFormula>
C10 N5 O12 P3 S

>  <Name>
PHOSPHOTHIOPHOSPHORIC ACID-ADENYLATE ESTER

>  <SystematicName>
[[(2R,3S,4R,5R)-5-(6-aminopurin-9-yl)-3,4-bis(oxidanyl)oxolan-2-yl]methoxy-oxidanyl-phosphoryl] bis(oxidanyl)phosphinothioyl hydrogen phosphate

>  <Synonyms>
ATP-GAMMA-S; ADENOSINE 5'-(3-THIOTRIPHOSPHATE); ADENOSINE 5'-(GAMMA-THIOTRIPHOSPHATE); ADENOSINE-5'-DIPHOSPHATE MONOTHIOPHOSPHATE

>  <Type>
NON-POLYMER

>  <Formula>
C10 H16 N5 O12 P3 S

>  <MolecularWeight>
523.247

>  <ModifiedDate>
2013-02-04

>  <Parent>


>  <OneLetterCode>


>  <SubcomponentList>


>  <AmbiguousFlag>
N

>  <InChI>
InChI=1S/C10H16N5O12P3S/c11-8-5-9(13-2-12-8)15(3-14-5)10-7(17)6(16)4(25-10)1-24-28(18,19)26-29(20,21)27-30(22,23)31/h2-4,6-7,10,16-17H,1H2,(H,18,19)(H,20,21)(H2,11,12,13)(H2,22,23,31)/t4-,6-,7-,10-/m1/s1

>  <InChIKey>
NLTUCYMLOPLUHL-KQYNXXCUSA-N

>  <SMILES>
c1nc(c2c(n1)n(cn2)[C@H]3[C@@H]([C@@H]([C@H](O3)COP(=O)(O)OP(=O)(O)OP(=S)(O)O)O)O)N

$$$$
