3EAX_LZP_A_322


 48 52  0  0  0  0  0  0  0  0999 V2000
   43.2604   18.6910   66.8158 C   0  0  0  0  0  0  0  0  0  0  0  0
   41.9437   17.9917   64.6448 C   0  0  0  0  0  0  0  0  0  0  0  0
   40.3734   17.7527   64.4402 C   0  0  0  0  0  0  0  0  0  0  0  0
   40.0183   16.9685   66.8613 C   0  0  0  0  0  0  0  0  0  0  0  0
   41.5777   16.6644   66.8260 C   0  0  0  0  0  0  0  0  0  0  0  0
   42.3168   17.8309   66.1393 N   0  0  0  0  0  0  0  0  0  0  0  0
   39.6679   17.9936   65.7998 N   0  0  0  0  0  0  0  0  0  0  0  0
   43.8408   19.6248   66.2234 O   0  0  0  0  0  0  0  0  0  0  0  0
   38.7751   19.0797   65.9285 C   0  0  0  0  0  0  0  0  0  0  0  0
   38.5181   19.8602   64.9760 O   0  0  0  0  0  0  0  0  0  0  0  0
   43.6124   18.4953   68.3188 C   0  0  0  0  0  0  0  0  0  0  0  0
   44.5415   17.7432   68.6523 O   0  0  0  0  0  0  0  0  0  0  0  0
   42.7855   19.2796   69.3929 C   0  0  0  0  0  0  0  0  0  0  0  0
   41.7648   18.5008   70.3017 C   0  0  0  0  0  0  0  0  0  0  0  0
   40.5553   18.5844   70.0583 O   0  0  0  0  0  0  0  0  0  0  0  0
   42.8830   15.3188   72.4866 C   0  0  0  0  0  0  0  0  0  0  0  0
   43.3051   16.0577   73.7321 C   0  0  0  0  0  0  0  0  0  0  0  0
   43.2245   17.5199   73.8468 C   0  0  0  0  0  0  0  0  0  0  0  0
   42.7240   18.3130   72.7305 C   0  0  0  0  0  0  0  0  0  0  0  0
   42.2878   17.6550   71.4646 C   0  0  0  0  0  0  0  0  0  0  0  0
   42.3780   16.1794   71.3769 C   0  0  0  0  0  0  0  0  0  0  0  0
   42.9645   13.8811   72.3782 O   0  0  0  0  0  0  0  0  0  0  0  0
   44.0301   13.1476   71.6627 C   0  0  0  0  0  0  0  0  0  0  0  0
   43.2779   10.8633   68.3328 C   0  0  0  0  0  0  0  0  0  0  0  0
   43.0629   11.8894   67.3182 C   0  0  0  0  0  0  0  0  0  0  0  0
   43.1621   13.4085   67.7199 C   0  0  0  0  0  0  0  0  0  0  0  0
   43.4731   13.7648   69.1183 C   0  0  0  0  0  0  0  0  0  0  0  0
   43.6976   12.7341   70.1737 C   0  0  0  0  0  0  0  0  0  0  0  0
   43.5844   11.2263   69.7163 C   0  0  0  0  0  0  0  0  0  0  0  0
   38.0792   19.3730   67.2808 C   0  0  0  0  0  0  0  0  0  0  0  0
   38.4672   20.2715   68.0398 O   0  0  0  0  0  0  0  0  0  0  0  0
   36.8514   18.4826   67.6449 C   0  0  0  0  0  0  0  0  0  0  0  0
   35.8808   18.9036   68.8053 C   0  0  0  0  0  0  0  0  0  0  0  0
   34.7925   19.4262   68.5239 O   0  0  0  0  0  0  0  0  0  0  0  0
   37.4539   17.7889   70.6075 C   0  0  0  0  0  0  0  0  0  0  0  0
   36.3083   18.6565   70.2595 C   0  0  0  0  0  0  0  0  0  0  0  0
   35.5566   19.3008   71.3727 C   0  0  0  0  0  0  0  0  0  0  0  0
   35.9475   19.0770   72.7657 C   0  0  0  0  0  0  0  0  0  0  0  0
   37.0887   18.2090   73.0748 C   0  0  0  0  0  0  0  0  0  0  0  0
   37.8946   17.5254   72.0063 C   0  0  0  0  0  0  0  0  0  0  0  0
   39.0022   16.6781   72.3464 O   0  0  0  0  0  0  0  0  0  0  0  0
   38.8679   15.2560   72.6806 C   0  0  0  0  0  0  0  0  0  0  0  0
   39.2509   14.7056   69.9995 C   0  0  0  0  0  0  0  0  0  0  0  0
   39.2535   14.2722   71.5179 C   0  0  0  0  0  0  0  0  0  0  0  0
   39.6407   12.8653   71.8087 C   0  0  0  0  0  0  0  0  0  0  0  0
   40.0047   11.9164   70.7438 C   0  0  0  0  0  0  0  0  0  0  0  0
   39.9864   12.3941   69.2444 C   0  0  0  0  0  0  0  0  0  0  0  0
   39.6108   13.7689   68.9346 C   0  0  0  0  0  0  0  0  0  0  0  0
 24 25  2  0  0  0
 24 29  1  0  0  0
 25 26  1  0  0  0
 26 27  2  0  0  0
 27 28  1  0  0  0
 28 29  2  0  0  0
 28 23  1  0  0  0
 23 22  1  0  0  0
 16 17  2  0  0  0
 16 21  1  0  0  0
 16 22  1  0  0  0
 17 18  1  0  0  0
 18 19  2  0  0  0
 19 20  1  0  0  0
 20 21  2  0  0  0
 20 14  1  0  0  0
 14 13  1  0  0  0
 14 15  2  0  0  0
 13 11  1  0  0  0
 11  1  1  0  0  0
 11 12  2  0  0  0
  1  6  1  0  0  0
  1  8  2  0  0  0
  2  3  1  0  0  0
  2  6  1  0  0  0
  3  7  1  0  0  0
  4  5  1  0  0  0
  4  7  1  0  0  0
  5  6  1  0  0  0
  7  9  1  0  0  0
  9 30  1  0  0  0
  9 10  2  0  0  0
 30 32  1  0  0  0
 30 31  2  0  0  0
 32 33  1  0  0  0
 33 36  1  0  0  0
 33 34  2  0  0  0
 35 36  2  0  0  0
 35 40  1  0  0  0
 36 37  1  0  0  0
 37 38  2  0  0  0
 38 39  1  0  0  0
 39 40  2  0  0  0
 40 41  1  0  0  0
 42 44  1  0  0  0
 42 41  1  0  0  0
 43 44  2  0  0  0
 43 48  1  0  0  0
 44 45  1  0  0  0
 45 46  2  0  0  0
 46 47  1  0  0  0
 47 48  2  0  0  0
M  END
> <minimizedAffinity>
-7.68899

$$$$
3EAX_LZP_A_322


 48 52  0  0  0  0  0  0  0  0999 V2000
   42.5298   18.6680   67.7674 C   0  0  0  0  0  0  0  0  0  0  0  0
   41.8664   17.9465   65.3230 C   0  0  0  0  0  0  0  0  0  0  0  0
   40.4137   17.7961   64.6658 C   0  0  0  0  0  0  0  0  0  0  0  0
   39.3011   17.1551   66.8916 C   0  0  0  0  0  0  0  0  0  0  0  0
   40.7742   16.7530   67.3320 C   0  0  0  0  0  0  0  0  0  0  0  0
   41.7676   17.8363   66.8646 N   0  0  0  0  0  0  0  0  0  0  0  0
   39.3574   18.1468   65.7454 N   0  0  0  0  0  0  0  0  0  0  0  0
   43.3269   19.5336   67.3492 O   0  0  0  0  0  0  0  0  0  0  0  0
   38.5494   19.2913   65.5709 C   0  0  0  0  0  0  0  0  0  0  0  0
   38.6443   20.0387   64.5634 O   0  0  0  0  0  0  0  0  0  0  0  0
   42.4058   18.5247   69.3119 C   0  0  0  0  0  0  0  0  0  0  0  0
   42.0020   19.4758   69.9993 O   0  0  0  0  0  0  0  0  0  0  0  0
   42.7811   17.1553   69.9725 C   0  0  0  0  0  0  0  0  0  0  0  0
   43.9466   16.2956   69.3587 C   0  0  0  0  0  0  0  0  0  0  0  0
   45.0359   16.8337   69.1286 O   0  0  0  0  0  0  0  0  0  0  0  0
   43.6039   12.3240   69.8671 C   0  0  0  0  0  0  0  0  0  0  0  0
   43.2453   11.9612   68.4476 C   0  0  0  0  0  0  0  0  0  0  0  0
   43.1250   12.9664   67.3832 C   0  0  0  0  0  0  0  0  0  0  0  0
   43.3528   14.3753   67.6810 C   0  0  0  0  0  0  0  0  0  0  0  0
   43.7107   14.8132   69.0616 C   0  0  0  0  0  0  0  0  0  0  0  0
   43.8271   13.7786   70.1148 C   0  0  0  0  0  0  0  0  0  0  0  0
   43.7205   11.3323   70.9103 O   0  0  0  0  0  0  0  0  0  0  0  0
   43.2103   11.4929   72.2885 C   0  0  0  0  0  0  0  0  0  0  0  0
   39.1930   10.7876   71.8022 C   0  0  0  0  0  0  0  0  0  0  0  0
   38.6113   11.8090   72.6664 C   0  0  0  0  0  0  0  0  0  0  0  0
   39.5593   12.7858   73.4575 C   0  0  0  0  0  0  0  0  0  0  0  0
   41.0216   12.6491   73.3072 C   0  0  0  0  0  0  0  0  0  0  0  0
   41.6405   11.6133   72.4294 C   0  0  0  0  0  0  0  0  0  0  0  0
   40.6432   10.6591   71.6607 C   0  0  0  0  0  0  0  0  0  0  0  0
   37.5084   19.6933   66.6449 C   0  0  0  0  0  0  0  0  0  0  0  0
   37.6598   20.6860   67.3699 O   0  0  0  0  0  0  0  0  0  0  0  0
   36.2445   18.7877   66.7696 C   0  0  0  0  0  0  0  0  0  0  0  0
   35.2904   18.9215   68.0095 C   0  0  0  0  0  0  0  0  0  0  0  0
   34.0740   19.0713   67.8234 O   0  0  0  0  0  0  0  0  0  0  0  0
   37.2311   18.2941   69.6844 C   0  0  0  0  0  0  0  0  0  0  0  0
   35.8923   18.8638   69.4212 C   0  0  0  0  0  0  0  0  0  0  0  0
   35.1180   19.3919   70.5793 C   0  0  0  0  0  0  0  0  0  0  0  0
   35.6735   19.3450   71.9330 C   0  0  0  0  0  0  0  0  0  0  0  0
   37.0047   18.7717   72.1578 C   0  0  0  0  0  0  0  0  0  0  0  0
   37.8445   18.2201   71.0403 C   0  0  0  0  0  0  0  0  0  0  0  0
   39.1412   17.6613   71.2987 O   0  0  0  0  0  0  0  0  0  0  0  0
   39.3556   16.3109   71.8303 C   0  0  0  0  0  0  0  0  0  0  0  0
   37.5597   14.6723   70.5158 C   0  0  0  0  0  0  0  0  0  0  0  0
   39.0332   15.1519   70.8198 C   0  0  0  0  0  0  0  0  0  0  0  0
   40.1261   14.4457   70.0983 C   0  0  0  0  0  0  0  0  0  0  0  0
   39.8600   13.3539   69.1475 C   0  0  0  0  0  0  0  0  0  0  0  0
   38.3745   12.9097   68.8777 C   0  0  0  0  0  0  0  0  0  0  0  0
   37.2862   13.5876   69.5727 C   0  0  0  0  0  0  0  0  0  0  0  0
 24 25  2  0  0  0
 24 29  1  0  0  0
 25 26  1  0  0  0
 26 27  2  0  0  0
 27 28  1  0  0  0
 28 29  2  0  0  0
 28 23  1  0  0  0
 23 22  1  0  0  0
 16 17  2  0  0  0
 16 21  1  0  0  0
 16 22  1  0  0  0
 17 18  1  0  0  0
 18 19  2  0  0  0
 19 20  1  0  0  0
 20 21  2  0  0  0
 20 14  1  0  0  0
 14 13  1  0  0  0
 14 15  2  0  0  0
 13 11  1  0  0  0
 11  1  1  0  0  0
 11 12  2  0  0  0
  1  6  1  0  0  0
  1  8  2  0  0  0
  2  3  1  0  0  0
  2  6  1  0  0  0
  3  7  1  0  0  0
  4  5  1  0  0  0
  4  7  1  0  0  0
  5  6  1  0  0  0
  7  9  1  0  0  0
  9 30  1  0  0  0
  9 10  2  0  0  0
 30 32  1  0  0  0
 30 31  2  0  0  0
 32 33  1  0  0  0
 33 36  1  0  0  0
 33 34  2  0  0  0
 35 36  2  0  0  0
 35 40  1  0  0  0
 36 37  1  0  0  0
 37 38  2  0  0  0
 38 39  1  0  0  0
 39 40  2  0  0  0
 40 41  1  0  0  0
 42 44  1  0  0  0
 42 41  1  0  0  0
 43 44  2  0  0  0
 43 48  1  0  0  0
 44 45  1  0  0  0
 45 46  2  0  0  0
 46 47  1  0  0  0
 47 48  2  0  0  0
M  END
> <minimizedAffinity>
-7.67187

$$$$
3EAX_LZP_A_322


 48 52  0  0  0  0  0  0  0  0999 V2000
   43.2074   18.8130   66.5249 C   0  0  0  0  0  0  0  0  0  0  0  0
   41.9002   17.9184   64.4210 C   0  0  0  0  0  0  0  0  0  0  0  0
   40.3280   17.6862   64.2233 C   0  0  0  0  0  0  0  0  0  0  0  0
   39.9347   17.1589   66.7073 C   0  0  0  0  0  0  0  0  0  0  0  0
   41.4886   16.8266   66.7214 C   0  0  0  0  0  0  0  0  0  0  0  0
   42.2553   17.9045   65.9284 N   0  0  0  0  0  0  0  0  0  0  0  0
   39.6134   18.0762   65.5430 N   0  0  0  0  0  0  0  0  0  0  0  0
   43.8103   19.6717   65.8475 O   0  0  0  0  0  0  0  0  0  0  0  0
   38.7388   19.1845   65.5500 C   0  0  0  0  0  0  0  0  0  0  0  0
   38.5054   19.8682   64.5200 O   0  0  0  0  0  0  0  0  0  0  0  0
   43.5407   18.7658   68.0441 C   0  0  0  0  0  0  0  0  0  0  0  0
   44.5591   18.1802   68.4445 O   0  0  0  0  0  0  0  0  0  0  0  0
   42.5785   19.4863   69.0478 C   0  0  0  0  0  0  0  0  0  0  0  0
   41.5181   18.6399   69.8436 C   0  0  0  0  0  0  0  0  0  0  0  0
   40.3175   18.9105   69.7231 O   0  0  0  0  0  0  0  0  0  0  0  0
   43.0134   16.6695   73.0108 C   0  0  0  0  0  0  0  0  0  0  0  0
   42.8944   15.2696   72.4620 C   0  0  0  0  0  0  0  0  0  0  0  0
   42.3544   14.9902   71.1247 C   0  0  0  0  0  0  0  0  0  0  0  0
   41.9068   16.0869   70.2748 C   0  0  0  0  0  0  0  0  0  0  0  0
   41.9919   17.4995   70.7472 C   0  0  0  0  0  0  0  0  0  0  0  0
   42.5421   17.7525   72.0986 C   0  0  0  0  0  0  0  0  0  0  0  0
   43.5445   16.9393   74.3263 O   0  0  0  0  0  0  0  0  0  0  0  0
   44.3142   18.1464   74.6946 C   0  0  0  0  0  0  0  0  0  0  0  0
   41.1455   20.4139   75.9949 C   0  0  0  0  0  0  0  0  0  0  0  0
   41.8299   21.5578   76.5878 C   0  0  0  0  0  0  0  0  0  0  0  0
   43.4033   21.6110   76.5748 C   0  0  0  0  0  0  0  0  0  0  0  0
   44.1564   20.5001   75.9598 C   0  0  0  0  0  0  0  0  0  0  0  0
   43.4797   19.3200   75.3466 C   0  0  0  0  0  0  0  0  0  0  0  0
   41.9005   19.3173   75.3889 C   0  0  0  0  0  0  0  0  0  0  0  0
   38.0349   19.6258   66.8571 C   0  0  0  0  0  0  0  0  0  0  0  0
   38.4422   20.5789   67.5351 O   0  0  0  0  0  0  0  0  0  0  0  0
   36.7731   18.8133   67.2824 C   0  0  0  0  0  0  0  0  0  0  0  0
   36.3550   18.7285   68.7936 C   0  0  0  0  0  0  0  0  0  0  0  0
   35.4598   19.4745   69.2163 O   0  0  0  0  0  0  0  0  0  0  0  0
   37.5403   16.4090   69.2180 C   0  0  0  0  0  0  0  0  0  0  0  0
   37.0689   17.7220   69.7079 C   0  0  0  0  0  0  0  0  0  0  0  0
   37.3030   18.0582   71.1402 C   0  0  0  0  0  0  0  0  0  0  0  0
   37.9806   17.1120   72.0284 C   0  0  0  0  0  0  0  0  0  0  0  0
   38.4341   15.8175   71.5090 C   0  0  0  0  0  0  0  0  0  0  0  0
   38.2339   15.4082   70.0769 C   0  0  0  0  0  0  0  0  0  0  0  0
   38.6863   14.1303   69.6049 O   0  0  0  0  0  0  0  0  0  0  0  0
   39.4366   13.9409   68.3586 C   0  0  0  0  0  0  0  0  0  0  0  0
   40.9632   12.1103   69.7574 C   0  0  0  0  0  0  0  0  0  0  0  0
   40.6984   13.0141   68.4899 C   0  0  0  0  0  0  0  0  0  0  0  0
   41.7142   12.9535   67.4043 C   0  0  0  0  0  0  0  0  0  0  0  0
   42.9092   12.0988   67.4958 C   0  0  0  0  0  0  0  0  0  0  0  0
   43.1309   11.2161   68.7798 C   0  0  0  0  0  0  0  0  0  0  0  0
   42.1485   11.2582   69.8569 C   0  0  0  0  0  0  0  0  0  0  0  0
 24 25  2  0  0  0
 24 29  1  0  0  0
 25 26  1  0  0  0
 26 27  2  0  0  0
 27 28  1  0  0  0
 28 29  2  0  0  0
 28 23  1  0  0  0
 23 22  1  0  0  0
 16 17  2  0  0  0
 16 21  1  0  0  0
 16 22  1  0  0  0
 17 18  1  0  0  0
 18 19  2  0  0  0
 19 20  1  0  0  0
 20 21  2  0  0  0
 20 14  1  0  0  0
 14 13  1  0  0  0
 14 15  2  0  0  0
 13 11  1  0  0  0
 11  1  1  0  0  0
 11 12  2  0  0  0
  1  6  1  0  0  0
  1  8  2  0  0  0
  2  3  1  0  0  0
  2  6  1  0  0  0
  3  7  1  0  0  0
  4  5  1  0  0  0
  4  7  1  0  0  0
  5  6  1  0  0  0
  7  9  1  0  0  0
  9 30  1  0  0  0
  9 10  2  0  0  0
 30 32  1  0  0  0
 30 31  2  0  0  0
 32 33  1  0  0  0
 33 36  1  0  0  0
 33 34  2  0  0  0
 35 36  2  0  0  0
 35 40  1  0  0  0
 36 37  1  0  0  0
 37 38  2  0  0  0
 38 39  1  0  0  0
 39 40  2  0  0  0
 40 41  1  0  0  0
 42 44  1  0  0  0
 42 41  1  0  0  0
 43 44  2  0  0  0
 43 48  1  0  0  0
 44 45  1  0  0  0
 45 46  2  0  0  0
 46 47  1  0  0  0
 47 48  2  0  0  0
M  END
> <minimizedAffinity>
-7.58919

$$$$
3EAX_LZP_A_322


 48 52  0  0  0  0  0  0  0  0999 V2000
   42.9873   18.6197   66.8155 C   0  0  0  0  0  0  0  0  0  0  0  0
   41.7320   17.8913   64.6179 C   0  0  0  0  0  0  0  0  0  0  0  0
   40.1600   17.7713   64.3367 C   0  0  0  0  0  0  0  0  0  0  0  0
   39.6099   17.1806   66.7762 C   0  0  0  0  0  0  0  0  0  0  0  0
   41.1365   16.7457   66.8508 C   0  0  0  0  0  0  0  0  0  0  0  0
   42.0098   17.7987   66.1387 N   0  0  0  0  0  0  0  0  0  0  0  0
   39.4069   18.1592   65.6354 N   0  0  0  0  0  0  0  0  0  0  0  0
   43.6774   19.4607   66.2021 O   0  0  0  0  0  0  0  0  0  0  0  0
   38.6064   19.3220   65.6450 C   0  0  0  0  0  0  0  0  0  0  0  0
   38.4692   20.0569   64.6331 O   0  0  0  0  0  0  0  0  0  0  0  0
   43.2406   18.4948   68.3457 C   0  0  0  0  0  0  0  0  0  0  0  0
   42.5889   19.1826   69.1471 O   0  0  0  0  0  0  0  0  0  0  0  0
   44.3159   17.4735   68.8489 C   0  0  0  0  0  0  0  0  0  0  0  0
   43.9765   15.9376   68.8602 C   0  0  0  0  0  0  0  0  0  0  0  0
   44.1996   15.2636   67.8477 O   0  0  0  0  0  0  0  0  0  0  0  0
   43.5813   13.6735   72.1566 C   0  0  0  0  0  0  0  0  0  0  0  0
   42.1961   14.1200   72.5527 C   0  0  0  0  0  0  0  0  0  0  0  0
   41.4346   15.1087   71.7777 C   0  0  0  0  0  0  0  0  0  0  0  0
   42.0150   15.6992   70.5777 C   0  0  0  0  0  0  0  0  0  0  0  0
   43.3809   15.3091   70.1216 C   0  0  0  0  0  0  0  0  0  0  0  0
   44.1253   14.3088   70.9206 C   0  0  0  0  0  0  0  0  0  0  0  0
   44.3263   12.7016   72.9219 O   0  0  0  0  0  0  0  0  0  0  0  0
   44.2981   11.2420   72.6886 C   0  0  0  0  0  0  0  0  0  0  0  0
   48.3580   10.6195   72.6397 C   0  0  0  0  0  0  0  0  0  0  0  0
   48.4389    9.2682   72.0957 C   0  0  0  0  0  0  0  0  0  0  0  0
   47.1146    8.5036   71.7211 C   0  0  0  0  0  0  0  0  0  0  0  0
   45.8144    9.1718   71.9268 C   0  0  0  0  0  0  0  0  0  0  0  0
   45.7055   10.5530   72.4809 C   0  0  0  0  0  0  0  0  0  0  0  0
   47.0648   11.2729   72.8411 C   0  0  0  0  0  0  0  0  0  0  0  0
   37.8678   19.7609   66.9337 C   0  0  0  0  0  0  0  0  0  0  0  0
   38.2995   20.6617   67.6659 O   0  0  0  0  0  0  0  0  0  0  0  0
   36.5391   19.0155   67.2685 C   0  0  0  0  0  0  0  0  0  0  0  0
   36.0942   18.8161   68.7612 C   0  0  0  0  0  0  0  0  0  0  0  0
   35.6528   19.7854   69.3953 O   0  0  0  0  0  0  0  0  0  0  0  0
   37.4378   16.5979   69.2501 C   0  0  0  0  0  0  0  0  0  0  0  0
   36.2195   17.4230   69.3952 C   0  0  0  0  0  0  0  0  0  0  0  0
   35.0872   16.8638   70.1855 C   0  0  0  0  0  0  0  0  0  0  0  0
   35.1864   15.5372   70.7969 C   0  0  0  0  0  0  0  0  0  0  0  0
   36.4098   14.7453   70.6316 C   0  0  0  0  0  0  0  0  0  0  0  0
   37.5927   15.2424   69.8493 C   0  0  0  0  0  0  0  0  0  0  0  0
   38.7720   14.4371   69.7038 O   0  0  0  0  0  0  0  0  0  0  0  0
   39.1679   13.7910   68.4477 C   0  0  0  0  0  0  0  0  0  0  0  0
   40.8387   12.0218   69.7579 C   0  0  0  0  0  0  0  0  0  0  0  0
   40.4966   12.9568   68.5322 C   0  0  0  0  0  0  0  0  0  0  0  0
   41.5050   13.0194   67.4399 C   0  0  0  0  0  0  0  0  0  0  0  0
   42.7613   12.2537   67.4882 C   0  0  0  0  0  0  0  0  0  0  0  0
   43.0591   11.3358   68.7314 C   0  0  0  0  0  0  0  0  0  0  0  0
   42.0852   11.2577   69.8143 C   0  0  0  0  0  0  0  0  0  0  0  0
 24 25  2  0  0  0
 24 29  1  0  0  0
 25 26  1  0  0  0
 26 27  2  0  0  0
 27 28  1  0  0  0
 28 29  2  0  0  0
 28 23  1  0  0  0
 23 22  1  0  0  0
 16 17  2  0  0  0
 16 21  1  0  0  0
 16 22  1  0  0  0
 17 18  1  0  0  0
 18 19  2  0  0  0
 19 20  1  0  0  0
 20 21  2  0  0  0
 20 14  1  0  0  0
 14 13  1  0  0  0
 14 15  2  0  0  0
 13 11  1  0  0  0
 11  1  1  0  0  0
 11 12  2  0  0  0
  1  6  1  0  0  0
  1  8  2  0  0  0
  2  3  1  0  0  0
  2  6  1  0  0  0
  3  7  1  0  0  0
  4  5  1  0  0  0
  4  7  1  0  0  0
  5  6  1  0  0  0
  7  9  1  0  0  0
  9 30  1  0  0  0
  9 10  2  0  0  0
 30 32  1  0  0  0
 30 31  2  0  0  0
 32 33  1  0  0  0
 33 36  1  0  0  0
 33 34  2  0  0  0
 35 36  2  0  0  0
 35 40  1  0  0  0
 36 37  1  0  0  0
 37 38  2  0  0  0
 38 39  1  0  0  0
 39 40  2  0  0  0
 40 41  1  0  0  0
 42 44  1  0  0  0
 42 41  1  0  0  0
 43 44  2  0  0  0
 43 48  1  0  0  0
 44 45  1  0  0  0
 45 46  2  0  0  0
 46 47  1  0  0  0
 47 48  2  0  0  0
M  END
> <minimizedAffinity>
-7.58907

$$$$
3EAX_LZP_A_322


 48 52  0  0  0  0  0  0  0  0999 V2000
   43.1162   18.5387   66.7494 C   0  0  0  0  0  0  0  0  0  0  0  0
   41.7944   17.8931   64.5649 C   0  0  0  0  0  0  0  0  0  0  0  0
   40.2143   17.7913   64.3248 C   0  0  0  0  0  0  0  0  0  0  0  0
   39.7299   17.1200   66.7575 C   0  0  0  0  0  0  0  0  0  0  0  0
   41.2552   16.6746   66.7735 C   0  0  0  0  0  0  0  0  0  0  0  0
   42.1146   17.7468   66.0731 N   0  0  0  0  0  0  0  0  0  0  0  0
   39.5009   18.1384   65.6570 N   0  0  0  0  0  0  0  0  0  0  0  0
   43.7940   19.3966   66.1457 O   0  0  0  0  0  0  0  0  0  0  0  0
   38.7084   19.3045   65.7293 C   0  0  0  0  0  0  0  0  0  0  0  0
   38.5473   20.0745   64.7475 O   0  0  0  0  0  0  0  0  0  0  0  0
   43.4120   18.3599   68.2666 C   0  0  0  0  0  0  0  0  0  0  0  0
   42.8424   19.0760   69.1050 O   0  0  0  0  0  0  0  0  0  0  0  0
   44.4235   17.2495   68.7096 C   0  0  0  0  0  0  0  0  0  0  0  0
   44.0417   16.2840   69.8912 C   0  0  0  0  0  0  0  0  0  0  0  0
   43.9295   16.7442   71.0334 O   0  0  0  0  0  0  0  0  0  0  0  0
   43.7172   12.3146   70.4275 C   0  0  0  0  0  0  0  0  0  0  0  0
   43.3669   11.9394   69.0092 C   0  0  0  0  0  0  0  0  0  0  0  0
   43.2462   12.9361   67.9368 C   0  0  0  0  0  0  0  0  0  0  0  0
   43.4653   14.3483   68.2252 C   0  0  0  0  0  0  0  0  0  0  0  0
   43.8148   14.7983   69.6041 C   0  0  0  0  0  0  0  0  0  0  0  0
   43.9318   13.7721   70.6654 C   0  0  0  0  0  0  0  0  0  0  0  0
   43.8343   11.3312   71.4785 O   0  0  0  0  0  0  0  0  0  0  0  0
   44.7918   11.4068   72.6023 C   0  0  0  0  0  0  0  0  0  0  0  0
   48.7287   10.2380   72.6918 C   0  0  0  0  0  0  0  0  0  0  0  0
   48.6400    8.8763   72.1757 C   0  0  0  0  0  0  0  0  0  0  0  0
   47.2350    8.2902   71.7741 C   0  0  0  0  0  0  0  0  0  0  0  0
   46.0327    9.1332   71.9267 C   0  0  0  0  0  0  0  0  0  0  0  0
   46.0975   10.5286   72.4515 C   0  0  0  0  0  0  0  0  0  0  0  0
   47.5315   11.0652   72.8406 C   0  0  0  0  0  0  0  0  0  0  0  0
   38.0095   19.7028   67.0529 C   0  0  0  0  0  0  0  0  0  0  0  0
   38.5356   20.4701   67.8705 O   0  0  0  0  0  0  0  0  0  0  0  0
   36.5965   19.0943   67.3101 C   0  0  0  0  0  0  0  0  0  0  0  0
   36.1518   18.7052   68.7650 C   0  0  0  0  0  0  0  0  0  0  0  0
   35.6930   19.5817   69.5119 O   0  0  0  0  0  0  0  0  0  0  0  0
   37.1301   16.2699   68.4877 C   0  0  0  0  0  0  0  0  0  0  0  0
   36.2988   17.2468   69.2230 C   0  0  0  0  0  0  0  0  0  0  0  0
   35.5872   16.7785   70.4452 C   0  0  0  0  0  0  0  0  0  0  0  0
   35.7134   15.3919   70.8977 C   0  0  0  0  0  0  0  0  0  0  0  0
   36.5458   14.4491   70.1431 C   0  0  0  0  0  0  0  0  0  0  0  0
   37.2932   14.8479   68.9019 C   0  0  0  0  0  0  0  0  0  0  0  0
   38.0944   13.8963   68.1856 O   0  0  0  0  0  0  0  0  0  0  0  0
   39.5312   13.7057   68.4126 C   0  0  0  0  0  0  0  0  0  0  0  0
   40.3486   15.4444   70.3993 C   0  0  0  0  0  0  0  0  0  0  0  0
   40.0042   13.9923   69.8831 C   0  0  0  0  0  0  0  0  0  0  0  0
   40.1514   12.8838   70.8646 C   0  0  0  0  0  0  0  0  0  0  0  0
   40.5951   13.1162   72.2488 C   0  0  0  0  0  0  0  0  0  0  0  0
   40.9282   14.5812   72.7173 C   0  0  0  0  0  0  0  0  0  0  0  0
   40.7906   15.6843   71.7733 C   0  0  0  0  0  0  0  0  0  0  0  0
 24 25  2  0  0  0
 24 29  1  0  0  0
 25 26  1  0  0  0
 26 27  2  0  0  0
 27 28  1  0  0  0
 28 29  2  0  0  0
 28 23  1  0  0  0
 23 22  1  0  0  0
 16 17  2  0  0  0
 16 21  1  0  0  0
 16 22  1  0  0  0
 17 18  1  0  0  0
 18 19  2  0  0  0
 19 20  1  0  0  0
 20 21  2  0  0  0
 20 14  1  0  0  0
 14 13  1  0  0  0
 14 15  2  0  0  0
 13 11  1  0  0  0
 11  1  1  0  0  0
 11 12  2  0  0  0
  1  6  1  0  0  0
  1  8  2  0  0  0
  2  3  1  0  0  0
  2  6  1  0  0  0
  3  7  1  0  0  0
  4  5  1  0  0  0
  4  7  1  0  0  0
  5  6  1  0  0  0
  7  9  1  0  0  0
  9 30  1  0  0  0
  9 10  2  0  0  0
 30 32  1  0  0  0
 30 31  2  0  0  0
 32 33  1  0  0  0
 33 36  1  0  0  0
 33 34  2  0  0  0
 35 36  2  0  0  0
 35 40  1  0  0  0
 36 37  1  0  0  0
 37 38  2  0  0  0
 38 39  1  0  0  0
 39 40  2  0  0  0
 40 41  1  0  0  0
 42 44  1  0  0  0
 42 41  1  0  0  0
 43 44  2  0  0  0
 43 48  1  0  0  0
 44 45  1  0  0  0
 45 46  2  0  0  0
 46 47  1  0  0  0
 47 48  2  0  0  0
M  END
> <minimizedAffinity>
-7.56013

$$$$
3EAX_LZP_A_322


 48 52  0  0  0  0  0  0  0  0999 V2000
   42.9916   18.6306   66.7802 C   0  0  0  0  0  0  0  0  0  0  0  0
   41.6831   17.9242   64.6066 C   0  0  0  0  0  0  0  0  0  0  0  0
   40.1046   17.8106   64.3614 C   0  0  0  0  0  0  0  0  0  0  0  0
   39.6102   17.2005   66.8081 C   0  0  0  0  0  0  0  0  0  0  0  0
   41.1370   16.7611   66.8432 C   0  0  0  0  0  0  0  0  0  0  0  0
   41.9961   17.8179   66.1196 N   0  0  0  0  0  0  0  0  0  0  0  0
   39.3832   18.1894   65.6807 N   0  0  0  0  0  0  0  0  0  0  0  0
   43.6695   19.4750   66.1579 O   0  0  0  0  0  0  0  0  0  0  0  0
   38.5864   19.3542   65.7190 C   0  0  0  0  0  0  0  0  0  0  0  0
   38.4275   20.0980   64.7168 O   0  0  0  0  0  0  0  0  0  0  0  0
   43.2804   18.4920   68.3029 C   0  0  0  0  0  0  0  0  0  0  0  0
   42.6541   19.1793   69.1248 O   0  0  0  0  0  0  0  0  0  0  0  0
   44.3585   17.4578   68.7726 C   0  0  0  0  0  0  0  0  0  0  0  0
   44.0130   15.9233   68.7615 C   0  0  0  0  0  0  0  0  0  0  0  0
   44.2286   15.2643   67.7376 O   0  0  0  0  0  0  0  0  0  0  0  0
   41.4370   14.9851   71.6997 C   0  0  0  0  0  0  0  0  0  0  0  0
   42.3130   14.0071   72.4421 C   0  0  0  0  0  0  0  0  0  0  0  0
   43.6749   13.6766   72.0017 C   0  0  0  0  0  0  0  0  0  0  0  0
   44.2261   14.3000   70.8046 C   0  0  0  0  0  0  0  0  0  0  0  0
   43.4208   15.2774   70.0158 C   0  0  0  0  0  0  0  0  0  0  0  0
   42.0517   15.5936   70.4836 C   0  0  0  0  0  0  0  0  0  0  0  0
   40.0985   15.3065   72.1362 O   0  0  0  0  0  0  0  0  0  0  0  0
   39.7568   15.8924   73.4498 C   0  0  0  0  0  0  0  0  0  0  0  0
   35.8067   16.5144   74.3890 C   0  0  0  0  0  0  0  0  0  0  0  0
   35.5615   17.8131   73.7712 C   0  0  0  0  0  0  0  0  0  0  0  0
   36.7301   18.5401   73.0066 C   0  0  0  0  0  0  0  0  0  0  0  0
   38.0535   17.8904   72.9287 C   0  0  0  0  0  0  0  0  0  0  0  0
   38.3289   16.5628   73.5516 C   0  0  0  0  0  0  0  0  0  0  0  0
   37.1218   15.8792   74.3075 C   0  0  0  0  0  0  0  0  0  0  0  0
   37.8795   19.7839   67.0283 C   0  0  0  0  0  0  0  0  0  0  0  0
   38.3642   20.6308   67.7911 O   0  0  0  0  0  0  0  0  0  0  0  0
   36.5129   19.1012   67.3437 C   0  0  0  0  0  0  0  0  0  0  0  0
   36.0645   18.8704   68.8308 C   0  0  0  0  0  0  0  0  0  0  0  0
   35.6268   19.8273   69.4860 O   0  0  0  0  0  0  0  0  0  0  0  0
   37.3959   16.6346   69.2709 C   0  0  0  0  0  0  0  0  0  0  0  0
   36.1818   17.4627   69.4334 C   0  0  0  0  0  0  0  0  0  0  0  0
   35.0456   16.8917   70.2096 C   0  0  0  0  0  0  0  0  0  0  0  0
   35.1372   15.5512   70.7910 C   0  0  0  0  0  0  0  0  0  0  0  0
   36.3566   14.7568   70.6091 C   0  0  0  0  0  0  0  0  0  0  0  0
   37.5430   15.2652   69.8394 C   0  0  0  0  0  0  0  0  0  0  0  0
   38.7182   14.4571   69.6770 O   0  0  0  0  0  0  0  0  0  0  0  0
   39.0732   13.7769   68.4267 C   0  0  0  0  0  0  0  0  0  0  0  0
   40.7767   12.0146   69.7036 C   0  0  0  0  0  0  0  0  0  0  0  0
   40.4093   12.9526   68.4876 C   0  0  0  0  0  0  0  0  0  0  0  0
   41.4010   13.0282   67.3810 C   0  0  0  0  0  0  0  0  0  0  0  0
   42.6637   12.2721   67.4070 C   0  0  0  0  0  0  0  0  0  0  0  0
   42.9868   11.3507   68.6413 C   0  0  0  0  0  0  0  0  0  0  0  0
   42.0297   11.2599   69.7379 C   0  0  0  0  0  0  0  0  0  0  0  0
 24 25  2  0  0  0
 24 29  1  0  0  0
 25 26  1  0  0  0
 26 27  2  0  0  0
 27 28  1  0  0  0
 28 29  2  0  0  0
 28 23  1  0  0  0
 23 22  1  0  0  0
 16 17  2  0  0  0
 16 21  1  0  0  0
 16 22  1  0  0  0
 17 18  1  0  0  0
 18 19  2  0  0  0
 19 20  1  0  0  0
 20 21  2  0  0  0
 20 14  1  0  0  0
 14 13  1  0  0  0
 14 15  2  0  0  0
 13 11  1  0  0  0
 11  1  1  0  0  0
 11 12  2  0  0  0
  1  6  1  0  0  0
  1  8  2  0  0  0
  2  3  1  0  0  0
  2  6  1  0  0  0
  3  7  1  0  0  0
  4  5  1  0  0  0
  4  7  1  0  0  0
  5  6  1  0  0  0
  7  9  1  0  0  0
  9 30  1  0  0  0
  9 10  2  0  0  0
 30 32  1  0  0  0
 30 31  2  0  0  0
 32 33  1  0  0  0
 33 36  1  0  0  0
 33 34  2  0  0  0
 35 36  2  0  0  0
 35 40  1  0  0  0
 36 37  1  0  0  0
 37 38  2  0  0  0
 38 39  1  0  0  0
 39 40  2  0  0  0
 40 41  1  0  0  0
 42 44  1  0  0  0
 42 41  1  0  0  0
 43 44  2  0  0  0
 43 48  1  0  0  0
 44 45  1  0  0  0
 45 46  2  0  0  0
 46 47  1  0  0  0
 47 48  2  0  0  0
M  END
> <minimizedAffinity>
-7.48514

$$$$
3EAX_LZP_A_322


 48 52  0  0  0  0  0  0  0  0999 V2000
   41.2377   18.4738   69.1466 C   0  0  0  0  0  0  0  0  0  0  0  0
   39.9103   19.4663   67.0999 C   0  0  0  0  0  0  0  0  0  0  0  0
   39.8734   18.9741   65.5763 C   0  0  0  0  0  0  0  0  0  0  0  0
   42.2748   18.0625   65.6487 C   0  0  0  0  0  0  0  0  0  0  0  0
   42.4469   19.0533   66.8792 C   0  0  0  0  0  0  0  0  0  0  0  0
   41.2046   18.9683   67.7893 N   0  0  0  0  0  0  0  0  0  0  0  0
   40.8064   17.7426   65.4447 N   0  0  0  0  0  0  0  0  0  0  0  0
   40.2090   18.4229   69.8530 O   0  0  0  0  0  0  0  0  0  0  0  0
   40.2457   16.4853   65.1319 C   0  0  0  0  0  0  0  0  0  0  0  0
   39.0124   16.3228   64.9438 O   0  0  0  0  0  0  0  0  0  0  0  0
   42.5596   17.9852   69.8063 C   0  0  0  0  0  0  0  0  0  0  0  0
   43.1499   18.7000   70.6314 O   0  0  0  0  0  0  0  0  0  0  0  0
   43.1136   16.5716   69.4225 C   0  0  0  0  0  0  0  0  0  0  0  0
   43.9621   15.7637   70.4720 C   0  0  0  0  0  0  0  0  0  0  0  0
   45.1958   15.8407   70.4374 O   0  0  0  0  0  0  0  0  0  0  0  0
   41.0773   14.2782   72.8427 C   0  0  0  0  0  0  0  0  0  0  0  0
   41.8983   13.2171   73.5321 C   0  0  0  0  0  0  0  0  0  0  0  0
   43.3210   13.0039   73.2349 C   0  0  0  0  0  0  0  0  0  0  0  0
   43.9905   13.8323   72.2394 C   0  0  0  0  0  0  0  0  0  0  0  0
   43.2457   14.9025   71.5143 C   0  0  0  0  0  0  0  0  0  0  0  0
   41.8130   15.0968   71.8350 C   0  0  0  0  0  0  0  0  0  0  0  0
   39.6787   14.4837   73.1379 O   0  0  0  0  0  0  0  0  0  0  0  0
   38.7649   15.3339   72.3457 C   0  0  0  0  0  0  0  0  0  0  0  0
   37.8772   14.8043   68.3703 C   0  0  0  0  0  0  0  0  0  0  0  0
   37.2024   13.5110   68.3923 C   0  0  0  0  0  0  0  0  0  0  0  0
   37.0189   12.7565   69.7619 C   0  0  0  0  0  0  0  0  0  0  0  0
   37.5332   13.3753   70.9996 C   0  0  0  0  0  0  0  0  0  0  0  0
   38.2261   14.6968   71.0031 C   0  0  0  0  0  0  0  0  0  0  0  0
   38.3845   15.4089   69.6019 C   0  0  0  0  0  0  0  0  0  0  0  0
   41.1412   15.2259   65.0273 C   0  0  0  0  0  0  0  0  0  0  0  0
   41.8982   15.0341   64.0661 O   0  0  0  0  0  0  0  0  0  0  0  0
   41.0520   14.2030   66.2016 C   0  0  0  0  0  0  0  0  0  0  0  0
   42.3038   13.9214   67.1068 C   0  0  0  0  0  0  0  0  0  0  0  0
   43.3703   14.5040   66.8624 O   0  0  0  0  0  0  0  0  0  0  0  0
   43.2969   12.0770   68.7120 C   0  0  0  0  0  0  0  0  0  0  0  0
   42.1718   12.9291   68.2715 C   0  0  0  0  0  0  0  0  0  0  0  0
   40.8753   12.8030   68.9943 C   0  0  0  0  0  0  0  0  0  0  0  0
   40.7286   11.8622   70.1064 C   0  0  0  0  0  0  0  0  0  0  0  0
   41.8656   11.0312   70.5163 C   0  0  0  0  0  0  0  0  0  0  0  0
   43.2035   11.1027   69.8356 C   0  0  0  0  0  0  0  0  0  0  0  0
   44.2927   10.2698   70.2605 O   0  0  0  0  0  0  0  0  0  0  0  0
   44.5342    9.8937   71.6578 C   0  0  0  0  0  0  0  0  0  0  0  0
   46.8203   10.9206   72.8227 C   0  0  0  0  0  0  0  0  0  0  0  0
   46.0509    9.7780   72.0506 C   0  0  0  0  0  0  0  0  0  0  0  0
   46.8370    8.5642   71.7006 C   0  0  0  0  0  0  0  0  0  0  0  0
   48.2600    8.4240   72.0505 C   0  0  0  0  0  0  0  0  0  0  0  0
   48.9847    9.5904   72.8195 C   0  0  0  0  0  0  0  0  0  0  0  0
   48.2347   10.7898   73.1740 C   0  0  0  0  0  0  0  0  0  0  0  0
 24 25  2  0  0  0
 24 29  1  0  0  0
 25 26  1  0  0  0
 26 27  2  0  0  0
 27 28  1  0  0  0
 28 29  2  0  0  0
 28 23  1  0  0  0
 23 22  1  0  0  0
 16 17  2  0  0  0
 16 21  1  0  0  0
 16 22  1  0  0  0
 17 18  1  0  0  0
 18 19  2  0  0  0
 19 20  1  0  0  0
 20 21  2  0  0  0
 20 14  1  0  0  0
 14 13  1  0  0  0
 14 15  2  0  0  0
 13 11  1  0  0  0
 11  1  1  0  0  0
 11 12  2  0  0  0
  1  6  1  0  0  0
  1  8  2  0  0  0
  2  3  1  0  0  0
  2  6  1  0  0  0
  3  7  1  0  0  0
  4  5  1  0  0  0
  4  7  1  0  0  0
  5  6  1  0  0  0
  7  9  1  0  0  0
  9 30  1  0  0  0
  9 10  2  0  0  0
 30 32  1  0  0  0
 30 31  2  0  0  0
 32 33  1  0  0  0
 33 36  1  0  0  0
 33 34  2  0  0  0
 35 36  2  0  0  0
 35 40  1  0  0  0
 36 37  1  0  0  0
 37 38  2  0  0  0
 38 39  1  0  0  0
 39 40  2  0  0  0
 40 41  1  0  0  0
 42 44  1  0  0  0
 42 41  1  0  0  0
 43 44  2  0  0  0
 43 48  1  0  0  0
 44 45  1  0  0  0
 45 46  2  0  0  0
 46 47  1  0  0  0
 47 48  2  0  0  0
M  END
> <minimizedAffinity>
-7.48474

$$$$
3EAX_LZP_A_322


 48 52  0  0  0  0  0  0  0  0999 V2000
   43.4539   18.3227   67.4270 C   0  0  0  0  0  0  0  0  0  0  0  0
   42.8444   18.0342   64.8812 C   0  0  0  0  0  0  0  0  0  0  0  0
   41.4358   17.6803   64.2062 C   0  0  0  0  0  0  0  0  0  0  0  0
   40.6425   16.2937   66.2189 C   0  0  0  0  0  0  0  0  0  0  0  0
   42.1920   16.1818   66.5534 C   0  0  0  0  0  0  0  0  0  0  0  0
   42.8647   17.5552   66.3538 N   0  0  0  0  0  0  0  0  0  0  0  0
   40.3904   17.5020   65.3375 N   0  0  0  0  0  0  0  0  0  0  0  0
   43.9920   19.4313   67.2239 O   0  0  0  0  0  0  0  0  0  0  0  0
   39.3206   18.4180   65.4361 C   0  0  0  0  0  0  0  0  0  0  0  0
   39.1731   19.3744   64.6322 O   0  0  0  0  0  0  0  0  0  0  0  0
   43.4580   17.8057   68.8946 C   0  0  0  0  0  0  0  0  0  0  0  0
   44.4514   17.2167   69.3489 O   0  0  0  0  0  0  0  0  0  0  0  0
   42.1957   18.0616   69.7854 C   0  0  0  0  0  0  0  0  0  0  0  0
   42.3481   18.0900   71.3507 C   0  0  0  0  0  0  0  0  0  0  0  0
   43.0631   18.9543   71.8712 O   0  0  0  0  0  0  0  0  0  0  0  0
   41.6492   15.0523   73.8870 C   0  0  0  0  0  0  0  0  0  0  0  0
   40.1425   15.0631   73.8168 C   0  0  0  0  0  0  0  0  0  0  0  0
   39.3989   16.0149   72.9808 C   0  0  0  0  0  0  0  0  0  0  0  0
   40.1173   16.9988   72.1800 C   0  0  0  0  0  0  0  0  0  0  0  0
   41.6082   17.0516   72.1966 C   0  0  0  0  0  0  0  0  0  0  0  0
   42.3324   16.0791   73.0468 C   0  0  0  0  0  0  0  0  0  0  0  0
   42.3759   14.1149   74.7108 O   0  0  0  0  0  0  0  0  0  0  0  0
   43.5251   13.3046   74.2547 C   0  0  0  0  0  0  0  0  0  0  0  0
   44.0970   10.7831   71.0628 C   0  0  0  0  0  0  0  0  0  0  0  0
   42.7248   10.4108   70.7363 C   0  0  0  0  0  0  0  0  0  0  0  0
   41.5389   10.9993   71.5885 C   0  0  0  0  0  0  0  0  0  0  0  0
   41.8403   11.9196   72.7028 C   0  0  0  0  0  0  0  0  0  0  0  0
   43.2349   12.3158   73.0560 C   0  0  0  0  0  0  0  0  0  0  0  0
   44.3857   11.6948   72.1697 C   0  0  0  0  0  0  0  0  0  0  0  0
   38.2773   18.2930   66.5739 C   0  0  0  0  0  0  0  0  0  0  0  0
   37.1611   17.7883   66.3914 O   0  0  0  0  0  0  0  0  0  0  0  0
   38.7012   18.8299   67.9757 C   0  0  0  0  0  0  0  0  0  0  0  0
   37.6731   18.8518   69.1624 C   0  0  0  0  0  0  0  0  0  0  0  0
   37.2425   19.9405   69.5696 O   0  0  0  0  0  0  0  0  0  0  0  0
   37.9312   16.2488   69.5127 C   0  0  0  0  0  0  0  0  0  0  0  0
   37.2294   17.5209   69.7872 C   0  0  0  0  0  0  0  0  0  0  0  0
   36.0539   17.4869   70.7017 C   0  0  0  0  0  0  0  0  0  0  0  0
   35.6143   16.2281   71.3065 C   0  0  0  0  0  0  0  0  0  0  0  0
   36.3334   14.9844   71.0111 C   0  0  0  0  0  0  0  0  0  0  0  0
   37.5271   14.9401   70.0992 C   0  0  0  0  0  0  0  0  0  0  0  0
   38.2030   13.7029   69.8287 O   0  0  0  0  0  0  0  0  0  0  0  0
   38.9153   13.4200   68.5778 C   0  0  0  0  0  0  0  0  0  0  0  0
   41.4304   12.6840   67.6999 C   0  0  0  0  0  0  0  0  0  0  0  0
   40.4815   13.4624   68.6935 C   0  0  0  0  0  0  0  0  0  0  0  0
   41.1439   14.2512   69.7672 C   0  0  0  0  0  0  0  0  0  0  0  0
   42.6082   14.3105   69.9065 C   0  0  0  0  0  0  0  0  0  0  0  0
   43.5131   13.5167   68.8927 C   0  0  0  0  0  0  0  0  0  0  0  0
   42.8866   12.7369   67.8314 C   0  0  0  0  0  0  0  0  0  0  0  0
 24 25  2  0  0  0
 24 29  1  0  0  0
 25 26  1  0  0  0
 26 27  2  0  0  0
 27 28  1  0  0  0
 28 29  2  0  0  0
 28 23  1  0  0  0
 23 22  1  0  0  0
 16 17  2  0  0  0
 16 21  1  0  0  0
 16 22  1  0  0  0
 17 18  1  0  0  0
 18 19  2  0  0  0
 19 20  1  0  0  0
 20 21  2  0  0  0
 20 14  1  0  0  0
 14 13  1  0  0  0
 14 15  2  0  0  0
 13 11  1  0  0  0
 11  1  1  0  0  0
 11 12  2  0  0  0
  1  6  1  0  0  0
  1  8  2  0  0  0
  2  3  1  0  0  0
  2  6  1  0  0  0
  3  7  1  0  0  0
  4  5  1  0  0  0
  4  7  1  0  0  0
  5  6  1  0  0  0
  7  9  1  0  0  0
  9 30  1  0  0  0
  9 10  2  0  0  0
 30 32  1  0  0  0
 30 31  2  0  0  0
 32 33  1  0  0  0
 33 36  1  0  0  0
 33 34  2  0  0  0
 35 36  2  0  0  0
 35 40  1  0  0  0
 36 37  1  0  0  0
 37 38  2  0  0  0
 38 39  1  0  0  0
 39 40  2  0  0  0
 40 41  1  0  0  0
 42 44  1  0  0  0
 42 41  1  0  0  0
 43 44  2  0  0  0
 43 48  1  0  0  0
 44 45  1  0  0  0
 45 46  2  0  0  0
 46 47  1  0  0  0
 47 48  2  0  0  0
M  END
> <minimizedAffinity>
-7.34922

$$$$
3EAX_LZP_A_322


 48 52  0  0  0  0  0  0  0  0999 V2000
   43.0662   18.2154   67.2652 C   0  0  0  0  0  0  0  0  0  0  0  0
   41.9102   17.9164   64.9179 C   0  0  0  0  0  0  0  0  0  0  0  0
   40.3533   17.9230   64.5425 C   0  0  0  0  0  0  0  0  0  0  0  0
   39.6395   16.9742   66.8213 C   0  0  0  0  0  0  0  0  0  0  0  0
   41.1398   16.4563   66.8998 C   0  0  0  0  0  0  0  0  0  0  0  0
   42.0958   17.5652   66.4148 N   0  0  0  0  0  0  0  0  0  0  0  0
   39.5436   18.1334   65.8480 N   0  0  0  0  0  0  0  0  0  0  0  0
   43.8249   19.1086   66.8336 O   0  0  0  0  0  0  0  0  0  0  0  0
   38.7930   19.3184   66.0084 C   0  0  0  0  0  0  0  0  0  0  0  0
   38.7451   20.2132   65.1254 O   0  0  0  0  0  0  0  0  0  0  0  0
   43.2255   17.8320   68.7649 C   0  0  0  0  0  0  0  0  0  0  0  0
   42.5290   18.3849   69.6306 O   0  0  0  0  0  0  0  0  0  0  0  0
   44.2641   16.7257   69.1518 C   0  0  0  0  0  0  0  0  0  0  0  0
   43.8153   15.5343   70.0756 C   0  0  0  0  0  0  0  0  0  0  0  0
   43.6433   15.7393   71.2828 O   0  0  0  0  0  0  0  0  0  0  0  0
   43.6292   11.5397   69.6787 C   0  0  0  0  0  0  0  0  0  0  0  0
   43.1662   11.4930   68.2439 C   0  0  0  0  0  0  0  0  0  0  0  0
   42.9305   12.7072   67.4516 C   0  0  0  0  0  0  0  0  0  0  0  0
   43.1414   14.0205   68.0485 C   0  0  0  0  0  0  0  0  0  0  0  0
   43.5984   14.1491   69.4629 C   0  0  0  0  0  0  0  0  0  0  0  0
   43.8302   12.9086   70.2379 C   0  0  0  0  0  0  0  0  0  0  0  0
   43.8592   10.3433   70.4539 O   0  0  0  0  0  0  0  0  0  0  0  0
   44.2800   10.3234   71.8710 C   0  0  0  0  0  0  0  0  0  0  0  0
   48.1841   10.8257   73.0453 C   0  0  0  0  0  0  0  0  0  0  0  0
   48.7763    9.5561   72.6381 C   0  0  0  0  0  0  0  0  0  0  0  0
   47.8741    8.4673   71.9456 C   0  0  0  0  0  0  0  0  0  0  0  0
   46.4437    8.7546   71.7203 C   0  0  0  0  0  0  0  0  0  0  0  0
   45.8149   10.0452   72.1270 C   0  0  0  0  0  0  0  0  0  0  0  0
   46.7653   11.1006   72.8188 C   0  0  0  0  0  0  0  0  0  0  0  0
   38.0004   19.5798   67.3132 C   0  0  0  0  0  0  0  0  0  0  0  0
   38.3394   20.4501   68.1265 O   0  0  0  0  0  0  0  0  0  0  0  0
   36.7395   18.6944   67.5566 C   0  0  0  0  0  0  0  0  0  0  0  0
   35.8319   18.9334   68.8156 C   0  0  0  0  0  0  0  0  0  0  0  0
   34.6848   19.3762   68.6589 O   0  0  0  0  0  0  0  0  0  0  0  0
   37.6343   17.8321   70.3979 C   0  0  0  0  0  0  0  0  0  0  0  0
   36.3923   18.6119   70.2088 C   0  0  0  0  0  0  0  0  0  0  0  0
   35.6759   19.0900   71.4243 C   0  0  0  0  0  0  0  0  0  0  0  0
   36.1931   18.7931   72.7614 C   0  0  0  0  0  0  0  0  0  0  0  0
   37.4277   18.0157   72.9120 C   0  0  0  0  0  0  0  0  0  0  0  0
   38.2049   17.5002   71.7337 C   0  0  0  0  0  0  0  0  0  0  0  0
   39.4068   16.7376   71.9194 O   0  0  0  0  0  0  0  0  0  0  0  0
   40.2242   16.2227   70.8153 C   0  0  0  0  0  0  0  0  0  0  0  0
   40.5292   13.6213   71.6973 C   0  0  0  0  0  0  0  0  0  0  0  0
   40.1180   14.6712   70.5918 C   0  0  0  0  0  0  0  0  0  0  0  0
   39.6184   14.1207   69.3030 C   0  0  0  0  0  0  0  0  0  0  0  0
   39.5090   12.6732   69.0588 C   0  0  0  0  0  0  0  0  0  0  0  0
   39.9322   11.6649   70.1907 C   0  0  0  0  0  0  0  0  0  0  0  0
   40.4242   12.1809   71.4630 C   0  0  0  0  0  0  0  0  0  0  0  0
 24 25  2  0  0  0
 24 29  1  0  0  0
 25 26  1  0  0  0
 26 27  2  0  0  0
 27 28  1  0  0  0
 28 29  2  0  0  0
 28 23  1  0  0  0
 23 22  1  0  0  0
 16 17  2  0  0  0
 16 21  1  0  0  0
 16 22  1  0  0  0
 17 18  1  0  0  0
 18 19  2  0  0  0
 19 20  1  0  0  0
 20 21  2  0  0  0
 20 14  1  0  0  0
 14 13  1  0  0  0
 14 15  2  0  0  0
 13 11  1  0  0  0
 11  1  1  0  0  0
 11 12  2  0  0  0
  1  6  1  0  0  0
  1  8  2  0  0  0
  2  3  1  0  0  0
  2  6  1  0  0  0
  3  7  1  0  0  0
  4  5  1  0  0  0
  4  7  1  0  0  0
  5  6  1  0  0  0
  7  9  1  0  0  0
  9 30  1  0  0  0
  9 10  2  0  0  0
 30 32  1  0  0  0
 30 31  2  0  0  0
 32 33  1  0  0  0
 33 36  1  0  0  0
 33 34  2  0  0  0
 35 36  2  0  0  0
 35 40  1  0  0  0
 36 37  1  0  0  0
 37 38  2  0  0  0
 38 39  1  0  0  0
 39 40  2  0  0  0
 40 41  1  0  0  0
 42 44  1  0  0  0
 42 41  1  0  0  0
 43 44  2  0  0  0
 43 48  1  0  0  0
 44 45  1  0  0  0
 45 46  2  0  0  0
 46 47  1  0  0  0
 47 48  2  0  0  0
M  END
> <minimizedAffinity>
-7.34242

$$$$
3EAX_LZP_A_322


 48 52  0  0  0  0  0  0  0  0999 V2000
   34.8691   15.5703   70.8606 C   0  0  0  0  0  0  0  0  0  0  0  0
   33.7960   17.9447   70.4780 C   0  0  0  0  0  0  0  0  0  0  0  0
   34.3094   19.1582   69.5677 C   0  0  0  0  0  0  0  0  0  0  0  0
   36.7856   18.5394   69.8649 C   0  0  0  0  0  0  0  0  0  0  0  0
   36.2772   17.7760   71.1626 C   0  0  0  0  0  0  0  0  0  0  0  0
   34.9782   17.0109   70.8370 N   0  0  0  0  0  0  0  0  0  0  0  0
   35.6368   18.7265   68.8925 N   0  0  0  0  0  0  0  0  0  0  0  0
   33.7975   14.9876   70.5926 O   0  0  0  0  0  0  0  0  0  0  0  0
   35.6776   18.5764   67.4893 C   0  0  0  0  0  0  0  0  0  0  0  0
   34.6772   18.7898   66.7570 O   0  0  0  0  0  0  0  0  0  0  0  0
   36.0796   14.6651   71.2302 C   0  0  0  0  0  0  0  0  0  0  0  0
   36.0078   13.8842   72.1921 O   0  0  0  0  0  0  0  0  0  0  0  0
   37.3750   14.7473   70.3540 C   0  0  0  0  0  0  0  0  0  0  0  0
   37.6232   13.6656   69.2393 C   0  0  0  0  0  0  0  0  0  0  0  0
   36.7219   12.8644   68.9655 O   0  0  0  0  0  0  0  0  0  0  0  0
   41.2217   12.4071   67.9683 C   0  0  0  0  0  0  0  0  0  0  0  0
   41.5638   13.5924   67.1004 C   0  0  0  0  0  0  0  0  0  0  0  0
   40.6620   14.7414   66.9439 C   0  0  0  0  0  0  0  0  0  0  0  0
   39.3809   14.7635   67.6395 C   0  0  0  0  0  0  0  0  0  0  0  0
   38.9709   13.6279   68.5159 C   0  0  0  0  0  0  0  0  0  0  0  0
   39.9001   12.4834   68.6571 C   0  0  0  0  0  0  0  0  0  0  0  0
   42.1113   11.2795   68.1187 O   0  0  0  0  0  0  0  0  0  0  0  0
   43.3925   11.3074   68.8557 C   0  0  0  0  0  0  0  0  0  0  0  0
   41.9199   10.6088   72.6261 C   0  0  0  0  0  0  0  0  0  0  0  0
   43.0153   11.0907   73.4605 C   0  0  0  0  0  0  0  0  0  0  0  0
   44.3087   11.6752   72.7791 C   0  0  0  0  0  0  0  0  0  0  0  0
   44.3865   11.7253   71.3057 C   0  0  0  0  0  0  0  0  0  0  0  0
   43.2796   11.2393   70.4309 C   0  0  0  0  0  0  0  0  0  0  0  0
   42.0067   10.6615   71.1668 C   0  0  0  0  0  0  0  0  0  0  0  0
   36.9755   18.1122   66.7829 C   0  0  0  0  0  0  0  0  0  0  0  0
   37.0793   16.9914   66.2662 O   0  0  0  0  0  0  0  0  0  0  0  0
   38.1555   19.1315   66.7443 C   0  0  0  0  0  0  0  0  0  0  0  0
   39.0474   19.2661   65.4589 C   0  0  0  0  0  0  0  0  0  0  0  0
   38.6915   20.0342   64.5535 O   0  0  0  0  0  0  0  0  0  0  0  0
   41.4280   18.5575   66.3511 C   0  0  0  0  0  0  0  0  0  0  0  0
   40.3381   18.4398   65.3589 C   0  0  0  0  0  0  0  0  0  0  0  0
   40.5202   17.4831   64.2315 C   0  0  0  0  0  0  0  0  0  0  0  0
   41.7437   16.6871   64.1177 C   0  0  0  0  0  0  0  0  0  0  0  0
   42.8052   16.8302   65.1196 C   0  0  0  0  0  0  0  0  0  0  0  0
   42.6935   17.7738   66.2838 C   0  0  0  0  0  0  0  0  0  0  0  0
   43.7555   17.8916   67.2424 O   0  0  0  0  0  0  0  0  0  0  0  0
   43.5463   18.2414   68.6516 C   0  0  0  0  0  0  0  0  0  0  0  0
   43.2276   15.7493   69.8032 C   0  0  0  0  0  0  0  0  0  0  0  0
   42.6986   17.1982   69.4650 C   0  0  0  0  0  0  0  0  0  0  0  0
   41.3363   17.5416   69.9551 C   0  0  0  0  0  0  0  0  0  0  0  0
   40.5139   16.5877   70.7171 C   0  0  0  0  0  0  0  0  0  0  0  0
   41.0835   15.1541   71.0290 C   0  0  0  0  0  0  0  0  0  0  0  0
   42.4167   14.7948   70.5596 C   0  0  0  0  0  0  0  0  0  0  0  0
 24 25  2  0  0  0
 24 29  1  0  0  0
 25 26  1  0  0  0
 26 27  2  0  0  0
 27 28  1  0  0  0
 28 29  2  0  0  0
 28 23  1  0  0  0
 23 22  1  0  0  0
 16 17  2  0  0  0
 16 21  1  0  0  0
 16 22  1  0  0  0
 17 18  1  0  0  0
 18 19  2  0  0  0
 19 20  1  0  0  0
 20 21  2  0  0  0
 20 14  1  0  0  0
 14 13  1  0  0  0
 14 15  2  0  0  0
 13 11  1  0  0  0
 11  1  1  0  0  0
 11 12  2  0  0  0
  1  6  1  0  0  0
  1  8  2  0  0  0
  2  3  1  0  0  0
  2  6  1  0  0  0
  3  7  1  0  0  0
  4  5  1  0  0  0
  4  7  1  0  0  0
  5  6  1  0  0  0
  7  9  1  0  0  0
  9 30  1  0  0  0
  9 10  2  0  0  0
 30 32  1  0  0  0
 30 31  2  0  0  0
 32 33  1  0  0  0
 33 36  1  0  0  0
 33 34  2  0  0  0
 35 36  2  0  0  0
 35 40  1  0  0  0
 36 37  1  0  0  0
 37 38  2  0  0  0
 38 39  1  0  0  0
 39 40  2  0  0  0
 40 41  1  0  0  0
 42 44  1  0  0  0
 42 41  1  0  0  0
 43 44  2  0  0  0
 43 48  1  0  0  0
 44 45  1  0  0  0
 45 46  2  0  0  0
 46 47  1  0  0  0
 47 48  2  0  0  0
M  END
> <minimizedAffinity>
-7.33444

$$$$
