3ZSX_N44_A_1215


 35 38  0  0  0  0  0  0  0  0999 V2000
   -8.8457   44.7278    0.3923 C   0  0  0  0  0  0  0  0  0  0  0  0
   -8.8887   40.5035   -0.0466 C   0  0  0  0  0  0  0  0  0  0  0  0
   -9.7100   41.2873   -0.8189 C   0  0  0  0  0  0  0  0  0  0  0  0
   -8.0348   41.0750    0.8780 C   0  0  0  0  0  0  0  0  0  0  0  0
   -9.6699   42.6604   -0.6497 C   0  0  0  0  0  0  0  0  0  0  0  0
   -7.9886   42.4481    1.0465 C   0  0  0  0  0  0  0  0  0  0  0  0
   -8.8217   43.2439    0.2719 C   0  0  0  0  0  0  0  0  0  0  0  0
   -7.0582   43.0277    2.0607 C   0  0  0  0  0  0  0  0  0  0  0  0
   -7.5909   43.4975    3.2535 N   0  0  0  0  0  0  0  0  0  0  0  0
   -5.8638   43.0806    1.8108 O   0  0  0  0  0  0  0  0  0  0  0  0
   -8.5602   43.4367    3.4150 H   0  0  0  0  0  0  0  0  0  0  0  0
   -6.7269   44.0769    4.2617 C   0  0  0  0  0  0  0  0  0  0  0  0
   -7.0784   48.3278    4.3547 C   0  0  0  0  0  0  0  0  0  0  0  0
   -7.4444   47.5759    5.4508 C   0  0  0  0  0  0  0  0  0  0  0  0
   -6.6192   47.6975    3.2196 C   0  0  0  0  0  0  0  0  0  0  0  0
   -7.3367   46.2054    5.4133 C   0  0  0  0  0  0  0  0  0  0  0  0
   -6.5048   46.3235    3.1887 C   0  0  0  0  0  0  0  0  0  0  0  0
   -6.8603   45.5669    4.2893 C   0  0  0  0  0  0  0  0  0  0  0  0
  -10.1355   45.3069    0.8508 N   0  0  0  0  0  0  0  0  0  0  0  0
  -10.7585   46.3381   -0.0537 C   0  0  0  0  0  0  0  0  0  0  0  0
  -11.5805   45.1935   -2.0931 C   0  0  0  0  0  0  0  0  0  0  0  0
  -12.5612   44.6195   -2.8920 C   0  0  0  0  0  0  0  0  0  0  0  0
  -13.1916   45.7261   -0.3481 C   0  0  0  0  0  0  0  0  0  0  0  0
  -11.8848   45.7335   -0.8433 C   0  0  0  0  0  0  0  0  0  0  0  0
  -13.8426   44.6157   -2.3906 C   0  0  0  0  0  0  0  0  0  0  0  0
  -14.1538   45.1449   -1.1631 C   0  0  0  0  0  0  0  0  0  0  0  0
  -15.9774   44.3623   -2.0778 C   0  0  0  0  0  0  0  0  0  0  0  0
  -14.9342   44.0982   -3.0430 O   0  0  0  0  0  0  0  0  0  0  0  0
  -15.5166   45.0265   -0.8870 O   0  0  0  0  0  0  0  0  0  0  0  0
  -13.5449   46.2851    1.0074 C   0  0  0  0  0  0  0  0  0  0  0  0
  -13.6939   45.4464    1.9391 O   0  0  0  0  0  0  0  0  0  0  0  0
  -13.6375   47.5371    1.1823 O   0  0  0  0  0  0  0  0  0  0  0  0
  -10.0931   45.6609    2.3093 C   0  0  0  0  0  0  0  0  0  0  0  0
  -10.8143   47.5652    3.7143 C   0  0  0  0  0  0  0  0  0  0  0  0
  -10.2321   47.1169    2.5956 C   0  0  0  0  0  0  0  0  0  0  0  0
 13 14  2  0  0  0
 13 15  1  0  0  0
  2  3  2  0  0  0
  2  4  1  0  0  0
 14 16  1  0  0  0
 15 17  2  0  0  0
  3  5  1  0  0  0
  4  6  2  0  0  0
 16 18  2  0  0  0
 17 18  1  0  0  0
  5  7  2  0  0  0
 21 22  2  0  0  0
 21 24  1  0  0  0
 22 25  1  0  0  0
  6  7  1  0  0  0
  6  8  1  0  0  0
 23 24  2  0  0  0
 23 26  1  0  0  0
 23 30  1  0  0  0
 18 12  1  0  0  0
  7  1  1  0  0  0
 24 20  1  0  0  0
 25 26  2  0  0  0
 25 28  1  0  0  0
 26 29  1  0  0  0
 34 35  2  0  0  0
 35 33  1  0  0  0
  8  9  1  0  0  0
  8 10  2  0  0  0
 30 31  2  0  0  0
 30 32  1  0  0  0
 27 28  1  0  0  0
 27 29  1  0  0  0
 12  9  1  0  0  0
  1 19  1  0  0  0
 20 19  1  0  0  0
 33 19  1  0  0  0
  9 11  1  0  0  0
M  CHG 1  32  -1
M  END
> <minimizedAffinity>
-7.58588

$$$$
3ZSX_N44_A_1215


 35 38  0  0  0  0  0  0  0  0999 V2000
   -7.6003   46.0889    2.5011 C   0  0  0  0  0  0  0  0  0  0  0  0
   -3.4695   45.3079    3.1054 C   0  0  0  0  0  0  0  0  0  0  0  0
   -3.9429   46.5962    3.1467 C   0  0  0  0  0  0  0  0  0  0  0  0
   -4.3271   44.2492    2.8728 C   0  0  0  0  0  0  0  0  0  0  0  0
   -5.2948   46.8142    2.9458 C   0  0  0  0  0  0  0  0  0  0  0  0
   -5.6805   44.4631    2.6761 C   0  0  0  0  0  0  0  0  0  0  0  0
   -6.1624   45.7646    2.7112 C   0  0  0  0  0  0  0  0  0  0  0  0
   -6.5741   43.2943    2.4204 C   0  0  0  0  0  0  0  0  0  0  0  0
   -6.7334   42.8585    1.1119 N   0  0  0  0  0  0  0  0  0  0  0  0
   -7.1436   42.7637    3.3616 O   0  0  0  0  0  0  0  0  0  0  0  0
   -6.2563   43.3151    0.3818 H   0  0  0  0  0  0  0  0  0  0  0  0
   -7.5985   41.7347    0.8163 C   0  0  0  0  0  0  0  0  0  0  0  0
  -10.7989   42.9053   -1.7506 C   0  0  0  0  0  0  0  0  0  0  0  0
  -10.7541   41.6281   -1.2337 C   0  0  0  0  0  0  0  0  0  0  0  0
   -9.7920   43.7961   -1.4521 C   0  0  0  0  0  0  0  0  0  0  0  0
   -9.7163   41.2529   -0.4131 C   0  0  0  0  0  0  0  0  0  0  0  0
   -8.7573   43.4188   -0.6221 C   0  0  0  0  0  0  0  0  0  0  0  0
   -8.7144   42.1427   -0.0931 C   0  0  0  0  0  0  0  0  0  0  0  0
   -7.8731   47.1325    1.4786 N   0  0  0  0  0  0  0  0  0  0  0  0
   -9.1760   47.8755    1.6201 C   0  0  0  0  0  0  0  0  0  0  0  0
  -10.5894   45.8589    1.9036 C   0  0  0  0  0  0  0  0  0  0  0  0
  -11.6274   45.0041    1.5555 C   0  0  0  0  0  0  0  0  0  0  0  0
  -11.0863   47.3570    0.0507 C   0  0  0  0  0  0  0  0  0  0  0  0
  -10.3233   47.0158    1.1708 C   0  0  0  0  0  0  0  0  0  0  0  0
  -12.3727   45.3540    0.4530 C   0  0  0  0  0  0  0  0  0  0  0  0
  -12.1196   46.4889   -0.2760 C   0  0  0  0  0  0  0  0  0  0  0  0
  -13.8167   45.4405   -1.1677 C   0  0  0  0  0  0  0  0  0  0  0  0
  -13.4287   44.6267   -0.0377 O   0  0  0  0  0  0  0  0  0  0  0  0
  -13.0059   46.6162   -1.3464 O   0  0  0  0  0  0  0  0  0  0  0  0
  -10.8330   48.6113   -0.7475 C   0  0  0  0  0  0  0  0  0  0  0  0
  -11.4798   49.6382   -0.3999 O   0  0  0  0  0  0  0  0  0  0  0  0
   -9.9784   48.6160   -1.6836 O   0  0  0  0  0  0  0  0  0  0  0  0
   -7.5475   46.6473    0.0955 C   0  0  0  0  0  0  0  0  0  0  0  0
   -5.9301   48.4922   -0.2215 C   0  0  0  0  0  0  0  0  0  0  0  0
   -6.8103   47.6314   -0.7466 C   0  0  0  0  0  0  0  0  0  0  0  0
 13 14  2  0  0  0
 13 15  1  0  0  0
  2  3  2  0  0  0
  2  4  1  0  0  0
 14 16  1  0  0  0
 15 17  2  0  0  0
  3  5  1  0  0  0
  4  6  2  0  0  0
 16 18  2  0  0  0
 17 18  1  0  0  0
  5  7  2  0  0  0
 21 22  2  0  0  0
 21 24  1  0  0  0
 22 25  1  0  0  0
  6  7  1  0  0  0
  6  8  1  0  0  0
 23 24  2  0  0  0
 23 26  1  0  0  0
 23 30  1  0  0  0
 18 12  1  0  0  0
  7  1  1  0  0  0
 24 20  1  0  0  0
 25 26  2  0  0  0
 25 28  1  0  0  0
 26 29  1  0  0  0
 34 35  2  0  0  0
 35 33  1  0  0  0
  8  9  1  0  0  0
  8 10  2  0  0  0
 30 31  2  0  0  0
 30 32  1  0  0  0
 27 28  1  0  0  0
 27 29  1  0  0  0
 12  9  1  0  0  0
  1 19  1  0  0  0
 20 19  1  0  0  0
 33 19  1  0  0  0
  9 11  1  0  0  0
M  CHG 1  32  -1
M  END
> <minimizedAffinity>
-7.18152

$$$$
3ZSX_N44_A_1215


 35 38  0  0  0  0  0  0  0  0999 V2000
   -8.0452   45.8938    0.5009 C   0  0  0  0  0  0  0  0  0  0  0  0
   -6.0729   42.7555    2.5745 C   0  0  0  0  0  0  0  0  0  0  0  0
   -5.9470   44.0538    3.0035 C   0  0  0  0  0  0  0  0  0  0  0  0
   -6.8445   42.4503    1.4690 C   0  0  0  0  0  0  0  0  0  0  0  0
   -6.6037   45.0515    2.3042 C   0  0  0  0  0  0  0  0  0  0  0  0
   -7.5065   43.4450    0.7701 C   0  0  0  0  0  0  0  0  0  0  0  0
   -7.3771   44.7597    1.1969 C   0  0  0  0  0  0  0  0  0  0  0  0
   -8.3248   43.0767   -0.4236 C   0  0  0  0  0  0  0  0  0  0  0  0
   -9.5965   42.5590   -0.2184 N   0  0  0  0  0  0  0  0  0  0  0  0
   -7.8525   43.2312   -1.5393 O   0  0  0  0  0  0  0  0  0  0  0  0
   -9.9392   42.4498    0.6981 H   0  0  0  0  0  0  0  0  0  0  0  0
  -10.4215   42.1787   -1.3468 C   0  0  0  0  0  0  0  0  0  0  0  0
  -13.2453   45.2480   -2.2457 C   0  0  0  0  0  0  0  0  0  0  0  0
  -13.6761   43.9733   -1.9457 C   0  0  0  0  0  0  0  0  0  0  0  0
  -11.8957   45.5208   -2.2760 C   0  0  0  0  0  0  0  0  0  0  0  0
  -12.7619   42.9853   -1.6643 C   0  0  0  0  0  0  0  0  0  0  0  0
  -10.9822   44.5295   -1.9851 C   0  0  0  0  0  0  0  0  0  0  0  0
  -11.4104   43.2530   -1.6732 C   0  0  0  0  0  0  0  0  0  0  0  0
   -9.2346   46.4528    1.1950 N   0  0  0  0  0  0  0  0  0  0  0  0
   -9.0801   47.8392    1.7640 C   0  0  0  0  0  0  0  0  0  0  0  0
   -9.8415   48.9746   -0.3039 C   0  0  0  0  0  0  0  0  0  0  0  0
  -10.6493   49.8458   -1.0235 C   0  0  0  0  0  0  0  0  0  0  0  0
  -10.9842   49.4991    1.7803 C   0  0  0  0  0  0  0  0  0  0  0  0
  -10.0051   48.7986    1.0704 C   0  0  0  0  0  0  0  0  0  0  0  0
  -11.6113   50.5260   -0.3127 C   0  0  0  0  0  0  0  0  0  0  0  0
  -11.7808   50.3618    1.0393 C   0  0  0  0  0  0  0  0  0  0  0  0
  -13.2418   51.8167    0.3159 C   0  0  0  0  0  0  0  0  0  0  0  0
  -12.4910   51.4288   -0.8570 O   0  0  0  0  0  0  0  0  0  0  0  0
  -12.8124   51.1660    1.5257 O   0  0  0  0  0  0  0  0  0  0  0  0
  -11.1956   49.3134    3.2620 C   0  0  0  0  0  0  0  0  0  0  0  0
  -10.5921   50.1220    4.0208 O   0  0  0  0  0  0  0  0  0  0  0  0
  -11.9773   48.4132    3.6920 O   0  0  0  0  0  0  0  0  0  0  0  0
   -9.8660   45.4414    2.1076 C   0  0  0  0  0  0  0  0  0  0  0  0
  -12.2132   45.8226    1.4250 C   0  0  0  0  0  0  0  0  0  0  0  0
  -11.2108   44.9704    1.6710 C   0  0  0  0  0  0  0  0  0  0  0  0
 13 14  2  0  0  0
 13 15  1  0  0  0
  2  3  2  0  0  0
  2  4  1  0  0  0
 14 16  1  0  0  0
 15 17  2  0  0  0
  3  5  1  0  0  0
  4  6  2  0  0  0
 16 18  2  0  0  0
 17 18  1  0  0  0
  5  7  2  0  0  0
 21 22  2  0  0  0
 21 24  1  0  0  0
 22 25  1  0  0  0
  6  7  1  0  0  0
  6  8  1  0  0  0
 23 24  2  0  0  0
 23 26  1  0  0  0
 23 30  1  0  0  0
 18 12  1  0  0  0
  7  1  1  0  0  0
 24 20  1  0  0  0
 25 26  2  0  0  0
 25 28  1  0  0  0
 26 29  1  0  0  0
 34 35  2  0  0  0
 35 33  1  0  0  0
  8  9  1  0  0  0
  8 10  2  0  0  0
 30 31  2  0  0  0
 30 32  1  0  0  0
 27 28  1  0  0  0
 27 29  1  0  0  0
 12  9  1  0  0  0
  1 19  1  0  0  0
 20 19  1  0  0  0
 33 19  1  0  0  0
  9 11  1  0  0  0
M  CHG 1  32  -1
M  END
> <minimizedAffinity>
-7.13170

$$$$
3ZSX_N44_A_1215


 35 38  0  0  0  0  0  0  0  0999 V2000
   -8.6801   46.7671   -0.0836 C   0  0  0  0  0  0  0  0  0  0  0  0
   -5.0897   48.3669    1.5255 C   0  0  0  0  0  0  0  0  0  0  0  0
   -5.7845   49.0578    0.5634 C   0  0  0  0  0  0  0  0  0  0  0  0
   -5.5490   47.1476    1.9871 C   0  0  0  0  0  0  0  0  0  0  0  0
   -6.9507   48.5070    0.0614 C   0  0  0  0  0  0  0  0  0  0  0  0
   -6.7175   46.5960    1.4907 C   0  0  0  0  0  0  0  0  0  0  0  0
   -7.4198   47.2885    0.5136 C   0  0  0  0  0  0  0  0  0  0  0  0
   -7.1775   45.2734    2.0093 C   0  0  0  0  0  0  0  0  0  0  0  0
   -6.7778   44.1256    1.3382 N   0  0  0  0  0  0  0  0  0  0  0  0
   -7.8952   45.2385    2.9969 O   0  0  0  0  0  0  0  0  0  0  0  0
   -6.1992   44.1980    0.5451 H   0  0  0  0  0  0  0  0  0  0  0  0
   -7.2085   42.8218    1.8001 C   0  0  0  0  0  0  0  0  0  0  0  0
   -9.6356   40.8761   -1.1198 C   0  0  0  0  0  0  0  0  0  0  0  0
   -8.9486   40.1354   -0.1818 C   0  0  0  0  0  0  0  0  0  0  0  0
   -9.5166   42.2481   -1.1240 C   0  0  0  0  0  0  0  0  0  0  0  0
   -8.1613   40.7666    0.7526 C   0  0  0  0  0  0  0  0  0  0  0  0
   -8.7327   42.8780   -0.1803 C   0  0  0  0  0  0  0  0  0  0  0  0
   -8.0510   42.1398    0.7687 C   0  0  0  0  0  0  0  0  0  0  0  0
   -9.9101   47.0134    0.7137 N   0  0  0  0  0  0  0  0  0  0  0  0
  -10.7856   45.8145    0.9703 C   0  0  0  0  0  0  0  0  0  0  0  0
  -11.1806   45.1798   -1.3933 C   0  0  0  0  0  0  0  0  0  0  0  0
  -11.9778   44.9588   -2.5091 C   0  0  0  0  0  0  0  0  0  0  0  0
  -13.1011   45.8153   -0.0395 C   0  0  0  0  0  0  0  0  0  0  0  0
  -11.7279   45.5958   -0.1793 C   0  0  0  0  0  0  0  0  0  0  0  0
  -13.3281   45.1752   -2.3563 C   0  0  0  0  0  0  0  0  0  0  0  0
  -13.8776   45.5854   -1.1674 C   0  0  0  0  0  0  0  0  0  0  0  0
  -15.4724   45.3699   -2.6455 C   0  0  0  0  0  0  0  0  0  0  0  0
  -14.2615   45.0135   -3.3501 O   0  0  0  0  0  0  0  0  0  0  0  0
  -15.2606   45.7409   -1.2711 O   0  0  0  0  0  0  0  0  0  0  0  0
  -13.7214   46.2460    1.2659 C   0  0  0  0  0  0  0  0  0  0  0  0
  -14.4017   45.3764    1.8781 O   0  0  0  0  0  0  0  0  0  0  0  0
  -13.5173   47.4112    1.7212 O   0  0  0  0  0  0  0  0  0  0  0  0
  -10.6226   48.2542    0.2586 C   0  0  0  0  0  0  0  0  0  0  0  0
  -10.0483   49.9297   -1.4686 C   0  0  0  0  0  0  0  0  0  0  0  0
  -10.3211   48.6603   -1.1432 C   0  0  0  0  0  0  0  0  0  0  0  0
 13 14  2  0  0  0
 13 15  1  0  0  0
  2  3  2  0  0  0
  2  4  1  0  0  0
 14 16  1  0  0  0
 15 17  2  0  0  0
  3  5  1  0  0  0
  4  6  2  0  0  0
 16 18  2  0  0  0
 17 18  1  0  0  0
  5  7  2  0  0  0
 21 22  2  0  0  0
 21 24  1  0  0  0
 22 25  1  0  0  0
  6  7  1  0  0  0
  6  8  1  0  0  0
 23 24  2  0  0  0
 23 26  1  0  0  0
 23 30  1  0  0  0
 18 12  1  0  0  0
  7  1  1  0  0  0
 24 20  1  0  0  0
 25 26  2  0  0  0
 25 28  1  0  0  0
 26 29  1  0  0  0
 34 35  2  0  0  0
 35 33  1  0  0  0
  8  9  1  0  0  0
  8 10  2  0  0  0
 30 31  2  0  0  0
 30 32  1  0  0  0
 27 28  1  0  0  0
 27 29  1  0  0  0
 12  9  1  0  0  0
  1 19  1  0  0  0
 20 19  1  0  0  0
 33 19  1  0  0  0
  9 11  1  0  0  0
M  CHG 1  32  -1
M  END
> <minimizedAffinity>
-7.09706

$$$$
3ZSX_N44_A_1215


 35 38  0  0  0  0  0  0  0  0999 V2000
   -7.5512   46.1237    0.3325 C   0  0  0  0  0  0  0  0  0  0  0  0
   -6.0191   43.0792    2.8667 C   0  0  0  0  0  0  0  0  0  0  0  0
   -5.7288   44.3978    3.1165 C   0  0  0  0  0  0  0  0  0  0  0  0
   -6.8155   42.7240    1.7942 C   0  0  0  0  0  0  0  0  0  0  0  0
   -6.2450   45.3639    2.2704 C   0  0  0  0  0  0  0  0  0  0  0  0
   -7.3374   43.6878    0.9488 C   0  0  0  0  0  0  0  0  0  0  0  0
   -7.0415   45.0218    1.1943 C   0  0  0  0  0  0  0  0  0  0  0  0
   -8.1876   43.2642   -0.2035 C   0  0  0  0  0  0  0  0  0  0  0  0
   -9.4894   42.8546    0.0516 N   0  0  0  0  0  0  0  0  0  0  0  0
   -7.7148   43.2807   -1.3295 O   0  0  0  0  0  0  0  0  0  0  0  0
   -9.8314   42.8555    0.9748 H   0  0  0  0  0  0  0  0  0  0  0  0
  -10.3466   42.4257   -1.0346 C   0  0  0  0  0  0  0  0  0  0  0  0
  -13.1760   45.4649   -2.0144 C   0  0  0  0  0  0  0  0  0  0  0  0
  -13.5597   44.1412   -1.9860 C   0  0  0  0  0  0  0  0  0  0  0  0
  -11.8673   45.8002   -1.7467 C   0  0  0  0  0  0  0  0  0  0  0  0
  -12.6423   43.1643   -1.6773 C   0  0  0  0  0  0  0  0  0  0  0  0
  -10.9521   44.8185   -1.4294 C   0  0  0  0  0  0  0  0  0  0  0  0
  -11.3353   43.4913   -1.3891 C   0  0  0  0  0  0  0  0  0  0  0  0
   -8.3679   47.1504    1.0311 N   0  0  0  0  0  0  0  0  0  0  0  0
   -9.6747   46.6763    1.6118 C   0  0  0  0  0  0  0  0  0  0  0  0
   -8.8303   47.0993    3.9037 C   0  0  0  0  0  0  0  0  0  0  0  0
   -8.9317   47.5875    5.2002 C   0  0  0  0  0  0  0  0  0  0  0  0
  -11.0686   47.8750    3.3442 C   0  0  0  0  0  0  0  0  0  0  0  0
   -9.8742   47.2419    2.9893 C   0  0  0  0  0  0  0  0  0  0  0  0
  -10.1114   48.2117    5.5349 C   0  0  0  0  0  0  0  0  0  0  0  0
  -11.1454   48.3568    4.6442 C   0  0  0  0  0  0  0  0  0  0  0  0
  -11.7252   49.2518    6.5513 C   0  0  0  0  0  0  0  0  0  0  0  0
  -10.3882   48.7469    6.7685 O   0  0  0  0  0  0  0  0  0  0  0  0
  -12.2306   49.0146    5.2248 O   0  0  0  0  0  0  0  0  0  0  0  0
  -12.2050   48.0600    2.3702 C   0  0  0  0  0  0  0  0  0  0  0  0
  -12.2989   49.1954    1.8262 O   0  0  0  0  0  0  0  0  0  0  0  0
  -12.9823   47.0963    2.0985 O   0  0  0  0  0  0  0  0  0  0  0  0
   -8.4294   48.4310    0.2497 C   0  0  0  0  0  0  0  0  0  0  0  0
  -10.2765   49.4319   -1.0567 C   0  0  0  0  0  0  0  0  0  0  0  0
   -9.4146   48.4254   -0.8685 C   0  0  0  0  0  0  0  0  0  0  0  0
 13 14  2  0  0  0
 13 15  1  0  0  0
  2  3  2  0  0  0
  2  4  1  0  0  0
 14 16  1  0  0  0
 15 17  2  0  0  0
  3  5  1  0  0  0
  4  6  2  0  0  0
 16 18  2  0  0  0
 17 18  1  0  0  0
  5  7  2  0  0  0
 21 22  2  0  0  0
 21 24  1  0  0  0
 22 25  1  0  0  0
  6  7  1  0  0  0
  6  8  1  0  0  0
 23 24  2  0  0  0
 23 26  1  0  0  0
 23 30  1  0  0  0
 18 12  1  0  0  0
  7  1  1  0  0  0
 24 20  1  0  0  0
 25 26  2  0  0  0
 25 28  1  0  0  0
 26 29  1  0  0  0
 34 35  2  0  0  0
 35 33  1  0  0  0
  8  9  1  0  0  0
  8 10  2  0  0  0
 30 31  2  0  0  0
 30 32  1  0  0  0
 27 28  1  0  0  0
 27 29  1  0  0  0
 12  9  1  0  0  0
  1 19  1  0  0  0
 20 19  1  0  0  0
 33 19  1  0  0  0
  9 11  1  0  0  0
M  CHG 1  32  -1
M  END
> <minimizedAffinity>
-7.02272

$$$$
3ZSX_N44_A_1215


 35 38  0  0  0  0  0  0  0  0999 V2000
   -8.8774   45.9290    0.9893 C   0  0  0  0  0  0  0  0  0  0  0  0
   -7.4394   41.9328    0.9523 C   0  0  0  0  0  0  0  0  0  0  0  0
   -8.4247   42.3212    0.0784 C   0  0  0  0  0  0  0  0  0  0  0  0
   -6.8987   42.8339    1.8503 C   0  0  0  0  0  0  0  0  0  0  0  0
   -8.8694   43.6313    0.1177 C   0  0  0  0  0  0  0  0  0  0  0  0
   -7.3378   44.1461    1.8892 C   0  0  0  0  0  0  0  0  0  0  0  0
   -8.3380   44.5414    1.0113 C   0  0  0  0  0  0  0  0  0  0  0  0
   -6.7343   45.0881    2.8784 C   0  0  0  0  0  0  0  0  0  0  0  0
   -7.2311   45.0921    4.1748 N   0  0  0  0  0  0  0  0  0  0  0  0
   -5.8331   45.8303    2.5199 O   0  0  0  0  0  0  0  0  0  0  0  0
   -7.9595   44.4777    4.4224 H   0  0  0  0  0  0  0  0  0  0  0  0
   -6.6826   45.9964    5.1648 C   0  0  0  0  0  0  0  0  0  0  0  0
   -4.5305   43.8713    8.1739 C   0  0  0  0  0  0  0  0  0  0  0  0
   -4.4060   43.5152    6.8479 C   0  0  0  0  0  0  0  0  0  0  0  0
   -5.3717   44.9035    8.5254 C   0  0  0  0  0  0  0  0  0  0  0  0
   -5.1077   44.1981    5.8823 C   0  0  0  0  0  0  0  0  0  0  0  0
   -6.0674   45.5913    7.5534 C   0  0  0  0  0  0  0  0  0  0  0  0
   -5.9370   45.2445    6.2219 C   0  0  0  0  0  0  0  0  0  0  0  0
  -10.3461   46.0426    1.1872 N   0  0  0  0  0  0  0  0  0  0  0  0
  -11.0783   46.9388    0.2226 C   0  0  0  0  0  0  0  0  0  0  0  0
  -11.4997   45.5678   -1.7992 C   0  0  0  0  0  0  0  0  0  0  0  0
  -12.2967   44.8145   -2.6518 C   0  0  0  0  0  0  0  0  0  0  0  0
  -13.3585   45.9757   -0.2816 C   0  0  0  0  0  0  0  0  0  0  0  0
  -12.0155   46.1355   -0.6339 C   0  0  0  0  0  0  0  0  0  0  0  0
  -13.6157   44.6622   -2.2908 C   0  0  0  0  0  0  0  0  0  0  0  0
  -14.1344   45.2168   -1.1476 C   0  0  0  0  0  0  0  0  0  0  0  0
  -15.7201   44.1323   -2.1888 C   0  0  0  0  0  0  0  0  0  0  0  0
  -14.5463   43.9582   -3.0144 O   0  0  0  0  0  0  0  0  0  0  0  0
  -15.4924   44.9261   -1.0100 O   0  0  0  0  0  0  0  0  0  0  0  0
  -13.9372   46.5617    0.9818 C   0  0  0  0  0  0  0  0  0  0  0  0
  -14.1557   45.7536    1.9268 O   0  0  0  0  0  0  0  0  0  0  0  0
  -14.1421   47.8089    1.0769 O   0  0  0  0  0  0  0  0  0  0  0  0
  -10.6945   46.2237    2.6364 C   0  0  0  0  0  0  0  0  0  0  0  0
  -11.3455   48.4246    3.5598 C   0  0  0  0  0  0  0  0  0  0  0  0
  -10.3827   47.5750    3.1822 C   0  0  0  0  0  0  0  0  0  0  0  0
 13 14  2  0  0  0
 13 15  1  0  0  0
  2  3  2  0  0  0
  2  4  1  0  0  0
 14 16  1  0  0  0
 15 17  2  0  0  0
  3  5  1  0  0  0
  4  6  2  0  0  0
 16 18  2  0  0  0
 17 18  1  0  0  0
  5  7  2  0  0  0
 21 22  2  0  0  0
 21 24  1  0  0  0
 22 25  1  0  0  0
  6  7  1  0  0  0
  6  8  1  0  0  0
 23 24  2  0  0  0
 23 26  1  0  0  0
 23 30  1  0  0  0
 18 12  1  0  0  0
  7  1  1  0  0  0
 24 20  1  0  0  0
 25 26  2  0  0  0
 25 28  1  0  0  0
 26 29  1  0  0  0
 34 35  2  0  0  0
 35 33  1  0  0  0
  8  9  1  0  0  0
  8 10  2  0  0  0
 30 31  2  0  0  0
 30 32  1  0  0  0
 27 28  1  0  0  0
 27 29  1  0  0  0
 12  9  1  0  0  0
  1 19  1  0  0  0
 20 19  1  0  0  0
 33 19  1  0  0  0
  9 11  1  0  0  0
M  CHG 1  32  -1
M  END
> <minimizedAffinity>
-6.90832

$$$$
3ZSX_N44_A_1215


 35 38  0  0  0  0  0  0  0  0999 V2000
   -8.7674   45.8204    0.7276 C   0  0  0  0  0  0  0  0  0  0  0  0
  -10.8305   49.4885    0.1548 C   0  0  0  0  0  0  0  0  0  0  0  0
  -10.4858   48.7131   -0.9248 C   0  0  0  0  0  0  0  0  0  0  0  0
  -10.5175   49.0864    1.4397 C   0  0  0  0  0  0  0  0  0  0  0  0
   -9.8143   47.5237   -0.7015 C   0  0  0  0  0  0  0  0  0  0  0  0
   -9.8501   47.8952    1.6670 C   0  0  0  0  0  0  0  0  0  0  0  0
   -9.4945   47.1111    0.5779 C   0  0  0  0  0  0  0  0  0  0  0  0
   -9.5231   47.4984    3.0691 C   0  0  0  0  0  0  0  0  0  0  0  0
   -8.1963   47.5417    3.4754 N   0  0  0  0  0  0  0  0  0  0  0  0
  -10.4243   47.1402    3.8116 O   0  0  0  0  0  0  0  0  0  0  0  0
   -7.5000   47.8359    2.8447 H   0  0  0  0  0  0  0  0  0  0  0  0
   -7.8319   47.1559    4.8234 C   0  0  0  0  0  0  0  0  0  0  0  0
   -5.7177   43.4502    4.8377 C   0  0  0  0  0  0  0  0  0  0  0  0
   -5.8924   44.1553    6.0094 C   0  0  0  0  0  0  0  0  0  0  0  0
   -6.2101   43.9597    3.6568 C   0  0  0  0  0  0  0  0  0  0  0  0
   -6.5678   45.3532    5.9985 C   0  0  0  0  0  0  0  0  0  0  0  0
   -6.8941   45.1572    3.6512 C   0  0  0  0  0  0  0  0  0  0  0  0
   -7.0809   45.8618    4.8255 C   0  0  0  0  0  0  0  0  0  0  0  0
   -9.5949   44.6000    0.5407 N   0  0  0  0  0  0  0  0  0  0  0  0
  -11.0213   44.6861    1.0176 C   0  0  0  0  0  0  0  0  0  0  0  0
  -11.5376   44.2673   -1.3705 C   0  0  0  0  0  0  0  0  0  0  0  0
  -12.3400   44.3285   -2.5027 C   0  0  0  0  0  0  0  0  0  0  0  0
  -13.2071   45.4127   -0.0195 C   0  0  0  0  0  0  0  0  0  0  0  0
  -11.9607   44.7940   -0.1500 C   0  0  0  0  0  0  0  0  0  0  0  0
  -13.5658   44.9369   -2.3590 C   0  0  0  0  0  0  0  0  0  0  0  0
  -13.9922   45.4596   -1.1638 C   0  0  0  0  0  0  0  0  0  0  0  0
  -15.5456   45.7764   -2.6674 C   0  0  0  0  0  0  0  0  0  0  0  0
  -14.4828   45.0922   -3.3690 O   0  0  0  0  0  0  0  0  0  0  0  0
  -15.2618   46.0272   -1.2789 O   0  0  0  0  0  0  0  0  0  0  0  0
  -13.6974   45.9729    1.2921 C   0  0  0  0  0  0  0  0  0  0  0  0
  -13.2764   47.1214    1.6045 O   0  0  0  0  0  0  0  0  0  0  0  0
  -14.5219   45.3219    2.0013 O   0  0  0  0  0  0  0  0  0  0  0  0
   -8.8480   43.3610    0.9425 C   0  0  0  0  0  0  0  0  0  0  0  0
   -9.3585   41.3916   -0.4651 C   0  0  0  0  0  0  0  0  0  0  0  0
   -9.5677   42.0870    0.6592 C   0  0  0  0  0  0  0  0  0  0  0  0
 13 14  2  0  0  0
 13 15  1  0  0  0
  2  3  2  0  0  0
  2  4  1  0  0  0
 14 16  1  0  0  0
 15 17  2  0  0  0
  3  5  1  0  0  0
  4  6  2  0  0  0
 16 18  2  0  0  0
 17 18  1  0  0  0
  5  7  2  0  0  0
 21 22  2  0  0  0
 21 24  1  0  0  0
 22 25  1  0  0  0
  6  7  1  0  0  0
  6  8  1  0  0  0
 23 24  2  0  0  0
 23 26  1  0  0  0
 23 30  1  0  0  0
 18 12  1  0  0  0
  7  1  1  0  0  0
 24 20  1  0  0  0
 25 26  2  0  0  0
 25 28  1  0  0  0
 26 29  1  0  0  0
 34 35  2  0  0  0
 35 33  1  0  0  0
  8  9  1  0  0  0
  8 10  2  0  0  0
 30 31  2  0  0  0
 30 32  1  0  0  0
 27 28  1  0  0  0
 27 29  1  0  0  0
 12  9  1  0  0  0
  1 19  1  0  0  0
 20 19  1  0  0  0
 33 19  1  0  0  0
  9 11  1  0  0  0
M  CHG 1  32  -1
M  END
> <minimizedAffinity>
-6.88798

$$$$
3ZSX_N44_A_1215


 35 38  0  0  0  0  0  0  0  0999 V2000
   -8.7512   46.4217    0.2000 C   0  0  0  0  0  0  0  0  0  0  0  0
  -11.8347   44.1974   -1.6932 C   0  0  0  0  0  0  0  0  0  0  0  0
  -11.9820   45.5471   -1.4877 C   0  0  0  0  0  0  0  0  0  0  0  0
  -10.6833   43.5454   -1.2936 C   0  0  0  0  0  0  0  0  0  0  0  0
  -10.9571   46.2408   -0.8681 C   0  0  0  0  0  0  0  0  0  0  0  0
   -9.6543   44.2369   -0.6779 C   0  0  0  0  0  0  0  0  0  0  0  0
   -9.8016   45.6005   -0.4629 C   0  0  0  0  0  0  0  0  0  0  0  0
   -8.4289   43.4961   -0.2539 C   0  0  0  0  0  0  0  0  0  0  0  0
   -8.4461   42.8346    0.9665 N   0  0  0  0  0  0  0  0  0  0  0  0
   -7.4490   43.5004   -0.9830 O   0  0  0  0  0  0  0  0  0  0  0  0
   -9.2568   42.8569    1.5247 H   0  0  0  0  0  0  0  0  0  0  0  0
   -7.2764   42.1117    1.4224 C   0  0  0  0  0  0  0  0  0  0  0  0
   -5.3037   44.1824    4.5883 C   0  0  0  0  0  0  0  0  0  0  0  0
   -6.4549   43.4661    4.8374 C   0  0  0  0  0  0  0  0  0  0  0  0
   -4.8051   44.2451    3.3060 C   0  0  0  0  0  0  0  0  0  0  0  0
   -7.0916   42.8067    3.8123 C   0  0  0  0  0  0  0  0  0  0  0  0
   -5.4418   43.5757    2.2821 C   0  0  0  0  0  0  0  0  0  0  0  0
   -6.5900   42.8475    2.5298 C   0  0  0  0  0  0  0  0  0  0  0  0
   -9.0855   46.8961    1.5683 N   0  0  0  0  0  0  0  0  0  0  0  0
   -9.0041   48.3835    1.7932 C   0  0  0  0  0  0  0  0  0  0  0  0
   -9.7291   49.9131   -0.0178 C   0  0  0  0  0  0  0  0  0  0  0  0
  -10.6760   50.6072   -0.7600 C   0  0  0  0  0  0  0  0  0  0  0  0
  -11.4394   48.9359    1.4120 C   0  0  0  0  0  0  0  0  0  0  0  0
  -10.0996   49.0893    1.0454 C   0  0  0  0  0  0  0  0  0  0  0  0
  -11.9914   50.4441   -0.3905 C   0  0  0  0  0  0  0  0  0  0  0  0
  -12.3676   49.6373    0.6542 C   0  0  0  0  0  0  0  0  0  0  0  0
  -14.1555   50.5365   -0.2231 C   0  0  0  0  0  0  0  0  0  0  0  0
  -13.0560   51.0557   -1.0050 O   0  0  0  0  0  0  0  0  0  0  0  0
  -13.7516   49.6460    0.8330 O   0  0  0  0  0  0  0  0  0  0  0  0
  -11.8692   48.0369    2.5441 C   0  0  0  0  0  0  0  0  0  0  0  0
  -11.8061   48.5276    3.7056 O   0  0  0  0  0  0  0  0  0  0  0  0
  -12.3073   46.8710    2.3085 O   0  0  0  0  0  0  0  0  0  0  0  0
   -8.4390   46.0424    2.6208 C   0  0  0  0  0  0  0  0  0  0  0  0
   -7.8761   46.9241    4.8627 C   0  0  0  0  0  0  0  0  0  0  0  0
   -7.5632   46.7879    3.5685 C   0  0  0  0  0  0  0  0  0  0  0  0
 13 14  2  0  0  0
 13 15  1  0  0  0
  2  3  2  0  0  0
  2  4  1  0  0  0
 14 16  1  0  0  0
 15 17  2  0  0  0
  3  5  1  0  0  0
  4  6  2  0  0  0
 16 18  2  0  0  0
 17 18  1  0  0  0
  5  7  2  0  0  0
 21 22  2  0  0  0
 21 24  1  0  0  0
 22 25  1  0  0  0
  6  7  1  0  0  0
  6  8  1  0  0  0
 23 24  2  0  0  0
 23 26  1  0  0  0
 23 30  1  0  0  0
 18 12  1  0  0  0
  7  1  1  0  0  0
 24 20  1  0  0  0
 25 26  2  0  0  0
 25 28  1  0  0  0
 26 29  1  0  0  0
 34 35  2  0  0  0
 35 33  1  0  0  0
  8  9  1  0  0  0
  8 10  2  0  0  0
 30 31  2  0  0  0
 30 32  1  0  0  0
 27 28  1  0  0  0
 27 29  1  0  0  0
 12  9  1  0  0  0
  1 19  1  0  0  0
 20 19  1  0  0  0
 33 19  1  0  0  0
  9 11  1  0  0  0
M  CHG 1  32  -1
M  END
> <minimizedAffinity>
-6.60733

$$$$
3ZSX_N44_A_1215


 35 38  0  0  0  0  0  0  0  0999 V2000
  -10.3996   45.1477    0.8715 C   0  0  0  0  0  0  0  0  0  0  0  0
  -10.7237   41.5981   -1.4381 C   0  0  0  0  0  0  0  0  0  0  0  0
   -9.8038   41.6803   -0.4219 C   0  0  0  0  0  0  0  0  0  0  0  0
  -11.5587   42.6628   -1.7205 C   0  0  0  0  0  0  0  0  0  0  0  0
   -9.7256   42.8521    0.3106 C   0  0  0  0  0  0  0  0  0  0  0  0
  -11.4865   43.8345   -0.9868 C   0  0  0  0  0  0  0  0  0  0  0  0
  -10.5537   43.9239    0.0376 C   0  0  0  0  0  0  0  0  0  0  0  0
  -12.4005   44.9654   -1.3268 C   0  0  0  0  0  0  0  0  0  0  0  0
  -13.7592   44.8115   -1.0868 N   0  0  0  0  0  0  0  0  0  0  0  0
  -11.9321   45.9838   -1.8117 O   0  0  0  0  0  0  0  0  0  0  0  0
  -14.0959   43.9734   -0.6950 H   0  0  0  0  0  0  0  0  0  0  0  0
  -14.6839   45.8788   -1.4105 C   0  0  0  0  0  0  0  0  0  0  0  0
  -17.0573   44.8871   -4.8143 C   0  0  0  0  0  0  0  0  0  0  0  0
  -17.5682   45.6974   -3.8229 C   0  0  0  0  0  0  0  0  0  0  0  0
  -15.7829   44.3800   -4.6896 C   0  0  0  0  0  0  0  0  0  0  0  0
  -16.8022   46.0079   -2.7238 C   0  0  0  0  0  0  0  0  0  0  0  0
  -15.0148   44.7004   -3.5900 C   0  0  0  0  0  0  0  0  0  0  0  0
  -15.5194   45.5212   -2.5991 C   0  0  0  0  0  0  0  0  0  0  0  0
   -9.0105   45.6620    0.9939 N   0  0  0  0  0  0  0  0  0  0  0  0
   -8.6857   46.3994    2.2668 C   0  0  0  0  0  0  0  0  0  0  0  0
   -7.3874   44.3242    2.6579 C   0  0  0  0  0  0  0  0  0  0  0  0
   -6.5654   43.4888    3.4034 C   0  0  0  0  0  0  0  0  0  0  0  0
   -7.3917   46.0210    4.4030 C   0  0  0  0  0  0  0  0  0  0  0  0
   -7.7915   45.5683    3.1426 C   0  0  0  0  0  0  0  0  0  0  0  0
   -6.1764   43.9485    4.6407 C   0  0  0  0  0  0  0  0  0  0  0  0
   -6.5685   45.1700    5.1283 C   0  0  0  0  0  0  0  0  0  0  0  0
   -5.3017   44.1897    6.6145 C   0  0  0  0  0  0  0  0  0  0  0  0
   -5.3732   43.2564    5.5129 O   0  0  0  0  0  0  0  0  0  0  0  0
   -6.0501   45.4008    6.4033 O   0  0  0  0  0  0  0  0  0  0  0  0
   -7.7977   47.3693    4.9432 C   0  0  0  0  0  0  0  0  0  0  0  0
   -8.8468   47.4003    5.6448 O   0  0  0  0  0  0  0  0  0  0  0  0
   -7.0809   48.3916    4.7250 O   0  0  0  0  0  0  0  0  0  0  0  0
   -8.5532   46.3215   -0.2751 C   0  0  0  0  0  0  0  0  0  0  0  0
   -6.8526   48.0506   -0.7633 C   0  0  0  0  0  0  0  0  0  0  0  0
   -7.1674   46.8673   -0.2228 C   0  0  0  0  0  0  0  0  0  0  0  0
 13 14  2  0  0  0
 13 15  1  0  0  0
  2  3  2  0  0  0
  2  4  1  0  0  0
 14 16  1  0  0  0
 15 17  2  0  0  0
  3  5  1  0  0  0
  4  6  2  0  0  0
 16 18  2  0  0  0
 17 18  1  0  0  0
  5  7  2  0  0  0
 21 22  2  0  0  0
 21 24  1  0  0  0
 22 25  1  0  0  0
  6  7  1  0  0  0
  6  8  1  0  0  0
 23 24  2  0  0  0
 23 26  1  0  0  0
 23 30  1  0  0  0
 18 12  1  0  0  0
  7  1  1  0  0  0
 24 20  1  0  0  0
 25 26  2  0  0  0
 25 28  1  0  0  0
 26 29  1  0  0  0
 34 35  2  0  0  0
 35 33  1  0  0  0
  8  9  1  0  0  0
  8 10  2  0  0  0
 30 31  2  0  0  0
 30 32  1  0  0  0
 27 28  1  0  0  0
 27 29  1  0  0  0
 12  9  1  0  0  0
  1 19  1  0  0  0
 20 19  1  0  0  0
 33 19  1  0  0  0
  9 11  1  0  0  0
M  CHG 1  32  -1
M  END
> <minimizedAffinity>
-6.60249

$$$$
3ZSX_N44_A_1215


 35 38  0  0  0  0  0  0  0  0999 V2000
   -9.2746   45.0069    1.8742 C   0  0  0  0  0  0  0  0  0  0  0  0
   -5.7686   42.7526    2.6901 C   0  0  0  0  0  0  0  0  0  0  0  0
   -6.2561   43.6348    3.6226 C   0  0  0  0  0  0  0  0  0  0  0  0
   -6.4116   42.5813    1.4786 C   0  0  0  0  0  0  0  0  0  0  0  0
   -7.4009   44.3528    3.3236 C   0  0  0  0  0  0  0  0  0  0  0  0
   -7.5595   43.2942    1.1781 C   0  0  0  0  0  0  0  0  0  0  0  0
   -8.0524   44.1915    2.1158 C   0  0  0  0  0  0  0  0  0  0  0  0
   -8.2217   43.0869   -0.1442 C   0  0  0  0  0  0  0  0  0  0  0  0
   -9.4298   42.4036   -0.1781 N   0  0  0  0  0  0  0  0  0  0  0  0
   -7.6815   43.5129   -1.1534 O   0  0  0  0  0  0  0  0  0  0  0  0
   -9.8310   42.0758    0.6591 H   0  0  0  0  0  0  0  0  0  0  0  0
  -10.1025   42.1708   -1.4398 C   0  0  0  0  0  0  0  0  0  0  0  0
  -13.1646   45.0615   -2.1254 C   0  0  0  0  0  0  0  0  0  0  0  0
  -11.8367   45.4205   -2.2171 C   0  0  0  0  0  0  0  0  0  0  0  0
  -13.4985   43.7685   -1.7887 C   0  0  0  0  0  0  0  0  0  0  0  0
  -10.8532   44.4871   -1.9876 C   0  0  0  0  0  0  0  0  0  0  0  0
  -12.5094   42.8333   -1.5673 C   0  0  0  0  0  0  0  0  0  0  0  0
  -11.1771   43.1865   -1.6690 C   0  0  0  0  0  0  0  0  0  0  0  0
   -9.0437   46.4672    1.7216 N   0  0  0  0  0  0  0  0  0  0  0  0
   -8.0327   46.8741    0.6815 C   0  0  0  0  0  0  0  0  0  0  0  0
   -9.9642   48.0348   -0.3516 C   0  0  0  0  0  0  0  0  0  0  0  0
  -10.5553   49.0155   -1.1378 C   0  0  0  0  0  0  0  0  0  0  0  0
   -7.7325   48.8939   -0.8055 C   0  0  0  0  0  0  0  0  0  0  0  0
   -8.5807   47.9742   -0.1827 C   0  0  0  0  0  0  0  0  0  0  0  0
   -9.7088   49.9165   -1.7419 C   0  0  0  0  0  0  0  0  0  0  0  0
   -8.3464   49.8661   -1.5839 C   0  0  0  0  0  0  0  0  0  0  0  0
   -8.8439   51.5424   -2.8942 C   0  0  0  0  0  0  0  0  0  0  0  0
  -10.1158   50.9446   -2.5559 O   0  0  0  0  0  0  0  0  0  0  0  0
   -7.7115   50.8803   -2.3020 O   0  0  0  0  0  0  0  0  0  0  0  0
   -6.2356   48.8633   -0.6245 C   0  0  0  0  0  0  0  0  0  0  0  0
   -5.5699   48.3121   -1.5448 O   0  0  0  0  0  0  0  0  0  0  0  0
   -5.6989   49.4084    0.3862 O   0  0  0  0  0  0  0  0  0  0  0  0
   -8.9161   47.1472    3.0542 C   0  0  0  0  0  0  0  0  0  0  0  0
   -7.7378   49.1632    3.8714 C   0  0  0  0  0  0  0  0  0  0  0  0
   -7.7082   48.0087    3.1947 C   0  0  0  0  0  0  0  0  0  0  0  0
 13 14  2  0  0  0
 13 15  1  0  0  0
  2  3  2  0  0  0
  2  4  1  0  0  0
 14 16  1  0  0  0
 15 17  2  0  0  0
  3  5  1  0  0  0
  4  6  2  0  0  0
 16 18  2  0  0  0
 17 18  1  0  0  0
  5  7  2  0  0  0
 21 22  2  0  0  0
 21 24  1  0  0  0
 22 25  1  0  0  0
  6  7  1  0  0  0
  6  8  1  0  0  0
 23 24  2  0  0  0
 23 26  1  0  0  0
 23 30  1  0  0  0
 18 12  1  0  0  0
  7  1  1  0  0  0
 24 20  1  0  0  0
 25 26  2  0  0  0
 25 28  1  0  0  0
 26 29  1  0  0  0
 34 35  2  0  0  0
 35 33  1  0  0  0
  8  9  1  0  0  0
  8 10  2  0  0  0
 30 31  2  0  0  0
 30 32  1  0  0  0
 27 28  1  0  0  0
 27 29  1  0  0  0
 12  9  1  0  0  0
  1 19  1  0  0  0
 20 19  1  0  0  0
 33 19  1  0  0  0
  9 11  1  0  0  0
M  CHG 1  32  -1
M  END
> <minimizedAffinity>
-6.53825

$$$$
