1GJ6_132_A_246


 32 35  0  0  0  0  0  0  0  0999 V2000
   43.8570   -3.0404   25.6189 C   0  0  0  0  0  0  0  0  0  0  0  0
   43.8377   -1.6158   25.6397 C   0  0  0  0  0  0  0  0  0  0  0  0
   43.6450   -0.9320   26.8560 C   0  0  0  0  0  0  0  0  0  0  0  0
   43.4853   -1.6589   28.0198 C   0  0  0  0  0  0  0  0  0  0  0  0
   43.4965   -3.0112   28.0023 C   0  0  0  0  0  0  0  0  0  0  0  0
   43.6916   -3.7408   26.8313 C   0  0  0  0  0  0  0  0  0  0  0  0
   43.2951   -1.2604   29.2597 N   0  0  0  0  0  0  0  0  0  0  0  0
   43.3175   -3.4332   29.2925 C   0  0  0  0  0  0  0  0  0  0  0  0
   43.1868   -2.2831   30.0573 C   0  0  0  0  0  0  0  0  0  0  0  0
   43.9765   -0.5597   24.2117 Cl  0  0  0  0  0  0  0  0  0  0  0  0
   43.2422   -0.3194   29.5443 H   0  0  0  0  0  0  0  0  0  0  0  0
   42.9456   -2.2077   31.4406 C   0  0  0  0  0  0  0  0  0  0  0  0
   42.5925   -3.3632   32.1466 C   0  0  0  0  0  0  0  0  0  0  0  0
   42.3569   -3.3135   33.5195 C   0  0  0  0  0  0  0  0  0  0  0  0
   42.4118   -2.1154   34.1899 C   0  0  0  0  0  0  0  0  0  0  0  0
   42.7619   -0.9386   33.5332 C   0  0  0  0  0  0  0  0  0  0  0  0
   42.9964   -0.9716   32.1351 C   0  0  0  0  0  0  0  0  0  0  0  0
   43.2803    0.1845   31.4307 O   0  0  0  0  0  0  0  0  0  0  0  0
   43.4327    0.1448   30.5071 H   0  0  0  0  0  0  0  0  0  0  0  0
   42.8806    0.2111   34.3332 C   0  0  0  0  0  0  0  0  0  0  0  0
   44.1468    0.7886   34.4636 C   0  0  0  0  0  0  0  0  0  0  0  0
   44.3500    1.8870   35.2920 C   0  0  0  0  0  0  0  0  0  0  0  0
   43.2967    2.4358   36.0065 C   0  0  0  0  0  0  0  0  0  0  0  0
   42.0299    1.8788   35.8871 C   0  0  0  0  0  0  0  0  0  0  0  0
   41.8201    0.7716   35.0535 C   0  0  0  0  0  0  0  0  0  0  0  0
   44.0655   -3.7582   24.4181 C   0  0  0  0  0  0  0  0  0  0  0  0
   43.3482   -4.8274   24.1290 N   0  0  0  0  0  0  0  0  0  0  0  0
   45.0092   -3.3214   23.6266 N   0  0  0  0  0  0  0  0  0  0  0  0
   42.6444   -5.1299   24.7474 H   0  0  0  0  0  0  0  0  0  0  0  0
   43.5168   -5.3226   23.2950 H   0  0  0  0  0  0  0  0  0  0  0  0
   45.5260   -2.5203   23.8722 H   0  0  0  0  0  0  0  0  0  0  0  0
   45.2034   -3.7935   22.7848 H   0  0  0  0  0  0  0  0  0  0  0  0
  1  2  1  0  0  0
  1  6  2  0  0  0
  1 26  1  0  0  0
  2  3  2  0  0  0
  2 10  1  0  0  0
  3  4  1  0  0  0
  4  5  2  0  0  0
  4  7  1  0  0  0
  5  6  1  0  0  0
  5  8  1  0  0  0
 26 27  1  0  0  0
 26 28  2  0  0  0
  7  9  1  0  0  0
  8  9  2  0  0  0
  9 12  1  0  0  0
 12 13  2  0  0  0
 12 17  1  0  0  0
 13 14  1  0  0  0
 14 15  2  0  0  0
 15 16  1  0  0  0
 16 17  2  0  0  0
 16 20  1  0  0  0
 17 18  1  0  0  0
 20 21  2  0  0  0
 20 25  1  0  0  0
 21 22  1  0  0  0
 22 23  2  0  0  0
 23 24  1  0  0  0
 24 25  2  0  0  0
 27 29  1  0  0  0
 27 30  1  0  0  0
 28 31  1  0  0  0
 28 32  1  0  0  0
  7 11  1  0  0  0
 18 19  1  0  0  0
M  CHG 1  28   1
M  END
> <minimizedAffinity>
-10.01277

$$$$
1GJ6_132_A_246


 32 35  0  0  0  0  0  0  0  0999 V2000
   43.8791   -3.0599   25.7305 C   0  0  0  0  0  0  0  0  0  0  0  0
   43.8175   -1.6372   25.7778 C   0  0  0  0  0  0  0  0  0  0  0  0
   43.5979   -0.9824   27.0055 C   0  0  0  0  0  0  0  0  0  0  0  0
   43.4534   -1.7355   28.1545 C   0  0  0  0  0  0  0  0  0  0  0  0
   43.5047   -3.0863   28.1118 C   0  0  0  0  0  0  0  0  0  0  0  0
   43.7279   -3.7876   26.9286 C   0  0  0  0  0  0  0  0  0  0  0  0
   43.2447   -1.3663   29.4004 N   0  0  0  0  0  0  0  0  0  0  0  0
   43.3312   -3.5377   29.3928 C   0  0  0  0  0  0  0  0  0  0  0  0
   43.1622   -2.4066   30.1781 C   0  0  0  0  0  0  0  0  0  0  0  0
   43.9328   -0.5506   24.3707 Cl  0  0  0  0  0  0  0  0  0  0  0  0
   43.1623   -0.4328   29.7022 H   0  0  0  0  0  0  0  0  0  0  0  0
   42.9113   -2.3644   31.5611 C   0  0  0  0  0  0  0  0  0  0  0  0
   42.4464   -3.5102   32.2164 C   0  0  0  0  0  0  0  0  0  0  0  0
   42.1989   -3.4937   33.5880 C   0  0  0  0  0  0  0  0  0  0  0  0
   42.3530   -2.3330   34.3069 C   0  0  0  0  0  0  0  0  0  0  0  0
   42.8162   -1.1677   33.7017 C   0  0  0  0  0  0  0  0  0  0  0  0
   43.0645   -1.1664   32.3056 C   0  0  0  0  0  0  0  0  0  0  0  0
   43.4604   -0.0139   31.6513 O   0  0  0  0  0  0  0  0  0  0  0  0
   43.6204   -0.0306   30.7282 H   0  0  0  0  0  0  0  0  0  0  0  0
   43.0279   -0.0660   34.5487 C   0  0  0  0  0  0  0  0  0  0  0  0
   41.9113    0.6702   34.9549 C   0  0  0  0  0  0  0  0  0  0  0  0
   42.0528    1.8108   35.7377 C   0  0  0  0  0  0  0  0  0  0  0  0
   43.3087    2.2418   36.1353 C   0  0  0  0  0  0  0  0  0  0  0  0
   44.4305    1.5214   35.7456 C   0  0  0  0  0  0  0  0  0  0  0  0
   44.2930    0.3711   34.9564 C   0  0  0  0  0  0  0  0  0  0  0  0
   44.1154   -3.7485   24.5178 C   0  0  0  0  0  0  0  0  0  0  0  0
   44.9680   -3.2838   23.6242 N   0  0  0  0  0  0  0  0  0  0  0  0
   43.4378   -4.8488   24.3232 N   0  0  0  0  0  0  0  0  0  0  0  0
   45.4627   -2.4514   23.8022 H   0  0  0  0  0  0  0  0  0  0  0  0
   45.1093   -3.7694   22.7796 H   0  0  0  0  0  0  0  0  0  0  0  0
   42.8095   -5.1680   25.0106 H   0  0  0  0  0  0  0  0  0  0  0  0
   43.5556   -5.3585   23.4892 H   0  0  0  0  0  0  0  0  0  0  0  0
  1  2  1  0  0  0
  1  6  2  0  0  0
  1 26  1  0  0  0
  2  3  2  0  0  0
  2 10  1  0  0  0
  3  4  1  0  0  0
  4  5  2  0  0  0
  4  7  1  0  0  0
  5  6  1  0  0  0
  5  8  1  0  0  0
 26 27  1  0  0  0
 26 28  2  0  0  0
  7  9  1  0  0  0
  8  9  2  0  0  0
  9 12  1  0  0  0
 12 13  2  0  0  0
 12 17  1  0  0  0
 13 14  1  0  0  0
 14 15  2  0  0  0
 15 16  1  0  0  0
 16 17  2  0  0  0
 16 20  1  0  0  0
 17 18  1  0  0  0
 20 21  2  0  0  0
 20 25  1  0  0  0
 21 22  1  0  0  0
 22 23  2  0  0  0
 23 24  1  0  0  0
 24 25  2  0  0  0
 27 29  1  0  0  0
 27 30  1  0  0  0
 28 31  1  0  0  0
 28 32  1  0  0  0
  7 11  1  0  0  0
 18 19  1  0  0  0
M  CHG 1  28   1
M  END
> <minimizedAffinity>
-9.93149

$$$$
1GJ6_132_A_246


 32 35  0  0  0  0  0  0  0  0999 V2000
   42.2570    1.4343   35.5933 C   0  0  0  0  0  0  0  0  0  0  0  0
   43.5604    1.8750   35.2231 C   0  0  0  0  0  0  0  0  0  0  0  0
   44.2188    1.2833   34.1274 C   0  0  0  0  0  0  0  0  0  0  0  0
   43.5819    0.2834   33.4183 C   0  0  0  0  0  0  0  0  0  0  0  0
   42.3475   -0.1417   33.7713 C   0  0  0  0  0  0  0  0  0  0  0  0
   41.6448    0.4120   34.8396 C   0  0  0  0  0  0  0  0  0  0  0  0
   43.9789   -0.4128   32.3742 N   0  0  0  0  0  0  0  0  0  0  0  0
   41.9915   -1.1258   32.8885 C   0  0  0  0  0  0  0  0  0  0  0  0
   43.0647   -1.2692   32.0211 C   0  0  0  0  0  0  0  0  0  0  0  0
   44.5150    3.1117   36.0794 Cl  0  0  0  0  0  0  0  0  0  0  0  0
   44.8468   -0.3013   31.9231 H   0  0  0  0  0  0  0  0  0  0  0  0
   43.1837   -2.1892   30.9643 C   0  0  0  0  0  0  0  0  0  0  0  0
   43.1501   -3.5620   31.2335 C   0  0  0  0  0  0  0  0  0  0  0  0
   43.2579   -4.4920   30.2008 C   0  0  0  0  0  0  0  0  0  0  0  0
   43.4574   -4.0726   28.9076 C   0  0  0  0  0  0  0  0  0  0  0  0
   43.4948   -2.7179   28.5880 C   0  0  0  0  0  0  0  0  0  0  0  0
   43.3948   -1.7599   29.6286 C   0  0  0  0  0  0  0  0  0  0  0  0
   43.4948   -0.4058   29.3652 O   0  0  0  0  0  0  0  0  0  0  0  0
   43.4264    0.2139   30.0647 H   0  0  0  0  0  0  0  0  0  0  0  0
   43.6078   -2.4015   27.2230 C   0  0  0  0  0  0  0  0  0  0  0  0
   43.6258   -3.4570   26.3068 C   0  0  0  0  0  0  0  0  0  0  0  0
   43.8021   -3.2213   24.9477 C   0  0  0  0  0  0  0  0  0  0  0  0
   43.9619   -1.9297   24.4709 C   0  0  0  0  0  0  0  0  0  0  0  0
   43.9426   -0.8669   25.3650 C   0  0  0  0  0  0  0  0  0  0  0  0
   43.7653   -1.0994   26.7359 C   0  0  0  0  0  0  0  0  0  0  0  0
   41.5605    2.0185   36.6770 C   0  0  0  0  0  0  0  0  0  0  0  0
   41.8579    1.7099   37.9250 N   0  0  0  0  0  0  0  0  0  0  0  0
   40.6042    2.8578   36.3791 N   0  0  0  0  0  0  0  0  0  0  0  0
   42.5846    1.0735   38.1149 H   0  0  0  0  0  0  0  0  0  0  0  0
   41.3530    2.1160   38.6662 H   0  0  0  0  0  0  0  0  0  0  0  0
   40.4079    3.0663   35.4372 H   0  0  0  0  0  0  0  0  0  0  0  0
   40.0800    3.2816   37.0966 H   0  0  0  0  0  0  0  0  0  0  0  0
  1  2  1  0  0  0
  1  6  2  0  0  0
  1 26  1  0  0  0
  2  3  2  0  0  0
  2 10  1  0  0  0
  3  4  1  0  0  0
  4  5  2  0  0  0
  4  7  1  0  0  0
  5  6  1  0  0  0
  5  8  1  0  0  0
 26 27  1  0  0  0
 26 28  2  0  0  0
  7  9  1  0  0  0
  8  9  2  0  0  0
  9 12  1  0  0  0
 12 13  2  0  0  0
 12 17  1  0  0  0
 13 14  1  0  0  0
 14 15  2  0  0  0
 15 16  1  0  0  0
 16 17  2  0  0  0
 16 20  1  0  0  0
 17 18  1  0  0  0
 20 21  2  0  0  0
 20 25  1  0  0  0
 21 22  1  0  0  0
 22 23  2  0  0  0
 23 24  1  0  0  0
 24 25  2  0  0  0
 27 29  1  0  0  0
 27 30  1  0  0  0
 28 31  1  0  0  0
 28 32  1  0  0  0
  7 11  1  0  0  0
 18 19  1  0  0  0
M  CHG 1  28   1
M  END
> <minimizedAffinity>
-8.84671

$$$$
1GJ6_132_A_246


 32 35  0  0  0  0  0  0  0  0999 V2000
   43.9234   -2.9467   25.6845 C   0  0  0  0  0  0  0  0  0  0  0  0
   43.8295   -1.5263   25.6247 C   0  0  0  0  0  0  0  0  0  0  0  0
   43.6157   -0.7845   26.8029 C   0  0  0  0  0  0  0  0  0  0  0  0
   43.5084   -1.4506   28.0084 C   0  0  0  0  0  0  0  0  0  0  0  0
   43.5903   -2.7993   28.0676 C   0  0  0  0  0  0  0  0  0  0  0  0
   43.8095   -3.5839   26.9371 C   0  0  0  0  0  0  0  0  0  0  0  0
   43.3123   -0.9918   29.2263 N   0  0  0  0  0  0  0  0  0  0  0  0
   43.4492   -3.1551   29.3822 C   0  0  0  0  0  0  0  0  0  0  0  0
   43.2674   -1.9712   30.0822 C   0  0  0  0  0  0  0  0  0  0  0  0
   43.8956   -0.5482   24.1371 Cl  0  0  0  0  0  0  0  0  0  0  0  0
   43.2135   -0.0400   29.4578 H   0  0  0  0  0  0  0  0  0  0  0  0
   43.0392   -1.8289   31.4625 C   0  0  0  0  0  0  0  0  0  0  0  0
   43.5477   -0.7135   32.1376 C   0  0  0  0  0  0  0  0  0  0  0  0
   43.3268   -0.5476   33.5038 C   0  0  0  0  0  0  0  0  0  0  0  0
   42.6545   -1.5086   34.2196 C   0  0  0  0  0  0  0  0  0  0  0  0
   42.1264   -2.6346   33.5934 C   0  0  0  0  0  0  0  0  0  0  0  0
   42.3499   -2.8215   32.2057 C   0  0  0  0  0  0  0  0  0  0  0  0
   41.9021   -3.9579   31.5566 O   0  0  0  0  0  0  0  0  0  0  0  0
   42.0583   -4.0655   30.6390 H   0  0  0  0  0  0  0  0  0  0  0  0
   41.3757   -3.5046   34.4030 C   0  0  0  0  0  0  0  0  0  0  0  0
   39.9936   -3.3062   34.4694 C   0  0  0  0  0  0  0  0  0  0  0  0
   39.1983   -4.0864   35.3015 C   0  0  0  0  0  0  0  0  0  0  0  0
   39.7610   -5.0826   36.0838 C   0  0  0  0  0  0  0  0  0  0  0  0
   41.1321   -5.2983   36.0288 C   0  0  0  0  0  0  0  0  0  0  0  0
   41.9380   -4.5143   35.1916 C   0  0  0  0  0  0  0  0  0  0  0  0
   44.1549   -3.7207   24.5235 C   0  0  0  0  0  0  0  0  0  0  0  0
   45.0050   -3.3223   23.5962 N   0  0  0  0  0  0  0  0  0  0  0  0
   43.4755   -4.8312   24.4103 N   0  0  0  0  0  0  0  0  0  0  0  0
   45.5012   -2.4800   23.7126 H   0  0  0  0  0  0  0  0  0  0  0  0
   45.1430   -3.8673   22.7880 H   0  0  0  0  0  0  0  0  0  0  0  0
   42.8491   -5.0996   25.1208 H   0  0  0  0  0  0  0  0  0  0  0  0
   43.5900   -5.3995   23.6146 H   0  0  0  0  0  0  0  0  0  0  0  0
  1  2  1  0  0  0
  1  6  2  0  0  0
  1 26  1  0  0  0
  2  3  2  0  0  0
  2 10  1  0  0  0
  3  4  1  0  0  0
  4  5  2  0  0  0
  4  7  1  0  0  0
  5  6  1  0  0  0
  5  8  1  0  0  0
 26 27  1  0  0  0
 26 28  2  0  0  0
  7  9  1  0  0  0
  8  9  2  0  0  0
  9 12  1  0  0  0
 12 13  2  0  0  0
 12 17  1  0  0  0
 13 14  1  0  0  0
 14 15  2  0  0  0
 15 16  1  0  0  0
 16 17  2  0  0  0
 16 20  1  0  0  0
 17 18  1  0  0  0
 20 21  2  0  0  0
 20 25  1  0  0  0
 21 22  1  0  0  0
 22 23  2  0  0  0
 23 24  1  0  0  0
 24 25  2  0  0  0
 27 29  1  0  0  0
 27 30  1  0  0  0
 28 31  1  0  0  0
 28 32  1  0  0  0
  7 11  1  0  0  0
 18 19  1  0  0  0
M  CHG 1  28   1
M  END
> <minimizedAffinity>
-8.19587

$$$$
1GJ6_132_A_246


 32 35  0  0  0  0  0  0  0  0999 V2000
   43.7850   -2.7683   26.8644 C   0  0  0  0  0  0  0  0  0  0  0  0
   43.7803   -1.3438   26.8940 C   0  0  0  0  0  0  0  0  0  0  0  0
   43.5744   -0.6656   28.1113 C   0  0  0  0  0  0  0  0  0  0  0  0
   43.3877   -1.3980   29.2676 C   0  0  0  0  0  0  0  0  0  0  0  0
   43.3850   -2.7502   29.2416 C   0  0  0  0  0  0  0  0  0  0  0  0
   43.5920   -3.4745   28.0694 C   0  0  0  0  0  0  0  0  0  0  0  0
   43.1810   -1.0053   30.5067 N   0  0  0  0  0  0  0  0  0  0  0  0
   43.1800   -3.1784   30.5259 C   0  0  0  0  0  0  0  0  0  0  0  0
   43.0486   -2.0318   31.2957 C   0  0  0  0  0  0  0  0  0  0  0  0
   43.9539   -0.2803   25.4753 Cl  0  0  0  0  0  0  0  0  0  0  0  0
   43.1332   -0.0656   30.7964 H   0  0  0  0  0  0  0  0  0  0  0  0
   42.7852   -1.9624   32.6753 C   0  0  0  0  0  0  0  0  0  0  0  0
   42.1479   -3.0322   33.3139 C   0  0  0  0  0  0  0  0  0  0  0  0
   41.8842   -2.9888   34.6819 C   0  0  0  0  0  0  0  0  0  0  0  0
   42.1950   -1.8677   35.4130 C   0  0  0  0  0  0  0  0  0  0  0  0
   42.8326   -0.7787   34.8247 C   0  0  0  0  0  0  0  0  0  0  0  0
   43.1000   -0.8045   33.4324 C   0  0  0  0  0  0  0  0  0  0  0  0
   43.6701    0.2820   32.7939 O   0  0  0  0  0  0  0  0  0  0  0  0
   43.8401    0.2481   31.8731 H   0  0  0  0  0  0  0  0  0  0  0  0
   43.1898    0.2747   35.6843 C   0  0  0  0  0  0  0  0  0  0  0  0
   42.1913    0.8261   36.4922 C   0  0  0  0  0  0  0  0  0  0  0  0
   42.4579    1.9135   37.3169 C   0  0  0  0  0  0  0  0  0  0  0  0
   43.7249    2.4742   37.3571 C   0  0  0  0  0  0  0  0  0  0  0  0
   44.7319    1.9378   36.5649 C   0  0  0  0  0  0  0  0  0  0  0  0
   44.4680    0.8417   35.7318 C   0  0  0  0  0  0  0  0  0  0  0  0
   44.0060   -3.4808   25.6626 C   0  0  0  0  0  0  0  0  0  0  0  0
   43.5503   -3.0308   24.5090 N   0  0  0  0  0  0  0  0  0  0  0  0
   44.6632   -4.6064   25.7572 N   0  0  0  0  0  0  0  0  0  0  0  0
   43.0588   -2.1785   24.4725 H   0  0  0  0  0  0  0  0  0  0  0  0
   43.7017   -3.5473   23.6846 H   0  0  0  0  0  0  0  0  0  0  0  0
   44.9897   -4.9136   26.6337 H   0  0  0  0  0  0  0  0  0  0  0  0
   44.8318   -5.1471   24.9520 H   0  0  0  0  0  0  0  0  0  0  0  0
  1  2  1  0  0  0
  1  6  2  0  0  0
  1 26  1  0  0  0
  2  3  2  0  0  0
  2 10  1  0  0  0
  3  4  1  0  0  0
  4  5  2  0  0  0
  4  7  1  0  0  0
  5  6  1  0  0  0
  5  8  1  0  0  0
 26 27  1  0  0  0
 26 28  2  0  0  0
  7  9  1  0  0  0
  8  9  2  0  0  0
  9 12  1  0  0  0
 12 13  2  0  0  0
 12 17  1  0  0  0
 13 14  1  0  0  0
 14 15  2  0  0  0
 15 16  1  0  0  0
 16 17  2  0  0  0
 16 20  1  0  0  0
 17 18  1  0  0  0
 20 21  2  0  0  0
 20 25  1  0  0  0
 21 22  1  0  0  0
 22 23  2  0  0  0
 23 24  1  0  0  0
 24 25  2  0  0  0
 27 29  1  0  0  0
 27 30  1  0  0  0
 28 31  1  0  0  0
 28 32  1  0  0  0
  7 11  1  0  0  0
 18 19  1  0  0  0
M  CHG 1  28   1
M  END
> <minimizedAffinity>
-7.96905

$$$$
1GJ6_132_A_246


 32 35  0  0  0  0  0  0  0  0999 V2000
   41.7943    2.5181   36.8189 C   0  0  0  0  0  0  0  0  0  0  0  0
   43.0526    2.9645   36.3213 C   0  0  0  0  0  0  0  0  0  0  0  0
   43.6938    2.2531   35.2885 C   0  0  0  0  0  0  0  0  0  0  0  0
   43.0837    1.1300   34.7642 C   0  0  0  0  0  0  0  0  0  0  0  0
   41.8926    0.7000   35.2389 C   0  0  0  0  0  0  0  0  0  0  0  0
   41.2081    1.3677   36.2524 C   0  0  0  0  0  0  0  0  0  0  0  0
   43.4724    0.3098   33.8111 N   0  0  0  0  0  0  0  0  0  0  0  0
   41.5539   -0.4189   34.5259 C   0  0  0  0  0  0  0  0  0  0  0  0
   42.5935   -0.6334   33.6327 C   0  0  0  0  0  0  0  0  0  0  0  0
   43.9727    4.3589   36.9404 Cl  0  0  0  0  0  0  0  0  0  0  0  0
   44.3114    0.3975   33.3035 H   0  0  0  0  0  0  0  0  0  0  0  0
   42.7172   -1.6904   32.7136 C   0  0  0  0  0  0  0  0  0  0  0  0
   42.5175   -3.0078   33.1416 C   0  0  0  0  0  0  0  0  0  0  0  0
   42.6268   -4.0706   32.2463 C   0  0  0  0  0  0  0  0  0  0  0  0
   42.9899   -3.8433   30.9408 C   0  0  0  0  0  0  0  0  0  0  0  0
   43.1963   -2.5508   30.4657 C   0  0  0  0  0  0  0  0  0  0  0  0
   43.0969   -1.4601   31.3662 C   0  0  0  0  0  0  0  0  0  0  0  0
   43.3598   -0.1664   30.9534 O   0  0  0  0  0  0  0  0  0  0  0  0
   43.2893    0.5430   31.5616 H   0  0  0  0  0  0  0  0  0  0  0  0
   43.4700   -2.4268   29.0925 C   0  0  0  0  0  0  0  0  0  0  0  0
   43.0284   -3.4456   28.2435 C   0  0  0  0  0  0  0  0  0  0  0  0
   43.3220   -3.4215   26.8844 C   0  0  0  0  0  0  0  0  0  0  0  0
   44.0594   -2.3815   26.3406 C   0  0  0  0  0  0  0  0  0  0  0  0
   44.5036   -1.3573   27.1670 C   0  0  0  0  0  0  0  0  0  0  0  0
   44.2104   -1.3773   28.5377 C   0  0  0  0  0  0  0  0  0  0  0  0
   41.1150    3.2185   37.8430 C   0  0  0  0  0  0  0  0  0  0  0  0
   40.4176    4.3069   37.5783 N   0  0  0  0  0  0  0  0  0  0  0  0
   41.2286    2.7454   39.0558 N   0  0  0  0  0  0  0  0  0  0  0  0
   40.3522    4.6368   36.6530 H   0  0  0  0  0  0  0  0  0  0  0  0
   39.9627    4.7892   38.3061 H   0  0  0  0  0  0  0  0  0  0  0  0
   41.7567    1.9307   39.2189 H   0  0  0  0  0  0  0  0  0  0  0  0
   40.7862    3.2037   39.8064 H   0  0  0  0  0  0  0  0  0  0  0  0
  1  2  1  0  0  0
  1  6  2  0  0  0
  1 26  1  0  0  0
  2  3  2  0  0  0
  2 10  1  0  0  0
  3  4  1  0  0  0
  4  5  2  0  0  0
  4  7  1  0  0  0
  5  6  1  0  0  0
  5  8  1  0  0  0
 26 27  1  0  0  0
 26 28  2  0  0  0
  7  9  1  0  0  0
  8  9  2  0  0  0
  9 12  1  0  0  0
 12 13  2  0  0  0
 12 17  1  0  0  0
 13 14  1  0  0  0
 14 15  2  0  0  0
 15 16  1  0  0  0
 16 17  2  0  0  0
 16 20  1  0  0  0
 17 18  1  0  0  0
 20 21  2  0  0  0
 20 25  1  0  0  0
 21 22  1  0  0  0
 22 23  2  0  0  0
 23 24  1  0  0  0
 24 25  2  0  0  0
 27 29  1  0  0  0
 27 30  1  0  0  0
 28 31  1  0  0  0
 28 32  1  0  0  0
  7 11  1  0  0  0
 18 19  1  0  0  0
M  CHG 1  28   1
M  END
> <minimizedAffinity>
-7.91020

$$$$
1GJ6_132_A_246


 32 35  0  0  0  0  0  0  0  0999 V2000
   43.6741   -1.8832   27.0150 C   0  0  0  0  0  0  0  0  0  0  0  0
   43.1916   -3.1579   27.4303 C   0  0  0  0  0  0  0  0  0  0  0  0
   42.7168   -3.3371   28.7442 C   0  0  0  0  0  0  0  0  0  0  0  0
   42.7184   -2.2635   29.6136 C   0  0  0  0  0  0  0  0  0  0  0  0
   43.1819   -1.0541   29.2245 C   0  0  0  0  0  0  0  0  0  0  0  0
   43.6552   -0.8156   27.9358 C   0  0  0  0  0  0  0  0  0  0  0  0
   42.3321   -2.1769   30.8689 N   0  0  0  0  0  0  0  0  0  0  0  0
   43.0527   -0.2089   30.2940 C   0  0  0  0  0  0  0  0  0  0  0  0
   42.5136   -0.9701   31.3210 C   0  0  0  0  0  0  0  0  0  0  0  0
   43.1830   -4.6343   26.4332 Cl  0  0  0  0  0  0  0  0  0  0  0  0
   41.9579   -2.9216   31.3930 H   0  0  0  0  0  0  0  0  0  0  0  0
   42.2357   -0.5480   32.6332 C   0  0  0  0  0  0  0  0  0  0  0  0
   40.9217   -0.5946   33.1126 C   0  0  0  0  0  0  0  0  0  0  0  0
   40.6242   -0.1891   34.4126 C   0  0  0  0  0  0  0  0  0  0  0  0
   41.6104    0.3178   35.2239 C   0  0  0  0  0  0  0  0  0  0  0  0
   42.9334    0.3818   34.7947 C   0  0  0  0  0  0  0  0  0  0  0  0
   43.2504   -0.0193   33.4720 C   0  0  0  0  0  0  0  0  0  0  0  0
   44.5390    0.0908   32.9814 O   0  0  0  0  0  0  0  0  0  0  0  0
   44.7312   -0.1790   32.1049 H   0  0  0  0  0  0  0  0  0  0  0  0
   43.8750    0.8277   35.7384 C   0  0  0  0  0  0  0  0  0  0  0  0
   44.1986    2.1875   35.7464 C   0  0  0  0  0  0  0  0  0  0  0  0
   45.1702    2.6863   36.6073 C   0  0  0  0  0  0  0  0  0  0  0  0
   45.8389    1.8428   37.4805 C   0  0  0  0  0  0  0  0  0  0  0  0
   45.5285    0.4889   37.4907 C   0  0  0  0  0  0  0  0  0  0  0  0
   44.5500   -0.0186   36.6248 C   0  0  0  0  0  0  0  0  0  0  0  0
   44.1416   -1.6641   25.6981 C   0  0  0  0  0  0  0  0  0  0  0  0
   45.0651   -2.4406   25.1640 N   0  0  0  0  0  0  0  0  0  0  0  0
   43.6286   -0.6509   25.0516 N   0  0  0  0  0  0  0  0  0  0  0  0
   45.4309   -3.1960   25.6785 H   0  0  0  0  0  0  0  0  0  0  0  0
   45.3885   -2.2645   24.2509 H   0  0  0  0  0  0  0  0  0  0  0  0
   42.9409   -0.0912   25.4794 H   0  0  0  0  0  0  0  0  0  0  0  0
   43.9299   -0.4473   24.1367 H   0  0  0  0  0  0  0  0  0  0  0  0
  1  2  1  0  0  0
  1  6  2  0  0  0
  1 26  1  0  0  0
  2  3  2  0  0  0
  2 10  1  0  0  0
  3  4  1  0  0  0
  4  5  2  0  0  0
  4  7  1  0  0  0
  5  6  1  0  0  0
  5  8  1  0  0  0
 26 27  1  0  0  0
 26 28  2  0  0  0
  7  9  1  0  0  0
  8  9  2  0  0  0
  9 12  1  0  0  0
 12 13  2  0  0  0
 12 17  1  0  0  0
 13 14  1  0  0  0
 14 15  2  0  0  0
 15 16  1  0  0  0
 16 17  2  0  0  0
 16 20  1  0  0  0
 17 18  1  0  0  0
 20 21  2  0  0  0
 20 25  1  0  0  0
 21 22  1  0  0  0
 22 23  2  0  0  0
 23 24  1  0  0  0
 24 25  2  0  0  0
 27 29  1  0  0  0
 27 30  1  0  0  0
 28 31  1  0  0  0
 28 32  1  0  0  0
  7 11  1  0  0  0
 18 19  1  0  0  0
M  CHG 1  28   1
M  END
> <minimizedAffinity>
-7.49345

$$$$
1GJ6_132_A_246


 32 35  0  0  0  0  0  0  0  0999 V2000
   43.3090    2.0469   35.6647 C   0  0  0  0  0  0  0  0  0  0  0  0
   41.9631    1.6363   35.8885 C   0  0  0  0  0  0  0  0  0  0  0  0
   41.4046    0.6014   35.1131 C   0  0  0  0  0  0  0  0  0  0  0  0
   42.1795   -0.0097   34.1464 C   0  0  0  0  0  0  0  0  0  0  0  0
   43.4552    0.3823   33.9271 C   0  0  0  0  0  0  0  0  0  0  0  0
   44.0630    1.3936   34.6684 C   0  0  0  0  0  0  0  0  0  0  0  0
   41.8934   -0.9833   33.3081 N   0  0  0  0  0  0  0  0  0  0  0  0
   43.9518   -0.4033   32.9216 C   0  0  0  0  0  0  0  0  0  0  0  0
   42.9191   -1.2534   32.5538 C   0  0  0  0  0  0  0  0  0  0  0  0
   40.8398    2.3713   37.0597 Cl  0  0  0  0  0  0  0  0  0  0  0  0
   41.0244   -1.4432   33.2585 H   0  0  0  0  0  0  0  0  0  0  0  0
   42.9387   -2.2184   31.5312 C   0  0  0  0  0  0  0  0  0  0  0  0
   42.6317   -3.5508   31.8296 C   0  0  0  0  0  0  0  0  0  0  0  0
   42.6369   -4.5226   30.8303 C   0  0  0  0  0  0  0  0  0  0  0  0
   43.0010   -4.1956   29.5464 C   0  0  0  0  0  0  0  0  0  0  0  0
   43.3119   -2.8837   29.1985 C   0  0  0  0  0  0  0  0  0  0  0  0
   43.3191   -1.8855   30.2056 C   0  0  0  0  0  0  0  0  0  0  0  0
   43.6873   -0.5835   29.9185 O   0  0  0  0  0  0  0  0  0  0  0  0
   43.6865    0.0638   30.5959 H   0  0  0  0  0  0  0  0  0  0  0  0
   43.5772   -2.6446   27.8390 C   0  0  0  0  0  0  0  0  0  0  0  0
   43.6910   -1.3163   27.4190 C   0  0  0  0  0  0  0  0  0  0  0  0
   43.8860   -1.0044   26.0780 C   0  0  0  0  0  0  0  0  0  0  0  0
   43.9745   -2.0081   25.1261 C   0  0  0  0  0  0  0  0  0  0  0  0
   43.8683   -3.3346   25.5240 C   0  0  0  0  0  0  0  0  0  0  0  0
   43.6714   -3.6541   26.8747 C   0  0  0  0  0  0  0  0  0  0  0  0
   43.9064    3.0706   36.4367 C   0  0  0  0  0  0  0  0  0  0  0  0
   43.6964    4.3438   36.1610 N   0  0  0  0  0  0  0  0  0  0  0  0
   44.6842    2.6923   37.4163 N   0  0  0  0  0  0  0  0  0  0  0  0
   43.1043    4.5949   35.4156 H   0  0  0  0  0  0  0  0  0  0  0  0
   44.1317    5.0427   36.7007 H   0  0  0  0  0  0  0  0  0  0  0  0
   44.8195    1.7337   37.5953 H   0  0  0  0  0  0  0  0  0  0  0  0
   45.1348    3.3658   37.9754 H   0  0  0  0  0  0  0  0  0  0  0  0
  1  2  1  0  0  0
  1  6  2  0  0  0
  1 26  1  0  0  0
  2  3  2  0  0  0
  2 10  1  0  0  0
  3  4  1  0  0  0
  4  5  2  0  0  0
  4  7  1  0  0  0
  5  6  1  0  0  0
  5  8  1  0  0  0
 26 27  1  0  0  0
 26 28  2  0  0  0
  7  9  1  0  0  0
  8  9  2  0  0  0
  9 12  1  0  0  0
 12 13  2  0  0  0
 12 17  1  0  0  0
 13 14  1  0  0  0
 14 15  2  0  0  0
 15 16  1  0  0  0
 16 17  2  0  0  0
 16 20  1  0  0  0
 17 18  1  0  0  0
 20 21  2  0  0  0
 20 25  1  0  0  0
 21 22  1  0  0  0
 22 23  2  0  0  0
 23 24  1  0  0  0
 24 25  2  0  0  0
 27 29  1  0  0  0
 27 30  1  0  0  0
 28 31  1  0  0  0
 28 32  1  0  0  0
  7 11  1  0  0  0
 18 19  1  0  0  0
M  CHG 1  28   1
M  END
> <minimizedAffinity>
-7.44594

$$$$
1GJ6_132_A_246


 32 35  0  0  0  0  0  0  0  0999 V2000
   42.9980   -3.8026   30.0347 C   0  0  0  0  0  0  0  0  0  0  0  0
   43.5783   -2.6574   29.4168 C   0  0  0  0  0  0  0  0  0  0  0  0
   43.6752   -1.4461   30.1291 C   0  0  0  0  0  0  0  0  0  0  0  0
   43.2103   -1.3896   31.4288 C   0  0  0  0  0  0  0  0  0  0  0  0
   42.6529   -2.4730   32.0159 C   0  0  0  0  0  0  0  0  0  0  0  0
   42.5384   -3.6991   31.3637 C   0  0  0  0  0  0  0  0  0  0  0  0
   43.1894   -0.3935   32.2888 N   0  0  0  0  0  0  0  0  0  0  0  0
   42.2969   -2.1057   33.2860 C   0  0  0  0  0  0  0  0  0  0  0  0
   42.6515   -0.7705   33.4123 C   0  0  0  0  0  0  0  0  0  0  0  0
   44.1658   -2.5761   27.7368 Cl  0  0  0  0  0  0  0  0  0  0  0  0
   43.5329    0.5112   32.1073 H   0  0  0  0  0  0  0  0  0  0  0  0
   42.4470    0.0590   34.5292 C   0  0  0  0  0  0  0  0  0  0  0  0
   41.1787    0.6007   34.7672 C   0  0  0  0  0  0  0  0  0  0  0  0
   40.9509    1.4188   35.8725 C   0  0  0  0  0  0  0  0  0  0  0  0
   41.9849    1.7523   36.7136 C   0  0  0  0  0  0  0  0  0  0  0  0
   43.2639    1.2367   36.5215 C   0  0  0  0  0  0  0  0  0  0  0  0
   43.5133    0.4097   35.3969 C   0  0  0  0  0  0  0  0  0  0  0  0
   44.7831   -0.0692   35.1297 O   0  0  0  0  0  0  0  0  0  0  0  0
   44.9304   -0.6146   34.3821 H   0  0  0  0  0  0  0  0  0  0  0  0
   44.2227    1.5665   37.4951 C   0  0  0  0  0  0  0  0  0  0  0  0
   44.8272    0.5203   38.1978 C   0  0  0  0  0  0  0  0  0  0  0  0
   45.7344    0.7758   39.2203 C   0  0  0  0  0  0  0  0  0  0  0  0
   46.0615    2.0782   39.5637 C   0  0  0  0  0  0  0  0  0  0  0  0
   45.4748    3.1317   38.8743 C   0  0  0  0  0  0  0  0  0  0  0  0
   44.5596    2.8792   37.8430 C   0  0  0  0  0  0  0  0  0  0  0  0
   42.9009   -5.0389   29.3544 C   0  0  0  0  0  0  0  0  0  0  0  0
   42.3396   -5.1197   28.1629 N   0  0  0  0  0  0  0  0  0  0  0  0
   43.3756   -6.0892   29.9701 N   0  0  0  0  0  0  0  0  0  0  0  0
   41.9919   -4.3086   27.7265 H   0  0  0  0  0  0  0  0  0  0  0  0
   42.2684   -5.9912   27.7104 H   0  0  0  0  0  0  0  0  0  0  0  0
   43.7884   -5.9941   30.8588 H   0  0  0  0  0  0  0  0  0  0  0  0
   43.3204   -6.9757   29.5453 H   0  0  0  0  0  0  0  0  0  0  0  0
  1  2  1  0  0  0
  1  6  2  0  0  0
  1 26  1  0  0  0
  2  3  2  0  0  0
  2 10  1  0  0  0
  3  4  1  0  0  0
  4  5  2  0  0  0
  4  7  1  0  0  0
  5  6  1  0  0  0
  5  8  1  0  0  0
 26 27  1  0  0  0
 26 28  2  0  0  0
  7  9  1  0  0  0
  8  9  2  0  0  0
  9 12  1  0  0  0
 12 13  2  0  0  0
 12 17  1  0  0  0
 13 14  1  0  0  0
 14 15  2  0  0  0
 15 16  1  0  0  0
 16 17  2  0  0  0
 16 20  1  0  0  0
 17 18  1  0  0  0
 20 21  2  0  0  0
 20 25  1  0  0  0
 21 22  1  0  0  0
 22 23  2  0  0  0
 23 24  1  0  0  0
 24 25  2  0  0  0
 27 29  1  0  0  0
 27 30  1  0  0  0
 28 31  1  0  0  0
 28 32  1  0  0  0
  7 11  1  0  0  0
 18 19  1  0  0  0
M  CHG 1  28   1
M  END
> <minimizedAffinity>
-7.18036

$$$$
1GJ6_132_A_246


 32 35  0  0  0  0  0  0  0  0999 V2000
   43.9496   -3.0229   26.3811 C   0  0  0  0  0  0  0  0  0  0  0  0
   44.5355   -1.8305   26.8960 C   0  0  0  0  0  0  0  0  0  0  0  0
   44.0590   -1.2747   28.0994 C   0  0  0  0  0  0  0  0  0  0  0  0
   43.0289   -1.9042   28.7710 C   0  0  0  0  0  0  0  0  0  0  0  0
   42.4662   -3.0323   28.2815 C   0  0  0  0  0  0  0  0  0  0  0  0
   42.9016   -3.6319   27.1014 C   0  0  0  0  0  0  0  0  0  0  0  0
   42.4198   -1.5891   29.8944 N   0  0  0  0  0  0  0  0  0  0  0  0
   41.4875   -3.4101   29.1613 C   0  0  0  0  0  0  0  0  0  0  0  0
   41.4897   -2.4569   30.1693 C   0  0  0  0  0  0  0  0  0  0  0  0
   45.8274   -0.8904   26.1079 Cl  0  0  0  0  0  0  0  0  0  0  0  0
   42.6374   -0.8058   30.4496 H   0  0  0  0  0  0  0  0  0  0  0  0
   40.6302   -2.3963   31.2807 C   0  0  0  0  0  0  0  0  0  0  0  0
   39.9304   -3.5409   31.6788 C   0  0  0  0  0  0  0  0  0  0  0  0
   39.0795   -3.5062   32.7823 C   0  0  0  0  0  0  0  0  0  0  0  0
   38.8711   -2.3298   33.4609 C   0  0  0  0  0  0  0  0  0  0  0  0
   39.5461   -1.1648   33.1059 C   0  0  0  0  0  0  0  0  0  0  0  0
   40.4087   -1.1823   31.9806 C   0  0  0  0  0  0  0  0  0  0  0  0
   41.0469   -0.0325   31.5515 O   0  0  0  0  0  0  0  0  0  0  0  0
   41.6137   -0.0617   30.8060 H   0  0  0  0  0  0  0  0  0  0  0  0
   39.3307   -0.0439   33.9263 C   0  0  0  0  0  0  0  0  0  0  0  0
   38.2008    0.7404   33.6777 C   0  0  0  0  0  0  0  0  0  0  0  0
   37.9611    1.9004   34.4062 C   0  0  0  0  0  0  0  0  0  0  0  0
   38.8396    2.3036   35.3996 C   0  0  0  0  0  0  0  0  0  0  0  0
   39.9660    1.5353   35.6647 C   0  0  0  0  0  0  0  0  0  0  0  0
   40.2121    0.3652   34.9330 C   0  0  0  0  0  0  0  0  0  0  0  0
   44.4152   -3.6172   25.1850 C   0  0  0  0  0  0  0  0  0  0  0  0
   44.6209   -2.8954   24.0996 N   0  0  0  0  0  0  0  0  0  0  0  0
   44.6116   -4.9089   25.2063 N   0  0  0  0  0  0  0  0  0  0  0  0
   44.4632   -1.9238   24.1174 H   0  0  0  0  0  0  0  0  0  0  0  0
   44.9319   -3.3285   23.2721 H   0  0  0  0  0  0  0  0  0  0  0  0
   44.4485   -5.4180   26.0331 H   0  0  0  0  0  0  0  0  0  0  0  0
   44.9225   -5.3731   24.3957 H   0  0  0  0  0  0  0  0  0  0  0  0
  1  2  1  0  0  0
  1  6  2  0  0  0
  1 26  1  0  0  0
  2  3  2  0  0  0
  2 10  1  0  0  0
  3  4  1  0  0  0
  4  5  2  0  0  0
  4  7  1  0  0  0
  5  6  1  0  0  0
  5  8  1  0  0  0
 26 27  1  0  0  0
 26 28  2  0  0  0
  7  9  1  0  0  0
  8  9  2  0  0  0
  9 12  1  0  0  0
 12 13  2  0  0  0
 12 17  1  0  0  0
 13 14  1  0  0  0
 14 15  2  0  0  0
 15 16  1  0  0  0
 16 17  2  0  0  0
 16 20  1  0  0  0
 17 18  1  0  0  0
 20 21  2  0  0  0
 20 25  1  0  0  0
 21 22  1  0  0  0
 22 23  2  0  0  0
 23 24  1  0  0  0
 24 25  2  0  0  0
 27 29  1  0  0  0
 27 30  1  0  0  0
 28 31  1  0  0  0
 28 32  1  0  0  0
  7 11  1  0  0  0
 18 19  1  0  0  0
M  CHG 1  28   1
M  END
> <minimizedAffinity>
-7.15775

$$$$
