1KEL_AAH_H_219
  RCSB PDB12061703043D
Coordinates from PDB:1KEL:H:219 Model:1 without hydrogens
 23 23  0  0  0  0            999 V2000
  -23.4170   36.2400   17.2300   C 0  0  0  0  0  0  0  0  0  0  0  0
  -23.5630   37.6280   17.1240   C 0  0  0  0  0  0  0  0  0  0  0  0
  -22.6270   38.3670   16.3520   C 0  0  0  0  0  0  0  0  0  0  0  0
  -21.5130   37.7280   15.8430   C 0  0  0  0  0  0  0  0  0  0  0  0
  -21.2980   36.3540   16.0730   C 0  0  0  0  0  0  0  0  0  0  0  0
  -22.2450   35.6210   16.7750   C 0  0  0  0  0  0  0  0  0  0  0  0
  -22.0310   34.1620   17.0390   N 0  3  0  0  0  0  0  0  0  0  0  0
  -22.8000   33.5630   17.6990   O 0  0  0  0  0  0  0  0  0  0  0  0
  -21.2310   33.5430   16.4130   O 0  5  0  0  0  0  0  0  0  0  0  0
  -22.8860   39.8500   16.0920   C 0  0  0  0  0  0  0  0  0  0  0  0
  -24.2810   40.2910   16.3140   N 0  0  0  0  0  0  0  0  0  0  0  0
  -25.2730   39.7500   15.3070   C 0  0  0  0  0  0  0  0  0  0  0  0
  -27.0840   39.7970   15.6940   P 0  0  0  0  0  0  0  0  0  0  0  0
  -27.4690   38.8120   16.8460   O 0  0  0  0  0  0  0  0  0  0  0  0
  -27.6150   41.2580   16.1360   O 0  0  0  0  0  0  0  0  0  0  0  0
  -27.7450   39.4050   14.4660   O 0  0  0  0  0  0  0  0  0  0  0  0
  -24.4950   41.7850   16.6520   C 0  0  0  0  0  0  0  0  0  0  0  0
  -24.0730   42.1300   18.0900   C 0  0  0  0  0  0  0  0  0  0  0  0
  -24.4760   41.0040   19.0580   C 0  0  0  0  0  0  0  0  0  0  0  0
  -24.3590   41.5060   20.5040   C 0  0  0  0  0  0  0  0  0  0  0  0
  -25.5060   42.4520   20.8130   C 0  0  0  0  0  0  0  0  0  0  0  0
  -26.8010   42.1360   20.4540   O 0  0  0  0  0  0  0  0  0  0  0  0
  -25.2670   43.5050   21.3940   O 0  0  0  0  0  0  0  0  0  0  0  0
  1  2  2  0  0  0  0
  1  6  1  0  0  0  0
  2  3  1  0  0  0  0
  3  4  2  0  0  0  0
  3 10  1  0  0  0  0
  4  5  1  0  0  0  0
  5  6  2  0  0  0  0
  6  7  1  0  0  0  0
  7  8  2  0  0  0  0
  7  9  1  0  0  0  0
 10 11  1  0  0  0  0
 11 12  1  0  0  0  0
 11 17  1  0  0  0  0
 12 13  1  0  0  0  0
 13 14  2  0  0  0  0
 13 15  1  0  0  0  0
 13 16  1  0  0  0  0
 17 18  1  0  0  0  0
 18 19  1  0  0  0  0
 19 20  1  0  0  0  0
 20 21  1  0  0  0  0
 21 22  1  0  0  0  0
 21 23  2  0  0  0  0
M  CHG  2   7   1   9  -1
A    1
C1
A    2
C2
A    3
C3
A    4
C4
A    5
C5
A    6
C6
A    7
N7
A    8
O8
A    9
O9
A   10
C10
A   11
N11
A   12
C12
A   13
P13
A   14
O14
A   15
O15
A   16
O16
A   17
C17
A   18
C18
A   19
C19
A   20
C20
A   21
C21
A   22
O22
A   23
O23
M  END
>  <InstanceId>
1KEL_AAH_H_219

>  <ChemCompId>
AAH

>  <PdbId>
1KEL

>  <ChainId>
H

>  <ResidueNumber>
219

>  <InsertionCode>


>  <Model>
1

>  <AltIds>


>  <MissingHeavyAtoms>
0

>  <ObservedFormula>
C13 N2 O7 P

>  <Name>
1-[N-4'-NITROBENZYL-N-4'-CARBOXYBUTYLAMINO]METHYLPHOSPHONIC ACID

>  <SystematicName>
5-[(4-nitrophenyl)methyl-(phosphonomethyl)amino]pentanoic acid

>  <Synonyms>


>  <Type>
NON-POLYMER

>  <Formula>
C13 H19 N2 O7 P

>  <MolecularWeight>
346.273

>  <ModifiedDate>
2011-06-04

>  <Parent>


>  <OneLetterCode>


>  <SubcomponentList>


>  <AmbiguousFlag>
N

>  <InChI>
InChI=1S/C13H19N2O7P/c16-13(17)3-1-2-8-14(10-23(20,21)22)9-11-4-6-12(7-5-11)15(18)19/h4-7H,1-3,8-10H2,(H,16,17)(H2,20,21,22)

>  <InChIKey>
RWVBLRUMXIXUAR-UHFFFAOYSA-N

>  <SMILES>
c1cc(ccc1C[N@@](CCCCC(=O)O)CP(=O)(O)O)[N+](=O)[O-]

$$$$
