3UEU_DAO_A_2871
  RCSB PDB12061711023D
Coordinates from PDB:3UEU:A:2871 Model:1 without hydrogens
 14 13  0  0  0  0            999 V2000
   -1.2720    3.8380   19.2090   O 0  0  0  0  0  0  0  0  0  0  0  0
   -0.2330    5.7140   19.5840   O 0  0  0  0  0  0  0  0  0  0  0  0
   -1.2780    5.0930   19.2850   C 0  0  0  0  0  0  0  0  0  0  0  0
   -2.5650    5.8580   18.9950   C 0  0  0  0  0  0  0  0  0  0  0  0
   -2.6420    7.2130   19.7060   C 0  0  0  0  0  0  0  0  0  0  0  0
   -3.2850    8.2950   18.8260   C 0  0  0  0  0  0  0  0  0  0  0  0
   -2.5580    9.6320   18.9390   C 0  0  0  0  0  0  0  0  0  0  0  0
   -3.2940   10.7800   18.2650   C 0  0  0  0  0  0  0  0  0  0  0  0
   -2.6480   12.1070   18.6760   C 0  0  0  0  0  0  0  0  0  0  0  0
   -3.3440   13.3150   18.0570   C 0  0  0  0  0  0  0  0  0  0  0  0
   -2.3690   14.4290   17.7340   C 0  0  0  0  0  0  0  0  0  0  0  0
   -2.9890   15.8240   17.8320   C 0  0  0  0  0  0  0  0  0  0  0  0
   -3.5540   16.2650   16.4980   C 0  0  0  0  0  0  0  0  0  0  0  0
   -3.7430   17.7620   16.4840   C 0  0  0  0  0  0  0  0  0  0  0  0
  1  3  2  0  0  0  0
  2  3  1  0  0  0  0
  3  4  1  0  0  0  0
  4  5  1  0  0  0  0
  5  6  1  0  0  0  0
  6  7  1  0  0  0  0
  7  8  1  0  0  0  0
  8  9  1  0  0  0  0
  9 10  1  0  0  0  0
 10 11  1  0  0  0  0
 11 12  1  0  0  0  0
 12 13  1  0  0  0  0
 13 14  1  0  0  0  0
A    1
O1
A    2
O2
A    3
C1
A    4
C2
A    5
C3
A    6
C4
A    7
C5
A    8
C6
A    9
C7
A   10
C8
A   11
C9
A   12
C10
A   13
C11
A   14
C12
M  END
>  <InstanceId>
3UEU_DAO_A_2871

>  <ChemCompId>
DAO

>  <PdbId>
3UEU

>  <ChainId>
A

>  <ResidueNumber>
2871

>  <InsertionCode>


>  <Model>
1

>  <AltIds>


>  <MissingHeavyAtoms>
0

>  <ObservedFormula>
C12 O2

>  <Name>
LAURIC ACID

>  <SystematicName>
dodecanoic acid

>  <Synonyms>


>  <Type>
NON-POLYMER

>  <Formula>
C12 H24 O2

>  <MolecularWeight>
200.318

>  <ModifiedDate>
2011-06-04

>  <Parent>


>  <OneLetterCode>


>  <SubcomponentList>


>  <AmbiguousFlag>
N

>  <InChI>
InChI=1S/C12H24O2/c1-2-3-4-5-6-7-8-9-10-11-12(13)14/h2-11H2,1H3,(H,13,14)

>  <InChIKey>
POULHZVOKOAJMA-UHFFFAOYSA-N

>  <SMILES>
CCCCCCCCCCCC(=O)O

$$$$
