4LXZ_SHH_A_407


 22 22  0  0  0  0  0  0  0  0999 V2000
   26.7582  -17.7581   -0.0500 C   0  0  0  0  0  0  0  0  0  0  0  0
   25.2532  -18.0285    0.1365 C   0  0  0  0  0  0  0  0  0  0  0  0
   24.4786  -17.0857   -0.8046 C   0  0  0  0  0  0  0  0  0  0  0  0
   22.9604  -17.2509   -0.6142 C   0  0  0  0  0  0  0  0  0  0  0  0
   22.6393  -18.7565   -0.8046 C   0  0  0  0  0  0  0  0  0  0  0  0
   19.5959  -19.5465    1.2649 O   0  0  0  0  0  0  0  0  0  0  0  0
   20.3678  -19.3770   -1.2635 O   0  0  0  0  0  0  0  0  0  0  0  0
   20.9036  -19.2075    0.8805 N   0  0  0  0  0  0  0  0  0  0  0  0
   21.2292  -19.1387   -0.4250 C   0  0  0  0  0  0  0  0  0  0  0  0
   19.5341  -19.5503    2.2329 H   0  0  0  0  0  0  0  0  0  0  0  0
   21.5840  -19.0196    1.5668 H   0  0  0  0  0  0  0  0  0  0  0  0
   27.0132  -16.3844   -0.6958 C   0  0  0  0  0  0  0  0  0  0  0  0
   27.6246  -15.3993    0.2714 C   0  0  0  0  0  0  0  0  0  0  0  0
   28.7574  -15.6204    0.6563 O   0  0  0  0  0  0  0  0  0  0  0  0
   26.8877  -14.3173    0.6802 N   0  0  0  0  0  0  0  0  0  0  0  0
   26.0017  -14.2299    0.2600 H   0  0  0  0  0  0  0  0  0  0  0  0
   27.2142  -13.3053    1.6200 C   0  0  0  0  0  0  0  0  0  0  0  0
   27.1735  -11.9333    1.3279 C   0  0  0  0  0  0  0  0  0  0  0  0
   27.5927  -10.9969    2.2735 C   0  0  0  0  0  0  0  0  0  0  0  0
   28.0621  -11.4159    3.5178 C   0  0  0  0  0  0  0  0  0  0  0  0
   28.1289  -12.7753    3.8107 C   0  0  0  0  0  0  0  0  0  0  0  0
   27.7340  -13.7090    2.8590 C   0  0  0  0  0  0  0  0  0  0  0  0
  6  8  1  0  0  0
  7  9  2  0  0  0
  8  9  1  0  0  0
  9  5  1  0  0  0
  5  4  1  0  0  0
  4  3  1  0  0  0
  3  2  1  0  0  0
  2  1  1  0  0  0
  1 12  1  0  0  0
 12 13  1  0  0  0
 13 14  2  0  0  0
 13 15  1  0  0  0
 15 17  1  0  0  0
 17 18  2  0  0  0
 17 22  1  0  0  0
 18 19  1  0  0  0
 19 20  2  0  0  0
 20 21  1  0  0  0
 21 22  2  0  0  0
  6 10  1  0  0  0
  8 11  1  0  0  0
 15 16  1  0  0  0
M  END
> <minimizedAffinity>
-7.63255

$$$$
4LXZ_SHH_A_407


 22 22  0  0  0  0  0  0  0  0999 V2000
   26.7229  -17.0847    0.2824 C   0  0  0  0  0  0  0  0  0  0  0  0
   25.5767  -18.0198   -0.1474 C   0  0  0  0  0  0  0  0  0  0  0  0
   24.4990  -17.1656   -0.8427 C   0  0  0  0  0  0  0  0  0  0  0  0
   23.1078  -17.4554   -0.2520 C   0  0  0  0  0  0  0  0  0  0  0  0
   22.5920  -18.7568   -0.9203 C   0  0  0  0  0  0  0  0  0  0  0  0
   19.6517  -19.5613    1.2880 O   0  0  0  0  0  0  0  0  0  0  0  0
   20.3323  -19.4825   -1.2708 O   0  0  0  0  0  0  0  0  0  0  0  0
   20.9318  -19.1922    0.8432 N   0  0  0  0  0  0  0  0  0  0  0  0
   21.2112  -19.1729   -0.4747 C   0  0  0  0  0  0  0  0  0  0  0  0
   19.6221  -19.5217    2.2567 H   0  0  0  0  0  0  0  0  0  0  0  0
   21.6267  -18.9469    1.4960 H   0  0  0  0  0  0  0  0  0  0  0  0
   27.8998  -17.1356   -0.7082 C   0  0  0  0  0  0  0  0  0  0  0  0
   27.9565  -15.9159   -1.5964 C   0  0  0  0  0  0  0  0  0  0  0  0
   28.8958  -15.8242   -2.3643 O   0  0  0  0  0  0  0  0  0  0  0  0
   26.9695  -14.9689   -1.4969 N   0  0  0  0  0  0  0  0  0  0  0  0
   26.2428  -15.1844   -0.8687 H   0  0  0  0  0  0  0  0  0  0  0  0
   26.8415  -13.7241   -2.1663 C   0  0  0  0  0  0  0  0  0  0  0  0
   27.4408  -12.5370   -1.7178 C   0  0  0  0  0  0  0  0  0  0  0  0
   27.2000  -11.3311   -2.3770 C   0  0  0  0  0  0  0  0  0  0  0  0
   26.3560  -11.2925   -3.4863 C   0  0  0  0  0  0  0  0  0  0  0  0
   25.7375  -12.4595   -3.9267 C   0  0  0  0  0  0  0  0  0  0  0  0
   25.9586  -13.6565   -3.2545 C   0  0  0  0  0  0  0  0  0  0  0  0
  6  8  1  0  0  0
  7  9  2  0  0  0
  8  9  1  0  0  0
  9  5  1  0  0  0
  5  4  1  0  0  0
  4  3  1  0  0  0
  3  2  1  0  0  0
  2  1  1  0  0  0
  1 12  1  0  0  0
 12 13  1  0  0  0
 13 14  2  0  0  0
 13 15  1  0  0  0
 15 17  1  0  0  0
 17 18  2  0  0  0
 17 22  1  0  0  0
 18 19  1  0  0  0
 19 20  2  0  0  0
 20 21  1  0  0  0
 21 22  2  0  0  0
  6 10  1  0  0  0
  8 11  1  0  0  0
 15 16  1  0  0  0
M  END
> <minimizedAffinity>
-7.27943

$$$$
4LXZ_SHH_A_407


 22 22  0  0  0  0  0  0  0  0999 V2000
   28.0332  -16.9587   -0.2122 C   0  0  0  0  0  0  0  0  0  0  0  0
   26.5769  -17.4533   -0.3001 C   0  0  0  0  0  0  0  0  0  0  0  0
   25.8179  -16.5320   -1.2745 C   0  0  0  0  0  0  0  0  0  0  0  0
   24.2968  -16.6946   -1.1065 C   0  0  0  0  0  0  0  0  0  0  0  0
   24.0691  -17.9317   -0.1988 C   0  0  0  0  0  0  0  0  0  0  0  0
   20.6370  -19.4208    0.2167 O   0  0  0  0  0  0  0  0  0  0  0  0
   22.5870  -19.2312   -1.5663 O   0  0  0  0  0  0  0  0  0  0  0  0
   21.8414  -18.7413    0.4627 N   0  0  0  0  0  0  0  0  0  0  0  0
   22.7925  -18.6829   -0.4896 C   0  0  0  0  0  0  0  0  0  0  0  0
   20.0688  -19.3659    1.0009 H   0  0  0  0  0  0  0  0  0  0  0  0
   21.9910  -18.3066    1.3333 H   0  0  0  0  0  0  0  0  0  0  0  0
   28.1327  -15.4402   -0.4429 C   0  0  0  0  0  0  0  0  0  0  0  0
   28.5794  -14.6990    0.7943 C   0  0  0  0  0  0  0  0  0  0  0  0
   29.7644  -14.7285    1.0687 O   0  0  0  0  0  0  0  0  0  0  0  0
   27.6462  -14.0415    1.5543 N   0  0  0  0  0  0  0  0  0  0  0  0
   26.7284  -14.0574    1.1986 H   0  0  0  0  0  0  0  0  0  0  0  0
   27.8089  -13.3414    2.7781 C   0  0  0  0  0  0  0  0  0  0  0  0
   27.9928  -11.9526    2.8587 C   0  0  0  0  0  0  0  0  0  0  0  0
   28.2346  -11.3422    4.0899 C   0  0  0  0  0  0  0  0  0  0  0  0
   28.3013  -12.1079    5.2532 C   0  0  0  0  0  0  0  0  0  0  0  0
   28.1433  -13.4893    5.1829 C   0  0  0  0  0  0  0  0  0  0  0  0
   27.9268  -14.0999    3.9525 C   0  0  0  0  0  0  0  0  0  0  0  0
  6  8  1  0  0  0
  7  9  2  0  0  0
  8  9  1  0  0  0
  9  5  1  0  0  0
  5  4  1  0  0  0
  4  3  1  0  0  0
  3  2  1  0  0  0
  2  1  1  0  0  0
  1 12  1  0  0  0
 12 13  1  0  0  0
 13 14  2  0  0  0
 13 15  1  0  0  0
 15 17  1  0  0  0
 17 18  2  0  0  0
 17 22  1  0  0  0
 18 19  1  0  0  0
 19 20  2  0  0  0
 20 21  1  0  0  0
 21 22  2  0  0  0
  6 10  1  0  0  0
  8 11  1  0  0  0
 15 16  1  0  0  0
M  END
> <minimizedAffinity>
-7.08542

$$$$
4LXZ_SHH_A_407


 22 22  0  0  0  0  0  0  0  0999 V2000
   27.6286  -14.6033   -0.6270 C   0  0  0  0  0  0  0  0  0  0  0  0
   26.7218  -15.6705   -1.2687 C   0  0  0  0  0  0  0  0  0  0  0  0
   27.0212  -17.0215   -0.5909 C   0  0  0  0  0  0  0  0  0  0  0  0
   25.7258  -17.6718   -0.0738 C   0  0  0  0  0  0  0  0  0  0  0  0
   24.5918  -17.2670   -1.0519 C   0  0  0  0  0  0  0  0  0  0  0  0
   21.6051  -19.1575    0.2421 O   0  0  0  0  0  0  0  0  0  0  0  0
   22.3588  -16.6968   -0.3855 O   0  0  0  0  0  0  0  0  0  0  0  0
   22.8849  -18.8454   -0.2452 N   0  0  0  0  0  0  0  0  0  0  0  0
   23.2029  -17.5710   -0.5449 C   0  0  0  0  0  0  0  0  0  0  0  0
   21.5451  -20.1118    0.4052 H   0  0  0  0  0  0  0  0  0  0  0  0
   23.5512  -19.5596   -0.3680 H   0  0  0  0  0  0  0  0  0  0  0  0
   27.0010  -14.0177    0.6506 C   0  0  0  0  0  0  0  0  0  0  0  0
   27.9858  -13.9437    1.7928 C   0  0  0  0  0  0  0  0  0  0  0  0
   29.0472  -14.5227    1.6567 O   0  0  0  0  0  0  0  0  0  0  0  0
   27.6469  -13.2478    2.9248 N   0  0  0  0  0  0  0  0  0  0  0  0
   26.7772  -12.7877    2.8902 H   0  0  0  0  0  0  0  0  0  0  0  0
   28.3653  -13.0931    4.1389 C   0  0  0  0  0  0  0  0  0  0  0  0
   29.3110  -12.0796    4.3569 C   0  0  0  0  0  0  0  0  0  0  0  0
   30.0441  -12.0405    5.5434 C   0  0  0  0  0  0  0  0  0  0  0  0
   29.8479  -13.0127    6.5234 C   0  0  0  0  0  0  0  0  0  0  0  0
   28.9290  -14.0365    6.3090 C   0  0  0  0  0  0  0  0  0  0  0  0
   28.2165  -14.0888    5.1161 C   0  0  0  0  0  0  0  0  0  0  0  0
  6  8  1  0  0  0
  7  9  2  0  0  0
  8  9  1  0  0  0
  9  5  1  0  0  0
  5  4  1  0  0  0
  4  3  1  0  0  0
  3  2  1  0  0  0
  2  1  1  0  0  0
  1 12  1  0  0  0
 12 13  1  0  0  0
 13 14  2  0  0  0
 13 15  1  0  0  0
 15 17  1  0  0  0
 17 18  2  0  0  0
 17 22  1  0  0  0
 18 19  1  0  0  0
 19 20  2  0  0  0
 20 21  1  0  0  0
 21 22  2  0  0  0
  6 10  1  0  0  0
  8 11  1  0  0  0
 15 16  1  0  0  0
M  END
> <minimizedAffinity>
-6.62746

$$$$
4LXZ_SHH_A_407


 22 22  0  0  0  0  0  0  0  0999 V2000
   25.6689  -15.0592   -2.1454 C   0  0  0  0  0  0  0  0  0  0  0  0
   24.9481  -16.3997   -1.9076 C   0  0  0  0  0  0  0  0  0  0  0  0
   25.3146  -16.8949   -0.4952 C   0  0  0  0  0  0  0  0  0  0  0  0
   24.4258  -18.0826   -0.0855 C   0  0  0  0  0  0  0  0  0  0  0  0
   23.3134  -18.2098   -1.1590 C   0  0  0  0  0  0  0  0  0  0  0  0
   20.5534  -19.2222    1.1920 O   0  0  0  0  0  0  0  0  0  0  0  0
   21.1917  -19.3081   -1.3775 O   0  0  0  0  0  0  0  0  0  0  0  0
   21.7565  -18.7087    0.6802 N   0  0  0  0  0  0  0  0  0  0  0  0
   22.0182  -18.7850   -0.6391 C   0  0  0  0  0  0  0  0  0  0  0  0
   20.5263  -19.0862    2.1520 H   0  0  0  0  0  0  0  0  0  0  0  0
   22.4101  -18.2921    1.2872 H   0  0  0  0  0  0  0  0  0  0  0  0
   25.7862  -14.7352   -3.6455 C   0  0  0  0  0  0  0  0  0  0  0  0
   27.1497  -15.0700   -4.2008 C   0  0  0  0  0  0  0  0  0  0  0  0
   27.2608  -15.1415   -5.4103 O   0  0  0  0  0  0  0  0  0  0  0  0
   28.1903  -15.2880   -3.3345 N   0  0  0  0  0  0  0  0  0  0  0  0
   27.9785  -15.1555   -2.3822 H   0  0  0  0  0  0  0  0  0  0  0  0
   29.5275  -15.6763   -3.6086 C   0  0  0  0  0  0  0  0  0  0  0  0
   30.0754  -16.9054   -3.2107 C   0  0  0  0  0  0  0  0  0  0  0  0
   31.4236  -17.1844   -3.4371 C   0  0  0  0  0  0  0  0  0  0  0  0
   32.2424  -16.2412   -4.0570 C   0  0  0  0  0  0  0  0  0  0  0  0
   31.7158  -15.0092   -4.4355 C   0  0  0  0  0  0  0  0  0  0  0  0
   30.3780  -14.7223   -4.1875 C   0  0  0  0  0  0  0  0  0  0  0  0
  6  8  1  0  0  0
  7  9  2  0  0  0
  8  9  1  0  0  0
  9  5  1  0  0  0
  5  4  1  0  0  0
  4  3  1  0  0  0
  3  2  1  0  0  0
  2  1  1  0  0  0
  1 12  1  0  0  0
 12 13  1  0  0  0
 13 14  2  0  0  0
 13 15  1  0  0  0
 15 17  1  0  0  0
 17 18  2  0  0  0
 17 22  1  0  0  0
 18 19  1  0  0  0
 19 20  2  0  0  0
 20 21  1  0  0  0
 21 22  2  0  0  0
  6 10  1  0  0  0
  8 11  1  0  0  0
 15 16  1  0  0  0
M  END
> <minimizedAffinity>
-6.32585

$$$$
4LXZ_SHH_A_407


 22 22  0  0  0  0  0  0  0  0999 V2000
   25.8260  -16.2406   -0.8235 C   0  0  0  0  0  0  0  0  0  0  0  0
   24.3379  -16.5902   -1.0140 C   0  0  0  0  0  0  0  0  0  0  0  0
   24.0768  -17.9502   -0.3385 C   0  0  0  0  0  0  0  0  0  0  0  0
   22.9142  -18.6873   -1.0267 C   0  0  0  0  0  0  0  0  0  0  0  0
   21.7492  -18.7538   -0.0046 C   0  0  0  0  0  0  0  0  0  0  0  0
   18.3569  -20.3817   -0.1125 O   0  0  0  0  0  0  0  0  0  0  0  0
   20.3745  -19.7409   -1.7050 O   0  0  0  0  0  0  0  0  0  0  0  0
   19.5248  -19.7476    0.3421 N   0  0  0  0  0  0  0  0  0  0  0  0
   20.5137  -19.4492   -0.5228 C   0  0  0  0  0  0  0  0  0  0  0  0
   17.7536  -20.5219    0.6340 H   0  0  0  0  0  0  0  0  0  0  0  0
   19.6211  -19.5206    1.2953 H   0  0  0  0  0  0  0  0  0  0  0  0
   26.4937  -15.8521   -2.1548 C   0  0  0  0  0  0  0  0  0  0  0  0
   28.0006  -15.9091   -2.0801 C   0  0  0  0  0  0  0  0  0  0  0  0
   28.6265  -15.4555   -3.0197 O   0  0  0  0  0  0  0  0  0  0  0  0
   28.5956  -16.4707   -0.9794 N   0  0  0  0  0  0  0  0  0  0  0  0
   27.9774  -16.7597   -0.2697 H   0  0  0  0  0  0  0  0  0  0  0  0
   29.9710  -16.6965   -0.7127 C   0  0  0  0  0  0  0  0  0  0  0  0
   30.7829  -15.7944   -0.0082 C   0  0  0  0  0  0  0  0  0  0  0  0
   32.1482  -16.0403    0.1408 C   0  0  0  0  0  0  0  0  0  0  0  0
   32.7213  -17.1838   -0.4143 C   0  0  0  0  0  0  0  0  0  0  0  0
   31.9305  -18.0745   -1.1351 C   0  0  0  0  0  0  0  0  0  0  0  0
   30.5746  -17.8164   -1.3042 C   0  0  0  0  0  0  0  0  0  0  0  0
  6  8  1  0  0  0
  7  9  2  0  0  0
  8  9  1  0  0  0
  9  5  1  0  0  0
  5  4  1  0  0  0
  4  3  1  0  0  0
  3  2  1  0  0  0
  2  1  1  0  0  0
  1 12  1  0  0  0
 12 13  1  0  0  0
 13 14  2  0  0  0
 13 15  1  0  0  0
 15 17  1  0  0  0
 17 18  2  0  0  0
 17 22  1  0  0  0
 18 19  1  0  0  0
 19 20  2  0  0  0
 20 21  1  0  0  0
 21 22  2  0  0  0
  6 10  1  0  0  0
  8 11  1  0  0  0
 15 16  1  0  0  0
M  END
> <minimizedAffinity>
-6.29926

$$$$
4LXZ_SHH_A_407


 22 22  0  0  0  0  0  0  0  0999 V2000
   28.6909  -12.2485   -1.7695 C   0  0  0  0  0  0  0  0  0  0  0  0
   27.8479  -11.5880   -0.6623 C   0  0  0  0  0  0  0  0  0  0  0  0
   28.3222  -12.1437    0.6944 C   0  0  0  0  0  0  0  0  0  0  0  0
   27.2132  -12.9773    1.3606 C   0  0  0  0  0  0  0  0  0  0  0  0
   27.9090  -14.1438    2.1099 C   0  0  0  0  0  0  0  0  0  0  0  0
   28.7641  -14.7038    5.7326 O   0  0  0  0  0  0  0  0  0  0  0  0
   27.8680  -12.8144    4.1065 O   0  0  0  0  0  0  0  0  0  0  0  0
   28.5605  -14.9049    4.3575 N   0  0  0  0  0  0  0  0  0  0  0  0
   28.1023  -13.8993    3.5868 C   0  0  0  0  0  0  0  0  0  0  0  0
   29.0936  -15.5232    6.1339 H   0  0  0  0  0  0  0  0  0  0  0  0
   28.7530  -15.7829    3.9558 H   0  0  0  0  0  0  0  0  0  0  0  0
   27.8118  -12.7587   -2.9253 C   0  0  0  0  0  0  0  0  0  0  0  0
   26.8285  -13.8132   -2.4773 C   0  0  0  0  0  0  0  0  0  0  0  0
   25.6483  -13.6058   -2.6883 O   0  0  0  0  0  0  0  0  0  0  0  0
   27.2950  -14.9402   -1.8502 N   0  0  0  0  0  0  0  0  0  0  0  0
   28.2748  -15.0068   -1.7808 H   0  0  0  0  0  0  0  0  0  0  0  0
   26.5733  -16.0245   -1.2867 C   0  0  0  0  0  0  0  0  0  0  0  0
   25.1970  -16.2222   -1.4763 C   0  0  0  0  0  0  0  0  0  0  0  0
   24.5352  -17.2604   -0.8199 C   0  0  0  0  0  0  0  0  0  0  0  0
   25.2349  -18.1098    0.0364 C   0  0  0  0  0  0  0  0  0  0  0  0
   26.5959  -17.9095    0.2504 C   0  0  0  0  0  0  0  0  0  0  0  0
   27.2498  -16.8596   -0.3849 C   0  0  0  0  0  0  0  0  0  0  0  0
  6  8  1  0  0  0
  7  9  2  0  0  0
  8  9  1  0  0  0
  9  5  1  0  0  0
  5  4  1  0  0  0
  4  3  1  0  0  0
  3  2  1  0  0  0
  2  1  1  0  0  0
  1 12  1  0  0  0
 12 13  1  0  0  0
 13 14  2  0  0  0
 13 15  1  0  0  0
 15 17  1  0  0  0
 17 18  2  0  0  0
 17 22  1  0  0  0
 18 19  1  0  0  0
 19 20  2  0  0  0
 20 21  1  0  0  0
 21 22  2  0  0  0
  6 10  1  0  0  0
  8 11  1  0  0  0
 15 16  1  0  0  0
M  END
> <minimizedAffinity>
-6.06629

$$$$
4LXZ_SHH_A_407


 22 22  0  0  0  0  0  0  0  0999 V2000
   27.6177  -14.9916    0.8564 C   0  0  0  0  0  0  0  0  0  0  0  0
   26.7848  -14.2802   -0.2268 C   0  0  0  0  0  0  0  0  0  0  0  0
   26.2838  -15.3461   -1.2204 C   0  0  0  0  0  0  0  0  0  0  0  0
   25.7999  -16.6026   -0.4750 C   0  0  0  0  0  0  0  0  0  0  0  0
   24.7038  -17.2593   -1.3546 C   0  0  0  0  0  0  0  0  0  0  0  0
   21.8271  -18.9059    0.4293 O   0  0  0  0  0  0  0  0  0  0  0  0
   22.6173  -16.5262   -0.4248 O   0  0  0  0  0  0  0  0  0  0  0  0
   23.0425  -18.6938   -0.2420 N   0  0  0  0  0  0  0  0  0  0  0  0
   23.3837  -17.4558   -0.6495 C   0  0  0  0  0  0  0  0  0  0  0  0
   21.7393  -19.8464    0.6497 H   0  0  0  0  0  0  0  0  0  0  0  0
   23.6465  -19.4516   -0.4152 H   0  0  0  0  0  0  0  0  0  0  0  0
   29.0685  -14.4784    0.8862 C   0  0  0  0  0  0  0  0  0  0  0  0
   29.9037  -15.0511   -0.2336 C   0  0  0  0  0  0  0  0  0  0  0  0
   30.7347  -14.3226   -0.7428 O   0  0  0  0  0  0  0  0  0  0  0  0
   29.6895  -16.3451   -0.6342 N   0  0  0  0  0  0  0  0  0  0  0  0
   29.0190  -16.8410   -0.1109 H   0  0  0  0  0  0  0  0  0  0  0  0
   30.2919  -17.0745   -1.6921 C   0  0  0  0  0  0  0  0  0  0  0  0
   30.0231  -16.8380   -3.0489 C   0  0  0  0  0  0  0  0  0  0  0  0
   30.5846  -17.6524   -4.0329 C   0  0  0  0  0  0  0  0  0  0  0  0
   31.4154  -18.7142   -3.6770 C   0  0  0  0  0  0  0  0  0  0  0  0
   31.6711  -18.9729   -2.3331 C   0  0  0  0  0  0  0  0  0  0  0  0
   31.0915  -18.1761   -1.3519 C   0  0  0  0  0  0  0  0  0  0  0  0
  6  8  1  0  0  0
  7  9  2  0  0  0
  8  9  1  0  0  0
  9  5  1  0  0  0
  5  4  1  0  0  0
  4  3  1  0  0  0
  3  2  1  0  0  0
  2  1  1  0  0  0
  1 12  1  0  0  0
 12 13  1  0  0  0
 13 14  2  0  0  0
 13 15  1  0  0  0
 15 17  1  0  0  0
 17 18  2  0  0  0
 17 22  1  0  0  0
 18 19  1  0  0  0
 19 20  2  0  0  0
 20 21  1  0  0  0
 21 22  2  0  0  0
  6 10  1  0  0  0
  8 11  1  0  0  0
 15 16  1  0  0  0
M  END
> <minimizedAffinity>
-5.83855

$$$$
4LXZ_SHH_A_407


 22 22  0  0  0  0  0  0  0  0999 V2000
   28.6768  -11.5652    1.0624 C   0  0  0  0  0  0  0  0  0  0  0  0
   27.9923  -10.4231    1.8371 C   0  0  0  0  0  0  0  0  0  0  0  0
   27.8453  -10.8639    3.3062 C   0  0  0  0  0  0  0  0  0  0  0  0
   29.1218  -11.5718    3.7940 C   0  0  0  0  0  0  0  0  0  0  0  0
   28.6706  -12.8048    4.6202 C   0  0  0  0  0  0  0  0  0  0  0  0
   30.5008  -14.2609    7.5697 O   0  0  0  0  0  0  0  0  0  0  0  0
   29.4599  -11.9749    6.7283 O   0  0  0  0  0  0  0  0  0  0  0  0
   29.8536  -14.1197    6.3311 N   0  0  0  0  0  0  0  0  0  0  0  0
   29.3465  -12.9266    5.9644 C   0  0  0  0  0  0  0  0  0  0  0  0
   30.8030  -15.1767    7.6740 H   0  0  0  0  0  0  0  0  0  0  0  0
   29.7704  -14.8944    5.7294 H   0  0  0  0  0  0  0  0  0  0  0  0
   27.7911  -12.0849   -0.0842 C   0  0  0  0  0  0  0  0  0  0  0  0
   27.0719  -13.3619    0.2788 C   0  0  0  0  0  0  0  0  0  0  0  0
   26.5951  -13.4393    1.3955 O   0  0  0  0  0  0  0  0  0  0  0  0
   26.9947  -14.3726   -0.6450 N   0  0  0  0  0  0  0  0  0  0  0  0
   27.3824  -14.1663   -1.5262 H   0  0  0  0  0  0  0  0  0  0  0  0
   26.4384  -15.6719   -0.5178 C   0  0  0  0  0  0  0  0  0  0  0  0
   25.1193  -15.9894   -0.8762 C   0  0  0  0  0  0  0  0  0  0  0  0
   24.6115  -17.2676   -0.6415 C   0  0  0  0  0  0  0  0  0  0  0  0
   25.4092  -18.2421   -0.0428 C   0  0  0  0  0  0  0  0  0  0  0  0
   26.7120  -17.9323    0.3382 C   0  0  0  0  0  0  0  0  0  0  0  0
   27.2094  -16.6512    0.1264 C   0  0  0  0  0  0  0  0  0  0  0  0
  6  8  1  0  0  0
  7  9  2  0  0  0
  8  9  1  0  0  0
  9  5  1  0  0  0
  5  4  1  0  0  0
  4  3  1  0  0  0
  3  2  1  0  0  0
  2  1  1  0  0  0
  1 12  1  0  0  0
 12 13  1  0  0  0
 13 14  2  0  0  0
 13 15  1  0  0  0
 15 17  1  0  0  0
 17 18  2  0  0  0
 17 22  1  0  0  0
 18 19  1  0  0  0
 19 20  2  0  0  0
 20 21  1  0  0  0
 21 22  2  0  0  0
  6 10  1  0  0  0
  8 11  1  0  0  0
 15 16  1  0  0  0
M  END
> <minimizedAffinity>
-5.75465

$$$$
4LXZ_SHH_A_407


 22 22  0  0  0  0  0  0  0  0999 V2000
   26.5248  -15.2679   -1.6803 C   0  0  0  0  0  0  0  0  0  0  0  0
   26.5608  -15.8930   -0.2728 C   0  0  0  0  0  0  0  0  0  0  0  0
   26.5368  -17.4256   -0.4304 C   0  0  0  0  0  0  0  0  0  0  0  0
   25.1680  -17.9954   -0.0176 C   0  0  0  0  0  0  0  0  0  0  0  0
   24.0862  -17.1360   -0.7229 C   0  0  0  0  0  0  0  0  0  0  0  0
   21.1686  -19.1913    0.4743 O   0  0  0  0  0  0  0  0  0  0  0  0
   21.6972  -16.9674   -0.8644 O   0  0  0  0  0  0  0  0  0  0  0  0
   22.4735  -18.7414    0.2140 N   0  0  0  0  0  0  0  0  0  0  0  0
   22.6715  -17.5997   -0.4734 C   0  0  0  0  0  0  0  0  0  0  0  0
   21.2066  -20.0209    0.9754 H   0  0  0  0  0  0  0  0  0  0  0  0
   23.2454  -19.2616    0.5347 H   0  0  0  0  0  0  0  0  0  0  0  0
   27.9255  -14.8295   -2.1436 C   0  0  0  0  0  0  0  0  0  0  0  0
   27.8886  -13.5651   -2.9681 C   0  0  0  0  0  0  0  0  0  0  0  0
   28.9527  -13.0428   -3.2422 O   0  0  0  0  0  0  0  0  0  0  0  0
   26.6766  -13.0568   -3.3600 N   0  0  0  0  0  0  0  0  0  0  0  0
   25.8936  -13.5990   -3.1109 H   0  0  0  0  0  0  0  0  0  0  0  0
   26.3851  -11.8642   -4.0719 C   0  0  0  0  0  0  0  0  0  0  0  0
   26.5170  -11.7395   -5.4634 C   0  0  0  0  0  0  0  0  0  0  0  0
   26.2975  -10.5106   -6.0867 C   0  0  0  0  0  0  0  0  0  0  0  0
   25.9496   -9.3914   -5.3313 C   0  0  0  0  0  0  0  0  0  0  0  0
   25.8382   -9.4972   -3.9476 C   0  0  0  0  0  0  0  0  0  0  0  0
   26.0811  -10.7164   -3.3245 C   0  0  0  0  0  0  0  0  0  0  0  0
  6  8  1  0  0  0
  7  9  2  0  0  0
  8  9  1  0  0  0
  9  5  1  0  0  0
  5  4  1  0  0  0
  4  3  1  0  0  0
  3  2  1  0  0  0
  2  1  1  0  0  0
  1 12  1  0  0  0
 12 13  1  0  0  0
 13 14  2  0  0  0
 13 15  1  0  0  0
 15 17  1  0  0  0
 17 18  2  0  0  0
 17 22  1  0  0  0
 18 19  1  0  0  0
 19 20  2  0  0  0
 20 21  1  0  0  0
 21 22  2  0  0  0
  6 10  1  0  0  0
  8 11  1  0  0  0
 15 16  1  0  0  0
M  END
> <minimizedAffinity>
-5.72733

$$$$
