4LXZ_SHH_A_407
  RCSB PDB12061713393D
Coordinates from PDB:4LXZ:A:407 Model:1 without hydrogens
 19 19  0  0  0  0            999 V2000
   19.6360  -19.8860   -2.0940   O 0  0  0  0  0  0  0  0  0  0  0  0
   20.4930  -17.6630   -0.9360   O 0  0  0  0  0  0  0  0  0  0  0  0
   20.8830  -19.7820   -1.4560   N 0  0  0  0  0  0  0  0  0  0  0  0
   21.2570  -18.6200   -0.8860   C 0  0  0  0  0  0  0  0  0  0  0  0
   22.5970  -18.5460   -0.1950   C 0  0  0  0  0  0  0  0  0  0  0  0
   23.5580  -17.4830   -0.7890   C 0  0  0  0  0  0  0  0  0  0  0  0
   24.9330  -17.7010   -0.1330   C 0  0  0  0  0  0  0  0  0  0  0  0
   25.9720  -16.7150   -0.7010   C 0  0  0  0  0  0  0  0  0  0  0  0
   27.3250  -17.0050   -0.0240   C 0  0  0  0  0  0  0  0  0  0  0  0
   28.3040  -15.8280   -0.1830   C 0  0  0  0  0  0  0  0  0  0  0  0
   28.0100  -14.7020    0.7790   C 0  0  0  0  0  0  0  0  0  0  0  0
   27.4610  -13.7120    0.3330   O 0  0  0  0  0  0  0  0  0  0  0  0
   28.3770  -14.8320    2.0940   N 0  0  0  0  0  0  0  0  0  0  0  0
   28.2700  -13.8990    3.1580   C 0  0  0  0  0  0  0  0  0  0  0  0
   28.0050  -12.5340    2.9690   C 0  0  0  0  0  0  0  0  0  0  0  0
   28.0010  -11.6580    4.0550   C 0  0  0  0  0  0  0  0  0  0  0  0
   28.2660  -12.1300    5.3400   C 0  0  0  0  0  0  0  0  0  0  0  0
   28.5530  -13.4780    5.5370   C 0  0  0  0  0  0  0  0  0  0  0  0
   28.5810  -14.3460    4.4510   C 0  0  0  0  0  0  0  0  0  0  0  0
  1  3  1  0  0  0  0
  2  4  2  0  0  0  0
  3  4  1  0  0  0  0
  4  5  1  0  0  0  0
  5  6  1  0  0  0  0
  6  7  1  0  0  0  0
  7  8  1  0  0  0  0
  8  9  1  0  0  0  0
  9 10  1  0  0  0  0
 10 11  1  0  0  0  0
 11 12  2  0  0  0  0
 11 13  1  0  0  0  0
 13 14  1  0  0  0  0
 14 15  2  0  0  0  0
 14 19  1  0  0  0  0
 15 16  1  0  0  0  0
 16 17  2  0  0  0  0
 17 18  1  0  0  0  0
 18 19  2  0  0  0  0
A    1
O1
A    2
O2
A    3
N1
A    4
C1
A    5
C2
A    6
C3
A    7
C4
A    8
C5
A    9
C6
A   10
C7
A   11
C8
A   12
O3
A   13
N2
A   14
C9
A   15
C10
A   16
C11
A   17
C12
A   18
C13
A   19
C14
M  END
>  <InstanceId>
4LXZ_SHH_A_407

>  <ChemCompId>
SHH

>  <PdbId>
4LXZ

>  <ChainId>
A

>  <ResidueNumber>
407

>  <InsertionCode>


>  <Model>
1

>  <AltIds>


>  <MissingHeavyAtoms>
0

>  <ObservedFormula>
C14 N2 O3

>  <Name>
OCTANEDIOIC ACID HYDROXYAMIDE PHENYLAMIDE

>  <SystematicName>
N-hydroxy-N'-phenyl-octanediamide

>  <Synonyms>
SAHA

>  <Type>
NON-POLYMER

>  <Formula>
C14 H20 N2 O3

>  <MolecularWeight>
264.32

>  <ModifiedDate>
2011-06-04

>  <Parent>


>  <OneLetterCode>


>  <SubcomponentList>


>  <AmbiguousFlag>
N

>  <InChI>
InChI=1S/C14H20N2O3/c17-13(15-12-8-4-3-5-9-12)10-6-1-2-7-11-14(18)16-19/h3-5,8-9,19H,1-2,6-7,10-11H2,(H,15,17)(H,16,18)

>  <InChIKey>
WAEXFXRVDQXREF-UHFFFAOYSA-N

>  <SMILES>
c1ccc(cc1)NC(=O)CCCCCCC(=O)NO

$$$$
