5XG5_A2G_A_201


 20 20  0  0  0  0  0  0  0  0999 V2000
   21.3759   -2.7249   -1.1790 O   0  0  0  0  0  0  0  0  0  0  0  0
   22.1414   -3.0290   -2.3128 C   0  0  0  0  0  0  0  0  0  0  0  0
   23.4357   -2.4512   -2.3346 O   0  0  0  0  0  0  0  0  0  0  0  0
   21.3561   -2.5973   -3.5862 C   0  0  0  0  0  0  0  0  0  0  0  0
   20.9965   -1.0835   -3.4470 C   0  0  0  0  0  0  0  0  0  0  0  0
   20.1734   -0.6184   -4.5399 O   0  0  0  0  0  0  0  0  0  0  0  0
   20.2549   -0.8179   -2.1592 C   0  0  0  0  0  0  0  0  0  0  0  0
   18.9671   -1.5425   -2.1607 O   0  0  0  0  0  0  0  0  0  0  0  0
   21.0954   -1.3323   -1.0311 C   0  0  0  0  0  0  0  0  0  0  0  0
   23.3580   -1.4847   -2.3607 H   0  0  0  0  0  0  0  0  0  0  0  0
   19.3289   -1.0956   -4.5345 H   0  0  0  0  0  0  0  0  0  0  0  0
   19.1314   -2.4937   -2.2556 H   0  0  0  0  0  0  0  0  0  0  0  0
   22.1443   -2.7675   -4.7750 N   0  0  0  0  0  0  0  0  0  0  0  0
   21.6075   -3.1570   -5.9466 C   0  0  0  0  0  0  0  0  0  0  0  0
   20.3899   -3.4041   -6.0395 O   0  0  0  0  0  0  0  0  0  0  0  0
   22.6552   -3.3137   -7.0753 C   0  0  0  0  0  0  0  0  0  0  0  0
   23.1123   -2.5931   -4.7314 H   0  0  0  0  0  0  0  0  0  0  0  0
   20.4570   -1.1844    0.3367 C   0  0  0  0  0  0  0  0  0  0  0  0
   19.6470   -2.3188    0.6959 O   0  0  0  0  0  0  0  0  0  0  0  0
   18.9211   -2.4123    0.0593 H   0  0  0  0  0  0  0  0  0  0  0  0
  1  9  1  0  0  0
  2  1  1  0  0  0
  2  4  1  0  0  0
  3  2  1  0  0  0
  4  5  1  0  0  0
 13  4  1  0  0  0
  5  7  1  0  0  0
  5  6  1  0  0  0
  7  8  1  0  0  0
  9  7  1  0  0  0
  9 18  1  0  0  0
 18 19  1  0  0  0
 14 13  1  0  0  0
 15 14  2  0  0  0
 16 14  1  0  0  0
  3 10  1  0  0  0
 13 17  1  0  0  0
  6 11  1  0  0  0
  8 12  1  0  0  0
 19 20  1  0  0  0
M  END
> <minimizedAffinity>
-5.44609

$$$$
5XG5_A2G_A_201


 20 20  0  0  0  0  0  0  0  0999 V2000
   20.2483   -0.5669   -1.3911 O   0  0  0  0  0  0  0  0  0  0  0  0
   20.5111   -0.6945   -2.7618 C   0  0  0  0  0  0  0  0  0  0  0  0
   19.6979   -1.6351   -3.4428 O   0  0  0  0  0  0  0  0  0  0  0  0
   22.0112   -1.0627   -2.9589 C   0  0  0  0  0  0  0  0  0  0  0  0
   22.3093   -2.3527   -2.1298 C   0  0  0  0  0  0  0  0  0  0  0  0
   23.7084   -2.7120   -2.1692 O   0  0  0  0  0  0  0  0  0  0  0  0
   21.9151   -2.1717   -0.6837 C   0  0  0  0  0  0  0  0  0  0  0  0
   22.7259   -1.0990   -0.0710 O   0  0  0  0  0  0  0  0  0  0  0  0
   20.4738   -1.7657   -0.6483 C   0  0  0  0  0  0  0  0  0  0  0  0
   19.8672   -2.5232   -3.0914 H   0  0  0  0  0  0  0  0  0  0  0  0
   24.2352   -2.0057   -1.7637 H   0  0  0  0  0  0  0  0  0  0  0  0
   22.5862   -0.2708   -0.5562 H   0  0  0  0  0  0  0  0  0  0  0  0
   22.3115   -1.3317   -4.3377 N   0  0  0  0  0  0  0  0  0  0  0  0
   23.4797   -0.9756   -4.9040 C   0  0  0  0  0  0  0  0  0  0  0  0
   24.3507   -0.3749   -4.2461 O   0  0  0  0  0  0  0  0  0  0  0  0
   23.5610   -1.3298   -6.4087 C   0  0  0  0  0  0  0  0  0  0  0  0
   21.6385   -1.7933   -4.8884 H   0  0  0  0  0  0  0  0  0  0  0  0
   19.9394   -1.4930    0.7447 C   0  0  0  0  0  0  0  0  0  0  0  0
   20.6536   -2.2166    1.7637 O   0  0  0  0  0  0  0  0  0  0  0  0
   20.5575   -3.1696    1.6111 H   0  0  0  0  0  0  0  0  0  0  0  0
  1  9  1  0  0  0
  2  1  1  0  0  0
  2  4  1  0  0  0
  3  2  1  0  0  0
  4  5  1  0  0  0
 13  4  1  0  0  0
  5  7  1  0  0  0
  5  6  1  0  0  0
  7  8  1  0  0  0
  9  7  1  0  0  0
  9 18  1  0  0  0
 18 19  1  0  0  0
 14 13  1  0  0  0
 15 14  2  0  0  0
 16 14  1  0  0  0
  3 10  1  0  0  0
 13 17  1  0  0  0
  6 11  1  0  0  0
  8 12  1  0  0  0
 19 20  1  0  0  0
M  END
> <minimizedAffinity>
-5.25312

$$$$
5XG5_A2G_A_201


 20 20  0  0  0  0  0  0  0  0999 V2000
   22.4479   -2.8944   -2.3518 O   0  0  0  0  0  0  0  0  0  0  0  0
   22.3493   -2.4106   -3.6634 C   0  0  0  0  0  0  0  0  0  0  0  0
   23.3980   -1.5447   -4.0631 O   0  0  0  0  0  0  0  0  0  0  0  0
   20.9812   -1.6872   -3.8360 C   0  0  0  0  0  0  0  0  0  0  0  0
   20.8732   -0.5807   -2.7386 C   0  0  0  0  0  0  0  0  0  0  0  0
   19.5866    0.0770   -2.7558 O   0  0  0  0  0  0  0  0  0  0  0  0
   21.0818   -1.1608   -1.3605 C   0  0  0  0  0  0  0  0  0  0  0  0
   20.0151   -2.1376   -1.0583 O   0  0  0  0  0  0  0  0  0  0  0  0
   22.4005   -1.8712   -1.3564 C   0  0  0  0  0  0  0  0  0  0  0  0
   23.3798   -0.7420   -3.5188 H   0  0  0  0  0  0  0  0  0  0  0  0
   18.8909   -0.5682   -2.5545 H   0  0  0  0  0  0  0  0  0  0  0  0
   20.0296   -2.8471   -1.7195 H   0  0  0  0  0  0  0  0  0  0  0  0
   20.8755   -1.0592   -5.1236 N   0  0  0  0  0  0  0  0  0  0  0  0
   20.3224   -1.6771   -6.1841 C   0  0  0  0  0  0  0  0  0  0  0  0
   19.8901   -2.8418   -6.0898 O   0  0  0  0  0  0  0  0  0  0  0  0
   20.3575   -0.8227   -7.4745 C   0  0  0  0  0  0  0  0  0  0  0  0
   21.2200   -0.1436   -5.2346 H   0  0  0  0  0  0  0  0  0  0  0  0
   22.7322   -2.5573   -0.0451 C   0  0  0  0  0  0  0  0  0  0  0  0
   21.7713   -2.2724    0.9881 O   0  0  0  0  0  0  0  0  0  0  0  0
   21.7629   -1.3192    1.1678 H   0  0  0  0  0  0  0  0  0  0  0  0
  1  9  1  0  0  0
  2  1  1  0  0  0
  2  4  1  0  0  0
  3  2  1  0  0  0
  4  5  1  0  0  0
 13  4  1  0  0  0
  5  7  1  0  0  0
  5  6  1  0  0  0
  7  8  1  0  0  0
  9  7  1  0  0  0
  9 18  1  0  0  0
 18 19  1  0  0  0
 14 13  1  0  0  0
 15 14  2  0  0  0
 16 14  1  0  0  0
  3 10  1  0  0  0
 13 17  1  0  0  0
  6 11  1  0  0  0
  8 12  1  0  0  0
 19 20  1  0  0  0
M  END
> <minimizedAffinity>
-5.23341

$$$$
5XG5_A2G_A_201


 20 20  0  0  0  0  0  0  0  0999 V2000
   20.1145   -2.6645   -2.5962 O   0  0  0  0  0  0  0  0  0  0  0  0
   20.3994   -3.1794   -3.8681 C   0  0  0  0  0  0  0  0  0  0  0  0
   21.2886   -4.2833   -3.8824 O   0  0  0  0  0  0  0  0  0  0  0  0
   20.9697   -2.0386   -4.7614 C   0  0  0  0  0  0  0  0  0  0  0  0
   22.2054   -1.4206   -4.0324 C   0  0  0  0  0  0  0  0  0  0  0  0
   22.7400   -0.2807   -4.7418 O   0  0  0  0  0  0  0  0  0  0  0  0
   21.8445   -0.9735   -2.6364 C   0  0  0  0  0  0  0  0  0  0  0  0
   20.8307    0.0998   -2.6974 O   0  0  0  0  0  0  0  0  0  0  0  0
   21.2589   -2.1484   -1.9152 C   0  0  0  0  0  0  0  0  0  0  0  0
   22.1550   -4.0049   -3.5464 H   0  0  0  0  0  0  0  0  0  0  0  0
   22.0713    0.4211   -4.7766 H   0  0  0  0  0  0  0  0  0  0  0  0
   20.0395   -0.2284   -3.1527 H   0  0  0  0  0  0  0  0  0  0  0  0
   21.3997   -2.5344   -6.0393 N   0  0  0  0  0  0  0  0  0  0  0  0
   20.5720   -2.6124   -7.0981 C   0  0  0  0  0  0  0  0  0  0  0  0
   19.3786   -2.2674   -7.0018 O   0  0  0  0  0  0  0  0  0  0  0  0
   21.2443   -3.2170   -8.3546 C   0  0  0  0  0  0  0  0  0  0  0  0
   22.3336   -2.8276   -6.1446 H   0  0  0  0  0  0  0  0  0  0  0  0
   20.7947   -1.8427   -0.5041 C   0  0  0  0  0  0  0  0  0  0  0  0
   19.5420   -1.1341   -0.4741 O   0  0  0  0  0  0  0  0  0  0  0  0
   19.6423   -0.2809   -0.9244 H   0  0  0  0  0  0  0  0  0  0  0  0
  1  9  1  0  0  0
  2  1  1  0  0  0
  2  4  1  0  0  0
  3  2  1  0  0  0
  4  5  1  0  0  0
 13  4  1  0  0  0
  5  7  1  0  0  0
  5  6  1  0  0  0
  7  8  1  0  0  0
  9  7  1  0  0  0
  9 18  1  0  0  0
 18 19  1  0  0  0
 14 13  1  0  0  0
 15 14  2  0  0  0
 16 14  1  0  0  0
  3 10  1  0  0  0
 13 17  1  0  0  0
  6 11  1  0  0  0
  8 12  1  0  0  0
 19 20  1  0  0  0
M  END
> <minimizedAffinity>
-5.07790

$$$$
5XG5_A2G_A_201


 20 20  0  0  0  0  0  0  0  0999 V2000
   21.4276   -0.9212   -1.7052 O   0  0  0  0  0  0  0  0  0  0  0  0
   20.5671   -0.8339   -2.8079 C   0  0  0  0  0  0  0  0  0  0  0  0
   19.2582   -1.3316   -2.5874 O   0  0  0  0  0  0  0  0  0  0  0  0
   21.2114   -1.5776   -4.0147 C   0  0  0  0  0  0  0  0  0  0  0  0
   21.5321   -3.0405   -3.5707 C   0  0  0  0  0  0  0  0  0  0  0  0
   22.2303   -3.7789   -4.5981 O   0  0  0  0  0  0  0  0  0  0  0  0
   22.3850   -3.0551   -2.3251 C   0  0  0  0  0  0  0  0  0  0  0  0
   23.6901   -2.4192   -2.6006 O   0  0  0  0  0  0  0  0  0  0  0  0
   21.6746   -2.2600   -1.2731 C   0  0  0  0  0  0  0  0  0  0  0  0
   19.3009   -2.2829   -2.4024 H   0  0  0  0  0  0  0  0  0  0  0  0
   23.0868   -3.3585   -4.7730 H   0  0  0  0  0  0  0  0  0  0  0  0
   23.5491   -1.5049   -2.8922 H   0  0  0  0  0  0  0  0  0  0  0  0
   20.3185   -1.6315   -5.1387 N   0  0  0  0  0  0  0  0  0  0  0  0
   20.7531   -1.5441   -6.4099 C   0  0  0  0  0  0  0  0  0  0  0  0
   21.9642   -1.3940   -6.6610 O   0  0  0  0  0  0  0  0  0  0  0  0
   19.6075   -1.5829   -7.4502 C   0  0  0  0  0  0  0  0  0  0  0  0
   19.3536   -1.7362   -4.9735 H   0  0  0  0  0  0  0  0  0  0  0  0
   22.4364   -2.1368    0.0325 C   0  0  0  0  0  0  0  0  0  0  0  0
   23.4357   -1.1014   -0.0044 O   0  0  0  0  0  0  0  0  0  0  0  0
   24.0905   -1.3083   -0.6895 H   0  0  0  0  0  0  0  0  0  0  0  0
  1  9  1  0  0  0
  2  1  1  0  0  0
  2  4  1  0  0  0
  3  2  1  0  0  0
  4  5  1  0  0  0
 13  4  1  0  0  0
  5  7  1  0  0  0
  5  6  1  0  0  0
  7  8  1  0  0  0
  9  7  1  0  0  0
  9 18  1  0  0  0
 18 19  1  0  0  0
 14 13  1  0  0  0
 15 14  2  0  0  0
 16 14  1  0  0  0
  3 10  1  0  0  0
 13 17  1  0  0  0
  6 11  1  0  0  0
  8 12  1  0  0  0
 19 20  1  0  0  0
M  END
> <minimizedAffinity>
-4.73241

$$$$
5XG5_A2G_A_201


 20 20  0  0  0  0  0  0  0  0999 V2000
   21.4325   -1.5986   -0.7889 O   0  0  0  0  0  0  0  0  0  0  0  0
   22.6474   -2.0228   -0.2338 C   0  0  0  0  0  0  0  0  0  0  0  0
   23.6223   -1.0057   -0.0770 O   0  0  0  0  0  0  0  0  0  0  0  0
   23.2298   -3.1734   -1.1064 C   0  0  0  0  0  0  0  0  0  0  0  0
   23.3460   -2.6589   -2.5768 C   0  0  0  0  0  0  0  0  0  0  0  0
   23.7822   -3.6972   -3.4823 O   0  0  0  0  0  0  0  0  0  0  0  0
   22.0213   -2.1329   -3.0741 C   0  0  0  0  0  0  0  0  0  0  0  0
   21.0250   -3.2238   -3.1034 O   0  0  0  0  0  0  0  0  0  0  0  0
   21.5556   -1.0813   -2.1145 C   0  0  0  0  0  0  0  0  0  0  0  0
   23.8740   -0.6620   -0.9485 H   0  0  0  0  0  0  0  0  0  0  0  0
   23.1235   -4.4091   -3.4993 H   0  0  0  0  0  0  0  0  0  0  0  0
   20.9197   -3.5896   -2.2113 H   0  0  0  0  0  0  0  0  0  0  0  0
   24.5378   -3.5642   -0.6592 N   0  0  0  0  0  0  0  0  0  0  0  0
   24.9694   -4.8381   -0.7181 C   0  0  0  0  0  0  0  0  0  0  0  0
   24.2314   -5.7421   -1.1545 O   0  0  0  0  0  0  0  0  0  0  0  0
   26.3933   -5.0269   -0.1411 C   0  0  0  0  0  0  0  0  0  0  0  0
   25.1406   -2.8755   -0.2965 H   0  0  0  0  0  0  0  0  0  0  0  0
   20.2010   -0.4885   -2.4520 C   0  0  0  0  0  0  0  0  0  0  0  0
   19.1147   -1.3868   -2.1604 O   0  0  0  0  0  0  0  0  0  0  0  0
   19.2072   -2.1905   -2.6956 H   0  0  0  0  0  0  0  0  0  0  0  0
  1  9  1  0  0  0
  2  1  1  0  0  0
  2  4  1  0  0  0
  3  2  1  0  0  0
  4  5  1  0  0  0
 13  4  1  0  0  0
  5  7  1  0  0  0
  5  6  1  0  0  0
  7  8  1  0  0  0
  9  7  1  0  0  0
  9 18  1  0  0  0
 18 19  1  0  0  0
 14 13  1  0  0  0
 15 14  2  0  0  0
 16 14  1  0  0  0
  3 10  1  0  0  0
 13 17  1  0  0  0
  6 11  1  0  0  0
  8 12  1  0  0  0
 19 20  1  0  0  0
M  END
> <minimizedAffinity>
-4.58539

$$$$
5XG5_A2G_A_201


 20 20  0  0  0  0  0  0  0  0999 V2000
   22.1756   -2.2428   -0.2056 O   0  0  0  0  0  0  0  0  0  0  0  0
   23.4646   -1.9315   -0.6590 C   0  0  0  0  0  0  0  0  0  0  0  0
   24.0178   -0.7419   -0.1220 O   0  0  0  0  0  0  0  0  0  0  0  0
   23.4484   -1.8438   -2.2135 C   0  0  0  0  0  0  0  0  0  0  0  0
   22.3578   -0.8065   -2.6317 C   0  0  0  0  0  0  0  0  0  0  0  0
   22.1986   -0.7347   -4.0662 O   0  0  0  0  0  0  0  0  0  0  0  0
   21.0176   -1.1559   -2.0309 C   0  0  0  0  0  0  0  0  0  0  0  0
   20.5574   -2.4604   -2.5504 O   0  0  0  0  0  0  0  0  0  0  0  0
   21.1937   -1.2635   -0.5474 C   0  0  0  0  0  0  0  0  0  0  0  0
   23.4844    0.0181   -0.4027 H   0  0  0  0  0  0  0  0  0  0  0  0
   21.8942   -1.5926   -4.4011 H   0  0  0  0  0  0  0  0  0  0  0  0
   21.2069   -3.1451   -2.3263 H   0  0  0  0  0  0  0  0  0  0  0  0
   24.7141   -1.4024   -2.7301 N   0  0  0  0  0  0  0  0  0  0  0  0
   25.4339   -2.1366   -3.5993 C   0  0  0  0  0  0  0  0  0  0  0  0
   25.0293   -3.2516   -3.9805 O   0  0  0  0  0  0  0  0  0  0  0  0
   26.7818   -1.4793   -3.9829 C   0  0  0  0  0  0  0  0  0  0  0  0
   25.0681   -0.5315   -2.4380 H   0  0  0  0  0  0  0  0  0  0  0  0
   19.9362   -1.6638    0.1999 C   0  0  0  0  0  0  0  0  0  0  0  0
   20.2027   -2.0736    1.5538 O   0  0  0  0  0  0  0  0  0  0  0  0
   20.7818   -2.8518    1.5480 H   0  0  0  0  0  0  0  0  0  0  0  0
  1  9  1  0  0  0
  2  1  1  0  0  0
  2  4  1  0  0  0
  3  2  1  0  0  0
  4  5  1  0  0  0
 13  4  1  0  0  0
  5  7  1  0  0  0
  5  6  1  0  0  0
  7  8  1  0  0  0
  9  7  1  0  0  0
  9 18  1  0  0  0
 18 19  1  0  0  0
 14 13  1  0  0  0
 15 14  2  0  0  0
 16 14  1  0  0  0
  3 10  1  0  0  0
 13 17  1  0  0  0
  6 11  1  0  0  0
  8 12  1  0  0  0
 19 20  1  0  0  0
M  END
> <minimizedAffinity>
-4.56625

$$$$
5XG5_A2G_A_201


 20 20  0  0  0  0  0  0  0  0999 V2000
   23.0588   -2.0400   -1.4773 O   0  0  0  0  0  0  0  0  0  0  0  0
   23.6039   -1.3332   -2.5577 C   0  0  0  0  0  0  0  0  0  0  0  0
   24.0578   -0.0258   -2.2507 O   0  0  0  0  0  0  0  0  0  0  0  0
   22.5504   -1.2641   -3.7023 C   0  0  0  0  0  0  0  0  0  0  0  0
   21.2428   -0.6352   -3.1237 C   0  0  0  0  0  0  0  0  0  0  0  0
   20.1701   -0.6266   -4.0920 O   0  0  0  0  0  0  0  0  0  0  0  0
   20.7673   -1.3938   -1.9082 C   0  0  0  0  0  0  0  0  0  0  0  0
   20.4194   -2.7800   -2.2836 O   0  0  0  0  0  0  0  0  0  0  0  0
   21.8931   -1.4306   -0.9208 C   0  0  0  0  0  0  0  0  0  0  0  0
   23.3061    0.5206   -1.9729 H   0  0  0  0  0  0  0  0  0  0  0  0
   19.9444   -1.5387   -4.3327 H   0  0  0  0  0  0  0  0  0  0  0  0
   21.1983   -3.2180   -2.6609 H   0  0  0  0  0  0  0  0  0  0  0  0
   23.0054   -0.4420   -4.7890 N   0  0  0  0  0  0  0  0  0  0  0  0
   23.3005   -0.9476   -6.0012 C   0  0  0  0  0  0  0  0  0  0  0  0
   23.2041   -2.1698   -6.2234 O   0  0  0  0  0  0  0  0  0  0  0  0
   23.8110    0.1197   -6.9994 C   0  0  0  0  0  0  0  0  0  0  0  0
   23.1049    0.5263   -4.6418 H   0  0  0  0  0  0  0  0  0  0  0  0
   21.5853   -2.2099    0.3434 C   0  0  0  0  0  0  0  0  0  0  0  0
   20.1728   -2.3117    0.6015 O   0  0  0  0  0  0  0  0  0  0  0  0
   19.8020   -1.4240    0.7254 H   0  0  0  0  0  0  0  0  0  0  0  0
  1  9  1  0  0  0
  2  1  1  0  0  0
  2  4  1  0  0  0
  3  2  1  0  0  0
  4  5  1  0  0  0
 13  4  1  0  0  0
  5  7  1  0  0  0
  5  6  1  0  0  0
  7  8  1  0  0  0
  9  7  1  0  0  0
  9 18  1  0  0  0
 18 19  1  0  0  0
 14 13  1  0  0  0
 15 14  2  0  0  0
 16 14  1  0  0  0
  3 10  1  0  0  0
 13 17  1  0  0  0
  6 11  1  0  0  0
  8 12  1  0  0  0
 19 20  1  0  0  0
M  END
> <minimizedAffinity>
-4.44720

$$$$
5XG5_A2G_A_201


 20 20  0  0  0  0  0  0  0  0999 V2000
   22.3418   -1.3726   -5.5925 O   0  0  0  0  0  0  0  0  0  0  0  0
   22.2565   -1.4004   -4.1939 C   0  0  0  0  0  0  0  0  0  0  0  0
   23.3612   -1.9994   -3.5380 O   0  0  0  0  0  0  0  0  0  0  0  0
   20.9452   -2.1308   -3.7798 C   0  0  0  0  0  0  0  0  0  0  0  0
   20.9429   -3.5434   -4.4467 C   0  0  0  0  0  0  0  0  0  0  0  0
   19.7106   -4.2573   -4.2016 O   0  0  0  0  0  0  0  0  0  0  0  0
   21.1316   -3.4386   -5.9408 C   0  0  0  0  0  0  0  0  0  0  0  0
   19.9986   -2.7044   -6.5415 O   0  0  0  0  0  0  0  0  0  0  0  0
   22.3915   -2.6683   -6.1914 C   0  0  0  0  0  0  0  0  0  0  0  0
   23.4148   -2.9360   -3.7848 H   0  0  0  0  0  0  0  0  0  0  0  0
   18.9711   -3.7722   -4.6000 H   0  0  0  0  0  0  0  0  0  0  0  0
   19.9463   -1.8169   -6.1534 H   0  0  0  0  0  0  0  0  0  0  0  0
   20.8644   -2.3027   -2.3558 N   0  0  0  0  0  0  0  0  0  0  0  0
   20.3707   -1.3512   -1.5415 C   0  0  0  0  0  0  0  0  0  0  0  0
   19.9747   -0.2622   -1.9994 O   0  0  0  0  0  0  0  0  0  0  0  0
   20.4230   -1.7423   -0.0446 C   0  0  0  0  0  0  0  0  0  0  0  0
   21.1816   -3.1470   -1.9612 H   0  0  0  0  0  0  0  0  0  0  0  0
   22.6935   -2.4319   -7.6587 C   0  0  0  0  0  0  0  0  0  0  0  0
   21.9764   -1.3062   -8.1978 O   0  0  0  0  0  0  0  0  0  0  0  0
   21.0224   -1.4697   -8.1335 H   0  0  0  0  0  0  0  0  0  0  0  0
  1  9  1  0  0  0
  2  1  1  0  0  0
  2  4  1  0  0  0
  3  2  1  0  0  0
  4  5  1  0  0  0
 13  4  1  0  0  0
  5  7  1  0  0  0
  5  6  1  0  0  0
  7  8  1  0  0  0
  9  7  1  0  0  0
  9 18  1  0  0  0
 18 19  1  0  0  0
 14 13  1  0  0  0
 15 14  2  0  0  0
 16 14  1  0  0  0
  3 10  1  0  0  0
 13 17  1  0  0  0
  6 11  1  0  0  0
  8 12  1  0  0  0
 19 20  1  0  0  0
M  END
> <minimizedAffinity>
-4.20579

$$$$
5XG5_A2G_A_201


 20 20  0  0  0  0  0  0  0  0999 V2000
   21.9393   -3.2341   -2.5110 O   0  0  0  0  0  0  0  0  0  0  0  0
   22.6623   -2.5947   -1.4949 C   0  0  0  0  0  0  0  0  0  0  0  0
   21.8736   -2.0435   -0.4540 O   0  0  0  0  0  0  0  0  0  0  0  0
   23.5464   -1.4790   -2.1261 C   0  0  0  0  0  0  0  0  0  0  0  0
   22.6178   -0.5259   -2.9443 C   0  0  0  0  0  0  0  0  0  0  0  0
   23.3677    0.4852   -3.6540 O   0  0  0  0  0  0  0  0  0  0  0  0
   21.8033   -1.2972   -3.9547 C   0  0  0  0  0  0  0  0  0  0  0  0
   22.6986   -1.9367   -4.9410 O   0  0  0  0  0  0  0  0  0  0  0  0
   21.0541   -2.3663   -3.2203 C   0  0  0  0  0  0  0  0  0  0  0  0
   21.3093   -1.3410   -0.8133 H   0  0  0  0  0  0  0  0  0  0  0  0
   23.9515    0.0599   -4.3013 H   0  0  0  0  0  0  0  0  0  0  0  0
   23.3083   -2.5364   -4.4832 H   0  0  0  0  0  0  0  0  0  0  0  0
   24.2158   -0.7036   -1.1190 N   0  0  0  0  0  0  0  0  0  0  0  0
   25.4400   -0.1768   -1.3096 C   0  0  0  0  0  0  0  0  0  0  0  0
   26.0539   -0.3598   -2.3782 O   0  0  0  0  0  0  0  0  0  0  0  0
   25.9771    0.5816   -0.0716 C   0  0  0  0  0  0  0  0  0  0  0  0
   23.7629   -0.5520   -0.2581 H   0  0  0  0  0  0  0  0  0  0  0  0
   20.2228   -3.2673   -4.1133 C   0  0  0  0  0  0  0  0  0  0  0  0
   19.7049   -2.5792   -5.2667 O   0  0  0  0  0  0  0  0  0  0  0  0
   19.1220   -1.8593   -4.9790 H   0  0  0  0  0  0  0  0  0  0  0  0
  1  9  1  0  0  0
  2  1  1  0  0  0
  2  4  1  0  0  0
  3  2  1  0  0  0
  4  5  1  0  0  0
 13  4  1  0  0  0
  5  7  1  0  0  0
  5  6  1  0  0  0
  7  8  1  0  0  0
  9  7  1  0  0  0
  9 18  1  0  0  0
 18 19  1  0  0  0
 14 13  1  0  0  0
 15 14  2  0  0  0
 16 14  1  0  0  0
  3 10  1  0  0  0
 13 17  1  0  0  0
  6 11  1  0  0  0
  8 12  1  0  0  0
 19 20  1  0  0  0
M  END
> <minimizedAffinity>
-4.00733

$$$$
