1C5Y_ESP_B_251
  RCSB PDB12061702083D
Coordinates from PDB:1C5Y:B:251 Model:1 without hydrogens
 12 13  0  0  0  0            999 V2000
    8.1660   -0.9270   25.8650   C 0  0  0  0  0  0  0  0  0  0  0  0
    8.4900    0.3310   25.4350   C 0  0  0  0  0  0  0  0  0  0  0  0
    7.5500   -1.0330   27.0040   N 0  0  0  0  0  0  0  0  0  0  0  0
    8.5110   -1.9100   25.0980   N 0  3  0  0  0  0  0  0  0  0  0  0
    9.0730    0.5490   23.7620   S 0  0  0  0  0  0  0  0  0  0  0  0
    9.2650    2.2370   23.9650   C 0  0  0  0  0  0  0  0  0  0  0  0
    8.8960    2.5900   25.2540   C 0  0  0  0  0  0  0  0  0  0  0  0
    8.4730    1.5580   26.0570   C 0  0  0  0  0  0  0  0  0  0  0  0
    9.6740    3.1910   23.1680   N 0  0  0  0  0  0  0  0  0  0  0  0
    9.7660    4.4770   23.4640   C 0  0  0  0  0  0  0  0  0  0  0  0
    9.3970    4.8440   24.7560   C 0  0  0  0  0  0  0  0  0  0  0  0
    8.9570    3.9010   25.6530   C 0  0  0  0  0  0  0  0  0  0  0  0
  1  2  1  0  0  0  0
  1  3  1  0  0  0  0
  1  4  2  0  0  0  0
  2  5  1  0  0  0  0
  2  8  2  0  0  0  0
  5  6  1  0  0  0  0
  6  7  2  0  0  0  0
  6  9  1  0  0  0  0
  7  8  1  0  0  0  0
  7 12  1  0  0  0  0
  9 10  2  0  0  0  0
 10 11  1  0  0  0  0
 11 12  2  0  0  0  0
M  CHG  1   4   1
A    1
C0
A    2
C1
A    3
N1
A    4
N2
A    5
S2
A    6
C3
A    7
C4
A    8
C5
A    9
N6
A   10
C7
A   11
C8
A   12
C9
M  END
>  <InstanceId>
1C5Y_ESP_B_251

>  <ChemCompId>
ESP

>  <PdbId>
1C5Y

>  <ChainId>
B

>  <ResidueNumber>
251

>  <InsertionCode>


>  <Model>
1

>  <AltIds>


>  <MissingHeavyAtoms>
0

>  <ObservedFormula>
C8 N3 S

>  <Name>
THIENO[2,3-B]PYRIDINE-2-CARBOXAMIDINE

>  <SystematicName>
(amino-thieno[5,4-b]pyridin-2-yl-methylidene)azanium

>  <Synonyms>


>  <Type>
NON-POLYMER

>  <Formula>
C8 H8 N3 S

>  <MolecularWeight>
178.234

>  <ModifiedDate>
2011-06-04

>  <Parent>


>  <OneLetterCode>


>  <SubcomponentList>


>  <AmbiguousFlag>
N

>  <InChI>
InChI=1S/C8H7N3S/c9-7(10)6-4-5-2-1-3-11-8(5)12-6/h1-4H,(H3,9,10)/p+1

>  <InChIKey>
GZEJMYFXZMUAEC-UHFFFAOYSA-O

>  <SMILES>
c1cc2cc(sc2nc1)C(=[NH2+])N

$$$$
