4KWF_3AK_A_601


 18 20  0  0  0  0  0  0  0  0999 V2000
    0.0428  -29.3042   51.9336 O   0  0  0  0  0  0  0  0  0  0  0  0
   -0.3161  -28.0776   51.9917 C   0  0  0  0  0  0  0  0  0  0  0  0
   -0.6817  -27.4381   53.2379 C   0  0  0  0  0  0  0  0  0  0  0  0
   -0.6618  -28.0261   54.3743 O   0  0  0  0  0  0  0  0  0  0  0  0
   -1.0286  -26.0550   52.8779 C   0  0  0  0  0  0  0  0  0  0  0  0
   -0.3943  -27.2454   50.9528 N   0  0  0  0  0  0  0  0  0  0  0  0
   -0.8177  -26.0258   51.3938 C   0  0  0  0  0  0  0  0  0  0  0  0
   -1.0625  -24.8256   50.7449 C   0  0  0  0  0  0  0  0  0  0  0  0
   -1.5011  -23.7171   51.4707 C   0  0  0  0  0  0  0  0  0  0  0  0
   -1.6937  -23.7703   52.8679 C   0  0  0  0  0  0  0  0  0  0  0  0
   -1.4555  -24.9413   53.5846 C   0  0  0  0  0  0  0  0  0  0  0  0
   -0.0940  -27.6019   49.5823 C   0  0  0  0  0  0  0  0  0  0  0  0
    1.4005  -27.7512   49.3815 C   0  0  0  0  0  0  0  0  0  0  0  0
    1.8691  -28.7162   48.4935 C   0  0  0  0  0  0  0  0  0  0  0  0
    3.2332  -28.8795   48.3003 C   0  0  0  0  0  0  0  0  0  0  0  0
    4.1406  -28.0860   48.9945 C   0  0  0  0  0  0  0  0  0  0  0  0
    3.6844  -27.1252   49.8888 C   0  0  0  0  0  0  0  0  0  0  0  0
    2.3142  -26.9494   50.0843 C   0  0  0  0  0  0  0  0  0  0  0  0
 16 15  2  0  0  0
 16 17  1  0  0  0
 15 14  1  0  0  0
 17 18  2  0  0  0
 14 13  2  0  0  0
  1  2  2  0  0  0
 18 13  1  0  0  0
 13 12  1  0  0  0
  4  3  2  0  0  0
  2  3  1  0  0  0
  2  6  1  0  0  0
  3  5  1  0  0  0
 12  6  1  0  0  0
  6  7  1  0  0  0
  5  7  2  0  0  0
  5 11  1  0  0  0
  7  8  1  0  0  0
 11 10  2  0  0  0
  8  9  2  0  0  0
 10  9  1  0  0  0
M  END
> <minimizedAffinity>
-8.84292

$$$$
4KWF_3AK_A_601


 18 20  0  0  0  0  0  0  0  0999 V2000
   -0.7711  -28.9192   49.6558 O   0  0  0  0  0  0  0  0  0  0  0  0
    0.4065  -28.4386   49.7931 C   0  0  0  0  0  0  0  0  0  0  0  0
    1.4196  -28.5721   48.7676 C   0  0  0  0  0  0  0  0  0  0  0  0
    1.2263  -29.1563   47.6455 O   0  0  0  0  0  0  0  0  0  0  0  0
    2.6104  -27.8991   49.3077 C   0  0  0  0  0  0  0  0  0  0  0  0
    0.8475  -27.7664   50.8569 N   0  0  0  0  0  0  0  0  0  0  0  0
    2.1502  -27.4173   50.6509 C   0  0  0  0  0  0  0  0  0  0  0  0
    3.0693  -26.7218   51.4210 C   0  0  0  0  0  0  0  0  0  0  0  0
    4.3634  -26.5118   50.9424 C   0  0  0  0  0  0  0  0  0  0  0  0
    4.7732  -26.9769   49.6744 C   0  0  0  0  0  0  0  0  0  0  0  0
    3.8973  -27.6731   48.8439 C   0  0  0  0  0  0  0  0  0  0  0  0
    0.0626  -27.4805   52.0391 C   0  0  0  0  0  0  0  0  0  0  0  0
   -0.5515  -26.0978   51.9544 C   0  0  0  0  0  0  0  0  0  0  0  0
   -1.1758  -25.5664   53.0801 C   0  0  0  0  0  0  0  0  0  0  0  0
   -1.7548  -24.3069   53.0247 C   0  0  0  0  0  0  0  0  0  0  0  0
   -1.7208  -23.5698   51.8456 C   0  0  0  0  0  0  0  0  0  0  0  0
   -1.1074  -24.0934   50.7139 C   0  0  0  0  0  0  0  0  0  0  0  0
   -0.5166  -25.3563   50.7624 C   0  0  0  0  0  0  0  0  0  0  0  0
 16 15  2  0  0  0
 16 17  1  0  0  0
 15 14  1  0  0  0
 17 18  2  0  0  0
 14 13  2  0  0  0
  1  2  2  0  0  0
 18 13  1  0  0  0
 13 12  1  0  0  0
  4  3  2  0  0  0
  2  3  1  0  0  0
  2  6  1  0  0  0
  3  5  1  0  0  0
 12  6  1  0  0  0
  6  7  1  0  0  0
  5  7  2  0  0  0
  5 11  1  0  0  0
  7  8  1  0  0  0
 11 10  2  0  0  0
  8  9  2  0  0  0
 10  9  1  0  0  0
M  END
> <minimizedAffinity>
-8.70859

$$$$
4KWF_3AK_A_601


 18 20  0  0  0  0  0  0  0  0999 V2000
   -0.5904  -28.5239   49.9831 O   0  0  0  0  0  0  0  0  0  0  0  0
    0.6494  -28.3567   49.7155 C   0  0  0  0  0  0  0  0  0  0  0  0
    1.2538  -28.8682   48.5036 C   0  0  0  0  0  0  0  0  0  0  0  0
    0.6106  -29.5060   47.5998 O   0  0  0  0  0  0  0  0  0  0  0  0
    2.6686  -28.4738   48.5785 C   0  0  0  0  0  0  0  0  0  0  0  0
    1.5245  -27.7062   50.4831 N   0  0  0  0  0  0  0  0  0  0  0  0
    2.7488  -27.7371   49.8819 C   0  0  0  0  0  0  0  0  0  0  0  0
    3.9851  -27.2235   50.2417 C   0  0  0  0  0  0  0  0  0  0  0  0
    5.0894  -27.4168   49.4105 C   0  0  0  0  0  0  0  0  0  0  0  0
    4.9885  -28.1156   48.1884 C   0  0  0  0  0  0  0  0  0  0  0  0
    3.7742  -28.6482   47.7603 C   0  0  0  0  0  0  0  0  0  0  0  0
    1.2122  -27.0905   51.7554 C   0  0  0  0  0  0  0  0  0  0  0  0
    0.0702  -26.1054   51.6092 C   0  0  0  0  0  0  0  0  0  0  0  0
   -0.9029  -26.0476   52.6038 C   0  0  0  0  0  0  0  0  0  0  0  0
   -1.9641  -25.1616   52.4879 C   0  0  0  0  0  0  0  0  0  0  0  0
   -2.0665  -24.3302   51.3774 C   0  0  0  0  0  0  0  0  0  0  0  0
   -1.1054  -24.3849   50.3751 C   0  0  0  0  0  0  0  0  0  0  0  0
   -0.0312  -25.2680   50.4866 C   0  0  0  0  0  0  0  0  0  0  0  0
 16 15  2  0  0  0
 16 17  1  0  0  0
 15 14  1  0  0  0
 17 18  2  0  0  0
 14 13  2  0  0  0
  1  2  2  0  0  0
 18 13  1  0  0  0
 13 12  1  0  0  0
  4  3  2  0  0  0
  2  3  1  0  0  0
  2  6  1  0  0  0
  3  5  1  0  0  0
 12  6  1  0  0  0
  6  7  1  0  0  0
  5  7  2  0  0  0
  5 11  1  0  0  0
  7  8  1  0  0  0
 11 10  2  0  0  0
  8  9  2  0  0  0
 10  9  1  0  0  0
M  END
> <minimizedAffinity>
-8.58910

$$$$
4KWF_3AK_A_601


 18 20  0  0  0  0  0  0  0  0999 V2000
    1.7531  -26.0200   52.3961 O   0  0  0  0  0  0  0  0  0  0  0  0
    1.9814  -26.7296   51.3564 C   0  0  0  0  0  0  0  0  0  0  0  0
    3.2857  -26.7861   50.7310 C   0  0  0  0  0  0  0  0  0  0  0  0
    4.3126  -26.1572   51.1642 O   0  0  0  0  0  0  0  0  0  0  0  0
    3.1280  -27.6932   49.5842 C   0  0  0  0  0  0  0  0  0  0  0  0
    1.0855  -27.4935   50.7304 N   0  0  0  0  0  0  0  0  0  0  0  0
    1.6853  -28.0940   49.6623 C   0  0  0  0  0  0  0  0  0  0  0  0
    1.2209  -28.9722   48.6956 C   0  0  0  0  0  0  0  0  0  0  0  0
    2.0824  -29.4304   47.6977 C   0  0  0  0  0  0  0  0  0  0  0  0
    3.4369  -29.0370   47.6448 C   0  0  0  0  0  0  0  0  0  0  0  0
    3.9723  -28.1658   48.5913 C   0  0  0  0  0  0  0  0  0  0  0  0
   -0.3006  -27.6347   51.1233 C   0  0  0  0  0  0  0  0  0  0  0  0
   -0.8612  -26.3100   51.5999 C   0  0  0  0  0  0  0  0  0  0  0  0
   -1.1647  -26.1520   52.9498 C   0  0  0  0  0  0  0  0  0  0  0  0
   -1.6889  -24.9524   53.4089 C   0  0  0  0  0  0  0  0  0  0  0  0
   -1.9195  -23.9031   52.5254 C   0  0  0  0  0  0  0  0  0  0  0  0
   -1.6276  -24.0523   51.1750 C   0  0  0  0  0  0  0  0  0  0  0  0
   -1.0939  -25.2527   50.7055 C   0  0  0  0  0  0  0  0  0  0  0  0
 16 15  2  0  0  0
 16 17  1  0  0  0
 15 14  1  0  0  0
 17 18  2  0  0  0
 14 13  2  0  0  0
  1  2  2  0  0  0
 18 13  1  0  0  0
 13 12  1  0  0  0
  4  3  2  0  0  0
  2  3  1  0  0  0
  2  6  1  0  0  0
  3  5  1  0  0  0
 12  6  1  0  0  0
  6  7  1  0  0  0
  5  7  2  0  0  0
  5 11  1  0  0  0
  7  8  1  0  0  0
 11 10  2  0  0  0
  8  9  2  0  0  0
 10  9  1  0  0  0
M  END
> <minimizedAffinity>
-6.34646

$$$$
4KWF_3AK_A_601


 18 20  0  0  0  0  0  0  0  0999 V2000
    1.6820  -26.0015   52.3909 O   0  0  0  0  0  0  0  0  0  0  0  0
    1.9315  -26.7086   51.3543 C   0  0  0  0  0  0  0  0  0  0  0  0
    3.2461  -26.7565   50.7502 C   0  0  0  0  0  0  0  0  0  0  0  0
    4.2620  -26.1220   51.2008 O   0  0  0  0  0  0  0  0  0  0  0  0
    3.1125  -27.6632   49.6000 C   0  0  0  0  0  0  0  0  0  0  0  0
    1.0504  -27.4771   50.7130 N   0  0  0  0  0  0  0  0  0  0  0  0
    1.6712  -28.0727   49.6542 C   0  0  0  0  0  0  0  0  0  0  0  0
    1.2278  -28.9525   48.6791 C   0  0  0  0  0  0  0  0  0  0  0  0
    2.1082  -29.4043   47.6949 C   0  0  0  0  0  0  0  0  0  0  0  0
    3.4610  -29.0028   47.6644 C   0  0  0  0  0  0  0  0  0  0  0  0
    3.9757  -28.1296   48.6205 C   0  0  0  0  0  0  0  0  0  0  0  0
   -0.3410  -27.6270   51.0831 C   0  0  0  0  0  0  0  0  0  0  0  0
   -0.9034  -26.3178   51.5988 C   0  0  0  0  0  0  0  0  0  0  0  0
   -1.1342  -25.2810   50.6983 C   0  0  0  0  0  0  0  0  0  0  0  0
   -1.6387  -24.0692   51.1474 C   0  0  0  0  0  0  0  0  0  0  0  0
   -1.9119  -23.8797   52.4981 C   0  0  0  0  0  0  0  0  0  0  0  0
   -1.6781  -24.9048   53.4067 C   0  0  0  0  0  0  0  0  0  0  0  0
   -1.1773  -26.1291   52.9631 C   0  0  0  0  0  0  0  0  0  0  0  0
 16 15  2  0  0  0
 16 17  1  0  0  0
 15 14  1  0  0  0
 17 18  2  0  0  0
 14 13  2  0  0  0
  1  2  2  0  0  0
 18 13  1  0  0  0
 13 12  1  0  0  0
  4  3  2  0  0  0
  2  3  1  0  0  0
  2  6  1  0  0  0
  3  5  1  0  0  0
 12  6  1  0  0  0
  6  7  1  0  0  0
  5  7  2  0  0  0
  5 11  1  0  0  0
  7  8  1  0  0  0
 11 10  2  0  0  0
  8  9  2  0  0  0
 10  9  1  0  0  0
M  END
> <minimizedAffinity>
-6.31410

$$$$
4KWF_3AK_A_601


 18 20  0  0  0  0  0  0  0  0999 V2000
   -0.4100  -25.0892   49.0452 O   0  0  0  0  0  0  0  0  0  0  0  0
   -0.4799  -25.5987   50.2166 C   0  0  0  0  0  0  0  0  0  0  0  0
   -1.0418  -24.8786   51.3397 C   0  0  0  0  0  0  0  0  0  0  0  0
   -1.5262  -23.6969   51.2594 O   0  0  0  0  0  0  0  0  0  0  0  0
   -0.9331  -25.7966   52.4836 C   0  0  0  0  0  0  0  0  0  0  0  0
   -0.0669  -26.8210   50.5533 N   0  0  0  0  0  0  0  0  0  0  0  0
   -0.2938  -27.0135   51.8848 C   0  0  0  0  0  0  0  0  0  0  0  0
   -0.0595  -28.0852   52.7322 C   0  0  0  0  0  0  0  0  0  0  0  0
   -0.4014  -27.9946   54.0823 C   0  0  0  0  0  0  0  0  0  0  0  0
   -1.0011  -26.8368   54.6227 C   0  0  0  0  0  0  0  0  0  0  0  0
   -1.2751  -25.7274   53.8253 C   0  0  0  0  0  0  0  0  0  0  0  0
    0.5405  -27.7694   49.6438 C   0  0  0  0  0  0  0  0  0  0  0  0
    2.0414  -27.5695   49.5832 C   0  0  0  0  0  0  0  0  0  0  0  0
    2.8040  -28.4204   48.7871 C   0  0  0  0  0  0  0  0  0  0  0  0
    4.1810  -28.2645   48.7231 C   0  0  0  0  0  0  0  0  0  0  0  0
    4.8090  -27.2629   49.4561 C   0  0  0  0  0  0  0  0  0  0  0  0
    4.0588  -26.4130   50.2598 C   0  0  0  0  0  0  0  0  0  0  0  0
    2.6727  -26.5581   50.3250 C   0  0  0  0  0  0  0  0  0  0  0  0
 16 15  2  0  0  0
 16 17  1  0  0  0
 15 14  1  0  0  0
 17 18  2  0  0  0
 14 13  2  0  0  0
  1  2  2  0  0  0
 18 13  1  0  0  0
 13 12  1  0  0  0
  4  3  2  0  0  0
  2  3  1  0  0  0
  2  6  1  0  0  0
  3  5  1  0  0  0
 12  6  1  0  0  0
  6  7  1  0  0  0
  5  7  2  0  0  0
  5 11  1  0  0  0
  7  8  1  0  0  0
 11 10  2  0  0  0
  8  9  2  0  0  0
 10  9  1  0  0  0
M  END
> <minimizedAffinity>
-6.11692

$$$$
4KWF_3AK_A_601


 18 20  0  0  0  0  0  0  0  0999 V2000
   -0.7507  -28.0679   49.2851 O   0  0  0  0  0  0  0  0  0  0  0  0
    0.5151  -27.8822   49.2944 C   0  0  0  0  0  0  0  0  0  0  0  0
    1.4325  -28.7811   48.6267 C   0  0  0  0  0  0  0  0  0  0  0  0
    1.0655  -29.8128   47.9645 O   0  0  0  0  0  0  0  0  0  0  0  0
    2.7713  -28.2258   48.8760 C   0  0  0  0  0  0  0  0  0  0  0  0
    1.1428  -26.8689   49.8922 N   0  0  0  0  0  0  0  0  0  0  0  0
    2.4863  -27.0040   49.6970 C   0  0  0  0  0  0  0  0  0  0  0  0
    3.5744  -26.2426   50.0944 C   0  0  0  0  0  0  0  0  0  0  0  0
    4.8664  -26.6351   49.7418 C   0  0  0  0  0  0  0  0  0  0  0  0
    5.1090  -27.7910   48.9690 C   0  0  0  0  0  0  0  0  0  0  0  0
    4.0610  -28.5956   48.5265 C   0  0  0  0  0  0  0  0  0  0  0  0
    0.4893  -25.8159   50.6402 C   0  0  0  0  0  0  0  0  0  0  0  0
   -0.0349  -26.3416   51.9612 C   0  0  0  0  0  0  0  0  0  0  0  0
   -1.0377  -25.6338   52.6191 C   0  0  0  0  0  0  0  0  0  0  0  0
   -1.5267  -26.0888   53.8350 C   0  0  0  0  0  0  0  0  0  0  0  0
   -1.0164  -27.2496   54.4070 C   0  0  0  0  0  0  0  0  0  0  0  0
   -0.0102  -27.9595   53.7631 C   0  0  0  0  0  0  0  0  0  0  0  0
    0.4829  -27.5131   52.5367 C   0  0  0  0  0  0  0  0  0  0  0  0
 16 15  2  0  0  0
 16 17  1  0  0  0
 15 14  1  0  0  0
 17 18  2  0  0  0
 14 13  2  0  0  0
  1  2  2  0  0  0
 18 13  1  0  0  0
 13 12  1  0  0  0
  4  3  2  0  0  0
  2  3  1  0  0  0
  2  6  1  0  0  0
  3  5  1  0  0  0
 12  6  1  0  0  0
  6  7  1  0  0  0
  5  7  2  0  0  0
  5 11  1  0  0  0
  7  8  1  0  0  0
 11 10  2  0  0  0
  8  9  2  0  0  0
 10  9  1  0  0  0
M  END
> <minimizedAffinity>
-5.94461

$$$$
