1KMY_BPY_A_300
  RCSB PDB12061703063D
Coordinates from PDB:1KMY:A:300 Model:1 without hydrogens
 14 15  0  0  0  0            999 V2000
   20.6190  -23.1650   72.4330   C 0  0  0  0  0  0  0  0  0  0  0  0
   21.9080  -22.6340   72.3610   C 0  0  0  0  0  0  0  0  0  0  0  0
   22.1060  -21.3260   71.9030   C 0  0  0  0  0  0  0  0  0  0  0  0
   21.0270  -20.5520   71.5300   C 0  0  0  0  0  0  0  0  0  0  0  0
   19.7160  -21.0890   71.6030   C 0  0  0  0  0  0  0  0  0  0  0  0
   19.5270  -22.3910   72.0500   C 0  0  0  0  0  0  0  0  0  0  0  0
   23.1120  -23.4150   72.7760   C 0  0  0  0  0  0  0  0  0  0  0  0
   23.4660  -23.4570   74.1180   C 0  0  0  0  0  0  0  0  0  0  0  0
   24.5830  -24.1590   74.5260   C 0  0  0  0  0  0  0  0  0  0  0  0
   25.3420  -24.8330   73.5970   C 0  0  0  0  0  0  0  0  0  0  0  0
   24.9890  -24.7950   72.2610   C 0  0  0  0  0  0  0  0  0  0  0  0
   23.8690  -24.0940   71.8510   C 0  0  0  0  0  0  0  0  0  0  0  0
   21.2510  -19.2520   71.0840   O 0  0  0  0  0  0  0  0  0  0  0  0
   23.3830  -20.7990   71.8250   O 0  0  0  0  0  0  0  0  0  0  0  0
  1  2  2  0  0  0  0
  1  6  1  0  0  0  0
  2  3  1  0  0  0  0
  2  7  1  0  0  0  0
  3  4  2  0  0  0  0
  3 14  1  0  0  0  0
  4  5  1  0  0  0  0
  4 13  1  0  0  0  0
  5  6  2  0  0  0  0
  7  8  2  0  0  0  0
  7 12  1  0  0  0  0
  8  9  1  0  0  0  0
  9 10  2  0  0  0  0
 10 11  1  0  0  0  0
 11 12  2  0  0  0  0
A    1
CK1
A    2
CK2
A    3
CK3
A    4
CK4
A    5
CK5
A    6
CK6
A    7
CK7
A    8
CK8
A    9
CK9
A   10
CKA
A   11
CKB
A   12
CKC
A   13
OK1
A   14
OK2
M  END
>  <InstanceId>
1KMY_BPY_A_300

>  <ChemCompId>
BPY

>  <PdbId>
1KMY

>  <ChainId>
A

>  <ResidueNumber>
300

>  <InsertionCode>


>  <Model>
1

>  <AltIds>


>  <MissingHeavyAtoms>
0

>  <ObservedFormula>
C12 O2

>  <Name>
BIPHENYL-2,3-DIOL

>  <SystematicName>
3-phenylbenzene-1,2-diol

>  <Synonyms>


>  <Type>
NON-POLYMER

>  <Formula>
C12 H10 O2

>  <MolecularWeight>
186.207

>  <ModifiedDate>
2011-06-04

>  <Parent>


>  <OneLetterCode>


>  <SubcomponentList>


>  <AmbiguousFlag>
N

>  <InChI>
InChI=1S/C12H10O2/c13-11-8-4-7-10(12(11)14)9-5-2-1-3-6-9/h1-8,13-14H

>  <InChIKey>
YKOQAAJBYBTSBS-UHFFFAOYSA-N

>  <SMILES>
c1ccc(cc1)c2cccc(c2O)O

$$$$
