1KMY_BPY_A_300


 16 17  0  0  0  0  0  0  0  0999 V2000
   23.8294  -23.1195   74.4905 C   0  0  0  0  0  0  0  0  0  0  0  0
   23.3472  -23.2954   73.1923 C   0  0  0  0  0  0  0  0  0  0  0  0
   24.0555  -24.0855   72.2792 C   0  0  0  0  0  0  0  0  0  0  0  0
   25.2285  -24.7024   72.6611 C   0  0  0  0  0  0  0  0  0  0  0  0
   25.7203  -24.5259   73.9800 C   0  0  0  0  0  0  0  0  0  0  0  0
   25.0172  -23.7331   74.8788 C   0  0  0  0  0  0  0  0  0  0  0  0
   25.9103  -25.4880   71.7354 O   0  0  0  0  0  0  0  0  0  0  0  0
   23.5830  -24.2569   70.9901 O   0  0  0  0  0  0  0  0  0  0  0  0
   25.5698  -25.5928   70.8688 H   0  0  0  0  0  0  0  0  0  0  0  0
   22.7868  -23.8409   70.7237 H   0  0  0  0  0  0  0  0  0  0  0  0
   22.0696  -22.6743   72.7297 C   0  0  0  0  0  0  0  0  0  0  0  0
   22.0419  -21.3187   72.4301 C   0  0  0  0  0  0  0  0  0  0  0  0
   20.8703  -20.7170   72.0152 C   0  0  0  0  0  0  0  0  0  0  0  0
   19.7260  -21.4699   71.8846 C   0  0  0  0  0  0  0  0  0  0  0  0
   19.7527  -22.8202   72.1792 C   0  0  0  0  0  0  0  0  0  0  0  0
   20.9262  -23.4249   72.5928 C   0  0  0  0  0  0  0  0  0  0  0  0
  1  2  2  0  0  0
  1  6  1  0  0  0
  2  3  1  0  0  0
  2 11  1  0  0  0
  3  4  2  0  0  0
  3  8  1  0  0  0
  4  5  1  0  0  0
  4  7  1  0  0  0
  5  6  2  0  0  0
 11 12  2  0  0  0
 11 16  1  0  0  0
 12 13  1  0  0  0
 13 14  2  0  0  0
 14 15  1  0  0  0
 15 16  2  0  0  0
  7  9  1  0  0  0
  8 10  1  0  0  0
M  END
> <minimizedAffinity>
-7.59283

$$$$
1KMY_BPY_A_300


 16 17  0  0  0  0  0  0  0  0999 V2000
   22.1494  -20.9498   72.6004 C   0  0  0  0  0  0  0  0  0  0  0  0
   22.1685  -22.3312   72.8006 C   0  0  0  0  0  0  0  0  0  0  0  0
   21.0396  -23.1020   72.4983 C   0  0  0  0  0  0  0  0  0  0  0  0
   19.9062  -22.5012   71.9915 C   0  0  0  0  0  0  0  0  0  0  0  0
   19.8846  -21.0977   71.7863 C   0  0  0  0  0  0  0  0  0  0  0  0
   21.0052  -20.3371   72.0968 C   0  0  0  0  0  0  0  0  0  0  0  0
   18.7993  -23.2917   71.6932 O   0  0  0  0  0  0  0  0  0  0  0  0
   21.0536  -24.4706   72.7013 O   0  0  0  0  0  0  0  0  0  0  0  0
   18.8325  -24.2173   71.8355 H   0  0  0  0  0  0  0  0  0  0  0  0
   21.8201  -24.8855   73.0452 H   0  0  0  0  0  0  0  0  0  0  0  0
   23.3755  -23.0406   73.3216 C   0  0  0  0  0  0  0  0  0  0  0  0
   23.5802  -23.1174   74.6929 C   0  0  0  0  0  0  0  0  0  0  0  0
   24.6958  -23.7542   75.1999 C   0  0  0  0  0  0  0  0  0  0  0  0
   25.6032  -24.3286   74.3396 C   0  0  0  0  0  0  0  0  0  0  0  0
   25.3992  -24.2560   72.9743 C   0  0  0  0  0  0  0  0  0  0  0  0
   24.2809  -23.6204   72.4650 C   0  0  0  0  0  0  0  0  0  0  0  0
  1  2  2  0  0  0
  1  6  1  0  0  0
  2  3  1  0  0  0
  2 11  1  0  0  0
  3  4  2  0  0  0
  3  8  1  0  0  0
  4  5  1  0  0  0
  4  7  1  0  0  0
  5  6  2  0  0  0
 11 12  2  0  0  0
 11 16  1  0  0  0
 12 13  1  0  0  0
 13 14  2  0  0  0
 14 15  1  0  0  0
 15 16  2  0  0  0
  7  9  1  0  0  0
  8 10  1  0  0  0
M  END
> <minimizedAffinity>
-7.28889

$$$$
1KMY_BPY_A_300


 16 17  0  0  0  0  0  0  0  0999 V2000
   20.7309  -23.7481   72.6766 C   0  0  0  0  0  0  0  0  0  0  0  0
   21.8999  -22.9852   72.6704 C   0  0  0  0  0  0  0  0  0  0  0  0
   21.8609  -21.6402   72.2841 C   0  0  0  0  0  0  0  0  0  0  0  0
   20.6648  -21.0594   71.9173 C   0  0  0  0  0  0  0  0  0  0  0  0
   19.4752  -21.8322   71.9236 C   0  0  0  0  0  0  0  0  0  0  0  0
   19.5222  -23.1691   72.2994 C   0  0  0  0  0  0  0  0  0  0  0  0
   20.6525  -19.7181   71.5435 O   0  0  0  0  0  0  0  0  0  0  0  0
   23.0190  -20.8832   72.2714 O   0  0  0  0  0  0  0  0  0  0  0  0
   21.4485  -19.2238   71.5456 H   0  0  0  0  0  0  0  0  0  0  0  0
   23.8351  -21.2712   72.5193 H   0  0  0  0  0  0  0  0  0  0  0  0
   23.2192  -23.5521   73.0826 C   0  0  0  0  0  0  0  0  0  0  0  0
   23.6566  -23.3766   74.3887 C   0  0  0  0  0  0  0  0  0  0  0  0
   24.8790  -23.8773   74.7912 C   0  0  0  0  0  0  0  0  0  0  0  0
   25.6622  -24.5672   73.8945 C   0  0  0  0  0  0  0  0  0  0  0  0
   25.2267  -24.7458   72.5947 C   0  0  0  0  0  0  0  0  0  0  0  0
   24.0013  -24.2467   72.1906 C   0  0  0  0  0  0  0  0  0  0  0  0
  1  2  2  0  0  0
  1  6  1  0  0  0
  2  3  1  0  0  0
  2 11  1  0  0  0
  3  4  2  0  0  0
  3  8  1  0  0  0
  4  5  1  0  0  0
  4  7  1  0  0  0
  5  6  2  0  0  0
 11 12  2  0  0  0
 11 16  1  0  0  0
 12 13  1  0  0  0
 13 14  2  0  0  0
 14 15  1  0  0  0
 15 16  2  0  0  0
  7  9  1  0  0  0
  8 10  1  0  0  0
M  END
> <minimizedAffinity>
-7.07162

$$$$
1KMY_BPY_A_300


 16 17  0  0  0  0  0  0  0  0999 V2000
   23.6571  -24.5612   71.5045 C   0  0  0  0  0  0  0  0  0  0  0  0
   23.2517  -23.6150   72.4474 C   0  0  0  0  0  0  0  0  0  0  0  0
   24.0453  -23.3563   73.5713 C   0  0  0  0  0  0  0  0  0  0  0  0
   25.2369  -24.0283   73.7472 C   0  0  0  0  0  0  0  0  0  0  0  0
   25.6515  -24.9897   72.7901 C   0  0  0  0  0  0  0  0  0  0  0  0
   24.8550  -25.2483   71.6813 C   0  0  0  0  0  0  0  0  0  0  0  0
   26.0104  -23.7476   74.8706 O   0  0  0  0  0  0  0  0  0  0  0  0
   23.6431  -22.4233   74.5105 O   0  0  0  0  0  0  0  0  0  0  0  0
   25.7199  -23.1092   75.4919 H   0  0  0  0  0  0  0  0  0  0  0  0
   22.8348  -21.9630   74.3974 H   0  0  0  0  0  0  0  0  0  0  0  0
   21.9850  -22.8375   72.2969 C   0  0  0  0  0  0  0  0  0  0  0  0
   22.0481  -21.4608   72.1277 C   0  0  0  0  0  0  0  0  0  0  0  0
   20.8915  -20.7169   72.0016 C   0  0  0  0  0  0  0  0  0  0  0  0
   19.6686  -21.3472   72.0299 C   0  0  0  0  0  0  0  0  0  0  0  0
   19.6042  -22.7182   72.1949 C   0  0  0  0  0  0  0  0  0  0  0  0
   20.7621  -23.4650   72.3191 C   0  0  0  0  0  0  0  0  0  0  0  0
  1  2  2  0  0  0
  1  6  1  0  0  0
  2  3  1  0  0  0
  2 11  1  0  0  0
  3  4  2  0  0  0
  3  8  1  0  0  0
  4  5  1  0  0  0
  4  7  1  0  0  0
  5  6  2  0  0  0
 11 12  2  0  0  0
 11 16  1  0  0  0
 12 13  1  0  0  0
 13 14  2  0  0  0
 14 15  1  0  0  0
 15 16  2  0  0  0
  7  9  1  0  0  0
  8 10  1  0  0  0
M  END
> <minimizedAffinity>
-6.80255

$$$$
1KMY_BPY_A_300


 16 17  0  0  0  0  0  0  0  0999 V2000
   25.7570  -25.1696   72.9546 C   0  0  0  0  0  0  0  0  0  0  0  0
   24.7708  -24.6834   72.0946 C   0  0  0  0  0  0  0  0  0  0  0  0
   23.8625  -23.7158   72.5403 C   0  0  0  0  0  0  0  0  0  0  0  0
   23.9441  -23.2309   73.8290 C   0  0  0  0  0  0  0  0  0  0  0  0
   24.9459  -23.7227   74.7047 C   0  0  0  0  0  0  0  0  0  0  0  0
   25.8387  -24.6896   74.2589 C   0  0  0  0  0  0  0  0  0  0  0  0
   23.0324  -22.2641   74.2453 O   0  0  0  0  0  0  0  0  0  0  0  0
   22.8803  -23.2363   71.6919 O   0  0  0  0  0  0  0  0  0  0  0  0
   22.3777  -21.9514   73.6524 H   0  0  0  0  0  0  0  0  0  0  0  0
   22.8190  -23.5612   70.8152 H   0  0  0  0  0  0  0  0  0  0  0  0
   24.6500  -25.1513   70.6810 C   0  0  0  0  0  0  0  0  0  0  0  0
   25.7922  -25.2509   69.8976 C   0  0  0  0  0  0  0  0  0  0  0  0
   25.7061  -25.6661   68.5834 C   0  0  0  0  0  0  0  0  0  0  0  0
   24.4809  -25.9968   68.0515 C   0  0  0  0  0  0  0  0  0  0  0  0
   23.3433  -25.9015   68.8310 C   0  0  0  0  0  0  0  0  0  0  0  0
   23.4282  -25.4878   70.1484 C   0  0  0  0  0  0  0  0  0  0  0  0
  1  2  2  0  0  0
  1  6  1  0  0  0
  2  3  1  0  0  0
  2 11  1  0  0  0
  3  4  2  0  0  0
  3  8  1  0  0  0
  4  5  1  0  0  0
  4  7  1  0  0  0
  5  6  2  0  0  0
 11 12  2  0  0  0
 11 16  1  0  0  0
 12 13  1  0  0  0
 13 14  2  0  0  0
 14 15  1  0  0  0
 15 16  2  0  0  0
  7  9  1  0  0  0
  8 10  1  0  0  0
M  END
> <minimizedAffinity>
-6.65991

$$$$
1KMY_BPY_A_300


 16 17  0  0  0  0  0  0  0  0999 V2000
   25.7732  -25.2125   73.1622 C   0  0  0  0  0  0  0  0  0  0  0  0
   24.7994  -24.8569   72.2274 C   0  0  0  0  0  0  0  0  0  0  0  0
   23.8667  -23.8571   72.5281 C   0  0  0  0  0  0  0  0  0  0  0  0
   23.9118  -23.2115   73.7461 C   0  0  0  0  0  0  0  0  0  0  0  0
   24.9009  -23.5705   74.6975 C   0  0  0  0  0  0  0  0  0  0  0  0
   25.8182  -24.5698   74.3964 C   0  0  0  0  0  0  0  0  0  0  0  0
   22.9763  -22.2164   74.0175 O   0  0  0  0  0  0  0  0  0  0  0  0
   22.8967  -23.5066   71.6057 O   0  0  0  0  0  0  0  0  0  0  0  0
   22.3305  -21.9931   73.3765 H   0  0  0  0  0  0  0  0  0  0  0  0
   22.8601  -23.9409   70.7763 H   0  0  0  0  0  0  0  0  0  0  0  0
   24.7177  -25.5021   70.8825 C   0  0  0  0  0  0  0  0  0  0  0  0
   23.6809  -26.3858   70.6140 C   0  0  0  0  0  0  0  0  0  0  0  0
   23.5912  -27.0073   69.3841 C   0  0  0  0  0  0  0  0  0  0  0  0
   24.5285  -26.7375   68.4136 C   0  0  0  0  0  0  0  0  0  0  0  0
   25.5594  -25.8553   68.6780 C   0  0  0  0  0  0  0  0  0  0  0  0
   25.6494  -25.2302   69.9089 C   0  0  0  0  0  0  0  0  0  0  0  0
  1  2  2  0  0  0
  1  6  1  0  0  0
  2  3  1  0  0  0
  2 11  1  0  0  0
  3  4  2  0  0  0
  3  8  1  0  0  0
  4  5  1  0  0  0
  4  7  1  0  0  0
  5  6  2  0  0  0
 11 12  2  0  0  0
 11 16  1  0  0  0
 12 13  1  0  0  0
 13 14  2  0  0  0
 14 15  1  0  0  0
 15 16  2  0  0  0
  7  9  1  0  0  0
  8 10  1  0  0  0
M  END
> <minimizedAffinity>
-6.39168

$$$$
1KMY_BPY_A_300


 16 17  0  0  0  0  0  0  0  0999 V2000
   25.7761  -24.7026   71.1488 C   0  0  0  0  0  0  0  0  0  0  0  0
   24.4395  -24.5963   71.5371 C   0  0  0  0  0  0  0  0  0  0  0  0
   23.4226  -25.0608   70.6944 C   0  0  0  0  0  0  0  0  0  0  0  0
   23.7373  -25.6350   69.4805 C   0  0  0  0  0  0  0  0  0  0  0  0
   25.0949  -25.7449   69.0840 C   0  0  0  0  0  0  0  0  0  0  0  0
   26.0990  -25.2738   69.9210 C   0  0  0  0  0  0  0  0  0  0  0  0
   22.7071  -26.0946   68.6640 O   0  0  0  0  0  0  0  0  0  0  0  0
   22.0965  -24.9515   71.0740 O   0  0  0  0  0  0  0  0  0  0  0  0
   21.8163  -26.0133   68.9431 H   0  0  0  0  0  0  0  0  0  0  0  0
   21.8753  -24.5625   71.8973 H   0  0  0  0  0  0  0  0  0  0  0  0
   24.0393  -24.0082   72.8508 C   0  0  0  0  0  0  0  0  0  0  0  0
   24.4219  -24.6431   74.0249 C   0  0  0  0  0  0  0  0  0  0  0  0
   24.0520  -24.1286   75.2518 C   0  0  0  0  0  0  0  0  0  0  0  0
   23.3110  -22.9707   75.3106 C   0  0  0  0  0  0  0  0  0  0  0  0
   22.9322  -22.3355   74.1427 C   0  0  0  0  0  0  0  0  0  0  0  0
   23.3038  -22.8485   72.9128 C   0  0  0  0  0  0  0  0  0  0  0  0
  1  2  2  0  0  0
  1  6  1  0  0  0
  2  3  1  0  0  0
  2 11  1  0  0  0
  3  4  2  0  0  0
  3  8  1  0  0  0
  4  5  1  0  0  0
  4  7  1  0  0  0
  5  6  2  0  0  0
 11 12  2  0  0  0
 11 16  1  0  0  0
 12 13  1  0  0  0
 13 14  2  0  0  0
 14 15  1  0  0  0
 15 16  2  0  0  0
  7  9  1  0  0  0
  8 10  1  0  0  0
M  END
> <minimizedAffinity>
-6.33420

$$$$
1KMY_BPY_A_300


 16 17  0  0  0  0  0  0  0  0999 V2000
   22.9897  -25.4182   70.4870 C   0  0  0  0  0  0  0  0  0  0  0  0
   24.2719  -25.0999   70.9380 C   0  0  0  0  0  0  0  0  0  0  0  0
   25.3748  -25.2534   70.0896 C   0  0  0  0  0  0  0  0  0  0  0  0
   25.1986  -25.7106   68.8003 C   0  0  0  0  0  0  0  0  0  0  0  0
   23.8965  -26.0339   68.3393 C   0  0  0  0  0  0  0  0  0  0  0  0
   22.8070  -25.8879   69.1892 C   0  0  0  0  0  0  0  0  0  0  0  0
   26.3116  -25.8482   67.9749 O   0  0  0  0  0  0  0  0  0  0  0  0
   26.6476  -24.9443   70.5357 O   0  0  0  0  0  0  0  0  0  0  0  0
   27.1638  -25.6295   68.2973 H   0  0  0  0  0  0  0  0  0  0  0  0
   26.7748  -24.6332   71.4104 H   0  0  0  0  0  0  0  0  0  0  0  0
   24.5213  -24.5757   72.3145 C   0  0  0  0  0  0  0  0  0  0  0  0
   23.6949  -23.5831   72.8243 C   0  0  0  0  0  0  0  0  0  0  0  0
   23.9132  -23.0706   74.0879 C   0  0  0  0  0  0  0  0  0  0  0  0
   24.9487  -23.5577   74.8520 C   0  0  0  0  0  0  0  0  0  0  0  0
   25.7703  -24.5483   74.3472 C   0  0  0  0  0  0  0  0  0  0  0  0
   25.5515  -25.0643   73.0824 C   0  0  0  0  0  0  0  0  0  0  0  0
  1  2  2  0  0  0
  1  6  1  0  0  0
  2  3  1  0  0  0
  2 11  1  0  0  0
  3  4  2  0  0  0
  3  8  1  0  0  0
  4  5  1  0  0  0
  4  7  1  0  0  0
  5  6  2  0  0  0
 11 12  2  0  0  0
 11 16  1  0  0  0
 12 13  1  0  0  0
 13 14  2  0  0  0
 14 15  1  0  0  0
 15 16  2  0  0  0
  7  9  1  0  0  0
  8 10  1  0  0  0
M  END
> <minimizedAffinity>
-6.31226

$$$$
1KMY_BPY_A_300


 16 17  0  0  0  0  0  0  0  0999 V2000
   24.1307  -24.6320   74.2468 C   0  0  0  0  0  0  0  0  0  0  0  0
   23.8734  -23.9921   73.0332 C   0  0  0  0  0  0  0  0  0  0  0  0
   23.2792  -22.7247   73.0177 C   0  0  0  0  0  0  0  0  0  0  0  0
   22.9541  -22.0976   74.2024 C   0  0  0  0  0  0  0  0  0  0  0  0
   23.2153  -22.7454   75.4371 C   0  0  0  0  0  0  0  0  0  0  0  0
   23.7971  -24.0072   75.4454 C   0  0  0  0  0  0  0  0  0  0  0  0
   22.3697  -20.8344   74.1592 O   0  0  0  0  0  0  0  0  0  0  0  0
   23.0176  -22.0905   71.8160 O   0  0  0  0  0  0  0  0  0  0  0  0
   22.2049  -20.4224   73.3339 H   0  0  0  0  0  0  0  0  0  0  0  0
   23.2357  -22.5105   71.0074 H   0  0  0  0  0  0  0  0  0  0  0  0
   24.2274  -24.6101   71.7199 C   0  0  0  0  0  0  0  0  0  0  0  0
   23.2252  -25.1737   70.9414 C   0  0  0  0  0  0  0  0  0  0  0  0
   23.5279  -25.7648   69.7307 C   0  0  0  0  0  0  0  0  0  0  0  0
   24.8302  -25.7825   69.2869 C   0  0  0  0  0  0  0  0  0  0  0  0
   25.8286  -25.2188   70.0591 C   0  0  0  0  0  0  0  0  0  0  0  0
   25.5267  -24.6242   71.2713 C   0  0  0  0  0  0  0  0  0  0  0  0
  1  2  2  0  0  0
  1  6  1  0  0  0
  2  3  1  0  0  0
  2 11  1  0  0  0
  3  4  2  0  0  0
  3  8  1  0  0  0
  4  5  1  0  0  0
  4  7  1  0  0  0
  5  6  2  0  0  0
 11 12  2  0  0  0
 11 16  1  0  0  0
 12 13  1  0  0  0
 13 14  2  0  0  0
 14 15  1  0  0  0
 15 16  2  0  0  0
  7  9  1  0  0  0
  8 10  1  0  0  0
M  END
> <minimizedAffinity>
-6.29134

$$$$
1KMY_BPY_A_300


 16 17  0  0  0  0  0  0  0  0999 V2000
   23.0884  -25.4432   70.2800 C   0  0  0  0  0  0  0  0  0  0  0  0
   24.3802  -25.2268   70.7629 C   0  0  0  0  0  0  0  0  0  0  0  0
   25.4901  -25.5422   69.9701 C   0  0  0  0  0  0  0  0  0  0  0  0
   25.3123  -26.0592   68.7038 C   0  0  0  0  0  0  0  0  0  0  0  0
   24.0006  -26.2793   68.2105 C   0  0  0  0  0  0  0  0  0  0  0  0
   22.9032  -25.9725   69.0058 C   0  0  0  0  0  0  0  0  0  0  0  0
   26.4331  -26.3585   67.9335 O   0  0  0  0  0  0  0  0  0  0  0  0
   26.7718  -25.3343   70.4483 O   0  0  0  0  0  0  0  0  0  0  0  0
   27.2917  -26.2061   68.2766 H   0  0  0  0  0  0  0  0  0  0  0  0
   26.9000  -24.9834   71.3076 H   0  0  0  0  0  0  0  0  0  0  0  0
   24.6345  -24.6451   72.1152 C   0  0  0  0  0  0  0  0  0  0  0  0
   25.6008  -25.2182   72.9312 C   0  0  0  0  0  0  0  0  0  0  0  0
   25.8446  -24.7092   74.1916 C   0  0  0  0  0  0  0  0  0  0  0  0
   25.1342  -23.6176   74.6356 C   0  0  0  0  0  0  0  0  0  0  0  0
   24.1743  -23.0438   73.8231 C   0  0  0  0  0  0  0  0  0  0  0  0
   23.9304  -23.5512   72.5593 C   0  0  0  0  0  0  0  0  0  0  0  0
  1  2  2  0  0  0
  1  6  1  0  0  0
  2  3  1  0  0  0
  2 11  1  0  0  0
  3  4  2  0  0  0
  3  8  1  0  0  0
  4  5  1  0  0  0
  4  7  1  0  0  0
  5  6  2  0  0  0
 11 12  2  0  0  0
 11 16  1  0  0  0
 12 13  1  0  0  0
 13 14  2  0  0  0
 14 15  1  0  0  0
 15 16  2  0  0  0
  7  9  1  0  0  0
  8 10  1  0  0  0
M  END
> <minimizedAffinity>
-6.28918

$$$$
