2X00_GYN_A_301
  RCSB PDB12061707213D
Coordinates from PDB:2X00:A:301 Model:1 without hydrogens
 37 41  0  0  0  0            999 V2000
    9.0160   24.9540  -10.4650   O 0  0  0  0  0  0  0  0  0  0  0  0
    7.8360   24.7870  -10.2270   C 0  0  0  0  0  0  0  0  0  0  0  0
    7.1590   25.4890   -9.1610   O 0  0  0  0  0  0  0  0  0  0  0  0
    5.7950   25.0690   -9.2170   C 0  0  0  0  0  0  0  0  0  0  0  0
    5.7130   23.8380  -10.1300   C 0  0  0  0  0  0  0  0  0  0  0  0
    6.9610   23.8710  -11.0040   C 0  0  0  0  0  0  0  0  0  0  0  0
    7.6190   22.5170  -11.2090   C 0  0  0  0  0  0  0  0  0  0  0  0
    5.2970   24.8030   -7.8230   C 0  0  0  0  0  0  0  0  0  0  0  0
    4.3300   25.5800   -7.2940   C 0  0  0  0  0  0  0  0  0  0  0  0
    3.6030   26.5720   -8.1770   C 0  0  0  0  0  0  0  0  0  0  0  0
    3.9290   25.5310   -5.8340   C 0  0  0  0  0  0  0  0  0  0  0  0
    4.9700   24.8090   -4.9650   C 0  0  0  0  0  0  0  0  0  0  0  0
    5.3610   23.5100   -5.6710   C 0  0  0  0  0  0  0  0  0  0  0  0
    5.9540   23.6800   -7.0610   C 0  0  0  0  0  0  0  0  0  0  0  0
    3.6900   26.9470   -5.3330   C 0  0  0  0  0  0  0  0  0  0  0  0
    2.5050   27.4710   -4.9480   C 0  0  0  0  0  0  0  0  0  0  0  0
    1.2120   26.6910   -4.9790   C 0  0  0  0  0  0  0  0  0  0  0  0
    2.4980   28.9090   -4.4870   C 0  0  0  0  0  0  0  0  0  0  0  0
    1.6980   29.6680   -5.4060   O 0  0  0  0  0  0  0  0  0  0  0  0
    1.8910   29.0410   -3.0950   C 0  0  0  0  0  0  0  0  0  0  0  0
    2.8930   28.8780   -1.9670   C 0  0  0  0  0  0  0  0  0  0  0  0
    2.6620   27.6040   -1.1680   C 0  0  0  0  0  0  0  0  0  0  0  0
    3.2590   27.6400    0.2350   C 0  0  0  0  0  0  0  0  0  0  0  0
    2.3320   26.7750    1.0730   C 0  0  0  0  0  0  0  0  0  0  0  0
    1.7070   27.6100    2.1920   C 0  0  0  0  0  0  0  0  0  0  0  0
    1.2900   27.2320   -0.9700   O 0  0  0  0  0  0  0  0  0  0  0  0
    1.2610   26.2770    0.1100   C 0  0  0  0  0  0  0  0  0  0  0  0
    1.5500   24.8640   -0.3510   C 0  0  0  0  0  0  0  0  0  0  0  0
    1.1950   23.7000    0.5460   C 0  0  0  0  0  0  0  0  0  0  0  0
    2.1020   24.6670   -1.5670   C 0  0  0  0  0  0  0  0  0  0  0  0
    2.4700   23.3380   -2.2020   C 0  0  0  0  0  0  0  0  0  0  0  0
    3.0310   23.5600   -3.6150   C 0  0  0  0  0  0  0  0  0  0  0  0
    4.3370   24.3520   -3.6540   C 0  0  0  0  0  0  0  0  0  0  0  0
    4.9310   24.6090   -2.5600   N 0  0  0  0  0  0  0  0  0  0  0  0
    6.3120   24.9990   -2.3160   C 0  0  0  0  0  0  0  0  0  0  0  0
    6.5960   26.0960   -3.3310   C 0  0  0  0  0  0  0  0  0  0  0  0
    6.2110   25.7110   -4.7570   C 0  0  0  0  0  0  0  0  0  0  0  0
  1  2  2  0  0  0  0
  2  3  1  0  0  0  0
  2  6  1  0  0  0  0
  3  4  1  0  0  0  0
  4  5  1  0  0  0  0
  4  8  1  0  0  0  0
  5  6  1  0  0  0  0
  6  7  1  0  0  0  0
  8  9  2  0  0  0  0
  8 14  1  0  0  0  0
  9 10  1  0  0  0  0
  9 11  1  0  0  0  0
 11 12  1  0  0  0  0
 11 15  1  0  0  0  0
 12 13  1  0  0  0  0
 12 33  1  0  0  0  0
 12 37  1  0  0  0  0
 13 14  1  0  0  0  0
 15 16  2  0  0  0  0
 16 17  1  0  0  0  0
 16 18  1  0  0  0  0
 18 19  1  0  0  0  0
 18 20  1  0  0  0  0
 20 21  1  0  0  0  0
 21 22  1  0  0  0  0
 22 23  1  0  0  0  0
 22 26  1  0  0  0  0
 23 24  1  0  0  0  0
 24 25  1  0  0  0  0
 24 27  1  0  0  0  0
 26 27  1  0  0  0  0
 27 28  1  0  0  0  0
 28 29  1  0  0  0  0
 28 30  2  0  0  0  0
 30 31  1  0  0  0  0
 31 32  1  0  0  0  0
 32 33  1  0  0  0  0
 33 34  2  0  0  0  0
 34 35  1  0  0  0  0
 35 36  1  0  0  0  0
 36 37  1  0  0  0  0
A    1
O6
A    2
C5
A    3
O1
A    4
C2
A    5
C3
A    6
C4
A    7
C7
A    8
C8
A    9
C13
A   10
C14
A   11
C12
A   12
C27
A   13
C10
A   14
C9
A   15
C15
A   16
C16
A   17
C19
A   18
C17
A   19
O20
A   20
C18
A   21
C21
A   22
C43
A   23
C47
A   24
C48
A   25
C49
A   26
O43
A   27
C37
A   28
C36
A   29
C38
A   30
C35
A   31
C34
A   32
C33
A   33
C32
A   34
N31
A   35
C30
A   36
C46
A   37
C28
M  END
>  <InstanceId>
2X00_GYN_A_301

>  <ChemCompId>
GYN

>  <PdbId>
2X00

>  <ChainId>
A

>  <ResidueNumber>
301

>  <InsertionCode>


>  <Model>
1

>  <AltIds>


>  <MissingHeavyAtoms>
0

>  <ObservedFormula>
C32 N O4

>  <Name>
GYMNODIMINE A

>  <SystematicName>


>  <Synonyms>


>  <Type>
non-polymer

>  <Formula>
C32 H47 N O4

>  <MolecularWeight>
509.72

>  <ModifiedDate>
2011-06-04

>  <Parent>


>  <OneLetterCode>


>  <SubcomponentList>


>  <AmbiguousFlag>
N

>  <InChI>
InChI=1S/C32H47NO4/c1-19-8-6-9-29-32(13-7-15-33-29)14-12-25(28-18-22(4)31(35)37-28)23(5)26(32)17-20(2)27(34)11-10-24-16-21(3)30(19)36-24/h8,17,21-22,24,26-28,30,34H,6-7,9-16,18H2,1-5H3/b19-8+,20-17+/t21-,22+,24+,26+,27+,28+,30+,32+/m1/s1

>  <InChIKey>
LFQBHRXYGKMZFS-XGHAUHBHSA-N

>  <SMILES>
C[C@@H]1C[C@@H]2CC[C@@H](/C(=C/[C@H]3C(=C(CC[C@@]34CCCN=C4CC\C=C(\[C@@H]1O2)/C)[C@@H]5C[C@@H](C(=O)O5)C)C)/C)O

$$$$
