1PX4_IPT_A_2001


 19 19  0  0  0  0  0  0  0  0999 V2000
  -13.6972  -28.8703  -27.8357 C   0  0  0  0  0  0  0  0  0  0  0  0
  -12.6375  -28.6300  -26.7718 C   0  0  0  0  0  0  0  0  0  0  0  0
  -13.0607  -27.6055  -25.8620 O   0  0  0  0  0  0  0  0  0  0  0  0
  -11.3367  -28.1926  -27.4047 C   0  0  0  0  0  0  0  0  0  0  0  0
  -10.3077  -28.1527  -26.3866 O   0  0  0  0  0  0  0  0  0  0  0  0
  -10.9056  -29.1818  -28.5007 C   0  0  0  0  0  0  0  0  0  0  0  0
  -10.6550  -30.4693  -27.8983 O   0  0  0  0  0  0  0  0  0  0  0  0
  -12.1057  -29.2946  -29.4460 C   0  0  0  0  0  0  0  0  0  0  0  0
  -13.2066  -29.8400  -28.7357 O   0  0  0  0  0  0  0  0  0  0  0  0
  -13.1878  -26.7749  -26.3467 H   0  0  0  0  0  0  0  0  0  0  0  0
  -10.1975  -29.0370  -26.0035 H   0  0  0  0  0  0  0  0  0  0  0  0
  -11.4516  -30.7692  -27.4332 H   0  0  0  0  0  0  0  0  0  0  0  0
  -11.9669  -30.4467  -30.4201 C   0  0  0  0  0  0  0  0  0  0  0  0
  -10.5868  -30.3370  -30.8634 O   0  0  0  0  0  0  0  0  0  0  0  0
  -10.4396  -29.4588  -31.2480 H   0  0  0  0  0  0  0  0  0  0  0  0
  -15.0849  -29.6669  -26.9855 S   0  0  0  0  0  0  0  0  0  0  0  0
  -16.5341  -29.1956  -28.0390 C   0  0  0  0  0  0  0  0  0  0  0  0
  -17.8188  -29.3425  -27.2339 C   0  0  0  0  0  0  0  0  0  0  0  0
  -16.6129  -30.0782  -29.3057 C   0  0  0  0  0  0  0  0  0  0  0  0
  1  2  1  0  0  0
  1  9  1  0  0  0
  1 16  1  0  0  0
  2  3  1  0  0  0
  2  4  1  0  0  0
  4  5  1  0  0  0
  4  6  1  0  0  0
  6  7  1  0  0  0
  6  8  1  0  0  0
  8  9  1  0  0  0
  8 13  1  0  0  0
 13 14  1  0  0  0
 16 17  1  0  0  0
 17 18  1  0  0  0
 17 19  1  0  0  0
  3 10  1  0  0  0
  5 11  1  0  0  0
  7 12  1  0  0  0
 14 15  1  0  0  0
M  END
> <minimizedAffinity>
-7.19686

$$$$
1PX4_IPT_A_2001


 19 19  0  0  0  0  0  0  0  0999 V2000
  -12.4482  -29.6281  -27.5774 C   0  0  0  0  0  0  0  0  0  0  0  0
  -12.1842  -29.5926  -29.0746 C   0  0  0  0  0  0  0  0  0  0  0  0
  -13.2420  -30.2469  -29.7882 O   0  0  0  0  0  0  0  0  0  0  0  0
  -10.8869  -30.2947  -29.4036 C   0  0  0  0  0  0  0  0  0  0  0  0
  -10.5779  -30.0818  -30.8022 O   0  0  0  0  0  0  0  0  0  0  0  0
   -9.7341  -29.7331  -28.5544 C   0  0  0  0  0  0  0  0  0  0  0  0
   -9.5418  -28.3416  -28.8863 O   0  0  0  0  0  0  0  0  0  0  0  0
  -10.2048  -29.8424  -27.1008 C   0  0  0  0  0  0  0  0  0  0  0  0
  -11.3527  -29.0272  -26.9219 O   0  0  0  0  0  0  0  0  0  0  0  0
  -13.2878  -31.1771  -29.5172 H   0  0  0  0  0  0  0  0  0  0  0  0
  -10.4808  -29.1315  -30.9709 H   0  0  0  0  0  0  0  0  0  0  0  0
  -10.3690  -27.8568  -28.7392 H   0  0  0  0  0  0  0  0  0  0  0  0
   -9.3179  -29.0682  -26.1471 C   0  0  0  0  0  0  0  0  0  0  0  0
   -7.9787  -29.4672  -26.5475 O   0  0  0  0  0  0  0  0  0  0  0  0
   -7.8970  -30.4319  -26.4871 H   0  0  0  0  0  0  0  0  0  0  0  0
  -13.8463  -28.5116  -27.2916 S   0  0  0  0  0  0  0  0  0  0  0  0
  -15.2542  -29.6830  -27.0128 C   0  0  0  0  0  0  0  0  0  0  0  0
  -16.3087  -29.4790  -28.0929 C   0  0  0  0  0  0  0  0  0  0  0  0
  -15.8906  -29.4682  -25.6205 C   0  0  0  0  0  0  0  0  0  0  0  0
  1  2  1  0  0  0
  1  9  1  0  0  0
  1 16  1  0  0  0
  2  3  1  0  0  0
  2  4  1  0  0  0
  4  5  1  0  0  0
  4  6  1  0  0  0
  6  7  1  0  0  0
  6  8  1  0  0  0
  8  9  1  0  0  0
  8 13  1  0  0  0
 13 14  1  0  0  0
 16 17  1  0  0  0
 17 18  1  0  0  0
 17 19  1  0  0  0
  3 10  1  0  0  0
  5 11  1  0  0  0
  7 12  1  0  0  0
 14 15  1  0  0  0
M  END
> <minimizedAffinity>
-6.61780

$$$$
1PX4_IPT_A_2001


 19 19  0  0  0  0  0  0  0  0999 V2000
  -13.5871  -29.3994  -27.3670 C   0  0  0  0  0  0  0  0  0  0  0  0
  -13.6877  -29.3548  -28.8836 C   0  0  0  0  0  0  0  0  0  0  0  0
  -14.9161  -29.9490  -29.3246 O   0  0  0  0  0  0  0  0  0  0  0  0
  -12.5425  -30.1114  -29.5161 C   0  0  0  0  0  0  0  0  0  0  0  0
  -12.5673  -29.8930  -30.9474 O   0  0  0  0  0  0  0  0  0  0  0  0
  -11.1941  -29.6160  -28.9665 C   0  0  0  0  0  0  0  0  0  0  0  0
  -11.0197  -28.2303  -29.3309 O   0  0  0  0  0  0  0  0  0  0  0  0
  -11.3080  -29.7242  -27.4427 C   0  0  0  0  0  0  0  0  0  0  0  0
  -12.3388  -28.8594  -26.9916 O   0  0  0  0  0  0  0  0  0  0  0  0
  -14.9406  -30.8799  -29.0532 H   0  0  0  0  0  0  0  0  0  0  0  0
  -12.4675  -28.9459  -31.1318 H   0  0  0  0  0  0  0  0  0  0  0  0
  -11.7633  -27.7099  -28.9885 H   0  0  0  0  0  0  0  0  0  0  0  0
  -10.1822  -29.0057  -26.7274 C   0  0  0  0  0  0  0  0  0  0  0  0
  -10.7114  -27.6638  -26.5475 O   0  0  0  0  0  0  0  0  0  0  0  0
  -10.9483  -27.2912  -27.4112 H   0  0  0  0  0  0  0  0  0  0  0  0
  -14.8205  -28.2235  -26.7511 S   0  0  0  0  0  0  0  0  0  0  0  0
  -13.9397  -27.4097  -25.3390 C   0  0  0  0  0  0  0  0  0  0  0  0
  -14.7930  -27.5081  -24.0812 C   0  0  0  0  0  0  0  0  0  0  0  0
  -13.6429  -25.9246  -25.6488 C   0  0  0  0  0  0  0  0  0  0  0  0
  1  2  1  0  0  0
  1  9  1  0  0  0
  1 16  1  0  0  0
  2  3  1  0  0  0
  2  4  1  0  0  0
  4  5  1  0  0  0
  4  6  1  0  0  0
  6  7  1  0  0  0
  6  8  1  0  0  0
  8  9  1  0  0  0
  8 13  1  0  0  0
 13 14  1  0  0  0
 16 17  1  0  0  0
 17 18  1  0  0  0
 17 19  1  0  0  0
  3 10  1  0  0  0
  5 11  1  0  0  0
  7 12  1  0  0  0
 14 15  1  0  0  0
M  END
> <minimizedAffinity>
-6.32265

$$$$
1PX4_IPT_A_2001


 19 19  0  0  0  0  0  0  0  0999 V2000
  -14.9426  -28.9576  -27.6660 C   0  0  0  0  0  0  0  0  0  0  0  0
  -14.6208  -28.1735  -26.4035 C   0  0  0  0  0  0  0  0  0  0  0  0
  -15.6775  -27.2530  -26.0993 O   0  0  0  0  0  0  0  0  0  0  0  0
  -13.3426  -27.3860  -26.5765 C   0  0  0  0  0  0  0  0  0  0  0  0
  -12.9723  -26.8037  -25.3034 O   0  0  0  0  0  0  0  0  0  0  0  0
  -12.2002  -28.3006  -27.0497 C   0  0  0  0  0  0  0  0  0  0  0  0
  -11.9374  -29.2883  -26.0306 O   0  0  0  0  0  0  0  0  0  0  0  0
  -12.7298  -29.0020  -28.3044 C   0  0  0  0  0  0  0  0  0  0  0  0
  -13.8484  -29.8013  -27.9523 O   0  0  0  0  0  0  0  0  0  0  0  0
  -15.7724  -26.6180  -26.8264 H   0  0  0  0  0  0  0  0  0  0  0  0
  -12.8292  -27.5101  -24.6542 H   0  0  0  0  0  0  0  0  0  0  0  0
  -12.7485  -29.7877  -25.8475 H   0  0  0  0  0  0  0  0  0  0  0  0
  -11.8479  -30.1558  -28.7362 C   0  0  0  0  0  0  0  0  0  0  0  0
  -12.6229  -30.7829  -29.7942 O   0  0  0  0  0  0  0  0  0  0  0  0
  -13.4916  -31.0416  -29.4488 H   0  0  0  0  0  0  0  0  0  0  0  0
  -16.3025  -30.0718  -27.2276 S   0  0  0  0  0  0  0  0  0  0  0  0
  -17.4279  -29.9392  -28.6931 C   0  0  0  0  0  0  0  0  0  0  0  0
  -18.6218  -30.8661  -28.5046 C   0  0  0  0  0  0  0  0  0  0  0  0
  -16.6876  -30.3072  -29.9994 C   0  0  0  0  0  0  0  0  0  0  0  0
  1  2  1  0  0  0
  1  9  1  0  0  0
  1 16  1  0  0  0
  2  3  1  0  0  0
  2  4  1  0  0  0
  4  5  1  0  0  0
  4  6  1  0  0  0
  6  7  1  0  0  0
  6  8  1  0  0  0
  8  9  1  0  0  0
  8 13  1  0  0  0
 13 14  1  0  0  0
 16 17  1  0  0  0
 17 18  1  0  0  0
 17 19  1  0  0  0
  3 10  1  0  0  0
  5 11  1  0  0  0
  7 12  1  0  0  0
 14 15  1  0  0  0
M  END
> <minimizedAffinity>
-5.86446

$$$$
1PX4_IPT_A_2001


 19 19  0  0  0  0  0  0  0  0999 V2000
  -13.5444  -28.2157  -26.7340 C   0  0  0  0  0  0  0  0  0  0  0  0
  -14.3334  -29.2106  -25.8972 C   0  0  0  0  0  0  0  0  0  0  0  0
  -14.6953  -30.3543  -26.6829 O   0  0  0  0  0  0  0  0  0  0  0  0
  -15.6011  -28.5775  -25.3716 C   0  0  0  0  0  0  0  0  0  0  0  0
  -16.2285  -29.4871  -24.4356 O   0  0  0  0  0  0  0  0  0  0  0  0
  -15.2890  -27.2598  -24.6424 C   0  0  0  0  0  0  0  0  0  0  0  0
  -14.4660  -27.5443  -23.4912 O   0  0  0  0  0  0  0  0  0  0  0  0
  -14.4848  -26.4201  -25.6397 C   0  0  0  0  0  0  0  0  0  0  0  0
  -13.2672  -27.0876  -25.9330 O   0  0  0  0  0  0  0  0  0  0  0  0
  -15.2594  -30.0743  -27.4207 H   0  0  0  0  0  0  0  0  0  0  0  0
  -15.6242  -29.6580  -23.6964 H   0  0  0  0  0  0  0  0  0  0  0  0
  -13.6586  -28.0004  -23.7758 H   0  0  0  0  0  0  0  0  0  0  0  0
  -13.8430  -25.2109  -24.9906 C   0  0  0  0  0  0  0  0  0  0  0  0
  -14.8958  -24.7060  -24.1246 O   0  0  0  0  0  0  0  0  0  0  0  0
  -15.6853  -24.5129  -24.6541 H   0  0  0  0  0  0  0  0  0  0  0  0
  -11.9352  -28.9895  -27.0420 S   0  0  0  0  0  0  0  0  0  0  0  0
  -11.7425  -28.8150  -28.8762 C   0  0  0  0  0  0  0  0  0  0  0  0
  -12.6399  -29.8237  -29.5814 C   0  0  0  0  0  0  0  0  0  0  0  0
  -10.2745  -29.0384  -29.3061 C   0  0  0  0  0  0  0  0  0  0  0  0
  1  2  1  0  0  0
  1  9  1  0  0  0
  1 16  1  0  0  0
  2  3  1  0  0  0
  2  4  1  0  0  0
  4  5  1  0  0  0
  4  6  1  0  0  0
  6  7  1  0  0  0
  6  8  1  0  0  0
  8  9  1  0  0  0
  8 13  1  0  0  0
 13 14  1  0  0  0
 16 17  1  0  0  0
 17 18  1  0  0  0
 17 19  1  0  0  0
  3 10  1  0  0  0
  5 11  1  0  0  0
  7 12  1  0  0  0
 14 15  1  0  0  0
M  END
> <minimizedAffinity>
-5.78712

$$$$
1PX4_IPT_A_2001


 19 19  0  0  0  0  0  0  0  0999 V2000
  -13.0191  -28.8688  -27.0816 C   0  0  0  0  0  0  0  0  0  0  0  0
  -14.1369  -29.6060  -27.8023 C   0  0  0  0  0  0  0  0  0  0  0  0
  -13.7499  -29.9161  -29.1478 O   0  0  0  0  0  0  0  0  0  0  0  0
  -15.3876  -28.7591  -27.8531 C   0  0  0  0  0  0  0  0  0  0  0  0
  -16.4759  -29.5576  -28.3773 O   0  0  0  0  0  0  0  0  0  0  0  0
  -15.7703  -28.2696  -26.4462 C   0  0  0  0  0  0  0  0  0  0  0  0
  -16.0829  -29.4118  -25.6211 O   0  0  0  0  0  0  0  0  0  0  0  0
  -14.5170  -27.5810  -25.8969 C   0  0  0  0  0  0  0  0  0  0  0  0
  -13.4728  -28.5358  -25.7877 O   0  0  0  0  0  0  0  0  0  0  0  0
  -13.5768  -29.0937  -29.6322 H   0  0  0  0  0  0  0  0  0  0  0  0
  -16.6271  -30.3194  -27.7963 H   0  0  0  0  0  0  0  0  0  0  0  0
  -15.3224  -30.0136  -25.6004 H   0  0  0  0  0  0  0  0  0  0  0  0
  -14.6188  -27.2961  -24.4123 C   0  0  0  0  0  0  0  0  0  0  0  0
  -15.9834  -26.8177  -24.2629 O   0  0  0  0  0  0  0  0  0  0  0  0
  -16.1204  -26.0470  -24.8356 H   0  0  0  0  0  0  0  0  0  0  0  0
  -11.7022  -30.0870  -26.8269 S   0  0  0  0  0  0  0  0  0  0  0  0
  -10.1875  -29.1715  -27.3743 C   0  0  0  0  0  0  0  0  0  0  0  0
  -10.2057  -29.0157  -28.8894 C   0  0  0  0  0  0  0  0  0  0  0  0
   -8.9016  -29.9148  -26.9454 C   0  0  0  0  0  0  0  0  0  0  0  0
  1  2  1  0  0  0
  1  9  1  0  0  0
  1 16  1  0  0  0
  2  3  1  0  0  0
  2  4  1  0  0  0
  4  5  1  0  0  0
  4  6  1  0  0  0
  6  7  1  0  0  0
  6  8  1  0  0  0
  8  9  1  0  0  0
  8 13  1  0  0  0
 13 14  1  0  0  0
 16 17  1  0  0  0
 17 18  1  0  0  0
 17 19  1  0  0  0
  3 10  1  0  0  0
  5 11  1  0  0  0
  7 12  1  0  0  0
 14 15  1  0  0  0
M  END
> <minimizedAffinity>
-5.54595

$$$$
1PX4_IPT_A_2001


 19 19  0  0  0  0  0  0  0  0999 V2000
  -12.0787  -27.7371  -27.4754 C   0  0  0  0  0  0  0  0  0  0  0  0
  -11.0690  -28.5278  -26.6582 C   0  0  0  0  0  0  0  0  0  0  0  0
  -10.1780  -27.6428  -25.9658 O   0  0  0  0  0  0  0  0  0  0  0  0
  -10.2445  -29.4243  -27.5529 C   0  0  0  0  0  0  0  0  0  0  0  0
   -9.4283  -30.2905  -26.7281 O   0  0  0  0  0  0  0  0  0  0  0  0
  -11.1536  -30.2979  -28.4338 C   0  0  0  0  0  0  0  0  0  0  0  0
  -11.9311  -31.1695  -27.5858 O   0  0  0  0  0  0  0  0  0  0  0  0
  -12.0938  -29.3215  -29.1473 C   0  0  0  0  0  0  0  0  0  0  0  0
  -12.8887  -28.6522  -28.1808 O   0  0  0  0  0  0  0  0  0  0  0  0
   -9.6859  -27.1102  -26.6101 H   0  0  0  0  0  0  0  0  0  0  0  0
  -10.0010  -30.8359  -26.1664 H   0  0  0  0  0  0  0  0  0  0  0  0
  -12.4413  -30.6369  -26.9557 H   0  0  0  0  0  0  0  0  0  0  0  0
  -13.2472  -30.0266  -29.8314 C   0  0  0  0  0  0  0  0  0  0  0  0
  -12.6247  -31.2224  -30.3751 O   0  0  0  0  0  0  0  0  0  0  0  0
  -11.8962  -30.9688  -30.9632 H   0  0  0  0  0  0  0  0  0  0  0  0
  -13.1834  -26.9489  -26.2748 S   0  0  0  0  0  0  0  0  0  0  0  0
  -14.4354  -28.2728  -25.9409 C   0  0  0  0  0  0  0  0  0  0  0  0
  -15.4836  -28.2736  -27.0461 C   0  0  0  0  0  0  0  0  0  0  0  0
  -15.1241  -28.0567  -24.5739 C   0  0  0  0  0  0  0  0  0  0  0  0
  1  2  1  0  0  0
  1  9  1  0  0  0
  1 16  1  0  0  0
  2  3  1  0  0  0
  2  4  1  0  0  0
  4  5  1  0  0  0
  4  6  1  0  0  0
  6  7  1  0  0  0
  6  8  1  0  0  0
  8  9  1  0  0  0
  8 13  1  0  0  0
 13 14  1  0  0  0
 16 17  1  0  0  0
 17 18  1  0  0  0
 17 19  1  0  0  0
  3 10  1  0  0  0
  5 11  1  0  0  0
  7 12  1  0  0  0
 14 15  1  0  0  0
M  END
> <minimizedAffinity>
-5.38125

$$$$
1PX4_IPT_A_2001


 19 19  0  0  0  0  0  0  0  0999 V2000
  -16.3324  -27.5230  -24.1793 C   0  0  0  0  0  0  0  0  0  0  0  0
  -15.0020  -26.7911  -24.0960 C   0  0  0  0  0  0  0  0  0  0  0  0
  -14.0886  -27.5015  -23.2490 O   0  0  0  0  0  0  0  0  0  0  0  0
  -15.1919  -25.4034  -23.5283 C   0  0  0  0  0  0  0  0  0  0  0  0
  -13.9444  -24.6760  -23.6356 O   0  0  0  0  0  0  0  0  0  0  0  0
  -16.2749  -24.6400  -24.3092 C   0  0  0  0  0  0  0  0  0  0  0  0
  -15.8358  -24.4674  -25.6732 O   0  0  0  0  0  0  0  0  0  0  0  0
  -17.5097  -25.5462  -24.2899 C   0  0  0  0  0  0  0  0  0  0  0  0
  -17.2101  -26.7539  -24.9724 O   0  0  0  0  0  0  0  0  0  0  0  0
  -14.4542  -27.5548  -22.3521 H   0  0  0  0  0  0  0  0  0  0  0  0
  -13.6883  -24.6092  -24.5688 H   0  0  0  0  0  0  0  0  0  0  0  0
  -15.6506  -25.3350  -26.0656 H   0  0  0  0  0  0  0  0  0  0  0  0
  -18.5794  -25.0850  -25.2586 C   0  0  0  0  0  0  0  0  0  0  0  0
  -18.5230  -23.6369  -25.1446 O   0  0  0  0  0  0  0  0  0  0  0  0
  -18.6715  -23.3793  -24.2213 H   0  0  0  0  0  0  0  0  0  0  0  0
  -16.0147  -29.0263  -25.1396 S   0  0  0  0  0  0  0  0  0  0  0  0
  -15.8672  -28.3820  -26.8702 C   0  0  0  0  0  0  0  0  0  0  0  0
  -16.8503  -29.1160  -27.7730 C   0  0  0  0  0  0  0  0  0  0  0  0
  -14.4310  -28.5642  -27.4123 C   0  0  0  0  0  0  0  0  0  0  0  0
  1  2  1  0  0  0
  1  9  1  0  0  0
  1 16  1  0  0  0
  2  3  1  0  0  0
  2  4  1  0  0  0
  4  5  1  0  0  0
  4  6  1  0  0  0
  6  7  1  0  0  0
  6  8  1  0  0  0
  8  9  1  0  0  0
  8 13  1  0  0  0
 13 14  1  0  0  0
 16 17  1  0  0  0
 17 18  1  0  0  0
 17 19  1  0  0  0
  3 10  1  0  0  0
  5 11  1  0  0  0
  7 12  1  0  0  0
 14 15  1  0  0  0
M  END
> <minimizedAffinity>
-5.35733

$$$$
1PX4_IPT_A_2001


 19 19  0  0  0  0  0  0  0  0999 V2000
  -14.8930  -27.4880  -25.9014 C   0  0  0  0  0  0  0  0  0  0  0  0
  -13.8019  -28.4461  -26.3532 C   0  0  0  0  0  0  0  0  0  0  0  0
  -12.5283  -27.7873  -26.3698 O   0  0  0  0  0  0  0  0  0  0  0  0
  -14.0870  -28.9597  -27.7457 C   0  0  0  0  0  0  0  0  0  0  0  0
  -13.1344  -30.0019  -28.0672 O   0  0  0  0  0  0  0  0  0  0  0  0
  -15.5057  -29.5477  -27.8285 C   0  0  0  0  0  0  0  0  0  0  0  0
  -15.5936  -30.6868  -26.9464 O   0  0  0  0  0  0  0  0  0  0  0  0
  -16.4373  -28.4440  -27.3181 C   0  0  0  0  0  0  0  0  0  0  0  0
  -16.1286  -28.1667  -25.9609 O   0  0  0  0  0  0  0  0  0  0  0  0
  -12.5541  -27.0495  -26.9990 H   0  0  0  0  0  0  0  0  0  0  0  0
  -13.2242  -30.7292  -27.4317 H   0  0  0  0  0  0  0  0  0  0  0  0
  -15.3669  -30.4146  -26.0434 H   0  0  0  0  0  0  0  0  0  0  0  0
  -17.8410  -28.9495  -27.0549 C   0  0  0  0  0  0  0  0  0  0  0  0
  -18.1462  -29.7105  -28.2553 O   0  0  0  0  0  0  0  0  0  0  0  0
  -18.0591  -29.1368  -29.0326 H   0  0  0  0  0  0  0  0  0  0  0  0
  -14.5963  -27.1905  -24.1388 S   0  0  0  0  0  0  0  0  0  0  0  0
  -14.5008  -25.3427  -24.0468 C   0  0  0  0  0  0  0  0  0  0  0  0
  -15.8889  -24.7729  -23.7848 C   0  0  0  0  0  0  0  0  0  0  0  0
  -13.9356  -24.7479  -25.3570 C   0  0  0  0  0  0  0  0  0  0  0  0
  1  2  1  0  0  0
  1  9  1  0  0  0
  1 16  1  0  0  0
  2  3  1  0  0  0
  2  4  1  0  0  0
  4  5  1  0  0  0
  4  6  1  0  0  0
  6  7  1  0  0  0
  6  8  1  0  0  0
  8  9  1  0  0  0
  8 13  1  0  0  0
 13 14  1  0  0  0
 16 17  1  0  0  0
 17 18  1  0  0  0
 17 19  1  0  0  0
  3 10  1  0  0  0
  5 11  1  0  0  0
  7 12  1  0  0  0
 14 15  1  0  0  0
M  END
> <minimizedAffinity>
-5.23372

$$$$
1PX4_IPT_A_2001


 19 19  0  0  0  0  0  0  0  0999 V2000
  -15.5679  -27.5433  -25.8625 C   0  0  0  0  0  0  0  0  0  0  0  0
  -14.1500  -27.9205  -25.4630 C   0  0  0  0  0  0  0  0  0  0  0  0
  -13.5153  -26.8350  -24.7736 O   0  0  0  0  0  0  0  0  0  0  0  0
  -13.3233  -28.2534  -26.6836 C   0  0  0  0  0  0  0  0  0  0  0  0
  -12.0447  -28.7823  -26.2564 O   0  0  0  0  0  0  0  0  0  0  0  0
  -14.0298  -29.3125  -27.5466 C   0  0  0  0  0  0  0  0  0  0  0  0
  -14.1478  -30.5340  -26.7867 O   0  0  0  0  0  0  0  0  0  0  0  0
  -15.4295  -28.7526  -27.8181 C   0  0  0  0  0  0  0  0  0  0  0  0
  -16.1231  -28.6192  -26.5871 O   0  0  0  0  0  0  0  0  0  0  0  0
  -13.4628  -26.0652  -25.3614 H   0  0  0  0  0  0  0  0  0  0  0  0
  -12.1860  -29.5876  -25.7345 H   0  0  0  0  0  0  0  0  0  0  0  0
  -14.6298  -30.3575  -25.9637 H   0  0  0  0  0  0  0  0  0  0  0  0
  -16.3624  -29.7912  -28.4068 C   0  0  0  0  0  0  0  0  0  0  0  0
  -15.5867  -30.3439  -29.5050 O   0  0  0  0  0  0  0  0  0  0  0  0
  -15.3345  -29.6318  -30.1133 H   0  0  0  0  0  0  0  0  0  0  0  0
  -16.5162  -27.4666  -24.3204 S   0  0  0  0  0  0  0  0  0  0  0  0
  -17.3469  -25.8146  -24.4334 C   0  0  0  0  0  0  0  0  0  0  0  0
  -16.3235  -24.7120  -24.1944 C   0  0  0  0  0  0  0  0  0  0  0  0
  -18.4897  -25.6936  -23.3995 C   0  0  0  0  0  0  0  0  0  0  0  0
  1  2  1  0  0  0
  1  9  1  0  0  0
  1 16  1  0  0  0
  2  3  1  0  0  0
  2  4  1  0  0  0
  4  5  1  0  0  0
  4  6  1  0  0  0
  6  7  1  0  0  0
  6  8  1  0  0  0
  8  9  1  0  0  0
  8 13  1  0  0  0
 13 14  1  0  0  0
 16 17  1  0  0  0
 17 18  1  0  0  0
 17 19  1  0  0  0
  3 10  1  0  0  0
  5 11  1  0  0  0
  7 12  1  0  0  0
 14 15  1  0  0  0
M  END
> <minimizedAffinity>
-5.21373

$$$$
