1PX4_IPT_A_2001
  RCSB PDB12061703423D
Coordinates from PDB:1PX4:A:2001 Model:1 without hydrogens
 15 15  0  0  0  0            999 V2000
  -13.4220  -28.7450  -27.5670   C 0  0  0  0  0  0  0  0  0  0  0  0
  -12.1800  -28.5480  -26.7120   C 0  0  0  0  0  0  0  0  0  0  0  0
  -12.3240  -27.3940  -25.8730   O 0  0  0  0  0  0  0  0  0  0  0  0
  -10.9600  -28.3510  -27.5820   C 0  0  0  0  0  0  0  0  0  0  0  0
   -9.7790  -28.3520  -26.7440   O 0  0  0  0  0  0  0  0  0  0  0  0
  -10.8350  -29.4890  -28.6090   C 0  0  0  0  0  0  0  0  0  0  0  0
  -10.6400  -30.7350  -27.9070   O 0  0  0  0  0  0  0  0  0  0  0  0
  -12.1800  -29.5300  -29.3410   C 0  0  0  0  0  0  0  0  0  0  0  0
  -13.2040  -29.8530  -28.4130   O 0  0  0  0  0  0  0  0  0  0  0  0
  -12.3400  -30.7780  -30.1850   C 0  0  0  0  0  0  0  0  0  0  0  0
  -11.3190  -30.6160  -31.2070   O 0  0  0  0  0  0  0  0  0  0  0  0
  -14.7330  -29.2640  -26.4290   S 0  0  0  0  0  0  0  0  0  0  0  0
  -16.2740  -28.7490  -27.3190   C 0  0  0  0  0  0  0  0  0  0  0  0
  -17.4530  -28.7770  -26.3550   C 0  0  0  0  0  0  0  0  0  0  0  0
  -16.5630  -29.6810  -28.5180   C 0  0  0  0  0  0  0  0  0  0  0  0
  1  2  1  0  0  0  0
  1  9  1  0  0  0  0
  1 12  1  0  0  0  0
  2  3  1  0  0  0  0
  2  4  1  0  0  0  0
  4  5  1  0  0  0  0
  4  6  1  0  0  0  0
  6  7  1  0  0  0  0
  6  8  1  0  0  0  0
  8  9  1  0  0  0  0
  8 10  1  0  0  0  0
 10 11  1  0  0  0  0
 12 13  1  0  0  0  0
 13 14  1  0  0  0  0
 13 15  1  0  0  0  0
A    1
C1
A    2
C2
A    3
O2
A    4
C3
A    5
O3
A    6
C4
A    7
O4
A    8
C5
A    9
O5
A   10
C6
A   11
O6
A   12
S1
A   13
C1'
A   14
C2'
A   15
C3'
M  END
>  <InstanceId>
1PX4_IPT_A_2001

>  <ChemCompId>
IPT

>  <PdbId>
1PX4

>  <ChainId>
A

>  <ResidueNumber>
2001

>  <InsertionCode>


>  <Model>
1

>  <AltIds>


>  <MissingHeavyAtoms>
0

>  <ObservedFormula>
C9 O5 S

>  <Name>
ISOPROPYL-1-BETA-D-THIOGALACTOSIDE

>  <SystematicName>
(2R,3R,4S,5R,6S)-2-(hydroxymethyl)-6-propan-2-ylsulfanyl-oxane-3,4,5-triol

>  <Synonyms>
1-(ISOPROPYLTHIO)-BETA-GALACTOPYRANSIDE

>  <Type>
D-SACCHARIDE

>  <Formula>
C9 H18 O5 S

>  <MolecularWeight>
238.301

>  <ModifiedDate>
2011-06-04

>  <Parent>


>  <OneLetterCode>


>  <SubcomponentList>


>  <AmbiguousFlag>
N

>  <InChI>
InChI=1S/C9H18O5S/c1-4(2)15-9-8(13)7(12)6(11)5(3-10)14-9/h4-13H,3H2,1-2H3/t5-,6+,7+,8-,9+/m1/s1

>  <InChIKey>
BPHPUYQFMNQIOC-NXRLNHOXSA-N

>  <SMILES>
CC(C)S[C@H]1[C@@H]([C@H]([C@H]([C@H](O1)CO)O)O)O

$$$$
