5U13_YH5_A_301


 27 29  0  0  0  0  0  0  0  0999 V2000
    4.3958   -5.3024   27.6541 C   0  0  0  0  0  0  0  0  0  0  0  0
    3.3930   -5.9933   27.7042 O   0  0  0  0  0  0  0  0  0  0  0  0
    4.6277   -5.0428   25.1362 N   0  0  0  0  0  0  0  0  0  0  0  0
    6.5234   -3.8054   25.2555 N   0  0  0  0  0  0  0  0  0  0  0  0
    5.0170   -4.8359   26.4388 C   0  0  0  0  0  0  0  0  0  0  0  0
    6.8421   -3.6671   27.6095 N   0  0  0  0  0  0  0  0  0  0  0  0
    5.5771   -4.4039   24.4577 C   0  0  0  0  0  0  0  0  0  0  0  0
    6.1623   -4.0821   26.5337 C   0  0  0  0  0  0  0  0  0  0  0  0
    5.1110   -4.8550   28.7543 N   0  0  0  0  0  0  0  0  0  0  0  0
    6.2933   -4.0736   28.7185 C   0  0  0  0  0  0  0  0  0  0  0  0
    6.8334   -3.7863   29.9589 N   0  0  0  0  0  0  0  0  0  0  0  0
    7.3036   -3.2828   24.9597 H   0  0  0  0  0  0  0  0  0  0  0  0
    4.7660   -5.1029   29.6424 H   0  0  0  0  0  0  0  0  0  0  0  0
    6.3901   -4.1107   30.7759 H   0  0  0  0  0  0  0  0  0  0  0  0
    7.6611   -3.2573   30.0249 H   0  0  0  0  0  0  0  0  0  0  0  0
    5.8093   -4.2137   22.7312 S   0  0  0  0  0  0  0  0  0  0  0  0
    6.0797   -2.4455   22.6088 C   0  0  0  0  0  0  0  0  0  0  0  0
    4.4183   -1.5653   24.2005 O   0  0  0  0  0  0  0  0  0  0  0  0
    4.8894   -1.6287   23.0638 C   0  0  0  0  0  0  0  0  0  0  0  0
    3.6856    1.2841   21.1260 C   0  0  0  0  0  0  0  0  0  0  0  0
    3.1551    0.6680   20.0045 C   0  0  0  0  0  0  0  0  0  0  0  0
    3.1846   -0.7007   19.8656 C   0  0  0  0  0  0  0  0  0  0  0  0
    3.7453   -1.4616   20.8509 C   0  0  0  0  0  0  0  0  0  0  0  0
    4.2777   -0.8509   21.9740 C   0  0  0  0  0  0  0  0  0  0  0  0
    4.2481    0.5141   22.1110 C   0  0  0  0  0  0  0  0  0  0  0  0
    1.3467    1.9998   19.3789 C   0  0  0  0  0  0  0  0  0  0  0  0
    2.5646    1.3710   18.9570 O   0  0  0  0  0  0  0  0  0  0  0  0
 26 27  1  0  0  0
 27 21  1  0  0  0
 21 20  2  0  0  0
 21 22  1  0  0  0
 20 25  1  0  0  0
 22 23  2  0  0  0
 25 24  2  0  0  0
 23 24  1  0  0  0
 24 19  1  0  0  0
  2  1  2  0  0  0
 19 18  2  0  0  0
 19 17  1  0  0  0
 17 16  1  0  0  0
  1  5  1  0  0  0
  1  9  1  0  0  0
  3  5  1  0  0  0
  3  7  2  0  0  0
  5  8  2  0  0  0
  9 10  1  0  0  0
  7 16  1  0  0  0
  7  4  1  0  0  0
  8  4  1  0  0  0
  8  6  1  0  0  0
 10  6  2  0  0  0
 10 11  1  0  0  0
  4 12  1  0  0  0
  9 13  1  0  0  0
 11 14  1  0  0  0
 11 15  1  0  0  0
M  END
> <minimizedAffinity>
-8.16369

$$$$
5U13_YH5_A_301


 27 29  0  0  0  0  0  0  0  0999 V2000
    7.6334   -5.8580   27.5861 C   0  0  0  0  0  0  0  0  0  0  0  0
    8.4825   -6.6894   27.3157 O   0  0  0  0  0  0  0  0  0  0  0  0
    6.2656   -5.9112   25.4442 N   0  0  0  0  0  0  0  0  0  0  0  0
    4.8130   -4.3060   26.1170 N   0  0  0  0  0  0  0  0  0  0  0  0
    6.5614   -5.4571   26.7082 C   0  0  0  0  0  0  0  0  0  0  0  0
    5.6394   -3.8123   28.2932 N   0  0  0  0  0  0  0  0  0  0  0  0
    5.2020   -5.1776   25.1274 C   0  0  0  0  0  0  0  0  0  0  0  0
    5.6883   -4.4866   27.1379 C   0  0  0  0  0  0  0  0  0  0  0  0
    7.5588   -5.1536   28.7779 N   0  0  0  0  0  0  0  0  0  0  0  0
    6.5967   -4.1644   29.1029 C   0  0  0  0  0  0  0  0  0  0  0  0
    6.7617   -3.5854   30.3481 N   0  0  0  0  0  0  0  0  0  0  0  0
    4.0543   -3.6791   26.0904 H   0  0  0  0  0  0  0  0  0  0  0  0
    8.2365   -5.3594   29.4617 H   0  0  0  0  0  0  0  0  0  0  0  0
    7.4976   -3.8777   30.9332 H   0  0  0  0  0  0  0  0  0  0  0  0
    6.1434   -2.8811   30.6493 H   0  0  0  0  0  0  0  0  0  0  0  0
    4.2371   -5.1452   23.6649 S   0  0  0  0  0  0  0  0  0  0  0  0
    5.0085   -3.7978   22.7684 C   0  0  0  0  0  0  0  0  0  0  0  0
    4.2714   -1.9650   24.2402 O   0  0  0  0  0  0  0  0  0  0  0  0
    4.4290   -2.4433   23.1157 C   0  0  0  0  0  0  0  0  0  0  0  0
    3.2470   -1.6971   19.6902 C   0  0  0  0  0  0  0  0  0  0  0  0
    3.2834   -0.3123   19.6822 C   0  0  0  0  0  0  0  0  0  0  0  0
    3.6911    0.3934   20.7909 C   0  0  0  0  0  0  0  0  0  0  0  0
    4.0662   -0.2843   21.9152 C   0  0  0  0  0  0  0  0  0  0  0  0
    4.0312   -1.6687   21.9289 C   0  0  0  0  0  0  0  0  0  0  0  0
    3.6238   -2.3712   20.8229 C   0  0  0  0  0  0  0  0  0  0  0  0
    2.3747    1.7167   18.9802 C   0  0  0  0  0  0  0  0  0  0  0  0
    2.9193    0.4528   18.5767 O   0  0  0  0  0  0  0  0  0  0  0  0
 26 27  1  0  0  0
 27 21  1  0  0  0
 21 20  2  0  0  0
 21 22  1  0  0  0
 20 25  1  0  0  0
 22 23  2  0  0  0
 25 24  2  0  0  0
 23 24  1  0  0  0
 24 19  1  0  0  0
  2  1  2  0  0  0
 19 18  2  0  0  0
 19 17  1  0  0  0
 17 16  1  0  0  0
  1  5  1  0  0  0
  1  9  1  0  0  0
  3  5  1  0  0  0
  3  7  2  0  0  0
  5  8  2  0  0  0
  9 10  1  0  0  0
  7 16  1  0  0  0
  7  4  1  0  0  0
  8  4  1  0  0  0
  8  6  1  0  0  0
 10  6  2  0  0  0
 10 11  1  0  0  0
  4 12  1  0  0  0
  9 13  1  0  0  0
 11 14  1  0  0  0
 11 15  1  0  0  0
M  END
> <minimizedAffinity>
-8.06691

$$$$
5U13_YH5_A_301


 27 29  0  0  0  0  0  0  0  0999 V2000
    9.9816    0.6370   24.1834 C   0  0  0  0  0  0  0  0  0  0  0  0
   10.3500    0.9539   23.0657 O   0  0  0  0  0  0  0  0  0  0  0  0
    7.9761   -0.8092   23.5937 N   0  0  0  0  0  0  0  0  0  0  0  0
    7.4248   -1.2422   25.7497 N   0  0  0  0  0  0  0  0  0  0  0  0
    8.8434   -0.2010   24.4708 C   0  0  0  0  0  0  0  0  0  0  0  0
    9.1277   -0.0553   26.9133 N   0  0  0  0  0  0  0  0  0  0  0  0
    7.1313   -1.4221   24.4186 C   0  0  0  0  0  0  0  0  0  0  0  0
    8.5301   -0.4558   25.7845 C   0  0  0  0  0  0  0  0  0  0  0  0
   10.5891    1.0333   25.3649 N   0  0  0  0  0  0  0  0  0  0  0  0
   10.1626    0.6987   26.6748 C   0  0  0  0  0  0  0  0  0  0  0  0
   10.9244    1.2502   27.6888 N   0  0  0  0  0  0  0  0  0  0  0  0
    6.9336   -1.6089   26.5200 H   0  0  0  0  0  0  0  0  0  0  0  0
   11.3908    1.5995   25.2871 H   0  0  0  0  0  0  0  0  0  0  0  0
   11.7002    1.8154   27.4699 H   0  0  0  0  0  0  0  0  0  0  0  0
   10.6910    1.0775   28.6295 H   0  0  0  0  0  0  0  0  0  0  0  0
    5.7202   -2.4039   24.0784 S   0  0  0  0  0  0  0  0  0  0  0  0
    5.7504   -2.4483   22.2864 C   0  0  0  0  0  0  0  0  0  0  0  0
    3.7118   -3.7176   21.7377 O   0  0  0  0  0  0  0  0  0  0  0  0
    4.3873   -2.6892   21.6741 C   0  0  0  0  0  0  0  0  0  0  0  0
    2.7099   -0.7096   19.0367 C   0  0  0  0  0  0  0  0  0  0  0  0
    2.9020    0.5822   19.4984 C   0  0  0  0  0  0  0  0  0  0  0  0
    3.5774    0.8232   20.6727 C   0  0  0  0  0  0  0  0  0  0  0  0
    4.0661   -0.2293   21.3921 C   0  0  0  0  0  0  0  0  0  0  0  0
    3.8764   -1.5229   20.9355 C   0  0  0  0  0  0  0  0  0  0  0  0
    3.2022   -1.7619   19.7646 C   0  0  0  0  0  0  0  0  0  0  0  0
    1.1915    2.1613   19.3716 C   0  0  0  0  0  0  0  0  0  0  0  0
    2.4375    1.7089   18.8240 O   0  0  0  0  0  0  0  0  0  0  0  0
 26 27  1  0  0  0
 27 21  1  0  0  0
 21 20  2  0  0  0
 21 22  1  0  0  0
 20 25  1  0  0  0
 22 23  2  0  0  0
 25 24  2  0  0  0
 23 24  1  0  0  0
 24 19  1  0  0  0
  2  1  2  0  0  0
 19 18  2  0  0  0
 19 17  1  0  0  0
 17 16  1  0  0  0
  1  5  1  0  0  0
  1  9  1  0  0  0
  3  5  1  0  0  0
  3  7  2  0  0  0
  5  8  2  0  0  0
  9 10  1  0  0  0
  7 16  1  0  0  0
  7  4  1  0  0  0
  8  4  1  0  0  0
  8  6  1  0  0  0
 10  6  2  0  0  0
 10 11  1  0  0  0
  4 12  1  0  0  0
  9 13  1  0  0  0
 11 14  1  0  0  0
 11 15  1  0  0  0
M  END
> <minimizedAffinity>
-7.90937

$$$$
5U13_YH5_A_301


 27 29  0  0  0  0  0  0  0  0999 V2000
    6.9930   -3.1413   27.4861 C   0  0  0  0  0  0  0  0  0  0  0  0
    7.5768   -2.0776   27.6002 O   0  0  0  0  0  0  0  0  0  0  0  0
    6.9145   -3.3323   24.9526 N   0  0  0  0  0  0  0  0  0  0  0  0
    5.7789   -5.2944   24.9539 N   0  0  0  0  0  0  0  0  0  0  0  0
    6.6542   -3.7666   26.2312 C   0  0  0  0  0  0  0  0  0  0  0  0
    5.5457   -5.6961   27.2877 N   0  0  0  0  0  0  0  0  0  0  0  0
    6.3579   -4.2896   24.2153 C   0  0  0  0  0  0  0  0  0  0  0  0
    5.9708   -4.9587   26.2545 C   0  0  0  0  0  0  0  0  0  0  0  0
    6.5509   -3.9248   28.5409 N   0  0  0  0  0  0  0  0  0  0  0  0
    5.8475   -5.1508   28.4313 C   0  0  0  0  0  0  0  0  0  0  0  0
    5.4890   -5.7209   29.6393 N   0  0  0  0  0  0  0  0  0  0  0  0
    5.3191   -6.0939   24.6095 H   0  0  0  0  0  0  0  0  0  0  0  0
    6.7431   -3.5998   29.4501 H   0  0  0  0  0  0  0  0  0  0  0  0
    5.7348   -5.2794   30.4842 H   0  0  0  0  0  0  0  0  0  0  0  0
    4.9880   -6.5683   29.6543 H   0  0  0  0  0  0  0  0  0  0  0  0
    6.2443   -4.4644   22.4754 S   0  0  0  0  0  0  0  0  0  0  0  0
    5.5647   -2.8722   22.0089 C   0  0  0  0  0  0  0  0  0  0  0  0
    3.4094   -3.9389   21.4747 O   0  0  0  0  0  0  0  0  0  0  0  0
    4.1648   -2.9660   21.4411 C   0  0  0  0  0  0  0  0  0  0  0  0
    2.5138   -0.7051   19.0224 C   0  0  0  0  0  0  0  0  0  0  0  0
    2.8722    0.5376   19.5186 C   0  0  0  0  0  0  0  0  0  0  0  0
    3.6531    0.6535   20.6456 C   0  0  0  0  0  0  0  0  0  0  0  0
    4.0810   -0.4757   21.2826 C   0  0  0  0  0  0  0  0  0  0  0  0
    3.7252   -1.7206   20.7913 C   0  0  0  0  0  0  0  0  0  0  0  0
    2.9460   -1.8349   19.6676 C   0  0  0  0  0  0  0  0  0  0  0  0
    1.1413    2.0851   19.3083 C   0  0  0  0  0  0  0  0  0  0  0  0
    2.4791    1.7360   18.9275 O   0  0  0  0  0  0  0  0  0  0  0  0
 26 27  1  0  0  0
 27 21  1  0  0  0
 21 20  2  0  0  0
 21 22  1  0  0  0
 20 25  1  0  0  0
 22 23  2  0  0  0
 25 24  2  0  0  0
 23 24  1  0  0  0
 24 19  1  0  0  0
  2  1  2  0  0  0
 19 18  2  0  0  0
 19 17  1  0  0  0
 17 16  1  0  0  0
  1  5  1  0  0  0
  1  9  1  0  0  0
  3  5  1  0  0  0
  3  7  2  0  0  0
  5  8  2  0  0  0
  9 10  1  0  0  0
  7 16  1  0  0  0
  7  4  1  0  0  0
  8  4  1  0  0  0
  8  6  1  0  0  0
 10  6  2  0  0  0
 10 11  1  0  0  0
  4 12  1  0  0  0
  9 13  1  0  0  0
 11 14  1  0  0  0
 11 15  1  0  0  0
M  END
> <minimizedAffinity>
-7.83479

$$$$
5U13_YH5_A_301


 27 29  0  0  0  0  0  0  0  0999 V2000
    9.6189    0.1998   24.1507 C   0  0  0  0  0  0  0  0  0  0  0  0
   10.0842    0.6022   23.0986 O   0  0  0  0  0  0  0  0  0  0  0  0
    7.4830   -0.8861   23.3020 N   0  0  0  0  0  0  0  0  0  0  0  0
    6.7655   -1.5079   25.3607 N   0  0  0  0  0  0  0  0  0  0  0  0
    8.3707   -0.5109   24.2831 C   0  0  0  0  0  0  0  0  0  0  0  0
    8.5379   -0.7088   26.7327 N   0  0  0  0  0  0  0  0  0  0  0  0
    6.5245   -1.4807   24.0074 C   0  0  0  0  0  0  0  0  0  0  0  0
    7.9570   -0.8839   25.5395 C   0  0  0  0  0  0  0  0  0  0  0  0
   10.2061    0.3628   25.3960 N   0  0  0  0  0  0  0  0  0  0  0  0
    9.6705   -0.0735   26.6339 C   0  0  0  0  0  0  0  0  0  0  0  0
   10.4393    0.2428   27.7393 N   0  0  0  0  0  0  0  0  0  0  0  0
    6.1911   -1.9000   26.0575 H   0  0  0  0  0  0  0  0  0  0  0  0
   11.0754    0.8241   25.4230 H   0  0  0  0  0  0  0  0  0  0  0  0
   11.2905    0.7242   27.6255 H   0  0  0  0  0  0  0  0  0  0  0  0
   10.1353   -0.0135   28.6399 H   0  0  0  0  0  0  0  0  0  0  0  0
    5.0221   -2.2188   23.4889 S   0  0  0  0  0  0  0  0  0  0  0  0
    5.5742   -3.8706   23.0631 C   0  0  0  0  0  0  0  0  0  0  0  0
    3.9781   -5.7169   23.3978 O   0  0  0  0  0  0  0  0  0  0  0  0
    4.8472   -4.9564   23.8271 C   0  0  0  0  0  0  0  0  0  0  0  0
    6.9224   -5.7901   26.7743 C   0  0  0  0  0  0  0  0  0  0  0  0
    6.1474   -5.2887   27.8072 C   0  0  0  0  0  0  0  0  0  0  0  0
    4.9428   -4.6728   27.5562 C   0  0  0  0  0  0  0  0  0  0  0  0
    4.5061   -4.5562   26.2679 C   0  0  0  0  0  0  0  0  0  0  0  0
    5.2772   -5.0552   25.2314 C   0  0  0  0  0  0  0  0  0  0  0  0
    6.4785   -5.6686   25.4830 C   0  0  0  0  0  0  0  0  0  0  0  0
    6.8259   -4.0715   29.6762 C   0  0  0  0  0  0  0  0  0  0  0  0
    6.5197   -5.3688   29.1469 O   0  0  0  0  0  0  0  0  0  0  0  0
 26 27  1  0  0  0
 27 21  1  0  0  0
 21 20  2  0  0  0
 21 22  1  0  0  0
 20 25  1  0  0  0
 22 23  2  0  0  0
 25 24  2  0  0  0
 23 24  1  0  0  0
 24 19  1  0  0  0
  2  1  2  0  0  0
 19 18  2  0  0  0
 19 17  1  0  0  0
 17 16  1  0  0  0
  1  5  1  0  0  0
  1  9  1  0  0  0
  3  5  1  0  0  0
  3  7  2  0  0  0
  5  8  2  0  0  0
  9 10  1  0  0  0
  7 16  1  0  0  0
  7  4  1  0  0  0
  8  4  1  0  0  0
  8  6  1  0  0  0
 10  6  2  0  0  0
 10 11  1  0  0  0
  4 12  1  0  0  0
  9 13  1  0  0  0
 11 14  1  0  0  0
 11 15  1  0  0  0
M  END
> <minimizedAffinity>
-7.71110

$$$$
5U13_YH5_A_301


 27 29  0  0  0  0  0  0  0  0999 V2000
    3.0428    0.8627   21.8943 C   0  0  0  0  0  0  0  0  0  0  0  0
    3.2850    1.1210   23.0606 O   0  0  0  0  0  0  0  0  0  0  0  0
    4.0971   -1.4440   21.7249 N   0  0  0  0  0  0  0  0  0  0  0  0
    3.5940   -1.7123   19.5307 N   0  0  0  0  0  0  0  0  0  0  0  0
    3.4245   -0.3549   21.2220 C   0  0  0  0  0  0  0  0  0  0  0  0
    2.4564    0.3243   19.0611 N   0  0  0  0  0  0  0  0  0  0  0  0
    4.1806   -2.2354   20.6588 C   0  0  0  0  0  0  0  0  0  0  0  0
    3.1046   -0.4999   19.8933 C   0  0  0  0  0  0  0  0  0  0  0  0
    2.3670    1.6969   21.0172 N   0  0  0  0  0  0  0  0  0  0  0  0
    2.0977    1.4284   19.6515 C   0  0  0  0  0  0  0  0  0  0  0  0
    1.4341    2.4415   18.9836 N   0  0  0  0  0  0  0  0  0  0  0  0
    3.5402   -2.1317   18.6416 H   0  0  0  0  0  0  0  0  0  0  0  0
    2.0443    2.5551   21.3758 H   0  0  0  0  0  0  0  0  0  0  0  0
    1.1787    3.2624   19.4633 H   0  0  0  0  0  0  0  0  0  0  0  0
    1.2172    2.3418   18.0285 H   0  0  0  0  0  0  0  0  0  0  0  0
    4.9156   -3.8149   20.4694 S   0  0  0  0  0  0  0  0  0  0  0  0
    5.0243   -4.3554   22.1754 C   0  0  0  0  0  0  0  0  0  0  0  0
    7.3311   -3.4983   22.2871 O   0  0  0  0  0  0  0  0  0  0  0  0
    6.3720   -4.0736   22.8041 C   0  0  0  0  0  0  0  0  0  0  0  0
    6.2412   -4.1139   26.5013 C   0  0  0  0  0  0  0  0  0  0  0  0
    6.6471   -5.4094   26.7768 C   0  0  0  0  0  0  0  0  0  0  0  0
    6.9660   -6.2839   25.7634 C   0  0  0  0  0  0  0  0  0  0  0  0
    6.8813   -5.8654   24.4666 C   0  0  0  0  0  0  0  0  0  0  0  0
    6.4755   -4.5716   24.1854 C   0  0  0  0  0  0  0  0  0  0  0  0
    6.1572   -3.7007   25.1969 C   0  0  0  0  0  0  0  0  0  0  0  0
    6.2261   -4.9930   29.0317 C   0  0  0  0  0  0  0  0  0  0  0  0
    6.7613   -5.9129   28.0704 O   0  0  0  0  0  0  0  0  0  0  0  0
 26 27  1  0  0  0
 27 21  1  0  0  0
 21 20  2  0  0  0
 21 22  1  0  0  0
 20 25  1  0  0  0
 22 23  2  0  0  0
 25 24  2  0  0  0
 23 24  1  0  0  0
 24 19  1  0  0  0
  2  1  2  0  0  0
 19 18  2  0  0  0
 19 17  1  0  0  0
 17 16  1  0  0  0
  1  5  1  0  0  0
  1  9  1  0  0  0
  3  5  1  0  0  0
  3  7  2  0  0  0
  5  8  2  0  0  0
  9 10  1  0  0  0
  7 16  1  0  0  0
  7  4  1  0  0  0
  8  4  1  0  0  0
  8  6  1  0  0  0
 10  6  2  0  0  0
 10 11  1  0  0  0
  4 12  1  0  0  0
  9 13  1  0  0  0
 11 14  1  0  0  0
 11 15  1  0  0  0
M  END
> <minimizedAffinity>
-7.48146

$$$$
5U13_YH5_A_301


 27 29  0  0  0  0  0  0  0  0999 V2000
    6.4030   -4.1974   27.7833 C   0  0  0  0  0  0  0  0  0  0  0  0
    6.1139   -4.9382   28.7070 O   0  0  0  0  0  0  0  0  0  0  0  0
    5.4649   -5.5339   25.8353 N   0  0  0  0  0  0  0  0  0  0  0  0
    6.1328   -4.0486   24.2582 N   0  0  0  0  0  0  0  0  0  0  0  0
    6.1124   -4.4572   26.3946 C   0  0  0  0  0  0  0  0  0  0  0  0
    7.1673   -2.3779   25.6002 N   0  0  0  0  0  0  0  0  0  0  0  0
    5.5094   -5.2416   24.5382 C   0  0  0  0  0  0  0  0  0  0  0  0
    6.5208   -3.5410   25.4552 C   0  0  0  0  0  0  0  0  0  0  0  0
    7.0648   -2.9859   27.9107 N   0  0  0  0  0  0  0  0  0  0  0  0
    7.4340   -2.1219   26.8491 C   0  0  0  0  0  0  0  0  0  0  0  0
    8.1182   -0.9855   27.2406 N   0  0  0  0  0  0  0  0  0  0  0  0
    6.2697   -3.6451   23.3707 H   0  0  0  0  0  0  0  0  0  0  0  0
    7.3000   -2.6990   28.8226 H   0  0  0  0  0  0  0  0  0  0  0  0
    8.3017   -0.8256   28.1946 H   0  0  0  0  0  0  0  0  0  0  0  0
    8.4217   -0.3365   26.5654 H   0  0  0  0  0  0  0  0  0  0  0  0
    4.9112   -6.1294   23.1508 S   0  0  0  0  0  0  0  0  0  0  0  0
    3.9380   -4.8704   22.3247 C   0  0  0  0  0  0  0  0  0  0  0  0
    4.6276   -5.7342   20.1232 O   0  0  0  0  0  0  0  0  0  0  0  0
    4.1505   -4.8420   20.8264 C   0  0  0  0  0  0  0  0  0  0  0  0
    3.5396   -1.2189   20.3926 C   0  0  0  0  0  0  0  0  0  0  0  0
    2.9378   -1.1889   19.1452 C   0  0  0  0  0  0  0  0  0  0  0  0
    2.7258   -2.3460   18.4314 C   0  0  0  0  0  0  0  0  0  0  0  0
    3.1147   -3.5417   18.9636 C   0  0  0  0  0  0  0  0  0  0  0  0
    3.7172   -3.5775   20.2099 C   0  0  0  0  0  0  0  0  0  0  0  0
    3.9286   -2.4228   20.9205 C   0  0  0  0  0  0  0  0  0  0  0  0
    3.3490    1.0926   18.8986 C   0  0  0  0  0  0  0  0  0  0  0  0
    2.5109   -0.0125   18.5337 O   0  0  0  0  0  0  0  0  0  0  0  0
 26 27  1  0  0  0
 27 21  1  0  0  0
 21 20  2  0  0  0
 21 22  1  0  0  0
 20 25  1  0  0  0
 22 23  2  0  0  0
 25 24  2  0  0  0
 23 24  1  0  0  0
 24 19  1  0  0  0
  2  1  2  0  0  0
 19 18  2  0  0  0
 19 17  1  0  0  0
 17 16  1  0  0  0
  1  5  1  0  0  0
  1  9  1  0  0  0
  3  5  1  0  0  0
  3  7  2  0  0  0
  5  8  2  0  0  0
  9 10  1  0  0  0
  7 16  1  0  0  0
  7  4  1  0  0  0
  8  4  1  0  0  0
  8  6  1  0  0  0
 10  6  2  0  0  0
 10 11  1  0  0  0
  4 12  1  0  0  0
  9 13  1  0  0  0
 11 14  1  0  0  0
 11 15  1  0  0  0
M  END
> <minimizedAffinity>
-7.42432

$$$$
5U13_YH5_A_301


 27 29  0  0  0  0  0  0  0  0999 V2000
    3.1474    0.8468   19.1312 C   0  0  0  0  0  0  0  0  0  0  0  0
    3.3922    1.4403   18.0952 O   0  0  0  0  0  0  0  0  0  0  0  0
    2.4410   -1.4072   18.1924 N   0  0  0  0  0  0  0  0  0  0  0  0
    1.9936   -2.3160   20.2206 N   0  0  0  0  0  0  0  0  0  0  0  0
    2.6830   -0.5163   19.2118 C   0  0  0  0  0  0  0  0  0  0  0  0
    2.5390   -0.5100   21.6708 N   0  0  0  0  0  0  0  0  0  0  0  0
    2.0188   -2.4803   18.8558 C   0  0  0  0  0  0  0  0  0  0  0  0
    2.4234   -1.0499   20.4514 C   0  0  0  0  0  0  0  0  0  0  0  0
    3.2673    1.3830   20.4041 N   0  0  0  0  0  0  0  0  0  0  0  0
    2.9633    0.7203   21.6199 C   0  0  0  0  0  0  0  0  0  0  0  0
    3.1372    1.4896   22.7561 N   0  0  0  0  0  0  0  0  0  0  0  0
    1.7198   -2.9810   20.8929 H   0  0  0  0  0  0  0  0  0  0  0  0
    3.5936    2.3095   20.4698 H   0  0  0  0  0  0  0  0  0  0  0  0
    3.4598    2.4165   22.6783 H   0  0  0  0  0  0  0  0  0  0  0  0
    2.9383    1.1103   23.6425 H   0  0  0  0  0  0  0  0  0  0  0  0
    1.4921   -4.0456   18.2698 S   0  0  0  0  0  0  0  0  0  0  0  0
    2.1110   -5.1266   19.5593 C   0  0  0  0  0  0  0  0  0  0  0  0
    3.9393   -6.3360   18.4354 O   0  0  0  0  0  0  0  0  0  0  0  0
    3.5349   -5.5817   19.3217 C   0  0  0  0  0  0  0  0  0  0  0  0
    5.4331   -5.1470   22.4675 C   0  0  0  0  0  0  0  0  0  0  0  0
    6.2166   -4.0452   22.1659 C   0  0  0  0  0  0  0  0  0  0  0  0
    6.1373   -3.4329   20.9362 C   0  0  0  0  0  0  0  0  0  0  0  0
    5.2709   -3.9204   20.0003 C   0  0  0  0  0  0  0  0  0  0  0  0
    4.4857   -5.0221   20.2962 C   0  0  0  0  0  0  0  0  0  0  0  0
    4.5662   -5.6321   21.5227 C   0  0  0  0  0  0  0  0  0  0  0  0
    6.6769   -2.1990   23.5132 C   0  0  0  0  0  0  0  0  0  0  0  0
    7.1226   -3.4860   23.0641 O   0  0  0  0  0  0  0  0  0  0  0  0
 26 27  1  0  0  0
 27 21  1  0  0  0
 21 20  2  0  0  0
 21 22  1  0  0  0
 20 25  1  0  0  0
 22 23  2  0  0  0
 25 24  2  0  0  0
 23 24  1  0  0  0
 24 19  1  0  0  0
  2  1  2  0  0  0
 19 18  2  0  0  0
 19 17  1  0  0  0
 17 16  1  0  0  0
  1  5  1  0  0  0
  1  9  1  0  0  0
  3  5  1  0  0  0
  3  7  2  0  0  0
  5  8  2  0  0  0
  9 10  1  0  0  0
  7 16  1  0  0  0
  7  4  1  0  0  0
  8  4  1  0  0  0
  8  6  1  0  0  0
 10  6  2  0  0  0
 10 11  1  0  0  0
  4 12  1  0  0  0
  9 13  1  0  0  0
 11 14  1  0  0  0
 11 15  1  0  0  0
M  END
> <minimizedAffinity>
-7.38182

$$$$
5U13_YH5_A_301


 27 29  0  0  0  0  0  0  0  0999 V2000
    4.5669   -4.5550   26.7214 C   0  0  0  0  0  0  0  0  0  0  0  0
    3.4520   -4.0928   26.8909 O   0  0  0  0  0  0  0  0  0  0  0  0
    4.9347   -3.9378   24.2831 N   0  0  0  0  0  0  0  0  0  0  0  0
    6.9819   -4.9036   24.1586 N   0  0  0  0  0  0  0  0  0  0  0  0
    5.3022   -4.5035   25.4816 C   0  0  0  0  0  0  0  0  0  0  0  0
    7.2434   -5.7286   26.3752 N   0  0  0  0  0  0  0  0  0  0  0  0
    5.9836   -4.2134   23.5127 C   0  0  0  0  0  0  0  0  0  0  0  0
    6.5440   -5.0900   25.4293 C   0  0  0  0  0  0  0  0  0  0  0  0
    5.3122   -5.2128   27.6878 N   0  0  0  0  0  0  0  0  0  0  0  0
    6.5983   -5.7807   27.5055 C   0  0  0  0  0  0  0  0  0  0  0  0
    7.1140   -6.4130   28.6222 N   0  0  0  0  0  0  0  0  0  0  0  0
    7.8391   -5.2017   23.7772 H   0  0  0  0  0  0  0  0  0  0  0  0
    4.9112   -5.2931   28.5833 H   0  0  0  0  0  0  0  0  0  0  0  0
    6.5970   -6.4320   29.4598 H   0  0  0  0  0  0  0  0  0  0  0  0
    7.9980   -6.8441   28.5795 H   0  0  0  0  0  0  0  0  0  0  0  0
    6.2846   -3.8441   21.8263 S   0  0  0  0  0  0  0  0  0  0  0  0
    4.6818   -3.2256   21.3136 C   0  0  0  0  0  0  0  0  0  0  0  0
    5.1559   -1.0674   22.4027 O   0  0  0  0  0  0  0  0  0  0  0  0
    4.4708   -1.7659   21.6538 C   0  0  0  0  0  0  0  0  0  0  0  0
    1.0078   -1.4022   20.4034 C   0  0  0  0  0  0  0  0  0  0  0  0
    1.0779   -0.1828   19.7500 C   0  0  0  0  0  0  0  0  0  0  0  0
    2.2513    0.5348   19.7105 C   0  0  0  0  0  0  0  0  0  0  0  0
    3.3631    0.0344   20.3248 C   0  0  0  0  0  0  0  0  0  0  0  0
    3.2985   -1.1840   20.9800 C   0  0  0  0  0  0  0  0  0  0  0  0
    2.1276   -1.8983   21.0192 C   0  0  0  0  0  0  0  0  0  0  0  0
   -1.1530   -0.4680   19.1362 C   0  0  0  0  0  0  0  0  0  0  0  0
   -0.0086    0.3955   19.0980 O   0  0  0  0  0  0  0  0  0  0  0  0
 26 27  1  0  0  0
 27 21  1  0  0  0
 21 20  2  0  0  0
 21 22  1  0  0  0
 20 25  1  0  0  0
 22 23  2  0  0  0
 25 24  2  0  0  0
 23 24  1  0  0  0
 24 19  1  0  0  0
  2  1  2  0  0  0
 19 18  2  0  0  0
 19 17  1  0  0  0
 17 16  1  0  0  0
  1  5  1  0  0  0
  1  9  1  0  0  0
  3  5  1  0  0  0
  3  7  2  0  0  0
  5  8  2  0  0  0
  9 10  1  0  0  0
  7 16  1  0  0  0
  7  4  1  0  0  0
  8  4  1  0  0  0
  8  6  1  0  0  0
 10  6  2  0  0  0
 10 11  1  0  0  0
  4 12  1  0  0  0
  9 13  1  0  0  0
 11 14  1  0  0  0
 11 15  1  0  0  0
M  END
> <minimizedAffinity>
-7.18456

$$$$
5U13_YH5_A_301


 27 29  0  0  0  0  0  0  0  0999 V2000
    1.8776   -2.7667   17.5455 C   0  0  0  0  0  0  0  0  0  0  0  0
    1.0718   -2.4326   16.6942 O   0  0  0  0  0  0  0  0  0  0  0  0
    2.2052   -0.5464   18.7389 N   0  0  0  0  0  0  0  0  0  0  0  0
    3.7309   -1.3540   20.2084 N   0  0  0  0  0  0  0  0  0  0  0  0
    2.4455   -1.8852   18.5359 C   0  0  0  0  0  0  0  0  0  0  0  0
    3.8502   -3.6371   19.5484 N   0  0  0  0  0  0  0  0  0  0  0  0
    3.0134   -0.2707   19.7591 C   0  0  0  0  0  0  0  0  0  0  0  0
    3.3643   -2.3964   19.4210 C   0  0  0  0  0  0  0  0  0  0  0  0
    2.3882   -4.0462   17.7009 N   0  0  0  0  0  0  0  0  0  0  0  0
    3.3447   -4.4507   18.6659 C   0  0  0  0  0  0  0  0  0  0  0  0
    3.7155   -5.7809   18.5892 N   0  0  0  0  0  0  0  0  0  0  0  0
    4.3784   -1.3701   20.9498 H   0  0  0  0  0  0  0  0  0  0  0  0
    2.0559   -4.7378   17.0840 H   0  0  0  0  0  0  0  0  0  0  0  0
    3.3115   -6.3661   17.9083 H   0  0  0  0  0  0  0  0  0  0  0  0
    4.3835   -6.1426   19.2155 H   0  0  0  0  0  0  0  0  0  0  0  0
    3.3059    1.2367   20.6034 S   0  0  0  0  0  0  0  0  0  0  0  0
    4.4666    0.7102   21.8643 C   0  0  0  0  0  0  0  0  0  0  0  0
    2.7001    0.0028   23.4287 O   0  0  0  0  0  0  0  0  0  0  0  0
    3.8269   -0.1303   22.9484 C   0  0  0  0  0  0  0  0  0  0  0  0
    4.9091   -3.4582   24.1494 C   0  0  0  0  0  0  0  0  0  0  0  0
    6.2646   -3.2517   24.3472 C   0  0  0  0  0  0  0  0  0  0  0  0
    6.8412   -2.0290   24.0906 C   0  0  0  0  0  0  0  0  0  0  0  0
    6.0628   -1.0041   23.6349 C   0  0  0  0  0  0  0  0  0  0  0  0
    4.7072   -1.2051   23.4349 C   0  0  0  0  0  0  0  0  0  0  0  0
    4.1335   -2.4250   23.6905 C   0  0  0  0  0  0  0  0  0  0  0  0
    7.1275   -5.3777   23.9335 C   0  0  0  0  0  0  0  0  0  0  0  0
    7.1262   -4.2431   24.8107 O   0  0  0  0  0  0  0  0  0  0  0  0
 26 27  1  0  0  0
 27 21  1  0  0  0
 21 20  2  0  0  0
 21 22  1  0  0  0
 20 25  1  0  0  0
 22 23  2  0  0  0
 25 24  2  0  0  0
 23 24  1  0  0  0
 24 19  1  0  0  0
  2  1  2  0  0  0
 19 18  2  0  0  0
 19 17  1  0  0  0
 17 16  1  0  0  0
  1  5  1  0  0  0
  1  9  1  0  0  0
  3  5  1  0  0  0
  3  7  2  0  0  0
  5  8  2  0  0  0
  9 10  1  0  0  0
  7 16  1  0  0  0
  7  4  1  0  0  0
  8  4  1  0  0  0
  8  6  1  0  0  0
 10  6  2  0  0  0
 10 11  1  0  0  0
  4 12  1  0  0  0
  9 13  1  0  0  0
 11 14  1  0  0  0
 11 15  1  0  0  0
M  END
> <minimizedAffinity>
-7.10835

$$$$
