3OUJ_AKG_A_417


 12 11  0  0  0  0  0  0  0  0999 V2000
   13.1253   25.9314   -4.2479 C   0  0  0  0  0  0  0  0  0  0  0  0
   13.5763   26.5947   -5.1721 O   0  0  0  0  0  0  0  0  0  0  0  0
   12.2509   24.7733   -4.5200 C   0  0  0  0  0  0  0  0  0  0  0  0
   12.4084   23.6852   -3.8859 O   0  0  0  0  0  0  0  0  0  0  0  0
   11.3598   24.8906   -5.3898 O   0  0  0  0  0  0  0  0  0  0  0  0
   11.2569   25.7009   -5.8488 H   0  0  0  0  0  0  0  0  0  0  0  0
   13.4591   26.3252   -2.8184 C   0  0  0  0  0  0  0  0  0  0  0  0
   14.9586   26.1526   -2.5793 C   0  0  0  0  0  0  0  0  0  0  0  0
   15.3440   24.7063   -2.3686 C   0  0  0  0  0  0  0  0  0  0  0  0
   16.4542   24.2943   -2.7717 O   0  0  0  0  0  0  0  0  0  0  0  0
   14.5200   23.9625   -1.7942 O   0  0  0  0  0  0  0  0  0  0  0  0
   13.6981   24.3081   -1.5064 H   0  0  0  0  0  0  0  0  0  0  0  0
  3  4  2  0  0  0
  3  5  1  0  0  0
  3  1  1  0  0  0
  1  2  2  0  0  0
  1  7  1  0  0  0
  7  8  1  0  0  0
  8  9  1  0  0  0
  9 10  2  0  0  0
  9 11  1  0  0  0
  5  6  1  0  0  0
 11 12  1  0  0  0
M  END
> <minimizedAffinity>
-5.49419

$$$$
3OUJ_AKG_A_417


 12 11  0  0  0  0  0  0  0  0999 V2000
   14.8250   24.7838   -1.9640 C   0  0  0  0  0  0  0  0  0  0  0  0
   14.2544   23.7933   -1.5272 O   0  0  0  0  0  0  0  0  0  0  0  0
   15.3944   24.7749   -3.3262 C   0  0  0  0  0  0  0  0  0  0  0  0
   16.5079   24.2104   -3.5544 O   0  0  0  0  0  0  0  0  0  0  0  0
   14.7567   25.3391   -4.2425 O   0  0  0  0  0  0  0  0  0  0  0  0
   13.9359   25.7512   -4.0570 H   0  0  0  0  0  0  0  0  0  0  0  0
   14.9578   26.0143   -1.0820 C   0  0  0  0  0  0  0  0  0  0  0  0
   13.5790   26.6363   -0.8642 C   0  0  0  0  0  0  0  0  0  0  0  0
   13.3339   27.8217   -1.7697 C   0  0  0  0  0  0  0  0  0  0  0  0
   13.2107   27.6468   -3.0022 O   0  0  0  0  0  0  0  0  0  0  0  0
   13.2687   28.9528   -1.2422 O   0  0  0  0  0  0  0  0  0  0  0  0
   13.3660   29.0435   -0.3146 H   0  0  0  0  0  0  0  0  0  0  0  0
  3  4  2  0  0  0
  3  5  1  0  0  0
  3  1  1  0  0  0
  1  2  2  0  0  0
  1  7  1  0  0  0
  7  8  1  0  0  0
  8  9  1  0  0  0
  9 10  2  0  0  0
  9 11  1  0  0  0
  5  6  1  0  0  0
 11 12  1  0  0  0
M  END
> <minimizedAffinity>
-5.48835

$$$$
3OUJ_AKG_A_417


 12 11  0  0  0  0  0  0  0  0999 V2000
   13.6284   25.5960   -4.5650 C   0  0  0  0  0  0  0  0  0  0  0  0
   14.2520   25.6939   -5.6133 O   0  0  0  0  0  0  0  0  0  0  0  0
   12.3740   24.8189   -4.5148 C   0  0  0  0  0  0  0  0  0  0  0  0
   12.2208   23.8995   -3.6535 O   0  0  0  0  0  0  0  0  0  0  0  0
   11.4741   25.0856   -5.3416 O   0  0  0  0  0  0  0  0  0  0  0  0
   11.6034   25.7675   -5.9710 H   0  0  0  0  0  0  0  0  0  0  0  0
   14.1489   26.2990   -3.3222 C   0  0  0  0  0  0  0  0  0  0  0  0
   13.1933   27.4278   -2.9373 C   0  0  0  0  0  0  0  0  0  0  0  0
   13.4269   27.9231   -1.5284 C   0  0  0  0  0  0  0  0  0  0  0  0
   13.2377   29.1289   -1.2546 O   0  0  0  0  0  0  0  0  0  0  0  0
   13.8133   27.0938   -0.6770 O   0  0  0  0  0  0  0  0  0  0  0  0
   13.9438   26.1985   -0.9205 H   0  0  0  0  0  0  0  0  0  0  0  0
  3  4  2  0  0  0
  3  5  1  0  0  0
  3  1  1  0  0  0
  1  2  2  0  0  0
  1  7  1  0  0  0
  7  8  1  0  0  0
  8  9  1  0  0  0
  9 10  2  0  0  0
  9 11  1  0  0  0
  5  6  1  0  0  0
 11 12  1  0  0  0
M  END
> <minimizedAffinity>
-5.45827

$$$$
3OUJ_AKG_A_417


 12 11  0  0  0  0  0  0  0  0999 V2000
   14.5642   25.0914   -4.0561 C   0  0  0  0  0  0  0  0  0  0  0  0
   14.4127   25.2073   -5.2649 O   0  0  0  0  0  0  0  0  0  0  0  0
   15.7983   24.4881   -3.5148 C   0  0  0  0  0  0  0  0  0  0  0  0
   16.5436   23.7750   -4.2541 O   0  0  0  0  0  0  0  0  0  0  0  0
   16.0852   24.6931   -2.3148 O   0  0  0  0  0  0  0  0  0  0  0  0
   15.5240   25.2220   -1.7826 H   0  0  0  0  0  0  0  0  0  0  0  0
   13.4603   25.5569   -3.1209 C   0  0  0  0  0  0  0  0  0  0  0  0
   13.4920   27.0811   -3.0141 C   0  0  0  0  0  0  0  0  0  0  0  0
   13.7379   27.5530   -1.5993 C   0  0  0  0  0  0  0  0  0  0  0  0
   13.2286   28.6252   -1.2048 O   0  0  0  0  0  0  0  0  0  0  0  0
   14.4596   26.8428   -0.8665 O   0  0  0  0  0  0  0  0  0  0  0  0
   14.8234   26.0456   -1.1982 H   0  0  0  0  0  0  0  0  0  0  0  0
  3  4  2  0  0  0
  3  5  1  0  0  0
  3  1  1  0  0  0
  1  2  2  0  0  0
  1  7  1  0  0  0
  7  8  1  0  0  0
  8  9  1  0  0  0
  9 10  2  0  0  0
  9 11  1  0  0  0
  5  6  1  0  0  0
 11 12  1  0  0  0
M  END
> <minimizedAffinity>
-5.31761

$$$$
3OUJ_AKG_A_417


 12 11  0  0  0  0  0  0  0  0999 V2000
   14.6099   26.1631   -2.1793 C   0  0  0  0  0  0  0  0  0  0  0  0
   15.1310   27.0256   -1.4850 O   0  0  0  0  0  0  0  0  0  0  0  0
   15.1109   24.7748   -2.1431 C   0  0  0  0  0  0  0  0  0  0  0  0
   16.2598   24.4932   -2.6030 O   0  0  0  0  0  0  0  0  0  0  0  0
   14.3758   23.8884   -1.6547 O   0  0  0  0  0  0  0  0  0  0  0  0
   13.5303   24.1133   -1.3194 H   0  0  0  0  0  0  0  0  0  0  0  0
   13.4556   26.5416   -3.0926 C   0  0  0  0  0  0  0  0  0  0  0  0
   13.5345   25.7217   -4.3799 C   0  0  0  0  0  0  0  0  0  0  0  0
   12.3578   24.7862   -4.5383 C   0  0  0  0  0  0  0  0  0  0  0  0
   12.2942   23.7456   -3.8470 O   0  0  0  0  0  0  0  0  0  0  0  0
   11.4804   25.0916   -5.3744 O   0  0  0  0  0  0  0  0  0  0  0  0
   11.5633   25.8802   -5.8737 H   0  0  0  0  0  0  0  0  0  0  0  0
  3  4  2  0  0  0
  3  5  1  0  0  0
  3  1  1  0  0  0
  1  2  2  0  0  0
  1  7  1  0  0  0
  7  8  1  0  0  0
  8  9  1  0  0  0
  9 10  2  0  0  0
  9 11  1  0  0  0
  5  6  1  0  0  0
 11 12  1  0  0  0
M  END
> <minimizedAffinity>
-5.28731

$$$$
3OUJ_AKG_A_417


 12 11  0  0  0  0  0  0  0  0999 V2000
   13.2961   25.0768   -3.7471 C   0  0  0  0  0  0  0  0  0  0  0  0
   12.9783   24.3763   -2.7954 O   0  0  0  0  0  0  0  0  0  0  0  0
   12.9054   24.6923   -5.1180 C   0  0  0  0  0  0  0  0  0  0  0  0
   13.7899   24.4261   -5.9883 O   0  0  0  0  0  0  0  0  0  0  0  0
   11.6876   24.6410   -5.3984 O   0  0  0  0  0  0  0  0  0  0  0  0
   11.0473   24.8405   -4.7440 H   0  0  0  0  0  0  0  0  0  0  0  0
   14.1134   26.3349   -3.5036 C   0  0  0  0  0  0  0  0  0  0  0  0
   13.1935   27.4536   -3.0160 C   0  0  0  0  0  0  0  0  0  0  0  0
   13.4962   27.8676   -1.5941 C   0  0  0  0  0  0  0  0  0  0  0  0
   14.0606   27.0634   -0.8198 O   0  0  0  0  0  0  0  0  0  0  0  0
   13.1587   29.0174   -1.2388 O   0  0  0  0  0  0  0  0  0  0  0  0
   12.7378   29.5914   -1.8481 H   0  0  0  0  0  0  0  0  0  0  0  0
  3  4  2  0  0  0
  3  5  1  0  0  0
  3  1  1  0  0  0
  1  2  2  0  0  0
  1  7  1  0  0  0
  7  8  1  0  0  0
  8  9  1  0  0  0
  9 10  2  0  0  0
  9 11  1  0  0  0
  5  6  1  0  0  0
 11 12  1  0  0  0
M  END
> <minimizedAffinity>
-5.22108

$$$$
3OUJ_AKG_A_417


 12 11  0  0  0  0  0  0  0  0999 V2000
   13.5449   26.8610   -2.6230 C   0  0  0  0  0  0  0  0  0  0  0  0
   13.4616   27.4040   -3.7165 O   0  0  0  0  0  0  0  0  0  0  0  0
   13.5174   27.6680   -1.3870 C   0  0  0  0  0  0  0  0  0  0  0  0
   13.1842   28.8920   -1.4251 O   0  0  0  0  0  0  0  0  0  0  0  0
   13.8340   27.1183   -0.3090 O   0  0  0  0  0  0  0  0  0  0  0  0
   14.0775   26.2136   -0.2983 H   0  0  0  0  0  0  0  0  0  0  0  0
   13.6967   25.3504   -2.5530 C   0  0  0  0  0  0  0  0  0  0  0  0
   15.1789   24.9837   -2.6170 C   0  0  0  0  0  0  0  0  0  0  0  0
   15.5689   24.3985   -3.9550 C   0  0  0  0  0  0  0  0  0  0  0  0
   14.7275   24.3467   -4.8792 O   0  0  0  0  0  0  0  0  0  0  0  0
   16.7375   23.9753   -4.0864 O   0  0  0  0  0  0  0  0  0  0  0  0
   17.3394   24.0315   -3.3705 H   0  0  0  0  0  0  0  0  0  0  0  0
  3  4  2  0  0  0
  3  5  1  0  0  0
  3  1  1  0  0  0
  1  2  2  0  0  0
  1  7  1  0  0  0
  7  8  1  0  0  0
  8  9  1  0  0  0
  9 10  2  0  0  0
  9 11  1  0  0  0
  5  6  1  0  0  0
 11 12  1  0  0  0
M  END
> <minimizedAffinity>
-5.13939

$$$$
3OUJ_AKG_A_417


 12 11  0  0  0  0  0  0  0  0999 V2000
   14.1868   26.9215   -2.5474 C   0  0  0  0  0  0  0  0  0  0  0  0
   15.2460   26.3107   -2.4967 O   0  0  0  0  0  0  0  0  0  0  0  0
   13.6612   27.6011   -1.3467 C   0  0  0  0  0  0  0  0  0  0  0  0
   13.2164   28.7874   -1.4217 O   0  0  0  0  0  0  0  0  0  0  0  0
   13.6703   26.9825   -0.2596 O   0  0  0  0  0  0  0  0  0  0  0  0
   14.0021   26.1070   -0.2216 H   0  0  0  0  0  0  0  0  0  0  0  0
   13.4104   26.9556   -3.8534 C   0  0  0  0  0  0  0  0  0  0  0  0
   13.7166   25.6950   -4.6613 C   0  0  0  0  0  0  0  0  0  0  0  0
   12.6588   24.6295   -4.4865 C   0  0  0  0  0  0  0  0  0  0  0  0
   11.6374   24.6439   -5.2086 O   0  0  0  0  0  0  0  0  0  0  0  0
   12.8465   23.7625   -3.6061 O   0  0  0  0  0  0  0  0  0  0  0  0
   13.6247   23.7850   -3.0848 H   0  0  0  0  0  0  0  0  0  0  0  0
  3  4  2  0  0  0
  3  5  1  0  0  0
  3  1  1  0  0  0
  1  2  2  0  0  0
  1  7  1  0  0  0
  7  8  1  0  0  0
  8  9  1  0  0  0
  9 10  2  0  0  0
  9 11  1  0  0  0
  5  6  1  0  0  0
 11 12  1  0  0  0
M  END
> <minimizedAffinity>
-5.10104

$$$$
3OUJ_AKG_A_417


 12 11  0  0  0  0  0  0  0  0999 V2000
   13.6979   26.9569   -2.8849 C   0  0  0  0  0  0  0  0  0  0  0  0
   13.1781   27.7660   -3.6417 O   0  0  0  0  0  0  0  0  0  0  0  0
   13.5927   27.1312   -1.4226 C   0  0  0  0  0  0  0  0  0  0  0  0
   13.5587   28.2934   -0.9139 O   0  0  0  0  0  0  0  0  0  0  0  0
   13.5432   26.1095   -0.7026 O   0  0  0  0  0  0  0  0  0  0  0  0
   13.5694   25.2587   -1.0943 H   0  0  0  0  0  0  0  0  0  0  0  0
   14.4687   25.7836   -3.4671 C   0  0  0  0  0  0  0  0  0  0  0  0
   13.8616   25.3932   -4.8141 C   0  0  0  0  0  0  0  0  0  0  0  0
   12.6456   24.5083   -4.6615 C   0  0  0  0  0  0  0  0  0  0  0  0
   12.6215   23.6348   -3.7663 O   0  0  0  0  0  0  0  0  0  0  0  0
   11.6958   24.6831   -5.4548 O   0  0  0  0  0  0  0  0  0  0  0  0
   11.7511   25.3482   -6.1125 H   0  0  0  0  0  0  0  0  0  0  0  0
  3  4  2  0  0  0
  3  5  1  0  0  0
  3  1  1  0  0  0
  1  2  2  0  0  0
  1  7  1  0  0  0
  7  8  1  0  0  0
  8  9  1  0  0  0
  9 10  2  0  0  0
  9 11  1  0  0  0
  5  6  1  0  0  0
 11 12  1  0  0  0
M  END
> <minimizedAffinity>
-5.10084

$$$$
3OUJ_AKG_A_417


 12 11  0  0  0  0  0  0  0  0999 V2000
   15.1622   24.8402   -3.1759 C   0  0  0  0  0  0  0  0  0  0  0  0
   16.2240   24.3900   -3.5850 O   0  0  0  0  0  0  0  0  0  0  0  0
   13.9114   24.5887   -3.9189 C   0  0  0  0  0  0  0  0  0  0  0  0
   13.5415   25.3776   -4.8417 O   0  0  0  0  0  0  0  0  0  0  0  0
   13.2278   23.5868   -3.6133 O   0  0  0  0  0  0  0  0  0  0  0  0
   13.5151   23.0144   -2.9294 H   0  0  0  0  0  0  0  0  0  0  0  0
   15.1492   25.6764   -1.9069 C   0  0  0  0  0  0  0  0  0  0  0  0
   13.7112   26.0695   -1.5704 C   0  0  0  0  0  0  0  0  0  0  0  0
   13.4363   27.5307   -1.8427 C   0  0  0  0  0  0  0  0  0  0  0  0
   13.5801   28.3708   -0.9272 O   0  0  0  0  0  0  0  0  0  0  0  0
   13.0629   27.8478   -2.9925 O   0  0  0  0  0  0  0  0  0  0  0  0
   12.9668   27.1893   -3.6522 H   0  0  0  0  0  0  0  0  0  0  0  0
  3  4  2  0  0  0
  3  5  1  0  0  0
  3  1  1  0  0  0
  1  2  2  0  0  0
  1  7  1  0  0  0
  7  8  1  0  0  0
  8  9  1  0  0  0
  9 10  2  0  0  0
  9 11  1  0  0  0
  5  6  1  0  0  0
 11 12  1  0  0  0
M  END
> <minimizedAffinity>
-5.09029

$$$$
