3CKB_MLR_A_903
  RCSB PDB12061708113D
Coordinates from PDB:3CKB:A:903 Model:1 without hydrogens
 34 36  0  0  0  0            999 V2000
   14.0510  -20.4220   -3.0880   C 0  0  0  0  0  0  0  0  0  0  0  0
   13.6190  -20.1010   -4.5380   C 0  0  0  0  0  0  0  0  0  0  0  0
   14.9150  -19.8690   -5.3310   C 0  0  0  0  0  0  0  0  0  0  0  0
   15.6680  -18.6750   -4.7060   C 0  0  0  0  0  0  0  0  0  0  0  0
   15.9730  -19.0330   -3.2200   C 0  0  0  0  0  0  0  0  0  0  0  0
   16.6810  -17.8440   -2.5610   C 0  0  0  0  0  0  0  0  0  0  0  0
   12.9260  -20.7760   -2.2820   O 0  0  0  0  0  0  0  0  0  0  0  0
   12.9360  -21.2220   -5.1020   O 0  0  0  0  0  0  0  0  0  0  0  0
   14.5970  -19.5470   -6.6870   O 0  0  0  0  0  0  0  0  0  0  0  0
   16.9130  -18.4880   -5.4290   O 0  0  0  0  0  0  0  0  0  0  0  0
   14.7320  -19.2760   -2.5040   O 0  0  0  0  0  0  0  0  0  0  0  0
   17.0500  -18.1980   -1.2160   O 0  0  0  0  0  0  0  0  0  0  0  0
   16.9690  -17.2440   -6.1700   C 0  0  0  0  0  0  0  0  0  0  0  0
   17.7510  -17.5110   -7.4810   C 0  0  0  0  0  0  0  0  0  0  0  0
   19.1350  -18.0690   -7.0840   C 0  0  0  0  0  0  0  0  0  0  0  0
   19.8630  -17.0170   -6.2350   C 0  0  0  0  0  0  0  0  0  0  0  0
   18.9950  -16.7230   -4.9700   C 0  0  0  0  0  0  0  0  0  0  0  0
   19.6790  -15.6560   -4.0910   C 0  0  0  0  0  0  0  0  0  0  0  0
   17.0610  -18.4950   -8.2700   O 0  0  0  0  0  0  0  0  0  0  0  0
   19.9070  -18.3440   -8.2580   O 0  0  0  0  0  0  0  0  0  0  0  0
   21.1450  -17.5440   -5.8400   O 0  0  0  0  0  0  0  0  0  0  0  0
   17.6730  -16.2360   -5.3680   O 0  0  0  0  0  0  0  0  0  0  0  0
   19.7890  -14.4200   -4.7950   O 0  0  0  0  0  0  0  0  0  0  0  0
   22.2240  -16.6980   -6.3050   C 0  0  0  0  0  0  0  0  0  0  0  0
   23.3050  -17.5570   -7.0240   C 0  0  0  0  0  0  0  0  0  0  0  0
   23.8170  -18.6120   -6.0190   C 0  0  0  0  0  0  0  0  0  0  0  0
   24.4200  -17.8730   -4.8080   C 0  0  0  0  0  0  0  0  0  0  0  0
   23.3150  -16.9950   -4.1710   C 0  0  0  0  0  0  0  0  0  0  0  0
   23.9150  -16.2290   -2.9920   C 0  0  0  0  0  0  0  0  0  0  0  0
   22.7310  -18.2150   -8.1600   O 0  0  0  0  0  0  0  0  0  0  0  0
   24.8210  -19.4290   -6.6340   O 0  0  0  0  0  0  0  0  0  0  0  0
   24.8990  -18.8370   -3.8500   O 0  0  0  0  0  0  0  0  0  0  0  0
   22.8190  -16.0250   -5.1520   O 0  0  0  0  0  0  0  0  0  0  0  0
   22.8760  -15.9080   -2.0650   O 0  0  0  0  0  0  0  0  0  0  0  0
  1  2  1  0  0  0  0
  1  7  1  0  0  0  0
  1 11  1  0  0  0  0
  2  3  1  0  0  0  0
  2  8  1  0  0  0  0
  3  4  1  0  0  0  0
  3  9  1  0  0  0  0
  4  5  1  0  0  0  0
  4 10  1  0  0  0  0
  5  6  1  0  0  0  0
  5 11  1  0  0  0  0
  6 12  1  0  0  0  0
 10 13  1  0  0  0  0
 13 14  1  0  0  0  0
 13 22  1  0  0  0  0
 14 15  1  0  0  0  0
 14 19  1  0  0  0  0
 15 16  1  0  0  0  0
 15 20  1  0  0  0  0
 16 17  1  0  0  0  0
 16 21  1  0  0  0  0
 17 18  1  0  0  0  0
 17 22  1  0  0  0  0
 18 23  1  0  0  0  0
 21 24  1  0  0  0  0
 24 25  1  0  0  0  0
 24 33  1  0  0  0  0
 25 26  1  0  0  0  0
 25 30  1  0  0  0  0
 26 27  1  0  0  0  0
 26 31  1  0  0  0  0
 27 28  1  0  0  0  0
 27 32  1  0  0  0  0
 28 29  1  0  0  0  0
 28 33  1  0  0  0  0
 29 34  1  0  0  0  0
A    1
C1A
A    2
C2A
A    3
C3A
A    4
C4A
A    5
C5A
A    6
C6A
A    7
O1X
A    8
O2A
A    9
O3A
A   10
O4A
A   11
O5A
A   12
O6A
A   13
C1B
A   14
C2B
A   15
C3B
A   16
C4B
A   17
C5B
A   18
C6B
A   19
O2B
A   20
O3B
A   21
O4B
A   22
O5B
A   23
O6B
A   24
C1C
A   25
C2C
A   26
C3C
A   27
C4C
A   28
C5C
A   29
C6C
A   30
O2C
A   31
O3C
A   32
O4C
A   33
O5C
A   34
O6C
M  END
>  <InstanceId>
3CKB_MLR_A_903

>  <ChemCompId>
MLR

>  <PdbId>
3CKB

>  <ChainId>
A

>  <ResidueNumber>
903

>  <InsertionCode>


>  <Model>
1

>  <AltIds>


>  <MissingHeavyAtoms>
0

>  <ObservedFormula>
C18 O16

>  <Name>
MALTOTRIOSE

>  <SystematicName>
(2S,3R,4R,5S,6R)-5-[(2R,3R,4R,5S,6R)-3,4-dihydroxy-6-(hydroxymethyl)-5-[(2R,3R,4S,5S,6R)-3,4,5-trihydroxy-6-(hydroxymethyl)oxan-2-yl]oxy-oxan-2-yl]oxy-6-(hydroxymethyl)oxane-2,3,4-triol

>  <Synonyms>
AMYLOTRIOSE

>  <Type>
NON-POLYMER

>  <Formula>
C18 H32 O16

>  <MolecularWeight>
504.437

>  <ModifiedDate>
2011-06-04

>  <Parent>


>  <OneLetterCode>


>  <SubcomponentList>


>  <AmbiguousFlag>
N

>  <InChI>
InChI=1S/C18H32O16/c19-1-4-7(22)8(23)12(27)17(31-4)34-15-6(3-21)32-18(13(28)10(15)25)33-14-5(2-20)30-16(29)11(26)9(14)24/h4-29H,1-3H2/t4-,5-,6-,7-,8+,9-,10-,11-,12-,13-,14-,15-,16+,17-,18-/m1/s1

>  <InChIKey>
FYGDTMLNYKFZSV-PXXRMHSHSA-N

>  <SMILES>
C([C@@H]1[C@H]([C@@H]([C@H]([C@H](O1)O[C@@H]2[C@H](O[C@@H]([C@@H]([C@H]2O)O)O[C@@H]3[C@H](O[C@@H]([C@@H]([C@H]3O)O)O)CO)CO)O)O)O)O

$$$$
