3CKB_MLR_A_903


 45 47  0  0  0  0  0  0  0  0999 V2000
   16.6010  -20.1099   -8.3702 C   0  0  0  0  0  0  0  0  0  0  0  0
   17.3059  -19.0975   -7.4323 C   0  0  0  0  0  0  0  0  0  0  0  0
   16.6343  -19.2115   -6.0465 C   0  0  0  0  0  0  0  0  0  0  0  0
   15.1475  -18.8568   -6.1912 C   0  0  0  0  0  0  0  0  0  0  0  0
   14.5036  -19.8525   -7.2081 C   0  0  0  0  0  0  0  0  0  0  0  0
   18.6973  -19.4360   -7.3048 O   0  0  0  0  0  0  0  0  0  0  0  0
   17.2491  -18.3011   -5.1282 O   0  0  0  0  0  0  0  0  0  0  0  0
   15.1816  -19.7599   -8.5023 O   0  0  0  0  0  0  0  0  0  0  0  0
   18.7801  -20.3347   -6.9492 H   0  0  0  0  0  0  0  0  0  0  0  0
   17.1528  -17.3943   -5.4588 H   0  0  0  0  0  0  0  0  0  0  0  0
   13.0086  -19.5250   -7.4003 C   0  0  0  0  0  0  0  0  0  0  0  0
   12.6545  -19.5847   -8.7811 O   0  0  0  0  0  0  0  0  0  0  0  0
   13.1773  -18.9355   -9.2773 H   0  0  0  0  0  0  0  0  0  0  0  0
   16.7137  -21.4224   -7.7663 O   0  0  0  0  0  0  0  0  0  0  0  0
   18.9935  -23.0812  -10.8425 C   0  0  0  0  0  0  0  0  0  0  0  0
   17.4680  -23.0368  -11.0936 C   0  0  0  0  0  0  0  0  0  0  0  0
   16.9031  -21.9875  -10.1229 C   0  0  0  0  0  0  0  0  0  0  0  0
   17.2083  -22.4380   -8.6782 C   0  0  0  0  0  0  0  0  0  0  0  0
   18.7557  -22.5608   -8.5374 C   0  0  0  0  0  0  0  0  0  0  0  0
   19.6446  -23.9416  -11.7786 O   0  0  0  0  0  0  0  0  0  0  0  0
   17.2070  -22.6058  -12.4305 O   0  0  0  0  0  0  0  0  0  0  0  0
   15.4852  -21.9000  -10.2824 O   0  0  0  0  0  0  0  0  0  0  0  0
   19.2639  -23.5365   -9.4869 O   0  0  0  0  0  0  0  0  0  0  0  0
   19.3065  -24.8451  -11.6766 H   0  0  0  0  0  0  0  0  0  0  0  0
   17.6021  -21.7312  -12.5712 H   0  0  0  0  0  0  0  0  0  0  0  0
   15.0853  -22.7646  -10.0996 H   0  0  0  0  0  0  0  0  0  0  0  0
   19.0853  -23.0521   -7.1234 C   0  0  0  0  0  0  0  0  0  0  0  0
   18.8265  -21.9951   -6.1819 O   0  0  0  0  0  0  0  0  0  0  0  0
   19.3786  -21.2274   -6.3979 H   0  0  0  0  0  0  0  0  0  0  0  0
   14.5107  -18.9875   -4.9048 O   0  0  0  0  0  0  0  0  0  0  0  0
   14.8561  -20.2448   -4.2756 C   0  0  0  0  0  0  0  0  0  0  0  0
   13.5797  -20.9201   -3.6942 C   0  0  0  0  0  0  0  0  0  0  0  0
   12.9480  -19.9431   -2.6784 C   0  0  0  0  0  0  0  0  0  0  0  0
   13.9791  -19.6698   -1.5656 C   0  0  0  0  0  0  0  0  0  0  0  0
   15.2438  -19.0525   -2.2115 C   0  0  0  0  0  0  0  0  0  0  0  0
   12.6455  -21.1884   -4.7469 O   0  0  0  0  0  0  0  0  0  0  0  0
   11.7670  -20.5223   -2.1097 O   0  0  0  0  0  0  0  0  0  0  0  0
   13.4159  -18.7530   -0.6071 O   0  0  0  0  0  0  0  0  0  0  0  0
   15.8064  -19.9809   -3.1968 O   0  0  0  0  0  0  0  0  0  0  0  0
   12.4062  -20.3574   -5.1864 H   0  0  0  0  0  0  0  0  0  0  0  0
   11.9969  -21.3515   -1.6619 H   0  0  0  0  0  0  0  0  0  0  0  0
   13.1787  -17.9247   -1.0526 H   0  0  0  0  0  0  0  0  0  0  0  0
   16.2864  -18.8138   -1.1193 C   0  0  0  0  0  0  0  0  0  0  0  0
   16.1879  -17.4624   -0.6656 O   0  0  0  0  0  0  0  0  0  0  0  0
   16.3469  -16.8595   -1.4086 H   0  0  0  0  0  0  0  0  0  0  0  0
 15 16  1  0  0  0
 15 20  1  0  0  0
 15 23  1  0  0  0
 16 17  1  0  0  0
 16 21  1  0  0  0
 17 18  1  0  0  0
 17 22  1  0  0  0
 18 19  1  0  0  0
 18 14  1  0  0  0
 19 27  1  0  0  0
 19 23  1  0  0  0
 27 28  1  0  0  0
 14  1  1  0  0  0
  1  2  1  0  0  0
  1  8  1  0  0  0
  2  3  1  0  0  0
  2  6  1  0  0  0
  3  4  1  0  0  0
  3  7  1  0  0  0
  4  5  1  0  0  0
  4 30  1  0  0  0
  5 11  1  0  0  0
  5  8  1  0  0  0
 11 12  1  0  0  0
 30 31  1  0  0  0
 31 32  1  0  0  0
 31 39  1  0  0  0
 32 33  1  0  0  0
 32 36  1  0  0  0
 33 34  1  0  0  0
 33 37  1  0  0  0
 34 35  1  0  0  0
 34 38  1  0  0  0
 35 43  1  0  0  0
 35 39  1  0  0  0
 43 44  1  0  0  0
 20 24  1  0  0  0
 21 25  1  0  0  0
 22 26  1  0  0  0
 28 29  1  0  0  0
  6  9  1  0  0  0
  7 10  1  0  0  0
 12 13  1  0  0  0
 36 40  1  0  0  0
 37 41  1  0  0  0
 38 42  1  0  0  0
 44 45  1  0  0  0
M  END
> <minimizedAffinity>
-8.73368

$$$$
3CKB_MLR_A_903


 45 47  0  0  0  0  0  0  0  0999 V2000
   15.2999  -18.7588   -4.8376 C   0  0  0  0  0  0  0  0  0  0  0  0
   14.4495  -19.0164   -6.1072 C   0  0  0  0  0  0  0  0  0  0  0  0
   15.2452  -19.9911   -7.0023 C   0  0  0  0  0  0  0  0  0  0  0  0
   16.5795  -19.3320   -7.3802 C   0  0  0  0  0  0  0  0  0  0  0  0
   17.3601  -19.0176   -6.0642 C   0  0  0  0  0  0  0  0  0  0  0  0
   13.2019  -19.6312   -5.7434 O   0  0  0  0  0  0  0  0  0  0  0  0
   14.5054  -20.2756   -8.1946 O   0  0  0  0  0  0  0  0  0  0  0  0
   16.5714  -18.1271   -5.2109 O   0  0  0  0  0  0  0  0  0  0  0  0
   13.3755  -20.4667   -5.2821 H   0  0  0  0  0  0  0  0  0  0  0  0
   14.3448  -19.4513   -8.6799 H   0  0  0  0  0  0  0  0  0  0  0  0
   18.7048  -18.3369   -6.3923 C   0  0  0  0  0  0  0  0  0  0  0  0
   18.7539  -17.9575   -7.7667 O   0  0  0  0  0  0  0  0  0  0  0  0
   18.6655  -18.7469   -8.3234 H   0  0  0  0  0  0  0  0  0  0  0  0
   15.5688  -20.0414   -4.2193 O   0  0  0  0  0  0  0  0  0  0  0  0
   14.5582  -18.5829   -0.4427 C   0  0  0  0  0  0  0  0  0  0  0  0
   16.0701  -18.7918   -0.6933 C   0  0  0  0  0  0  0  0  0  0  0  0
   16.2500  -18.8402   -2.2189 C   0  0  0  0  0  0  0  0  0  0  0  0
   15.4330  -20.0267   -2.7740 C   0  0  0  0  0  0  0  0  0  0  0  0
   13.9404  -19.7948   -2.3896 C   0  0  0  0  0  0  0  0  0  0  0  0
   14.2871  -18.4012    0.9480 O   0  0  0  0  0  0  0  0  0  0  0  0
   16.8064  -17.6782   -0.1842 O   0  0  0  0  0  0  0  0  0  0  0  0
   17.6286  -19.0503   -2.5333 O   0  0  0  0  0  0  0  0  0  0  0  0
   13.8061  -19.7234   -0.9444 O   0  0  0  0  0  0  0  0  0  0  0  0
   14.5560  -19.1950    1.4363 H   0  0  0  0  0  0  0  0  0  0  0  0
   16.4982  -16.8641   -0.6121 H   0  0  0  0  0  0  0  0  0  0  0  0
   17.9258  -19.8864   -2.1414 H   0  0  0  0  0  0  0  0  0  0  0  0
   13.1115  -20.9832   -2.8894 C   0  0  0  0  0  0  0  0  0  0  0  0
   11.9162  -20.4942   -3.5240 O   0  0  0  0  0  0  0  0  0  0  0  0
   11.3981  -19.9802   -2.8850 H   0  0  0  0  0  0  0  0  0  0  0  0
   17.3371  -20.2488   -8.1943 O   0  0  0  0  0  0  0  0  0  0  0  0
   17.0099  -21.6230   -7.8770 C   0  0  0  0  0  0  0  0  0  0  0  0
   18.2853  -22.3812   -7.4060 C   0  0  0  0  0  0  0  0  0  0  0  0
   19.3285  -22.3044   -8.5423 C   0  0  0  0  0  0  0  0  0  0  0  0
   18.7270  -22.9693   -9.7962 C   0  0  0  0  0  0  0  0  0  0  0  0
   17.4348  -22.2079  -10.1813 C   0  0  0  0  0  0  0  0  0  0  0  0
   18.8141  -21.7634   -6.2263 O   0  0  0  0  0  0  0  0  0  0  0  0
   20.5246  -22.9939   -8.1578 O   0  0  0  0  0  0  0  0  0  0  0  0
   19.6796  -22.9037  -10.8754 O   0  0  0  0  0  0  0  0  0  0  0  0
   16.4731  -22.2634   -9.0762 O   0  0  0  0  0  0  0  0  0  0  0  0
   19.0337  -20.8380   -6.4168 H   0  0  0  0  0  0  0  0  0  0  0  0
   20.3165  -23.9227   -7.9711 H   0  0  0  0  0  0  0  0  0  0  0  0
   19.8951  -21.9763  -11.0606 H   0  0  0  0  0  0  0  0  0  0  0  0
   16.8110  -22.8849  -11.4017 C   0  0  0  0  0  0  0  0  0  0  0  0
   15.4018  -23.0076  -11.1995 O   0  0  0  0  0  0  0  0  0  0  0  0
   15.2342  -23.5410  -10.4068 H   0  0  0  0  0  0  0  0  0  0  0  0
 15 16  1  0  0  0
 15 20  1  0  0  0
 15 23  1  0  0  0
 16 17  1  0  0  0
 16 21  1  0  0  0
 17 18  1  0  0  0
 17 22  1  0  0  0
 18 19  1  0  0  0
 18 14  1  0  0  0
 19 27  1  0  0  0
 19 23  1  0  0  0
 27 28  1  0  0  0
 14  1  1  0  0  0
  1  2  1  0  0  0
  1  8  1  0  0  0
  2  3  1  0  0  0
  2  6  1  0  0  0
  3  4  1  0  0  0
  3  7  1  0  0  0
  4  5  1  0  0  0
  4 30  1  0  0  0
  5 11  1  0  0  0
  5  8  1  0  0  0
 11 12  1  0  0  0
 30 31  1  0  0  0
 31 32  1  0  0  0
 31 39  1  0  0  0
 32 33  1  0  0  0
 32 36  1  0  0  0
 33 34  1  0  0  0
 33 37  1  0  0  0
 34 35  1  0  0  0
 34 38  1  0  0  0
 35 43  1  0  0  0
 35 39  1  0  0  0
 43 44  1  0  0  0
 20 24  1  0  0  0
 21 25  1  0  0  0
 22 26  1  0  0  0
 28 29  1  0  0  0
  6  9  1  0  0  0
  7 10  1  0  0  0
 12 13  1  0  0  0
 36 40  1  0  0  0
 37 41  1  0  0  0
 38 42  1  0  0  0
 44 45  1  0  0  0
M  END
> <minimizedAffinity>
-8.01354

$$$$
3CKB_MLR_A_903


 45 47  0  0  0  0  0  0  0  0999 V2000
   17.9101  -19.6733   -5.0443 C   0  0  0  0  0  0  0  0  0  0  0  0
   18.2899  -20.1111   -3.6071 C   0  0  0  0  0  0  0  0  0  0  0  0
   18.3115  -18.8398   -2.7309 C   0  0  0  0  0  0  0  0  0  0  0  0
   19.3680  -17.8763   -3.2903 C   0  0  0  0  0  0  0  0  0  0  0  0
   18.9846  -17.5323   -4.7650 C   0  0  0  0  0  0  0  0  0  0  0  0
   17.2968  -21.0144   -3.0928 O   0  0  0  0  0  0  0  0  0  0  0  0
   18.6510  -19.1805   -1.3824 O   0  0  0  0  0  0  0  0  0  0  0  0
   18.9276  -18.7544   -5.5691 O   0  0  0  0  0  0  0  0  0  0  0  0
   16.4313  -20.5765   -3.0911 H   0  0  0  0  0  0  0  0  0  0  0  0
   19.5263  -19.5981   -1.3649 H   0  0  0  0  0  0  0  0  0  0  0  0
   20.0290  -16.5769   -5.3778 C   0  0  0  0  0  0  0  0  0  0  0  0
   19.5708  -15.2271   -5.3192 O   0  0  0  0  0  0  0  0  0  0  0  0
   18.7457  -15.1436   -5.8224 H   0  0  0  0  0  0  0  0  0  0  0  0
   16.6374  -18.9842   -4.9733 O   0  0  0  0  0  0  0  0  0  0  0  0
   12.8861  -19.5802   -6.7009 C   0  0  0  0  0  0  0  0  0  0  0  0
   13.1679  -20.4013   -5.4208 C   0  0  0  0  0  0  0  0  0  0  0  0
   14.3282  -19.6935   -4.7031 C   0  0  0  0  0  0  0  0  0  0  0  0
   15.5579  -19.6933   -5.6363 C   0  0  0  0  0  0  0  0  0  0  0  0
   15.1609  -18.9416   -6.9427 C   0  0  0  0  0  0  0  0  0  0  0  0
   11.7395  -20.0798   -7.3910 O   0  0  0  0  0  0  0  0  0  0  0  0
   12.0234  -20.3783   -4.5658 O   0  0  0  0  0  0  0  0  0  0  0  0
   14.6620  -20.4076   -3.5105 O   0  0  0  0  0  0  0  0  0  0  0  0
   14.0437  -19.6157   -7.5823 O   0  0  0  0  0  0  0  0  0  0  0  0
   11.9001  -20.9969   -7.6631 H   0  0  0  0  0  0  0  0  0  0  0  0
   11.8056  -19.4599   -4.3419 H   0  0  0  0  0  0  0  0  0  0  0  0
   14.9216  -21.3140   -3.7383 H   0  0  0  0  0  0  0  0  0  0  0  0
   16.3513  -18.9665   -7.9079 C   0  0  0  0  0  0  0  0  0  0  0  0
   17.1357  -17.7743   -7.7241 O   0  0  0  0  0  0  0  0  0  0  0  0
   16.5865  -16.9950   -7.9030 H   0  0  0  0  0  0  0  0  0  0  0  0
   19.3733  -16.6768   -2.4912 O   0  0  0  0  0  0  0  0  0  0  0  0
   20.7078  -16.3657   -2.0238 C   0  0  0  0  0  0  0  0  0  0  0  0
   20.7442  -16.3718   -0.4675 C   0  0  0  0  0  0  0  0  0  0  0  0
   19.7206  -15.3299    0.0342 C   0  0  0  0  0  0  0  0  0  0  0  0
   20.1263  -13.9492   -0.5184 C   0  0  0  0  0  0  0  0  0  0  0  0
   20.1261  -14.0221   -2.0652 C   0  0  0  0  0  0  0  0  0  0  0  0
   20.3889  -17.6695    0.0250 O   0  0  0  0  0  0  0  0  0  0  0  0
   19.7187  -15.2941    1.4668 O   0  0  0  0  0  0  0  0  0  0  0  0
   19.1807  -12.9585   -0.0702 O   0  0  0  0  0  0  0  0  0  0  0  0
   21.0780  -15.0409   -2.5181 O   0  0  0  0  0  0  0  0  0  0  0  0
   19.4986  -17.8999   -0.2835 H   0  0  0  0  0  0  0  0  0  0  0  0
   20.6040  -15.0583    1.7855 H   0  0  0  0  0  0  0  0  0  0  0  0
   18.2929  -13.1946   -0.3817 H   0  0  0  0  0  0  0  0  0  0  0  0
   20.5647  -12.6672   -2.6208 C   0  0  0  0  0  0  0  0  0  0  0  0
   20.7175  -12.7698   -4.0379 O   0  0  0  0  0  0  0  0  0  0  0  0
   21.3869  -13.4411   -4.2432 H   0  0  0  0  0  0  0  0  0  0  0  0
 15 16  1  0  0  0
 15 20  1  0  0  0
 15 23  1  0  0  0
 16 17  1  0  0  0
 16 21  1  0  0  0
 17 18  1  0  0  0
 17 22  1  0  0  0
 18 19  1  0  0  0
 18 14  1  0  0  0
 19 27  1  0  0  0
 19 23  1  0  0  0
 27 28  1  0  0  0
 14  1  1  0  0  0
  1  2  1  0  0  0
  1  8  1  0  0  0
  2  3  1  0  0  0
  2  6  1  0  0  0
  3  4  1  0  0  0
  3  7  1  0  0  0
  4  5  1  0  0  0
  4 30  1  0  0  0
  5 11  1  0  0  0
  5  8  1  0  0  0
 11 12  1  0  0  0
 30 31  1  0  0  0
 31 32  1  0  0  0
 31 39  1  0  0  0
 32 33  1  0  0  0
 32 36  1  0  0  0
 33 34  1  0  0  0
 33 37  1  0  0  0
 34 35  1  0  0  0
 34 38  1  0  0  0
 35 43  1  0  0  0
 35 39  1  0  0  0
 43 44  1  0  0  0
 20 24  1  0  0  0
 21 25  1  0  0  0
 22 26  1  0  0  0
 28 29  1  0  0  0
  6  9  1  0  0  0
  7 10  1  0  0  0
 12 13  1  0  0  0
 36 40  1  0  0  0
 37 41  1  0  0  0
 38 42  1  0  0  0
 44 45  1  0  0  0
M  END
> <minimizedAffinity>
-7.88565

$$$$
3CKB_MLR_A_903


 45 47  0  0  0  0  0  0  0  0999 V2000
   15.1650  -18.1659   -5.4093 C   0  0  0  0  0  0  0  0  0  0  0  0
   14.2865  -18.9845   -6.3890 C   0  0  0  0  0  0  0  0  0  0  0  0
   15.2123  -19.9950   -7.1003 C   0  0  0  0  0  0  0  0  0  0  0  0
   16.2869  -19.2165   -7.8727 C   0  0  0  0  0  0  0  0  0  0  0  0
   17.0884  -18.3460   -6.8530 C   0  0  0  0  0  0  0  0  0  0  0  0
   13.2824  -19.7078   -5.6573 O   0  0  0  0  0  0  0  0  0  0  0  0
   14.4548  -20.7905   -8.0187 O   0  0  0  0  0  0  0  0  0  0  0  0
   16.1868  -17.4249   -6.1588 O   0  0  0  0  0  0  0  0  0  0  0  0
   13.7107  -20.2990   -5.0186 H   0  0  0  0  0  0  0  0  0  0  0  0
   14.0395  -20.2143   -8.6793 H   0  0  0  0  0  0  0  0  0  0  0  0
   18.1725  -17.5297   -7.5861 C   0  0  0  0  0  0  0  0  0  0  0  0
   19.1820  -18.3910   -8.1098 O   0  0  0  0  0  0  0  0  0  0  0  0
   19.6023  -18.8761   -7.3826 H   0  0  0  0  0  0  0  0  0  0  0  0
   15.8158  -19.1012   -4.5141 O   0  0  0  0  0  0  0  0  0  0  0  0
   16.0528  -19.5516   -0.3725 C   0  0  0  0  0  0  0  0  0  0  0  0
   14.7231  -20.0083   -1.0170 C   0  0  0  0  0  0  0  0  0  0  0  0
   15.0206  -20.2230   -2.5096 C   0  0  0  0  0  0  0  0  0  0  0  0
   15.4923  -18.8838   -3.1156 C   0  0  0  0  0  0  0  0  0  0  0  0
   16.7717  -18.4395   -2.3441 C   0  0  0  0  0  0  0  0  0  0  0  0
   15.9249  -19.4368    1.0456 O   0  0  0  0  0  0  0  0  0  0  0  0
   14.3111  -21.2543   -0.4523 O   0  0  0  0  0  0  0  0  0  0  0  0
   13.8278  -20.6322   -3.1829 O   0  0  0  0  0  0  0  0  0  0  0  0
   16.4670  -18.2738   -0.9329 O   0  0  0  0  0  0  0  0  0  0  0  0
   15.2545  -18.7683    1.2567 H   0  0  0  0  0  0  0  0  0  0  0  0
   15.0046  -21.9179   -0.5924 H   0  0  0  0  0  0  0  0  0  0  0  0
   13.1474  -19.9487   -3.0792 H   0  0  0  0  0  0  0  0  0  0  0  0
   17.2360  -17.0868   -2.8956 C   0  0  0  0  0  0  0  0  0  0  0  0
   18.2512  -17.3043   -3.8919 O   0  0  0  0  0  0  0  0  0  0  0  0
   19.0026  -17.7691   -3.4916 H   0  0  0  0  0  0  0  0  0  0  0  0
   17.1694  -20.1564   -8.5171 O   0  0  0  0  0  0  0  0  0  0  0  0
   17.0614  -21.4702   -7.9184 C   0  0  0  0  0  0  0  0  0  0  0  0
   18.4576  -21.9484   -7.4231 C   0  0  0  0  0  0  0  0  0  0  0  0
   19.4106  -21.9659   -8.6383 C   0  0  0  0  0  0  0  0  0  0  0  0
   18.8379  -22.9394   -9.6874 C   0  0  0  0  0  0  0  0  0  0  0  0
   17.4298  -22.4431  -10.0979 C   0  0  0  0  0  0  0  0  0  0  0  0
   18.9607  -21.0449   -6.4315 O   0  0  0  0  0  0  0  0  0  0  0  0
   20.7135  -22.4049   -8.2338 O   0  0  0  0  0  0  0  0  0  0  0  0
   19.7065  -22.9682  -10.8369 O   0  0  0  0  0  0  0  0  0  0  0  0
   16.5523  -22.4006   -8.9242 O   0  0  0  0  0  0  0  0  0  0  0  0
   19.0341  -20.1556   -6.8118 H   0  0  0  0  0  0  0  0  0  0  0  0
   20.6518  -23.2968   -7.8575 H   0  0  0  0  0  0  0  0  0  0  0  0
   19.7757  -22.0764  -11.2122 H   0  0  0  0  0  0  0  0  0  0  0  0
   16.8389  -23.4245  -11.1101 C   0  0  0  0  0  0  0  0  0  0  0  0
   17.1880  -23.0024  -12.4299 O   0  0  0  0  0  0  0  0  0  0  0  0
   16.8341  -22.1135  -12.5894 H   0  0  0  0  0  0  0  0  0  0  0  0
 15 16  1  0  0  0
 15 20  1  0  0  0
 15 23  1  0  0  0
 16 17  1  0  0  0
 16 21  1  0  0  0
 17 18  1  0  0  0
 17 22  1  0  0  0
 18 19  1  0  0  0
 18 14  1  0  0  0
 19 27  1  0  0  0
 19 23  1  0  0  0
 27 28  1  0  0  0
 14  1  1  0  0  0
  1  2  1  0  0  0
  1  8  1  0  0  0
  2  3  1  0  0  0
  2  6  1  0  0  0
  3  4  1  0  0  0
  3  7  1  0  0  0
  4  5  1  0  0  0
  4 30  1  0  0  0
  5 11  1  0  0  0
  5  8  1  0  0  0
 11 12  1  0  0  0
 30 31  1  0  0  0
 31 32  1  0  0  0
 31 39  1  0  0  0
 32 33  1  0  0  0
 32 36  1  0  0  0
 33 34  1  0  0  0
 33 37  1  0  0  0
 34 35  1  0  0  0
 34 38  1  0  0  0
 35 43  1  0  0  0
 35 39  1  0  0  0
 43 44  1  0  0  0
 20 24  1  0  0  0
 21 25  1  0  0  0
 22 26  1  0  0  0
 28 29  1  0  0  0
  6  9  1  0  0  0
  7 10  1  0  0  0
 12 13  1  0  0  0
 36 40  1  0  0  0
 37 41  1  0  0  0
 38 42  1  0  0  0
 44 45  1  0  0  0
M  END
> <minimizedAffinity>
-7.74050

$$$$
3CKB_MLR_A_903


 45 47  0  0  0  0  0  0  0  0999 V2000
   15.9950  -18.8335   -6.1319 C   0  0  0  0  0  0  0  0  0  0  0  0
   15.3832  -19.1098   -7.5286 C   0  0  0  0  0  0  0  0  0  0  0  0
   16.1033  -20.3467   -8.1082 C   0  0  0  0  0  0  0  0  0  0  0  0
   17.5998  -20.0279   -8.2364 C   0  0  0  0  0  0  0  0  0  0  0  0
   18.1484  -19.6759   -6.8168 C   0  0  0  0  0  0  0  0  0  0  0  0
   13.9821  -19.4049   -7.3989 O   0  0  0  0  0  0  0  0  0  0  0  0
   15.5752  -20.6590   -9.4019 O   0  0  0  0  0  0  0  0  0  0  0  0
   17.4245  -18.5283   -6.2671 O   0  0  0  0  0  0  0  0  0  0  0  0
   13.8663  -20.1778   -6.8244 H   0  0  0  0  0  0  0  0  0  0  0  0
   15.7059  -19.9031   -9.9955 H   0  0  0  0  0  0  0  0  0  0  0  0
   19.6496  -19.3307   -6.8966 C   0  0  0  0  0  0  0  0  0  0  0  0
   20.0202  -19.0060   -8.2355 O   0  0  0  0  0  0  0  0  0  0  0  0
   19.8492  -19.7672   -8.8119 H   0  0  0  0  0  0  0  0  0  0  0  0
   15.8376  -20.0344   -5.3363 O   0  0  0  0  0  0  0  0  0  0  0  0
   14.5085  -20.8884   -1.4742 C   0  0  0  0  0  0  0  0  0  0  0  0
   13.4694  -20.2175   -2.4029 C   0  0  0  0  0  0  0  0  0  0  0  0
   13.9670  -20.4450   -3.8393 C   0  0  0  0  0  0  0  0  0  0  0  0
   15.3509  -19.7784   -3.9926 C   0  0  0  0  0  0  0  0  0  0  0  0
   16.3101  -20.4339   -2.9536 C   0  0  0  0  0  0  0  0  0  0  0  0
   14.0847  -20.8441   -0.1107 O   0  0  0  0  0  0  0  0  0  0  0  0
   12.2002  -20.8566   -2.2554 O   0  0  0  0  0  0  0  0  0  0  0  0
   13.0628  -19.8342   -4.7629 O   0  0  0  0  0  0  0  0  0  0  0  0
   15.7988  -20.2288   -1.6088 O   0  0  0  0  0  0  0  0  0  0  0  0
   13.9967  -19.9200    0.1707 H   0  0  0  0  0  0  0  0  0  0  0  0
   12.2869  -21.7999   -2.4645 H   0  0  0  0  0  0  0  0  0  0  0  0
   13.0089  -18.8829   -4.5814 H   0  0  0  0  0  0  0  0  0  0  0  0
   17.6819  -19.7576   -3.0525 C   0  0  0  0  0  0  0  0  0  0  0  0
   17.5006  -18.3408   -3.2268 O   0  0  0  0  0  0  0  0  0  0  0  0
   16.9963  -18.1769   -4.0390 H   0  0  0  0  0  0  0  0  0  0  0  0
   18.2802  -21.1889   -8.7525 O   0  0  0  0  0  0  0  0  0  0  0  0
   17.7873  -22.4018   -8.1343 C   0  0  0  0  0  0  0  0  0  0  0  0
   18.9686  -23.3750   -7.8498 C   0  0  0  0  0  0  0  0  0  0  0  0
   19.6667  -23.6779   -9.1936 C   0  0  0  0  0  0  0  0  0  0  0  0
   18.6361  -24.3279  -10.1378 C   0  0  0  0  0  0  0  0  0  0  0  0
   17.4624  -23.3376  -10.3369 C   0  0  0  0  0  0  0  0  0  0  0  0
   19.9016  -22.7622   -6.9515 O   0  0  0  0  0  0  0  0  0  0  0  0
   20.7635  -24.5765   -8.9852 O   0  0  0  0  0  0  0  0  0  0  0  0
   19.2617  -24.6140  -11.4040 O   0  0  0  0  0  0  0  0  0  0  0  0
   16.8370  -23.0368   -9.0455 O   0  0  0  0  0  0  0  0  0  0  0  0
   20.2390  -21.9425   -7.3454 H   0  0  0  0  0  0  0  0  0  0  0  0
   20.4354  -25.4026   -8.5970 H   0  0  0  0  0  0  0  0  0  0  0  0
   19.5969  -23.7907  -11.7923 H   0  0  0  0  0  0  0  0  0  0  0  0
   16.4173  -23.9902  -11.2417 C   0  0  0  0  0  0  0  0  0  0  0  0
   15.2552  -23.1599  -11.2888 O   0  0  0  0  0  0  0  0  0  0  0  0
   14.8957  -23.0559  -10.3940 H   0  0  0  0  0  0  0  0  0  0  0  0
 15 16  1  0  0  0
 15 20  1  0  0  0
 15 23  1  0  0  0
 16 17  1  0  0  0
 16 21  1  0  0  0
 17 18  1  0  0  0
 17 22  1  0  0  0
 18 19  1  0  0  0
 18 14  1  0  0  0
 19 27  1  0  0  0
 19 23  1  0  0  0
 27 28  1  0  0  0
 14  1  1  0  0  0
  1  2  1  0  0  0
  1  8  1  0  0  0
  2  3  1  0  0  0
  2  6  1  0  0  0
  3  4  1  0  0  0
  3  7  1  0  0  0
  4  5  1  0  0  0
  4 30  1  0  0  0
  5 11  1  0  0  0
  5  8  1  0  0  0
 11 12  1  0  0  0
 30 31  1  0  0  0
 31 32  1  0  0  0
 31 39  1  0  0  0
 32 33  1  0  0  0
 32 36  1  0  0  0
 33 34  1  0  0  0
 33 37  1  0  0  0
 34 35  1  0  0  0
 34 38  1  0  0  0
 35 43  1  0  0  0
 35 39  1  0  0  0
 43 44  1  0  0  0
 20 24  1  0  0  0
 21 25  1  0  0  0
 22 26  1  0  0  0
 28 29  1  0  0  0
  6  9  1  0  0  0
  7 10  1  0  0  0
 12 13  1  0  0  0
 36 40  1  0  0  0
 37 41  1  0  0  0
 38 42  1  0  0  0
 44 45  1  0  0  0
M  END
> <minimizedAffinity>
-7.71021

$$$$
3CKB_MLR_A_903


 45 47  0  0  0  0  0  0  0  0999 V2000
   18.0253  -20.4156   -5.3216 C   0  0  0  0  0  0  0  0  0  0  0  0
   18.5493  -20.5770   -3.8722 C   0  0  0  0  0  0  0  0  0  0  0  0
   18.8818  -19.1644   -3.3446 C   0  0  0  0  0  0  0  0  0  0  0  0
   19.9689  -18.5502   -4.2382 C   0  0  0  0  0  0  0  0  0  0  0  0
   19.4224  -18.4867   -5.7002 C   0  0  0  0  0  0  0  0  0  0  0  0
   17.5260  -21.1546   -3.0439 O   0  0  0  0  0  0  0  0  0  0  0  0
   19.3669  -19.2457   -2.0000 O   0  0  0  0  0  0  0  0  0  0  0  0
   19.0731  -19.8297   -6.1664 O   0  0  0  0  0  0  0  0  0  0  0  0
   16.7415  -20.5841   -3.0541 H   0  0  0  0  0  0  0  0  0  0  0  0
   20.1667  -19.7940   -1.9775 H   0  0  0  0  0  0  0  0  0  0  0  0
   20.4886  -17.8903   -6.6418 C   0  0  0  0  0  0  0  0  0  0  0  0
   19.9921  -17.8108   -7.9769 O   0  0  0  0  0  0  0  0  0  0  0  0
   19.7675  -18.7004   -8.2918 H   0  0  0  0  0  0  0  0  0  0  0  0
   16.8883  -19.5181   -5.2819 O   0  0  0  0  0  0  0  0  0  0  0  0
   12.9328  -19.6918   -6.5991 C   0  0  0  0  0  0  0  0  0  0  0  0
   13.2487  -20.5166   -5.3294 C   0  0  0  0  0  0  0  0  0  0  0  0
   14.5529  -19.9399   -4.7560 C   0  0  0  0  0  0  0  0  0  0  0  0
   15.6695  -20.1049   -5.8091 C   0  0  0  0  0  0  0  0  0  0  0  0
   15.2288  -19.3355   -7.0910 C   0  0  0  0  0  0  0  0  0  0  0  0
   11.6695  -20.0630   -7.1530 O   0  0  0  0  0  0  0  0  0  0  0  0
   12.2108  -20.3403   -4.3635 O   0  0  0  0  0  0  0  0  0  0  0  0
   14.9237  -20.6664   -3.5820 O   0  0  0  0  0  0  0  0  0  0  0  0
   13.9793  -19.8825   -7.5923 O   0  0  0  0  0  0  0  0  0  0  0  0
   11.6918  -20.9977   -7.4113 H   0  0  0  0  0  0  0  0  0  0  0  0
   12.1270  -19.3985   -4.1472 H   0  0  0  0  0  0  0  0  0  0  0  0
   15.0497  -21.6015   -3.8067 H   0  0  0  0  0  0  0  0  0  0  0  0
   16.3003  -19.5212   -8.1712 C   0  0  0  0  0  0  0  0  0  0  0  0
   17.2074  -18.4048   -8.1361 O   0  0  0  0  0  0  0  0  0  0  0  0
   16.7168  -17.5843   -8.3003 H   0  0  0  0  0  0  0  0  0  0  0  0
   20.2638  -17.2211   -3.7653 O   0  0  0  0  0  0  0  0  0  0  0  0
   19.0496  -16.4683   -3.5302 C   0  0  0  0  0  0  0  0  0  0  0  0
   19.1961  -15.0264   -4.0985 C   0  0  0  0  0  0  0  0  0  0  0  0
   20.4061  -14.3643   -3.4037 C   0  0  0  0  0  0  0  0  0  0  0  0
   20.1335  -14.3309   -1.8868 C   0  0  0  0  0  0  0  0  0  0  0  0
   19.9414  -15.7856   -1.3922 C   0  0  0  0  0  0  0  0  0  0  0  0
   19.4236  -15.0785   -5.5121 O   0  0  0  0  0  0  0  0  0  0  0  0
   20.5815  -13.0283   -3.8915 O   0  0  0  0  0  0  0  0  0  0  0  0
   21.2533  -13.7235   -1.2133 O   0  0  0  0  0  0  0  0  0  0  0  0
   18.8109  -16.4061   -2.0896 O   0  0  0  0  0  0  0  0  0  0  0  0
   20.2309  -15.5856   -5.6912 H   0  0  0  0  0  0  0  0  0  0  0  0
   19.7812  -12.5106   -3.7114 H   0  0  0  0  0  0  0  0  0  0  0  0
   22.0569  -14.2350   -1.3965 H   0  0  0  0  0  0  0  0  0  0  0  0
   19.6325  -15.7587    0.1046 C   0  0  0  0  0  0  0  0  0  0  0  0
   18.3510  -16.3499    0.3287 O   0  0  0  0  0  0  0  0  0  0  0  0
   17.6751  -15.8497   -0.1550 H   0  0  0  0  0  0  0  0  0  0  0  0
 15 16  1  0  0  0
 15 20  1  0  0  0
 15 23  1  0  0  0
 16 17  1  0  0  0
 16 21  1  0  0  0
 17 18  1  0  0  0
 17 22  1  0  0  0
 18 19  1  0  0  0
 18 14  1  0  0  0
 19 27  1  0  0  0
 19 23  1  0  0  0
 27 28  1  0  0  0
 14  1  1  0  0  0
  1  2  1  0  0  0
  1  8  1  0  0  0
  2  3  1  0  0  0
  2  6  1  0  0  0
  3  4  1  0  0  0
  3  7  1  0  0  0
  4  5  1  0  0  0
  4 30  1  0  0  0
  5 11  1  0  0  0
  5  8  1  0  0  0
 11 12  1  0  0  0
 30 31  1  0  0  0
 31 32  1  0  0  0
 31 39  1  0  0  0
 32 33  1  0  0  0
 32 36  1  0  0  0
 33 34  1  0  0  0
 33 37  1  0  0  0
 34 35  1  0  0  0
 34 38  1  0  0  0
 35 43  1  0  0  0
 35 39  1  0  0  0
 43 44  1  0  0  0
 20 24  1  0  0  0
 21 25  1  0  0  0
 22 26  1  0  0  0
 28 29  1  0  0  0
  6  9  1  0  0  0
  7 10  1  0  0  0
 12 13  1  0  0  0
 36 40  1  0  0  0
 37 41  1  0  0  0
 38 42  1  0  0  0
 44 45  1  0  0  0
M  END
> <minimizedAffinity>
-7.67419

$$$$
3CKB_MLR_A_903


 45 47  0  0  0  0  0  0  0  0999 V2000
   17.1020  -19.0777   -3.4352 C   0  0  0  0  0  0  0  0  0  0  0  0
   17.0311  -18.4310   -2.0287 C   0  0  0  0  0  0  0  0  0  0  0  0
   17.5602  -16.9864   -2.1608 C   0  0  0  0  0  0  0  0  0  0  0  0
   19.0148  -17.0394   -2.6494 C   0  0  0  0  0  0  0  0  0  0  0  0
   19.0414  -17.7728   -4.0284 C   0  0  0  0  0  0  0  0  0  0  0  0
   15.6663  -18.3878   -1.5787 O   0  0  0  0  0  0  0  0  0  0  0  0
   17.5134  -16.3298   -0.8894 O   0  0  0  0  0  0  0  0  0  0  0  0
   18.4967  -19.1246   -3.8908 O   0  0  0  0  0  0  0  0  0  0  0  0
   15.1342  -17.8771   -2.2087 H   0  0  0  0  0  0  0  0  0  0  0  0
   18.0615  -16.8162   -0.2539 H   0  0  0  0  0  0  0  0  0  0  0  0
   20.4885  -17.8661   -4.5541 C   0  0  0  0  0  0  0  0  0  0  0  0
   21.3917  -18.1621   -3.4901 O   0  0  0  0  0  0  0  0  0  0  0  0
   21.3513  -17.4564   -2.8259 H   0  0  0  0  0  0  0  0  0  0  0  0
   16.3328  -18.2484   -4.3409 O   0  0  0  0  0  0  0  0  0  0  0  0
   13.4121  -19.0913   -7.1993 C   0  0  0  0  0  0  0  0  0  0  0  0
   13.4009  -20.0000   -5.9477 C   0  0  0  0  0  0  0  0  0  0  0  0
   14.1749  -19.2405   -4.8585 C   0  0  0  0  0  0  0  0  0  0  0  0
   15.6184  -19.0055   -5.3529 C   0  0  0  0  0  0  0  0  0  0  0  0
   15.5387  -18.1759   -6.6700 C   0  0  0  0  0  0  0  0  0  0  0  0
   12.6134  -19.6463   -8.2456 O   0  0  0  0  0  0  0  0  0  0  0  0
   12.0584  -20.1943   -5.4991 O   0  0  0  0  0  0  0  0  0  0  0  0
   14.2246  -20.0285   -3.6669 O   0  0  0  0  0  0  0  0  0  0  0  0
   14.7767  -18.9051   -7.6697 O   0  0  0  0  0  0  0  0  0  0  0  0
   12.9762  -20.5069   -8.5076 H   0  0  0  0  0  0  0  0  0  0  0  0
   11.6561  -19.3342   -5.3008 H   0  0  0  0  0  0  0  0  0  0  0  0
   14.6656  -20.8717   -3.8550 H   0  0  0  0  0  0  0  0  0  0  0  0
   16.9584  -17.9671   -7.2086 C   0  0  0  0  0  0  0  0  0  0  0  0
   17.7473  -19.1384   -6.9326 O   0  0  0  0  0  0  0  0  0  0  0  0
   17.7801  -19.2878   -5.9747 H   0  0  0  0  0  0  0  0  0  0  0  0
   19.5045  -15.6922   -2.7995 O   0  0  0  0  0  0  0  0  0  0  0  0
   20.4447  -15.3576   -1.7505 C   0  0  0  0  0  0  0  0  0  0  0  0
   20.2299  -13.8863   -1.2894 C   0  0  0  0  0  0  0  0  0  0  0  0
   20.4186  -12.9722   -2.5198 C   0  0  0  0  0  0  0  0  0  0  0  0
   21.8489  -13.1751   -3.0577 C   0  0  0  0  0  0  0  0  0  0  0  0
   22.0188  -14.6644   -3.4458 C   0  0  0  0  0  0  0  0  0  0  0  0
   18.9043  -13.7249   -0.7702 O   0  0  0  0  0  0  0  0  0  0  0  0
   20.2343  -11.6012   -2.1455 O   0  0  0  0  0  0  0  0  0  0  0  0
   22.0483  -12.3373   -4.2130 O   0  0  0  0  0  0  0  0  0  0  0  0
   21.8009  -15.5154   -2.2721 O   0  0  0  0  0  0  0  0  0  0  0  0
   18.2582  -13.9513   -1.4574 H   0  0  0  0  0  0  0  0  0  0  0  0
   20.8806  -11.3628   -1.4625 H   0  0  0  0  0  0  0  0  0  0  0  0
   21.3993  -12.5685   -4.8959 H   0  0  0  0  0  0  0  0  0  0  0  0
   23.4473  -14.8822   -3.9445 C   0  0  0  0  0  0  0  0  0  0  0  0
   23.6042  -16.2483   -4.3331 O   0  0  0  0  0  0  0  0  0  0  0  0
   23.4313  -16.8231   -3.5712 H   0  0  0  0  0  0  0  0  0  0  0  0
 15 16  1  0  0  0
 15 20  1  0  0  0
 15 23  1  0  0  0
 16 17  1  0  0  0
 16 21  1  0  0  0
 17 18  1  0  0  0
 17 22  1  0  0  0
 18 19  1  0  0  0
 18 14  1  0  0  0
 19 27  1  0  0  0
 19 23  1  0  0  0
 27 28  1  0  0  0
 14  1  1  0  0  0
  1  2  1  0  0  0
  1  8  1  0  0  0
  2  3  1  0  0  0
  2  6  1  0  0  0
  3  4  1  0  0  0
  3  7  1  0  0  0
  4  5  1  0  0  0
  4 30  1  0  0  0
  5 11  1  0  0  0
  5  8  1  0  0  0
 11 12  1  0  0  0
 30 31  1  0  0  0
 31 32  1  0  0  0
 31 39  1  0  0  0
 32 33  1  0  0  0
 32 36  1  0  0  0
 33 34  1  0  0  0
 33 37  1  0  0  0
 34 35  1  0  0  0
 34 38  1  0  0  0
 35 43  1  0  0  0
 35 39  1  0  0  0
 43 44  1  0  0  0
 20 24  1  0  0  0
 21 25  1  0  0  0
 22 26  1  0  0  0
 28 29  1  0  0  0
  6  9  1  0  0  0
  7 10  1  0  0  0
 12 13  1  0  0  0
 36 40  1  0  0  0
 37 41  1  0  0  0
 38 42  1  0  0  0
 44 45  1  0  0  0
M  END
> <minimizedAffinity>
-7.66496

$$$$
3CKB_MLR_A_903


 45 47  0  0  0  0  0  0  0  0999 V2000
   17.4846  -19.2558   -7.3866 C   0  0  0  0  0  0  0  0  0  0  0  0
   18.0885  -17.8514   -7.6409 C   0  0  0  0  0  0  0  0  0  0  0  0
   18.4287  -17.2422   -6.2634 C   0  0  0  0  0  0  0  0  0  0  0  0
   17.1345  -17.1247   -5.4457 C   0  0  0  0  0  0  0  0  0  0  0  0
   16.5231  -18.5537   -5.2893 C   0  0  0  0  0  0  0  0  0  0  0  0
   19.2981  -17.9712   -8.4087 O   0  0  0  0  0  0  0  0  0  0  0  0
   19.0000  -15.9402   -6.4316 O   0  0  0  0  0  0  0  0  0  0  0  0
   16.2476  -19.1308   -6.6062 O   0  0  0  0  0  0  0  0  0  0  0  0
   19.9324  -18.5259   -7.9283 H   0  0  0  0  0  0  0  0  0  0  0  0
   18.3666  -15.3659   -6.8898 H   0  0  0  0  0  0  0  0  0  0  0  0
   15.2079  -18.4853   -4.4864 C   0  0  0  0  0  0  0  0  0  0  0  0
   15.2246  -19.4256   -3.4135 O   0  0  0  0  0  0  0  0  0  0  0  0
   15.3198  -20.3223   -3.7709 H   0  0  0  0  0  0  0  0  0  0  0  0
   18.4523  -20.0206   -6.6261 O   0  0  0  0  0  0  0  0  0  0  0  0
   19.1231  -22.7908   -9.6737 C   0  0  0  0  0  0  0  0  0  0  0  0
   17.9472  -23.1177   -8.7235 C   0  0  0  0  0  0  0  0  0  0  0  0
   17.5723  -21.7964   -8.0336 C   0  0  0  0  0  0  0  0  0  0  0  0
   18.7956  -21.2912   -7.2388 C   0  0  0  0  0  0  0  0  0  0  0  0
   19.9652  -21.0876   -8.2486 C   0  0  0  0  0  0  0  0  0  0  0  0
   19.4788  -23.9273  -10.4626 O   0  0  0  0  0  0  0  0  0  0  0  0
   16.8223  -23.5706   -9.4790 O   0  0  0  0  0  0  0  0  0  0  0  0
   16.4965  -22.0206   -7.1193 O   0  0  0  0  0  0  0  0  0  0  0  0
   20.2768  -22.3455   -8.9064 O   0  0  0  0  0  0  0  0  0  0  0  0
   19.7667  -24.6477   -9.8803 H   0  0  0  0  0  0  0  0  0  0  0  0
   16.5657  -22.8875  -10.1180 H   0  0  0  0  0  0  0  0  0  0  0  0
   16.7680  -22.6723   -6.4541 H   0  0  0  0  0  0  0  0  0  0  0  0
   21.2085  -20.6294   -7.4783 C   0  0  0  0  0  0  0  0  0  0  0  0
   21.7540  -19.4582   -8.1118 O   0  0  0  0  0  0  0  0  0  0  0  0
   21.9962  -19.6689   -9.0271 H   0  0  0  0  0  0  0  0  0  0  0  0
   17.4512  -16.5808   -4.1491 O   0  0  0  0  0  0  0  0  0  0  0  0
   18.6914  -17.1284   -3.6409 C   0  0  0  0  0  0  0  0  0  0  0  0
   18.5320  -17.5105   -2.1403 C   0  0  0  0  0  0  0  0  0  0  0  0
   18.1270  -16.2361   -1.3676 C   0  0  0  0  0  0  0  0  0  0  0  0
   19.2404  -15.1858   -1.5507 C   0  0  0  0  0  0  0  0  0  0  0  0
   19.3896  -14.8898   -3.0633 C   0  0  0  0  0  0  0  0  0  0  0  0
   17.5109  -18.5050   -1.9946 O   0  0  0  0  0  0  0  0  0  0  0  0
   17.9710  -16.5354    0.0252 O   0  0  0  0  0  0  0  0  0  0  0  0
   18.8825  -13.9819   -0.8443 O   0  0  0  0  0  0  0  0  0  0  0  0
   19.7391  -16.1190   -3.7817 O   0  0  0  0  0  0  0  0  0  0  0  0
   16.6715  -18.1592   -2.3363 H   0  0  0  0  0  0  0  0  0  0  0  0
   18.8076  -16.8764    0.3783 H   0  0  0  0  0  0  0  0  0  0  0  0
   18.0428  -13.6414   -1.1905 H   0  0  0  0  0  0  0  0  0  0  0  0
   20.5183  -13.8772   -3.2567 C   0  0  0  0  0  0  0  0  0  0  0  0
   20.0044  -12.5593   -3.0548 O   0  0  0  0  0  0  0  0  0  0  0  0
   19.2958  -12.3871   -3.6945 H   0  0  0  0  0  0  0  0  0  0  0  0
 15 16  1  0  0  0
 15 20  1  0  0  0
 15 23  1  0  0  0
 16 17  1  0  0  0
 16 21  1  0  0  0
 17 18  1  0  0  0
 17 22  1  0  0  0
 18 19  1  0  0  0
 18 14  1  0  0  0
 19 27  1  0  0  0
 19 23  1  0  0  0
 27 28  1  0  0  0
 14  1  1  0  0  0
  1  2  1  0  0  0
  1  8  1  0  0  0
  2  3  1  0  0  0
  2  6  1  0  0  0
  3  4  1  0  0  0
  3  7  1  0  0  0
  4  5  1  0  0  0
  4 30  1  0  0  0
  5 11  1  0  0  0
  5  8  1  0  0  0
 11 12  1  0  0  0
 30 31  1  0  0  0
 31 32  1  0  0  0
 31 39  1  0  0  0
 32 33  1  0  0  0
 32 36  1  0  0  0
 33 34  1  0  0  0
 33 37  1  0  0  0
 34 35  1  0  0  0
 34 38  1  0  0  0
 35 43  1  0  0  0
 35 39  1  0  0  0
 43 44  1  0  0  0
 20 24  1  0  0  0
 21 25  1  0  0  0
 22 26  1  0  0  0
 28 29  1  0  0  0
  6  9  1  0  0  0
  7 10  1  0  0  0
 12 13  1  0  0  0
 36 40  1  0  0  0
 37 41  1  0  0  0
 38 42  1  0  0  0
 44 45  1  0  0  0
M  END
> <minimizedAffinity>
-7.48823

$$$$
3CKB_MLR_A_903


 45 47  0  0  0  0  0  0  0  0999 V2000
   16.0393  -19.2076   -4.6012 C   0  0  0  0  0  0  0  0  0  0  0  0
   15.1995  -19.0961   -5.8988 C   0  0  0  0  0  0  0  0  0  0  0  0
   15.4613  -20.3735   -6.7258 C   0  0  0  0  0  0  0  0  0  0  0  0
   16.9575  -20.4408   -7.0644 C   0  0  0  0  0  0  0  0  0  0  0  0
   17.7615  -20.4672   -5.7254 C   0  0  0  0  0  0  0  0  0  0  0  0
   13.8010  -19.0314   -5.5719 O   0  0  0  0  0  0  0  0  0  0  0  0
   14.7044  -20.3340   -7.9405 O   0  0  0  0  0  0  0  0  0  0  0  0
   17.4670  -19.2692   -4.9370 O   0  0  0  0  0  0  0  0  0  0  0  0
   13.5475  -19.8262   -5.0770 H   0  0  0  0  0  0  0  0  0  0  0  0
   14.9647  -19.5564   -8.4585 H   0  0  0  0  0  0  0  0  0  0  0  0
   19.2757  -20.5179   -6.0143 C   0  0  0  0  0  0  0  0  0  0  0  0
   19.6097  -19.6530   -7.0987 O   0  0  0  0  0  0  0  0  0  0  0  0
   19.1354  -19.9362   -7.8960 H   0  0  0  0  0  0  0  0  0  0  0  0
   15.6544  -20.4334   -3.9310 O   0  0  0  0  0  0  0  0  0  0  0  0
   14.4921  -18.5608   -0.3878 C   0  0  0  0  0  0  0  0  0  0  0  0
   16.0038  -18.8613   -0.5174 C   0  0  0  0  0  0  0  0  0  0  0  0
   16.2733  -19.0700   -2.0161 C   0  0  0  0  0  0  0  0  0  0  0  0
   15.4320  -20.2681   -2.5059 C   0  0  0  0  0  0  0  0  0  0  0  0
   13.9326  -19.9323   -2.2444 C   0  0  0  0  0  0  0  0  0  0  0  0
   14.1467  -18.2290    0.9580 O   0  0  0  0  0  0  0  0  0  0  0  0
   16.7637  -17.7366   -0.0716 O   0  0  0  0  0  0  0  0  0  0  0  0
   17.6559  -19.3721   -2.2178 O   0  0  0  0  0  0  0  0  0  0  0  0
   13.7146  -19.7109   -0.8248 O   0  0  0  0  0  0  0  0  0  0  0  0
   14.3446  -18.9813    1.5375 H   0  0  0  0  0  0  0  0  0  0  0  0
   16.5241  -16.9563   -0.5957 H   0  0  0  0  0  0  0  0  0  0  0  0
   17.8857  -20.1773   -1.7281 H   0  0  0  0  0  0  0  0  0  0  0  0
   13.0760  -21.1264   -2.6798 C   0  0  0  0  0  0  0  0  0  0  0  0
   13.0169  -21.1685   -4.1169 O   0  0  0  0  0  0  0  0  0  0  0  0
   12.6236  -20.3462   -4.4486 H   0  0  0  0  0  0  0  0  0  0  0  0
   17.2111  -21.6453   -7.8140 O   0  0  0  0  0  0  0  0  0  0  0  0
   17.6693  -21.3411   -9.1533 C   0  0  0  0  0  0  0  0  0  0  0  0
   16.9215  -22.2306  -10.1891 C   0  0  0  0  0  0  0  0  0  0  0  0
   17.1935  -23.7076   -9.8287 C   0  0  0  0  0  0  0  0  0  0  0  0
   18.7145  -23.9490   -9.8953 C   0  0  0  0  0  0  0  0  0  0  0  0
   19.4052  -22.9988   -8.8864 C   0  0  0  0  0  0  0  0  0  0  0  0
   15.5133  -21.9732  -10.1287 O   0  0  0  0  0  0  0  0  0  0  0  0
   16.5272  -24.5704  -10.7590 O   0  0  0  0  0  0  0  0  0  0  0  0
   18.9960  -25.3206   -9.5550 O   0  0  0  0  0  0  0  0  0  0  0  0
   19.1051  -21.6046   -9.2261 O   0  0  0  0  0  0  0  0  0  0  0  0
   15.1876  -22.1650   -9.2354 H   0  0  0  0  0  0  0  0  0  0  0  0
   16.8509  -24.3907  -11.6555 H   0  0  0  0  0  0  0  0  0  0  0  0
   18.6678  -25.5058   -8.6611 H   0  0  0  0  0  0  0  0  0  0  0  0
   20.9173  -23.2048   -8.9738 C   0  0  0  0  0  0  0  0  0  0  0  0
   21.5479  -21.9458   -9.2171 O   0  0  0  0  0  0  0  0  0  0  0  0
   21.2184  -21.5749  -10.0506 H   0  0  0  0  0  0  0  0  0  0  0  0
 15 16  1  0  0  0
 15 20  1  0  0  0
 15 23  1  0  0  0
 16 17  1  0  0  0
 16 21  1  0  0  0
 17 18  1  0  0  0
 17 22  1  0  0  0
 18 19  1  0  0  0
 18 14  1  0  0  0
 19 27  1  0  0  0
 19 23  1  0  0  0
 27 28  1  0  0  0
 14  1  1  0  0  0
  1  2  1  0  0  0
  1  8  1  0  0  0
  2  3  1  0  0  0
  2  6  1  0  0  0
  3  4  1  0  0  0
  3  7  1  0  0  0
  4  5  1  0  0  0
  4 30  1  0  0  0
  5 11  1  0  0  0
  5  8  1  0  0  0
 11 12  1  0  0  0
 30 31  1  0  0  0
 31 32  1  0  0  0
 31 39  1  0  0  0
 32 33  1  0  0  0
 32 36  1  0  0  0
 33 34  1  0  0  0
 33 37  1  0  0  0
 34 35  1  0  0  0
 34 38  1  0  0  0
 35 43  1  0  0  0
 35 39  1  0  0  0
 43 44  1  0  0  0
 20 24  1  0  0  0
 21 25  1  0  0  0
 22 26  1  0  0  0
 28 29  1  0  0  0
  6  9  1  0  0  0
  7 10  1  0  0  0
 12 13  1  0  0  0
 36 40  1  0  0  0
 37 41  1  0  0  0
 38 42  1  0  0  0
 44 45  1  0  0  0
M  END
> <minimizedAffinity>
-7.36001

$$$$
3CKB_MLR_A_903


 45 47  0  0  0  0  0  0  0  0999 V2000
   17.9366  -18.3729   -7.4802 C   0  0  0  0  0  0  0  0  0  0  0  0
   18.2230  -17.3602   -6.3427 C   0  0  0  0  0  0  0  0  0  0  0  0
   17.4131  -17.8149   -5.1091 C   0  0  0  0  0  0  0  0  0  0  0  0
   15.9207  -17.8018   -5.4699 C   0  0  0  0  0  0  0  0  0  0  0  0
   15.6996  -18.7734   -6.6730 C   0  0  0  0  0  0  0  0  0  0  0  0
   19.6223  -17.3778   -6.0134 O   0  0  0  0  0  0  0  0  0  0  0  0
   17.6418  -16.9190   -4.0160 O   0  0  0  0  0  0  0  0  0  0  0  0
   16.5081  -18.3502   -7.8177 O   0  0  0  0  0  0  0  0  0  0  0  0
   19.8783  -18.2718   -5.7374 H   0  0  0  0  0  0  0  0  0  0  0  0
   17.3673  -16.0236   -4.2689 H   0  0  0  0  0  0  0  0  0  0  0  0
   14.2131  -18.7818   -7.0844 C   0  0  0  0  0  0  0  0  0  0  0  0
   13.8274  -20.0746   -7.5485 O   0  0  0  0  0  0  0  0  0  0  0  0
   14.3615  -20.3130   -8.3224 H   0  0  0  0  0  0  0  0  0  0  0  0
   18.2905  -19.6919   -6.9956 O   0  0  0  0  0  0  0  0  0  0  0  0
   20.5337  -22.8926   -8.4569 C   0  0  0  0  0  0  0  0  0  0  0  0
   21.3094  -21.5683   -8.2651 C   0  0  0  0  0  0  0  0  0  0  0  0
   20.4738  -20.7176   -7.2953 C   0  0  0  0  0  0  0  0  0  0  0  0
   19.0926  -20.4566   -7.9335 C   0  0  0  0  0  0  0  0  0  0  0  0
   18.4215  -21.8395   -8.1918 C   0  0  0  0  0  0  0  0  0  0  0  0
   21.2804  -23.8163   -9.2504 O   0  0  0  0  0  0  0  0  0  0  0  0
   22.5780  -21.8300   -7.6622 O   0  0  0  0  0  0  0  0  0  0  0  0
   21.1203  -19.4609   -7.0798 O   0  0  0  0  0  0  0  0  0  0  0  0
   19.2479  -22.6320   -9.0867 O   0  0  0  0  0  0  0  0  0  0  0  0
   21.4320  -23.4378  -10.1305 H   0  0  0  0  0  0  0  0  0  0  0  0
   22.4456  -22.2751   -6.8105 H   0  0  0  0  0  0  0  0  0  0  0  0
   21.2142  -18.9963   -7.9262 H   0  0  0  0  0  0  0  0  0  0  0  0
   17.0653  -21.6115   -8.8686 C   0  0  0  0  0  0  0  0  0  0  0  0
   16.0128  -21.9060   -7.9326 O   0  0  0  0  0  0  0  0  0  0  0  0
   16.0838  -22.8301   -7.6466 H   0  0  0  0  0  0  0  0  0  0  0  0
   15.1624  -18.2508   -4.3295 O   0  0  0  0  0  0  0  0  0  0  0  0
   15.6512  -19.5247   -3.8451 C   0  0  0  0  0  0  0  0  0  0  0  0
   14.4565  -20.4350   -3.4358 C   0  0  0  0  0  0  0  0  0  0  0  0
   13.6500  -19.6960   -2.3455 C   0  0  0  0  0  0  0  0  0  0  0  0
   14.5820  -19.4412   -1.1444 C   0  0  0  0  0  0  0  0  0  0  0  0
   15.7760  -18.5807   -1.6257 C   0  0  0  0  0  0  0  0  0  0  0  0
   13.6170  -20.6801   -4.5707 O   0  0  0  0  0  0  0  0  0  0  0  0
   12.5369  -20.4976   -1.9305 O   0  0  0  0  0  0  0  0  0  0  0  0
   13.8541  -18.7446   -0.1142 O   0  0  0  0  0  0  0  0  0  0  0  0
   16.5060  -19.2852   -2.6840 O   0  0  0  0  0  0  0  0  0  0  0  0
   13.2841  -19.8365   -4.9149 H   0  0  0  0  0  0  0  0  0  0  0  0
   12.8598  -21.3418   -1.5785 H   0  0  0  0  0  0  0  0  0  0  0  0
   13.5240  -17.9025   -0.4646 H   0  0  0  0  0  0  0  0  0  0  0  0
   16.7251  -18.3556   -0.4487 C   0  0  0  0  0  0  0  0  0  0  0  0
   17.1889  -17.0042   -0.4734 O   0  0  0  0  0  0  0  0  0  0  0  0
   17.6550  -16.8375   -1.3075 H   0  0  0  0  0  0  0  0  0  0  0  0
 15 16  1  0  0  0
 15 20  1  0  0  0
 15 23  1  0  0  0
 16 17  1  0  0  0
 16 21  1  0  0  0
 17 18  1  0  0  0
 17 22  1  0  0  0
 18 19  1  0  0  0
 18 14  1  0  0  0
 19 27  1  0  0  0
 19 23  1  0  0  0
 27 28  1  0  0  0
 14  1  1  0  0  0
  1  2  1  0  0  0
  1  8  1  0  0  0
  2  3  1  0  0  0
  2  6  1  0  0  0
  3  4  1  0  0  0
  3  7  1  0  0  0
  4  5  1  0  0  0
  4 30  1  0  0  0
  5 11  1  0  0  0
  5  8  1  0  0  0
 11 12  1  0  0  0
 30 31  1  0  0  0
 31 32  1  0  0  0
 31 39  1  0  0  0
 32 33  1  0  0  0
 32 36  1  0  0  0
 33 34  1  0  0  0
 33 37  1  0  0  0
 34 35  1  0  0  0
 34 38  1  0  0  0
 35 43  1  0  0  0
 35 39  1  0  0  0
 43 44  1  0  0  0
 20 24  1  0  0  0
 21 25  1  0  0  0
 22 26  1  0  0  0
 28 29  1  0  0  0
  6  9  1  0  0  0
  7 10  1  0  0  0
 12 13  1  0  0  0
 36 40  1  0  0  0
 37 41  1  0  0  0
 38 42  1  0  0  0
 44 45  1  0  0  0
M  END
> <minimizedAffinity>
-7.30444

$$$$
