5ORV_A65_A_406
  RCSB PDB12061719193D
Coordinates from PDB:5ORV:A:406 Model:1 without hydrogens
 11 11  0  0  0  0            999 V2000
  -10.8550   13.2890  -17.2190   C 0  0  0  0  0  0  0  0  0  0  0  0
   -9.6260   12.7210  -17.8180   C 0  0  0  0  0  0  0  0  0  0  0  0
  -10.2090   10.7170  -15.3290   C 0  0  0  0  0  0  0  0  0  0  0  0
  -11.7890   12.9030  -16.1590   C 0  0  0  0  0  0  0  0  0  0  0  0
  -11.4820   14.5720  -17.6660   C 0  0  0  0  0  0  0  0  0  0  0  0
   -9.9380   11.9400  -18.9740   O 0  0  0  0  0  0  0  0  0  0  0  0
  -11.7920   11.4920  -15.0990   S 0  0  0  0  0  0  0  0  0  0  0  0
  -12.8610   13.8480  -15.9740   S 0  0  0  0  0  0  0  0  0  0  0  0
  -12.6240   14.8860  -16.9490   N 0  0  0  0  0  0  0  0  0  0  0  0
  -10.7810   15.4880  -18.9360   S 0  0  0  0  0  0  0  0  0  0  0  0
  -11.9120   16.8720  -19.0310   C 0  0  0  0  0  0  0  0  0  0  0  0
  1  2  1  0  0  0  0
  1  4  2  0  0  0  0
  1  5  1  0  0  0  0
  2  6  1  0  0  0  0
  3  7  1  0  0  0  0
  4  7  1  0  0  0  0
  4  8  1  0  0  0  0
  5  9  2  0  0  0  0
  5 10  1  0  0  0  0
  8  9  1  0  0  0  0
 10 11  1  0  0  0  0
A    1
C4
A    2
C5
A    3
C3
A    4
C2
A    5
C1
A    6
O
A    7
S2
A    8
S1
A    9
N
A   10
S
A   11
C
M  END
>  <InstanceId>
5ORV_A65_A_406

>  <ChemCompId>
A65

>  <PdbId>
5ORV

>  <ChainId>
A

>  <ResidueNumber>
406

>  <InsertionCode>


>  <Model>
1

>  <AltIds>


>  <MissingHeavyAtoms>
0

>  <ObservedFormula>
C6 N O S3

>  <Name>
[3,5-bis(methylsulfanyl)-1,2-thiazol-4-yl]methanol

>  <SystematicName>
[3,5-bis(methylsulfanyl)-1,2-thiazol-4-yl]methanol

>  <Synonyms>


>  <Type>
NON-POLYMER

>  <Formula>
C6 H9 N O S3

>  <MolecularWeight>
207.337

>  <ModifiedDate>
2017-10-27

>  <Parent>


>  <OneLetterCode>


>  <SubcomponentList>


>  <AmbiguousFlag>
N

>  <InChI>
InChI=1S/C6H9NOS3/c1-9-5-4(3-8)6(10-2)11-7-5/h8H,3H2,1-2H3

>  <InChIKey>
SIFVTEYXNRZCMI-UHFFFAOYSA-N

>  <SMILES>
CSc1c(c(sn1)SC)CO

$$$$
