5ORV_A65_A_406


 12 12  0  0  0  0  0  0  0  0999 V2000
  -11.6151   14.1520  -16.6307 C   0  0  0  0  0  0  0  0  0  0  0  0
  -10.7518   15.0951  -17.3449 C   0  0  0  0  0  0  0  0  0  0  0  0
  -10.8568   12.8817  -16.8548 C   0  0  0  0  0  0  0  0  0  0  0  0
   -9.5926   14.4722  -17.9321 S   0  0  0  0  0  0  0  0  0  0  0  0
   -9.7026   13.0727  -17.5951 N   0  0  0  0  0  0  0  0  0  0  0  0
  -12.8841   14.2302  -15.8721 C   0  0  0  0  0  0  0  0  0  0  0  0
  -13.8305   15.0608  -16.5488 O   0  0  0  0  0  0  0  0  0  0  0  0
  -13.4711   15.9578  -16.6336 H   0  0  0  0  0  0  0  0  0  0  0  0
  -11.5881   17.0373  -19.2138 C   0  0  0  0  0  0  0  0  0  0  0  0
  -10.9141   16.8365  -17.5814 S   0  0  0  0  0  0  0  0  0  0  0  0
  -11.4348   11.3980  -16.2159 S   0  0  0  0  0  0  0  0  0  0  0  0
  -10.5751   11.3372  -14.6472 C   0  0  0  0  0  0  0  0  0  0  0  0
  1  6  1  0  0  0
  1  2  2  0  0  0
  1  3  1  0  0  0
  6  7  1  0  0  0
  9 10  1  0  0  0
  2 10  1  0  0  0
  2  4  1  0  0  0
  3  5  2  0  0  0
  3 11  1  0  0  0
  4  5  1  0  0  0
 11 12  1  0  0  0
  7  8  1  0  0  0
M  END
> <minimizedAffinity>
-4.11838

$$$$
5ORV_A65_A_406


 12 12  0  0  0  0  0  0  0  0999 V2000
  -10.9049   13.7976  -16.8801 C   0  0  0  0  0  0  0  0  0  0  0  0
  -11.6597   13.2185  -15.7666 C   0  0  0  0  0  0  0  0  0  0  0  0
  -11.9592   14.6698  -17.4856 C   0  0  0  0  0  0  0  0  0  0  0  0
  -13.0194   13.6903  -15.6953 S   0  0  0  0  0  0  0  0  0  0  0  0
  -13.1617   14.6059  -16.8024 N   0  0  0  0  0  0  0  0  0  0  0  0
   -9.5290   13.6782  -17.4138 C   0  0  0  0  0  0  0  0  0  0  0  0
   -9.4199   12.5551  -18.2915 O   0  0  0  0  0  0  0  0  0  0  0  0
   -9.6288   11.7426  -17.8046 H   0  0  0  0  0  0  0  0  0  0  0  0
  -10.4574   10.6904  -15.4107 C   0  0  0  0  0  0  0  0  0  0  0  0
  -11.1614   12.0636  -14.5287 S   0  0  0  0  0  0  0  0  0  0  0  0
  -11.6149   15.6160  -18.8747 S   0  0  0  0  0  0  0  0  0  0  0  0
  -10.8949   17.0760  -18.1305 C   0  0  0  0  0  0  0  0  0  0  0  0
  1  6  1  0  0  0
  1  2  2  0  0  0
  1  3  1  0  0  0
  6  7  1  0  0  0
  9 10  1  0  0  0
  2 10  1  0  0  0
  2  4  1  0  0  0
  3  5  2  0  0  0
  3 11  1  0  0  0
  4  5  1  0  0  0
 11 12  1  0  0  0
  7  8  1  0  0  0
M  END
> <minimizedAffinity>
-3.93693

$$$$
5ORV_A65_A_406


 12 12  0  0  0  0  0  0  0  0999 V2000
  -11.6398   14.2088  -16.5835 C   0  0  0  0  0  0  0  0  0  0  0  0
  -10.5862   13.2174  -16.8119 C   0  0  0  0  0  0  0  0  0  0  0  0
  -11.2140   15.2703  -17.5483 C   0  0  0  0  0  0  0  0  0  0  0  0
   -9.6296   13.6242  -17.8098 S   0  0  0  0  0  0  0  0  0  0  0  0
  -10.0685   14.9283  -18.2466 N   0  0  0  0  0  0  0  0  0  0  0  0
  -12.8306   14.3194  -15.7108 C   0  0  0  0  0  0  0  0  0  0  0  0
  -13.9933   13.8135  -16.3709 O   0  0  0  0  0  0  0  0  0  0  0  0
  -14.1577   14.3285  -17.1763 H   0  0  0  0  0  0  0  0  0  0  0  0
   -9.4953   10.6611  -17.3010 C   0  0  0  0  0  0  0  0  0  0  0  0
  -10.3257   11.6377  -16.0696 S   0  0  0  0  0  0  0  0  0  0  0  0
  -12.1194   16.7192  -17.7046 S   0  0  0  0  0  0  0  0  0  0  0  0
  -11.6557   17.2423  -19.3524 C   0  0  0  0  0  0  0  0  0  0  0  0
  1  6  1  0  0  0
  1  2  2  0  0  0
  1  3  1  0  0  0
  6  7  1  0  0  0
  9 10  1  0  0  0
  2 10  1  0  0  0
  2  4  1  0  0  0
  3  5  2  0  0  0
  3 11  1  0  0  0
  4  5  1  0  0  0
 11 12  1  0  0  0
  7  8  1  0  0  0
M  END
> <minimizedAffinity>
-3.93028

$$$$
5ORV_A65_A_406


 12 12  0  0  0  0  0  0  0  0999 V2000
  -10.8754   13.9382  -16.9973 C   0  0  0  0  0  0  0  0  0  0  0  0
  -11.9488   14.9320  -17.0686 C   0  0  0  0  0  0  0  0  0  0  0  0
  -11.5216   12.9177  -16.1142 C   0  0  0  0  0  0  0  0  0  0  0  0
  -13.1215   14.5568  -16.3200 S   0  0  0  0  0  0  0  0  0  0  0  0
  -12.8040   13.2759  -15.7346 N   0  0  0  0  0  0  0  0  0  0  0  0
   -9.5063   13.8044  -17.5446 C   0  0  0  0  0  0  0  0  0  0  0  0
   -9.5170   13.9030  -18.9707 O   0  0  0  0  0  0  0  0  0  0  0  0
  -10.0630   13.1913  -19.3399 H   0  0  0  0  0  0  0  0  0  0  0  0
  -10.5035   17.3145  -17.5142 C   0  0  0  0  0  0  0  0  0  0  0  0
  -12.0185   16.4773  -17.9182 S   0  0  0  0  0  0  0  0  0  0  0  0
  -10.6831   11.4853  -15.6800 S   0  0  0  0  0  0  0  0  0  0  0  0
  -10.9076   11.4764  -13.9043 C   0  0  0  0  0  0  0  0  0  0  0  0
  1  6  1  0  0  0
  1  2  2  0  0  0
  1  3  1  0  0  0
  6  7  1  0  0  0
  9 10  1  0  0  0
  2 10  1  0  0  0
  2  4  1  0  0  0
  3  5  2  0  0  0
  3 11  1  0  0  0
  4  5  1  0  0  0
 11 12  1  0  0  0
  7  8  1  0  0  0
M  END
> <minimizedAffinity>
-3.86644

$$$$
5ORV_A65_A_406


 12 12  0  0  0  0  0  0  0  0999 V2000
  -11.6490   13.3121  -16.0358 C   0  0  0  0  0  0  0  0  0  0  0  0
  -10.8665   13.6857  -17.2161 C   0  0  0  0  0  0  0  0  0  0  0  0
  -10.8661   12.1261  -15.5674 C   0  0  0  0  0  0  0  0  0  0  0  0
   -9.7292   12.8292  -17.4387 S   0  0  0  0  0  0  0  0  0  0  0  0
   -9.7706   11.8587  -16.3707 N   0  0  0  0  0  0  0  0  0  0  0  0
  -12.8665   13.8141  -15.3594 C   0  0  0  0  0  0  0  0  0  0  0  0
  -13.8681   14.1713  -16.3147 O   0  0  0  0  0  0  0  0  0  0  0  0
  -13.5291   14.8738  -16.8914 H   0  0  0  0  0  0  0  0  0  0  0  0
  -10.8943   16.4986  -17.4410 C   0  0  0  0  0  0  0  0  0  0  0  0
  -11.1011   14.9986  -18.3719 S   0  0  0  0  0  0  0  0  0  0  0  0
  -11.3513   11.2594  -14.1685 S   0  0  0  0  0  0  0  0  0  0  0  0
  -11.9670    9.7439  -14.8953 C   0  0  0  0  0  0  0  0  0  0  0  0
  1  6  1  0  0  0
  1  2  2  0  0  0
  1  3  1  0  0  0
  6  7  1  0  0  0
  9 10  1  0  0  0
  2 10  1  0  0  0
  2  4  1  0  0  0
  3  5  2  0  0  0
  3 11  1  0  0  0
  4  5  1  0  0  0
 11 12  1  0  0  0
  7  8  1  0  0  0
M  END
> <minimizedAffinity>
-3.71008

$$$$
5ORV_A65_A_406


 12 12  0  0  0  0  0  0  0  0999 V2000
  -11.6230   10.4579  -14.0075 C   0  0  0  0  0  0  0  0  0  0  0  0
  -11.4825    9.3141  -14.9114 C   0  0  0  0  0  0  0  0  0  0  0  0
  -12.0819   11.5021  -14.9760 C   0  0  0  0  0  0  0  0  0  0  0  0
  -11.8249    9.6230  -16.2766 S   0  0  0  0  0  0  0  0  0  0  0  0
  -12.1980   11.0176  -16.2678 N   0  0  0  0  0  0  0  0  0  0  0  0
  -11.4155   10.7091  -12.5634 C   0  0  0  0  0  0  0  0  0  0  0  0
  -12.2327    9.8416  -11.7739 O   0  0  0  0  0  0  0  0  0  0  0  0
  -13.1670   10.0020  -11.9793 H   0  0  0  0  0  0  0  0  0  0  0  0
   -9.4073    7.4648  -15.3989 C   0  0  0  0  0  0  0  0  0  0  0  0
  -10.9749    7.6561  -14.5832 S   0  0  0  0  0  0  0  0  0  0  0  0
  -12.4101   13.0997  -14.4438 S   0  0  0  0  0  0  0  0  0  0  0  0
  -13.3011   13.7579  -15.8497 C   0  0  0  0  0  0  0  0  0  0  0  0
  1  6  1  0  0  0
  1  2  2  0  0  0
  1  3  1  0  0  0
  6  7  1  0  0  0
  9 10  1  0  0  0
  2 10  1  0  0  0
  2  4  1  0  0  0
  3  5  2  0  0  0
  3 11  1  0  0  0
  4  5  1  0  0  0
 11 12  1  0  0  0
  7  8  1  0  0  0
M  END
> <minimizedAffinity>
-3.70226

$$$$
5ORV_A65_A_406


 12 12  0  0  0  0  0  0  0  0999 V2000
  -11.6682   15.2552  -19.6991 C   0  0  0  0  0  0  0  0  0  0  0  0
  -11.3312   15.5042  -18.2958 C   0  0  0  0  0  0  0  0  0  0  0  0
  -12.2928   16.5675  -20.0552 C   0  0  0  0  0  0  0  0  0  0  0  0
  -11.7009   16.8228  -17.8476 S   0  0  0  0  0  0  0  0  0  0  0  0
  -12.3048   17.4578  -18.9949 N   0  0  0  0  0  0  0  0  0  0  0  0
  -11.5285   14.1262  -20.6466 C   0  0  0  0  0  0  0  0  0  0  0  0
  -12.4483   13.0790  -20.3287 O   0  0  0  0  0  0  0  0  0  0  0  0
  -12.2670   12.7498  -19.4345 H   0  0  0  0  0  0  0  0  0  0  0  0
  -11.6871   13.1141  -16.8380 C   0  0  0  0  0  0  0  0  0  0  0  0
  -10.5544   14.4576  -17.1059 S   0  0  0  0  0  0  0  0  0  0  0  0
  -12.8945   16.8450  -21.6377 S   0  0  0  0  0  0  0  0  0  0  0  0
  -13.9458   18.2677  -21.3648 C   0  0  0  0  0  0  0  0  0  0  0  0
  1  6  1  0  0  0
  1  2  2  0  0  0
  1  3  1  0  0  0
  6  7  1  0  0  0
  9 10  1  0  0  0
  2 10  1  0  0  0
  2  4  1  0  0  0
  3  5  2  0  0  0
  3 11  1  0  0  0
  4  5  1  0  0  0
 11 12  1  0  0  0
  7  8  1  0  0  0
M  END
> <minimizedAffinity>
-3.63742

$$$$
5ORV_A65_A_406


 12 12  0  0  0  0  0  0  0  0999 V2000
  -10.7447   13.7643  -17.1899 C   0  0  0  0  0  0  0  0  0  0  0  0
  -11.8546   14.7192  -17.1556 C   0  0  0  0  0  0  0  0  0  0  0  0
  -11.3233   12.6604  -16.3620 C   0  0  0  0  0  0  0  0  0  0  0  0
  -12.9867   14.2480  -16.3988 S   0  0  0  0  0  0  0  0  0  0  0  0
  -12.6038   12.9420  -15.9170 N   0  0  0  0  0  0  0  0  0  0  0  0
   -9.3914   13.7215  -17.7888 C   0  0  0  0  0  0  0  0  0  0  0  0
   -9.4135   13.0435  -19.0471 O   0  0  0  0  0  0  0  0  0  0  0  0
   -9.7178   12.1316  -18.9177 H   0  0  0  0  0  0  0  0  0  0  0  0
  -10.5491   17.2086  -17.4058 C   0  0  0  0  0  0  0  0  0  0  0  0
  -12.0086   16.3167  -17.8896 S   0  0  0  0  0  0  0  0  0  0  0  0
  -10.4199   11.2338  -16.0585 S   0  0  0  0  0  0  0  0  0  0  0  0
  -10.8918   10.2201  -17.4561 C   0  0  0  0  0  0  0  0  0  0  0  0
  1  6  1  0  0  0
  1  2  2  0  0  0
  1  3  1  0  0  0
  6  7  1  0  0  0
  9 10  1  0  0  0
  2 10  1  0  0  0
  2  4  1  0  0  0
  3  5  2  0  0  0
  3 11  1  0  0  0
  4  5  1  0  0  0
 11 12  1  0  0  0
  7  8  1  0  0  0
M  END
> <minimizedAffinity>
-3.63704

$$$$
5ORV_A65_A_406


 12 12  0  0  0  0  0  0  0  0999 V2000
  -11.0967   12.5513  -16.5761 C   0  0  0  0  0  0  0  0  0  0  0  0
  -11.4436   12.0231  -15.2548 C   0  0  0  0  0  0  0  0  0  0  0  0
  -11.9735   13.7633  -16.6119 C   0  0  0  0  0  0  0  0  0  0  0  0
  -12.4164   12.8266  -14.5589 S   0  0  0  0  0  0  0  0  0  0  0  0
  -12.7208   13.9156  -15.4565 N   0  0  0  0  0  0  0  0  0  0  0  0
  -10.1964   12.1537  -17.6821 C   0  0  0  0  0  0  0  0  0  0  0  0
   -8.8801   11.8837  -17.1940 O   0  0  0  0  0  0  0  0  0  0  0  0
   -8.5186   12.6830  -16.7800 H   0  0  0  0  0  0  0  0  0  0  0  0
  -11.4412   10.7468  -12.7379 C   0  0  0  0  0  0  0  0  0  0  0  0
  -10.8571   10.5894  -14.4092 S   0  0  0  0  0  0  0  0  0  0  0  0
  -11.9763   14.7961  -17.9819 S   0  0  0  0  0  0  0  0  0  0  0  0
  -10.8445   16.0777  -17.4528 C   0  0  0  0  0  0  0  0  0  0  0  0
  1  6  1  0  0  0
  1  2  2  0  0  0
  1  3  1  0  0  0
  6  7  1  0  0  0
  9 10  1  0  0  0
  2 10  1  0  0  0
  2  4  1  0  0  0
  3  5  2  0  0  0
  3 11  1  0  0  0
  4  5  1  0  0  0
 11 12  1  0  0  0
  7  8  1  0  0  0
M  END
> <minimizedAffinity>
-3.62439

$$$$
5ORV_A65_A_406


 12 12  0  0  0  0  0  0  0  0999 V2000
  -11.1045   11.9170  -16.7202 C   0  0  0  0  0  0  0  0  0  0  0  0
  -11.5544   13.2623  -17.0846 C   0  0  0  0  0  0  0  0  0  0  0  0
  -11.9525   11.6759  -15.5111 C   0  0  0  0  0  0  0  0  0  0  0  0
  -12.5688   13.7810  -16.2023 S   0  0  0  0  0  0  0  0  0  0  0  0
  -12.7876   12.7422  -15.2239 N   0  0  0  0  0  0  0  0  0  0  0  0
  -10.1242   10.9402  -17.2460 C   0  0  0  0  0  0  0  0  0  0  0  0
   -8.7867   11.3668  -16.9764 O   0  0  0  0  0  0  0  0  0  0  0  0
   -8.6265   12.2207  -17.4079 H   0  0  0  0  0  0  0  0  0  0  0  0
   -9.3197   14.6050  -18.1651 C   0  0  0  0  0  0  0  0  0  0  0  0
  -11.0552   14.3116  -18.4129 S   0  0  0  0  0  0  0  0  0  0  0  0
  -11.8343   10.2000  -14.6445 S   0  0  0  0  0  0  0  0  0  0  0  0
  -11.3790   10.7888  -13.0167 C   0  0  0  0  0  0  0  0  0  0  0  0
  1  6  1  0  0  0
  1  2  2  0  0  0
  1  3  1  0  0  0
  6  7  1  0  0  0
  9 10  1  0  0  0
  2 10  1  0  0  0
  2  4  1  0  0  0
  3  5  2  0  0  0
  3 11  1  0  0  0
  4  5  1  0  0  0
 11 12  1  0  0  0
  7  8  1  0  0  0
M  END
> <minimizedAffinity>
-3.52260

$$$$
