4X6M_3Y3_A_301


 46 50  0  0  0  0  0  0  0  0999 V2000
   39.9539  -20.6774   28.8859 C   0  0  0  0  0  0  0  0  0  0  0  0
   41.4476  -20.6198   28.8442 C   0  0  0  0  0  0  0  0  0  0  0  0
   42.1604  -20.3468   27.6808 N   0  0  0  0  0  0  0  0  0  0  0  0
   43.4800  -20.4576   28.0234 C   0  0  0  0  0  0  0  0  0  0  0  0
   43.5165  -20.7722   29.3558 C   0  0  0  0  0  0  0  0  0  0  0  0
   42.2391  -20.8667   29.8618 N   0  0  0  0  0  0  0  0  0  0  0  0
   44.7188  -20.2396   26.8691 Cl  0  0  0  0  0  0  0  0  0  0  0  0
   41.7920  -20.1211   26.7961 H   0  0  0  0  0  0  0  0  0  0  0  0
   45.5449  -22.2445   32.1593 C   0  0  0  0  0  0  0  0  0  0  0  0
   46.9810  -20.8667   30.8018 C   0  0  0  0  0  0  0  0  0  0  0  0
   46.8186  -21.7458   31.8902 C   0  0  0  0  0  0  0  0  0  0  0  0
   48.1779  -21.9397   32.3910 C   0  0  0  0  0  0  0  0  0  0  0  0
   44.6522  -21.0535   30.2529 C   0  0  0  0  0  0  0  0  0  0  0  0
   45.9067  -20.5024   29.9952 C   0  0  0  0  0  0  0  0  0  0  0  0
   44.4811  -21.9126   31.3421 C   0  0  0  0  0  0  0  0  0  0  0  0
   48.3091  -20.5875   30.7107 N   0  0  0  0  0  0  0  0  0  0  0  0
   49.0483  -21.2434   31.6650 N   0  0  0  0  0  0  0  0  0  0  0  0
   48.5541  -22.6593   33.4605 N   0  0  0  0  0  0  0  0  0  0  0  0
   48.6969  -19.9836   30.0368 H   0  0  0  0  0  0  0  0  0  0  0  0
   49.5062  -22.7183   33.7039 H   0  0  0  0  0  0  0  0  0  0  0  0
   47.8779  -23.1279   34.0012 H   0  0  0  0  0  0  0  0  0  0  0  0
   38.6913  -17.2889   29.0542 N   0  0  0  0  0  0  0  0  0  0  0  0
   39.3774  -19.3991   28.5107 N   0  0  0  0  0  0  0  0  0  0  0  0
   39.2504  -18.4391   29.4652 C   0  0  0  0  0  0  0  0  0  0  0  0
   39.6857  -18.5801   30.6053 O   0  0  0  0  0  0  0  0  0  0  0  0
   39.1153  -16.4381   29.3103 H   0  0  0  0  0  0  0  0  0  0  0  0
   39.0850  -19.2309   27.5858 H   0  0  0  0  0  0  0  0  0  0  0  0
   37.4845  -17.2530   28.2460 C   0  0  0  0  0  0  0  0  0  0  0  0
   35.1284  -14.4117   29.0161 C   0  0  0  0  0  0  0  0  0  0  0  0
   35.7047  -13.3478   28.3611 C   0  0  0  0  0  0  0  0  0  0  0  0
   36.8362  -15.8993   28.2256 C   0  0  0  0  0  0  0  0  0  0  0  0
   37.4438  -14.8216   27.5453 C   0  0  0  0  0  0  0  0  0  0  0  0
   36.8681  -13.5566   27.6346 C   0  0  0  0  0  0  0  0  0  0  0  0
   35.6703  -15.6725   28.9492 C   0  0  0  0  0  0  0  0  0  0  0  0
   33.7153  -14.1556   30.0011 Cl  0  0  0  0  0  0  0  0  0  0  0  0
   38.7064  -14.9657   26.7157 C   0  0  0  0  0  0  0  0  0  0  0  0
   38.4485  -15.2723   25.2865 N   0  0  0  0  0  0  0  0  0  0  0  0
   37.9262  -14.5053   24.8631 H   0  0  0  0  0  0  0  0  0  0  0  0
   37.9056  -16.1330   25.2161 H   0  0  0  0  0  0  0  0  0  0  0  0
   39.4005  -21.8297   28.0289 C   0  0  0  0  0  0  0  0  0  0  0  0
   40.8845  -23.7938   27.5189 C   0  0  0  0  0  0  0  0  0  0  0  0
   40.0213  -23.1574   28.3962 C   0  0  0  0  0  0  0  0  0  0  0  0
   39.8996  -23.6673   29.6846 C   0  0  0  0  0  0  0  0  0  0  0  0
   40.6829  -24.7264   30.1065 C   0  0  0  0  0  0  0  0  0  0  0  0
   41.5756  -25.3119   29.2410 C   0  0  0  0  0  0  0  0  0  0  0  0
   41.6678  -24.8551   27.9437 C   0  0  0  0  0  0  0  0  0  0  0  0
 37 36  1  0  0  0
 36 32  1  0  0  0
  7  4  1  0  0  0
 41 46  2  0  0  0
 41 42  1  0  0  0
 32 33  2  0  0  0
 32 31  1  0  0  0
 33 30  1  0  0  0
  3  4  1  0  0  0
  3  2  1  0  0  0
 46 45  1  0  0  0
 40 42  1  0  0  0
 40  1  1  0  0  0
  4  5  2  0  0  0
 31 28  1  0  0  0
 31 34  2  0  0  0
 28 22  1  0  0  0
 30 29  2  0  0  0
 42 43  2  0  0  0
 23  1  1  0  0  0
 23 24  1  0  0  0
  2  1  1  0  0  0
  2  6  2  0  0  0
 34 29  1  0  0  0
 29 35  1  0  0  0
 22 24  1  0  0  0
 45 44  2  0  0  0
  5  6  1  0  0  0
  5 13  1  0  0  0
 24 25  2  0  0  0
 43 44  1  0  0  0
 14 13  2  0  0  0
 14 10  1  0  0  0
 13 15  1  0  0  0
 16 10  1  0  0  0
 16 17  1  0  0  0
 10 11  2  0  0  0
 15  9  2  0  0  0
 17 12  2  0  0  0
 11  9  1  0  0  0
 11 12  1  0  0  0
 12 18  1  0  0  0
 22 26  1  0  0  0
 23 27  1  0  0  0
  3  8  1  0  0  0
 16 19  1  0  0  0
 18 20  1  0  0  0
 18 21  1  0  0  0
 37 38  1  0  0  0
 37 39  1  0  0  0
M  END
> <minimizedAffinity>
-11.44076

$$$$
4X6M_3Y3_A_301


 46 50  0  0  0  0  0  0  0  0999 V2000
   39.9109  -20.6185   28.7460 C   0  0  0  0  0  0  0  0  0  0  0  0
   41.4055  -20.5794   28.7156 C   0  0  0  0  0  0  0  0  0  0  0  0
   42.1307  -20.3301   27.5546 N   0  0  0  0  0  0  0  0  0  0  0  0
   43.4461  -20.4524   27.9093 C   0  0  0  0  0  0  0  0  0  0  0  0
   43.4682  -20.7501   29.2459 C   0  0  0  0  0  0  0  0  0  0  0  0
   42.1858  -20.8226   29.7427 N   0  0  0  0  0  0  0  0  0  0  0  0
   44.6966  -20.2644   26.7623 Cl  0  0  0  0  0  0  0  0  0  0  0  0
   41.7722  -20.1115   26.6641 H   0  0  0  0  0  0  0  0  0  0  0  0
   45.4712  -22.2476   32.0543 C   0  0  0  0  0  0  0  0  0  0  0  0
   46.9106  -20.8274   30.7448 C   0  0  0  0  0  0  0  0  0  0  0  0
   46.7425  -21.7281   31.8144 C   0  0  0  0  0  0  0  0  0  0  0  0
   48.0961  -21.9140   32.3332 C   0  0  0  0  0  0  0  0  0  0  0  0
   44.5933  -21.0334   30.1557 C   0  0  0  0  0  0  0  0  0  0  0  0
   45.8445  -20.4620   29.9279 C   0  0  0  0  0  0  0  0  0  0  0  0
   44.4161  -21.9142   31.2264 C   0  0  0  0  0  0  0  0  0  0  0  0
   48.2362  -20.5300   30.6798 N   0  0  0  0  0  0  0  0  0  0  0  0
   48.9688  -21.1937   31.6338 N   0  0  0  0  0  0  0  0  0  0  0  0
   48.4648  -22.6482   33.3954 N   0  0  0  0  0  0  0  0  0  0  0  0
   48.6268  -19.9091   30.0231 H   0  0  0  0  0  0  0  0  0  0  0  0
   49.4137  -22.6997   33.6528 H   0  0  0  0  0  0  0  0  0  0  0  0
   47.7862  -23.1350   33.9168 H   0  0  0  0  0  0  0  0  0  0  0  0
   38.6530  -17.2335   28.9993 N   0  0  0  0  0  0  0  0  0  0  0  0
   39.3536  -19.3236   28.3995 N   0  0  0  0  0  0  0  0  0  0  0  0
   39.1919  -18.4017   29.3858 C   0  0  0  0  0  0  0  0  0  0  0  0
   39.5812  -18.5899   30.5356 O   0  0  0  0  0  0  0  0  0  0  0  0
   39.0691  -16.3955   29.3057 H   0  0  0  0  0  0  0  0  0  0  0  0
   39.0986  -19.1175   27.4713 H   0  0  0  0  0  0  0  0  0  0  0  0
   37.4792  -17.1600   28.1462 C   0  0  0  0  0  0  0  0  0  0  0  0
   35.1111  -14.3601   29.0238 C   0  0  0  0  0  0  0  0  0  0  0  0
   35.6750  -13.2724   28.3978 C   0  0  0  0  0  0  0  0  0  0  0  0
   36.8220  -15.8107   28.1734 C   0  0  0  0  0  0  0  0  0  0  0  0
   37.4170  -14.7081   27.5223 C   0  0  0  0  0  0  0  0  0  0  0  0
   36.8338  -13.4505   27.6558 C   0  0  0  0  0  0  0  0  0  0  0  0
   35.6607  -15.6145   28.9131 C   0  0  0  0  0  0  0  0  0  0  0  0
   33.7045  -14.1444   30.0277 Cl  0  0  0  0  0  0  0  0  0  0  0  0
   38.6736  -14.8178   26.6784 C   0  0  0  0  0  0  0  0  0  0  0  0
   38.4155  -15.2300   25.2762 N   0  0  0  0  0  0  0  0  0  0  0  0
   37.8350  -14.5283   24.8169 H   0  0  0  0  0  0  0  0  0  0  0  0
   37.9324  -16.1283   25.2694 H   0  0  0  0  0  0  0  0  0  0  0  0
   39.3486  -21.7413   27.8563 C   0  0  0  0  0  0  0  0  0  0  0  0
   39.2194  -21.1825   25.4086 C   0  0  0  0  0  0  0  0  0  0  0  0
   38.6128  -21.1965   26.6543 C   0  0  0  0  0  0  0  0  0  0  0  0
   37.2592  -20.8855   26.7298 C   0  0  0  0  0  0  0  0  0  0  0  0
   36.5183  -20.6541   25.5848 C   0  0  0  0  0  0  0  0  0  0  0  0
   37.1227  -20.6987   24.3514 C   0  0  0  0  0  0  0  0  0  0  0  0
   38.4753  -20.9498   24.2630 C   0  0  0  0  0  0  0  0  0  0  0  0
 37 36  1  0  0  0
 36 32  1  0  0  0
  7  4  1  0  0  0
 41 46  2  0  0  0
 41 42  1  0  0  0
 32 33  2  0  0  0
 32 31  1  0  0  0
 33 30  1  0  0  0
  3  4  1  0  0  0
  3  2  1  0  0  0
 46 45  1  0  0  0
 40 42  1  0  0  0
 40  1  1  0  0  0
  4  5  2  0  0  0
 31 28  1  0  0  0
 31 34  2  0  0  0
 28 22  1  0  0  0
 30 29  2  0  0  0
 42 43  2  0  0  0
 23  1  1  0  0  0
 23 24  1  0  0  0
  2  1  1  0  0  0
  2  6  2  0  0  0
 34 29  1  0  0  0
 29 35  1  0  0  0
 22 24  1  0  0  0
 45 44  2  0  0  0
  5  6  1  0  0  0
  5 13  1  0  0  0
 24 25  2  0  0  0
 43 44  1  0  0  0
 14 13  2  0  0  0
 14 10  1  0  0  0
 13 15  1  0  0  0
 16 10  1  0  0  0
 16 17  1  0  0  0
 10 11  2  0  0  0
 15  9  2  0  0  0
 17 12  2  0  0  0
 11  9  1  0  0  0
 11 12  1  0  0  0
 12 18  1  0  0  0
 22 26  1  0  0  0
 23 27  1  0  0  0
  3  8  1  0  0  0
 16 19  1  0  0  0
 18 20  1  0  0  0
 18 21  1  0  0  0
 37 38  1  0  0  0
 37 39  1  0  0  0
M  END
> <minimizedAffinity>
-11.13049

$$$$
4X6M_3Y3_A_301


 46 50  0  0  0  0  0  0  0  0999 V2000
   41.9718  -20.8151   29.0130 C   0  0  0  0  0  0  0  0  0  0  0  0
   41.1383  -19.8783   28.1982 C   0  0  0  0  0  0  0  0  0  0  0  0
   41.1282  -19.8922   26.8069 N   0  0  0  0  0  0  0  0  0  0  0  0
   40.3180  -18.8549   26.4346 C   0  0  0  0  0  0  0  0  0  0  0  0
   39.8659  -18.2735   27.5892 C   0  0  0  0  0  0  0  0  0  0  0  0
   40.3812  -18.9245   28.6881 N   0  0  0  0  0  0  0  0  0  0  0  0
   40.0543  -18.4797   24.7902 Cl  0  0  0  0  0  0  0  0  0  0  0  0
   41.6045  -20.5177   26.2144 H   0  0  0  0  0  0  0  0  0  0  0  0
   38.5182  -14.7698   27.3667 C   0  0  0  0  0  0  0  0  0  0  0  0
   36.9838  -16.1122   28.6500 C   0  0  0  0  0  0  0  0  0  0  0  0
   37.3125  -14.8771   28.0582 C   0  0  0  0  0  0  0  0  0  0  0  0
   36.1388  -14.0435   28.3101 C   0  0  0  0  0  0  0  0  0  0  0  0
   39.0031  -17.0979   27.8073 C   0  0  0  0  0  0  0  0  0  0  0  0
   37.8268  -17.2149   28.5467 C   0  0  0  0  0  0  0  0  0  0  0  0
   39.3434  -15.8702   27.2326 C   0  0  0  0  0  0  0  0  0  0  0  0
   35.7437  -15.9762   29.1919 N   0  0  0  0  0  0  0  0  0  0  0  0
   35.2152  -14.7257   28.9816 N   0  0  0  0  0  0  0  0  0  0  0  0
   35.9768  -12.7504   27.9862 N   0  0  0  0  0  0  0  0  0  0  0  0
   35.2774  -16.6930   29.6797 H   0  0  0  0  0  0  0  0  0  0  0  0
   35.1359  -12.2889   28.2080 H   0  0  0  0  0  0  0  0  0  0  0  0
   36.6989  -12.2638   27.5268 H   0  0  0  0  0  0  0  0  0  0  0  0
   40.2531  -23.8244   30.0592 N   0  0  0  0  0  0  0  0  0  0  0  0
   41.3998  -22.1493   29.0113 N   0  0  0  0  0  0  0  0  0  0  0  0
   40.7394  -22.5738   30.1215 C   0  0  0  0  0  0  0  0  0  0  0  0
   40.5316  -21.8420   31.0861 O   0  0  0  0  0  0  0  0  0  0  0  0
   39.3281  -23.9881   30.3538 H   0  0  0  0  0  0  0  0  0  0  0  0
   41.4880  -22.7337   28.2240 H   0  0  0  0  0  0  0  0  0  0  0  0
   41.0407  -24.9446   29.5737 C   0  0  0  0  0  0  0  0  0  0  0  0
   39.1904  -25.2754   26.3050 C   0  0  0  0  0  0  0  0  0  0  0  0
   39.6354  -26.4836   25.8202 C   0  0  0  0  0  0  0  0  0  0  0  0
   40.5069  -25.5221   28.2950 C   0  0  0  0  0  0  0  0  0  0  0  0
   40.9759  -26.7650   27.8167 C   0  0  0  0  0  0  0  0  0  0  0  0
   40.5358  -27.2202   26.5763 C   0  0  0  0  0  0  0  0  0  0  0  0
   39.6046  -24.7966   27.5244 C   0  0  0  0  0  0  0  0  0  0  0  0
   38.1252  -24.2963   25.3355 Cl  0  0  0  0  0  0  0  0  0  0  0  0
   41.9474  -27.6409   28.5863 C   0  0  0  0  0  0  0  0  0  0  0  0
   41.2854  -28.6770   29.4177 N   0  0  0  0  0  0  0  0  0  0  0  0
   40.7596  -29.3108   28.8159 H   0  0  0  0  0  0  0  0  0  0  0  0
   40.6496  -28.2285   30.0772 H   0  0  0  0  0  0  0  0  0  0  0  0
   43.4412  -20.8206   28.5555 C   0  0  0  0  0  0  0  0  0  0  0  0
   44.0775  -21.5555   30.8740 C   0  0  0  0  0  0  0  0  0  0  0  0
   44.3981  -20.8515   29.7245 C   0  0  0  0  0  0  0  0  0  0  0  0
   45.6887  -20.3476   29.6007 C   0  0  0  0  0  0  0  0  0  0  0  0
   46.6510  -20.6159   30.5574 C   0  0  0  0  0  0  0  0  0  0  0  0
   46.3324  -21.3635   31.6656 C   0  0  0  0  0  0  0  0  0  0  0  0
   45.0432  -21.8225   31.8314 C   0  0  0  0  0  0  0  0  0  0  0  0
 37 36  1  0  0  0
 36 32  1  0  0  0
  7  4  1  0  0  0
 41 46  2  0  0  0
 41 42  1  0  0  0
 32 33  2  0  0  0
 32 31  1  0  0  0
 33 30  1  0  0  0
  3  4  1  0  0  0
  3  2  1  0  0  0
 46 45  1  0  0  0
 40 42  1  0  0  0
 40  1  1  0  0  0
  4  5  2  0  0  0
 31 28  1  0  0  0
 31 34  2  0  0  0
 28 22  1  0  0  0
 30 29  2  0  0  0
 42 43  2  0  0  0
 23  1  1  0  0  0
 23 24  1  0  0  0
  2  1  1  0  0  0
  2  6  2  0  0  0
 34 29  1  0  0  0
 29 35  1  0  0  0
 22 24  1  0  0  0
 45 44  2  0  0  0
  5  6  1  0  0  0
  5 13  1  0  0  0
 24 25  2  0  0  0
 43 44  1  0  0  0
 14 13  2  0  0  0
 14 10  1  0  0  0
 13 15  1  0  0  0
 16 10  1  0  0  0
 16 17  1  0  0  0
 10 11  2  0  0  0
 15  9  2  0  0  0
 17 12  2  0  0  0
 11  9  1  0  0  0
 11 12  1  0  0  0
 12 18  1  0  0  0
 22 26  1  0  0  0
 23 27  1  0  0  0
  3  8  1  0  0  0
 16 19  1  0  0  0
 18 20  1  0  0  0
 18 21  1  0  0  0
 37 38  1  0  0  0
 37 39  1  0  0  0
M  END
> <minimizedAffinity>
-10.28831

$$$$
4X6M_3Y3_A_301


 46 50  0  0  0  0  0  0  0  0999 V2000
   40.8086  -21.9359   28.6792 C   0  0  0  0  0  0  0  0  0  0  0  0
   39.7198  -21.0083   28.2430 C   0  0  0  0  0  0  0  0  0  0  0  0
   38.6365  -21.4240   27.4749 N   0  0  0  0  0  0  0  0  0  0  0  0
   37.9117  -20.2927   27.2186 C   0  0  0  0  0  0  0  0  0  0  0  0
   38.5610  -19.2591   27.8398 C   0  0  0  0  0  0  0  0  0  0  0  0
   39.6892  -19.7181   28.4826 N   0  0  0  0  0  0  0  0  0  0  0  0
   36.5005  -20.3401   26.2591 Cl  0  0  0  0  0  0  0  0  0  0  0  0
   38.4341  -22.3406   27.1781 H   0  0  0  0  0  0  0  0  0  0  0  0
   38.8510  -15.5637   27.2059 C   0  0  0  0  0  0  0  0  0  0  0  0
   36.8138  -15.9860   28.4206 C   0  0  0  0  0  0  0  0  0  0  0  0
   37.6737  -15.0778   27.7728 C   0  0  0  0  0  0  0  0  0  0  0  0
   36.9537  -13.8075   27.8344 C   0  0  0  0  0  0  0  0  0  0  0  0
   38.2693  -17.8142   27.8741 C   0  0  0  0  0  0  0  0  0  0  0  0
   37.1115  -17.3438   28.4923 C   0  0  0  0  0  0  0  0  0  0  0  0
   39.1354  -16.9155   27.2451 C   0  0  0  0  0  0  0  0  0  0  0  0
   35.7186  -15.2835   28.8166 N   0  0  0  0  0  0  0  0  0  0  0  0
   35.7873  -13.9598   28.4557 N   0  0  0  0  0  0  0  0  0  0  0  0
   37.3785  -12.6113   27.3961 N   0  0  0  0  0  0  0  0  0  0  0  0
   34.9618  -15.6790   29.3066 H   0  0  0  0  0  0  0  0  0  0  0  0
   36.8022  -11.8189   27.4917 H   0  0  0  0  0  0  0  0  0  0  0  0
   38.2663  -12.5268   26.9790 H   0  0  0  0  0  0  0  0  0  0  0  0
   39.7050  -25.3814   28.8035 N   0  0  0  0  0  0  0  0  0  0  0  0
   40.5062  -23.3030   28.2960 N   0  0  0  0  0  0  0  0  0  0  0  0
   39.9394  -24.1255   29.2185 C   0  0  0  0  0  0  0  0  0  0  0  0
   39.5924  -23.7317   30.3292 O   0  0  0  0  0  0  0  0  0  0  0  0
   38.8289  -25.7877   28.9949 H   0  0  0  0  0  0  0  0  0  0  0  0
   40.7071  -23.6275   27.3885 H   0  0  0  0  0  0  0  0  0  0  0  0
   40.6955  -26.1627   28.0829 C   0  0  0  0  0  0  0  0  0  0  0  0
   38.6197  -26.4186   24.9456 C   0  0  0  0  0  0  0  0  0  0  0  0
   39.5340  -26.8319   24.0043 C   0  0  0  0  0  0  0  0  0  0  0  0
   40.2867  -26.4623   26.6699 C   0  0  0  0  0  0  0  0  0  0  0  0
   41.2412  -26.8874   25.7203 C   0  0  0  0  0  0  0  0  0  0  0  0
   40.8462  -27.0558   24.3955 C   0  0  0  0  0  0  0  0  0  0  0  0
   38.9758  -26.2424   26.2609 C   0  0  0  0  0  0  0  0  0  0  0  0
   36.9878  -26.0518   24.4604 Cl  0  0  0  0  0  0  0  0  0  0  0  0
   42.6915  -27.1706   26.0662 C   0  0  0  0  0  0  0  0  0  0  0  0
   43.6005  -26.0268   25.8049 N   0  0  0  0  0  0  0  0  0  0  0  0
   43.3273  -25.2354   26.3876 H   0  0  0  0  0  0  0  0  0  0  0  0
   43.5399  -25.7620   24.8218 H   0  0  0  0  0  0  0  0  0  0  0  0
   42.1863  -21.4865   28.1613 C   0  0  0  0  0  0  0  0  0  0  0  0
   43.0298  -21.7930   30.5096 C   0  0  0  0  0  0  0  0  0  0  0  0
   43.1314  -21.1444   29.2894 C   0  0  0  0  0  0  0  0  0  0  0  0
   44.2348  -20.3265   29.0696 C   0  0  0  0  0  0  0  0  0  0  0  0
   45.2468  -20.2312   30.0077 C   0  0  0  0  0  0  0  0  0  0  0  0
   45.1583  -20.9250   31.1907 C   0  0  0  0  0  0  0  0  0  0  0  0
   44.0447  -21.6955   31.4482 C   0  0  0  0  0  0  0  0  0  0  0  0
 37 36  1  0  0  0
 36 32  1  0  0  0
  7  4  1  0  0  0
 41 46  2  0  0  0
 41 42  1  0  0  0
 32 33  2  0  0  0
 32 31  1  0  0  0
 33 30  1  0  0  0
  3  4  1  0  0  0
  3  2  1  0  0  0
 46 45  1  0  0  0
 40 42  1  0  0  0
 40  1  1  0  0  0
  4  5  2  0  0  0
 31 28  1  0  0  0
 31 34  2  0  0  0
 28 22  1  0  0  0
 30 29  2  0  0  0
 42 43  2  0  0  0
 23  1  1  0  0  0
 23 24  1  0  0  0
  2  1  1  0  0  0
  2  6  2  0  0  0
 34 29  1  0  0  0
 29 35  1  0  0  0
 22 24  1  0  0  0
 45 44  2  0  0  0
  5  6  1  0  0  0
  5 13  1  0  0  0
 24 25  2  0  0  0
 43 44  1  0  0  0
 14 13  2  0  0  0
 14 10  1  0  0  0
 13 15  1  0  0  0
 16 10  1  0  0  0
 16 17  1  0  0  0
 10 11  2  0  0  0
 15  9  2  0  0  0
 17 12  2  0  0  0
 11  9  1  0  0  0
 11 12  1  0  0  0
 12 18  1  0  0  0
 22 26  1  0  0  0
 23 27  1  0  0  0
  3  8  1  0  0  0
 16 19  1  0  0  0
 18 20  1  0  0  0
 18 21  1  0  0  0
 37 38  1  0  0  0
 37 39  1  0  0  0
M  END
> <minimizedAffinity>
-10.14862

$$$$
4X6M_3Y3_A_301


 46 50  0  0  0  0  0  0  0  0999 V2000
   38.9558  -19.4822   27.5329 C   0  0  0  0  0  0  0  0  0  0  0  0
   39.9154  -20.3741   28.2538 C   0  0  0  0  0  0  0  0  0  0  0  0
   39.5216  -21.5431   28.8977 N   0  0  0  0  0  0  0  0  0  0  0  0
   40.6505  -22.0317   29.4957 C   0  0  0  0  0  0  0  0  0  0  0  0
   41.6666  -21.1673   29.1862 C   0  0  0  0  0  0  0  0  0  0  0  0
   41.1973  -20.1353   28.4041 N   0  0  0  0  0  0  0  0  0  0  0  0
   40.6112  -23.4533   30.4403 Cl  0  0  0  0  0  0  0  0  0  0  0  0
   38.6192  -21.9362   28.9185 H   0  0  0  0  0  0  0  0  0  0  0  0
   45.3264  -20.3062   29.2666 C   0  0  0  0  0  0  0  0  0  0  0  0
   44.8343  -21.7793   31.1082 C   0  0  0  0  0  0  0  0  0  0  0  0
   45.7602  -20.9846   30.4046 C   0  0  0  0  0  0  0  0  0  0  0  0
   46.9763  -21.0648   31.2112 C   0  0  0  0  0  0  0  0  0  0  0  0
   43.0859  -21.1592   29.5857 C   0  0  0  0  0  0  0  0  0  0  0  0
   43.5089  -21.8869   30.6972 C   0  0  0  0  0  0  0  0  0  0  0  0
   44.0039  -20.3829   28.8730 C   0  0  0  0  0  0  0  0  0  0  0  0
   45.4789  -22.2668   32.2021 N   0  0  0  0  0  0  0  0  0  0  0  0
   46.7790  -21.8299   32.2813 N   0  0  0  0  0  0  0  0  0  0  0  0
   48.1703  -20.5149   30.9367 N   0  0  0  0  0  0  0  0  0  0  0  0
   45.0610  -22.8652   32.8628 H   0  0  0  0  0  0  0  0  0  0  0  0
   48.9233  -20.6371   31.5591 H   0  0  0  0  0  0  0  0  0  0  0  0
   48.2927  -19.9896   30.1131 H   0  0  0  0  0  0  0  0  0  0  0  0
   37.2590  -20.3980   24.4690 N   0  0  0  0  0  0  0  0  0  0  0  0
   38.2001  -20.2294   26.5439 N   0  0  0  0  0  0  0  0  0  0  0  0
   37.9817  -19.6605   25.3284 C   0  0  0  0  0  0  0  0  0  0  0  0
   38.4740  -18.5822   25.0061 O   0  0  0  0  0  0  0  0  0  0  0  0
   37.5748  -20.4889   23.5410 H   0  0  0  0  0  0  0  0  0  0  0  0
   37.8537  -21.1278   26.7486 H   0  0  0  0  0  0  0  0  0  0  0  0
   36.0290  -21.0666   24.8575 C   0  0  0  0  0  0  0  0  0  0  0  0
   36.9392  -24.7147   25.1408 C   0  0  0  0  0  0  0  0  0  0  0  0
   36.0354  -25.3236   24.3011 C   0  0  0  0  0  0  0  0  0  0  0  0
   36.0647  -22.5460   24.6057 C   0  0  0  0  0  0  0  0  0  0  0  0
   35.1289  -23.1502   23.7381 C   0  0  0  0  0  0  0  0  0  0  0  0
   35.1259  -24.5369   23.6091 C   0  0  0  0  0  0  0  0  0  0  0  0
   36.9693  -23.3493   25.2916 C   0  0  0  0  0  0  0  0  0  0  0  0
   38.0342  -25.6885   26.0819 Cl  0  0  0  0  0  0  0  0  0  0  0  0
   34.1115  -22.3638   22.9320 C   0  0  0  0  0  0  0  0  0  0  0  0
   33.0181  -23.1991   22.3756 N   0  0  0  0  0  0  0  0  0  0  0  0
   32.4942  -23.6262   23.1395 H   0  0  0  0  0  0  0  0  0  0  0  0
   33.4152  -23.9299   21.7852 H   0  0  0  0  0  0  0  0  0  0  0  0
   38.0349  -18.7251   28.5061 C   0  0  0  0  0  0  0  0  0  0  0  0
   39.1616  -16.6785   27.5775 C   0  0  0  0  0  0  0  0  0  0  0  0
   38.1406  -17.2274   28.3365 C   0  0  0  0  0  0  0  0  0  0  0  0
   37.1173  -16.3889   28.7662 C   0  0  0  0  0  0  0  0  0  0  0  0
   37.0731  -15.0632   28.3742 C   0  0  0  0  0  0  0  0  0  0  0  0
   38.0644  -14.5469   27.5745 C   0  0  0  0  0  0  0  0  0  0  0  0
   39.1155  -15.3499   27.1865 C   0  0  0  0  0  0  0  0  0  0  0  0
 37 36  1  0  0  0
 36 32  1  0  0  0
  7  4  1  0  0  0
 41 46  2  0  0  0
 41 42  1  0  0  0
 32 33  2  0  0  0
 32 31  1  0  0  0
 33 30  1  0  0  0
  3  4  1  0  0  0
  3  2  1  0  0  0
 46 45  1  0  0  0
 40 42  1  0  0  0
 40  1  1  0  0  0
  4  5  2  0  0  0
 31 28  1  0  0  0
 31 34  2  0  0  0
 28 22  1  0  0  0
 30 29  2  0  0  0
 42 43  2  0  0  0
 23  1  1  0  0  0
 23 24  1  0  0  0
  2  1  1  0  0  0
  2  6  2  0  0  0
 34 29  1  0  0  0
 29 35  1  0  0  0
 22 24  1  0  0  0
 45 44  2  0  0  0
  5  6  1  0  0  0
  5 13  1  0  0  0
 24 25  2  0  0  0
 43 44  1  0  0  0
 14 13  2  0  0  0
 14 10  1  0  0  0
 13 15  1  0  0  0
 16 10  1  0  0  0
 16 17  1  0  0  0
 10 11  2  0  0  0
 15  9  2  0  0  0
 17 12  2  0  0  0
 11  9  1  0  0  0
 11 12  1  0  0  0
 12 18  1  0  0  0
 22 26  1  0  0  0
 23 27  1  0  0  0
  3  8  1  0  0  0
 16 19  1  0  0  0
 18 20  1  0  0  0
 18 21  1  0  0  0
 37 38  1  0  0  0
 37 39  1  0  0  0
M  END
> <minimizedAffinity>
-10.02648

$$$$
4X6M_3Y3_A_301


 46 50  0  0  0  0  0  0  0  0999 V2000
   41.5915  -20.8820   28.6624 C   0  0  0  0  0  0  0  0  0  0  0  0
   40.8247  -19.8311   27.9250 C   0  0  0  0  0  0  0  0  0  0  0  0
   41.1367  -19.4403   26.6265 N   0  0  0  0  0  0  0  0  0  0  0  0
   40.2741  -18.4203   26.3322 C   0  0  0  0  0  0  0  0  0  0  0  0
   39.4797  -18.2452   27.4339 C   0  0  0  0  0  0  0  0  0  0  0  0
   39.8289  -19.1365   28.4240 N   0  0  0  0  0  0  0  0  0  0  0  0
   40.3368  -17.6091   24.8313 Cl  0  0  0  0  0  0  0  0  0  0  0  0
   41.8326  -19.8187   26.0420 H   0  0  0  0  0  0  0  0  0  0  0  0
   36.4554  -16.6402   28.9893 C   0  0  0  0  0  0  0  0  0  0  0  0
   37.4246  -15.1022   27.4086 C   0  0  0  0  0  0  0  0  0  0  0  0
   36.4482  -15.3846   28.3836 C   0  0  0  0  0  0  0  0  0  0  0  0
   35.7179  -14.1265   28.5241 C   0  0  0  0  0  0  0  0  0  0  0  0
   38.4084  -17.2703   27.7094 C   0  0  0  0  0  0  0  0  0  0  0  0
   38.3900  -16.0400   27.0538 C   0  0  0  0  0  0  0  0  0  0  0  0
   37.4315  -17.5632   28.6651 C   0  0  0  0  0  0  0  0  0  0  0  0
   37.2478  -13.8072   27.0321 N   0  0  0  0  0  0  0  0  0  0  0  0
   36.2199  -13.2003   27.7119 N   0  0  0  0  0  0  0  0  0  0  0  0
   34.6488  -13.8908   29.3019 N   0  0  0  0  0  0  0  0  0  0  0  0
   37.7949  -13.3557   26.3493 H   0  0  0  0  0  0  0  0  0  0  0  0
   34.2372  -12.9965   29.3151 H   0  0  0  0  0  0  0  0  0  0  0  0
   34.2767  -14.6122   29.8589 H   0  0  0  0  0  0  0  0  0  0  0  0
   39.9488  -24.0746   29.1243 N   0  0  0  0  0  0  0  0  0  0  0  0
   41.0386  -22.1995   28.4063 N   0  0  0  0  0  0  0  0  0  0  0  0
   40.4192  -22.8529   29.4252 C   0  0  0  0  0  0  0  0  0  0  0  0
   40.2313  -22.3355   30.5235 O   0  0  0  0  0  0  0  0  0  0  0  0
   39.0358  -24.3131   29.4051 H   0  0  0  0  0  0  0  0  0  0  0  0
   41.1104  -22.6108   27.5147 H   0  0  0  0  0  0  0  0  0  0  0  0
   40.7366  -25.0574   28.4002 C   0  0  0  0  0  0  0  0  0  0  0  0
   38.2499  -25.3870   25.5851 C   0  0  0  0  0  0  0  0  0  0  0  0
   38.8477  -26.3045   24.7521 C   0  0  0  0  0  0  0  0  0  0  0  0
   40.0555  -25.5489   27.1561 C   0  0  0  0  0  0  0  0  0  0  0  0
   40.6862  -26.4927   26.3163 C   0  0  0  0  0  0  0  0  0  0  0  0
   40.0709  -26.8473   25.1183 C   0  0  0  0  0  0  0  0  0  0  0  0
   38.8296  -25.0147   26.7738 C   0  0  0  0  0  0  0  0  0  0  0  0
   36.7559  -24.6314   25.1056 Cl  0  0  0  0  0  0  0  0  0  0  0  0
   42.0147  -27.1468   26.6485 C   0  0  0  0  0  0  0  0  0  0  0  0
   42.9395  -27.2385   25.4913 N   0  0  0  0  0  0  0  0  0  0  0  0
   43.1682  -26.3000   25.1637 H   0  0  0  0  0  0  0  0  0  0  0  0
   42.4916  -27.7615   24.7388 H   0  0  0  0  0  0  0  0  0  0  0  0
   43.0966  -20.8206   28.3473 C   0  0  0  0  0  0  0  0  0  0  0  0
   43.6770  -21.7228   30.6210 C   0  0  0  0  0  0  0  0  0  0  0  0
   43.9383  -20.8209   29.6021 C   0  0  0  0  0  0  0  0  0  0  0  0
   45.1014  -20.0618   29.6786 C   0  0  0  0  0  0  0  0  0  0  0  0
   46.0155  -20.2629   30.6970 C   0  0  0  0  0  0  0  0  0  0  0  0
   45.7686  -21.2012   31.6702 C   0  0  0  0  0  0  0  0  0  0  0  0
   44.5940  -21.9222   31.6406 C   0  0  0  0  0  0  0  0  0  0  0  0
 37 36  1  0  0  0
 36 32  1  0  0  0
  7  4  1  0  0  0
 41 46  2  0  0  0
 41 42  1  0  0  0
 32 33  2  0  0  0
 32 31  1  0  0  0
 33 30  1  0  0  0
  3  4  1  0  0  0
  3  2  1  0  0  0
 46 45  1  0  0  0
 40 42  1  0  0  0
 40  1  1  0  0  0
  4  5  2  0  0  0
 31 28  1  0  0  0
 31 34  2  0  0  0
 28 22  1  0  0  0
 30 29  2  0  0  0
 42 43  2  0  0  0
 23  1  1  0  0  0
 23 24  1  0  0  0
  2  1  1  0  0  0
  2  6  2  0  0  0
 34 29  1  0  0  0
 29 35  1  0  0  0
 22 24  1  0  0  0
 45 44  2  0  0  0
  5  6  1  0  0  0
  5 13  1  0  0  0
 24 25  2  0  0  0
 43 44  1  0  0  0
 14 13  2  0  0  0
 14 10  1  0  0  0
 13 15  1  0  0  0
 16 10  1  0  0  0
 16 17  1  0  0  0
 10 11  2  0  0  0
 15  9  2  0  0  0
 17 12  2  0  0  0
 11  9  1  0  0  0
 11 12  1  0  0  0
 12 18  1  0  0  0
 22 26  1  0  0  0
 23 27  1  0  0  0
  3  8  1  0  0  0
 16 19  1  0  0  0
 18 20  1  0  0  0
 18 21  1  0  0  0
 37 38  1  0  0  0
 37 39  1  0  0  0
M  END
> <minimizedAffinity>
-9.79454

$$$$
4X6M_3Y3_A_301


 46 50  0  0  0  0  0  0  0  0999 V2000
   38.1733  -22.2859   25.5829 C   0  0  0  0  0  0  0  0  0  0  0  0
   38.5338  -21.1263   26.4556 C   0  0  0  0  0  0  0  0  0  0  0  0
   39.3186  -21.2559   27.5972 N   0  0  0  0  0  0  0  0  0  0  0  0
   39.3598  -20.0093   28.1586 C   0  0  0  0  0  0  0  0  0  0  0  0
   38.6266  -19.1862   27.3458 C   0  0  0  0  0  0  0  0  0  0  0  0
   38.1176  -19.8939   26.2796 N   0  0  0  0  0  0  0  0  0  0  0  0
   40.1941  -19.7201   29.6197 Cl  0  0  0  0  0  0  0  0  0  0  0  0
   39.7533  -22.0737   27.9310 H   0  0  0  0  0  0  0  0  0  0  0  0
   38.7182  -15.4604   26.8438 C   0  0  0  0  0  0  0  0  0  0  0  0
   36.8261  -16.0113   28.2296 C   0  0  0  0  0  0  0  0  0  0  0  0
   37.5850  -15.0447   27.5412 C   0  0  0  0  0  0  0  0  0  0  0  0
   36.8285  -13.8079   27.7254 C   0  0  0  0  0  0  0  0  0  0  0  0
   38.2871  -17.7567   27.4690 C   0  0  0  0  0  0  0  0  0  0  0  0
   37.1788  -17.3576   28.2149 C   0  0  0  0  0  0  0  0  0  0  0  0
   39.0543  -16.8001   26.7983 C   0  0  0  0  0  0  0  0  0  0  0  0
   35.7498  -15.3694   28.7583 N   0  0  0  0  0  0  0  0  0  0  0  0
   35.7347  -14.0310   28.4487 N   0  0  0  0  0  0  0  0  0  0  0  0
   37.1646  -12.5795   27.2992 N   0  0  0  0  0  0  0  0  0  0  0  0
   35.0595  -15.8138   29.3016 H   0  0  0  0  0  0  0  0  0  0  0  0
   36.5718  -11.8153   27.4832 H   0  0  0  0  0  0  0  0  0  0  0  0
   38.0037  -12.4432   26.8028 H   0  0  0  0  0  0  0  0  0  0  0  0
   40.4970  -25.0462   25.8766 N   0  0  0  0  0  0  0  0  0  0  0  0
   38.8238  -23.4996   26.0425 N   0  0  0  0  0  0  0  0  0  0  0  0
   39.9589  -23.9057   25.4138 C   0  0  0  0  0  0  0  0  0  0  0  0
   40.5016  -23.2396   24.5357 O   0  0  0  0  0  0  0  0  0  0  0  0
   41.4664  -25.0783   26.0452 H   0  0  0  0  0  0  0  0  0  0  0  0
   38.4514  -24.0170   26.7928 H   0  0  0  0  0  0  0  0  0  0  0  0
   39.7023  -26.2342   26.1376 C   0  0  0  0  0  0  0  0  0  0  0  0
   36.8280  -26.9909   23.8175 C   0  0  0  0  0  0  0  0  0  0  0  0
   37.4612  -27.3668   22.6553 C   0  0  0  0  0  0  0  0  0  0  0  0
   38.9293  -26.6944   24.9360 C   0  0  0  0  0  0  0  0  0  0  0  0
   39.5994  -27.0779   23.7539 C   0  0  0  0  0  0  0  0  0  0  0  0
   38.8479  -27.3995   22.6263 C   0  0  0  0  0  0  0  0  0  0  0  0
   37.5388  -26.6671   24.9478 C   0  0  0  0  0  0  0  0  0  0  0  0
   35.0915  -26.8628   23.8513 Cl  0  0  0  0  0  0  0  0  0  0  0  0
   41.1108  -27.1563   23.6411 C   0  0  0  0  0  0  0  0  0  0  0  0
   41.7326  -25.9223   23.0993 N   0  0  0  0  0  0  0  0  0  0  0  0
   41.5429  -25.1418   23.7280 H   0  0  0  0  0  0  0  0  0  0  0  0
   41.3417  -25.7204   22.1791 H   0  0  0  0  0  0  0  0  0  0  0  0
   36.6491  -22.4620   25.4641 C   0  0  0  0  0  0  0  0  0  0  0  0
   37.1737  -23.2099   23.1220 C   0  0  0  0  0  0  0  0  0  0  0  0
   36.2286  -22.8233   24.0585 C   0  0  0  0  0  0  0  0  0  0  0  0
   34.8839  -22.9663   23.7329 C   0  0  0  0  0  0  0  0  0  0  0  0
   34.4998  -23.5588   22.5435 C   0  0  0  0  0  0  0  0  0  0  0  0
   35.4501  -23.9884   21.6485 C   0  0  0  0  0  0  0  0  0  0  0  0
   36.7866  -23.8027   21.9307 C   0  0  0  0  0  0  0  0  0  0  0  0
 37 36  1  0  0  0
 36 32  1  0  0  0
  7  4  1  0  0  0
 41 46  2  0  0  0
 41 42  1  0  0  0
 32 33  2  0  0  0
 32 31  1  0  0  0
 33 30  1  0  0  0
  3  4  1  0  0  0
  3  2  1  0  0  0
 46 45  1  0  0  0
 40 42  1  0  0  0
 40  1  1  0  0  0
  4  5  2  0  0  0
 31 28  1  0  0  0
 31 34  2  0  0  0
 28 22  1  0  0  0
 30 29  2  0  0  0
 42 43  2  0  0  0
 23  1  1  0  0  0
 23 24  1  0  0  0
  2  1  1  0  0  0
  2  6  2  0  0  0
 34 29  1  0  0  0
 29 35  1  0  0  0
 22 24  1  0  0  0
 45 44  2  0  0  0
  5  6  1  0  0  0
  5 13  1  0  0  0
 24 25  2  0  0  0
 43 44  1  0  0  0
 14 13  2  0  0  0
 14 10  1  0  0  0
 13 15  1  0  0  0
 16 10  1  0  0  0
 16 17  1  0  0  0
 10 11  2  0  0  0
 15  9  2  0  0  0
 17 12  2  0  0  0
 11  9  1  0  0  0
 11 12  1  0  0  0
 12 18  1  0  0  0
 22 26  1  0  0  0
 23 27  1  0  0  0
  3  8  1  0  0  0
 16 19  1  0  0  0
 18 20  1  0  0  0
 18 21  1  0  0  0
 37 38  1  0  0  0
 37 39  1  0  0  0
M  END
> <minimizedAffinity>
-9.64985

$$$$
4X6M_3Y3_A_301


 46 50  0  0  0  0  0  0  0  0999 V2000
   40.4080  -20.3224   28.5088 C   0  0  0  0  0  0  0  0  0  0  0  0
   41.5922  -20.2994   27.5958 C   0  0  0  0  0  0  0  0  0  0  0  0
   41.4805  -20.1381   26.2183 N   0  0  0  0  0  0  0  0  0  0  0  0
   42.7537  -20.2477   25.7308 C   0  0  0  0  0  0  0  0  0  0  0  0
   43.5728  -20.4521   26.8092 C   0  0  0  0  0  0  0  0  0  0  0  0
   42.8367  -20.4781   27.9729 N   0  0  0  0  0  0  0  0  0  0  0  0
   43.0754  -20.1514   24.0569 Cl  0  0  0  0  0  0  0  0  0  0  0  0
   40.6572  -19.9785   25.7025 H   0  0  0  0  0  0  0  0  0  0  0  0
   46.8677  -22.1558   27.4277 C   0  0  0  0  0  0  0  0  0  0  0  0
   47.2812  -20.0090   26.4158 C   0  0  0  0  0  0  0  0  0  0  0  0
   47.7750  -21.2304   26.9140 C   0  0  0  0  0  0  0  0  0  0  0  0
   49.2082  -21.1700   26.6344 C   0  0  0  0  0  0  0  0  0  0  0  0
   45.0270  -20.6821   26.8901 C   0  0  0  0  0  0  0  0  0  0  0  0
   45.9195  -19.7206   26.4180 C   0  0  0  0  0  0  0  0  0  0  0  0
   45.5121  -21.8888   27.4020 C   0  0  0  0  0  0  0  0  0  0  0  0
   48.3443  -19.3252   25.9136 N   0  0  0  0  0  0  0  0  0  0  0  0
   49.5199  -20.0263   26.0308 N   0  0  0  0  0  0  0  0  0  0  0  0
   50.1389  -22.0800   26.9646 N   0  0  0  0  0  0  0  0  0  0  0  0
   48.2787  -18.4290   25.5115 H   0  0  0  0  0  0  0  0  0  0  0  0
   51.0813  -21.9308   26.7218 H   0  0  0  0  0  0  0  0  0  0  0  0
   49.8789  -22.8964   27.4496 H   0  0  0  0  0  0  0  0  0  0  0  0
   38.5676  -17.3042   29.2884 N   0  0  0  0  0  0  0  0  0  0  0  0
   39.6245  -19.1084   28.3683 N   0  0  0  0  0  0  0  0  0  0  0  0
   39.3107  -18.4051   29.4888 C   0  0  0  0  0  0  0  0  0  0  0  0
   39.7395  -18.7074   30.5996 O   0  0  0  0  0  0  0  0  0  0  0  0
   38.8303  -16.4674   29.7358 H   0  0  0  0  0  0  0  0  0  0  0  0
   39.3269  -18.8013   27.4815 H   0  0  0  0  0  0  0  0  0  0  0  0
   37.3907  -17.3017   28.4364 C   0  0  0  0  0  0  0  0  0  0  0  0
   35.0611  -14.4017   29.0533 C   0  0  0  0  0  0  0  0  0  0  0  0
   35.6281  -13.3888   28.3147 C   0  0  0  0  0  0  0  0  0  0  0  0
   36.7472  -15.9493   28.3347 C   0  0  0  0  0  0  0  0  0  0  0  0
   37.3451  -14.9246   27.5692 C   0  0  0  0  0  0  0  0  0  0  0  0
   36.7760  -13.6536   27.5816 C   0  0  0  0  0  0  0  0  0  0  0  0
   35.5969  -15.6668   29.0636 C   0  0  0  0  0  0  0  0  0  0  0  0
   33.6690  -14.0705   30.0458 Cl  0  0  0  0  0  0  0  0  0  0  0  0
   38.5903  -15.1325   26.7269 C   0  0  0  0  0  0  0  0  0  0  0  0
   38.3055  -15.3535   25.2871 N   0  0  0  0  0  0  0  0  0  0  0  0
   37.8457  -14.5290   24.9010 H   0  0  0  0  0  0  0  0  0  0  0  0
   37.6951  -16.1639   25.1817 H   0  0  0  0  0  0  0  0  0  0  0  0
   39.5513  -21.5845   28.3049 C   0  0  0  0  0  0  0  0  0  0  0  0
   40.7418  -23.0669   29.9498 C   0  0  0  0  0  0  0  0  0  0  0  0
   40.3085  -22.8451   28.6526 C   0  0  0  0  0  0  0  0  0  0  0  0
   40.4129  -23.8873   27.7374 C   0  0  0  0  0  0  0  0  0  0  0  0
   40.8550  -25.1373   28.1314 C   0  0  0  0  0  0  0  0  0  0  0  0
   41.2286  -25.3574   29.4354 C   0  0  0  0  0  0  0  0  0  0  0  0
   41.1849  -24.3199   30.3421 C   0  0  0  0  0  0  0  0  0  0  0  0
 37 36  1  0  0  0
 36 32  1  0  0  0
  7  4  1  0  0  0
 41 46  2  0  0  0
 41 42  1  0  0  0
 32 33  2  0  0  0
 32 31  1  0  0  0
 33 30  1  0  0  0
  3  4  1  0  0  0
  3  2  1  0  0  0
 46 45  1  0  0  0
 40 42  1  0  0  0
 40  1  1  0  0  0
  4  5  2  0  0  0
 31 28  1  0  0  0
 31 34  2  0  0  0
 28 22  1  0  0  0
 30 29  2  0  0  0
 42 43  2  0  0  0
 23  1  1  0  0  0
 23 24  1  0  0  0
  2  1  1  0  0  0
  2  6  2  0  0  0
 34 29  1  0  0  0
 29 35  1  0  0  0
 22 24  1  0  0  0
 45 44  2  0  0  0
  5  6  1  0  0  0
  5 13  1  0  0  0
 24 25  2  0  0  0
 43 44  1  0  0  0
 14 13  2  0  0  0
 14 10  1  0  0  0
 13 15  1  0  0  0
 16 10  1  0  0  0
 16 17  1  0  0  0
 10 11  2  0  0  0
 15  9  2  0  0  0
 17 12  2  0  0  0
 11  9  1  0  0  0
 11 12  1  0  0  0
 12 18  1  0  0  0
 22 26  1  0  0  0
 23 27  1  0  0  0
  3  8  1  0  0  0
 16 19  1  0  0  0
 18 20  1  0  0  0
 18 21  1  0  0  0
 37 38  1  0  0  0
 37 39  1  0  0  0
M  END
> <minimizedAffinity>
-9.62937

$$$$
4X6M_3Y3_A_301


 46 50  0  0  0  0  0  0  0  0999 V2000
   37.5932  -22.3016   25.6477 C   0  0  0  0  0  0  0  0  0  0  0  0
   37.9446  -21.1031   26.4701 C   0  0  0  0  0  0  0  0  0  0  0  0
   38.9369  -21.1212   27.4453 N   0  0  0  0  0  0  0  0  0  0  0  0
   38.9081  -19.8814   28.0224 C   0  0  0  0  0  0  0  0  0  0  0  0
   37.9308  -19.1696   27.3792 C   0  0  0  0  0  0  0  0  0  0  0  0
   37.3366  -19.9415   26.4056 N   0  0  0  0  0  0  0  0  0  0  0  0
   39.9497  -19.4781   29.3135 Cl  0  0  0  0  0  0  0  0  0  0  0  0
   39.5347  -21.8698   27.6724 H   0  0  0  0  0  0  0  0  0  0  0  0
   36.3373  -16.2012   29.0498 C   0  0  0  0  0  0  0  0  0  0  0  0
   37.2436  -15.5051   26.9290 C   0  0  0  0  0  0  0  0  0  0  0  0
   36.5907  -15.1809   28.1342 C   0  0  0  0  0  0  0  0  0  0  0  0
   36.4442  -13.7280   28.0744 C   0  0  0  0  0  0  0  0  0  0  0  0
   37.4254  -17.8021   27.5999 C   0  0  0  0  0  0  0  0  0  0  0  0
   37.6443  -16.8080   26.6472 C   0  0  0  0  0  0  0  0  0  0  0  0
   36.7623  -17.4902   28.7900 C   0  0  0  0  0  0  0  0  0  0  0  0
   37.4343  -14.3399   26.2539 N   0  0  0  0  0  0  0  0  0  0  0  0
   36.9622  -13.2510   26.9459 N   0  0  0  0  0  0  0  0  0  0  0  0
   35.8337  -12.9361   28.9708 N   0  0  0  0  0  0  0  0  0  0  0  0
   37.8623  -14.2831   25.3692 H   0  0  0  0  0  0  0  0  0  0  0  0
   35.7967  -11.9633   28.8237 H   0  0  0  0  0  0  0  0  0  0  0  0
   35.4230  -13.3282   29.7751 H   0  0  0  0  0  0  0  0  0  0  0  0
   39.8919  -25.0841   25.3673 N   0  0  0  0  0  0  0  0  0  0  0  0
   38.4457  -23.4271   25.9853 N   0  0  0  0  0  0  0  0  0  0  0  0
   39.1390  -24.0383   24.9880 C   0  0  0  0  0  0  0  0  0  0  0  0
   39.1414  -23.6196   23.8331 O   0  0  0  0  0  0  0  0  0  0  0  0
   40.8178  -25.1453   25.0383 H   0  0  0  0  0  0  0  0  0  0  0  0
   38.5203  -23.7408   26.9155 H   0  0  0  0  0  0  0  0  0  0  0  0
   39.3914  -26.1284   26.2447 C   0  0  0  0  0  0  0  0  0  0  0  0
   42.3081  -28.0274   27.6952 C   0  0  0  0  0  0  0  0  0  0  0  0
   42.4811  -27.4339   28.9244 C   0  0  0  0  0  0  0  0  0  0  0  0
   40.4256  -26.6201   27.2151 C   0  0  0  0  0  0  0  0  0  0  0  0
   40.5849  -25.9979   28.4725 C   0  0  0  0  0  0  0  0  0  0  0  0
   41.6221  -26.4128   29.3041 C   0  0  0  0  0  0  0  0  0  0  0  0
   41.2955  -27.6421   26.8502 C   0  0  0  0  0  0  0  0  0  0  0  0
   43.4253  -29.2532   27.1641 Cl  0  0  0  0  0  0  0  0  0  0  0  0
   39.6806  -24.8863   28.9724 C   0  0  0  0  0  0  0  0  0  0  0  0
   40.1673  -23.5253   28.6351 N   0  0  0  0  0  0  0  0  0  0  0  0
   40.2018  -23.4181   27.6213 H   0  0  0  0  0  0  0  0  0  0  0  0
   41.1013  -23.3924   29.0230 H   0  0  0  0  0  0  0  0  0  0  0  0
   36.1006  -22.6582   25.7626 C   0  0  0  0  0  0  0  0  0  0  0  0
   35.2360  -24.5437   24.3422 C   0  0  0  0  0  0  0  0  0  0  0  0
   35.5460  -23.1989   24.4653 C   0  0  0  0  0  0  0  0  0  0  0  0
   35.1528  -22.3377   23.4461 C   0  0  0  0  0  0  0  0  0  0  0  0
   34.3973  -22.7950   22.3815 C   0  0  0  0  0  0  0  0  0  0  0  0
   34.0498  -24.1222   22.3019 C   0  0  0  0  0  0  0  0  0  0  0  0
   34.4795  -24.9995   23.2744 C   0  0  0  0  0  0  0  0  0  0  0  0
 37 36  1  0  0  0
 36 32  1  0  0  0
  7  4  1  0  0  0
 41 46  2  0  0  0
 41 42  1  0  0  0
 32 33  2  0  0  0
 32 31  1  0  0  0
 33 30  1  0  0  0
  3  4  1  0  0  0
  3  2  1  0  0  0
 46 45  1  0  0  0
 40 42  1  0  0  0
 40  1  1  0  0  0
  4  5  2  0  0  0
 31 28  1  0  0  0
 31 34  2  0  0  0
 28 22  1  0  0  0
 30 29  2  0  0  0
 42 43  2  0  0  0
 23  1  1  0  0  0
 23 24  1  0  0  0
  2  1  1  0  0  0
  2  6  2  0  0  0
 34 29  1  0  0  0
 29 35  1  0  0  0
 22 24  1  0  0  0
 45 44  2  0  0  0
  5  6  1  0  0  0
  5 13  1  0  0  0
 24 25  2  0  0  0
 43 44  1  0  0  0
 14 13  2  0  0  0
 14 10  1  0  0  0
 13 15  1  0  0  0
 16 10  1  0  0  0
 16 17  1  0  0  0
 10 11  2  0  0  0
 15  9  2  0  0  0
 17 12  2  0  0  0
 11  9  1  0  0  0
 11 12  1  0  0  0
 12 18  1  0  0  0
 22 26  1  0  0  0
 23 27  1  0  0  0
  3  8  1  0  0  0
 16 19  1  0  0  0
 18 20  1  0  0  0
 18 21  1  0  0  0
 37 38  1  0  0  0
 37 39  1  0  0  0
M  END
> <minimizedAffinity>
-9.53509

$$$$
4X6M_3Y3_A_301


 46 50  0  0  0  0  0  0  0  0999 V2000
   40.8171  -22.0314   27.4454 C   0  0  0  0  0  0  0  0  0  0  0  0
   40.4870  -20.6604   26.9480 C   0  0  0  0  0  0  0  0  0  0  0  0
   41.0320  -20.1281   25.7837 N   0  0  0  0  0  0  0  0  0  0  0  0
   40.5574  -18.8475   25.7075 C   0  0  0  0  0  0  0  0  0  0  0  0
   39.7487  -18.6610   26.7969 C   0  0  0  0  0  0  0  0  0  0  0  0
   39.7071  -19.8035   27.5650 N   0  0  0  0  0  0  0  0  0  0  0  0
   41.0156  -17.8045   24.4360 Cl  0  0  0  0  0  0  0  0  0  0  0  0
   41.6334  -20.5788   25.1478 H   0  0  0  0  0  0  0  0  0  0  0  0
   38.7227  -15.0723   27.2551 C   0  0  0  0  0  0  0  0  0  0  0  0
   37.1151  -16.4868   28.3589 C   0  0  0  0  0  0  0  0  0  0  0  0
   37.5362  -15.1984   27.9759 C   0  0  0  0  0  0  0  0  0  0  0  0
   36.4534  -14.3266   28.4269 C   0  0  0  0  0  0  0  0  0  0  0  0
   39.0056  -17.4742   27.2588 C   0  0  0  0  0  0  0  0  0  0  0  0
   37.8491  -17.6209   28.0235 C   0  0  0  0  0  0  0  0  0  0  0  0
   39.4381  -16.1971   26.8908 C   0  0  0  0  0  0  0  0  0  0  0  0
   35.9117  -16.3448   28.9767 N   0  0  0  0  0  0  0  0  0  0  0  0
   35.4939  -15.0366   29.0139 N   0  0  0  0  0  0  0  0  0  0  0  0
   36.4003  -12.9874   28.3416 N   0  0  0  0  0  0  0  0  0  0  0  0
   35.3981  -17.0949   29.3546 H   0  0  0  0  0  0  0  0  0  0  0  0
   35.6134  -12.5033   28.6817 H   0  0  0  0  0  0  0  0  0  0  0  0
   37.1483  -12.4898   27.9390 H   0  0  0  0  0  0  0  0  0  0  0  0
   38.8117  -25.0200   27.0558 N   0  0  0  0  0  0  0  0  0  0  0  0
   39.8914  -23.0121   26.9081 N   0  0  0  0  0  0  0  0  0  0  0  0
   39.6630  -24.1476   27.6203 C   0  0  0  0  0  0  0  0  0  0  0  0
   40.1384  -24.3326   28.7379 O   0  0  0  0  0  0  0  0  0  0  0  0
   38.1018  -25.4160   27.6112 H   0  0  0  0  0  0  0  0  0  0  0  0
   39.4390  -22.8584   26.0473 H   0  0  0  0  0  0  0  0  0  0  0  0
   38.8990  -25.4011   25.6565 C   0  0  0  0  0  0  0  0  0  0  0  0
   35.7017  -26.9979   24.4545 C   0  0  0  0  0  0  0  0  0  0  0  0
   34.9733  -25.9233   23.9988 C   0  0  0  0  0  0  0  0  0  0  0  0
   37.5534  -25.5799   25.0157 C   0  0  0  0  0  0  0  0  0  0  0  0
   36.8236  -24.4633   24.5528 C   0  0  0  0  0  0  0  0  0  0  0  0
   35.5358  -24.6565   24.0591 C   0  0  0  0  0  0  0  0  0  0  0  0
   36.9745  -26.8427   24.9480 C   0  0  0  0  0  0  0  0  0  0  0  0
   34.9838  -28.5845   24.4652 Cl  0  0  0  0  0  0  0  0  0  0  0  0
   37.3694  -23.0473   24.5672 C   0  0  0  0  0  0  0  0  0  0  0  0
   37.0920  -22.3147   25.8279 N   0  0  0  0  0  0  0  0  0  0  0  0
   37.5458  -22.7933   26.6061 H   0  0  0  0  0  0  0  0  0  0  0  0
   36.0852  -22.2835   25.9886 H   0  0  0  0  0  0  0  0  0  0  0  0
   42.2815  -22.4081   27.1589 C   0  0  0  0  0  0  0  0  0  0  0  0
   44.1858  -20.9846   27.9760 C   0  0  0  0  0  0  0  0  0  0  0  0
   43.2125  -21.9320   28.2496 C   0  0  0  0  0  0  0  0  0  0  0  0
   42.9889  -22.2801   29.5777 C   0  0  0  0  0  0  0  0  0  0  0  0
   43.6571  -21.6360   30.6032 C   0  0  0  0  0  0  0  0  0  0  0  0
   44.5799  -20.6582   30.3182 C   0  0  0  0  0  0  0  0  0  0  0  0
   44.8544  -20.3410   29.0051 C   0  0  0  0  0  0  0  0  0  0  0  0
 37 36  1  0  0  0
 36 32  1  0  0  0
  7  4  1  0  0  0
 41 46  2  0  0  0
 41 42  1  0  0  0
 32 33  2  0  0  0
 32 31  1  0  0  0
 33 30  1  0  0  0
  3  4  1  0  0  0
  3  2  1  0  0  0
 46 45  1  0  0  0
 40 42  1  0  0  0
 40  1  1  0  0  0
  4  5  2  0  0  0
 31 28  1  0  0  0
 31 34  2  0  0  0
 28 22  1  0  0  0
 30 29  2  0  0  0
 42 43  2  0  0  0
 23  1  1  0  0  0
 23 24  1  0  0  0
  2  1  1  0  0  0
  2  6  2  0  0  0
 34 29  1  0  0  0
 29 35  1  0  0  0
 22 24  1  0  0  0
 45 44  2  0  0  0
  5  6  1  0  0  0
  5 13  1  0  0  0
 24 25  2  0  0  0
 43 44  1  0  0  0
 14 13  2  0  0  0
 14 10  1  0  0  0
 13 15  1  0  0  0
 16 10  1  0  0  0
 16 17  1  0  0  0
 10 11  2  0  0  0
 15  9  2  0  0  0
 17 12  2  0  0  0
 11  9  1  0  0  0
 11 12  1  0  0  0
 12 18  1  0  0  0
 22 26  1  0  0  0
 23 27  1  0  0  0
  3  8  1  0  0  0
 16 19  1  0  0  0
 18 20  1  0  0  0
 18 21  1  0  0  0
 37 38  1  0  0  0
 37 39  1  0  0  0
M  END
> <minimizedAffinity>
-9.31249

$$$$
