3CFT_5NS_A_1


 18 19  0  0  0  0  0  0  0  0999 V2000
  -20.9683   -1.2413  -27.1888 C   0  0  0  0  0  0  0  0  0  0  0  0
  -21.6182   -0.3218  -28.0119 C   0  0  0  0  0  0  0  0  0  0  0  0
  -22.2227    0.7981  -27.4464 C   0  0  0  0  0  0  0  0  0  0  0  0
  -22.1770    1.0083  -26.0598 C   0  0  0  0  0  0  0  0  0  0  0  0
  -21.5184    0.0789  -25.2255 C   0  0  0  0  0  0  0  0  0  0  0  0
  -20.9033   -1.0532  -25.7999 C   0  0  0  0  0  0  0  0  0  0  0  0
  -22.0923    1.4469  -23.2964 C   0  0  0  0  0  0  0  0  0  0  0  0
  -21.4863    0.3161  -23.8424 C   0  0  0  0  0  0  0  0  0  0  0  0
  -22.7465    2.3563  -24.1281 C   0  0  0  0  0  0  0  0  0  0  0  0
  -22.7926    2.1443  -25.5079 C   0  0  0  0  0  0  0  0  0  0  0  0
  -23.4445    3.0583  -26.2854 N   0  0  0  0  0  0  0  0  0  0  0  0
  -23.4909    2.9312  -27.2606 H   0  0  0  0  0  0  0  0  0  0  0  0
  -23.8681    3.8443  -25.8707 H   0  0  0  0  0  0  0  0  0  0  0  0
  -19.6026   -3.2080  -25.8596 O   0  0  0  0  0  0  0  0  0  0  0  0
  -20.1256   -2.1774  -24.9329 S   0  0  0  0  0  0  0  0  0  0  0  0
  -21.0794   -2.7605  -23.9517 O   0  0  0  0  0  0  0  0  0  0  0  0
  -18.9812   -1.6191  -24.1663 O   0  0  0  0  0  0  0  0  0  0  0  0
  -18.9853   -2.7972  -26.4850 H   0  0  0  0  0  0  0  0  0  0  0  0
  6  1  2  0  0  0
  1  2  1  0  0  0
  2  3  2  0  0  0
  4  3  1  0  0  0
  5  4  1  0  0  0
  4 10  2  0  0  0
  6  5  1  0  0  0
  8  5  2  0  0  0
 15  6  1  0  0  0
  8  7  1  0  0  0
  7  9  2  0  0  0
 14 15  1  0  0  0
 17 15  2  0  0  0
 16 15  2  0  0  0
  9 10  1  0  0  0
 10 11  1  0  0  0
 14 18  1  0  0  0
 11 12  1  0  0  0
 11 13  1  0  0  0
M  END
> <minimizedAffinity>
-7.70853

$$$$
3CFT_5NS_A_1


 18 19  0  0  0  0  0  0  0  0999 V2000
  -21.9931    1.2405  -27.1822 C   0  0  0  0  0  0  0  0  0  0  0  0
  -21.3413    0.3228  -28.0056 C   0  0  0  0  0  0  0  0  0  0  0  0
  -20.7383   -0.7983  -27.4410 C   0  0  0  0  0  0  0  0  0  0  0  0
  -20.7876   -1.0116  -26.0550 C   0  0  0  0  0  0  0  0  0  0  0  0
  -21.4482   -0.0840  -25.2204 C   0  0  0  0  0  0  0  0  0  0  0  0
  -22.0618    1.0495  -25.7939 C   0  0  0  0  0  0  0  0  0  0  0  0
  -20.8794   -1.4563  -23.2928 C   0  0  0  0  0  0  0  0  0  0  0  0
  -21.4839   -0.3242  -23.8378 C   0  0  0  0  0  0  0  0  0  0  0  0
  -20.2232   -2.3639  -24.1248 C   0  0  0  0  0  0  0  0  0  0  0  0
  -20.1736   -2.1489  -25.5040 C   0  0  0  0  0  0  0  0  0  0  0  0
  -19.5197   -3.0612  -26.2818 N   0  0  0  0  0  0  0  0  0  0  0  0
  -19.4708   -2.9320  -27.2566 H   0  0  0  0  0  0  0  0  0  0  0  0
  -19.0972   -3.8482  -25.8678 H   0  0  0  0  0  0  0  0  0  0  0  0
  -23.3522    3.2105  -25.8510 O   0  0  0  0  0  0  0  0  0  0  0  0
  -22.8416    2.1718  -24.9264 S   0  0  0  0  0  0  0  0  0  0  0  0
  -21.8934    2.7445  -23.9337 O   0  0  0  0  0  0  0  0  0  0  0  0
  -23.9949    1.6140  -24.1728 O   0  0  0  0  0  0  0  0  0  0  0  0
  -23.9661    2.8064  -26.4840 H   0  0  0  0  0  0  0  0  0  0  0  0
  6  1  2  0  0  0
  1  2  1  0  0  0
  2  3  2  0  0  0
  4  3  1  0  0  0
  5  4  1  0  0  0
  4 10  2  0  0  0
  6  5  1  0  0  0
  8  5  2  0  0  0
 15  6  1  0  0  0
  8  7  1  0  0  0
  7  9  2  0  0  0
 14 15  1  0  0  0
 17 15  2  0  0  0
 16 15  2  0  0  0
  9 10  1  0  0  0
 10 11  1  0  0  0
 14 18  1  0  0  0
 11 12  1  0  0  0
 11 13  1  0  0  0
M  END
> <minimizedAffinity>
-7.70460

$$$$
3CFT_5NS_A_1


 18 19  0  0  0  0  0  0  0  0999 V2000
  -20.5596   -2.1809  -24.4561 C   0  0  0  0  0  0  0  0  0  0  0  0
  -20.2076   -2.0322  -25.7974 C   0  0  0  0  0  0  0  0  0  0  0  0
  -20.6739   -0.9310  -26.5112 C   0  0  0  0  0  0  0  0  0  0  0  0
  -21.4877    0.0283  -25.8895 C   0  0  0  0  0  0  0  0  0  0  0  0
  -21.8438   -0.1205  -24.5314 C   0  0  0  0  0  0  0  0  0  0  0  0
  -21.3679   -1.2345  -23.8084 C   0  0  0  0  0  0  0  0  0  0  0  0
  -23.1083    1.9545  -24.6651 C   0  0  0  0  0  0  0  0  0  0  0  0
  -22.6570    0.8558  -23.9348 C   0  0  0  0  0  0  0  0  0  0  0  0
  -22.7566    2.0894  -26.0085 C   0  0  0  0  0  0  0  0  0  0  0  0
  -21.9480    1.1325  -26.6262 C   0  0  0  0  0  0  0  0  0  0  0  0
  -21.6289    1.3022  -27.9431 N   0  0  0  0  0  0  0  0  0  0  0  0
  -21.0604    0.6414  -28.4009 H   0  0  0  0  0  0  0  0  0  0  0  0
  -21.9672    2.0852  -28.4346 H   0  0  0  0  0  0  0  0  0  0  0  0
  -21.2917   -2.8719  -21.8975 O   0  0  0  0  0  0  0  0  0  0  0  0
  -21.7189   -1.4981  -22.2503 S   0  0  0  0  0  0  0  0  0  0  0  0
  -23.1828   -1.3166  -22.0588 O   0  0  0  0  0  0  0  0  0  0  0  0
  -21.0277   -0.5489  -21.3390 O   0  0  0  0  0  0  0  0  0  0  0  0
  -20.3350   -2.9578  -22.0329 H   0  0  0  0  0  0  0  0  0  0  0  0
  6  1  2  0  0  0
  1  2  1  0  0  0
  2  3  2  0  0  0
  4  3  1  0  0  0
  5  4  1  0  0  0
  4 10  2  0  0  0
  6  5  1  0  0  0
  8  5  2  0  0  0
 15  6  1  0  0  0
  8  7  1  0  0  0
  7  9  2  0  0  0
 14 15  1  0  0  0
 17 15  2  0  0  0
 16 15  2  0  0  0
  9 10  1  0  0  0
 10 11  1  0  0  0
 14 18  1  0  0  0
 11 12  1  0  0  0
 11 13  1  0  0  0
M  END
> <minimizedAffinity>
-7.51153

$$$$
3CFT_5NS_A_1


 18 19  0  0  0  0  0  0  0  0999 V2000
  -22.4265    2.1627  -24.6254 C   0  0  0  0  0  0  0  0  0  0  0  0
  -22.7554    2.1124  -25.9798 C   0  0  0  0  0  0  0  0  0  0  0  0
  -22.2955    1.0536  -26.7588 C   0  0  0  0  0  0  0  0  0  0  0  0
  -21.5112    0.0387  -26.1898 C   0  0  0  0  0  0  0  0  0  0  0  0
  -21.1785    0.0878  -24.8185 C   0  0  0  0  0  0  0  0  0  0  0  0
  -21.6480    1.1589  -24.0296 C   0  0  0  0  0  0  0  0  0  0  0  0
  -19.9493   -1.9972  -25.0712 C   0  0  0  0  0  0  0  0  0  0  0  0
  -20.3946   -0.9423  -24.2756 C   0  0  0  0  0  0  0  0  0  0  0  0
  -20.2776   -2.0336  -26.4268 C   0  0  0  0  0  0  0  0  0  0  0  0
  -21.0568   -1.0215  -26.9919 C   0  0  0  0  0  0  0  0  0  0  0  0
  -21.3537   -1.0949  -28.3228 N   0  0  0  0  0  0  0  0  0  0  0  0
  -21.9013   -0.3938  -28.7444 H   0  0  0  0  0  0  0  0  0  0  0  0
  -21.0201   -1.8491  -28.8607 H   0  0  0  0  0  0  0  0  0  0  0  0
  -22.0662    0.2607  -21.7152 O   0  0  0  0  0  0  0  0  0  0  0  0
  -21.3222    1.3091  -22.4512 S   0  0  0  0  0  0  0  0  0  0  0  0
  -21.7253    2.6723  -22.0133 O   0  0  0  0  0  0  0  0  0  0  0  0
  -19.8758    1.1515  -22.1473 O   0  0  0  0  0  0  0  0  0  0  0  0
  -21.7814   -0.6141  -22.0227 H   0  0  0  0  0  0  0  0  0  0  0  0
  6  1  2  0  0  0
  1  2  1  0  0  0
  2  3  2  0  0  0
  4  3  1  0  0  0
  5  4  1  0  0  0
  4 10  2  0  0  0
  6  5  1  0  0  0
  8  5  2  0  0  0
 15  6  1  0  0  0
  8  7  1  0  0  0
  7  9  2  0  0  0
 14 15  1  0  0  0
 17 15  2  0  0  0
 16 15  2  0  0  0
  9 10  1  0  0  0
 10 11  1  0  0  0
 14 18  1  0  0  0
 11 12  1  0  0  0
 11 13  1  0  0  0
M  END
> <minimizedAffinity>
-7.48258

$$$$
3CFT_5NS_A_1


 18 19  0  0  0  0  0  0  0  0999 V2000
  -22.6109    1.6239  -27.0543 C   0  0  0  0  0  0  0  0  0  0  0  0
  -22.9662    2.3262  -25.9030 C   0  0  0  0  0  0  0  0  0  0  0  0
  -22.5828    1.8387  -24.6561 C   0  0  0  0  0  0  0  0  0  0  0  0
  -21.8396    0.6530  -24.5526 C   0  0  0  0  0  0  0  0  0  0  0  0
  -21.4781   -0.0583  -25.7174 C   0  0  0  0  0  0  0  0  0  0  0  0
  -21.8640    0.4384  -26.9801 C   0  0  0  0  0  0  0  0  0  0  0  0
  -20.3528   -1.7080  -24.3266 C   0  0  0  0  0  0  0  0  0  0  0  0
  -20.7323   -1.2400  -25.5840 C   0  0  0  0  0  0  0  0  0  0  0  0
  -20.7203   -1.0017  -23.1808 C   0  0  0  0  0  0  0  0  0  0  0  0
  -21.4618    0.1773  -23.2857 C   0  0  0  0  0  0  0  0  0  0  0  0
  -21.8018    0.8366  -22.1391 N   0  0  0  0  0  0  0  0  0  0  0  0
  -22.3242    1.6697  -22.1867 H   0  0  0  0  0  0  0  0  0  0  0  0
  -21.5245    0.4787  -21.2649 H   0  0  0  0  0  0  0  0  0  0  0  0
  -20.0298   -0.3052  -28.5361 O   0  0  0  0  0  0  0  0  0  0  0  0
  -21.5022   -0.3010  -28.3739 S   0  0  0  0  0  0  0  0  0  0  0  0
  -22.1705    0.4301  -29.4837 O   0  0  0  0  0  0  0  0  0  0  0  0
  -21.9776   -1.7086  -28.4158 O   0  0  0  0  0  0  0  0  0  0  0  0
  -19.6247   -0.7882  -27.7988 H   0  0  0  0  0  0  0  0  0  0  0  0
  6  1  2  0  0  0
  1  2  1  0  0  0
  2  3  2  0  0  0
  4  3  1  0  0  0
  5  4  1  0  0  0
  4 10  2  0  0  0
  6  5  1  0  0  0
  8  5  2  0  0  0
 15  6  1  0  0  0
  8  7  1  0  0  0
  7  9  2  0  0  0
 14 15  1  0  0  0
 17 15  2  0  0  0
 16 15  2  0  0  0
  9 10  1  0  0  0
 10 11  1  0  0  0
 14 18  1  0  0  0
 11 12  1  0  0  0
 11 13  1  0  0  0
M  END
> <minimizedAffinity>
-7.28776

$$$$
3CFT_5NS_A_1


 18 19  0  0  0  0  0  0  0  0999 V2000
  -20.2967   -1.6479  -27.0505 C   0  0  0  0  0  0  0  0  0  0  0  0
  -19.9825   -2.3894  -25.9119 C   0  0  0  0  0  0  0  0  0  0  0  0
  -20.4029   -1.9400  -24.6626 C   0  0  0  0  0  0  0  0  0  0  0  0
  -21.1423   -0.7532  -24.5443 C   0  0  0  0  0  0  0  0  0  0  0  0
  -21.4621   -0.0022  -25.6963 C   0  0  0  0  0  0  0  0  0  0  0  0
  -21.0388   -0.4604  -26.9616 C   0  0  0  0  0  0  0  0  0  0  0  0
  -22.6220    1.6092  -24.2891 C   0  0  0  0  0  0  0  0  0  0  0  0
  -22.2050    1.1796  -25.5483 C   0  0  0  0  0  0  0  0  0  0  0  0
  -22.2955    0.8638  -23.1558 C   0  0  0  0  0  0  0  0  0  0  0  0
  -21.5578   -0.3162  -23.2753 C   0  0  0  0  0  0  0  0  0  0  0  0
  -21.2585   -1.0145  -22.1405 N   0  0  0  0  0  0  0  0  0  0  0  0
  -20.7397   -1.8492  -22.1986 H   0  0  0  0  0  0  0  0  0  0  0  0
  -21.5616   -0.6832  -21.2644 H   0  0  0  0  0  0  0  0  0  0  0  0
  -20.8802   -0.5044  -29.4739 O   0  0  0  0  0  0  0  0  0  0  0  0
  -21.3515    0.3261  -28.3414 S   0  0  0  0  0  0  0  0  0  0  0  0
  -20.6564    1.6407  -28.3036 O   0  0  0  0  0  0  0  0  0  0  0  0
  -22.8012    0.5924  -28.5331 O   0  0  0  0  0  0  0  0  0  0  0  0
  -21.3511   -1.3524  -29.4708 H   0  0  0  0  0  0  0  0  0  0  0  0
  6  1  2  0  0  0
  1  2  1  0  0  0
  2  3  2  0  0  0
  4  3  1  0  0  0
  5  4  1  0  0  0
  4 10  2  0  0  0
  6  5  1  0  0  0
  8  5  2  0  0  0
 15  6  1  0  0  0
  8  7  1  0  0  0
  7  9  2  0  0  0
 14 15  1  0  0  0
 17 15  2  0  0  0
 16 15  2  0  0  0
  9 10  1  0  0  0
 10 11  1  0  0  0
 14 18  1  0  0  0
 11 12  1  0  0  0
 11 13  1  0  0  0
M  END
> <minimizedAffinity>
-7.28086

$$$$
3CFT_5NS_A_1


 18 19  0  0  0  0  0  0  0  0999 V2000
  -20.4826    1.2448  -27.8940 C   0  0  0  0  0  0  0  0  0  0  0  0
  -20.4100    1.7876  -29.1766 C   0  0  0  0  0  0  0  0  0  0  0  0
  -20.9463    1.0828  -30.2514 C   0  0  0  0  0  0  0  0  0  0  0  0
  -21.5614   -0.1623  -30.0509 C   0  0  0  0  0  0  0  0  0  0  0  0
  -21.6367   -0.7124  -28.7527 C   0  0  0  0  0  0  0  0  0  0  0  0
  -21.0963    0.0042  -27.6643 C   0  0  0  0  0  0  0  0  0  0  0  0
  -22.7964   -2.6454  -29.6698 C   0  0  0  0  0  0  0  0  0  0  0  0
  -22.2599   -1.9585  -28.5814 C   0  0  0  0  0  0  0  0  0  0  0  0
  -22.7113   -2.0969  -30.9498 C   0  0  0  0  0  0  0  0  0  0  0  0
  -22.0969   -0.8582  -31.1477 C   0  0  0  0  0  0  0  0  0  0  0  0
  -22.0338   -0.3584  -32.4170 N   0  0  0  0  0  0  0  0  0  0  0  0
  -21.6057    0.5127  -32.5823 H   0  0  0  0  0  0  0  0  0  0  0  0
  -22.4163   -0.8691  -33.1667 H   0  0  0  0  0  0  0  0  0  0  0  0
  -20.6217    0.5309  -25.2486 O   0  0  0  0  0  0  0  0  0  0  0  0
  -21.1295   -0.5381  -26.1395 S   0  0  0  0  0  0  0  0  0  0  0  0
  -20.2890   -1.7625  -26.0554 O   0  0  0  0  0  0  0  0  0  0  0  0
  -22.4986   -0.9041  -25.6914 O   0  0  0  0  0  0  0  0  0  0  0  0
  -21.1896    1.3134  -25.3262 H   0  0  0  0  0  0  0  0  0  0  0  0
  6  1  2  0  0  0
  1  2  1  0  0  0
  2  3  2  0  0  0
  4  3  1  0  0  0
  5  4  1  0  0  0
  4 10  2  0  0  0
  6  5  1  0  0  0
  8  5  2  0  0  0
 15  6  1  0  0  0
  8  7  1  0  0  0
  7  9  2  0  0  0
 14 15  1  0  0  0
 17 15  2  0  0  0
 16 15  2  0  0  0
  9 10  1  0  0  0
 10 11  1  0  0  0
 14 18  1  0  0  0
 11 12  1  0  0  0
 11 13  1  0  0  0
M  END
> <minimizedAffinity>
-6.01462

$$$$
3CFT_5NS_A_1


 18 19  0  0  0  0  0  0  0  0999 V2000
  -22.5875   -1.1791  -24.9600 C   0  0  0  0  0  0  0  0  0  0  0  0
  -22.7023   -1.8441  -23.7395 C   0  0  0  0  0  0  0  0  0  0  0  0
  -22.3021   -1.2043  -22.5691 C   0  0  0  0  0  0  0  0  0  0  0  0
  -21.7914    0.1020  -22.6102 C   0  0  0  0  0  0  0  0  0  0  0  0
  -21.6758    0.7769  -23.8449 C   0  0  0  0  0  0  0  0  0  0  0  0
  -22.0849    0.1291  -25.0295 C   0  0  0  0  0  0  0  0  0  0  0  0
  -20.7746    2.7093  -22.6721 C   0  0  0  0  0  0  0  0  0  0  0  0
  -21.1638    2.0839  -23.8558 C   0  0  0  0  0  0  0  0  0  0  0  0
  -20.8864    2.0320  -21.4574 C   0  0  0  0  0  0  0  0  0  0  0  0
  -21.3931    0.7309  -21.4187 C   0  0  0  0  0  0  0  0  0  0  0  0
  -21.4842    0.1037  -20.2091 N   0  0  0  0  0  0  0  0  0  0  0  0
  -21.8381   -0.8135  -20.1555 H   0  0  0  0  0  0  0  0  0  0  0  0
  -21.1960    0.5686  -19.3905 H   0  0  0  0  0  0  0  0  0  0  0  0
  -20.5672    1.0741  -26.8020 O   0  0  0  0  0  0  0  0  0  0  0  0
  -21.9924    0.8133  -26.4935 S   0  0  0  0  0  0  0  0  0  0  0  0
  -22.7855    2.0716  -26.4777 O   0  0  0  0  0  0  0  0  0  0  0  0
  -22.5485   -0.0521  -27.5664 O   0  0  0  0  0  0  0  0  0  0  0  0
  -20.0784    0.2362  -26.8048 H   0  0  0  0  0  0  0  0  0  0  0  0
  6  1  2  0  0  0
  1  2  1  0  0  0
  2  3  2  0  0  0
  4  3  1  0  0  0
  5  4  1  0  0  0
  4 10  2  0  0  0
  6  5  1  0  0  0
  8  5  2  0  0  0
 15  6  1  0  0  0
  8  7  1  0  0  0
  7  9  2  0  0  0
 14 15  1  0  0  0
 17 15  2  0  0  0
 16 15  2  0  0  0
  9 10  1  0  0  0
 10 11  1  0  0  0
 14 18  1  0  0  0
 11 12  1  0  0  0
 11 13  1  0  0  0
M  END
> <minimizedAffinity>
-6.01207

$$$$
3CFT_5NS_A_1


 18 19  0  0  0  0  0  0  0  0999 V2000
  -22.4955   -1.2497  -27.8175 C   0  0  0  0  0  0  0  0  0  0  0  0
  -22.5734   -1.8227  -29.0866 C   0  0  0  0  0  0  0  0  0  0  0  0
  -22.0433   -1.1427  -30.1802 C   0  0  0  0  0  0  0  0  0  0  0  0
  -21.4290    0.1077  -30.0121 C   0  0  0  0  0  0  0  0  0  0  0  0
  -21.3484    0.6883  -28.7277 C   0  0  0  0  0  0  0  0  0  0  0  0
  -21.8825   -0.0032  -27.6201 C   0  0  0  0  0  0  0  0  0  0  0  0
  -20.1960    2.6007  -29.6955 C   0  0  0  0  0  0  0  0  0  0  0  0
  -20.7262    1.9389  -28.5888 C   0  0  0  0  0  0  0  0  0  0  0  0
  -20.2863    2.0220  -30.9619 C   0  0  0  0  0  0  0  0  0  0  0  0
  -20.8998    0.7782  -31.1275 C   0  0  0  0  0  0  0  0  0  0  0  0
  -20.9682    0.2485  -32.3844 N   0  0  0  0  0  0  0  0  0  0  0  0
  -21.3958   -0.6268  -32.5271 H   0  0  0  0  0  0  0  0  0  0  0  0
  -20.5901    0.7419  -33.1478 H   0  0  0  0  0  0  0  0  0  0  0  0
  -22.3817   -0.4590  -25.1949 O   0  0  0  0  0  0  0  0  0  0  0  0
  -21.8429    0.5750  -26.1086 S   0  0  0  0  0  0  0  0  0  0  0  0
  -22.6528    1.8217  -26.0585 O   0  0  0  0  0  0  0  0  0  0  0  0
  -20.4672    0.9174  -25.6622 O   0  0  0  0  0  0  0  0  0  0  0  0
  -21.8333   -1.2572  -25.2506 H   0  0  0  0  0  0  0  0  0  0  0  0
  6  1  2  0  0  0
  1  2  1  0  0  0
  2  3  2  0  0  0
  4  3  1  0  0  0
  5  4  1  0  0  0
  4 10  2  0  0  0
  6  5  1  0  0  0
  8  5  2  0  0  0
 15  6  1  0  0  0
  8  7  1  0  0  0
  7  9  2  0  0  0
 14 15  1  0  0  0
 17 15  2  0  0  0
 16 15  2  0  0  0
  9 10  1  0  0  0
 10 11  1  0  0  0
 14 18  1  0  0  0
 11 12  1  0  0  0
 11 13  1  0  0  0
M  END
> <minimizedAffinity>
-6.00845

$$$$
3CFT_5NS_A_1


 18 19  0  0  0  0  0  0  0  0999 V2000
  -20.1855    2.3132  -30.6047 C   0  0  0  0  0  0  0  0  0  0  0  0
  -20.2007    2.4008  -29.2129 C   0  0  0  0  0  0  0  0  0  0  0  0
  -20.8240    1.4018  -28.4693 C   0  0  0  0  0  0  0  0  0  0  0  0
  -21.4292    0.3096  -29.1096 C   0  0  0  0  0  0  0  0  0  0  0  0
  -21.4134    0.2191  -30.5185 C   0  0  0  0  0  0  0  0  0  0  0  0
  -20.7786    1.2299  -31.2705 C   0  0  0  0  0  0  0  0  0  0  0  0
  -22.6377   -1.8787  -30.3691 C   0  0  0  0  0  0  0  0  0  0  0  0
  -22.0244   -0.8857  -31.1320 C   0  0  0  0  0  0  0  0  0  0  0  0
  -22.6540   -1.7772  -28.9777 C   0  0  0  0  0  0  0  0  0  0  0  0
  -22.0528   -0.6884  -28.3422 C   0  0  0  0  0  0  0  0  0  0  0  0
  -22.0929   -0.6272  -26.9785 N   0  0  0  0  0  0  0  0  0  0  0  0
  -21.6764    0.1301  -26.5073 H   0  0  0  0  0  0  0  0  0  0  0  0
  -22.5385   -1.3405  -26.4667 H   0  0  0  0  0  0  0  0  0  0  0  0
  -20.0620   -0.0397  -33.3232 O   0  0  0  0  0  0  0  0  0  0  0  0
  -20.7063    1.2211  -32.8876 S   0  0  0  0  0  0  0  0  0  0  0  0
  -19.9318    2.4107  -33.3322 O   0  0  0  0  0  0  0  0  0  0  0  0
  -22.0485    1.2991  -33.5214 O   0  0  0  0  0  0  0  0  0  0  0  0
  -20.5896   -0.7945  -33.0186 H   0  0  0  0  0  0  0  0  0  0  0  0
  6  1  2  0  0  0
  1  2  1  0  0  0
  2  3  2  0  0  0
  4  3  1  0  0  0
  5  4  1  0  0  0
  4 10  2  0  0  0
  6  5  1  0  0  0
  8  5  2  0  0  0
 15  6  1  0  0  0
  8  7  1  0  0  0
  7  9  2  0  0  0
 14 15  1  0  0  0
 17 15  2  0  0  0
 16 15  2  0  0  0
  9 10  1  0  0  0
 10 11  1  0  0  0
 14 18  1  0  0  0
 11 12  1  0  0  0
 11 13  1  0  0  0
M  END
> <minimizedAffinity>
-5.68027

$$$$
