2FXU_BID_A_402


 54 56  0  0  0  0  0  0  0  0999 V2000
   14.0188  -12.7735   36.8634 O   0  0  0  0  0  0  0  0  0  0  0  0
   14.3550  -13.6110   36.0439 C   0  0  0  0  0  0  0  0  0  0  0  0
   13.9615  -14.8715   36.0879 N   0  0  0  0  0  0  0  0  0  0  0  0
   14.2942  -15.4815   35.3904 H   0  0  0  0  0  0  0  0  0  0  0  0
   15.2743  -13.2034   34.9273 C   0  0  0  0  0  0  0  0  0  0  0  0
   14.6820  -11.9534   34.2355 C   0  0  0  0  0  0  0  0  0  0  0  0
   16.7231  -13.0177   35.3972 C   0  0  0  0  0  0  0  0  0  0  0  0
   16.8315  -11.8283   36.1743 O   0  0  0  0  0  0  0  0  0  0  0  0
   16.2579  -11.8978   36.9535 H   0  0  0  0  0  0  0  0  0  0  0  0
   17.1914  -14.2563   36.1756 C   0  0  0  0  0  0  0  0  0  0  0  0
   18.6122  -14.5327   35.9629 N   0  0  0  0  0  0  0  0  0  0  0  0
   19.1249  -15.0659   34.8637 C   0  0  0  0  0  0  0  0  0  0  0  0
   18.3974  -15.3082   33.9011 O   0  0  0  0  0  0  0  0  0  0  0  0
   19.2341  -14.3053   36.6914 H   0  0  0  0  0  0  0  0  0  0  0  0
   20.6168  -15.2999   34.8083 C   0  0  0  0  0  0  0  0  0  0  0  0
   21.2172  -15.4095   36.2030 C   0  0  0  0  0  0  0  0  0  0  0  0
   22.1266  -16.6296   36.3476 C   0  0  0  0  0  0  0  0  0  0  0  0
   21.4278  -17.9128   35.9509 C   0  0  0  0  0  0  0  0  0  0  0  0
   23.4233  -16.4550   35.5692 C   0  0  0  0  0  0  0  0  0  0  0  0
   24.1182  -15.1857   36.0073 C   0  0  0  0  0  0  0  0  0  0  0  0
   21.9419  -14.2090   36.5103 O   0  0  0  0  0  0  0  0  0  0  0  0
   23.2057  -13.9723   35.8792 C   0  0  0  0  0  0  0  0  0  0  0  0
   23.8838  -12.7932   36.5731 C   0  0  0  0  0  0  0  0  0  0  0  0
   23.3851  -12.5863   37.9888 C   0  0  0  0  0  0  0  0  0  0  0  0
   22.5270  -11.7522   38.2087 O   0  0  0  0  0  0  0  0  0  0  0  0
   23.9166  -13.3628   39.1335 C   0  0  0  0  0  0  0  0  0  0  0  0
   23.1583  -14.1655   39.8838 C   0  0  0  0  0  0  0  0  0  0  0  0
   23.7698  -14.9242   41.0390 C   0  0  0  0  0  0  0  0  0  0  0  0
   13.0675  -15.4188   37.1009 C   0  0  0  0  0  0  0  0  0  0  0  0
   11.6992  -15.6089   36.4677 C   0  0  0  0  0  0  0  0  0  0  0  0
   10.6354  -15.9518   37.5096 C   0  0  0  0  0  0  0  0  0  0  0  0
    9.6583  -16.9570   36.9344 C   0  0  0  0  0  0  0  0  0  0  0  0
    8.6321  -17.4798   37.9413 C   0  0  0  0  0  0  0  0  0  0  0  0
    7.7461  -16.3549   38.4828 C   0  0  0  0  0  0  0  0  0  0  0  0
    7.8459  -18.6100   37.2827 C   0  0  0  0  0  0  0  0  0  0  0  0
    8.7818  -19.6838   36.7311 C   0  0  0  0  0  0  0  0  0  0  0  0
    9.8058  -19.0752   35.7740 C   0  0  0  0  0  0  0  0  0  0  0  0
   10.4600  -18.0477   36.5071 O   0  0  0  0  0  0  0  0  0  0  0  0
   10.8915  -20.0702   35.3763 C   0  0  0  0  0  0  0  0  0  0  0  0
   11.8656  -19.4829   34.3596 C   0  0  0  0  0  0  0  0  0  0  0  0
   11.0710  -18.9787   33.1624 C   0  0  0  0  0  0  0  0  0  0  0  0
   10.0513  -17.9671   33.6538 C   0  0  0  0  0  0  0  0  0  0  0  0
    9.1503  -18.6009   34.5931 O   0  0  0  0  0  0  0  0  0  0  0  0
    9.2273  -17.4536   32.5035 C   0  0  0  0  0  0  0  0  0  0  0  0
    8.2637  -16.3453   32.9213 C   0  0  0  0  0  0  0  0  0  0  0  0
    7.6488  -15.5903   31.7323 C   0  0  0  0  0  0  0  0  0  0  0  0
    6.9582  -14.2873   32.1466 C   0  0  0  0  0  0  0  0  0  0  0  0
    6.6529  -16.4891   31.0265 C   0  0  0  0  0  0  0  0  0  0  0  0
    6.8140  -16.9903   29.7839 C   0  0  0  0  0  0  0  0  0  0  0  0
    8.0027  -16.6912   28.8984 C   0  0  0  0  0  0  0  0  0  0  0  0
    5.7520  -17.8811   29.1903 C   0  0  0  0  0  0  0  0  0  0  0  0
    6.3829  -19.1889   28.7285 C   0  0  0  0  0  0  0  0  0  0  0  0
    5.1475  -17.2116   28.0772 O   0  0  0  0  0  0  0  0  0  0  0  0
    5.8244  -17.0175   27.4102 H   0  0  0  0  0  0  0  0  0  0  0  0
  1  2  2  0  0  0
  2  5  1  0  0  0
  2  3  1  0  0  0
  5  6  1  0  0  0
  5  7  1  0  0  0
  7  8  1  0  0  0
  7 10  1  0  0  0
 10 11  1  0  0  0
 11 12  1  0  0  0
 12 13  2  0  0  0
 12 15  1  0  0  0
 15 16  1  0  0  0
 16 17  1  0  0  0
 16 21  1  0  0  0
 17 18  1  0  0  0
 17 19  1  0  0  0
 19 20  1  0  0  0
 20 22  1  0  0  0
 21 22  1  0  0  0
 22 23  1  0  0  0
 23 24  1  0  0  0
 24 25  2  0  0  0
 24 26  1  0  0  0
 26 27  2  0  0  0
 27 28  1  0  0  0
  3 29  1  0  0  0
 29 30  1  0  0  0
 30 31  1  0  0  0
 31 32  1  0  0  0
 32 33  1  0  0  0
 32 38  1  0  0  0
 33 34  1  0  0  0
 33 35  1  0  0  0
 35 36  1  0  0  0
 36 37  1  0  0  0
 37 38  1  0  0  0
 37 39  1  0  0  0
 37 43  1  0  0  0
 39 40  1  0  0  0
 40 41  1  0  0  0
 41 42  1  0  0  0
 42 43  1  0  0  0
 42 44  1  0  0  0
 44 45  1  0  0  0
 45 46  1  0  0  0
 46 47  1  0  0  0
 46 48  1  0  0  0
 48 49  2  0  0  0
 49 50  1  0  0  0
 49 51  1  0  0  0
 51 52  1  0  0  0
 51 53  1  0  0  0
  8  9  1  0  0  0
 11 14  1  0  0  0
  3  4  1  0  0  0
 53 54  1  0  0  0
M  END
> <minimizedAffinity>
-9.36156

$$$$
2FXU_BID_A_402


 54 56  0  0  0  0  0  0  0  0999 V2000
   14.4780  -12.6072   36.8586 O   0  0  0  0  0  0  0  0  0  0  0  0
   14.4684  -13.3711   35.9087 C   0  0  0  0  0  0  0  0  0  0  0  0
   13.8429  -14.5348   35.9168 N   0  0  0  0  0  0  0  0  0  0  0  0
   13.9002  -15.0931   35.1079 H   0  0  0  0  0  0  0  0  0  0  0  0
   15.2130  -12.9854   34.6618 C   0  0  0  0  0  0  0  0  0  0  0  0
   14.6362  -11.6489   34.1393 C   0  0  0  0  0  0  0  0  0  0  0  0
   16.7331  -12.9599   34.8694 C   0  0  0  0  0  0  0  0  0  0  0  0
   17.0469  -12.2490   36.0636 O   0  0  0  0  0  0  0  0  0  0  0  0
   16.6365  -12.6934   36.8218 H   0  0  0  0  0  0  0  0  0  0  0  0
   17.2898  -14.3914   34.8906 C   0  0  0  0  0  0  0  0  0  0  0  0
   18.6089  -14.4573   35.5196 N   0  0  0  0  0  0  0  0  0  0  0  0
   18.8270  -14.7297   36.7979 C   0  0  0  0  0  0  0  0  0  0  0  0
   17.8835  -15.0131   37.5355 O   0  0  0  0  0  0  0  0  0  0  0  0
   19.3937  -14.2864   34.9503 H   0  0  0  0  0  0  0  0  0  0  0  0
   20.2541  -14.7461   37.2946 C   0  0  0  0  0  0  0  0  0  0  0  0
   20.4353  -13.8384   38.5033 C   0  0  0  0  0  0  0  0  0  0  0  0
   21.1105  -14.5573   39.6711 C   0  0  0  0  0  0  0  0  0  0  0  0
   20.3899  -15.8339   40.0493 C   0  0  0  0  0  0  0  0  0  0  0  0
   22.5809  -14.8288   39.3846 C   0  0  0  0  0  0  0  0  0  0  0  0
   23.2850  -13.5350   39.0432 C   0  0  0  0  0  0  0  0  0  0  0  0
   21.1945  -12.6802   38.1254 O   0  0  0  0  0  0  0  0  0  0  0  0
   22.6014  -12.8103   37.8904 C   0  0  0  0  0  0  0  0  0  0  0  0
   23.2086  -11.4136   37.7811 C   0  0  0  0  0  0  0  0  0  0  0  0
   24.0177  -11.2287   36.5135 C   0  0  0  0  0  0  0  0  0  0  0  0
   24.4276  -10.1221   36.2172 O   0  0  0  0  0  0  0  0  0  0  0  0
   24.3243  -12.3561   35.6021 C   0  0  0  0  0  0  0  0  0  0  0  0
   23.9712  -12.3686   34.3146 C   0  0  0  0  0  0  0  0  0  0  0  0
   24.3152  -13.5563   33.4456 C   0  0  0  0  0  0  0  0  0  0  0  0
   13.0736  -15.0469   37.0441 C   0  0  0  0  0  0  0  0  0  0  0  0
   11.9916  -15.9635   36.4979 C   0  0  0  0  0  0  0  0  0  0  0  0
   10.8006  -16.0641   37.4497 C   0  0  0  0  0  0  0  0  0  0  0  0
    9.7772  -17.0321   36.8914 C   0  0  0  0  0  0  0  0  0  0  0  0
    8.7173  -17.4748   37.9017 C   0  0  0  0  0  0  0  0  0  0  0  0
    7.8865  -16.2919   38.4060 C   0  0  0  0  0  0  0  0  0  0  0  0
    7.8787  -18.5797   37.2649 C   0  0  0  0  0  0  0  0  0  0  0  0
    8.7620  -19.7144   36.7498 C   0  0  0  0  0  0  0  0  0  0  0  0
    9.8238  -19.1847   35.7870 C   0  0  0  0  0  0  0  0  0  0  0  0
   10.5246  -18.1736   36.4996 O   0  0  0  0  0  0  0  0  0  0  0  0
   10.8595  -20.2445   35.4251 C   0  0  0  0  0  0  0  0  0  0  0  0
   11.8709  -19.7350   34.4028 C   0  0  0  0  0  0  0  0  0  0  0  0
   11.1132  -19.2218   33.1858 C   0  0  0  0  0  0  0  0  0  0  0  0
   10.1434  -18.1464   33.6416 C   0  0  0  0  0  0  0  0  0  0  0  0
    9.2033  -18.7081   34.5884 O   0  0  0  0  0  0  0  0  0  0  0  0
    9.3564  -17.6212   32.4709 C   0  0  0  0  0  0  0  0  0  0  0  0
    8.4049  -16.4932   32.8627 C   0  0  0  0  0  0  0  0  0  0  0  0
    6.9365  -16.7842   32.5149 C   0  0  0  0  0  0  0  0  0  0  0  0
    6.5966  -18.2769   32.5658 C   0  0  0  0  0  0  0  0  0  0  0  0
    6.6298  -16.2418   31.1331 C   0  0  0  0  0  0  0  0  0  0  0  0
    5.4531  -15.6932   30.7650 C   0  0  0  0  0  0  0  0  0  0  0  0
    4.2517  -15.5773   31.6760 C   0  0  0  0  0  0  0  0  0  0  0  0
    5.2708  -15.1816   29.3583 C   0  0  0  0  0  0  0  0  0  0  0  0
    3.9952  -15.7661   28.7644 C   0  0  0  0  0  0  0  0  0  0  0  0
    6.4001  -15.5717   28.5678 O   0  0  0  0  0  0  0  0  0  0  0  0
    6.4702  -16.5392   28.5594 H   0  0  0  0  0  0  0  0  0  0  0  0
  1  2  2  0  0  0
  2  5  1  0  0  0
  2  3  1  0  0  0
  5  6  1  0  0  0
  5  7  1  0  0  0
  7  8  1  0  0  0
  7 10  1  0  0  0
 10 11  1  0  0  0
 11 12  1  0  0  0
 12 13  2  0  0  0
 12 15  1  0  0  0
 15 16  1  0  0  0
 16 17  1  0  0  0
 16 21  1  0  0  0
 17 18  1  0  0  0
 17 19  1  0  0  0
 19 20  1  0  0  0
 20 22  1  0  0  0
 21 22  1  0  0  0
 22 23  1  0  0  0
 23 24  1  0  0  0
 24 25  2  0  0  0
 24 26  1  0  0  0
 26 27  2  0  0  0
 27 28  1  0  0  0
  3 29  1  0  0  0
 29 30  1  0  0  0
 30 31  1  0  0  0
 31 32  1  0  0  0
 32 33  1  0  0  0
 32 38  1  0  0  0
 33 34  1  0  0  0
 33 35  1  0  0  0
 35 36  1  0  0  0
 36 37  1  0  0  0
 37 38  1  0  0  0
 37 39  1  0  0  0
 37 43  1  0  0  0
 39 40  1  0  0  0
 40 41  1  0  0  0
 41 42  1  0  0  0
 42 43  1  0  0  0
 42 44  1  0  0  0
 44 45  1  0  0  0
 45 46  1  0  0  0
 46 47  1  0  0  0
 46 48  1  0  0  0
 48 49  2  0  0  0
 49 50  1  0  0  0
 49 51  1  0  0  0
 51 52  1  0  0  0
 51 53  1  0  0  0
  8  9  1  0  0  0
 11 14  1  0  0  0
  3  4  1  0  0  0
 53 54  1  0  0  0
M  END
> <minimizedAffinity>
-9.16498

$$$$
2FXU_BID_A_402


 54 56  0  0  0  0  0  0  0  0999 V2000
   14.4942  -13.7964   34.8506 O   0  0  0  0  0  0  0  0  0  0  0  0
   14.7791  -14.2328   35.9527 C   0  0  0  0  0  0  0  0  0  0  0  0
   13.8776  -14.6178   36.8384 N   0  0  0  0  0  0  0  0  0  0  0  0
   14.1994  -14.9452   37.7093 H   0  0  0  0  0  0  0  0  0  0  0  0
   16.2276  -14.3316   36.3401 C   0  0  0  0  0  0  0  0  0  0  0  0
   17.0894  -14.1429   35.0698 C   0  0  0  0  0  0  0  0  0  0  0  0
   16.5971  -13.3751   37.4816 C   0  0  0  0  0  0  0  0  0  0  0  0
   16.3933  -14.0177   38.7369 O   0  0  0  0  0  0  0  0  0  0  0  0
   16.9591  -14.8034   38.7936 H   0  0  0  0  0  0  0  0  0  0  0  0
   18.0433  -12.8850   37.3160 C   0  0  0  0  0  0  0  0  0  0  0  0
   18.9423  -13.4869   38.3007 N   0  0  0  0  0  0  0  0  0  0  0  0
   19.8593  -14.4042   38.0297 C   0  0  0  0  0  0  0  0  0  0  0  0
   20.0444  -14.7634   36.8672 O   0  0  0  0  0  0  0  0  0  0  0  0
   18.8598  -13.1880   39.2351 H   0  0  0  0  0  0  0  0  0  0  0  0
   20.7008  -14.9354   39.1669 C   0  0  0  0  0  0  0  0  0  0  0  0
   20.3885  -14.2204   40.4742 C   0  0  0  0  0  0  0  0  0  0  0  0
   20.6563  -15.1015   41.6942 C   0  0  0  0  0  0  0  0  0  0  0  0
   19.9321  -16.4284   41.6103 C   0  0  0  0  0  0  0  0  0  0  0  0
   22.1480  -15.3107   41.9154 C   0  0  0  0  0  0  0  0  0  0  0  0
   22.8428  -13.9726   42.0296 C   0  0  0  0  0  0  0  0  0  0  0  0
   21.1563  -13.0102   40.5557 O   0  0  0  0  0  0  0  0  0  0  0  0
   22.5616  -13.0882   40.8213 C   0  0  0  0  0  0  0  0  0  0  0  0
   23.0780  -11.6848   41.1300 C   0  0  0  0  0  0  0  0  0  0  0  0
   23.4944  -10.9310   39.8834 C   0  0  0  0  0  0  0  0  0  0  0  0
   23.4196   -9.7167   39.8611 O   0  0  0  0  0  0  0  0  0  0  0  0
   23.9856  -11.6246   38.6696 C   0  0  0  0  0  0  0  0  0  0  0  0
   23.2975  -11.6670   37.5263 C   0  0  0  0  0  0  0  0  0  0  0  0
   23.8608  -12.3975   36.3291 C   0  0  0  0  0  0  0  0  0  0  0  0
   12.4379  -14.5900   36.6115 C   0  0  0  0  0  0  0  0  0  0  0  0
   11.9128  -16.0097   36.7459 C   0  0  0  0  0  0  0  0  0  0  0  0
   10.6566  -16.0694   37.6137 C   0  0  0  0  0  0  0  0  0  0  0  0
    9.6502  -17.0187   36.9959 C   0  0  0  0  0  0  0  0  0  0  0  0
    8.6201  -17.5694   37.9838 C   0  0  0  0  0  0  0  0  0  0  0  0
    7.7667  -16.4539   38.5929 C   0  0  0  0  0  0  0  0  0  0  0  0
    7.8007  -18.6438   37.2742 C   0  0  0  0  0  0  0  0  0  0  0  0
    8.7050  -19.7090   36.6573 C   0  0  0  0  0  0  0  0  0  0  0  0
    9.7354  -19.0752   35.7236 C   0  0  0  0  0  0  0  0  0  0  0  0
   10.4210  -18.1042   36.5035 O   0  0  0  0  0  0  0  0  0  0  0  0
   10.7928  -20.0736   35.2630 C   0  0  0  0  0  0  0  0  0  0  0  0
   11.7722  -19.4567   34.2692 C   0  0  0  0  0  0  0  0  0  0  0  0
   10.9800  -18.8706   33.1084 C   0  0  0  0  0  0  0  0  0  0  0  0
    9.9898  -17.8622   33.6627 C   0  0  0  0  0  0  0  0  0  0  0  0
    9.0816  -18.5232   34.5760 O   0  0  0  0  0  0  0  0  0  0  0  0
    9.1687  -17.2686   32.5494 C   0  0  0  0  0  0  0  0  0  0  0  0
    8.0206  -16.4039   33.0645 C   0  0  0  0  0  0  0  0  0  0  0  0
    7.5423  -15.3550   32.0482 C   0  0  0  0  0  0  0  0  0  0  0  0
    7.2306  -14.0004   32.6917 C   0  0  0  0  0  0  0  0  0  0  0  0
    6.3093  -15.8721   31.3341 C   0  0  0  0  0  0  0  0  0  0  0  0
    6.3047  -16.4070   30.0951 C   0  0  0  0  0  0  0  0  0  0  0  0
    7.5332  -16.5305   29.2221 C   0  0  0  0  0  0  0  0  0  0  0  0
    5.0110  -16.8937   29.4924 C   0  0  0  0  0  0  0  0  0  0  0  0
    5.2814  -17.4881   28.1158 C   0  0  0  0  0  0  0  0  0  0  0  0
    4.1035  -15.7910   29.3777 O   0  0  0  0  0  0  0  0  0  0  0  0
    4.4944  -15.1083   28.8101 H   0  0  0  0  0  0  0  0  0  0  0  0
  1  2  2  0  0  0
  2  5  1  0  0  0
  2  3  1  0  0  0
  5  6  1  0  0  0
  5  7  1  0  0  0
  7  8  1  0  0  0
  7 10  1  0  0  0
 10 11  1  0  0  0
 11 12  1  0  0  0
 12 13  2  0  0  0
 12 15  1  0  0  0
 15 16  1  0  0  0
 16 17  1  0  0  0
 16 21  1  0  0  0
 17 18  1  0  0  0
 17 19  1  0  0  0
 19 20  1  0  0  0
 20 22  1  0  0  0
 21 22  1  0  0  0
 22 23  1  0  0  0
 23 24  1  0  0  0
 24 25  2  0  0  0
 24 26  1  0  0  0
 26 27  2  0  0  0
 27 28  1  0  0  0
  3 29  1  0  0  0
 29 30  1  0  0  0
 30 31  1  0  0  0
 31 32  1  0  0  0
 32 33  1  0  0  0
 32 38  1  0  0  0
 33 34  1  0  0  0
 33 35  1  0  0  0
 35 36  1  0  0  0
 36 37  1  0  0  0
 37 38  1  0  0  0
 37 39  1  0  0  0
 37 43  1  0  0  0
 39 40  1  0  0  0
 40 41  1  0  0  0
 41 42  1  0  0  0
 42 43  1  0  0  0
 42 44  1  0  0  0
 44 45  1  0  0  0
 45 46  1  0  0  0
 46 47  1  0  0  0
 46 48  1  0  0  0
 48 49  2  0  0  0
 49 50  1  0  0  0
 49 51  1  0  0  0
 51 52  1  0  0  0
 51 53  1  0  0  0
  8  9  1  0  0  0
 11 14  1  0  0  0
  3  4  1  0  0  0
 53 54  1  0  0  0
M  END
> <minimizedAffinity>
-9.12807

$$$$
2FXU_BID_A_402


 54 56  0  0  0  0  0  0  0  0999 V2000
   16.6751  -12.1154   35.3105 O   0  0  0  0  0  0  0  0  0  0  0  0
   15.8752  -12.4893   36.1510 C   0  0  0  0  0  0  0  0  0  0  0  0
   16.1655  -12.5960   37.4355 N   0  0  0  0  0  0  0  0  0  0  0  0
   15.4597  -12.9193   38.0409 H   0  0  0  0  0  0  0  0  0  0  0  0
   14.4868  -12.8623   35.7139 C   0  0  0  0  0  0  0  0  0  0  0  0
   14.1100  -11.9995   34.4870 C   0  0  0  0  0  0  0  0  0  0  0  0
   14.3308  -14.3702   35.4766 C   0  0  0  0  0  0  0  0  0  0  0  0
   15.5312  -14.8998   34.9212 O   0  0  0  0  0  0  0  0  0  0  0  0
   16.2645  -14.7562   35.5397 H   0  0  0  0  0  0  0  0  0  0  0  0
   13.9436  -15.0760   36.7848 C   0  0  0  0  0  0  0  0  0  0  0  0
   12.6027  -15.6570   36.7182 N   0  0  0  0  0  0  0  0  0  0  0  0
   11.5675  -15.2610   37.4443 C   0  0  0  0  0  0  0  0  0  0  0  0
   11.6807  -14.2973   38.2014 O   0  0  0  0  0  0  0  0  0  0  0  0
   12.4586  -16.3981   36.0863 H   0  0  0  0  0  0  0  0  0  0  0  0
   10.2491  -15.9772   37.2646 C   0  0  0  0  0  0  0  0  0  0  0  0
   10.3202  -17.4126   37.7670 C   0  0  0  0  0  0  0  0  0  0  0  0
    8.9372  -18.0519   37.8906 C   0  0  0  0  0  0  0  0  0  0  0  0
    7.9981  -17.2214   38.7395 C   0  0  0  0  0  0  0  0  0  0  0  0
    8.3279  -18.3330   36.5241 C   0  0  0  0  0  0  0  0  0  0  0  0
    9.2688  -19.1912   35.7090 C   0  0  0  0  0  0  0  0  0  0  0  0
   11.1509  -18.1884   36.8903 O   0  0  0  0  0  0  0  0  0  0  0  0
   10.6521  -18.5619   35.6006 C   0  0  0  0  0  0  0  0  0  0  0  0
   11.5975  -19.5956   34.9930 C   0  0  0  0  0  0  0  0  0  0  0  0
   11.4149  -19.7419   33.4960 C   0  0  0  0  0  0  0  0  0  0  0  0
   11.2331  -18.7519   32.8123 O   0  0  0  0  0  0  0  0  0  0  0  0
   11.4384  -21.0623   32.8239 C   0  0  0  0  0  0  0  0  0  0  0  0
   11.4093  -22.2190   33.4898 C   0  0  0  0  0  0  0  0  0  0  0  0
   11.4398  -23.5286   32.7361 C   0  0  0  0  0  0  0  0  0  0  0  0
   17.4616  -12.2667   38.0156 C   0  0  0  0  0  0  0  0  0  0  0  0
   18.1859  -13.5679   38.3184 C   0  0  0  0  0  0  0  0  0  0  0  0
   18.8882  -14.1265   37.0817 C   0  0  0  0  0  0  0  0  0  0  0  0
   20.0685  -14.9786   37.5023 C   0  0  0  0  0  0  0  0  0  0  0  0
   20.1898  -16.3001   36.7413 C   0  0  0  0  0  0  0  0  0  0  0  0
   20.3996  -16.0731   35.2420 C   0  0  0  0  0  0  0  0  0  0  0  0
   21.2941  -17.1291   37.3916 C   0  0  0  0  0  0  0  0  0  0  0  0
   21.0505  -17.2925   38.8906 C   0  0  0  0  0  0  0  0  0  0  0  0
   20.8913  -15.9322   39.5685 C   0  0  0  0  0  0  0  0  0  0  0  0
   19.8420  -15.2719   38.8726 O   0  0  0  0  0  0  0  0  0  0  0  0
   20.4281  -16.0562   41.0166 C   0  0  0  0  0  0  0  0  0  0  0  0
   20.3472  -14.7011   41.7127 C   0  0  0  0  0  0  0  0  0  0  0  0
   21.6997  -14.0122   41.5909 C   0  0  0  0  0  0  0  0  0  0  0  0
   22.0501  -13.8980   40.1182 C   0  0  0  0  0  0  0  0  0  0  0  0
   22.1323  -15.2198   39.5334 O   0  0  0  0  0  0  0  0  0  0  0  0
   23.3923  -13.2379   39.9492 C   0  0  0  0  0  0  0  0  0  0  0  0
   23.5842  -12.0504   40.8896 C   0  0  0  0  0  0  0  0  0  0  0  0
   24.1923  -10.8182   40.2013 C   0  0  0  0  0  0  0  0  0  0  0  0
   23.9176   -9.5158   40.9594 C   0  0  0  0  0  0  0  0  0  0  0  0
   23.6458  -10.7085   38.7917 C   0  0  0  0  0  0  0  0  0  0  0  0
   24.3545  -10.9545   37.6700 C   0  0  0  0  0  0  0  0  0  0  0  0
   25.8169  -11.3392   37.6602 C   0  0  0  0  0  0  0  0  0  0  0  0
   23.6958  -10.8169   36.3205 C   0  0  0  0  0  0  0  0  0  0  0  0
   24.4147  -11.7015   35.3094 C   0  0  0  0  0  0  0  0  0  0  0  0
   23.7619   -9.4476   35.9044 O   0  0  0  0  0  0  0  0  0  0  0  0
   24.6900   -9.1716   35.8469 H   0  0  0  0  0  0  0  0  0  0  0  0
  1  2  2  0  0  0
  2  5  1  0  0  0
  2  3  1  0  0  0
  5  6  1  0  0  0
  5  7  1  0  0  0
  7  8  1  0  0  0
  7 10  1  0  0  0
 10 11  1  0  0  0
 11 12  1  0  0  0
 12 13  2  0  0  0
 12 15  1  0  0  0
 15 16  1  0  0  0
 16 17  1  0  0  0
 16 21  1  0  0  0
 17 18  1  0  0  0
 17 19  1  0  0  0
 19 20  1  0  0  0
 20 22  1  0  0  0
 21 22  1  0  0  0
 22 23  1  0  0  0
 23 24  1  0  0  0
 24 25  2  0  0  0
 24 26  1  0  0  0
 26 27  2  0  0  0
 27 28  1  0  0  0
  3 29  1  0  0  0
 29 30  1  0  0  0
 30 31  1  0  0  0
 31 32  1  0  0  0
 32 33  1  0  0  0
 32 38  1  0  0  0
 33 34  1  0  0  0
 33 35  1  0  0  0
 35 36  1  0  0  0
 36 37  1  0  0  0
 37 38  1  0  0  0
 37 39  1  0  0  0
 37 43  1  0  0  0
 39 40  1  0  0  0
 40 41  1  0  0  0
 41 42  1  0  0  0
 42 43  1  0  0  0
 42 44  1  0  0  0
 44 45  1  0  0  0
 45 46  1  0  0  0
 46 47  1  0  0  0
 46 48  1  0  0  0
 48 49  2  0  0  0
 49 50  1  0  0  0
 49 51  1  0  0  0
 51 52  1  0  0  0
 51 53  1  0  0  0
  8  9  1  0  0  0
 11 14  1  0  0  0
  3  4  1  0  0  0
 53 54  1  0  0  0
M  END
> <minimizedAffinity>
-8.95621

$$$$
2FXU_BID_A_402


 54 56  0  0  0  0  0  0  0  0999 V2000
   17.5427  -11.2527   37.2557 O   0  0  0  0  0  0  0  0  0  0  0  0
   17.2045  -12.3845   36.9550 C   0  0  0  0  0  0  0  0  0  0  0  0
   17.5697  -13.4578   37.6334 N   0  0  0  0  0  0  0  0  0  0  0  0
   17.2594  -14.3341   37.3093 H   0  0  0  0  0  0  0  0  0  0  0  0
   16.3365  -12.5835   35.7446 C   0  0  0  0  0  0  0  0  0  0  0  0
   17.0209  -13.6113   34.8134 C   0  0  0  0  0  0  0  0  0  0  0  0
   14.8926  -12.9516   36.1111 C   0  0  0  0  0  0  0  0  0  0  0  0
   14.0076  -12.5272   35.0783 O   0  0  0  0  0  0  0  0  0  0  0  0
   14.2415  -12.9725   34.2489 H   0  0  0  0  0  0  0  0  0  0  0  0
   14.7812  -14.4601   36.3784 C   0  0  0  0  0  0  0  0  0  0  0  0
   13.4334  -14.9651   36.1166 N   0  0  0  0  0  0  0  0  0  0  0  0
   12.7875  -15.8343   36.8801 C   0  0  0  0  0  0  0  0  0  0  0  0
   13.2967  -16.2281   37.9291 O   0  0  0  0  0  0  0  0  0  0  0  0
   12.9715  -14.6343   35.3126 H   0  0  0  0  0  0  0  0  0  0  0  0
   11.4014  -16.2662   36.4610 C   0  0  0  0  0  0  0  0  0  0  0  0
   11.3727  -17.7325   36.0528 C   0  0  0  0  0  0  0  0  0  0  0  0
   10.4364  -18.5603   36.9330 C   0  0  0  0  0  0  0  0  0  0  0  0
   10.7545  -18.4088   38.4054 C   0  0  0  0  0  0  0  0  0  0  0  0
    8.9755  -18.2324   36.6571 C   0  0  0  0  0  0  0  0  0  0  0  0
    8.6749  -18.4238   35.1877 C   0  0  0  0  0  0  0  0  0  0  0  0
   10.9857  -17.8406   34.6747 O   0  0  0  0  0  0  0  0  0  0  0  0
    9.6195  -17.6119   34.3102 C   0  0  0  0  0  0  0  0  0  0  0  0
    9.4206  -18.0545   32.8625 C   0  0  0  0  0  0  0  0  0  0  0  0
    8.7287  -17.0007   32.0219 C   0  0  0  0  0  0  0  0  0  0  0  0
    8.7219  -17.1067   30.8098 O   0  0  0  0  0  0  0  0  0  0  0  0
    8.0603  -15.8241   32.6257 C   0  0  0  0  0  0  0  0  0  0  0  0
    7.3164  -14.9680   31.9214 C   0  0  0  0  0  0  0  0  0  0  0  0
    6.6676  -13.7868   32.6054 C   0  0  0  0  0  0  0  0  0  0  0  0
   18.4017  -13.4303   38.8301 C   0  0  0  0  0  0  0  0  0  0  0  0
   19.4618  -14.5101   38.6911 C   0  0  0  0  0  0  0  0  0  0  0  0
   20.4668  -14.1790   37.5887 C   0  0  0  0  0  0  0  0  0  0  0  0
   21.2473  -15.4227   37.2147 C   0  0  0  0  0  0  0  0  0  0  0  0
   20.4724  -16.4085   36.3383 C   0  0  0  0  0  0  0  0  0  0  0  0
   20.0817  -15.7864   34.9953 C   0  0  0  0  0  0  0  0  0  0  0  0
   21.3013  -17.6827   36.2005 C   0  0  0  0  0  0  0  0  0  0  0  0
   21.6908  -18.2375   37.5692 C   0  0  0  0  0  0  0  0  0  0  0  0
   22.4150  -17.1794   38.4005 C   0  0  0  0  0  0  0  0  0  0  0  0
   21.5413  -16.0588   38.4492 O   0  0  0  0  0  0  0  0  0  0  0  0
   22.6224  -17.6191   39.8464 C   0  0  0  0  0  0  0  0  0  0  0  0
   23.4152  -16.5939   40.6513 C   0  0  0  0  0  0  0  0  0  0  0  0
   24.7291  -16.3231   39.9308 C   0  0  0  0  0  0  0  0  0  0  0  0
   24.4165  -15.8519   38.5220 C   0  0  0  0  0  0  0  0  0  0  0  0
   23.6867  -16.8827   37.8144 O   0  0  0  0  0  0  0  0  0  0  0  0
   25.6898  -15.5890   37.7635 C   0  0  0  0  0  0  0  0  0  0  0  0
   25.6042  -14.3404   36.8889 C   0  0  0  0  0  0  0  0  0  0  0  0
   24.2983  -13.5522   37.0757 C   0  0  0  0  0  0  0  0  0  0  0  0
   23.5952  -13.2411   35.7508 C   0  0  0  0  0  0  0  0  0  0  0  0
   24.5920  -12.2586   37.8091 C   0  0  0  0  0  0  0  0  0  0  0  0
   24.0208  -11.8872   38.9740 C   0  0  0  0  0  0  0  0  0  0  0  0
   22.9693  -12.6982   39.6973 C   0  0  0  0  0  0  0  0  0  0  0  0
   24.4010  -10.5747   39.6116 C   0  0  0  0  0  0  0  0  0  0  0  0
   23.8246  -10.5061   41.0204 C   0  0  0  0  0  0  0  0  0  0  0  0
   23.8806   -9.5007   38.8190 O   0  0  0  0  0  0  0  0  0  0  0  0
   22.9147   -9.5743   38.7689 H   0  0  0  0  0  0  0  0  0  0  0  0
  1  2  2  0  0  0
  2  5  1  0  0  0
  2  3  1  0  0  0
  5  6  1  0  0  0
  5  7  1  0  0  0
  7  8  1  0  0  0
  7 10  1  0  0  0
 10 11  1  0  0  0
 11 12  1  0  0  0
 12 13  2  0  0  0
 12 15  1  0  0  0
 15 16  1  0  0  0
 16 17  1  0  0  0
 16 21  1  0  0  0
 17 18  1  0  0  0
 17 19  1  0  0  0
 19 20  1  0  0  0
 20 22  1  0  0  0
 21 22  1  0  0  0
 22 23  1  0  0  0
 23 24  1  0  0  0
 24 25  2  0  0  0
 24 26  1  0  0  0
 26 27  2  0  0  0
 27 28  1  0  0  0
  3 29  1  0  0  0
 29 30  1  0  0  0
 30 31  1  0  0  0
 31 32  1  0  0  0
 32 33  1  0  0  0
 32 38  1  0  0  0
 33 34  1  0  0  0
 33 35  1  0  0  0
 35 36  1  0  0  0
 36 37  1  0  0  0
 37 38  1  0  0  0
 37 39  1  0  0  0
 37 43  1  0  0  0
 39 40  1  0  0  0
 40 41  1  0  0  0
 41 42  1  0  0  0
 42 43  1  0  0  0
 42 44  1  0  0  0
 44 45  1  0  0  0
 45 46  1  0  0  0
 46 47  1  0  0  0
 46 48  1  0  0  0
 48 49  2  0  0  0
 49 50  1  0  0  0
 49 51  1  0  0  0
 51 52  1  0  0  0
 51 53  1  0  0  0
  8  9  1  0  0  0
 11 14  1  0  0  0
  3  4  1  0  0  0
 53 54  1  0  0  0
M  END
> <minimizedAffinity>
-8.80607

$$$$
2FXU_BID_A_402


 54 56  0  0  0  0  0  0  0  0999 V2000
   19.3642  -13.5521   42.0870 O   0  0  0  0  0  0  0  0  0  0  0  0
   18.7685  -14.4991   41.6030 C   0  0  0  0  0  0  0  0  0  0  0  0
   17.6697  -14.3753   40.8799 N   0  0  0  0  0  0  0  0  0  0  0  0
   17.2482  -15.1974   40.5398 H   0  0  0  0  0  0  0  0  0  0  0  0
   19.2951  -15.8857   41.8442 C   0  0  0  0  0  0  0  0  0  0  0  0
   18.2664  -16.9032   41.2979 C   0  0  0  0  0  0  0  0  0  0  0  0
   20.7106  -16.0820   41.2855 C   0  0  0  0  0  0  0  0  0  0  0  0
   20.8575  -15.3519   40.0708 O   0  0  0  0  0  0  0  0  0  0  0  0
   20.7187  -14.4074   40.2425 H   0  0  0  0  0  0  0  0  0  0  0  0
   21.7562  -15.6700   42.3326 C   0  0  0  0  0  0  0  0  0  0  0  0
   22.2392  -14.3060   42.1177 N   0  0  0  0  0  0  0  0  0  0  0  0
   23.4961  -13.9790   41.8551 C   0  0  0  0  0  0  0  0  0  0  0  0
   24.3436  -14.8601   41.7136 O   0  0  0  0  0  0  0  0  0  0  0  0
   21.5809  -13.5760   42.1724 H   0  0  0  0  0  0  0  0  0  0  0  0
   23.8340  -12.5175   41.6721 C   0  0  0  0  0  0  0  0  0  0  0  0
   22.9203  -11.8567   40.6493 C   0  0  0  0  0  0  0  0  0  0  0  0
   23.5484  -10.6063   40.0342 C   0  0  0  0  0  0  0  0  0  0  0  0
   23.9967   -9.6154   41.0875 C   0  0  0  0  0  0  0  0  0  0  0  0
   24.6964  -10.9604   39.0990 C   0  0  0  0  0  0  0  0  0  0  0  0
   24.2153  -11.9235   38.0373 C   0  0  0  0  0  0  0  0  0  0  0  0
   22.5849  -12.8021   39.6224 O   0  0  0  0  0  0  0  0  0  0  0  0
   23.5738  -13.1618   38.6507 C   0  0  0  0  0  0  0  0  0  0  0  0
   22.8944  -13.9480   37.5318 C   0  0  0  0  0  0  0  0  0  0  0  0
   23.8809  -14.7299   36.6885 C   0  0  0  0  0  0  0  0  0  0  0  0
   24.4542  -15.6900   37.1681 O   0  0  0  0  0  0  0  0  0  0  0  0
   24.1874  -14.3596   35.2869 C   0  0  0  0  0  0  0  0  0  0  0  0
   24.0912  -13.1104   34.8260 C   0  0  0  0  0  0  0  0  0  0  0  0
   24.4170  -12.8081   33.3814 C   0  0  0  0  0  0  0  0  0  0  0  0
   17.0402  -13.1020   40.5524 C   0  0  0  0  0  0  0  0  0  0  0  0
   17.0943  -12.9244   39.0441 C   0  0  0  0  0  0  0  0  0  0  0  0
   18.2229  -13.7419   38.4175 C   0  0  0  0  0  0  0  0  0  0  0  0
   17.7562  -14.3411   37.1063 C   0  0  0  0  0  0  0  0  0  0  0  0
   18.8911  -14.7719   36.1753 C   0  0  0  0  0  0  0  0  0  0  0  0
   19.7571  -15.8652   36.8063 C   0  0  0  0  0  0  0  0  0  0  0  0
   18.2850  -15.1745   34.8337 C   0  0  0  0  0  0  0  0  0  0  0  0
   17.4047  -14.0606   34.2703 C   0  0  0  0  0  0  0  0  0  0  0  0
   16.3294  -13.6537   35.2768 C   0  0  0  0  0  0  0  0  0  0  0  0
   17.0237  -13.3063   36.4678 O   0  0  0  0  0  0  0  0  0  0  0  0
   15.5744  -12.4006   34.8447 C   0  0  0  0  0  0  0  0  0  0  0  0
   14.4499  -12.0441   35.8122 C   0  0  0  0  0  0  0  0  0  0  0  0
   13.5358  -13.2530   35.9593 C   0  0  0  0  0  0  0  0  0  0  0  0
   14.3687  -14.4308   36.4323 C   0  0  0  0  0  0  0  0  0  0  0  0
   15.3961  -14.7242   35.4554 O   0  0  0  0  0  0  0  0  0  0  0  0
   13.5077  -15.6573   36.5743 C   0  0  0  0  0  0  0  0  0  0  0  0
   12.1257  -15.3410   37.1411 C   0  0  0  0  0  0  0  0  0  0  0  0
   11.0070  -16.2087   36.5431 C   0  0  0  0  0  0  0  0  0  0  0  0
    9.8530  -16.4504   37.5210 C   0  0  0  0  0  0  0  0  0  0  0  0
   11.5838  -17.5391   36.1017 C   0  0  0  0  0  0  0  0  0  0  0  0
   11.1804  -18.2307   35.0154 C   0  0  0  0  0  0  0  0  0  0  0  0
   10.0597  -17.7911   34.1003 C   0  0  0  0  0  0  0  0  0  0  0  0
   11.8381  -19.5443   34.6750 C   0  0  0  0  0  0  0  0  0  0  0  0
   11.0353  -20.2504   33.5894 C   0  0  0  0  0  0  0  0  0  0  0  0
   11.8908  -20.3605   35.8512 O   0  0  0  0  0  0  0  0  0  0  0  0
   10.9905  -20.5180   36.1762 H   0  0  0  0  0  0  0  0  0  0  0  0
  1  2  2  0  0  0
  2  5  1  0  0  0
  2  3  1  0  0  0
  5  6  1  0  0  0
  5  7  1  0  0  0
  7  8  1  0  0  0
  7 10  1  0  0  0
 10 11  1  0  0  0
 11 12  1  0  0  0
 12 13  2  0  0  0
 12 15  1  0  0  0
 15 16  1  0  0  0
 16 17  1  0  0  0
 16 21  1  0  0  0
 17 18  1  0  0  0
 17 19  1  0  0  0
 19 20  1  0  0  0
 20 22  1  0  0  0
 21 22  1  0  0  0
 22 23  1  0  0  0
 23 24  1  0  0  0
 24 25  2  0  0  0
 24 26  1  0  0  0
 26 27  2  0  0  0
 27 28  1  0  0  0
  3 29  1  0  0  0
 29 30  1  0  0  0
 30 31  1  0  0  0
 31 32  1  0  0  0
 32 33  1  0  0  0
 32 38  1  0  0  0
 33 34  1  0  0  0
 33 35  1  0  0  0
 35 36  1  0  0  0
 36 37  1  0  0  0
 37 38  1  0  0  0
 37 39  1  0  0  0
 37 43  1  0  0  0
 39 40  1  0  0  0
 40 41  1  0  0  0
 41 42  1  0  0  0
 42 43  1  0  0  0
 42 44  1  0  0  0
 44 45  1  0  0  0
 45 46  1  0  0  0
 46 47  1  0  0  0
 46 48  1  0  0  0
 48 49  2  0  0  0
 49 50  1  0  0  0
 49 51  1  0  0  0
 51 52  1  0  0  0
 51 53  1  0  0  0
  8  9  1  0  0  0
 11 14  1  0  0  0
  3  4  1  0  0  0
 53 54  1  0  0  0
M  END
> <minimizedAffinity>
-8.74327

$$$$
2FXU_BID_A_402


 54 56  0  0  0  0  0  0  0  0999 V2000
   16.6329  -11.6146   37.0849 O   0  0  0  0  0  0  0  0  0  0  0  0
   16.8322  -12.8003   36.8842 C   0  0  0  0  0  0  0  0  0  0  0  0
   17.1465  -13.6575   37.8392 N   0  0  0  0  0  0  0  0  0  0  0  0
   17.3027  -14.5949   37.5824 H   0  0  0  0  0  0  0  0  0  0  0  0
   16.7295  -13.3243   35.4796 C   0  0  0  0  0  0  0  0  0  0  0  0
   17.8926  -14.3148   35.2390 C   0  0  0  0  0  0  0  0  0  0  0  0
   15.3465  -13.9134   35.1719 C   0  0  0  0  0  0  0  0  0  0  0  0
   15.4899  -15.1939   34.5639 O   0  0  0  0  0  0  0  0  0  0  0  0
   15.9541  -15.7904   35.1719 H   0  0  0  0  0  0  0  0  0  0  0  0
   14.5003  -13.9776   36.4521 C   0  0  0  0  0  0  0  0  0  0  0  0
   13.2001  -14.6063   36.2190 N   0  0  0  0  0  0  0  0  0  0  0  0
   12.7226  -15.6368   36.9015 C   0  0  0  0  0  0  0  0  0  0  0  0
   13.3600  -16.0943   37.8497 O   0  0  0  0  0  0  0  0  0  0  0  0
   12.6375  -14.2358   35.5011 H   0  0  0  0  0  0  0  0  0  0  0  0
   11.3629  -16.1784   36.5254 C   0  0  0  0  0  0  0  0  0  0  0  0
   11.4428  -17.6348   36.0891 C   0  0  0  0  0  0  0  0  0  0  0  0
   10.5204  -18.5363   36.9095 C   0  0  0  0  0  0  0  0  0  0  0  0
   10.7619  -18.3973   38.3976 C   0  0  0  0  0  0  0  0  0  0  0  0
    9.0561  -18.2916   36.5723 C   0  0  0  0  0  0  0  0  0  0  0  0
    8.8344  -18.4694   35.0872 C   0  0  0  0  0  0  0  0  0  0  0  0
   11.1258  -17.7366   34.6928 O   0  0  0  0  0  0  0  0  0  0  0  0
    9.7660  -17.5833   34.2697 C   0  0  0  0  0  0  0  0  0  0  0  0
    9.6602  -18.0061   32.8063 C   0  0  0  0  0  0  0  0  0  0  0  0
    8.5967  -17.2332   32.0530 C   0  0  0  0  0  0  0  0  0  0  0  0
    8.0370  -17.7489   31.1036 O   0  0  0  0  0  0  0  0  0  0  0  0
    8.2139  -15.8510   32.4254 C   0  0  0  0  0  0  0  0  0  0  0  0
    6.9930  -15.3524   32.2177 C   0  0  0  0  0  0  0  0  0  0  0  0
    6.6762  -13.9307   32.6208 C   0  0  0  0  0  0  0  0  0  0  0  0
   17.2773  -13.3069   39.2481 C   0  0  0  0  0  0  0  0  0  0  0  0
   18.6003  -13.8612   39.7500 C   0  0  0  0  0  0  0  0  0  0  0  0
   19.6557  -13.8958   38.6457 C   0  0  0  0  0  0  0  0  0  0  0  0
   20.9275  -14.5305   39.1705 C   0  0  0  0  0  0  0  0  0  0  0  0
   20.7137  -15.8710   39.8760 C   0  0  0  0  0  0  0  0  0  0  0  0
   20.1264  -16.9216   38.9300 C   0  0  0  0  0  0  0  0  0  0  0  0
   22.0348  -16.2952   40.5116 C   0  0  0  0  0  0  0  0  0  0  0  0
   22.5896  -15.1960   41.4155 C   0  0  0  0  0  0  0  0  0  0  0  0
   22.7269  -13.8796   40.6516 C   0  0  0  0  0  0  0  0  0  0  0  0
   21.4386  -13.6045   40.1172 O   0  0  0  0  0  0  0  0  0  0  0  0
   23.0649  -12.7088   41.5691 C   0  0  0  0  0  0  0  0  0  0  0  0
   23.2791  -11.4129   40.7930 C   0  0  0  0  0  0  0  0  0  0  0  0
   24.3490  -11.6523   39.7362 C   0  0  0  0  0  0  0  0  0  0  0  0
   23.9020  -12.8020   38.8513 C   0  0  0  0  0  0  0  0  0  0  0  0
   23.7433  -13.9984   39.6507 O   0  0  0  0  0  0  0  0  0  0  0  0
   24.9406  -13.0877   37.7999 C   0  0  0  0  0  0  0  0  0  0  0  0
   24.5631  -12.5207   36.4335 C   0  0  0  0  0  0  0  0  0  0  0  0
   24.5804  -13.5700   35.3108 C   0  0  0  0  0  0  0  0  0  0  0  0
   24.8183  -12.9582   33.9268 C   0  0  0  0  0  0  0  0  0  0  0  0
   23.2678  -14.3282   35.3105 C   0  0  0  0  0  0  0  0  0  0  0  0
   23.1069  -15.5890   35.7639 C   0  0  0  0  0  0  0  0  0  0  0  0
   24.2311  -16.4440   36.3041 C   0  0  0  0  0  0  0  0  0  0  0  0
   21.7455  -16.2357   35.7167 C   0  0  0  0  0  0  0  0  0  0  0  0
   21.8824  -17.7318   35.9703 C   0  0  0  0  0  0  0  0  0  0  0  0
   21.1646  -16.0110   34.4265 O   0  0  0  0  0  0  0  0  0  0  0  0
   21.7354  -16.3961   33.7433 H   0  0  0  0  0  0  0  0  0  0  0  0
  1  2  2  0  0  0
  2  5  1  0  0  0
  2  3  1  0  0  0
  5  6  1  0  0  0
  5  7  1  0  0  0
  7  8  1  0  0  0
  7 10  1  0  0  0
 10 11  1  0  0  0
 11 12  1  0  0  0
 12 13  2  0  0  0
 12 15  1  0  0  0
 15 16  1  0  0  0
 16 17  1  0  0  0
 16 21  1  0  0  0
 17 18  1  0  0  0
 17 19  1  0  0  0
 19 20  1  0  0  0
 20 22  1  0  0  0
 21 22  1  0  0  0
 22 23  1  0  0  0
 23 24  1  0  0  0
 24 25  2  0  0  0
 24 26  1  0  0  0
 26 27  2  0  0  0
 27 28  1  0  0  0
  3 29  1  0  0  0
 29 30  1  0  0  0
 30 31  1  0  0  0
 31 32  1  0  0  0
 32 33  1  0  0  0
 32 38  1  0  0  0
 33 34  1  0  0  0
 33 35  1  0  0  0
 35 36  1  0  0  0
 36 37  1  0  0  0
 37 38  1  0  0  0
 37 39  1  0  0  0
 37 43  1  0  0  0
 39 40  1  0  0  0
 40 41  1  0  0  0
 41 42  1  0  0  0
 42 43  1  0  0  0
 42 44  1  0  0  0
 44 45  1  0  0  0
 45 46  1  0  0  0
 46 47  1  0  0  0
 46 48  1  0  0  0
 48 49  2  0  0  0
 49 50  1  0  0  0
 49 51  1  0  0  0
 51 52  1  0  0  0
 51 53  1  0  0  0
  8  9  1  0  0  0
 11 14  1  0  0  0
  3  4  1  0  0  0
 53 54  1  0  0  0
M  END
> <minimizedAffinity>
-8.57405

$$$$
2FXU_BID_A_402


 54 56  0  0  0  0  0  0  0  0999 V2000
   12.9882  -13.1272   36.8846 O   0  0  0  0  0  0  0  0  0  0  0  0
   13.6971  -13.8276   36.1826 C   0  0  0  0  0  0  0  0  0  0  0  0
   13.6631  -15.1481   36.2019 N   0  0  0  0  0  0  0  0  0  0  0  0
   14.2821  -15.6326   35.6090 H   0  0  0  0  0  0  0  0  0  0  0  0
   14.6731  -13.1661   35.2508 C   0  0  0  0  0  0  0  0  0  0  0  0
   13.8848  -12.2577   34.2786 C   0  0  0  0  0  0  0  0  0  0  0  0
   15.7975  -12.4374   35.9985 C   0  0  0  0  0  0  0  0  0  0  0  0
   15.5776  -12.5201   37.4038 O   0  0  0  0  0  0  0  0  0  0  0  0
   15.5748  -13.4510   37.6763 H   0  0  0  0  0  0  0  0  0  0  0  0
   17.1630  -13.0145   35.5964 C   0  0  0  0  0  0  0  0  0  0  0  0
   17.6663  -13.9702   36.5831 N   0  0  0  0  0  0  0  0  0  0  0  0
   18.3564  -13.6482   37.6674 C   0  0  0  0  0  0  0  0  0  0  0  0
   18.5620  -12.4650   37.9362 O   0  0  0  0  0  0  0  0  0  0  0  0
   17.4781  -14.9243   36.4299 H   0  0  0  0  0  0  0  0  0  0  0  0
   18.8162  -14.7602   38.5816 C   0  0  0  0  0  0  0  0  0  0  0  0
   20.3125  -15.0086   38.4503 C   0  0  0  0  0  0  0  0  0  0  0  0
   20.7651  -16.2427   39.2304 C   0  0  0  0  0  0  0  0  0  0  0  0
   20.3460  -16.1847   40.6841 C   0  0  0  0  0  0  0  0  0  0  0  0
   20.2764  -17.5274   38.5757 C   0  0  0  0  0  0  0  0  0  0  0  0
   20.7360  -17.5772   37.1362 C   0  0  0  0  0  0  0  0  0  0  0  0
   20.6580  -15.1417   37.0634 O   0  0  0  0  0  0  0  0  0  0  0  0
   20.2994  -16.3388   36.3635 C   0  0  0  0  0  0  0  0  0  0  0  0
   21.0123  -16.3461   35.0132 C   0  0  0  0  0  0  0  0  0  0  0  0
   22.4902  -16.0350   35.1340 C   0  0  0  0  0  0  0  0  0  0  0  0
   23.1842  -16.6930   35.8863 O   0  0  0  0  0  0  0  0  0  0  0  0
   23.1304  -14.9388   34.3697 C   0  0  0  0  0  0  0  0  0  0  0  0
   23.7165  -13.8903   34.9525 C   0  0  0  0  0  0  0  0  0  0  0  0
   24.3463  -12.8073   34.1073 C   0  0  0  0  0  0  0  0  0  0  0  0
   12.7698  -15.9354   37.0428 C   0  0  0  0  0  0  0  0  0  0  0  0
   11.4778  -16.1606   36.2752 C   0  0  0  0  0  0  0  0  0  0  0  0
   10.2551  -16.0801   37.1880 C   0  0  0  0  0  0  0  0  0  0  0  0
    9.1653  -16.9960   36.6688 C   0  0  0  0  0  0  0  0  0  0  0  0
    8.5102  -17.8631   37.7455 C   0  0  0  0  0  0  0  0  0  0  0  0
    7.8160  -17.0128   38.8126 C   0  0  0  0  0  0  0  0  0  0  0  0
    7.5782  -18.8582   37.0593 C   0  0  0  0  0  0  0  0  0  0  0  0
    8.3158  -19.6518   35.9826 C   0  0  0  0  0  0  0  0  0  0  0  0
    8.9828  -18.7154   34.9759 C   0  0  0  0  0  0  0  0  0  0  0  0
    9.8140  -17.8517   35.7403 O   0  0  0  0  0  0  0  0  0  0  0  0
    9.9090  -19.4579   34.0180 C   0  0  0  0  0  0  0  0  0  0  0  0
   10.5105  -18.5317   32.9655 C   0  0  0  0  0  0  0  0  0  0  0  0
    9.3760  -17.8182   32.2427 C   0  0  0  0  0  0  0  0  0  0  0  0
    8.5411  -17.0773   33.2716 C   0  0  0  0  0  0  0  0  0  0  0  0
    7.9861  -18.0207   34.2190 O   0  0  0  0  0  0  0  0  0  0  0  0
    7.3929  -16.3700   32.6028 C   0  0  0  0  0  0  0  0  0  0  0  0
    7.7937  -15.7233   31.2790 C   0  0  0  0  0  0  0  0  0  0  0  0
    6.9734  -16.2262   30.0806 C   0  0  0  0  0  0  0  0  0  0  0  0
    7.8403  -16.8640   28.9906 C   0  0  0  0  0  0  0  0  0  0  0  0
    6.1855  -15.0733   29.4910 C   0  0  0  0  0  0  0  0  0  0  0  0
    5.0445  -15.2032   28.7823 C   0  0  0  0  0  0  0  0  0  0  0  0
    4.4074  -16.5313   28.4402 C   0  0  0  0  0  0  0  0  0  0  0  0
    4.3467  -13.9764   28.2514 C   0  0  0  0  0  0  0  0  0  0  0  0
    2.8393  -14.1966   28.2753 C   0  0  0  0  0  0  0  0  0  0  0  0
    4.7828  -13.7337   26.9085 O   0  0  0  0  0  0  0  0  0  0  0  0
    4.5668  -14.5004   26.3548 H   0  0  0  0  0  0  0  0  0  0  0  0
  1  2  2  0  0  0
  2  5  1  0  0  0
  2  3  1  0  0  0
  5  6  1  0  0  0
  5  7  1  0  0  0
  7  8  1  0  0  0
  7 10  1  0  0  0
 10 11  1  0  0  0
 11 12  1  0  0  0
 12 13  2  0  0  0
 12 15  1  0  0  0
 15 16  1  0  0  0
 16 17  1  0  0  0
 16 21  1  0  0  0
 17 18  1  0  0  0
 17 19  1  0  0  0
 19 20  1  0  0  0
 20 22  1  0  0  0
 21 22  1  0  0  0
 22 23  1  0  0  0
 23 24  1  0  0  0
 24 25  2  0  0  0
 24 26  1  0  0  0
 26 27  2  0  0  0
 27 28  1  0  0  0
  3 29  1  0  0  0
 29 30  1  0  0  0
 30 31  1  0  0  0
 31 32  1  0  0  0
 32 33  1  0  0  0
 32 38  1  0  0  0
 33 34  1  0  0  0
 33 35  1  0  0  0
 35 36  1  0  0  0
 36 37  1  0  0  0
 37 38  1  0  0  0
 37 39  1  0  0  0
 37 43  1  0  0  0
 39 40  1  0  0  0
 40 41  1  0  0  0
 41 42  1  0  0  0
 42 43  1  0  0  0
 42 44  1  0  0  0
 44 45  1  0  0  0
 45 46  1  0  0  0
 46 47  1  0  0  0
 46 48  1  0  0  0
 48 49  2  0  0  0
 49 50  1  0  0  0
 49 51  1  0  0  0
 51 52  1  0  0  0
 51 53  1  0  0  0
  8  9  1  0  0  0
 11 14  1  0  0  0
  3  4  1  0  0  0
 53 54  1  0  0  0
M  END
> <minimizedAffinity>
-8.36630

$$$$
2FXU_BID_A_402


 54 56  0  0  0  0  0  0  0  0999 V2000
   11.8599  -14.4043   37.9979 O   0  0  0  0  0  0  0  0  0  0  0  0
   12.1906  -15.3203   37.2647 C   0  0  0  0  0  0  0  0  0  0  0  0
   13.3109  -15.3239   36.5644 N   0  0  0  0  0  0  0  0  0  0  0  0
   13.4900  -16.1015   35.9877 H   0  0  0  0  0  0  0  0  0  0  0  0
   11.2790  -16.5076   37.1330 C   0  0  0  0  0  0  0  0  0  0  0  0
    9.9207  -16.1583   37.7847 C   0  0  0  0  0  0  0  0  0  0  0  0
   11.1580  -16.9975   35.6839 C   0  0  0  0  0  0  0  0  0  0  0  0
   12.1462  -17.9906   35.4243 O   0  0  0  0  0  0  0  0  0  0  0  0
   12.0116  -18.7442   36.0200 H   0  0  0  0  0  0  0  0  0  0  0  0
    9.7377  -17.5177   35.4166 C   0  0  0  0  0  0  0  0  0  0  0  0
    9.1313  -16.8804   34.2477 N   0  0  0  0  0  0  0  0  0  0  0  0
    9.1530  -17.3737   33.0181 C   0  0  0  0  0  0  0  0  0  0  0  0
    9.6580  -18.4760   32.8071 O   0  0  0  0  0  0  0  0  0  0  0  0
    8.6727  -16.0201   34.3850 H   0  0  0  0  0  0  0  0  0  0  0  0
    8.4890  -16.5819   31.9156 C   0  0  0  0  0  0  0  0  0  0  0  0
    6.9825  -16.4967   32.1183 C   0  0  0  0  0  0  0  0  0  0  0  0
    6.4468  -15.0832   31.8915 C   0  0  0  0  0  0  0  0  0  0  0  0
    7.1710  -14.0559   32.7355 C   0  0  0  0  0  0  0  0  0  0  0  0
    6.4868  -14.7006   30.4184 C   0  0  0  0  0  0  0  0  0  0  0  0
    5.7289  -15.7227   29.6017 C   0  0  0  0  0  0  0  0  0  0  0  0
    6.3261  -17.4248   31.2417 O   0  0  0  0  0  0  0  0  0  0  0  0
    6.2519  -17.1335   29.8412 C   0  0  0  0  0  0  0  0  0  0  0  0
    5.2818  -18.1163   29.1897 C   0  0  0  0  0  0  0  0  0  0  0  0
    5.9365  -19.4389   28.8466 C   0  0  0  0  0  0  0  0  0  0  0  0
    7.0656  -19.4519   28.3934 O   0  0  0  0  0  0  0  0  0  0  0  0
    5.2421  -20.7345   29.0336 C   0  0  0  0  0  0  0  0  0  0  0  0
    5.4824  -21.5475   30.0649 C   0  0  0  0  0  0  0  0  0  0  0  0
    4.7374  -22.8566   30.1880 C   0  0  0  0  0  0  0  0  0  0  0  0
   14.2994  -14.2529   36.5891 C   0  0  0  0  0  0  0  0  0  0  0  0
   15.5422  -14.7755   37.2902 C   0  0  0  0  0  0  0  0  0  0  0  0
   16.5589  -13.6638   37.5448 C   0  0  0  0  0  0  0  0  0  0  0  0
   17.7711  -13.8633   36.6578 C   0  0  0  0  0  0  0  0  0  0  0  0
   17.4424  -14.0061   35.1706 C   0  0  0  0  0  0  0  0  0  0  0  0
   16.7683  -12.7484   34.6162 C   0  0  0  0  0  0  0  0  0  0  0  0
   18.7216  -14.3873   34.4305 C   0  0  0  0  0  0  0  0  0  0  0  0
   19.3675  -15.6259   35.0483 C   0  0  0  0  0  0  0  0  0  0  0  0
   19.6180  -15.4225   36.5420 C   0  0  0  0  0  0  0  0  0  0  0  0
   18.3586  -15.0763   37.1034 O   0  0  0  0  0  0  0  0  0  0  0  0
   20.0540  -16.7081   37.2376 C   0  0  0  0  0  0  0  0  0  0  0  0
   20.3794  -16.4830   38.7110 C   0  0  0  0  0  0  0  0  0  0  0  0
   21.4261  -15.3818   38.8134 C   0  0  0  0  0  0  0  0  0  0  0  0
   20.8832  -14.1378   38.1333 C   0  0  0  0  0  0  0  0  0  0  0  0
   20.6216  -14.4208   36.7379 O   0  0  0  0  0  0  0  0  0  0  0  0
   21.8947  -13.0247   38.1935 C   0  0  0  0  0  0  0  0  0  0  0  0
   23.2494  -13.4915   38.7208 C   0  0  0  0  0  0  0  0  0  0  0  0
   24.4168  -13.1712   37.7739 C   0  0  0  0  0  0  0  0  0  0  0  0
   24.8215  -11.6942   37.8053 C   0  0  0  0  0  0  0  0  0  0  0  0
   24.0389  -13.5628   36.3592 C   0  0  0  0  0  0  0  0  0  0  0  0
   24.1143  -14.8145   35.8606 C   0  0  0  0  0  0  0  0  0  0  0  0
   24.6281  -16.0055   36.6380 C   0  0  0  0  0  0  0  0  0  0  0  0
   23.7024  -15.0807   34.4347 C   0  0  0  0  0  0  0  0  0  0  0  0
   23.5618  -13.7593   33.6893 C   0  0  0  0  0  0  0  0  0  0  0  0
   22.4510  -15.7782   34.4311 O   0  0  0  0  0  0  0  0  0  0  0  0
   21.7778  -15.2368   34.8722 H   0  0  0  0  0  0  0  0  0  0  0  0
  1  2  2  0  0  0
  2  5  1  0  0  0
  2  3  1  0  0  0
  5  6  1  0  0  0
  5  7  1  0  0  0
  7  8  1  0  0  0
  7 10  1  0  0  0
 10 11  1  0  0  0
 11 12  1  0  0  0
 12 13  2  0  0  0
 12 15  1  0  0  0
 15 16  1  0  0  0
 16 17  1  0  0  0
 16 21  1  0  0  0
 17 18  1  0  0  0
 17 19  1  0  0  0
 19 20  1  0  0  0
 20 22  1  0  0  0
 21 22  1  0  0  0
 22 23  1  0  0  0
 23 24  1  0  0  0
 24 25  2  0  0  0
 24 26  1  0  0  0
 26 27  2  0  0  0
 27 28  1  0  0  0
  3 29  1  0  0  0
 29 30  1  0  0  0
 30 31  1  0  0  0
 31 32  1  0  0  0
 32 33  1  0  0  0
 32 38  1  0  0  0
 33 34  1  0  0  0
 33 35  1  0  0  0
 35 36  1  0  0  0
 36 37  1  0  0  0
 37 38  1  0  0  0
 37 39  1  0  0  0
 37 43  1  0  0  0
 39 40  1  0  0  0
 40 41  1  0  0  0
 41 42  1  0  0  0
 42 43  1  0  0  0
 42 44  1  0  0  0
 44 45  1  0  0  0
 45 46  1  0  0  0
 46 47  1  0  0  0
 46 48  1  0  0  0
 48 49  2  0  0  0
 49 50  1  0  0  0
 49 51  1  0  0  0
 51 52  1  0  0  0
 51 53  1  0  0  0
  8  9  1  0  0  0
 11 14  1  0  0  0
  3  4  1  0  0  0
 53 54  1  0  0  0
M  END
> <minimizedAffinity>
-8.25553

$$$$
2FXU_BID_A_402


 54 56  0  0  0  0  0  0  0  0999 V2000
    6.9933  -14.2618   30.6852 O   0  0  0  0  0  0  0  0  0  0  0  0
    6.8838  -15.4731   30.7663 C   0  0  0  0  0  0  0  0  0  0  0  0
    7.3950  -16.1856   31.7546 N   0  0  0  0  0  0  0  0  0  0  0  0
    7.2682  -17.1616   31.7311 H   0  0  0  0  0  0  0  0  0  0  0  0
    6.1409  -16.2071   29.6858 C   0  0  0  0  0  0  0  0  0  0  0  0
    5.1538  -15.2241   29.0143 C   0  0  0  0  0  0  0  0  0  0  0  0
    7.0825  -16.9055   28.6958 C   0  0  0  0  0  0  0  0  0  0  0  0
    8.4365  -16.5998   29.0172 O   0  0  0  0  0  0  0  0  0  0  0  0
    8.6357  -16.9160   29.9124 H   0  0  0  0  0  0  0  0  0  0  0  0
    6.8212  -18.4191   28.6928 C   0  0  0  0  0  0  0  0  0  0  0  0
    5.8471  -18.8094   29.7120 N   0  0  0  0  0  0  0  0  0  0  0  0
    6.1510  -19.3336   30.8904 C   0  0  0  0  0  0  0  0  0  0  0  0
    7.3297  -19.4652   31.2189 O   0  0  0  0  0  0  0  0  0  0  0  0
    4.8940  -18.6723   29.5070 H   0  0  0  0  0  0  0  0  0  0  0  0
    5.0219  -19.6954   31.8273 C   0  0  0  0  0  0  0  0  0  0  0  0
    4.7443  -18.5791   32.8247 C   0  0  0  0  0  0  0  0  0  0  0  0
    3.3521  -18.6909   33.4460 C   0  0  0  0  0  0  0  0  0  0  0  0
    2.2634  -18.7700   32.3969 C   0  0  0  0  0  0  0  0  0  0  0  0
    3.2634  -19.8663   34.4096 C   0  0  0  0  0  0  0  0  0  0  0  0
    4.3384  -19.7463   35.4661 C   0  0  0  0  0  0  0  0  0  0  0  0
    5.7493  -18.5890   33.8496 O   0  0  0  0  0  0  0  0  0  0  0  0
    5.7241  -19.6176   34.8461 C   0  0  0  0  0  0  0  0  0  0  0  0
    6.7072  -19.2471   35.9541 C   0  0  0  0  0  0  0  0  0  0  0  0
    7.0257  -20.4160   36.8640 C   0  0  0  0  0  0  0  0  0  0  0  0
    7.1344  -20.2338   38.0621 O   0  0  0  0  0  0  0  0  0  0  0  0
    7.2236  -21.7892   36.3438 C   0  0  0  0  0  0  0  0  0  0  0  0
    8.2689  -22.1391   35.5906 C   0  0  0  0  0  0  0  0  0  0  0  0
    8.4025  -23.5596   35.0922 C   0  0  0  0  0  0  0  0  0  0  0  0
    8.1343  -15.6221   32.8775 C   0  0  0  0  0  0  0  0  0  0  0  0
    8.5100  -16.7600   33.8120 C   0  0  0  0  0  0  0  0  0  0  0  0
    9.5741  -17.6691   33.1987 C   0  0  0  0  0  0  0  0  0  0  0  0
   10.4778  -18.2096   34.2882 C   0  0  0  0  0  0  0  0  0  0  0  0
   10.6249  -19.7323   34.2818 C   0  0  0  0  0  0  0  0  0  0  0  0
   11.2553  -20.2350   32.9805 C   0  0  0  0  0  0  0  0  0  0  0  0
   11.3977  -20.1453   35.5315 C   0  0  0  0  0  0  0  0  0  0  0  0
   10.7434  -19.5870   36.7937 C   0  0  0  0  0  0  0  0  0  0  0  0
   10.5873  -18.0697   36.7015 C   0  0  0  0  0  0  0  0  0  0  0  0
    9.8573  -17.8263   35.5061 O   0  0  0  0  0  0  0  0  0  0  0  0
    9.7421  -17.5031   37.8379 C   0  0  0  0  0  0  0  0  0  0  0  0
    9.6553  -15.9808   37.7865 C   0  0  0  0  0  0  0  0  0  0  0  0
   11.0690  -15.4150   37.7741 C   0  0  0  0  0  0  0  0  0  0  0  0
   11.8118  -16.0031   36.5880 C   0  0  0  0  0  0  0  0  0  0  0  0
   11.8744  -17.4435   36.7182 O   0  0  0  0  0  0  0  0  0  0  0  0
   13.2244  -15.4849   36.5459 C   0  0  0  0  0  0  0  0  0  0  0  0
   13.2906  -13.9598   36.5758 C   0  0  0  0  0  0  0  0  0  0  0  0
   14.6789  -13.4016   36.2251 C   0  0  0  0  0  0  0  0  0  0  0  0
   15.0831  -13.6781   34.7737 C   0  0  0  0  0  0  0  0  0  0  0  0
   15.7118  -13.9977   37.1607 C   0  0  0  0  0  0  0  0  0  0  0  0
   16.7886  -13.3395   37.6386 C   0  0  0  0  0  0  0  0  0  0  0  0
   17.1404  -11.9149   37.2734 C   0  0  0  0  0  0  0  0  0  0  0  0
   17.7442  -14.0406   38.5709 C   0  0  0  0  0  0  0  0  0  0  0  0
   17.0137  -15.1592   39.3034 C   0  0  0  0  0  0  0  0  0  0  0  0
   18.2573  -13.0931   39.5151 O   0  0  0  0  0  0  0  0  0  0  0  0
   17.5234  -12.7120   40.0222 H   0  0  0  0  0  0  0  0  0  0  0  0
  1  2  2  0  0  0
  2  5  1  0  0  0
  2  3  1  0  0  0
  5  6  1  0  0  0
  5  7  1  0  0  0
  7  8  1  0  0  0
  7 10  1  0  0  0
 10 11  1  0  0  0
 11 12  1  0  0  0
 12 13  2  0  0  0
 12 15  1  0  0  0
 15 16  1  0  0  0
 16 17  1  0  0  0
 16 21  1  0  0  0
 17 18  1  0  0  0
 17 19  1  0  0  0
 19 20  1  0  0  0
 20 22  1  0  0  0
 21 22  1  0  0  0
 22 23  1  0  0  0
 23 24  1  0  0  0
 24 25  2  0  0  0
 24 26  1  0  0  0
 26 27  2  0  0  0
 27 28  1  0  0  0
  3 29  1  0  0  0
 29 30  1  0  0  0
 30 31  1  0  0  0
 31 32  1  0  0  0
 32 33  1  0  0  0
 32 38  1  0  0  0
 33 34  1  0  0  0
 33 35  1  0  0  0
 35 36  1  0  0  0
 36 37  1  0  0  0
 37 38  1  0  0  0
 37 39  1  0  0  0
 37 43  1  0  0  0
 39 40  1  0  0  0
 40 41  1  0  0  0
 41 42  1  0  0  0
 42 43  1  0  0  0
 42 44  1  0  0  0
 44 45  1  0  0  0
 45 46  1  0  0  0
 46 47  1  0  0  0
 46 48  1  0  0  0
 48 49  2  0  0  0
 49 50  1  0  0  0
 49 51  1  0  0  0
 51 52  1  0  0  0
 51 53  1  0  0  0
  8  9  1  0  0  0
 11 14  1  0  0  0
  3  4  1  0  0  0
 53 54  1  0  0  0
M  END
> <minimizedAffinity>
-8.10769

$$$$
