4I9H_1E4_A_401


 58 61  0  0  0  0  0  0  0  0999 V2000
   13.8464   16.5472   36.6311 C   0  0  0  0  0  0  0  0  0  0  0  0
   14.7057   17.6670   36.8274 O   0  0  0  0  0  0  0  0  0  0  0  0
   15.2074   17.5495   37.6493 H   0  0  0  0  0  0  0  0  0  0  0  0
   14.6122   15.2089   36.4383 C   0  0  0  0  0  0  0  0  0  0  0  0
   13.7390   14.0710   36.5339 O   0  0  0  0  0  0  0  0  0  0  0  0
   13.1162   14.0780   35.7903 H   0  0  0  0  0  0  0  0  0  0  0  0
   15.4283   15.0527   35.1016 C   0  0  0  0  0  0  0  0  0  0  0  0
   16.6264   15.7951   35.1971 O   0  0  0  0  0  0  0  0  0  0  0  0
   16.4164   16.7378   35.2868 H   0  0  0  0  0  0  0  0  0  0  0  0
   14.6136   15.2047   33.7716 C   0  0  0  0  0  0  0  0  0  0  0  0
   13.2765   15.4126   34.1766 O   0  0  0  0  0  0  0  0  0  0  0  0
   12.9580   14.6307   34.6542 H   0  0  0  0  0  0  0  0  0  0  0  0
   14.5974   14.0276   32.7800 C   0  0  0  0  0  0  0  0  0  0  0  0
   15.8959   13.3950   32.8396 O   0  0  0  0  0  0  0  0  0  0  0  0
   16.1618   12.4034   31.8710 C   0  0  0  0  0  0  0  0  0  0  0  0
   15.1410   12.0717   30.9235 C   0  0  0  0  0  0  0  0  0  0  0  0
   15.3508   11.0672   29.9242 C   0  0  0  0  0  0  0  0  0  0  0  0
   16.5934   10.4210   29.9097 C   0  0  0  0  0  0  0  0  0  0  0  0
   17.5833   10.7508   30.8346 C   0  0  0  0  0  0  0  0  0  0  0  0
   17.3938   11.7276   31.8155 C   0  0  0  0  0  0  0  0  0  0  0  0
   18.7466   10.1085   30.7951 F   0  0  0  0  0  0  0  0  0  0  0  0
   14.3222   10.6396   28.9249 C   0  0  0  0  0  0  0  0  0  0  0  0
   14.3194    9.4152   28.2360 C   0  0  0  0  0  0  0  0  0  0  0  0
   13.2759    9.1117   27.3345 C   0  0  0  0  0  0  0  0  0  0  0  0
   12.2247   10.0198   27.1077 C   0  0  0  0  0  0  0  0  0  0  0  0
   12.2689   11.2325   27.8146 C   0  0  0  0  0  0  0  0  0  0  0  0
   13.2775   11.5151   28.6824 N   0  0  0  0  0  0  0  0  0  0  0  0
   11.1123    9.7161   26.1709 C   0  0  0  0  0  0  0  0  0  0  0  0
   10.1099    9.1845   26.5382 O   0  0  0  0  0  0  0  0  0  0  0  0
   11.3314    9.9692   24.8809 O   0  0  0  0  0  0  0  0  0  0  0  0
    9.9761    9.0158   27.4502 H   0  0  0  0  0  0  0  0  0  0  0  0
   12.9148   16.4773   37.8512 C   0  0  0  0  0  0  0  0  0  0  0  0
   13.4818   15.7804   38.9205 O   0  0  0  0  0  0  0  0  0  0  0  0
   11.3669   14.4372   42.3738 C   0  0  0  0  0  0  0  0  0  0  0  0
   12.2623   13.6226   41.6232 C   0  0  0  0  0  0  0  0  0  0  0  0
   12.9140   14.1684   40.4843 C   0  0  0  0  0  0  0  0  0  0  0  0
   12.7094   15.4967   40.0714 C   0  0  0  0  0  0  0  0  0  0  0  0
   11.8035   16.3059   40.8371 C   0  0  0  0  0  0  0  0  0  0  0  0
   11.1409   15.7800   41.9789 C   0  0  0  0  0  0  0  0  0  0  0  0
   11.3937   17.9614   40.5245 Cl  0  0  0  0  0  0  0  0  0  0  0  0
   10.7322   13.8882   43.4840 N   0  0  0  0  0  0  0  0  0  0  0  0
    9.5015   14.2669   43.9383 C   0  0  0  0  0  0  0  0  0  0  0  0
    8.4928   14.1903   43.2399 O   0  0  0  0  0  0  0  0  0  0  0  0
   11.2033   13.1774   43.9760 H   0  0  0  0  0  0  0  0  0  0  0  0
    9.3805   14.2456   45.4599 C   0  0  0  0  0  0  0  0  0  0  0  0
   10.9839   14.1887   46.2975 S   0  0  0  0  0  0  0  0  0  0  0  0
   11.0692   12.4680   46.7025 C   0  0  0  0  0  0  0  0  0  0  0  0
   10.8716   12.0693   48.0380 C   0  0  0  0  0  0  0  0  0  0  0  0
   10.9377   10.6875   48.3373 C   0  0  0  0  0  0  0  0  0  0  0  0
   11.1963    9.7511   47.3078 C   0  0  0  0  0  0  0  0  0  0  0  0
   11.3820   10.2521   46.0076 C   0  0  0  0  0  0  0  0  0  0  0  0
   11.3195   11.5803   45.7090 N   0  0  0  0  0  0  0  0  0  0  0  0
   11.2705    8.3062   47.5715 C   0  0  0  0  0  0  0  0  0  0  0  0
   10.5148    7.5545   47.0361 O   0  0  0  0  0  0  0  0  0  0  0  0
   12.0800    7.9107   48.5576 O   0  0  0  0  0  0  0  0  0  0  0  0
   12.6633    8.5241   48.9595 H   0  0  0  0  0  0  0  0  0  0  0  0
   12.4490   12.2881   42.0675 O   0  0  0  0  0  0  0  0  0  0  0  0
   13.4375   11.5180   41.3767 C   0  0  0  0  0  0  0  0  0  0  0  0
 46 47  1  0  0  0
 46 45  1  0  0  0
 43 42  2  0  0  0
 48 47  2  0  0  0
 48 49  1  0  0  0
 21 19  1  0  0  0
 47 52  1  0  0  0
 42 45  1  0  0  0
 42 41  1  0  0  0
 49 50  2  0  0  0
 41 34  1  0  0  0
 19 18  2  0  0  0
 19 20  1  0  0  0
 39 34  2  0  0  0
 39 38  1  0  0  0
 18 17  1  0  0  0
 40 38  1  0  0  0
 23 24  2  0  0  0
 23 22  1  0  0  0
 24 25  1  0  0  0
 52 51  2  0  0  0
 34 35  1  0  0  0
 50 51  1  0  0  0
 50 53  1  0  0  0
 30 28  2  0  0  0
 38 37  2  0  0  0
 20 15  2  0  0  0
 54 53  2  0  0  0
 17 22  1  0  0  0
 17 16  2  0  0  0
 22 27  2  0  0  0
 53 55  1  0  0  0
 35 57  1  0  0  0
 35 36  2  0  0  0
 25 28  1  0  0  0
 25 26  2  0  0  0
 28 29  1  0  0  0
 37 36  1  0  0  0
 37 33  1  0  0  0
 57 58  1  0  0  0
 15 16  1  0  0  0
 15 14  1  0  0  0
 32 33  1  0  0  0
 32  1  1  0  0  0
 27 26  1  0  0  0
  5  4  1  0  0  0
 14 13  1  0  0  0
  1  4  1  0  0  0
  1  2  1  0  0  0
 13 10  1  0  0  0
  4  7  1  0  0  0
 10  7  1  0  0  0
 10 11  1  0  0  0
  7  8  1  0  0  0
 41 44  1  0  0  0
 29 31  1  0  0  0
 55 56  1  0  0  0
  2  3  1  0  0  0
  8  9  1  0  0  0
  5  6  1  0  0  0
 11 12  1  0  0  0
M  END
> <minimizedAffinity>
-10.70838

$$$$
4I9H_1E4_A_401


 58 61  0  0  0  0  0  0  0  0999 V2000
   14.4624   15.2280   37.1564 C   0  0  0  0  0  0  0  0  0  0  0  0
   13.6438   14.0736   36.9885 O   0  0  0  0  0  0  0  0  0  0  0  0
   12.8948   14.2896   36.4112 H   0  0  0  0  0  0  0  0  0  0  0  0
   15.1126   15.7204   35.8338 C   0  0  0  0  0  0  0  0  0  0  0  0
   16.3471   15.0388   35.5550 O   0  0  0  0  0  0  0  0  0  0  0  0
   16.1665   14.1026   35.3769 H   0  0  0  0  0  0  0  0  0  0  0  0
   14.2275   15.6204   34.5361 C   0  0  0  0  0  0  0  0  0  0  0  0
   13.5393   14.3868   34.5347 O   0  0  0  0  0  0  0  0  0  0  0  0
   14.1796   13.6594   34.4919 H   0  0  0  0  0  0  0  0  0  0  0  0
   14.9183   16.0394   33.1933 C   0  0  0  0  0  0  0  0  0  0  0  0
   14.1205   17.0835   32.6750 O   0  0  0  0  0  0  0  0  0  0  0  0
   13.2322   16.7458   32.4810 H   0  0  0  0  0  0  0  0  0  0  0  0
   15.0529   14.9893   32.0761 C   0  0  0  0  0  0  0  0  0  0  0  0
   15.4997   13.7596   32.6909 O   0  0  0  0  0  0  0  0  0  0  0  0
   15.8175   12.6956   31.8198 C   0  0  0  0  0  0  0  0  0  0  0  0
   14.8645   12.3104   30.8232 C   0  0  0  0  0  0  0  0  0  0  0  0
   15.1285   11.2320   29.9181 C   0  0  0  0  0  0  0  0  0  0  0  0
   16.3551   10.5681   30.0456 C   0  0  0  0  0  0  0  0  0  0  0  0
   17.2790   10.9502   31.0175 C   0  0  0  0  0  0  0  0  0  0  0  0
   17.0361   11.9993   31.9078 C   0  0  0  0  0  0  0  0  0  0  0  0
   18.4286   10.2895   31.1138 F   0  0  0  0  0  0  0  0  0  0  0  0
   14.1696   10.7475   28.8763 C   0  0  0  0  0  0  0  0  0  0  0  0
   14.2440    9.5087   28.2179 C   0  0  0  0  0  0  0  0  0  0  0  0
   13.2609    9.1497   27.2701 C   0  0  0  0  0  0  0  0  0  0  0  0
   12.1942   10.0162   26.9661 C   0  0  0  0  0  0  0  0  0  0  0  0
   12.1606   11.2452   27.6450 C   0  0  0  0  0  0  0  0  0  0  0  0
   13.1112   11.5813   28.5579 N   0  0  0  0  0  0  0  0  0  0  0  0
   11.1443    9.6540   25.9794 C   0  0  0  0  0  0  0  0  0  0  0  0
   10.4998   10.4840   25.4155 O   0  0  0  0  0  0  0  0  0  0  0  0
   10.8838    8.3551   25.8335 O   0  0  0  0  0  0  0  0  0  0  0  0
   10.7000   11.3919   25.5321 H   0  0  0  0  0  0  0  0  0  0  0  0
   13.5759   16.3206   37.7740 C   0  0  0  0  0  0  0  0  0  0  0  0
   13.9068   16.5928   39.1033 O   0  0  0  0  0  0  0  0  0  0  0  0
   11.0740   16.0773   42.2517 C   0  0  0  0  0  0  0  0  0  0  0  0
   11.3813   17.3344   41.6567 C   0  0  0  0  0  0  0  0  0  0  0  0
   12.3458   17.3960   40.6147 C   0  0  0  0  0  0  0  0  0  0  0  0
   13.0093   16.2502   40.1420 C   0  0  0  0  0  0  0  0  0  0  0  0
   12.6901   14.9900   40.7516 C   0  0  0  0  0  0  0  0  0  0  0  0
   11.7293   14.9058   41.7952 C   0  0  0  0  0  0  0  0  0  0  0  0
   13.3733   13.4503   40.3402 Cl  0  0  0  0  0  0  0  0  0  0  0  0
   10.1310   16.0325   43.2741 N   0  0  0  0  0  0  0  0  0  0  0  0
   10.4277   15.8431   44.5934 C   0  0  0  0  0  0  0  0  0  0  0  0
   11.1647   16.6053   45.2156 O   0  0  0  0  0  0  0  0  0  0  0  0
    9.1841   16.1452   43.0292 H   0  0  0  0  0  0  0  0  0  0  0  0
    9.3893   15.0076   45.3377 C   0  0  0  0  0  0  0  0  0  0  0  0
    9.7239   14.8775   47.1116 S   0  0  0  0  0  0  0  0  0  0  0  0
   10.2128   13.1798   47.2185 C   0  0  0  0  0  0  0  0  0  0  0  0
   10.1750   12.5349   48.4691 C   0  0  0  0  0  0  0  0  0  0  0  0
   10.5640   11.1754   48.5293 C   0  0  0  0  0  0  0  0  0  0  0  0
   10.9755   10.5033   47.3535 C   0  0  0  0  0  0  0  0  0  0  0  0
   10.9805   11.2380   46.1550 C   0  0  0  0  0  0  0  0  0  0  0  0
   10.6071   12.5468   46.0865 N   0  0  0  0  0  0  0  0  0  0  0  0
   11.3848    9.0909   47.3679 C   0  0  0  0  0  0  0  0  0  0  0  0
   11.9891    8.6273   46.4499 O   0  0  0  0  0  0  0  0  0  0  0  0
   10.8942    8.3274   48.3480 O   0  0  0  0  0  0  0  0  0  0  0  0
   10.4234    8.7200   49.0567 H   0  0  0  0  0  0  0  0  0  0  0  0
   10.6927   18.4707   42.1544 O   0  0  0  0  0  0  0  0  0  0  0  0
   10.1281   19.3524   41.1792 C   0  0  0  0  0  0  0  0  0  0  0  0
 46 47  1  0  0  0
 46 45  1  0  0  0
 43 42  2  0  0  0
 48 47  2  0  0  0
 48 49  1  0  0  0
 21 19  1  0  0  0
 47 52  1  0  0  0
 42 45  1  0  0  0
 42 41  1  0  0  0
 49 50  2  0  0  0
 41 34  1  0  0  0
 19 18  2  0  0  0
 19 20  1  0  0  0
 39 34  2  0  0  0
 39 38  1  0  0  0
 18 17  1  0  0  0
 40 38  1  0  0  0
 23 24  2  0  0  0
 23 22  1  0  0  0
 24 25  1  0  0  0
 52 51  2  0  0  0
 34 35  1  0  0  0
 50 51  1  0  0  0
 50 53  1  0  0  0
 30 28  2  0  0  0
 38 37  2  0  0  0
 20 15  2  0  0  0
 54 53  2  0  0  0
 17 22  1  0  0  0
 17 16  2  0  0  0
 22 27  2  0  0  0
 53 55  1  0  0  0
 35 57  1  0  0  0
 35 36  2  0  0  0
 25 28  1  0  0  0
 25 26  2  0  0  0
 28 29  1  0  0  0
 37 36  1  0  0  0
 37 33  1  0  0  0
 57 58  1  0  0  0
 15 16  1  0  0  0
 15 14  1  0  0  0
 32 33  1  0  0  0
 32  1  1  0  0  0
 27 26  1  0  0  0
  5  4  1  0  0  0
 14 13  1  0  0  0
  1  4  1  0  0  0
  1  2  1  0  0  0
 13 10  1  0  0  0
  4  7  1  0  0  0
 10  7  1  0  0  0
 10 11  1  0  0  0
  7  8  1  0  0  0
 41 44  1  0  0  0
 29 31  1  0  0  0
 55 56  1  0  0  0
  2  3  1  0  0  0
  8  9  1  0  0  0
  5  6  1  0  0  0
 11 12  1  0  0  0
M  END
> <minimizedAffinity>
-10.18280

$$$$
4I9H_1E4_A_401


 58 61  0  0  0  0  0  0  0  0999 V2000
   15.7731   14.7805   35.7325 C   0  0  0  0  0  0  0  0  0  0  0  0
   16.5829   15.7831   35.1242 O   0  0  0  0  0  0  0  0  0  0  0  0
   16.1310   16.1318   34.3399 H   0  0  0  0  0  0  0  0  0  0  0  0
   14.4180   15.3224   36.2659 C   0  0  0  0  0  0  0  0  0  0  0  0
   13.3165   14.4778   35.8924 O   0  0  0  0  0  0  0  0  0  0  0  0
   13.4015   13.6200   36.3370 H   0  0  0  0  0  0  0  0  0  0  0  0
   14.3162   15.5527   37.8196 C   0  0  0  0  0  0  0  0  0  0  0  0
   15.0444   14.5445   38.4895 O   0  0  0  0  0  0  0  0  0  0  0  0
   14.6418   13.6807   38.3089 H   0  0  0  0  0  0  0  0  0  0  0  0
   12.8884   15.8755   38.3792 C   0  0  0  0  0  0  0  0  0  0  0  0
   13.1010   16.7902   39.4344 O   0  0  0  0  0  0  0  0  0  0  0  0
   13.6242   16.3641   40.1312 H   0  0  0  0  0  0  0  0  0  0  0  0
   12.0462   14.7234   38.9556 C   0  0  0  0  0  0  0  0  0  0  0  0
   11.9351   14.9407   40.3805 O   0  0  0  0  0  0  0  0  0  0  0  0
   12.2273   13.8393   41.2133 C   0  0  0  0  0  0  0  0  0  0  0  0
   11.6788   13.8081   42.5354 C   0  0  0  0  0  0  0  0  0  0  0  0
   11.9489   12.7209   43.4280 C   0  0  0  0  0  0  0  0  0  0  0  0
   12.7709   11.6890   42.9579 C   0  0  0  0  0  0  0  0  0  0  0  0
   13.3000   11.7256   41.6683 C   0  0  0  0  0  0  0  0  0  0  0  0
   13.0464   12.7790   40.7863 C   0  0  0  0  0  0  0  0  0  0  0  0
   14.0840   10.7320   41.2615 F   0  0  0  0  0  0  0  0  0  0  0  0
   11.4435   12.6346   44.8340 C   0  0  0  0  0  0  0  0  0  0  0  0
   10.9344   13.7100   45.5810 C   0  0  0  0  0  0  0  0  0  0  0  0
   10.4592   13.4989   46.8937 C   0  0  0  0  0  0  0  0  0  0  0  0
   10.4843   12.2188   47.4784 C   0  0  0  0  0  0  0  0  0  0  0  0
   11.0044   11.1737   46.6975 C   0  0  0  0  0  0  0  0  0  0  0  0
   11.4581   11.3866   45.4330 N   0  0  0  0  0  0  0  0  0  0  0  0
    9.9805   11.9733   48.8543 C   0  0  0  0  0  0  0  0  0  0  0  0
    9.2876   12.7626   49.4191 O   0  0  0  0  0  0  0  0  0  0  0  0
   10.4272   10.8775   49.4676 O   0  0  0  0  0  0  0  0  0  0  0  0
    8.9845   13.5265   48.9690 H   0  0  0  0  0  0  0  0  0  0  0  0
   15.5510   13.6835   34.6797 C   0  0  0  0  0  0  0  0  0  0  0  0
   15.7597   14.1400   33.3763 O   0  0  0  0  0  0  0  0  0  0  0  0
   14.1070   12.0676   30.0332 C   0  0  0  0  0  0  0  0  0  0  0  0
   13.4756   13.1707   30.6761 C   0  0  0  0  0  0  0  0  0  0  0  0
   14.1117   13.7883   31.7868 C   0  0  0  0  0  0  0  0  0  0  0  0
   15.3551   13.3497   32.2747 C   0  0  0  0  0  0  0  0  0  0  0  0
   15.9795   12.2363   31.6174 C   0  0  0  0  0  0  0  0  0  0  0  0
   15.3607   11.6037   30.5055 C   0  0  0  0  0  0  0  0  0  0  0  0
   17.5029   11.5219   32.0360 Cl  0  0  0  0  0  0  0  0  0  0  0  0
   13.4706   11.4696   28.9497 N   0  0  0  0  0  0  0  0  0  0  0  0
   14.0824   10.6411   28.0531 C   0  0  0  0  0  0  0  0  0  0  0  0
   14.6297    9.5948   28.3951 O   0  0  0  0  0  0  0  0  0  0  0  0
   12.5128   11.6569   28.8205 H   0  0  0  0  0  0  0  0  0  0  0  0
   13.5687   10.8030   26.6248 C   0  0  0  0  0  0  0  0  0  0  0  0
   12.3760    9.5266   26.1517 S   0  0  0  0  0  0  0  0  0  0  0  0
   10.8642   10.3114   26.6325 C   0  0  0  0  0  0  0  0  0  0  0  0
    9.6546    9.6035   26.5013 C   0  0  0  0  0  0  0  0  0  0  0  0
    8.4591   10.2488   26.8984 C   0  0  0  0  0  0  0  0  0  0  0  0
    8.5019   11.5679   27.4098 C   0  0  0  0  0  0  0  0  0  0  0  0
    9.7601   12.1885   27.4977 C   0  0  0  0  0  0  0  0  0  0  0  0
   10.9169   11.5756   27.1190 N   0  0  0  0  0  0  0  0  0  0  0  0
    7.2860   12.2759   27.8375 C   0  0  0  0  0  0  0  0  0  0  0  0
    6.2921   12.2217   27.1803 O   0  0  0  0  0  0  0  0  0  0  0  0
    7.4041   13.1136   28.8713 O   0  0  0  0  0  0  0  0  0  0  0  0
    8.1974   13.1339   29.3696 H   0  0  0  0  0  0  0  0  0  0  0  0
   12.2232   13.5905   30.1579 O   0  0  0  0  0  0  0  0  0  0  0  0
   12.2138   14.8240   29.4329 C   0  0  0  0  0  0  0  0  0  0  0  0
 46 47  1  0  0  0
 46 45  1  0  0  0
 43 42  2  0  0  0
 48 47  2  0  0  0
 48 49  1  0  0  0
 21 19  1  0  0  0
 47 52  1  0  0  0
 42 45  1  0  0  0
 42 41  1  0  0  0
 49 50  2  0  0  0
 41 34  1  0  0  0
 19 18  2  0  0  0
 19 20  1  0  0  0
 39 34  2  0  0  0
 39 38  1  0  0  0
 18 17  1  0  0  0
 40 38  1  0  0  0
 23 24  2  0  0  0
 23 22  1  0  0  0
 24 25  1  0  0  0
 52 51  2  0  0  0
 34 35  1  0  0  0
 50 51  1  0  0  0
 50 53  1  0  0  0
 30 28  2  0  0  0
 38 37  2  0  0  0
 20 15  2  0  0  0
 54 53  2  0  0  0
 17 22  1  0  0  0
 17 16  2  0  0  0
 22 27  2  0  0  0
 53 55  1  0  0  0
 35 57  1  0  0  0
 35 36  2  0  0  0
 25 28  1  0  0  0
 25 26  2  0  0  0
 28 29  1  0  0  0
 37 36  1  0  0  0
 37 33  1  0  0  0
 57 58  1  0  0  0
 15 16  1  0  0  0
 15 14  1  0  0  0
 32 33  1  0  0  0
 32  1  1  0  0  0
 27 26  1  0  0  0
  5  4  1  0  0  0
 14 13  1  0  0  0
  1  4  1  0  0  0
  1  2  1  0  0  0
 13 10  1  0  0  0
  4  7  1  0  0  0
 10  7  1  0  0  0
 10 11  1  0  0  0
  7  8  1  0  0  0
 41 44  1  0  0  0
 29 31  1  0  0  0
 55 56  1  0  0  0
  2  3  1  0  0  0
  8  9  1  0  0  0
  5  6  1  0  0  0
 11 12  1  0  0  0
M  END
> <minimizedAffinity>
-10.10886

$$$$
4I9H_1E4_A_401


 58 61  0  0  0  0  0  0  0  0999 V2000
   13.9791   17.6922   35.5805 C   0  0  0  0  0  0  0  0  0  0  0  0
   14.2635   19.0822   35.7141 O   0  0  0  0  0  0  0  0  0  0  0  0
   14.6607   19.2489   36.5832 H   0  0  0  0  0  0  0  0  0  0  0  0
   15.2490   16.7973   35.6124 C   0  0  0  0  0  0  0  0  0  0  0  0
   15.2854   15.9567   36.7779 O   0  0  0  0  0  0  0  0  0  0  0  0
   14.5621   15.3119   36.7342 H   0  0  0  0  0  0  0  0  0  0  0  0
   15.4841   15.8665   34.3651 C   0  0  0  0  0  0  0  0  0  0  0  0
   16.2428   16.5640   33.3989 O   0  0  0  0  0  0  0  0  0  0  0  0
   15.7387   17.3304   33.0836 H   0  0  0  0  0  0  0  0  0  0  0  0
   14.2327   15.0822   33.8412 C   0  0  0  0  0  0  0  0  0  0  0  0
   13.8229   14.2712   34.9227 O   0  0  0  0  0  0  0  0  0  0  0  0
   14.5258   13.6377   35.1362 H   0  0  0  0  0  0  0  0  0  0  0  0
   14.4033   14.1495   32.6288 C   0  0  0  0  0  0  0  0  0  0  0  0
   15.7073   13.5349   32.7371 O   0  0  0  0  0  0  0  0  0  0  0  0
   16.0082   12.5203   31.8032 C   0  0  0  0  0  0  0  0  0  0  0  0
   15.0120   12.1447   30.8460 C   0  0  0  0  0  0  0  0  0  0  0  0
   15.2577   11.1155   29.8806 C   0  0  0  0  0  0  0  0  0  0  0  0
   16.5104   10.4898   29.9090 C   0  0  0  0  0  0  0  0  0  0  0  0
   17.4763   10.8624   30.8431 C   0  0  0  0  0  0  0  0  0  0  0  0
   17.2517   11.8637   31.7913 C   0  0  0  0  0  0  0  0  0  0  0  0
   18.6503   10.2385   30.8449 F   0  0  0  0  0  0  0  0  0  0  0  0
   14.2561   10.6424   28.8743 C   0  0  0  0  0  0  0  0  0  0  0  0
   14.2839    9.3968   28.2251 C   0  0  0  0  0  0  0  0  0  0  0  0
   13.2638    9.0506   27.3123 C   0  0  0  0  0  0  0  0  0  0  0  0
   12.2060    9.9366   27.0346 C   0  0  0  0  0  0  0  0  0  0  0  0
   12.2194   11.1716   27.7031 C   0  0  0  0  0  0  0  0  0  0  0  0
   13.2055   11.4954   28.5822 N   0  0  0  0  0  0  0  0  0  0  0  0
   11.1177    9.5881   26.0851 C   0  0  0  0  0  0  0  0  0  0  0  0
   10.0046    9.9907   26.2310 O   0  0  0  0  0  0  0  0  0  0  0  0
   11.4206    8.7177   25.1223 O   0  0  0  0  0  0  0  0  0  0  0  0
    9.8136   10.6025   26.9145 H   0  0  0  0  0  0  0  0  0  0  0  0
   13.0150   17.3202   36.7177 C   0  0  0  0  0  0  0  0  0  0  0  0
   13.4517   17.7776   37.9630 O   0  0  0  0  0  0  0  0  0  0  0  0
   11.1699   16.9671   41.4757 C   0  0  0  0  0  0  0  0  0  0  0  0
   11.0006   18.1280   40.6681 C   0  0  0  0  0  0  0  0  0  0  0  0
   11.8174   18.3033   39.5184 C   0  0  0  0  0  0  0  0  0  0  0  0
   12.7911   17.3612   39.1429 C   0  0  0  0  0  0  0  0  0  0  0  0
   12.9512   16.1962   39.9668 C   0  0  0  0  0  0  0  0  0  0  0  0
   12.1455   16.0015   41.1210 C   0  0  0  0  0  0  0  0  0  0  0  0
   14.0787   14.9047   39.7075 Cl  0  0  0  0  0  0  0  0  0  0  0  0
   10.3663   16.8107   42.6011 N   0  0  0  0  0  0  0  0  0  0  0  0
   10.8352   16.5558   43.8580 C   0  0  0  0  0  0  0  0  0  0  0  0
   11.6111   17.3152   44.4347 O   0  0  0  0  0  0  0  0  0  0  0  0
    9.3921   16.8893   42.4829 H   0  0  0  0  0  0  0  0  0  0  0  0
    9.9364   15.6236   44.6663 C   0  0  0  0  0  0  0  0  0  0  0  0
   10.6551   13.9803   44.9084 S   0  0  0  0  0  0  0  0  0  0  0  0
   10.7135   13.4099   43.2340 C   0  0  0  0  0  0  0  0  0  0  0  0
   11.8659   12.7415   42.7793 C   0  0  0  0  0  0  0  0  0  0  0  0
   11.8874   12.2883   41.4386 C   0  0  0  0  0  0  0  0  0  0  0  0
   10.7714   12.5117   40.5971 C   0  0  0  0  0  0  0  0  0  0  0  0
    9.6708   13.1918   41.1469 C   0  0  0  0  0  0  0  0  0  0  0  0
    9.6399   13.6312   42.4365 N   0  0  0  0  0  0  0  0  0  0  0  0
   10.7480   12.0560   39.1990 C   0  0  0  0  0  0  0  0  0  0  0  0
    9.9085   11.2955   38.8251 O   0  0  0  0  0  0  0  0  0  0  0  0
   11.7971   12.3795   38.4382 O   0  0  0  0  0  0  0  0  0  0  0  0
   12.4410   12.9800   38.7589 H   0  0  0  0  0  0  0  0  0  0  0  0
   10.0080   19.0577   41.0725 O   0  0  0  0  0  0  0  0  0  0  0  0
    8.8770   19.2002   40.2078 C   0  0  0  0  0  0  0  0  0  0  0  0
 46 47  1  0  0  0
 46 45  1  0  0  0
 43 42  2  0  0  0
 48 47  2  0  0  0
 48 49  1  0  0  0
 21 19  1  0  0  0
 47 52  1  0  0  0
 42 45  1  0  0  0
 42 41  1  0  0  0
 49 50  2  0  0  0
 41 34  1  0  0  0
 19 18  2  0  0  0
 19 20  1  0  0  0
 39 34  2  0  0  0
 39 38  1  0  0  0
 18 17  1  0  0  0
 40 38  1  0  0  0
 23 24  2  0  0  0
 23 22  1  0  0  0
 24 25  1  0  0  0
 52 51  2  0  0  0
 34 35  1  0  0  0
 50 51  1  0  0  0
 50 53  1  0  0  0
 30 28  2  0  0  0
 38 37  2  0  0  0
 20 15  2  0  0  0
 54 53  2  0  0  0
 17 22  1  0  0  0
 17 16  2  0  0  0
 22 27  2  0  0  0
 53 55  1  0  0  0
 35 57  1  0  0  0
 35 36  2  0  0  0
 25 28  1  0  0  0
 25 26  2  0  0  0
 28 29  1  0  0  0
 37 36  1  0  0  0
 37 33  1  0  0  0
 57 58  1  0  0  0
 15 16  1  0  0  0
 15 14  1  0  0  0
 32 33  1  0  0  0
 32  1  1  0  0  0
 27 26  1  0  0  0
  5  4  1  0  0  0
 14 13  1  0  0  0
  1  4  1  0  0  0
  1  2  1  0  0  0
 13 10  1  0  0  0
  4  7  1  0  0  0
 10  7  1  0  0  0
 10 11  1  0  0  0
  7  8  1  0  0  0
 41 44  1  0  0  0
 29 31  1  0  0  0
 55 56  1  0  0  0
  2  3  1  0  0  0
  8  9  1  0  0  0
  5  6  1  0  0  0
 11 12  1  0  0  0
M  END
> <minimizedAffinity>
-10.08501

$$$$
4I9H_1E4_A_401


 58 61  0  0  0  0  0  0  0  0999 V2000
   14.6574   14.6337   34.9024 C   0  0  0  0  0  0  0  0  0  0  0  0
   14.2067   14.0575   36.1254 O   0  0  0  0  0  0  0  0  0  0  0  0
   14.9719   13.7886   36.6575 H   0  0  0  0  0  0  0  0  0  0  0  0
   15.4780   15.9381   35.1011 C   0  0  0  0  0  0  0  0  0  0  0  0
   16.8886   15.6773   35.1938 O   0  0  0  0  0  0  0  0  0  0  0  0
   17.2117   15.3406   34.3434 H   0  0  0  0  0  0  0  0  0  0  0  0
   15.2872   17.0606   34.0144 C   0  0  0  0  0  0  0  0  0  0  0  0
   16.1325   16.7936   32.9145 O   0  0  0  0  0  0  0  0  0  0  0  0
   17.0584   16.8370   33.2003 H   0  0  0  0  0  0  0  0  0  0  0  0
   15.2662   18.5366   34.5404 C   0  0  0  0  0  0  0  0  0  0  0  0
   16.5819   18.7906   34.9872 O   0  0  0  0  0  0  0  0  0  0  0  0
   16.7937   18.1960   35.7237 H   0  0  0  0  0  0  0  0  0  0  0  0
   14.3270   18.8884   35.7080 C   0  0  0  0  0  0  0  0  0  0  0  0
   15.1540   19.1370   36.8673 O   0  0  0  0  0  0  0  0  0  0  0  0
   14.5523   18.9375   38.1284 C   0  0  0  0  0  0  0  0  0  0  0  0
   14.1810   17.6097   38.5144 C   0  0  0  0  0  0  0  0  0  0  0  0
   13.5586   17.3484   39.7777 C   0  0  0  0  0  0  0  0  0  0  0  0
   13.3265   18.4420   40.6214 C   0  0  0  0  0  0  0  0  0  0  0  0
   13.6927   19.7320   40.2392 C   0  0  0  0  0  0  0  0  0  0  0  0
   14.2999   20.0032   39.0104 C   0  0  0  0  0  0  0  0  0  0  0  0
   13.4472   20.7460   41.0632 F   0  0  0  0  0  0  0  0  0  0  0  0
   13.1090   15.9966   40.2362 C   0  0  0  0  0  0  0  0  0  0  0  0
   13.7100   14.7775   39.8807 C   0  0  0  0  0  0  0  0  0  0  0  0
   13.2116   13.5633   40.4012 C   0  0  0  0  0  0  0  0  0  0  0  0
   12.1120   13.5465   41.2796 C   0  0  0  0  0  0  0  0  0  0  0  0
   11.5400   14.7871   41.6056 C   0  0  0  0  0  0  0  0  0  0  0  0
   12.0285   15.9517   41.1005 N   0  0  0  0  0  0  0  0  0  0  0  0
   11.5779   12.2811   41.8461 C   0  0  0  0  0  0  0  0  0  0  0  0
   12.2970   11.3897   42.1787 O   0  0  0  0  0  0  0  0  0  0  0  0
   10.2520   12.1478   41.8656 O   0  0  0  0  0  0  0  0  0  0  0  0
   13.2266   11.5048   42.1573 H   0  0  0  0  0  0  0  0  0  0  0  0
   15.4918   13.5627   34.1827 C   0  0  0  0  0  0  0  0  0  0  0  0
   15.7850   13.9086   32.8617 O   0  0  0  0  0  0  0  0  0  0  0  0
   14.0267   11.8038   29.5935 C   0  0  0  0  0  0  0  0  0  0  0  0
   13.5025   13.0124   30.1350 C   0  0  0  0  0  0  0  0  0  0  0  0
   14.1649   13.6318   31.2292 C   0  0  0  0  0  0  0  0  0  0  0  0
   15.3323   13.0930   31.7978 C   0  0  0  0  0  0  0  0  0  0  0  0
   15.8490   11.8740   31.2423 C   0  0  0  0  0  0  0  0  0  0  0  0
   15.2021   11.2378   30.1487 C   0  0  0  0  0  0  0  0  0  0  0  0
   17.2656   11.0259   31.7719 Cl  0  0  0  0  0  0  0  0  0  0  0  0
   13.3652   11.2058   28.5251 N   0  0  0  0  0  0  0  0  0  0  0  0
   13.9445   10.3397   27.6426 C   0  0  0  0  0  0  0  0  0  0  0  0
   14.4585    9.2827   28.0031 O   0  0  0  0  0  0  0  0  0  0  0  0
   12.4135   11.4223   28.3965 H   0  0  0  0  0  0  0  0  0  0  0  0
   13.4291   10.4901   26.2136 C   0  0  0  0  0  0  0  0  0  0  0  0
   12.0789    9.3497   25.8236 S   0  0  0  0  0  0  0  0  0  0  0  0
   10.6976   10.2737   26.4324 C   0  0  0  0  0  0  0  0  0  0  0  0
    9.4488    9.6357   26.5545 C   0  0  0  0  0  0  0  0  0  0  0  0
    8.3600   10.3925   27.0500 C   0  0  0  0  0  0  0  0  0  0  0  0
    8.5444   11.7499   27.4063 C   0  0  0  0  0  0  0  0  0  0  0  0
    9.8305   12.2937   27.2439 C   0  0  0  0  0  0  0  0  0  0  0  0
   10.8852   11.5734   26.7686 N   0  0  0  0  0  0  0  0  0  0  0  0
    7.4434   12.5733   27.9282 C   0  0  0  0  0  0  0  0  0  0  0  0
    6.9712   13.4434   27.2627 O   0  0  0  0  0  0  0  0  0  0  0  0
    7.1355   12.4260   29.2196 O   0  0  0  0  0  0  0  0  0  0  0  0
    7.5224   11.7328   29.7173 H   0  0  0  0  0  0  0  0  0  0  0  0
   12.3251   13.5314   29.5370 O   0  0  0  0  0  0  0  0  0  0  0  0
   11.4249   14.2304   30.4021 C   0  0  0  0  0  0  0  0  0  0  0  0
 46 47  1  0  0  0
 46 45  1  0  0  0
 43 42  2  0  0  0
 48 47  2  0  0  0
 48 49  1  0  0  0
 21 19  1  0  0  0
 47 52  1  0  0  0
 42 45  1  0  0  0
 42 41  1  0  0  0
 49 50  2  0  0  0
 41 34  1  0  0  0
 19 18  2  0  0  0
 19 20  1  0  0  0
 39 34  2  0  0  0
 39 38  1  0  0  0
 18 17  1  0  0  0
 40 38  1  0  0  0
 23 24  2  0  0  0
 23 22  1  0  0  0
 24 25  1  0  0  0
 52 51  2  0  0  0
 34 35  1  0  0  0
 50 51  1  0  0  0
 50 53  1  0  0  0
 30 28  2  0  0  0
 38 37  2  0  0  0
 20 15  2  0  0  0
 54 53  2  0  0  0
 17 22  1  0  0  0
 17 16  2  0  0  0
 22 27  2  0  0  0
 53 55  1  0  0  0
 35 57  1  0  0  0
 35 36  2  0  0  0
 25 28  1  0  0  0
 25 26  2  0  0  0
 28 29  1  0  0  0
 37 36  1  0  0  0
 37 33  1  0  0  0
 57 58  1  0  0  0
 15 16  1  0  0  0
 15 14  1  0  0  0
 32 33  1  0  0  0
 32  1  1  0  0  0
 27 26  1  0  0  0
  5  4  1  0  0  0
 14 13  1  0  0  0
  1  4  1  0  0  0
  1  2  1  0  0  0
 13 10  1  0  0  0
  4  7  1  0  0  0
 10  7  1  0  0  0
 10 11  1  0  0  0
  7  8  1  0  0  0
 41 44  1  0  0  0
 29 31  1  0  0  0
 55 56  1  0  0  0
  2  3  1  0  0  0
  8  9  1  0  0  0
  5  6  1  0  0  0
 11 12  1  0  0  0
M  END
> <minimizedAffinity>
-9.97874

$$$$
4I9H_1E4_A_401


 58 61  0  0  0  0  0  0  0  0999 V2000
   13.5005   17.8732   34.3431 C   0  0  0  0  0  0  0  0  0  0  0  0
   13.2829   19.2379   34.6912 O   0  0  0  0  0  0  0  0  0  0  0  0
   13.4612   19.3628   35.6364 H   0  0  0  0  0  0  0  0  0  0  0  0
   14.9739   17.4165   34.5306 C   0  0  0  0  0  0  0  0  0  0  0  0
   15.3404   17.3388   35.9184 O   0  0  0  0  0  0  0  0  0  0  0  0
   14.8338   16.6315   36.3474 H   0  0  0  0  0  0  0  0  0  0  0  0
   15.3736   16.0447   33.8706 C   0  0  0  0  0  0  0  0  0  0  0  0
   15.7162   16.2604   32.5172 O   0  0  0  0  0  0  0  0  0  0  0  0
   14.9399   16.5858   32.0351 H   0  0  0  0  0  0  0  0  0  0  0  0
   14.4281   14.8313   34.1697 C   0  0  0  0  0  0  0  0  0  0  0  0
   14.7846   14.3927   35.4642 O   0  0  0  0  0  0  0  0  0  0  0  0
   15.7037   14.0828   35.4589 H   0  0  0  0  0  0  0  0  0  0  0  0
   14.4989   13.5991   33.2501 C   0  0  0  0  0  0  0  0  0  0  0  0
   15.8573   13.4995   32.7656 O   0  0  0  0  0  0  0  0  0  0  0  0
   16.1225   12.4752   31.8314 C   0  0  0  0  0  0  0  0  0  0  0  0
   15.1101   12.1286   30.8802 C   0  0  0  0  0  0  0  0  0  0  0  0
   15.3195   11.0913   29.9149 C   0  0  0  0  0  0  0  0  0  0  0  0
   16.5530   10.4283   29.9373 C   0  0  0  0  0  0  0  0  0  0  0  0
   17.5348   10.7728   30.8656 C   0  0  0  0  0  0  0  0  0  0  0  0
   17.3456   11.7815   31.8136 C   0  0  0  0  0  0  0  0  0  0  0  0
   18.6895   10.1139   30.8618 F   0  0  0  0  0  0  0  0  0  0  0  0
   14.2986   10.6474   28.9147 C   0  0  0  0  0  0  0  0  0  0  0  0
   14.3358    9.4394   28.1984 C   0  0  0  0  0  0  0  0  0  0  0  0
   13.2963    9.1165   27.2990 C   0  0  0  0  0  0  0  0  0  0  0  0
   12.2096    9.9890   27.1014 C   0  0  0  0  0  0  0  0  0  0  0  0
   12.2145   11.1865   27.8351 C   0  0  0  0  0  0  0  0  0  0  0  0
   13.2195   11.4878   28.7007 N   0  0  0  0  0  0  0  0  0  0  0  0
   11.1010    9.6642   26.1672 C   0  0  0  0  0  0  0  0  0  0  0  0
    9.9614    9.6719   26.5188 O   0  0  0  0  0  0  0  0  0  0  0  0
   11.4479    9.2599   24.9455 O   0  0  0  0  0  0  0  0  0  0  0  0
    9.7394    9.9600   27.3823 H   0  0  0  0  0  0  0  0  0  0  0  0
   12.5493   17.0323   35.2086 C   0  0  0  0  0  0  0  0  0  0  0  0
   12.7206   17.2640   36.5752 O   0  0  0  0  0  0  0  0  0  0  0  0
   11.4676   14.0880   39.1337 C   0  0  0  0  0  0  0  0  0  0  0  0
   10.6848   14.5992   38.0592 C   0  0  0  0  0  0  0  0  0  0  0  0
   11.1956   15.6641   37.2688 C   0  0  0  0  0  0  0  0  0  0  0  0
   12.4591   16.2325   37.5077 C   0  0  0  0  0  0  0  0  0  0  0  0
   13.2368   15.7077   38.5946 C   0  0  0  0  0  0  0  0  0  0  0  0
   12.7449   14.6437   39.3978 C   0  0  0  0  0  0  0  0  0  0  0  0
   14.8132   16.2432   39.0789 Cl  0  0  0  0  0  0  0  0  0  0  0  0
   10.9530   13.0482   39.9022 N   0  0  0  0  0  0  0  0  0  0  0  0
   10.4802   13.1870   41.1756 C   0  0  0  0  0  0  0  0  0  0  0  0
    9.5488   13.9408   41.4506 O   0  0  0  0  0  0  0  0  0  0  0  0
   10.9280   12.1500   39.4997 H   0  0  0  0  0  0  0  0  0  0  0  0
   10.7843   11.9898   42.0726 C   0  0  0  0  0  0  0  0  0  0  0  0
   12.3641   12.1396   42.9429 S   0  0  0  0  0  0  0  0  0  0  0  0
   11.7919   12.4875   44.5811 C   0  0  0  0  0  0  0  0  0  0  0  0
   12.0035   11.5352   45.5959 C   0  0  0  0  0  0  0  0  0  0  0  0
   11.5434   11.8379   46.8997 C   0  0  0  0  0  0  0  0  0  0  0  0
   10.8920   13.0687   47.1533 C   0  0  0  0  0  0  0  0  0  0  0  0
   10.7274   13.9501   46.0706 C   0  0  0  0  0  0  0  0  0  0  0  0
   11.1675   13.6684   44.8120 N   0  0  0  0  0  0  0  0  0  0  0  0
   10.4005   13.4271   48.4922 C   0  0  0  0  0  0  0  0  0  0  0  0
    9.6295   12.7181   49.0629 O   0  0  0  0  0  0  0  0  0  0  0  0
   10.7060   14.6464   48.9440 O   0  0  0  0  0  0  0  0  0  0  0  0
   11.3155   15.1810   48.4741 H   0  0  0  0  0  0  0  0  0  0  0  0
    9.4159   14.0022   37.8427 O   0  0  0  0  0  0  0  0  0  0  0  0
    8.2725   14.8241   38.0966 C   0  0  0  0  0  0  0  0  0  0  0  0
 46 47  1  0  0  0
 46 45  1  0  0  0
 43 42  2  0  0  0
 48 47  2  0  0  0
 48 49  1  0  0  0
 21 19  1  0  0  0
 47 52  1  0  0  0
 42 45  1  0  0  0
 42 41  1  0  0  0
 49 50  2  0  0  0
 41 34  1  0  0  0
 19 18  2  0  0  0
 19 20  1  0  0  0
 39 34  2  0  0  0
 39 38  1  0  0  0
 18 17  1  0  0  0
 40 38  1  0  0  0
 23 24  2  0  0  0
 23 22  1  0  0  0
 24 25  1  0  0  0
 52 51  2  0  0  0
 34 35  1  0  0  0
 50 51  1  0  0  0
 50 53  1  0  0  0
 30 28  2  0  0  0
 38 37  2  0  0  0
 20 15  2  0  0  0
 54 53  2  0  0  0
 17 22  1  0  0  0
 17 16  2  0  0  0
 22 27  2  0  0  0
 53 55  1  0  0  0
 35 57  1  0  0  0
 35 36  2  0  0  0
 25 28  1  0  0  0
 25 26  2  0  0  0
 28 29  1  0  0  0
 37 36  1  0  0  0
 37 33  1  0  0  0
 57 58  1  0  0  0
 15 16  1  0  0  0
 15 14  1  0  0  0
 32 33  1  0  0  0
 32  1  1  0  0  0
 27 26  1  0  0  0
  5  4  1  0  0  0
 14 13  1  0  0  0
  1  4  1  0  0  0
  1  2  1  0  0  0
 13 10  1  0  0  0
  4  7  1  0  0  0
 10  7  1  0  0  0
 10 11  1  0  0  0
  7  8  1  0  0  0
 41 44  1  0  0  0
 29 31  1  0  0  0
 55 56  1  0  0  0
  2  3  1  0  0  0
  8  9  1  0  0  0
  5  6  1  0  0  0
 11 12  1  0  0  0
M  END
> <minimizedAffinity>
-9.77762

$$$$
4I9H_1E4_A_401


 58 61  0  0  0  0  0  0  0  0999 V2000
    6.7121   12.6186   38.3905 C   0  0  0  0  0  0  0  0  0  0  0  0
    5.7851   11.7207   37.7860 O   0  0  0  0  0  0  0  0  0  0  0  0
    5.6687   11.9564   36.8523 H   0  0  0  0  0  0  0  0  0  0  0  0
    8.1390   12.5343   37.7812 C   0  0  0  0  0  0  0  0  0  0  0  0
    8.4337   13.6644   36.9432 O   0  0  0  0  0  0  0  0  0  0  0  0
    8.4725   14.4677   37.4855 H   0  0  0  0  0  0  0  0  0  0  0  0
    9.3306   12.3923   38.7996 C   0  0  0  0  0  0  0  0  0  0  0  0
    8.8138   12.2788   40.1094 O   0  0  0  0  0  0  0  0  0  0  0  0
    8.3431   13.0941   40.3431 H   0  0  0  0  0  0  0  0  0  0  0  0
   10.5307   13.3806   38.6027 C   0  0  0  0  0  0  0  0  0  0  0  0
   11.6659   12.5574   38.4327 O   0  0  0  0  0  0  0  0  0  0  0  0
   11.8130   12.0389   39.2392 H   0  0  0  0  0  0  0  0  0  0  0  0
   10.8654   14.3668   39.7360 C   0  0  0  0  0  0  0  0  0  0  0  0
   11.7051   13.6679   40.6826 O   0  0  0  0  0  0  0  0  0  0  0  0
   11.5904   14.0535   42.0355 C   0  0  0  0  0  0  0  0  0  0  0  0
   11.6116   13.0404   43.0469 C   0  0  0  0  0  0  0  0  0  0  0  0
   11.4896   13.3717   44.4351 C   0  0  0  0  0  0  0  0  0  0  0  0
   11.3485   14.7253   44.7655 C   0  0  0  0  0  0  0  0  0  0  0  0
   11.3306   15.7065   43.7750 C   0  0  0  0  0  0  0  0  0  0  0  0
   11.4478   15.3994   42.4170 C   0  0  0  0  0  0  0  0  0  0  0  0
   11.1852   16.9801   44.1274 F   0  0  0  0  0  0  0  0  0  0  0  0
   11.4659   12.3687   45.5456 C   0  0  0  0  0  0  0  0  0  0  0  0
   11.5067   12.6742   46.9163 C   0  0  0  0  0  0  0  0  0  0  0  0
   11.4497   11.6392   47.8750 C   0  0  0  0  0  0  0  0  0  0  0  0
   11.3515   10.2909   47.4834 C   0  0  0  0  0  0  0  0  0  0  0  0
   11.3169   10.0308   46.1038 C   0  0  0  0  0  0  0  0  0  0  0  0
   11.3705   11.0348   45.1877 N   0  0  0  0  0  0  0  0  0  0  0  0
   11.2805    9.1876   48.4758 C   0  0  0  0  0  0  0  0  0  0  0  0
   11.4817    8.0530   48.1684 O   0  0  0  0  0  0  0  0  0  0  0  0
   10.8767    9.5130   49.7035 O   0  0  0  0  0  0  0  0  0  0  0  0
   11.7653    7.8462   47.2996 H   0  0  0  0  0  0  0  0  0  0  0  0
    6.1312   14.0330   38.2378 C   0  0  0  0  0  0  0  0  0  0  0  0
    6.1026   14.7348   39.4450 O   0  0  0  0  0  0  0  0  0  0  0  0
    9.2387   17.5981   39.8561 C   0  0  0  0  0  0  0  0  0  0  0  0
    8.6812   17.2037   38.6062 C   0  0  0  0  0  0  0  0  0  0  0  0
    7.6399   16.2368   38.5807 C   0  0  0  0  0  0  0  0  0  0  0  0
    7.1320   15.6546   39.7552 C   0  0  0  0  0  0  0  0  0  0  0  0
    7.7041   16.0611   41.0079 C   0  0  0  0  0  0  0  0  0  0  0  0
    8.7463   17.0258   41.0562 C   0  0  0  0  0  0  0  0  0  0  0  0
    7.2458   15.4866   42.5783 Cl  0  0  0  0  0  0  0  0  0  0  0  0
   10.2609   18.5425   39.8657 N   0  0  0  0  0  0  0  0  0  0  0  0
   10.0687   19.8905   39.9668 C   0  0  0  0  0  0  0  0  0  0  0  0
    9.4969   20.4009   40.9280 O   0  0  0  0  0  0  0  0  0  0  0  0
   11.1869   18.2159   39.7948 H   0  0  0  0  0  0  0  0  0  0  0  0
   11.0580   20.7107   39.1428 C   0  0  0  0  0  0  0  0  0  0  0  0
   12.6495   20.9434   39.9726 S   0  0  0  0  0  0  0  0  0  0  0  0
   13.3076   19.3042   39.8620 C   0  0  0  0  0  0  0  0  0  0  0  0
   13.6280   18.6148   41.0467 C   0  0  0  0  0  0  0  0  0  0  0  0
   14.1465   17.3026   40.9341 C   0  0  0  0  0  0  0  0  0  0  0  0
   14.3294   16.7201   39.6571 C   0  0  0  0  0  0  0  0  0  0  0  0
   13.9811   17.4935   38.5360 C   0  0  0  0  0  0  0  0  0  0  0  0
   13.4804   18.7571   38.6338 N   0  0  0  0  0  0  0  0  0  0  0  0
   14.8617   15.3592   39.4921 C   0  0  0  0  0  0  0  0  0  0  0  0
   16.0219   15.1393   39.6609 O   0  0  0  0  0  0  0  0  0  0  0  0
   14.0379   14.4446   38.9733 O   0  0  0  0  0  0  0  0  0  0  0  0
   13.1308   14.6461   38.8523 H   0  0  0  0  0  0  0  0  0  0  0  0
    9.2138   17.8118   37.4401 O   0  0  0  0  0  0  0  0  0  0  0  0
    8.3495   18.7096   36.7371 C   0  0  0  0  0  0  0  0  0  0  0  0
 46 47  1  0  0  0
 46 45  1  0  0  0
 43 42  2  0  0  0
 48 47  2  0  0  0
 48 49  1  0  0  0
 21 19  1  0  0  0
 47 52  1  0  0  0
 42 45  1  0  0  0
 42 41  1  0  0  0
 49 50  2  0  0  0
 41 34  1  0  0  0
 19 18  2  0  0  0
 19 20  1  0  0  0
 39 34  2  0  0  0
 39 38  1  0  0  0
 18 17  1  0  0  0
 40 38  1  0  0  0
 23 24  2  0  0  0
 23 22  1  0  0  0
 24 25  1  0  0  0
 52 51  2  0  0  0
 34 35  1  0  0  0
 50 51  1  0  0  0
 50 53  1  0  0  0
 30 28  2  0  0  0
 38 37  2  0  0  0
 20 15  2  0  0  0
 54 53  2  0  0  0
 17 22  1  0  0  0
 17 16  2  0  0  0
 22 27  2  0  0  0
 53 55  1  0  0  0
 35 57  1  0  0  0
 35 36  2  0  0  0
 25 28  1  0  0  0
 25 26  2  0  0  0
 28 29  1  0  0  0
 37 36  1  0  0  0
 37 33  1  0  0  0
 57 58  1  0  0  0
 15 16  1  0  0  0
 15 14  1  0  0  0
 32 33  1  0  0  0
 32  1  1  0  0  0
 27 26  1  0  0  0
  5  4  1  0  0  0
 14 13  1  0  0  0
  1  4  1  0  0  0
  1  2  1  0  0  0
 13 10  1  0  0  0
  4  7  1  0  0  0
 10  7  1  0  0  0
 10 11  1  0  0  0
  7  8  1  0  0  0
 41 44  1  0  0  0
 29 31  1  0  0  0
 55 56  1  0  0  0
  2  3  1  0  0  0
  8  9  1  0  0  0
  5  6  1  0  0  0
 11 12  1  0  0  0
M  END
> <minimizedAffinity>
-9.64812

$$$$
4I9H_1E4_A_401


 58 61  0  0  0  0  0  0  0  0999 V2000
   14.6153   14.5910   34.9304 C   0  0  0  0  0  0  0  0  0  0  0  0
   14.1340   14.1088   36.1822 O   0  0  0  0  0  0  0  0  0  0  0  0
   14.8856   13.8750   36.7491 H   0  0  0  0  0  0  0  0  0  0  0  0
   15.4415   15.9014   35.0510 C   0  0  0  0  0  0  0  0  0  0  0  0
   16.8487   15.6398   35.1836 O   0  0  0  0  0  0  0  0  0  0  0  0
   17.1825   15.2431   34.3638 H   0  0  0  0  0  0  0  0  0  0  0  0
   15.2747   16.9468   33.8863 C   0  0  0  0  0  0  0  0  0  0  0  0
   16.2065   16.6593   32.8643 O   0  0  0  0  0  0  0  0  0  0  0  0
   17.1071   16.7667   33.2082 H   0  0  0  0  0  0  0  0  0  0  0  0
   15.1476   18.4482   34.3170 C   0  0  0  0  0  0  0  0  0  0  0  0
   15.8724   18.5509   35.5250 O   0  0  0  0  0  0  0  0  0  0  0  0
   15.4562   17.9925   36.2002 H   0  0  0  0  0  0  0  0  0  0  0  0
   13.7448   19.0184   34.5931 C   0  0  0  0  0  0  0  0  0  0  0  0
   13.5105   18.9181   36.0160 O   0  0  0  0  0  0  0  0  0  0  0  0
   12.4317   18.1046   36.4240 C   0  0  0  0  0  0  0  0  0  0  0  0
   12.6577   17.1100   37.4288 C   0  0  0  0  0  0  0  0  0  0  0  0
   11.6031   16.2496   37.8751 C   0  0  0  0  0  0  0  0  0  0  0  0
   10.3416   16.4182   37.2904 C   0  0  0  0  0  0  0  0  0  0  0  0
   10.1288   17.3903   36.3137 C   0  0  0  0  0  0  0  0  0  0  0  0
   11.1470   18.2365   35.8674 C   0  0  0  0  0  0  0  0  0  0  0  0
    8.9195   17.5135   35.7751 F   0  0  0  0  0  0  0  0  0  0  0  0
   11.7693   15.1644   38.8921 C   0  0  0  0  0  0  0  0  0  0  0  0
   12.5035   15.2751   40.0847 C   0  0  0  0  0  0  0  0  0  0  0  0
   12.5648   14.1873   40.9828 C   0  0  0  0  0  0  0  0  0  0  0  0
   11.8981   12.9789   40.7067 C   0  0  0  0  0  0  0  0  0  0  0  0
   11.1790   12.9107   39.5022 C   0  0  0  0  0  0  0  0  0  0  0  0
   11.1243   13.9647   38.6442 N   0  0  0  0  0  0  0  0  0  0  0  0
   11.9417   11.8257   41.6424 C   0  0  0  0  0  0  0  0  0  0  0  0
   12.9367   11.1896   41.8086 O   0  0  0  0  0  0  0  0  0  0  0  0
   10.7878   11.4700   42.2067 O   0  0  0  0  0  0  0  0  0  0  0  0
   13.7374   11.4575   41.4024 H   0  0  0  0  0  0  0  0  0  0  0  0
   15.4567   13.4650   34.3095 C   0  0  0  0  0  0  0  0  0  0  0  0
   15.8926   13.7701   33.0182 O   0  0  0  0  0  0  0  0  0  0  0  0
   14.0452   11.8380   29.6930 C   0  0  0  0  0  0  0  0  0  0  0  0
   13.4771   12.9458   30.3849 C   0  0  0  0  0  0  0  0  0  0  0  0
   14.1752   13.5139   31.4848 C   0  0  0  0  0  0  0  0  0  0  0  0
   15.4199   13.0214   31.9147 C   0  0  0  0  0  0  0  0  0  0  0  0
   15.9801   11.9039   31.2083 C   0  0  0  0  0  0  0  0  0  0  0  0
   15.2987   11.3203   30.1063 C   0  0  0  0  0  0  0  0  0  0  0  0
   17.4922   11.1280   31.5518 Cl  0  0  0  0  0  0  0  0  0  0  0  0
   13.3485   11.2889   28.6208 N   0  0  0  0  0  0  0  0  0  0  0  0
   13.8201   10.2863   27.8228 C   0  0  0  0  0  0  0  0  0  0  0  0
   14.1336    9.1849   28.2700 O   0  0  0  0  0  0  0  0  0  0  0  0
   12.4532   11.6482   28.4240 H   0  0  0  0  0  0  0  0  0  0  0  0
   13.4091   10.4277   26.3594 C   0  0  0  0  0  0  0  0  0  0  0  0
   12.0909    9.2839   25.8800 S   0  0  0  0  0  0  0  0  0  0  0  0
   10.6741   10.1715   26.4608 C   0  0  0  0  0  0  0  0  0  0  0  0
    9.4246    9.5240   26.4856 C   0  0  0  0  0  0  0  0  0  0  0  0
    8.3069   10.2513   26.9602 C   0  0  0  0  0  0  0  0  0  0  0  0
    8.4642   11.5898   27.3926 C   0  0  0  0  0  0  0  0  0  0  0  0
    9.7537   12.1456   27.3249 C   0  0  0  0  0  0  0  0  0  0  0  0
   10.8361   11.4536   26.8704 N   0  0  0  0  0  0  0  0  0  0  0  0
    7.3325   12.3824   27.8964 C   0  0  0  0  0  0  0  0  0  0  0  0
    6.3165   12.4483   27.2749 O   0  0  0  0  0  0  0  0  0  0  0  0
    7.5604   13.1562   28.9611 O   0  0  0  0  0  0  0  0  0  0  0  0
    8.3684   13.0821   29.4297 H   0  0  0  0  0  0  0  0  0  0  0  0
   12.2217   13.4206   29.9247 O   0  0  0  0  0  0  0  0  0  0  0  0
   11.8854   14.7688   30.2661 C   0  0  0  0  0  0  0  0  0  0  0  0
 46 47  1  0  0  0
 46 45  1  0  0  0
 43 42  2  0  0  0
 48 47  2  0  0  0
 48 49  1  0  0  0
 21 19  1  0  0  0
 47 52  1  0  0  0
 42 45  1  0  0  0
 42 41  1  0  0  0
 49 50  2  0  0  0
 41 34  1  0  0  0
 19 18  2  0  0  0
 19 20  1  0  0  0
 39 34  2  0  0  0
 39 38  1  0  0  0
 18 17  1  0  0  0
 40 38  1  0  0  0
 23 24  2  0  0  0
 23 22  1  0  0  0
 24 25  1  0  0  0
 52 51  2  0  0  0
 34 35  1  0  0  0
 50 51  1  0  0  0
 50 53  1  0  0  0
 30 28  2  0  0  0
 38 37  2  0  0  0
 20 15  2  0  0  0
 54 53  2  0  0  0
 17 22  1  0  0  0
 17 16  2  0  0  0
 22 27  2  0  0  0
 53 55  1  0  0  0
 35 57  1  0  0  0
 35 36  2  0  0  0
 25 28  1  0  0  0
 25 26  2  0  0  0
 28 29  1  0  0  0
 37 36  1  0  0  0
 37 33  1  0  0  0
 57 58  1  0  0  0
 15 16  1  0  0  0
 15 14  1  0  0  0
 32 33  1  0  0  0
 32  1  1  0  0  0
 27 26  1  0  0  0
  5  4  1  0  0  0
 14 13  1  0  0  0
  1  4  1  0  0  0
  1  2  1  0  0  0
 13 10  1  0  0  0
  4  7  1  0  0  0
 10  7  1  0  0  0
 10 11  1  0  0  0
  7  8  1  0  0  0
 41 44  1  0  0  0
 29 31  1  0  0  0
 55 56  1  0  0  0
  2  3  1  0  0  0
  8  9  1  0  0  0
  5  6  1  0  0  0
 11 12  1  0  0  0
M  END
> <minimizedAffinity>
-9.62478

$$$$
4I9H_1E4_A_401


 58 61  0  0  0  0  0  0  0  0999 V2000
   14.9873   14.3555   34.0764 C   0  0  0  0  0  0  0  0  0  0  0  0
   13.5903   14.0950   34.1833 O   0  0  0  0  0  0  0  0  0  0  0  0
   13.4526   13.2571   34.6522 H   0  0  0  0  0  0  0  0  0  0  0  0
   15.6844   14.5532   35.4510 C   0  0  0  0  0  0  0  0  0  0  0  0
   16.7552   15.5095   35.3784 O   0  0  0  0  0  0  0  0  0  0  0  0
   16.3915   16.3881   35.1870 H   0  0  0  0  0  0  0  0  0  0  0  0
   14.7618   14.9842   36.6511 C   0  0  0  0  0  0  0  0  0  0  0  0
   13.8820   16.0023   36.2210 O   0  0  0  0  0  0  0  0  0  0  0  0
   14.3939   16.7862   35.9675 H   0  0  0  0  0  0  0  0  0  0  0  0
   15.4769   15.2108   38.0270 C   0  0  0  0  0  0  0  0  0  0  0  0
   16.4487   14.1894   38.1133 O   0  0  0  0  0  0  0  0  0  0  0  0
   16.0090   13.3249   38.1248 H   0  0  0  0  0  0  0  0  0  0  0  0
   14.6372   15.1323   39.3145 C   0  0  0  0  0  0  0  0  0  0  0  0
   13.2455   15.1436   38.9236 O   0  0  0  0  0  0  0  0  0  0  0  0
   12.4044   14.1995   39.5507 C   0  0  0  0  0  0  0  0  0  0  0  0
   12.4544   14.0684   40.9755 C   0  0  0  0  0  0  0  0  0  0  0  0
   11.6310   13.1208   41.6652 C   0  0  0  0  0  0  0  0  0  0  0  0
   10.7749   12.3265   40.8921 C   0  0  0  0  0  0  0  0  0  0  0  0
   10.7304   12.4613   39.5050 C   0  0  0  0  0  0  0  0  0  0  0  0
   11.5275   13.3802   38.8177 C   0  0  0  0  0  0  0  0  0  0  0  0
    9.9117   11.6825   38.8045 F   0  0  0  0  0  0  0  0  0  0  0  0
   11.6530   12.8995   43.1452 C   0  0  0  0  0  0  0  0  0  0  0  0
   12.4285   11.9352   43.8103 C   0  0  0  0  0  0  0  0  0  0  0  0
   12.3861   11.8399   45.2185 C   0  0  0  0  0  0  0  0  0  0  0  0
   11.5740   12.7006   45.9807 C   0  0  0  0  0  0  0  0  0  0  0  0
   10.8133   13.6470   45.2750 C   0  0  0  0  0  0  0  0  0  0  0  0
   10.8623   13.7323   43.9184 N   0  0  0  0  0  0  0  0  0  0  0  0
   11.5221   12.6236   47.4634 C   0  0  0  0  0  0  0  0  0  0  0  0
   11.2866   11.6014   48.0310 O   0  0  0  0  0  0  0  0  0  0  0  0
   11.6456   13.7732   48.1263 O   0  0  0  0  0  0  0  0  0  0  0  0
   11.2038   10.8043   47.5455 H   0  0  0  0  0  0  0  0  0  0  0  0
   15.6062   13.1762   33.3100 C   0  0  0  0  0  0  0  0  0  0  0  0
   15.7808   13.4510   31.9518 O   0  0  0  0  0  0  0  0  0  0  0  0
   14.0200   10.9596   28.9693 C   0  0  0  0  0  0  0  0  0  0  0  0
   13.4077   12.1384   29.4832 C   0  0  0  0  0  0  0  0  0  0  0  0
   14.0798   12.8958   30.4805 C   0  0  0  0  0  0  0  0  0  0  0  0
   15.3408   12.5234   30.9782 C   0  0  0  0  0  0  0  0  0  0  0  0
   15.9457   11.3324   30.4515 C   0  0  0  0  0  0  0  0  0  0  0  0
   15.2909   10.5601   29.4545 C   0  0  0  0  0  0  0  0  0  0  0  0
   17.4850   10.6772   30.9071 Cl  0  0  0  0  0  0  0  0  0  0  0  0
   13.3484   10.2253   27.9964 N   0  0  0  0  0  0  0  0  0  0  0  0
   13.5171   10.3861   26.6510 C   0  0  0  0  0  0  0  0  0  0  0  0
   14.6084   10.2383   26.1048 O   0  0  0  0  0  0  0  0  0  0  0  0
   12.7072    9.5424   28.2993 H   0  0  0  0  0  0  0  0  0  0  0  0
   12.2308   10.2034   25.8494 C   0  0  0  0  0  0  0  0  0  0  0  0
   11.7284   11.7005   24.9651 S   0  0  0  0  0  0  0  0  0  0  0  0
    9.9942   11.7106   25.3184 C   0  0  0  0  0  0  0  0  0  0  0  0
    9.1342   12.4671   24.5000 C   0  0  0  0  0  0  0  0  0  0  0  0
    7.7505   12.4548   24.7974 C   0  0  0  0  0  0  0  0  0  0  0  0
    7.2674   11.6968   25.8908 C   0  0  0  0  0  0  0  0  0  0  0  0
    8.2090   10.9781   26.6477 C   0  0  0  0  0  0  0  0  0  0  0  0
    9.5429   10.9827   26.3691 N   0  0  0  0  0  0  0  0  0  0  0  0
    5.8382   11.6517   26.2348 C   0  0  0  0  0  0  0  0  0  0  0  0
    5.2554   12.6501   26.5286 O   0  0  0  0  0  0  0  0  0  0  0  0
    5.2877   10.4436   26.3817 O   0  0  0  0  0  0  0  0  0  0  0  0
    5.7700    9.6767   26.1422 H   0  0  0  0  0  0  0  0  0  0  0  0
   12.1368   12.4882   28.9583 O   0  0  0  0  0  0  0  0  0  0  0  0
   11.8727   13.8861   28.8047 C   0  0  0  0  0  0  0  0  0  0  0  0
 46 47  1  0  0  0
 46 45  1  0  0  0
 43 42  2  0  0  0
 48 47  2  0  0  0
 48 49  1  0  0  0
 21 19  1  0  0  0
 47 52  1  0  0  0
 42 45  1  0  0  0
 42 41  1  0  0  0
 49 50  2  0  0  0
 41 34  1  0  0  0
 19 18  2  0  0  0
 19 20  1  0  0  0
 39 34  2  0  0  0
 39 38  1  0  0  0
 18 17  1  0  0  0
 40 38  1  0  0  0
 23 24  2  0  0  0
 23 22  1  0  0  0
 24 25  1  0  0  0
 52 51  2  0  0  0
 34 35  1  0  0  0
 50 51  1  0  0  0
 50 53  1  0  0  0
 30 28  2  0  0  0
 38 37  2  0  0  0
 20 15  2  0  0  0
 54 53  2  0  0  0
 17 22  1  0  0  0
 17 16  2  0  0  0
 22 27  2  0  0  0
 53 55  1  0  0  0
 35 57  1  0  0  0
 35 36  2  0  0  0
 25 28  1  0  0  0
 25 26  2  0  0  0
 28 29  1  0  0  0
 37 36  1  0  0  0
 37 33  1  0  0  0
 57 58  1  0  0  0
 15 16  1  0  0  0
 15 14  1  0  0  0
 32 33  1  0  0  0
 32  1  1  0  0  0
 27 26  1  0  0  0
  5  4  1  0  0  0
 14 13  1  0  0  0
  1  4  1  0  0  0
  1  2  1  0  0  0
 13 10  1  0  0  0
  4  7  1  0  0  0
 10  7  1  0  0  0
 10 11  1  0  0  0
  7  8  1  0  0  0
 41 44  1  0  0  0
 29 31  1  0  0  0
 55 56  1  0  0  0
  2  3  1  0  0  0
  8  9  1  0  0  0
  5  6  1  0  0  0
 11 12  1  0  0  0
M  END
> <minimizedAffinity>
-9.56078

$$$$
4I9H_1E4_A_401


 58 61  0  0  0  0  0  0  0  0999 V2000
   14.6984   15.2153   36.9970 C   0  0  0  0  0  0  0  0  0  0  0  0
   13.9568   14.0400   36.6814 O   0  0  0  0  0  0  0  0  0  0  0  0
   13.2006   14.2755   36.1215 H   0  0  0  0  0  0  0  0  0  0  0  0
   15.3271   15.9004   35.7521 C   0  0  0  0  0  0  0  0  0  0  0  0
   16.5345   15.2447   35.3297 O   0  0  0  0  0  0  0  0  0  0  0  0
   16.3234   14.3541   35.0084 H   0  0  0  0  0  0  0  0  0  0  0  0
   14.4060   16.0327   34.4828 C   0  0  0  0  0  0  0  0  0  0  0  0
   13.4538   14.9892   34.4865 O   0  0  0  0  0  0  0  0  0  0  0  0
   13.9090   14.1358   34.4127 H   0  0  0  0  0  0  0  0  0  0  0  0
   15.1357   16.3110   33.1242 C   0  0  0  0  0  0  0  0  0  0  0  0
   14.4515   17.4066   32.5526 O   0  0  0  0  0  0  0  0  0  0  0  0
   13.5324   17.1550   32.3714 H   0  0  0  0  0  0  0  0  0  0  0  0
   15.1581   15.1995   32.0597 C   0  0  0  0  0  0  0  0  0  0  0  0
   15.5291   13.9713   32.7258 O   0  0  0  0  0  0  0  0  0  0  0  0
   15.8365   12.8703   31.8979 C   0  0  0  0  0  0  0  0  0  0  0  0
   14.8978   12.4809   30.8893 C   0  0  0  0  0  0  0  0  0  0  0  0
   15.1518   11.3661   30.0266 C   0  0  0  0  0  0  0  0  0  0  0  0
   16.3541   10.6708   30.2075 C   0  0  0  0  0  0  0  0  0  0  0  0
   17.2641   11.0572   31.1907 C   0  0  0  0  0  0  0  0  0  0  0  0
   17.0307   12.1416   32.0402 C   0  0  0  0  0  0  0  0  0  0  0  0
   18.3903   10.3663   31.3384 F   0  0  0  0  0  0  0  0  0  0  0  0
   14.2054   10.8762   28.9759 C   0  0  0  0  0  0  0  0  0  0  0  0
   14.2994    9.6426   28.3102 C   0  0  0  0  0  0  0  0  0  0  0  0
   13.3267    9.2773   27.3541 C   0  0  0  0  0  0  0  0  0  0  0  0
   12.2510   10.1322   27.0491 C   0  0  0  0  0  0  0  0  0  0  0  0
   12.1977   11.3563   27.7355 C   0  0  0  0  0  0  0  0  0  0  0  0
   13.1385   11.6985   28.6563 N   0  0  0  0  0  0  0  0  0  0  0  0
   11.2117    9.7630   26.0537 C   0  0  0  0  0  0  0  0  0  0  0  0
   10.6706   10.5831   25.3777 O   0  0  0  0  0  0  0  0  0  0  0  0
   10.8366    8.4844   26.0275 O   0  0  0  0  0  0  0  0  0  0  0  0
   10.9503   11.4768   25.4115 H   0  0  0  0  0  0  0  0  0  0  0  0
   13.7384   16.1696   37.7243 C   0  0  0  0  0  0  0  0  0  0  0  0
   13.4173   15.7307   39.0108 O   0  0  0  0  0  0  0  0  0  0  0  0
    9.6475   14.0509   40.0920 C   0  0  0  0  0  0  0  0  0  0  0  0
   10.8914   13.3727   40.2385 C   0  0  0  0  0  0  0  0  0  0  0  0
   12.0915   14.0230   39.8428 C   0  0  0  0  0  0  0  0  0  0  0  0
   12.0958   15.3251   39.3125 C   0  0  0  0  0  0  0  0  0  0  0  0
   10.8346   15.9963   39.1698 C   0  0  0  0  0  0  0  0  0  0  0  0
    9.6227   15.3643   39.5587 C   0  0  0  0  0  0  0  0  0  0  0  0
   10.5894   17.5950   38.5450 Cl  0  0  0  0  0  0  0  0  0  0  0  0
    8.4798   13.4003   40.4794 N   0  0  0  0  0  0  0  0  0  0  0  0
    7.2228   13.7735   40.0988 C   0  0  0  0  0  0  0  0  0  0  0  0
    6.8830   13.8237   38.9184 O   0  0  0  0  0  0  0  0  0  0  0  0
    8.5662   12.6164   41.0688 H   0  0  0  0  0  0  0  0  0  0  0  0
    6.1721   13.5754   41.1883 C   0  0  0  0  0  0  0  0  0  0  0  0
    5.8627   15.0738   42.1551 S   0  0  0  0  0  0  0  0  0  0  0  0
    7.4582   15.3178   42.8811 C   0  0  0  0  0  0  0  0  0  0  0  0
    8.1120   16.5507   42.6964 C   0  0  0  0  0  0  0  0  0  0  0  0
    9.3841   16.7256   43.2918 C   0  0  0  0  0  0  0  0  0  0  0  0
    9.9632   15.6778   44.0470 C   0  0  0  0  0  0  0  0  0  0  0  0
    9.2297   14.4848   44.1691 C   0  0  0  0  0  0  0  0  0  0  0  0
    8.0041   14.3068   43.6005 N   0  0  0  0  0  0  0  0  0  0  0  0
   11.2804   15.8159   44.6862 C   0  0  0  0  0  0  0  0  0  0  0  0
   11.9167   14.8490   44.9747 O   0  0  0  0  0  0  0  0  0  0  0  0
   11.6341   17.0396   45.0881 O   0  0  0  0  0  0  0  0  0  0  0  0
   11.1144   17.7807   44.8458 H   0  0  0  0  0  0  0  0  0  0  0  0
   10.8530   12.0614   40.7791 O   0  0  0  0  0  0  0  0  0  0  0  0
   11.4130   11.8930   42.0849 C   0  0  0  0  0  0  0  0  0  0  0  0
 46 47  1  0  0  0
 46 45  1  0  0  0
 43 42  2  0  0  0
 48 47  2  0  0  0
 48 49  1  0  0  0
 21 19  1  0  0  0
 47 52  1  0  0  0
 42 45  1  0  0  0
 42 41  1  0  0  0
 49 50  2  0  0  0
 41 34  1  0  0  0
 19 18  2  0  0  0
 19 20  1  0  0  0
 39 34  2  0  0  0
 39 38  1  0  0  0
 18 17  1  0  0  0
 40 38  1  0  0  0
 23 24  2  0  0  0
 23 22  1  0  0  0
 24 25  1  0  0  0
 52 51  2  0  0  0
 34 35  1  0  0  0
 50 51  1  0  0  0
 50 53  1  0  0  0
 30 28  2  0  0  0
 38 37  2  0  0  0
 20 15  2  0  0  0
 54 53  2  0  0  0
 17 22  1  0  0  0
 17 16  2  0  0  0
 22 27  2  0  0  0
 53 55  1  0  0  0
 35 57  1  0  0  0
 35 36  2  0  0  0
 25 28  1  0  0  0
 25 26  2  0  0  0
 28 29  1  0  0  0
 37 36  1  0  0  0
 37 33  1  0  0  0
 57 58  1  0  0  0
 15 16  1  0  0  0
 15 14  1  0  0  0
 32 33  1  0  0  0
 32  1  1  0  0  0
 27 26  1  0  0  0
  5  4  1  0  0  0
 14 13  1  0  0  0
  1  4  1  0  0  0
  1  2  1  0  0  0
 13 10  1  0  0  0
  4  7  1  0  0  0
 10  7  1  0  0  0
 10 11  1  0  0  0
  7  8  1  0  0  0
 41 44  1  0  0  0
 29 31  1  0  0  0
 55 56  1  0  0  0
  2  3  1  0  0  0
  8  9  1  0  0  0
  5  6  1  0  0  0
 11 12  1  0  0  0
M  END
> <minimizedAffinity>
-9.54448

$$$$
