5OP4_A0T_A_301


 33 35  0  0  0  0  0  0  0  0999 V2000
    3.4640   -6.7586   15.8902 C   0  0  0  0  0  0  0  0  0  0  0  0
    2.4110   -6.5200   16.7967 C   0  0  0  0  0  0  0  0  0  0  0  0
    1.0965   -6.7705   16.3471 C   0  0  0  0  0  0  0  0  0  0  0  0
    0.8095   -7.2197   15.0786 C   0  0  0  0  0  0  0  0  0  0  0  0
    1.8495   -7.4800   14.2029 C   0  0  0  0  0  0  0  0  0  0  0  0
    3.1755   -7.2229   14.5871 C   0  0  0  0  0  0  0  0  0  0  0  0
    0.0352   -6.5806   17.1079 F   0  0  0  0  0  0  0  0  0  0  0  0
   -0.6457   -7.5191   14.6301 C   0  0  0  0  0  0  0  0  0  0  0  0
   -1.2623   -6.6023   14.0674 O   0  0  0  0  0  0  0  0  0  0  0  0
   -1.3687   -8.6135   14.9767 N   0  0  0  0  0  0  0  0  0  0  0  0
   -2.8595   -8.5633   14.9336 C   0  0  0  0  0  0  0  0  0  0  0  0
   -3.3715   -8.3991   16.3748 C   0  0  0  0  0  0  0  0  0  0  0  0
   -2.9726   -9.6209   17.0695 O   0  0  0  0  0  0  0  0  0  0  0  0
   -1.5646  -10.0895   16.9321 C   0  0  0  0  0  0  0  0  0  0  0  0
   -0.7934   -9.7995   15.6310 C   0  0  0  0  0  0  0  0  0  0  0  0
    4.8109   -6.6195   16.2168 N   0  0  0  0  0  0  0  0  0  0  0  0
    5.3842   -7.4013   16.0453 H   0  0  0  0  0  0  0  0  0  0  0  0
    5.6929   -4.0200   18.3692 C   0  0  0  0  0  0  0  0  0  0  0  0
    6.7126   -3.3868   17.6186 C   0  0  0  0  0  0  0  0  0  0  0  0
    7.0888   -3.9320   16.4097 C   0  0  0  0  0  0  0  0  0  0  0  0
    6.4282   -5.0186   16.0398 N   0  0  0  0  0  0  0  0  0  0  0  0
    5.4095   -5.5537   16.7327 C   0  0  0  0  0  0  0  0  0  0  0  0
    5.0418   -5.0770   17.9097 N   0  0  0  0  0  0  0  0  0  0  0  0
    7.4750   -2.1693   18.1255 C   0  0  0  0  0  0  0  0  0  0  0  0
    8.3268   -1.7213   17.1448 F   0  0  0  0  0  0  0  0  0  0  0  0
    8.1148   -2.5310   19.2670 F   0  0  0  0  0  0  0  0  0  0  0  0
    6.6369   -1.2070   18.3461 F   0  0  0  0  0  0  0  0  0  0  0  0
    5.2927   -3.6187   19.5339 N   0  0  0  0  0  0  0  0  0  0  0  0
    5.9471   -3.3401   20.2147 H   0  0  0  0  0  0  0  0  0  0  0  0
    3.3267   -2.1645   19.8441 C   0  0  0  0  0  0  0  0  0  0  0  0
    3.8616   -3.5829   19.8291 C   0  0  0  0  0  0  0  0  0  0  0  0
    4.2348   -7.4532   13.7335 O   0  0  0  0  0  0  0  0  0  0  0  0
    3.9499   -8.2542   12.5781 C   0  0  0  0  0  0  0  0  0  0  0  0
 30 31  1  0  0  0
 25 24  1  0  0  0
 31 28  1  0  0  0
 28 18  1  0  0  0
  7  3  1  0  0  0
 24 27  1  0  0  0
 24 26  1  0  0  0
 24 19  1  0  0  0
 18 19  2  0  0  0
 18 23  1  0  0  0
 19 20  1  0  0  0
 23 22  2  0  0  0
  3  2  2  0  0  0
  3  4  1  0  0  0
  2  1  1  0  0  0
 20 21  2  0  0  0
  9  8  2  0  0  0
 22 21  1  0  0  0
 22 16  1  0  0  0
  8  4  1  0  0  0
  8 10  1  0  0  0
  4  5  2  0  0  0
  1 16  1  0  0  0
  1  6  2  0  0  0
 10 15  1  0  0  0
 10 11  1  0  0  0
 15 14  1  0  0  0
 11 12  1  0  0  0
  5  6  1  0  0  0
  6 32  1  0  0  0
 14 13  1  0  0  0
 12 13  1  0  0  0
 32 33  1  0  0  0
 28 29  1  0  0  0
 16 17  1  0  0  0
M  END
> <minimizedAffinity>
-7.90354

$$$$
5OP4_A0T_A_301


 33 35  0  0  0  0  0  0  0  0999 V2000
    0.8522   -3.1897   20.6214 C   0  0  0  0  0  0  0  0  0  0  0  0
    0.5376   -4.1142   19.6047 C   0  0  0  0  0  0  0  0  0  0  0  0
   -0.6445   -4.8707   19.7567 C   0  0  0  0  0  0  0  0  0  0  0  0
   -1.4791   -4.7496   20.8439 C   0  0  0  0  0  0  0  0  0  0  0  0
   -1.1801   -3.8194   21.8245 C   0  0  0  0  0  0  0  0  0  0  0  0
   -0.0027   -3.0588   21.7390 C   0  0  0  0  0  0  0  0  0  0  0  0
   -1.0363   -5.7658   18.8698 F   0  0  0  0  0  0  0  0  0  0  0  0
   -2.7899   -5.5720   20.9604 C   0  0  0  0  0  0  0  0  0  0  0  0
   -2.6934   -6.7282   21.3978 O   0  0  0  0  0  0  0  0  0  0  0  0
   -3.9921   -5.2182   20.4404 N   0  0  0  0  0  0  0  0  0  0  0  0
   -5.0182   -6.2653   20.1616 C   0  0  0  0  0  0  0  0  0  0  0  0
   -5.0182   -6.5397   18.6481 C   0  0  0  0  0  0  0  0  0  0  0  0
   -5.4552   -5.2913   18.0277 O   0  0  0  0  0  0  0  0  0  0  0  0
   -4.8059   -4.0197   18.4551 C   0  0  0  0  0  0  0  0  0  0  0  0
   -4.2868   -3.8822   19.8984 C   0  0  0  0  0  0  0  0  0  0  0  0
    1.9478   -2.3309   20.5727 N   0  0  0  0  0  0  0  0  0  0  0  0
    1.8211   -1.4394   20.9708 H   0  0  0  0  0  0  0  0  0  0  0  0
    4.6045   -3.9028   18.9482 C   0  0  0  0  0  0  0  0  0  0  0  0
    5.6111   -2.9143   19.0655 C   0  0  0  0  0  0  0  0  0  0  0  0
    5.2996   -1.7111   19.6618 C   0  0  0  0  0  0  0  0  0  0  0  0
    4.0563   -1.5940   20.1025 N   0  0  0  0  0  0  0  0  0  0  0  0
    3.1425   -2.5771   20.0509 C   0  0  0  0  0  0  0  0  0  0  0  0
    3.3954   -3.7320   19.4593 N   0  0  0  0  0  0  0  0  0  0  0  0
    7.0094   -3.0881   18.4868 C   0  0  0  0  0  0  0  0  0  0  0  0
    7.7841   -2.0057   18.8280 F   0  0  0  0  0  0  0  0  0  0  0  0
    6.8815   -3.2541   17.1454 F   0  0  0  0  0  0  0  0  0  0  0  0
    7.5679   -4.1211   19.0329 F   0  0  0  0  0  0  0  0  0  0  0  0
    4.7758   -5.0485   18.3689 N   0  0  0  0  0  0  0  0  0  0  0  0
    5.4668   -5.6702   18.6932 H   0  0  0  0  0  0  0  0  0  0  0  0
    4.7271   -5.4559   15.9382 C   0  0  0  0  0  0  0  0  0  0  0  0
    3.9345   -5.4108   17.2297 C   0  0  0  0  0  0  0  0  0  0  0  0
    0.3357   -2.1360   22.7074 O   0  0  0  0  0  0  0  0  0  0  0  0
   -0.4696   -2.1449   23.8945 C   0  0  0  0  0  0  0  0  0  0  0  0
 30 31  1  0  0  0
 25 24  1  0  0  0
 31 28  1  0  0  0
 28 18  1  0  0  0
  7  3  1  0  0  0
 24 27  1  0  0  0
 24 26  1  0  0  0
 24 19  1  0  0  0
 18 19  2  0  0  0
 18 23  1  0  0  0
 19 20  1  0  0  0
 23 22  2  0  0  0
  3  2  2  0  0  0
  3  4  1  0  0  0
  2  1  1  0  0  0
 20 21  2  0  0  0
  9  8  2  0  0  0
 22 21  1  0  0  0
 22 16  1  0  0  0
  8  4  1  0  0  0
  8 10  1  0  0  0
  4  5  2  0  0  0
  1 16  1  0  0  0
  1  6  2  0  0  0
 10 15  1  0  0  0
 10 11  1  0  0  0
 15 14  1  0  0  0
 11 12  1  0  0  0
  5  6  1  0  0  0
  6 32  1  0  0  0
 14 13  1  0  0  0
 12 13  1  0  0  0
 32 33  1  0  0  0
 28 29  1  0  0  0
 16 17  1  0  0  0
M  END
> <minimizedAffinity>
-7.77466

$$$$
5OP4_A0T_A_301


 33 35  0  0  0  0  0  0  0  0999 V2000
    0.9966   -3.2127   20.3126 C   0  0  0  0  0  0  0  0  0  0  0  0
    0.8025   -4.0290   19.1796 C   0  0  0  0  0  0  0  0  0  0  0  0
   -0.4130   -4.7414   19.0919 C   0  0  0  0  0  0  0  0  0  0  0  0
   -1.3918   -4.6784   20.0570 C   0  0  0  0  0  0  0  0  0  0  0  0
   -1.2078   -3.8526   21.1526 C   0  0  0  0  0  0  0  0  0  0  0  0
   -0.0064   -3.1418   21.3055 C   0  0  0  0  0  0  0  0  0  0  0  0
   -0.7012   -5.5364   18.0788 F   0  0  0  0  0  0  0  0  0  0  0  0
   -2.7317   -5.4474   19.9099 C   0  0  0  0  0  0  0  0  0  0  0  0
   -3.6374   -4.8861   19.2759 O   0  0  0  0  0  0  0  0  0  0  0  0
   -3.0699   -6.5783   20.5788 N   0  0  0  0  0  0  0  0  0  0  0  0
   -4.5081   -6.9333   20.7584 C   0  0  0  0  0  0  0  0  0  0  0  0
   -4.9110   -6.5713   22.1981 C   0  0  0  0  0  0  0  0  0  0  0  0
   -4.1117   -7.4436   23.0552 O   0  0  0  0  0  0  0  0  0  0  0  0
   -2.6471   -7.5445   22.7987 C   0  0  0  0  0  0  0  0  0  0  0  0
   -2.1168   -7.3804   21.3623 C   0  0  0  0  0  0  0  0  0  0  0  0
    2.1149   -2.4037   20.4994 N   0  0  0  0  0  0  0  0  0  0  0  0
    1.9932   -1.6190   21.0813 H   0  0  0  0  0  0  0  0  0  0  0  0
    4.8775   -3.7961   18.8877 C   0  0  0  0  0  0  0  0  0  0  0  0
    5.8151   -2.7422   19.0073 C   0  0  0  0  0  0  0  0  0  0  0  0
    5.4212   -1.5618   19.6005 C   0  0  0  0  0  0  0  0  0  0  0  0
    4.1711   -1.5277   20.0362 N   0  0  0  0  0  0  0  0  0  0  0  0
    3.3256   -2.5699   19.9826 C   0  0  0  0  0  0  0  0  0  0  0  0
    3.6576   -3.7061   19.3938 N   0  0  0  0  0  0  0  0  0  0  0  0
    7.2242   -2.8225   18.4343 C   0  0  0  0  0  0  0  0  0  0  0  0
    7.1575   -2.9105   17.0647 F   0  0  0  0  0  0  0  0  0  0  0  0
    7.8421   -3.8854   19.0103 F   0  0  0  0  0  0  0  0  0  0  0  0
    7.8513   -1.7204   18.6975 F   0  0  0  0  0  0  0  0  0  0  0  0
    5.1275   -4.9285   18.3109 N   0  0  0  0  0  0  0  0  0  0  0  0
    5.8644   -5.4970   18.6319 H   0  0  0  0  0  0  0  0  0  0  0  0
    5.0294   -5.1708   15.8597 C   0  0  0  0  0  0  0  0  0  0  0  0
    4.3065   -5.3554   17.1794 C   0  0  0  0  0  0  0  0  0  0  0  0
    0.2181   -2.3241   22.3940 O   0  0  0  0  0  0  0  0  0  0  0  0
   -0.8390   -2.2590   23.3615 C   0  0  0  0  0  0  0  0  0  0  0  0
 30 31  1  0  0  0
 25 24  1  0  0  0
 31 28  1  0  0  0
 28 18  1  0  0  0
  7  3  1  0  0  0
 24 27  1  0  0  0
 24 26  1  0  0  0
 24 19  1  0  0  0
 18 19  2  0  0  0
 18 23  1  0  0  0
 19 20  1  0  0  0
 23 22  2  0  0  0
  3  2  2  0  0  0
  3  4  1  0  0  0
  2  1  1  0  0  0
 20 21  2  0  0  0
  9  8  2  0  0  0
 22 21  1  0  0  0
 22 16  1  0  0  0
  8  4  1  0  0  0
  8 10  1  0  0  0
  4  5  2  0  0  0
  1 16  1  0  0  0
  1  6  2  0  0  0
 10 15  1  0  0  0
 10 11  1  0  0  0
 15 14  1  0  0  0
 11 12  1  0  0  0
  5  6  1  0  0  0
  6 32  1  0  0  0
 14 13  1  0  0  0
 12 13  1  0  0  0
 32 33  1  0  0  0
 28 29  1  0  0  0
 16 17  1  0  0  0
M  END
> <minimizedAffinity>
-7.68735

$$$$
5OP4_A0T_A_301


 33 35  0  0  0  0  0  0  0  0999 V2000
    1.6314   -5.7996   16.6666 C   0  0  0  0  0  0  0  0  0  0  0  0
    2.7773   -6.1148   17.4249 C   0  0  0  0  0  0  0  0  0  0  0  0
    3.6964   -7.0285   16.8653 C   0  0  0  0  0  0  0  0  0  0  0  0
    3.5138   -7.6196   15.6362 C   0  0  0  0  0  0  0  0  0  0  0  0
    2.4015   -7.2838   14.8838 C   0  0  0  0  0  0  0  0  0  0  0  0
    1.4401   -6.4013   15.4023 C   0  0  0  0  0  0  0  0  0  0  0  0
    4.8009   -7.3979   17.4856 F   0  0  0  0  0  0  0  0  0  0  0  0
    4.5635   -8.5924   15.0361 C   0  0  0  0  0  0  0  0  0  0  0  0
    4.3953   -9.8029   15.2455 O   0  0  0  0  0  0  0  0  0  0  0  0
    5.7485   -8.2311   14.4830 N   0  0  0  0  0  0  0  0  0  0  0  0
    6.8675   -9.2160   14.4146 C   0  0  0  0  0  0  0  0  0  0  0  0
    7.8682   -8.8769   15.5325 C   0  0  0  0  0  0  0  0  0  0  0  0
    8.3958   -7.5574   15.1934 O   0  0  0  0  0  0  0  0  0  0  0  0
    7.4333   -6.4770   14.8365 C   0  0  0  0  0  0  0  0  0  0  0  0
    6.1050   -6.8430   14.1486 C   0  0  0  0  0  0  0  0  0  0  0  0
    0.6758   -4.8666   17.0622 N   0  0  0  0  0  0  0  0  0  0  0  0
    0.0791   -4.5274   16.3564 H   0  0  0  0  0  0  0  0  0  0  0  0
    1.0936   -3.1187   20.0519 C   0  0  0  0  0  0  0  0  0  0  0  0
   -0.0712   -3.5103   20.7547 C   0  0  0  0  0  0  0  0  0  0  0  0
   -0.9859   -4.3293   20.1278 C   0  0  0  0  0  0  0  0  0  0  0  0
   -0.6723   -4.7032   18.8967 N   0  0  0  0  0  0  0  0  0  0  0  0
    0.4780   -4.3828   18.2817 C   0  0  0  0  0  0  0  0  0  0  0  0
    1.3637   -3.5750   18.8390 N   0  0  0  0  0  0  0  0  0  0  0  0
   -0.4031   -2.9999   22.1510 C   0  0  0  0  0  0  0  0  0  0  0  0
    0.7570   -2.8512   22.8721 F   0  0  0  0  0  0  0  0  0  0  0  0
   -1.2747   -3.8763   22.7126 F   0  0  0  0  0  0  0  0  0  0  0  0
   -0.9259   -1.8189   22.0565 F   0  0  0  0  0  0  0  0  0  0  0  0
    1.9949   -2.3196   20.5281 N   0  0  0  0  0  0  0  0  0  0  0  0
    1.8195   -1.8074   21.3504 H   0  0  0  0  0  0  0  0  0  0  0  0
    4.2781   -3.2206   20.3013 C   0  0  0  0  0  0  0  0  0  0  0  0
    3.2745   -2.1846   19.8347 C   0  0  0  0  0  0  0  0  0  0  0  0
    0.3105   -6.0590   14.6876 O   0  0  0  0  0  0  0  0  0  0  0  0
   -0.7909   -6.9739   14.7745 C   0  0  0  0  0  0  0  0  0  0  0  0
 30 31  1  0  0  0
 25 24  1  0  0  0
 31 28  1  0  0  0
 28 18  1  0  0  0
  7  3  1  0  0  0
 24 27  1  0  0  0
 24 26  1  0  0  0
 24 19  1  0  0  0
 18 19  2  0  0  0
 18 23  1  0  0  0
 19 20  1  0  0  0
 23 22  2  0  0  0
  3  2  2  0  0  0
  3  4  1  0  0  0
  2  1  1  0  0  0
 20 21  2  0  0  0
  9  8  2  0  0  0
 22 21  1  0  0  0
 22 16  1  0  0  0
  8  4  1  0  0  0
  8 10  1  0  0  0
  4  5  2  0  0  0
  1 16  1  0  0  0
  1  6  2  0  0  0
 10 15  1  0  0  0
 10 11  1  0  0  0
 15 14  1  0  0  0
 11 12  1  0  0  0
  5  6  1  0  0  0
  6 32  1  0  0  0
 14 13  1  0  0  0
 12 13  1  0  0  0
 32 33  1  0  0  0
 28 29  1  0  0  0
 16 17  1  0  0  0
M  END
> <minimizedAffinity>
-7.63787

$$$$
5OP4_A0T_A_301


 33 35  0  0  0  0  0  0  0  0999 V2000
    2.1609   -4.1520   18.4470 C   0  0  0  0  0  0  0  0  0  0  0  0
    1.6776   -4.7923   17.2877 C   0  0  0  0  0  0  0  0  0  0  0  0
    2.5524   -5.6770   16.6208 C   0  0  0  0  0  0  0  0  0  0  0  0
    3.8375   -5.9248   17.0456 C   0  0  0  0  0  0  0  0  0  0  0  0
    4.2962   -5.3156   18.2009 C   0  0  0  0  0  0  0  0  0  0  0  0
    3.4788   -4.4049   18.8897 C   0  0  0  0  0  0  0  0  0  0  0  0
    2.2083   -6.3287   15.5262 F   0  0  0  0  0  0  0  0  0  0  0  0
    4.7595   -6.9317   16.3079 C   0  0  0  0  0  0  0  0  0  0  0  0
    4.7889   -8.0926   16.7427 O   0  0  0  0  0  0  0  0  0  0  0  0
    5.6836   -6.6124   15.3673 N   0  0  0  0  0  0  0  0  0  0  0  0
    6.8297   -7.5326   15.1091 C   0  0  0  0  0  0  0  0  0  0  0  0
    8.0743   -6.9464   15.7973 C   0  0  0  0  0  0  0  0  0  0  0  0
    8.3364   -5.6825   15.1130 O   0  0  0  0  0  0  0  0  0  0  0  0
    7.2034   -4.7361   14.9089 C   0  0  0  0  0  0  0  0  0  0  0  0
    5.7774   -5.2894   14.7298 C   0  0  0  0  0  0  0  0  0  0  0  0
    1.3892   -3.3076   19.2417 N   0  0  0  0  0  0  0  0  0  0  0  0
    1.5755   -2.3441   19.1631 H   0  0  0  0  0  0  0  0  0  0  0  0
   -0.9421   -3.2212   21.8351 C   0  0  0  0  0  0  0  0  0  0  0  0
   -1.4999   -4.5185   21.7354 C   0  0  0  0  0  0  0  0  0  0  0  0
   -1.0738   -5.3531   20.7244 C   0  0  0  0  0  0  0  0  0  0  0  0
   -0.1387   -4.8583   19.9277 N   0  0  0  0  0  0  0  0  0  0  0  0
    0.4317   -3.6535   20.0925 C   0  0  0  0  0  0  0  0  0  0  0  0
    0.0275   -2.8145   21.0309 N   0  0  0  0  0  0  0  0  0  0  0  0
   -2.6151   -5.0096   22.6496 C   0  0  0  0  0  0  0  0  0  0  0  0
   -2.8896   -6.3267   22.3705 F   0  0  0  0  0  0  0  0  0  0  0  0
   -3.6829   -4.1902   22.4719 F   0  0  0  0  0  0  0  0  0  0  0  0
   -2.2018   -4.9767   23.8764 F   0  0  0  0  0  0  0  0  0  0  0  0
   -1.2996   -2.3428   22.7173 N   0  0  0  0  0  0  0  0  0  0  0  0
   -2.2397   -2.0575   22.7809 H   0  0  0  0  0  0  0  0  0  0  0  0
   -0.0337   -2.6842   24.8047 C   0  0  0  0  0  0  0  0  0  0  0  0
   -0.2957   -1.7786   23.6175 C   0  0  0  0  0  0  0  0  0  0  0  0
    3.9103   -3.7658   20.0339 O   0  0  0  0  0  0  0  0  0  0  0  0
    4.6810   -2.5723   19.8360 C   0  0  0  0  0  0  0  0  0  0  0  0
 30 31  1  0  0  0
 25 24  1  0  0  0
 31 28  1  0  0  0
 28 18  1  0  0  0
  7  3  1  0  0  0
 24 27  1  0  0  0
 24 26  1  0  0  0
 24 19  1  0  0  0
 18 19  2  0  0  0
 18 23  1  0  0  0
 19 20  1  0  0  0
 23 22  2  0  0  0
  3  2  2  0  0  0
  3  4  1  0  0  0
  2  1  1  0  0  0
 20 21  2  0  0  0
  9  8  2  0  0  0
 22 21  1  0  0  0
 22 16  1  0  0  0
  8  4  1  0  0  0
  8 10  1  0  0  0
  4  5  2  0  0  0
  1 16  1  0  0  0
  1  6  2  0  0  0
 10 15  1  0  0  0
 10 11  1  0  0  0
 15 14  1  0  0  0
 11 12  1  0  0  0
  5  6  1  0  0  0
  6 32  1  0  0  0
 14 13  1  0  0  0
 12 13  1  0  0  0
 32 33  1  0  0  0
 28 29  1  0  0  0
 16 17  1  0  0  0
M  END
> <minimizedAffinity>
-7.62240

$$$$
5OP4_A0T_A_301


 33 35  0  0  0  0  0  0  0  0999 V2000
    1.3708   -5.8717   15.5437 C   0  0  0  0  0  0  0  0  0  0  0  0
    1.2004   -4.9639   16.6088 C   0  0  0  0  0  0  0  0  0  0  0  0
   -0.1041   -4.8031   17.1237 C   0  0  0  0  0  0  0  0  0  0  0  0
   -1.1958   -5.4780   16.6277 C   0  0  0  0  0  0  0  0  0  0  0  0
   -1.0172   -6.3895   15.6014 C   0  0  0  0  0  0  0  0  0  0  0  0
    0.2537   -6.5698   15.0321 C   0  0  0  0  0  0  0  0  0  0  0  0
   -0.3812   -3.9801   18.1173 F   0  0  0  0  0  0  0  0  0  0  0  0
   -2.6099   -5.3034   17.2426 C   0  0  0  0  0  0  0  0  0  0  0  0
   -3.3513   -4.4574   16.7210 O   0  0  0  0  0  0  0  0  0  0  0  0
   -3.0323   -5.8402   18.4148 N   0  0  0  0  0  0  0  0  0  0  0  0
   -4.1740   -5.2190   19.1479 C   0  0  0  0  0  0  0  0  0  0  0  0
   -3.5996   -4.4019   20.3177 C   0  0  0  0  0  0  0  0  0  0  0  0
   -2.9650   -5.3794   21.1987 O   0  0  0  0  0  0  0  0  0  0  0  0
   -2.0442   -6.3856   20.5980 C   0  0  0  0  0  0  0  0  0  0  0  0
   -2.2884   -6.8705   19.1569 C   0  0  0  0  0  0  0  0  0  0  0  0
    2.6076   -6.1802   14.9820 N   0  0  0  0  0  0  0  0  0  0  0  0
    2.5973   -6.8045   14.2209 H   0  0  0  0  0  0  0  0  0  0  0  0
    5.2335   -4.9356   16.9115 C   0  0  0  0  0  0  0  0  0  0  0  0
    6.2533   -4.8269   15.9356 C   0  0  0  0  0  0  0  0  0  0  0  0
    5.9942   -5.2485   14.6490 C   0  0  0  0  0  0  0  0  0  0  0  0
    4.7724   -5.7109   14.4316 N   0  0  0  0  0  0  0  0  0  0  0  0
    3.7979   -5.7288   15.3558 C   0  0  0  0  0  0  0  0  0  0  0  0
    4.0180   -5.3620   16.6067 N   0  0  0  0  0  0  0  0  0  0  0  0
    7.6587   -4.3383   16.2617 C   0  0  0  0  0  0  0  0  0  0  0  0
    8.2243   -5.1649   17.2024 F   0  0  0  0  0  0  0  0  0  0  0  0
    7.5603   -3.0478   16.6719 F   0  0  0  0  0  0  0  0  0  0  0  0
    8.3968   -4.4353   15.2021 F   0  0  0  0  0  0  0  0  0  0  0  0
    5.3822   -4.6106   18.1565 N   0  0  0  0  0  0  0  0  0  0  0  0
    6.2838   -4.5044   18.5374 H   0  0  0  0  0  0  0  0  0  0  0  0
    4.4425   -3.3507   20.0554 C   0  0  0  0  0  0  0  0  0  0  0  0
    4.2003   -4.4027   18.9911 C   0  0  0  0  0  0  0  0  0  0  0  0
    0.4644   -7.4562   13.9958 O   0  0  0  0  0  0  0  0  0  0  0  0
    0.3570   -8.8480   14.3260 C   0  0  0  0  0  0  0  0  0  0  0  0
 30 31  1  0  0  0
 25 24  1  0  0  0
 31 28  1  0  0  0
 28 18  1  0  0  0
  7  3  1  0  0  0
 24 27  1  0  0  0
 24 26  1  0  0  0
 24 19  1  0  0  0
 18 19  2  0  0  0
 18 23  1  0  0  0
 19 20  1  0  0  0
 23 22  2  0  0  0
  3  2  2  0  0  0
  3  4  1  0  0  0
  2  1  1  0  0  0
 20 21  2  0  0  0
  9  8  2  0  0  0
 22 21  1  0  0  0
 22 16  1  0  0  0
  8  4  1  0  0  0
  8 10  1  0  0  0
  4  5  2  0  0  0
  1 16  1  0  0  0
  1  6  2  0  0  0
 10 15  1  0  0  0
 10 11  1  0  0  0
 15 14  1  0  0  0
 11 12  1  0  0  0
  5  6  1  0  0  0
  6 32  1  0  0  0
 14 13  1  0  0  0
 12 13  1  0  0  0
 32 33  1  0  0  0
 28 29  1  0  0  0
 16 17  1  0  0  0
M  END
> <minimizedAffinity>
-7.53595

$$$$
5OP4_A0T_A_301


 33 35  0  0  0  0  0  0  0  0999 V2000
    2.2019   -4.2354   18.3847 C   0  0  0  0  0  0  0  0  0  0  0  0
    1.7395   -4.8812   17.2200 C   0  0  0  0  0  0  0  0  0  0  0  0
    2.6382   -5.7417   16.5532 C   0  0  0  0  0  0  0  0  0  0  0  0
    3.9267   -5.9611   16.9831 C   0  0  0  0  0  0  0  0  0  0  0  0
    4.3653   -5.3470   18.1435 C   0  0  0  0  0  0  0  0  0  0  0  0
    3.5234   -4.4592   18.8327 C   0  0  0  0  0  0  0  0  0  0  0  0
    2.3148   -6.3960   15.4538 F   0  0  0  0  0  0  0  0  0  0  0  0
    4.8758   -6.9424   16.2451 C   0  0  0  0  0  0  0  0  0  0  0  0
    4.8895   -8.1178   16.6397 O   0  0  0  0  0  0  0  0  0  0  0  0
    5.8339   -6.5911   15.3510 N   0  0  0  0  0  0  0  0  0  0  0  0
    6.9891   -7.5027   15.1033 C   0  0  0  0  0  0  0  0  0  0  0  0
    8.2071   -6.9422   15.8571 C   0  0  0  0  0  0  0  0  0  0  0  0
    8.4939   -5.6552   15.2278 O   0  0  0  0  0  0  0  0  0  0  0  0
    7.3688   -4.7013   15.0153 C   0  0  0  0  0  0  0  0  0  0  0  0
    5.9506   -5.2466   14.7643 C   0  0  0  0  0  0  0  0  0  0  0  0
    1.4067   -3.4133   19.1797 N   0  0  0  0  0  0  0  0  0  0  0  0
    1.5561   -2.4442   19.0910 H   0  0  0  0  0  0  0  0  0  0  0  0
   -1.0462   -5.2697   20.8242 C   0  0  0  0  0  0  0  0  0  0  0  0
   -1.4047   -4.3770   21.8628 C   0  0  0  0  0  0  0  0  0  0  0  0
   -0.7301   -3.1803   21.9776 C   0  0  0  0  0  0  0  0  0  0  0  0
    0.2050   -2.9590   21.0663 N   0  0  0  0  0  0  0  0  0  0  0  0
    0.4710   -3.7871   20.0427 C   0  0  0  0  0  0  0  0  0  0  0  0
   -0.1333   -4.9564   19.9183 N   0  0  0  0  0  0  0  0  0  0  0  0
   -2.4523   -4.7144   22.9159 C   0  0  0  0  0  0  0  0  0  0  0  0
   -2.1647   -5.9371   23.4730 F   0  0  0  0  0  0  0  0  0  0  0  0
   -3.6685   -4.6724   22.3139 F   0  0  0  0  0  0  0  0  0  0  0  0
   -2.3787   -3.8505   23.8779 F   0  0  0  0  0  0  0  0  0  0  0  0
   -1.5834   -6.4355   20.6511 N   0  0  0  0  0  0  0  0  0  0  0  0
   -1.4848   -7.1343   21.3375 H   0  0  0  0  0  0  0  0  0  0  0  0
   -3.8331   -6.6286   19.6621 C   0  0  0  0  0  0  0  0  0  0  0  0
   -2.3372   -6.7050   19.4281 C   0  0  0  0  0  0  0  0  0  0  0  0
    3.9342   -3.8157   19.9820 O   0  0  0  0  0  0  0  0  0  0  0  0
    4.7363   -2.6415   19.7939 C   0  0  0  0  0  0  0  0  0  0  0  0
 30 31  1  0  0  0
 25 24  1  0  0  0
 31 28  1  0  0  0
 28 18  1  0  0  0
  7  3  1  0  0  0
 24 27  1  0  0  0
 24 26  1  0  0  0
 24 19  1  0  0  0
 18 19  2  0  0  0
 18 23  1  0  0  0
 19 20  1  0  0  0
 23 22  2  0  0  0
  3  2  2  0  0  0
  3  4  1  0  0  0
  2  1  1  0  0  0
 20 21  2  0  0  0
  9  8  2  0  0  0
 22 21  1  0  0  0
 22 16  1  0  0  0
  8  4  1  0  0  0
  8 10  1  0  0  0
  4  5  2  0  0  0
  1 16  1  0  0  0
  1  6  2  0  0  0
 10 15  1  0  0  0
 10 11  1  0  0  0
 15 14  1  0  0  0
 11 12  1  0  0  0
  5  6  1  0  0  0
  6 32  1  0  0  0
 14 13  1  0  0  0
 12 13  1  0  0  0
 32 33  1  0  0  0
 28 29  1  0  0  0
 16 17  1  0  0  0
M  END
> <minimizedAffinity>
-7.37981

$$$$
5OP4_A0T_A_301


 33 35  0  0  0  0  0  0  0  0999 V2000
    1.8511   -4.3370   18.1855 C   0  0  0  0  0  0  0  0  0  0  0  0
    3.1626   -4.6694   18.5819 C   0  0  0  0  0  0  0  0  0  0  0  0
    3.9047   -5.5156   17.7299 C   0  0  0  0  0  0  0  0  0  0  0  0
    3.4020   -6.0268   16.5554 C   0  0  0  0  0  0  0  0  0  0  0  0
    2.1243   -5.6733   16.1573 C   0  0  0  0  0  0  0  0  0  0  0  0
    1.3306   -4.8567   16.9789 C   0  0  0  0  0  0  0  0  0  0  0  0
    5.1396   -5.8939   18.0009 F   0  0  0  0  0  0  0  0  0  0  0  0
    4.2595   -6.9254   15.6250 C   0  0  0  0  0  0  0  0  0  0  0  0
    4.1193   -8.1520   15.7397 O   0  0  0  0  0  0  0  0  0  0  0  0
    5.2883   -6.5020   14.8484 N   0  0  0  0  0  0  0  0  0  0  0  0
    6.3382   -7.4694   14.4139 C   0  0  0  0  0  0  0  0  0  0  0  0
    7.5812   -7.2483   15.2926 C   0  0  0  0  0  0  0  0  0  0  0  0
    8.0423   -5.8979   14.9791 O   0  0  0  0  0  0  0  0  0  0  0  0
    7.0463   -4.7893   14.9758 C   0  0  0  0  0  0  0  0  0  0  0  0
    5.5857   -5.0847   14.5872 C   0  0  0  0  0  0  0  0  0  0  0  0
    1.0293   -3.4615   18.8913 N   0  0  0  0  0  0  0  0  0  0  0  0
    1.0681   -2.5150   18.6230 H   0  0  0  0  0  0  0  0  0  0  0  0
   -0.9469   -3.2162   21.7553 C   0  0  0  0  0  0  0  0  0  0  0  0
   -1.4777   -4.5267   21.8260 C   0  0  0  0  0  0  0  0  0  0  0  0
   -1.1641   -5.4289   20.8320 C   0  0  0  0  0  0  0  0  0  0  0  0
   -0.3541   -4.9809   19.8849 N   0  0  0  0  0  0  0  0  0  0  0  0
    0.2002   -3.7574   19.8839 C   0  0  0  0  0  0  0  0  0  0  0  0
   -0.1013   -2.8559   20.8027 N   0  0  0  0  0  0  0  0  0  0  0  0
   -2.4510   -4.9651   22.9126 C   0  0  0  0  0  0  0  0  0  0  0  0
   -2.6334   -6.3252   22.8427 F   0  0  0  0  0  0  0  0  0  0  0  0
   -3.5995   -4.2610   22.7442 F   0  0  0  0  0  0  0  0  0  0  0  0
   -1.9252   -4.7283   24.0722 F   0  0  0  0  0  0  0  0  0  0  0  0
   -1.2103   -2.2790   22.6096 N   0  0  0  0  0  0  0  0  0  0  0  0
   -2.1176   -1.9012   22.6678 H   0  0  0  0  0  0  0  0  0  0  0  0
   -0.4900   -1.9913   24.9494 C   0  0  0  0  0  0  0  0  0  0  0  0
   -0.1494   -1.7867   23.4864 C   0  0  0  0  0  0  0  0  0  0  0  0
    0.0464   -4.4998   16.6220 O   0  0  0  0  0  0  0  0  0  0  0  0
   -0.8392   -5.5795   16.2941 C   0  0  0  0  0  0  0  0  0  0  0  0
 30 31  1  0  0  0
 25 24  1  0  0  0
 31 28  1  0  0  0
 28 18  1  0  0  0
  7  3  1  0  0  0
 24 27  1  0  0  0
 24 26  1  0  0  0
 24 19  1  0  0  0
 18 19  2  0  0  0
 18 23  1  0  0  0
 19 20  1  0  0  0
 23 22  2  0  0  0
  3  2  2  0  0  0
  3  4  1  0  0  0
  2  1  1  0  0  0
 20 21  2  0  0  0
  9  8  2  0  0  0
 22 21  1  0  0  0
 22 16  1  0  0  0
  8  4  1  0  0  0
  8 10  1  0  0  0
  4  5  2  0  0  0
  1 16  1  0  0  0
  1  6  2  0  0  0
 10 15  1  0  0  0
 10 11  1  0  0  0
 15 14  1  0  0  0
 11 12  1  0  0  0
  5  6  1  0  0  0
  6 32  1  0  0  0
 14 13  1  0  0  0
 12 13  1  0  0  0
 32 33  1  0  0  0
 28 29  1  0  0  0
 16 17  1  0  0  0
M  END
> <minimizedAffinity>
-7.31266

$$$$
5OP4_A0T_A_301


 33 35  0  0  0  0  0  0  0  0999 V2000
    1.7708   -4.4068   17.9668 C   0  0  0  0  0  0  0  0  0  0  0  0
    2.9743   -4.2466   18.6833 C   0  0  0  0  0  0  0  0  0  0  0  0
    4.1468   -4.7897   18.1149 C   0  0  0  0  0  0  0  0  0  0  0  0
    4.1568   -5.4656   16.9164 C   0  0  0  0  0  0  0  0  0  0  0  0
    2.9772   -5.5941   16.2036 C   0  0  0  0  0  0  0  0  0  0  0  0
    1.7756   -5.0975   16.7340 C   0  0  0  0  0  0  0  0  0  0  0  0
    5.3276   -4.7017   18.6974 F   0  0  0  0  0  0  0  0  0  0  0  0
    5.4712   -6.0181   16.3037 C   0  0  0  0  0  0  0  0  0  0  0  0
    6.2725   -5.1895   15.8468 O   0  0  0  0  0  0  0  0  0  0  0  0
    5.7306   -7.3232   16.0386 N   0  0  0  0  0  0  0  0  0  0  0  0
    6.7561   -7.6842   15.0165 C   0  0  0  0  0  0  0  0  0  0  0  0
    6.0205   -8.0979   13.7305 C   0  0  0  0  0  0  0  0  0  0  0  0
    5.2761   -9.3051   14.0810 O   0  0  0  0  0  0  0  0  0  0  0  0
    4.4533   -9.2974   15.3236 C   0  0  0  0  0  0  0  0  0  0  0  0
    4.8974   -8.4363   16.5206 C   0  0  0  0  0  0  0  0  0  0  0  0
    0.5525   -3.8670   18.3725 N   0  0  0  0  0  0  0  0  0  0  0  0
    0.2028   -3.1234   17.8302 H   0  0  0  0  0  0  0  0  0  0  0  0
   -1.0820   -3.8898   21.4540 C   0  0  0  0  0  0  0  0  0  0  0  0
   -1.7156   -5.1550   21.4103 C   0  0  0  0  0  0  0  0  0  0  0  0
   -1.5890   -5.9267   20.2751 C   0  0  0  0  0  0  0  0  0  0  0  0
   -0.8469   -5.4081   19.3085 N   0  0  0  0  0  0  0  0  0  0  0  0
   -0.1904   -4.2404   19.4064 C   0  0  0  0  0  0  0  0  0  0  0  0
   -0.3130   -3.4596   20.4662 N   0  0  0  0  0  0  0  0  0  0  0  0
   -2.6040   -5.6721   22.5345 C   0  0  0  0  0  0  0  0  0  0  0  0
   -3.7636   -4.9363   22.5774 F   0  0  0  0  0  0  0  0  0  0  0  0
   -1.8873   -5.6107   23.6860 F   0  0  0  0  0  0  0  0  0  0  0  0
   -2.9560   -6.8899   22.2694 F   0  0  0  0  0  0  0  0  0  0  0  0
   -1.1706   -3.0673   22.4506 N   0  0  0  0  0  0  0  0  0  0  0  0
   -2.0521   -2.8170   22.8107 H   0  0  0  0  0  0  0  0  0  0  0  0
    0.0579   -2.6482   24.5462 C   0  0  0  0  0  0  0  0  0  0  0  0
    0.0489   -2.5137   23.0363 C   0  0  0  0  0  0  0  0  0  0  0  0
    0.5786   -5.2243   16.0593 O   0  0  0  0  0  0  0  0  0  0  0  0
    0.5787   -6.1214   14.9400 C   0  0  0  0  0  0  0  0  0  0  0  0
 30 31  1  0  0  0
 25 24  1  0  0  0
 31 28  1  0  0  0
 28 18  1  0  0  0
  7  3  1  0  0  0
 24 27  1  0  0  0
 24 26  1  0  0  0
 24 19  1  0  0  0
 18 19  2  0  0  0
 18 23  1  0  0  0
 19 20  1  0  0  0
 23 22  2  0  0  0
  3  2  2  0  0  0
  3  4  1  0  0  0
  2  1  1  0  0  0
 20 21  2  0  0  0
  9  8  2  0  0  0
 22 21  1  0  0  0
 22 16  1  0  0  0
  8  4  1  0  0  0
  8 10  1  0  0  0
  4  5  2  0  0  0
  1 16  1  0  0  0
  1  6  2  0  0  0
 10 15  1  0  0  0
 10 11  1  0  0  0
 15 14  1  0  0  0
 11 12  1  0  0  0
  5  6  1  0  0  0
  6 32  1  0  0  0
 14 13  1  0  0  0
 12 13  1  0  0  0
 32 33  1  0  0  0
 28 29  1  0  0  0
 16 17  1  0  0  0
M  END
> <minimizedAffinity>
-7.17678

$$$$
5OP4_A0T_A_301


 33 35  0  0  0  0  0  0  0  0999 V2000
    2.3768   -4.8440   17.2308 C   0  0  0  0  0  0  0  0  0  0  0  0
    2.3551   -5.3649   15.9210 C   0  0  0  0  0  0  0  0  0  0  0  0
    3.5060   -6.0493   15.4741 C   0  0  0  0  0  0  0  0  0  0  0  0
    4.6303   -6.2145   16.2502 C   0  0  0  0  0  0  0  0  0  0  0  0
    4.6345   -5.7262   17.5454 C   0  0  0  0  0  0  0  0  0  0  0  0
    3.5276   -5.0131   18.0335 C   0  0  0  0  0  0  0  0  0  0  0  0
    3.5983   -6.5756   14.2676 F   0  0  0  0  0  0  0  0  0  0  0  0
    5.8643   -7.0043   15.7388 C   0  0  0  0  0  0  0  0  0  0  0  0
    5.9142   -8.2124   16.0135 O   0  0  0  0  0  0  0  0  0  0  0  0
    6.9833   -6.4576   15.2004 N   0  0  0  0  0  0  0  0  0  0  0  0
    8.2666   -7.2188   15.2225 C   0  0  0  0  0  0  0  0  0  0  0  0
    9.1425   -6.6415   16.3475 C   0  0  0  0  0  0  0  0  0  0  0  0
    9.4306   -5.2662   15.9475 O   0  0  0  0  0  0  0  0  0  0  0  0
    8.3001   -4.4042   15.5000 C   0  0  0  0  0  0  0  0  0  0  0  0
    7.0904   -5.0467   14.7962 C   0  0  0  0  0  0  0  0  0  0  0  0
    1.2914   -4.2059   17.8265 N   0  0  0  0  0  0  0  0  0  0  0  0
    1.4656   -3.3164   18.2108 H   0  0  0  0  0  0  0  0  0  0  0  0
   -1.8825   -5.4221   17.0423 C   0  0  0  0  0  0  0  0  0  0  0  0
   -2.4460   -5.5495   18.3347 C   0  0  0  0  0  0  0  0  0  0  0  0
   -1.6684   -5.2559   19.4345 C   0  0  0  0  0  0  0  0  0  0  0  0
   -0.4353   -4.8494   19.1734 N   0  0  0  0  0  0  0  0  0  0  0  0
    0.0496   -4.6601   17.9352 C   0  0  0  0  0  0  0  0  0  0  0  0
   -0.6557   -4.9603   16.8580 N   0  0  0  0  0  0  0  0  0  0  0  0
   -3.8551   -6.0772   18.5721 C   0  0  0  0  0  0  0  0  0  0  0  0
   -4.0894   -6.1663   19.9230 F   0  0  0  0  0  0  0  0  0  0  0  0
   -3.9613   -7.2687   17.9299 F   0  0  0  0  0  0  0  0  0  0  0  0
   -4.7106   -5.2215   18.1107 F   0  0  0  0  0  0  0  0  0  0  0  0
   -2.5077   -5.7121   15.9457 N   0  0  0  0  0  0  0  0  0  0  0  0
   -3.3696   -5.2841   15.7377 H   0  0  0  0  0  0  0  0  0  0  0  0
   -2.8061   -7.9009   14.8517 C   0  0  0  0  0  0  0  0  0  0  0  0
   -1.9231   -6.6801   15.0194 C   0  0  0  0  0  0  0  0  0  0  0  0
    3.5051   -4.4968   19.3128 O   0  0  0  0  0  0  0  0  0  0  0  0
    4.5154   -3.5251   19.6176 C   0  0  0  0  0  0  0  0  0  0  0  0
 30 31  1  0  0  0
 25 24  1  0  0  0
 31 28  1  0  0  0
 28 18  1  0  0  0
  7  3  1  0  0  0
 24 27  1  0  0  0
 24 26  1  0  0  0
 24 19  1  0  0  0
 18 19  2  0  0  0
 18 23  1  0  0  0
 19 20  1  0  0  0
 23 22  2  0  0  0
  3  2  2  0  0  0
  3  4  1  0  0  0
  2  1  1  0  0  0
 20 21  2  0  0  0
  9  8  2  0  0  0
 22 21  1  0  0  0
 22 16  1  0  0  0
  8  4  1  0  0  0
  8 10  1  0  0  0
  4  5  2  0  0  0
  1 16  1  0  0  0
  1  6  2  0  0  0
 10 15  1  0  0  0
 10 11  1  0  0  0
 15 14  1  0  0  0
 11 12  1  0  0  0
  5  6  1  0  0  0
  6 32  1  0  0  0
 14 13  1  0  0  0
 12 13  1  0  0  0
 32 33  1  0  0  0
 28 29  1  0  0  0
 16 17  1  0  0  0
M  END
> <minimizedAffinity>
-7.13554

$$$$
