2RA0_JNJ_A_1
  RCSB PDB12061706543D
Coordinates from PDB:2RA0:A:1 Model:1 without hydrogens
 39 44  0  0  0  0            999 V2000
   43.9070   51.2840   24.4330   C 0  0  0  0  0  0  0  0  0  0  0  0
   43.3570   50.5290   23.3490   C 0  0  0  0  0  0  0  0  0  0  0  0
   42.3530   50.7490   22.3340   C 0  0  0  0  0  0  0  0  0  0  0  0
   44.2490   53.1180   25.9430   N 0  0  0  0  0  0  0  0  0  0  0  0
   44.0370   49.2880   23.3870   C 0  0  0  0  0  0  0  0  0  0  0  0
   41.7550   45.1730   18.7260   C 0  0  0  0  0  0  0  0  0  0  0  0
   42.9750   45.8850   18.5390   C 0  0  0  0  0  0  0  0  0  0  0  0
   43.3080   46.9630   19.4140   C 0  0  0  0  0  0  0  0  0  0  0  0
   42.4380   47.3580   20.4880   C 0  0  0  0  0  0  0  0  0  0  0  0
   41.2190   46.6270   20.6500   C 0  0  0  0  0  0  0  0  0  0  0  0
   40.8840   45.5590   19.7890   C 0  0  0  0  0  0  0  0  0  0  0  0
   40.4510   44.0180   16.8200   C 0  0  0  0  0  0  0  0  0  0  0  0
   41.2780   42.0460   17.0630   C 0  0  0  0  0  0  0  0  0  0  0  0
   41.8790   42.8110   18.0180   C 0  0  0  0  0  0  0  0  0  0  0  0
   40.8700   46.3960   14.5900   C 0  0  0  0  0  0  0  0  0  0  0  0
   43.5490   52.6610   24.8590   C 0  0  0  0  0  0  0  0  0  0  0  0
   46.0410   46.3770   26.5150   C 0  0  0  0  0  0  0  0  0  0  0  0
   45.2260   47.4270   25.9960   C 0  0  0  0  0  0  0  0  0  0  0  0
   47.1000   48.1230   24.5260   C 0  0  0  0  0  0  0  0  0  0  0  0
   45.9170   45.3320   27.4680   C 0  0  0  0  0  0  0  0  0  0  0  0
   44.8600   50.5690   25.0910   N 0  0  0  0  0  0  0  0  0  0  0  0
   44.9260   49.3580   24.4540   N 0  0  0  0  0  0  0  0  0  0  0  0
   42.0540   49.7140   21.3900   C 0  0  0  0  0  0  0  0  0  0  0  0
   42.7410   48.4580   21.4350   C 0  0  0  0  0  0  0  0  0  0  0  0
   43.7350   48.2620   22.4420   C 0  0  0  0  0  0  0  0  0  0  0  0
   44.3790   47.0830   22.4890   F 0  0  0  0  0  0  0  0  0  0  0  0
   44.4740   47.6020   19.2050   F 0  0  0  0  0  0  0  0  0  0  0  0
   41.3700   44.0850   17.8910   N 0  0  0  0  0  0  0  0  0  0  0  0
   40.4060   42.7850   16.3310   N 0  0  0  0  0  0  0  0  0  0  0  0
   39.6250   45.1900   16.2980   C 0  0  0  0  0  0  0  0  0  0  0  0
   40.4150   46.4210   15.9920   N 0  0  0  0  0  0  0  0  0  0  0  0
   39.6070   47.6300   16.2050   C 0  0  0  0  0  0  0  0  0  0  0  0
   42.6960   53.3650   24.3130   O 0  0  0  0  0  0  0  0  0  0  0  0
   45.7530   48.3080   24.9970   C 0  0  0  0  0  0  0  0  0  0  0  0
   47.9310   47.0740   25.0380   C 0  0  0  0  0  0  0  0  0  0  0  0
   47.3480   46.2340   26.0270   C 0  0  0  0  0  0  0  0  0  0  0  0
   47.9370   45.1790   26.6530   O 0  0  0  0  0  0  0  0  0  0  0  0
   47.0430   44.6110   27.5580   N 0  0  0  0  0  0  0  0  0  0  0  0
   44.8120   45.1060   28.1820   N 0  0  0  0  0  0  0  0  0  0  0  0
 15 31  1  0  0  0  0
 31 32  1  0  0  0  0
 31 30  1  0  0  0  0
 30 12  1  0  0  0  0
 29 12  2  0  0  0  0
 29 13  1  0  0  0  0
 12 28  1  0  0  0  0
 13 14  2  0  0  0  0
 28 14  1  0  0  0  0
 28  6  1  0  0  0  0
  7  6  2  0  0  0  0
  7  8  1  0  0  0  0
  6 11  1  0  0  0  0
 27  8  1  0  0  0  0
  8  9  2  0  0  0  0
 11 10  2  0  0  0  0
  9 10  1  0  0  0  0
  9 24  1  0  0  0  0
 23 24  2  0  0  0  0
 23  3  1  0  0  0  0
 24 25  1  0  0  0  0
  3  2  2  0  0  0  0
 25 26  1  0  0  0  0
 25  5  2  0  0  0  0
  2  5  1  0  0  0  0
  2  1  1  0  0  0  0
  5 22  1  0  0  0  0
 33 16  2  0  0  0  0
  1 16  1  0  0  0  0
  1 21  2  0  0  0  0
 22 34  1  0  0  0  0
 22 21  1  0  0  0  0
 19 34  2  0  0  0  0
 19 35  1  0  0  0  0
 16  4  1  0  0  0  0
 34 18  1  0  0  0  0
 35 36  2  0  0  0  0
 18 17  2  0  0  0  0
 36 17  1  0  0  0  0
 36 37  1  0  0  0  0
 17 20  1  0  0  0  0
 37 38  1  0  0  0  0
 20 38  2  0  0  0  0
 20 39  1  0  0  0  0
A    1
C1
A    2
C2
A    3
C3
A    4
N6
A    5
C7
A    6
C8
A    7
C9
A    8
C10
A    9
C11
A   10
C12
A   11
C13
A   12
C14
A   13
C15
A   14
C16
A   15
C19
A   16
C20
A   17
C21
A   18
C22
A   19
C24
A   20
C27
A   21
N1
A   22
N2
A   23
C4
A   24
C5
A   25
C6
A   26
F1
A   27
F2
A   28
N3
A   29
N4
A   30
C17
A   31
N5
A   32
C18
A   33
O1
A   34
C23
A   35
C25
A   36
C26
A   37
O2
A   38
N7
A   39
N8
M  END
>  <InstanceId>
2RA0_JNJ_A_1

>  <ChemCompId>
JNJ

>  <PdbId>
2RA0

>  <ChainId>
A

>  <ResidueNumber>
1

>  <InsertionCode>


>  <Model>
1

>  <AltIds>


>  <MissingHeavyAtoms>
0

>  <ObservedFormula>
C27 N8 O2 F2

>  <Name>
1-(3-amino-1,2-benzisoxazol-5-yl)-6-(4-{2-[(dimethylamino)methyl]-1H-imidazol-1-yl}-2-fluorophenyl)-7-fluoro-1H-indazole-3-carboxamide

>  <SystematicName>
1-(3-amino-1,2-benzoxazol-5-yl)-6-[4-[2-(dimethylaminomethyl)imidazol-1-yl]-2-fluoro-phenyl]-7-fluoro-indazole-3-carboxamide

>  <Synonyms>
1-(3-Aminobenzo[d]isoxazol-5-yl)-6-[4-(2-dimethylaminomethylimidazol-1-yl)-2-fluorophenyl]-7-fluoro-1H-indazole-3-carboxylic Acid Amide

>  <Type>
NON-POLYMER

>  <Formula>
C27 H22 F2 N8 O2

>  <MolecularWeight>
528.513

>  <ModifiedDate>
2011-06-04

>  <Parent>


>  <OneLetterCode>


>  <SubcomponentList>


>  <AmbiguousFlag>
N

>  <InChI>
InChI=1S/C27H22F2N8O2/c1-35(2)13-22-32-9-10-36(22)14-3-5-16(20(28)12-14)17-6-7-18-24(27(31)38)33-37(25(18)23(17)29)15-4-8-21-19(11-15)26(30)34-39-21/h3-12H,13H2,1-2H3,(H2,30,34)(H2,31,38)

>  <InChIKey>
MGUDDBRJHXFTEY-UHFFFAOYSA-N

>  <SMILES>
CN(C)Cc1nccn1c2ccc(c(c2)F)c3ccc4c(c3F)n(nc4C(=O)N)c5ccc6c(c5)c(no6)N

$$$$
