2RA0_JNJ_A_1


 43 48  0  0  0  0  0  0  0  0999 V2000
   46.3849   48.1583   24.2681 C   0  0  0  0  0  0  0  0  0  0  0  0
   46.1430   48.1930   22.8582 C   0  0  0  0  0  0  0  0  0  0  0  0
   46.6642   47.5087   21.6977 C   0  0  0  0  0  0  0  0  0  0  0  0
   45.1358   49.1725   22.6851 C   0  0  0  0  0  0  0  0  0  0  0  0
   45.5852   49.0445   24.9219 N   0  0  0  0  0  0  0  0  0  0  0  0
   44.8373   49.6595   23.9529 N   0  0  0  0  0  0  0  0  0  0  0  0
   46.1652   47.8324   20.3946 C   0  0  0  0  0  0  0  0  0  0  0  0
   45.1494   48.8276   20.2234 C   0  0  0  0  0  0  0  0  0  0  0  0
   44.6422   49.4885   21.3838 C   0  0  0  0  0  0  0  0  0  0  0  0
   43.6913   50.4255   21.2260 F   0  0  0  0  0  0  0  0  0  0  0  0
   41.7220   51.7741   24.4014 C   0  0  0  0  0  0  0  0  0  0  0  0
   42.5724   50.6895   24.0319 C   0  0  0  0  0  0  0  0  0  0  0  0
   44.5145   51.9296   24.9526 C   0  0  0  0  0  0  0  0  0  0  0  0
   40.3415   52.0948   24.3173 C   0  0  0  0  0  0  0  0  0  0  0  0
   43.9766   50.7623   24.3056 C   0  0  0  0  0  0  0  0  0  0  0  0
   43.6737   53.0271   25.3288 C   0  0  0  0  0  0  0  0  0  0  0  0
   42.2895   52.8920   25.0298 C   0  0  0  0  0  0  0  0  0  0  0  0
   41.3053   53.7945   25.2921 O   0  0  0  0  0  0  0  0  0  0  0  0
   40.0822   53.2985   24.8462 N   0  0  0  0  0  0  0  0  0  0  0  0
   39.4245   51.2907   23.7747 N   0  0  0  0  0  0  0  0  0  0  0  0
   39.6917   50.4182   23.4051 H   0  0  0  0  0  0  0  0  0  0  0  0
   38.4810   51.5702   23.7441 H   0  0  0  0  0  0  0  0  0  0  0  0
   43.5619   49.8141   16.2726 C   0  0  0  0  0  0  0  0  0  0  0  0
   44.5693   50.6446   16.8435 C   0  0  0  0  0  0  0  0  0  0  0  0
   45.0941   50.3365   18.1351 C   0  0  0  0  0  0  0  0  0  0  0  0
   44.6290   49.2028   18.8866 C   0  0  0  0  0  0  0  0  0  0  0  0
   43.6154   48.3887   18.2897 C   0  0  0  0  0  0  0  0  0  0  0  0
   43.0928   48.6868   17.0121 C   0  0  0  0  0  0  0  0  0  0  0  0
   46.0498   51.1437   18.6317 F   0  0  0  0  0  0  0  0  0  0  0  0
   43.3648   49.5823   13.7085 C   0  0  0  0  0  0  0  0  0  0  0  0
   41.6854   50.8995   13.4315 C   0  0  0  0  0  0  0  0  0  0  0  0
   41.9296   50.9011   14.7727 C   0  0  0  0  0  0  0  0  0  0  0  0
   43.0037   50.0651   14.9863 N   0  0  0  0  0  0  0  0  0  0  0  0
   42.5628   50.0925   12.7823 N   0  0  0  0  0  0  0  0  0  0  0  0
   44.5115   48.6157   13.4276 C   0  0  0  0  0  0  0  0  0  0  0  0
   45.4462   49.4518   11.3421 C   0  0  0  0  0  0  0  0  0  0  0  0
   45.7048   49.2375   12.7775 N   0  0  0  0  0  0  0  0  0  0  0  0
   46.0265   50.5305   13.3978 C   0  0  0  0  0  0  0  0  0  0  0  0
   48.6646   47.5245   24.6705 N   0  0  0  0  0  0  0  0  0  0  0  0
   47.3550   47.3096   25.0060 C   0  0  0  0  0  0  0  0  0  0  0  0
   47.0480   46.4674   25.8533 O   0  0  0  0  0  0  0  0  0  0  0  0
   49.3768   47.0059   25.1100 H   0  0  0  0  0  0  0  0  0  0  0  0
   48.8943   48.1976   23.9898 H   0  0  0  0  0  0  0  0  0  0  0  0
 36 37  1  0  0  0
 37 38  1  0  0  0
 37 35  1  0  0  0
 35 30  1  0  0  0
 34 30  2  0  0  0
 34 31  1  0  0  0
 30 33  1  0  0  0
 31 32  2  0  0  0
 33 32  1  0  0  0
 33 23  1  0  0  0
 24 23  2  0  0  0
 24 25  1  0  0  0
 23 28  1  0  0  0
 29 25  1  0  0  0
 25 26  2  0  0  0
 28 27  2  0  0  0
 26 27  1  0  0  0
 26  8  1  0  0  0
  7  8  2  0  0  0
  7  3  1  0  0  0
  8  9  1  0  0  0
  3  2  2  0  0  0
  9 10  1  0  0  0
  9  4  2  0  0  0
  2  4  1  0  0  0
  2  1  1  0  0  0
  4  6  1  0  0  0
 41 40  2  0  0  0
  1 40  1  0  0  0
  1  5  2  0  0  0
  6 15  1  0  0  0
  6  5  1  0  0  0
 13 15  2  0  0  0
 13 16  1  0  0  0
 40 39  1  0  0  0
 15 12  1  0  0  0
 16 17  2  0  0  0
 12 11  2  0  0  0
 17 11  1  0  0  0
 17 18  1  0  0  0
 11 14  1  0  0  0
 18 19  1  0  0  0
 14 19  2  0  0  0
 14 20  1  0  0  0
 39 42  1  0  0  0
 39 43  1  0  0  0
 20 21  1  0  0  0
 20 22  1  0  0  0
M  END
> <minimizedAffinity>
-8.53272

$$$$
2RA0_JNJ_A_1


 43 48  0  0  0  0  0  0  0  0999 V2000
   39.4215   45.4833   15.0006 C   0  0  0  0  0  0  0  0  0  0  0  0
   39.9154   45.7814   16.3101 C   0  0  0  0  0  0  0  0  0  0  0  0
   39.6552   45.3102   17.6506 C   0  0  0  0  0  0  0  0  0  0  0  0
   40.8803   46.7984   16.1132 C   0  0  0  0  0  0  0  0  0  0  0  0
   40.0365   46.2522   14.0609 N   0  0  0  0  0  0  0  0  0  0  0  0
   40.9134   47.0510   14.7461 N   0  0  0  0  0  0  0  0  0  0  0  0
   40.3655   45.8784   18.7571 C   0  0  0  0  0  0  0  0  0  0  0  0
   41.3375   46.9106   18.5539 C   0  0  0  0  0  0  0  0  0  0  0  0
   41.5854   47.3586   17.2203 C   0  0  0  0  0  0  0  0  0  0  0  0
   42.4945   48.3297   17.0267 F   0  0  0  0  0  0  0  0  0  0  0  0
   43.7678   49.1565   13.4057 C   0  0  0  0  0  0  0  0  0  0  0  0
   43.0611   48.1401   14.1153 C   0  0  0  0  0  0  0  0  0  0  0  0
   40.9222   49.0646   13.2622 C   0  0  0  0  0  0  0  0  0  0  0  0
   45.1183   49.5493   13.2124 C   0  0  0  0  0  0  0  0  0  0  0  0
   41.6311   48.0894   14.0476 C   0  0  0  0  0  0  0  0  0  0  0  0
   41.6175   50.0919   12.5449 C   0  0  0  0  0  0  0  0  0  0  0  0
   43.0359   50.0864   12.6530 C   0  0  0  0  0  0  0  0  0  0  0  0
   43.9033   50.9543   12.0645 O   0  0  0  0  0  0  0  0  0  0  0  0
   45.2103   50.6212   12.4134 N   0  0  0  0  0  0  0  0  0  0  0  0
   46.1597   48.9227   13.7646 N   0  0  0  0  0  0  0  0  0  0  0  0
   46.0129   48.1392   14.3424 H   0  0  0  0  0  0  0  0  0  0  0  0
   47.0745   49.2441   13.5940 H   0  0  0  0  0  0  0  0  0  0  0  0
   43.4047   48.8411   21.8859 C   0  0  0  0  0  0  0  0  0  0  0  0
   44.1282   47.9483   21.0433 C   0  0  0  0  0  0  0  0  0  0  0  0
   43.4646   47.3075   19.9536 C   0  0  0  0  0  0  0  0  0  0  0  0
   42.0720   47.5362   19.6798 C   0  0  0  0  0  0  0  0  0  0  0  0
   41.3707   48.4352   20.5438 C   0  0  0  0  0  0  0  0  0  0  0  0
   42.0211   49.0733   21.6227 C   0  0  0  0  0  0  0  0  0  0  0  0
   44.1890   46.4784   19.1793 F   0  0  0  0  0  0  0  0  0  0  0  0
   44.9535   49.0713   23.9391 C   0  0  0  0  0  0  0  0  0  0  0  0
   44.4936   51.1192   24.4149 C   0  0  0  0  0  0  0  0  0  0  0  0
   43.7413   50.8247   23.3168 C   0  0  0  0  0  0  0  0  0  0  0  0
   44.0117   49.5153   22.9841 N   0  0  0  0  0  0  0  0  0  0  0  0
   45.2345   50.0469   24.7938 N   0  0  0  0  0  0  0  0  0  0  0  0
   45.5614   47.6725   23.9872 C   0  0  0  0  0  0  0  0  0  0  0  0
   45.7009   46.7136   26.2194 C   0  0  0  0  0  0  0  0  0  0  0  0
   46.4484   47.4194   25.1629 N   0  0  0  0  0  0  0  0  0  0  0  0
   47.6086   46.6029   24.7792 C   0  0  0  0  0  0  0  0  0  0  0  0
   37.8041   44.7166   13.4017 N   0  0  0  0  0  0  0  0  0  0  0  0
   38.3822   44.4922   14.6221 C   0  0  0  0  0  0  0  0  0  0  0  0
   38.0362   43.5366   15.3209 O   0  0  0  0  0  0  0  0  0  0  0  0
   37.1044   44.1089   13.0692 H   0  0  0  0  0  0  0  0  0  0  0  0
   38.0880   45.4856   12.8564 H   0  0  0  0  0  0  0  0  0  0  0  0
 36 37  1  0  0  0
 37 38  1  0  0  0
 37 35  1  0  0  0
 35 30  1  0  0  0
 34 30  2  0  0  0
 34 31  1  0  0  0
 30 33  1  0  0  0
 31 32  2  0  0  0
 33 32  1  0  0  0
 33 23  1  0  0  0
 24 23  2  0  0  0
 24 25  1  0  0  0
 23 28  1  0  0  0
 29 25  1  0  0  0
 25 26  2  0  0  0
 28 27  2  0  0  0
 26 27  1  0  0  0
 26  8  1  0  0  0
  7  8  2  0  0  0
  7  3  1  0  0  0
  8  9  1  0  0  0
  3  2  2  0  0  0
  9 10  1  0  0  0
  9  4  2  0  0  0
  2  4  1  0  0  0
  2  1  1  0  0  0
  4  6  1  0  0  0
 41 40  2  0  0  0
  1 40  1  0  0  0
  1  5  2  0  0  0
  6 15  1  0  0  0
  6  5  1  0  0  0
 13 15  2  0  0  0
 13 16  1  0  0  0
 40 39  1  0  0  0
 15 12  1  0  0  0
 16 17  2  0  0  0
 12 11  2  0  0  0
 17 11  1  0  0  0
 17 18  1  0  0  0
 11 14  1  0  0  0
 18 19  1  0  0  0
 14 19  2  0  0  0
 14 20  1  0  0  0
 39 42  1  0  0  0
 39 43  1  0  0  0
 20 21  1  0  0  0
 20 22  1  0  0  0
M  END
> <minimizedAffinity>
-8.27717

$$$$
2RA0_JNJ_A_1


 43 48  0  0  0  0  0  0  0  0999 V2000
   42.0454   45.5260   18.0996 C   0  0  0  0  0  0  0  0  0  0  0  0
   41.0548   46.4286   18.6012 C   0  0  0  0  0  0  0  0  0  0  0  0
   39.6661   46.7083   18.3185 C   0  0  0  0  0  0  0  0  0  0  0  0
   41.7163   47.1741   19.6064 C   0  0  0  0  0  0  0  0  0  0  0  0
   43.2305   45.6938   18.7475 N   0  0  0  0  0  0  0  0  0  0  0  0
   43.0228   46.7000   19.6535 N   0  0  0  0  0  0  0  0  0  0  0  0
   38.9821   47.7341   19.0477 C   0  0  0  0  0  0  0  0  0  0  0  0
   39.6566   48.4894   20.0607 C   0  0  0  0  0  0  0  0  0  0  0  0
   41.0279   48.1935   20.3301 C   0  0  0  0  0  0  0  0  0  0  0  0
   41.6646   48.9030   21.2778 F   0  0  0  0  0  0  0  0  0  0  0  0
   45.1436   47.8239   22.5889 C   0  0  0  0  0  0  0  0  0  0  0  0
   44.0348   47.3299   21.8389 C   0  0  0  0  0  0  0  0  0  0  0  0
   45.3523   47.6054   19.7543 C   0  0  0  0  0  0  0  0  0  0  0  0
   45.4521   48.0823   23.9504 C   0  0  0  0  0  0  0  0  0  0  0  0
   44.1335   47.2186   20.4142 C   0  0  0  0  0  0  0  0  0  0  0  0
   46.4740   48.1041   20.4934 C   0  0  0  0  0  0  0  0  0  0  0  0
   46.3117   48.1893   21.9040 C   0  0  0  0  0  0  0  0  0  0  0  0
   47.2311   48.6263   22.8071 O   0  0  0  0  0  0  0  0  0  0  0  0
   46.6956   48.5614   24.0916 N   0  0  0  0  0  0  0  0  0  0  0  0
   44.6008   47.8725   24.9569 N   0  0  0  0  0  0  0  0  0  0  0  0
   43.7009   47.5172   24.7746 H   0  0  0  0  0  0  0  0  0  0  0  0
   44.8728   48.0731   25.8816 H   0  0  0  0  0  0  0  0  0  0  0  0
   37.7572   51.7717   22.2335 C   0  0  0  0  0  0  0  0  0  0  0  0
   37.5017   50.4300   22.6398 C   0  0  0  0  0  0  0  0  0  0  0  0
   38.1122   49.3478   21.9366 C   0  0  0  0  0  0  0  0  0  0  0  0
   38.9842   49.5736   20.8163 C   0  0  0  0  0  0  0  0  0  0  0  0
   39.2203   50.9305   20.4294 C   0  0  0  0  0  0  0  0  0  0  0  0
   38.6207   52.0056   21.1212 C   0  0  0  0  0  0  0  0  0  0  0  0
   37.8488   48.0977   22.3601 F   0  0  0  0  0  0  0  0  0  0  0  0
   37.7167   53.7658   23.8734 C   0  0  0  0  0  0  0  0  0  0  0  0
   35.7009   54.4125   23.4859 C   0  0  0  0  0  0  0  0  0  0  0  0
   35.8978   53.3350   22.6744 C   0  0  0  0  0  0  0  0  0  0  0  0
   37.1836   52.8934   22.8983 N   0  0  0  0  0  0  0  0  0  0  0  0
   36.8135   54.6752   24.2177 N   0  0  0  0  0  0  0  0  0  0  0  0
   39.1257   53.6785   24.4525 C   0  0  0  0  0  0  0  0  0  0  0  0
   40.6644   55.5339   24.1184 C   0  0  0  0  0  0  0  0  0  0  0  0
   40.1951   54.2458   23.5763 N   0  0  0  0  0  0  0  0  0  0  0  0
   41.3390   53.3279   23.4824 C   0  0  0  0  0  0  0  0  0  0  0  0
   41.5406   45.0315   15.8058 N   0  0  0  0  0  0  0  0  0  0  0  0
   41.8952   44.5143   17.0227 C   0  0  0  0  0  0  0  0  0  0  0  0
   42.0618   43.3013   17.1713 O   0  0  0  0  0  0  0  0  0  0  0  0
   41.4187   44.4334   15.0334 H   0  0  0  0  0  0  0  0  0  0  0  0
   41.4076   46.0016   15.7031 H   0  0  0  0  0  0  0  0  0  0  0  0
 36 37  1  0  0  0
 37 38  1  0  0  0
 37 35  1  0  0  0
 35 30  1  0  0  0
 34 30  2  0  0  0
 34 31  1  0  0  0
 30 33  1  0  0  0
 31 32  2  0  0  0
 33 32  1  0  0  0
 33 23  1  0  0  0
 24 23  2  0  0  0
 24 25  1  0  0  0
 23 28  1  0  0  0
 29 25  1  0  0  0
 25 26  2  0  0  0
 28 27  2  0  0  0
 26 27  1  0  0  0
 26  8  1  0  0  0
  7  8  2  0  0  0
  7  3  1  0  0  0
  8  9  1  0  0  0
  3  2  2  0  0  0
  9 10  1  0  0  0
  9  4  2  0  0  0
  2  4  1  0  0  0
  2  1  1  0  0  0
  4  6  1  0  0  0
 41 40  2  0  0  0
  1 40  1  0  0  0
  1  5  2  0  0  0
  6 15  1  0  0  0
  6  5  1  0  0  0
 13 15  2  0  0  0
 13 16  1  0  0  0
 40 39  1  0  0  0
 15 12  1  0  0  0
 16 17  2  0  0  0
 12 11  2  0  0  0
 17 11  1  0  0  0
 17 18  1  0  0  0
 11 14  1  0  0  0
 18 19  1  0  0  0
 14 19  2  0  0  0
 14 20  1  0  0  0
 39 42  1  0  0  0
 39 43  1  0  0  0
 20 21  1  0  0  0
 20 22  1  0  0  0
M  END
> <minimizedAffinity>
-8.11794

$$$$
2RA0_JNJ_A_1


 43 48  0  0  0  0  0  0  0  0999 V2000
   45.5730   48.5086   23.5606 C   0  0  0  0  0  0  0  0  0  0  0  0
   45.2647   48.1232   22.2174 C   0  0  0  0  0  0  0  0  0  0  0  0
   45.9395   47.4033   21.1625 C   0  0  0  0  0  0  0  0  0  0  0  0
   43.9639   48.6297   21.9822 C   0  0  0  0  0  0  0  0  0  0  0  0
   44.5405   49.1971   24.1194 N   0  0  0  0  0  0  0  0  0  0  0  0
   43.5731   49.2715   23.1522 N   0  0  0  0  0  0  0  0  0  0  0  0
   45.2927   47.2184   19.8979 C   0  0  0  0  0  0  0  0  0  0  0  0
   43.9783   47.7366   19.6625 C   0  0  0  0  0  0  0  0  0  0  0  0
   43.3249   48.4400   20.7202 C   0  0  0  0  0  0  0  0  0  0  0  0
   42.0927   48.9306   20.5012 F   0  0  0  0  0  0  0  0  0  0  0  0
   41.3184   52.0942   24.3038 C   0  0  0  0  0  0  0  0  0  0  0  0
   42.4876   51.3030   24.0963 C   0  0  0  0  0  0  0  0  0  0  0  0
   41.1129   49.6327   22.8808 C   0  0  0  0  0  0  0  0  0  0  0  0
   40.9874   53.3256   24.9281 C   0  0  0  0  0  0  0  0  0  0  0  0
   42.3904   50.0648   23.3828 C   0  0  0  0  0  0  0  0  0  0  0  0
   39.9298   50.4156   23.0819 C   0  0  0  0  0  0  0  0  0  0  0  0
   40.0943   51.6341   23.7972 C   0  0  0  0  0  0  0  0  0  0  0  0
   39.1245   52.5375   24.1057 O   0  0  0  0  0  0  0  0  0  0  0  0
   39.6805   53.5995   24.8155 N   0  0  0  0  0  0  0  0  0  0  0  0
   41.8754   54.1050   25.5494 N   0  0  0  0  0  0  0  0  0  0  0  0
   42.8217   53.8365   25.5913 H   0  0  0  0  0  0  0  0  0  0  0  0
   41.5841   54.9482   25.9657 H   0  0  0  0  0  0  0  0  0  0  0  0
   41.9541   47.4152   15.8023 C   0  0  0  0  0  0  0  0  0  0  0  0
   41.9731   46.2871   16.6725 C   0  0  0  0  0  0  0  0  0  0  0  0
   42.6342   46.3766   17.9349 C   0  0  0  0  0  0  0  0  0  0  0  0
   43.2913   47.5833   18.3575 C   0  0  0  0  0  0  0  0  0  0  0  0
   43.2581   48.6986   17.4623 C   0  0  0  0  0  0  0  0  0  0  0  0
   42.6051   48.6174   16.2128 C   0  0  0  0  0  0  0  0  0  0  0  0
   42.6202   45.2890   18.7277 F   0  0  0  0  0  0  0  0  0  0  0  0
   40.0686   46.8373   14.1354 C   0  0  0  0  0  0  0  0  0  0  0  0
   40.9524   47.7263   12.3860 C   0  0  0  0  0  0  0  0  0  0  0  0
   41.8421   47.9496   13.3945 C   0  0  0  0  0  0  0  0  0  0  0  0
   41.3061   47.3905   14.5340 N   0  0  0  0  0  0  0  0  0  0  0  0
   39.8686   47.0470   12.8402 N   0  0  0  0  0  0  0  0  0  0  0  0
   39.0991   46.1019   15.0560 C   0  0  0  0  0  0  0  0  0  0  0  0
   37.5784   44.2298   14.7331 C   0  0  0  0  0  0  0  0  0  0  0  0
   37.8413   45.6403   14.3944 N   0  0  0  0  0  0  0  0  0  0  0  0
   36.6935   46.4512   14.8245 C   0  0  0  0  0  0  0  0  0  0  0  0
   46.6328   47.5620   25.4949 N   0  0  0  0  0  0  0  0  0  0  0  0
   46.8201   48.2425   24.3219 C   0  0  0  0  0  0  0  0  0  0  0  0
   47.9480   48.5920   23.9654 O   0  0  0  0  0  0  0  0  0  0  0  0
   47.4046   47.3420   26.0650 H   0  0  0  0  0  0  0  0  0  0  0  0
   45.7262   47.2927   25.7683 H   0  0  0  0  0  0  0  0  0  0  0  0
 36 37  1  0  0  0
 37 38  1  0  0  0
 37 35  1  0  0  0
 35 30  1  0  0  0
 34 30  2  0  0  0
 34 31  1  0  0  0
 30 33  1  0  0  0
 31 32  2  0  0  0
 33 32  1  0  0  0
 33 23  1  0  0  0
 24 23  2  0  0  0
 24 25  1  0  0  0
 23 28  1  0  0  0
 29 25  1  0  0  0
 25 26  2  0  0  0
 28 27  2  0  0  0
 26 27  1  0  0  0
 26  8  1  0  0  0
  7  8  2  0  0  0
  7  3  1  0  0  0
  8  9  1  0  0  0
  3  2  2  0  0  0
  9 10  1  0  0  0
  9  4  2  0  0  0
  2  4  1  0  0  0
  2  1  1  0  0  0
  4  6  1  0  0  0
 41 40  2  0  0  0
  1 40  1  0  0  0
  1  5  2  0  0  0
  6 15  1  0  0  0
  6  5  1  0  0  0
 13 15  2  0  0  0
 13 16  1  0  0  0
 40 39  1  0  0  0
 15 12  1  0  0  0
 16 17  2  0  0  0
 12 11  2  0  0  0
 17 11  1  0  0  0
 17 18  1  0  0  0
 11 14  1  0  0  0
 18 19  1  0  0  0
 14 19  2  0  0  0
 14 20  1  0  0  0
 39 42  1  0  0  0
 39 43  1  0  0  0
 20 21  1  0  0  0
 20 22  1  0  0  0
M  END
> <minimizedAffinity>
-7.89844

$$$$
2RA0_JNJ_A_1


 43 48  0  0  0  0  0  0  0  0999 V2000
   41.1964   44.5049   17.2591 C   0  0  0  0  0  0  0  0  0  0  0  0
   41.5774   45.3384   18.3580 C   0  0  0  0  0  0  0  0  0  0  0  0
   41.6557   45.1939   19.7932 C   0  0  0  0  0  0  0  0  0  0  0  0
   41.9395   46.5741   17.7699 C   0  0  0  0  0  0  0  0  0  0  0  0
   41.3177   45.1698   16.0778 N   0  0  0  0  0  0  0  0  0  0  0  0
   41.7616   46.4254   16.3988 N   0  0  0  0  0  0  0  0  0  0  0  0
   42.0879   46.2965   20.5988 C   0  0  0  0  0  0  0  0  0  0  0  0
   42.4487   47.5467   20.0001 C   0  0  0  0  0  0  0  0  0  0  0  0
   42.3709   47.6679   18.5789 C   0  0  0  0  0  0  0  0  0  0  0  0
   42.7055   48.8410   18.0144 F   0  0  0  0  0  0  0  0  0  0  0  0
   43.2183   48.6791   13.7199 C   0  0  0  0  0  0  0  0  0  0  0  0
   43.1269   47.6963   14.7504 C   0  0  0  0  0  0  0  0  0  0  0  0
   40.6977   48.1624   14.9470 C   0  0  0  0  0  0  0  0  0  0  0  0
   44.2269   49.2246   12.8829 C   0  0  0  0  0  0  0  0  0  0  0  0
   41.8632   47.4329   15.3712 C   0  0  0  0  0  0  0  0  0  0  0  0
   40.7735   49.1529   13.9144 C   0  0  0  0  0  0  0  0  0  0  0  0
   42.0566   49.3660   13.3385 C   0  0  0  0  0  0  0  0  0  0  0  0
   42.3720   50.2454   12.3490 O   0  0  0  0  0  0  0  0  0  0  0  0
   43.7323   50.1602   12.0608 N   0  0  0  0  0  0  0  0  0  0  0  0
   45.5067   48.8467   12.9200 N   0  0  0  0  0  0  0  0  0  0  0  0
   45.7962   48.1506   13.5531 H   0  0  0  0  0  0  0  0  0  0  0  0
   46.1610   49.2642   12.3143 H   0  0  0  0  0  0  0  0  0  0  0  0
   43.5989   51.0495   22.3473 C   0  0  0  0  0  0  0  0  0  0  0  0
   44.5870   50.0750   22.0242 C   0  0  0  0  0  0  0  0  0  0  0  0
   44.2245   48.9237   21.2615 C   0  0  0  0  0  0  0  0  0  0  0  0
   42.8768   48.7144   20.8075 C   0  0  0  0  0  0  0  0  0  0  0  0
   41.9057   49.7078   21.1490 C   0  0  0  0  0  0  0  0  0  0  0  0
   42.2575   50.8494   21.9020 C   0  0  0  0  0  0  0  0  0  0  0  0
   45.1920   48.0335   20.9730 F   0  0  0  0  0  0  0  0  0  0  0  0
   44.4492   53.4615   22.7033 C   0  0  0  0  0  0  0  0  0  0  0  0
   44.0948   53.5788   24.8228 C   0  0  0  0  0  0  0  0  0  0  0  0
   43.6850   52.3315   24.4556 C   0  0  0  0  0  0  0  0  0  0  0  0
   43.8993   52.2216   23.0990 N   0  0  0  0  0  0  0  0  0  0  0  0
   44.5609   54.2687   23.7508 N   0  0  0  0  0  0  0  0  0  0  0  0
   44.8593   53.8249   21.2792 C   0  0  0  0  0  0  0  0  0  0  0  0
   46.8385   54.8339   20.2859 C   0  0  0  0  0  0  0  0  0  0  0  0
   45.6793   55.0690   21.1658 N   0  0  0  0  0  0  0  0  0  0  0  0
   44.8833   56.1741   20.6133 C   0  0  0  0  0  0  0  0  0  0  0  0
   39.6661   42.8323   16.4711 N   0  0  0  0  0  0  0  0  0  0  0  0
   40.7193   43.0991   17.3038 C   0  0  0  0  0  0  0  0  0  0  0  0
   41.2000   42.2173   18.0197 O   0  0  0  0  0  0  0  0  0  0  0  0
   39.2843   41.9255   16.4352 H   0  0  0  0  0  0  0  0  0  0  0  0
   39.2903   43.5471   15.9080 H   0  0  0  0  0  0  0  0  0  0  0  0
 36 37  1  0  0  0
 37 38  1  0  0  0
 37 35  1  0  0  0
 35 30  1  0  0  0
 34 30  2  0  0  0
 34 31  1  0  0  0
 30 33  1  0  0  0
 31 32  2  0  0  0
 33 32  1  0  0  0
 33 23  1  0  0  0
 24 23  2  0  0  0
 24 25  1  0  0  0
 23 28  1  0  0  0
 29 25  1  0  0  0
 25 26  2  0  0  0
 28 27  2  0  0  0
 26 27  1  0  0  0
 26  8  1  0  0  0
  7  8  2  0  0  0
  7  3  1  0  0  0
  8  9  1  0  0  0
  3  2  2  0  0  0
  9 10  1  0  0  0
  9  4  2  0  0  0
  2  4  1  0  0  0
  2  1  1  0  0  0
  4  6  1  0  0  0
 41 40  2  0  0  0
  1 40  1  0  0  0
  1  5  2  0  0  0
  6 15  1  0  0  0
  6  5  1  0  0  0
 13 15  2  0  0  0
 13 16  1  0  0  0
 40 39  1  0  0  0
 15 12  1  0  0  0
 16 17  2  0  0  0
 12 11  2  0  0  0
 17 11  1  0  0  0
 17 18  1  0  0  0
 11 14  1  0  0  0
 18 19  1  0  0  0
 14 19  2  0  0  0
 14 20  1  0  0  0
 39 42  1  0  0  0
 39 43  1  0  0  0
 20 21  1  0  0  0
 20 22  1  0  0  0
M  END
> <minimizedAffinity>
-7.82555

$$$$
2RA0_JNJ_A_1


 43 48  0  0  0  0  0  0  0  0999 V2000
   39.2816   45.6021   14.6877 C   0  0  0  0  0  0  0  0  0  0  0  0
   39.8876   45.7682   15.9733 C   0  0  0  0  0  0  0  0  0  0  0  0
   39.6714   45.2386   17.2997 C   0  0  0  0  0  0  0  0  0  0  0  0
   40.9324   46.7006   15.7662 C   0  0  0  0  0  0  0  0  0  0  0  0
   39.9057   46.3685   13.7519 N   0  0  0  0  0  0  0  0  0  0  0  0
   40.8999   47.0361   14.4171 N   0  0  0  0  0  0  0  0  0  0  0  0
   40.5054   45.6658   18.3832 C   0  0  0  0  0  0  0  0  0  0  0  0
   41.5583   46.6131   18.1702 C   0  0  0  0  0  0  0  0  0  0  0  0
   41.7604   47.1203   16.8502 C   0  0  0  0  0  0  0  0  0  0  0  0
   42.7456   48.0122   16.6479 F   0  0  0  0  0  0  0  0  0  0  0  0
   43.8443   49.1063   13.2247 C   0  0  0  0  0  0  0  0  0  0  0  0
   43.0857   48.1199   13.9229 C   0  0  0  0  0  0  0  0  0  0  0  0
   41.0245   48.9659   12.8306 C   0  0  0  0  0  0  0  0  0  0  0  0
   45.2031   49.5073   13.1323 C   0  0  0  0  0  0  0  0  0  0  0  0
   41.6683   48.0451   13.7295 C   0  0  0  0  0  0  0  0  0  0  0  0
   41.7724   49.9625   12.1230 C   0  0  0  0  0  0  0  0  0  0  0  0
   43.1751   49.9832   12.3586 C   0  0  0  0  0  0  0  0  0  0  0  0
   44.0841   50.8302   11.8034 O   0  0  0  0  0  0  0  0  0  0  0  0
   45.3571   50.5354   12.2866 N   0  0  0  0  0  0  0  0  0  0  0  0
   46.1959   48.9268   13.8100 N   0  0  0  0  0  0  0  0  0  0  0  0
   46.0046   48.1739   14.4148 H   0  0  0  0  0  0  0  0  0  0  0  0
   47.1193   49.2516   13.7050 H   0  0  0  0  0  0  0  0  0  0  0  0
   44.1982   47.9413   21.3903 C   0  0  0  0  0  0  0  0  0  0  0  0
   42.8272   48.3287   21.4119 C   0  0  0  0  0  0  0  0  0  0  0  0
   41.9543   47.9055   20.3643 C   0  0  0  0  0  0  0  0  0  0  0  0
   42.4232   47.0937   19.2746 C   0  0  0  0  0  0  0  0  0  0  0  0
   43.8048   46.7222   19.2779 C   0  0  0  0  0  0  0  0  0  0  0  0
   44.6734   47.1364   20.3115 C   0  0  0  0  0  0  0  0  0  0  0  0
   40.6656   48.2884   20.4298 F   0  0  0  0  0  0  0  0  0  0  0  0
   44.9418   49.1224   23.5628 C   0  0  0  0  0  0  0  0  0  0  0  0
   47.0034   48.5057   23.5312 C   0  0  0  0  0  0  0  0  0  0  0  0
   46.4419   47.9492   22.4206 C   0  0  0  0  0  0  0  0  0  0  0  0
   45.1167   48.3259   22.4090 N   0  0  0  0  0  0  0  0  0  0  0  0
   46.0854   49.2218   24.2288 N   0  0  0  0  0  0  0  0  0  0  0  0
   43.6304   49.7779   23.9859 C   0  0  0  0  0  0  0  0  0  0  0  0
   43.9320   52.0468   23.1595 C   0  0  0  0  0  0  0  0  0  0  0  0
   43.7486   51.2185   24.3651 N   0  0  0  0  0  0  0  0  0  0  0  0
   42.5448   51.6755   25.0736 C   0  0  0  0  0  0  0  0  0  0  0  0
   37.4404   45.1469   13.2169 N   0  0  0  0  0  0  0  0  0  0  0  0
   38.1275   44.7391   14.3284 C   0  0  0  0  0  0  0  0  0  0  0  0
   37.7808   43.7345   14.9545 O   0  0  0  0  0  0  0  0  0  0  0  0
   36.6600   44.6341   12.9050 H   0  0  0  0  0  0  0  0  0  0  0  0
   37.7266   45.9529   12.7294 H   0  0  0  0  0  0  0  0  0  0  0  0
 36 37  1  0  0  0
 37 38  1  0  0  0
 37 35  1  0  0  0
 35 30  1  0  0  0
 34 30  2  0  0  0
 34 31  1  0  0  0
 30 33  1  0  0  0
 31 32  2  0  0  0
 33 32  1  0  0  0
 33 23  1  0  0  0
 24 23  2  0  0  0
 24 25  1  0  0  0
 23 28  1  0  0  0
 29 25  1  0  0  0
 25 26  2  0  0  0
 28 27  2  0  0  0
 26 27  1  0  0  0
 26  8  1  0  0  0
  7  8  2  0  0  0
  7  3  1  0  0  0
  8  9  1  0  0  0
  3  2  2  0  0  0
  9 10  1  0  0  0
  9  4  2  0  0  0
  2  4  1  0  0  0
  2  1  1  0  0  0
  4  6  1  0  0  0
 41 40  2  0  0  0
  1 40  1  0  0  0
  1  5  2  0  0  0
  6 15  1  0  0  0
  6  5  1  0  0  0
 13 15  2  0  0  0
 13 16  1  0  0  0
 40 39  1  0  0  0
 15 12  1  0  0  0
 16 17  2  0  0  0
 12 11  2  0  0  0
 17 11  1  0  0  0
 17 18  1  0  0  0
 11 14  1  0  0  0
 18 19  1  0  0  0
 14 19  2  0  0  0
 14 20  1  0  0  0
 39 42  1  0  0  0
 39 43  1  0  0  0
 20 21  1  0  0  0
 20 22  1  0  0  0
M  END
> <minimizedAffinity>
-7.80391

$$$$
2RA0_JNJ_A_1


 43 48  0  0  0  0  0  0  0  0999 V2000
   42.1652   45.5476   18.3585 C   0  0  0  0  0  0  0  0  0  0  0  0
   42.3447   46.6259   17.4350 C   0  0  0  0  0  0  0  0  0  0  0  0
   41.9029   46.9291   16.0936 C   0  0  0  0  0  0  0  0  0  0  0  0
   43.1746   47.5515   18.1122 C   0  0  0  0  0  0  0  0  0  0  0  0
   42.8282   45.7873   19.5227 N   0  0  0  0  0  0  0  0  0  0  0  0
   43.4428   47.0008   19.3605 N   0  0  0  0  0  0  0  0  0  0  0  0
   42.3128   48.1498   15.4662 C   0  0  0  0  0  0  0  0  0  0  0  0
   43.1565   49.0814   16.1531 C   0  0  0  0  0  0  0  0  0  0  0  0
   43.5776   48.7666   17.4813 C   0  0  0  0  0  0  0  0  0  0  0  0
   44.3723   49.6373   18.1273 F   0  0  0  0  0  0  0  0  0  0  0  0
   44.7343   48.4155   22.6328 C   0  0  0  0  0  0  0  0  0  0  0  0
   43.8339   47.9563   21.6256 C   0  0  0  0  0  0  0  0  0  0  0  0
   45.7686   47.4794   20.1469 C   0  0  0  0  0  0  0  0  0  0  0  0
   44.6498   48.9396   23.9496 C   0  0  0  0  0  0  0  0  0  0  0  0
   44.3478   47.4856   20.3741 C   0  0  0  0  0  0  0  0  0  0  0  0
   46.6854   47.9381   21.1480 C   0  0  0  0  0  0  0  0  0  0  0  0
   46.1113   48.3917   22.3679 C   0  0  0  0  0  0  0  0  0  0  0  0
   46.7757   48.8671   23.4563 O   0  0  0  0  0  0  0  0  0  0  0  0
   45.8625   49.2124   24.4502 N   0  0  0  0  0  0  0  0  0  0  0  0
   43.4995   49.1346   24.5983 N   0  0  0  0  0  0  0  0  0  0  0  0
   42.6452   48.9094   24.1640 H   0  0  0  0  0  0  0  0  0  0  0  0
   43.5056   49.5035   25.5111 H   0  0  0  0  0  0  0  0  0  0  0  0
   44.4108   52.8569   14.3437 C   0  0  0  0  0  0  0  0  0  0  0  0
   45.0270   51.6446   13.9186 C   0  0  0  0  0  0  0  0  0  0  0  0
   44.6300   50.4043   14.5040 C   0  0  0  0  0  0  0  0  0  0  0  0
   43.6181   50.3418   15.5230 C   0  0  0  0  0  0  0  0  0  0  0  0
   43.0189   51.5748   15.9318 C   0  0  0  0  0  0  0  0  0  0  0  0
   43.4059   52.8049   15.3562 C   0  0  0  0  0  0  0  0  0  0  0  0
   45.2333   49.2836   14.0662 F   0  0  0  0  0  0  0  0  0  0  0  0
   45.9596   54.8654   13.8593 C   0  0  0  0  0  0  0  0  0  0  0  0
   44.5650   56.0288   12.7046 C   0  0  0  0  0  0  0  0  0  0  0  0
   43.8919   54.8947   13.0499 C   0  0  0  0  0  0  0  0  0  0  0  0
   44.7586   54.1242   13.7938 N   0  0  0  0  0  0  0  0  0  0  0  0
   45.8288   56.0094   13.1993 N   0  0  0  0  0  0  0  0  0  0  0  0
   47.2264   54.4211   14.5846 C   0  0  0  0  0  0  0  0  0  0  0  0
   49.5167   54.8308   13.8716 C   0  0  0  0  0  0  0  0  0  0  0  0
   48.3330   53.9719   13.6864 N   0  0  0  0  0  0  0  0  0  0  0  0
   48.7095   52.5804   13.9724 C   0  0  0  0  0  0  0  0  0  0  0  0
   42.1481   43.1803   17.9632 N   0  0  0  0  0  0  0  0  0  0  0  0
   41.3850   44.2992   18.1618 C   0  0  0  0  0  0  0  0  0  0  0  0
   40.1533   44.2337   18.1651 O   0  0  0  0  0  0  0  0  0  0  0  0
   41.7149   42.3073   17.8239 H   0  0  0  0  0  0  0  0  0  0  0  0
   43.1303   43.2486   17.9595 H   0  0  0  0  0  0  0  0  0  0  0  0
 36 37  1  0  0  0
 37 38  1  0  0  0
 37 35  1  0  0  0
 35 30  1  0  0  0
 34 30  2  0  0  0
 34 31  1  0  0  0
 30 33  1  0  0  0
 31 32  2  0  0  0
 33 32  1  0  0  0
 33 23  1  0  0  0
 24 23  2  0  0  0
 24 25  1  0  0  0
 23 28  1  0  0  0
 29 25  1  0  0  0
 25 26  2  0  0  0
 28 27  2  0  0  0
 26 27  1  0  0  0
 26  8  1  0  0  0
  7  8  2  0  0  0
  7  3  1  0  0  0
  8  9  1  0  0  0
  3  2  2  0  0  0
  9 10  1  0  0  0
  9  4  2  0  0  0
  2  4  1  0  0  0
  2  1  1  0  0  0
  4  6  1  0  0  0
 41 40  2  0  0  0
  1 40  1  0  0  0
  1  5  2  0  0  0
  6 15  1  0  0  0
  6  5  1  0  0  0
 13 15  2  0  0  0
 13 16  1  0  0  0
 40 39  1  0  0  0
 15 12  1  0  0  0
 16 17  2  0  0  0
 12 11  2  0  0  0
 17 11  1  0  0  0
 17 18  1  0  0  0
 11 14  1  0  0  0
 18 19  1  0  0  0
 14 19  2  0  0  0
 14 20  1  0  0  0
 39 42  1  0  0  0
 39 43  1  0  0  0
 20 21  1  0  0  0
 20 22  1  0  0  0
M  END
> <minimizedAffinity>
-7.65555

$$$$
2RA0_JNJ_A_1


 43 48  0  0  0  0  0  0  0  0999 V2000
   45.7559   48.6868   23.5364 C   0  0  0  0  0  0  0  0  0  0  0  0
   45.3971   48.3519   22.1922 C   0  0  0  0  0  0  0  0  0  0  0  0
   45.9270   47.4925   21.1591 C   0  0  0  0  0  0  0  0  0  0  0  0
   44.2321   49.1107   21.9259 C   0  0  0  0  0  0  0  0  0  0  0  0
   44.8777   49.5810   24.0670 N   0  0  0  0  0  0  0  0  0  0  0  0
   43.9622   49.8372   23.0805 N   0  0  0  0  0  0  0  0  0  0  0  0
   45.2768   47.4246   19.8845 C   0  0  0  0  0  0  0  0  0  0  0  0
   44.1009   48.1977   19.6177 C   0  0  0  0  0  0  0  0  0  0  0  0
   43.5886   49.0365   20.6542 C   0  0  0  0  0  0  0  0  0  0  0  0
   42.4872   49.7660   20.4056 F   0  0  0  0  0  0  0  0  0  0  0  0
   42.3453   53.2497   23.4234 C   0  0  0  0  0  0  0  0  0  0  0  0
   43.3397   52.2416   23.2475 C   0  0  0  0  0  0  0  0  0  0  0  0
   41.5854   50.5029   23.4859 C   0  0  0  0  0  0  0  0  0  0  0  0
   42.2905   54.6679   23.4612 C   0  0  0  0  0  0  0  0  0  0  0  0
   42.9640   50.8596   23.2788 C   0  0  0  0  0  0  0  0  0  0  0  0
   40.5756   51.5035   23.6650 C   0  0  0  0  0  0  0  0  0  0  0  0
   41.0140   52.8561   23.6226 C   0  0  0  0  0  0  0  0  0  0  0  0
   40.2440   53.9692   23.7637 O   0  0  0  0  0  0  0  0  0  0  0  0
   41.0409   55.1075   23.6637 N   0  0  0  0  0  0  0  0  0  0  0  0
   43.3579   55.4560   23.3144 N   0  0  0  0  0  0  0  0  0  0  0  0
   44.2468   55.0587   23.1684 H   0  0  0  0  0  0  0  0  0  0  0  0
   43.2562   56.4345   23.3520 H   0  0  0  0  0  0  0  0  0  0  0  0
   42.1012   48.2415   15.7317 C   0  0  0  0  0  0  0  0  0  0  0  0
   42.0198   47.0719   16.5414 C   0  0  0  0  0  0  0  0  0  0  0  0
   42.6716   47.0421   17.8114 C   0  0  0  0  0  0  0  0  0  0  0  0
   43.4186   48.1682   18.3016 C   0  0  0  0  0  0  0  0  0  0  0  0
   43.4852   49.3276   17.4661 C   0  0  0  0  0  0  0  0  0  0  0  0
   42.8419   49.3643   16.2095 C   0  0  0  0  0  0  0  0  0  0  0  0
   42.5614   45.9195   18.5458 F   0  0  0  0  0  0  0  0  0  0  0  0
   42.0060   48.3338   13.1530 C   0  0  0  0  0  0  0  0  0  0  0  0
   39.8719   48.5279   12.9532 C   0  0  0  0  0  0  0  0  0  0  0  0
   40.1054   48.4595   14.2946 C   0  0  0  0  0  0  0  0  0  0  0  0
   41.4677   48.3351   14.4592 N   0  0  0  0  0  0  0  0  0  0  0  0
   41.0342   48.4502   12.2566 N   0  0  0  0  0  0  0  0  0  0  0  0
   43.4896   48.2179   12.8155 C   0  0  0  0  0  0  0  0  0  0  0  0
   45.4776   49.5672   13.2009 C   0  0  0  0  0  0  0  0  0  0  0  0
   44.1663   49.5191   12.5291 N   0  0  0  0  0  0  0  0  0  0  0  0
   44.3687   49.6990   11.0846 C   0  0  0  0  0  0  0  0  0  0  0  0
   46.5632   47.4423   25.4232 N   0  0  0  0  0  0  0  0  0  0  0  0
   46.9090   48.1824   24.3247 C   0  0  0  0  0  0  0  0  0  0  0  0
   48.0928   48.3938   24.0503 O   0  0  0  0  0  0  0  0  0  0  0  0
   47.2637   47.0674   26.0046 H   0  0  0  0  0  0  0  0  0  0  0  0
   45.6141   47.2848   25.6317 H   0  0  0  0  0  0  0  0  0  0  0  0
 36 37  1  0  0  0
 37 38  1  0  0  0
 37 35  1  0  0  0
 35 30  1  0  0  0
 34 30  2  0  0  0
 34 31  1  0  0  0
 30 33  1  0  0  0
 31 32  2  0  0  0
 33 32  1  0  0  0
 33 23  1  0  0  0
 24 23  2  0  0  0
 24 25  1  0  0  0
 23 28  1  0  0  0
 29 25  1  0  0  0
 25 26  2  0  0  0
 28 27  2  0  0  0
 26 27  1  0  0  0
 26  8  1  0  0  0
  7  8  2  0  0  0
  7  3  1  0  0  0
  8  9  1  0  0  0
  3  2  2  0  0  0
  9 10  1  0  0  0
  9  4  2  0  0  0
  2  4  1  0  0  0
  2  1  1  0  0  0
  4  6  1  0  0  0
 41 40  2  0  0  0
  1 40  1  0  0  0
  1  5  2  0  0  0
  6 15  1  0  0  0
  6  5  1  0  0  0
 13 15  2  0  0  0
 13 16  1  0  0  0
 40 39  1  0  0  0
 15 12  1  0  0  0
 16 17  2  0  0  0
 12 11  2  0  0  0
 17 11  1  0  0  0
 17 18  1  0  0  0
 11 14  1  0  0  0
 18 19  1  0  0  0
 14 19  2  0  0  0
 14 20  1  0  0  0
 39 42  1  0  0  0
 39 43  1  0  0  0
 20 21  1  0  0  0
 20 22  1  0  0  0
M  END
> <minimizedAffinity>
-7.62370

$$$$
2RA0_JNJ_A_1


 43 48  0  0  0  0  0  0  0  0999 V2000
   41.9710   45.8317   18.4491 C   0  0  0  0  0  0  0  0  0  0  0  0
   42.2626   46.8743   17.5135 C   0  0  0  0  0  0  0  0  0  0  0  0
   41.8684   47.1973   16.1619 C   0  0  0  0  0  0  0  0  0  0  0  0
   43.1670   47.7283   18.1894 C   0  0  0  0  0  0  0  0  0  0  0  0
   42.6386   46.0258   19.6192 N   0  0  0  0  0  0  0  0  0  0  0  0
   43.3664   47.1738   19.4490 N   0  0  0  0  0  0  0  0  0  0  0  0
   42.3990   48.3646   15.5235 C   0  0  0  0  0  0  0  0  0  0  0  0
   43.3176   49.2234   16.2093 C   0  0  0  0  0  0  0  0  0  0  0  0
   43.6903   48.8907   17.5475 C   0  0  0  0  0  0  0  0  0  0  0  0
   44.5549   49.6928   18.1925 F   0  0  0  0  0  0  0  0  0  0  0  0
   44.7436   48.4626   22.7383 C   0  0  0  0  0  0  0  0  0  0  0  0
   43.8163   48.0746   21.7255 C   0  0  0  0  0  0  0  0  0  0  0  0
   45.7176   47.4923   20.2411 C   0  0  0  0  0  0  0  0  0  0  0  0
   44.6918   48.9749   24.0614 C   0  0  0  0  0  0  0  0  0  0  0  0
   44.2999   47.5871   20.4684 C   0  0  0  0  0  0  0  0  0  0  0  0
   46.6611   47.8789   21.2478 C   0  0  0  0  0  0  0  0  0  0  0  0
   46.1164   48.3536   22.4732 C   0  0  0  0  0  0  0  0  0  0  0  0
   46.8090   48.7719   23.5673 O   0  0  0  0  0  0  0  0  0  0  0  0
   45.9192   49.1631   24.5653 N   0  0  0  0  0  0  0  0  0  0  0  0
   43.5560   49.2355   24.7124 N   0  0  0  0  0  0  0  0  0  0  0  0
   42.6893   49.0711   24.2754 H   0  0  0  0  0  0  0  0  0  0  0  0
   43.5850   49.5921   25.6296 H   0  0  0  0  0  0  0  0  0  0  0  0
   45.1457   52.6932   14.2804 C   0  0  0  0  0  0  0  0  0  0  0  0
   44.0914   52.8948   15.2174 C   0  0  0  0  0  0  0  0  0  0  0  0
   43.4822   51.7702   15.8521 C   0  0  0  0  0  0  0  0  0  0  0  0
   43.9034   50.4254   15.5684 C   0  0  0  0  0  0  0  0  0  0  0  0
   44.9620   50.2533   14.6217 C   0  0  0  0  0  0  0  0  0  0  0  0
   45.5697   51.3612   13.9913 C   0  0  0  0  0  0  0  0  0  0  0  0
   42.4956   52.0083   16.7360 F   0  0  0  0  0  0  0  0  0  0  0  0
   47.0351   54.4056   13.8740 C   0  0  0  0  0  0  0  0  0  0  0  0
   46.1573   55.4021   12.1804 C   0  0  0  0  0  0  0  0  0  0  0  0
   45.2651   54.4336   12.5333 C   0  0  0  0  0  0  0  0  0  0  0  0
   45.7972   53.7739   13.6195 N   0  0  0  0  0  0  0  0  0  0  0  0
   47.2390   55.3834   13.0001 N   0  0  0  0  0  0  0  0  0  0  0  0
   48.0012   54.0245   14.9920 C   0  0  0  0  0  0  0  0  0  0  0  0
   47.2044   53.5321   17.2380 C   0  0  0  0  0  0  0  0  0  0  0  0
   47.6631   54.5987   16.3295 N   0  0  0  0  0  0  0  0  0  0  0  0
   48.8317   55.2590   16.9281 C   0  0  0  0  0  0  0  0  0  0  0  0
   41.7023   43.4473   18.3927 N   0  0  0  0  0  0  0  0  0  0  0  0
   41.0797   44.6591   18.2588 C   0  0  0  0  0  0  0  0  0  0  0  0
   39.8764   44.7275   17.9964 O   0  0  0  0  0  0  0  0  0  0  0  0
   41.1882   42.6149   18.2830 H   0  0  0  0  0  0  0  0  0  0  0  0
   42.6642   43.4083   18.5988 H   0  0  0  0  0  0  0  0  0  0  0  0
 36 37  1  0  0  0
 37 38  1  0  0  0
 37 35  1  0  0  0
 35 30  1  0  0  0
 34 30  2  0  0  0
 34 31  1  0  0  0
 30 33  1  0  0  0
 31 32  2  0  0  0
 33 32  1  0  0  0
 33 23  1  0  0  0
 24 23  2  0  0  0
 24 25  1  0  0  0
 23 28  1  0  0  0
 29 25  1  0  0  0
 25 26  2  0  0  0
 28 27  2  0  0  0
 26 27  1  0  0  0
 26  8  1  0  0  0
  7  8  2  0  0  0
  7  3  1  0  0  0
  8  9  1  0  0  0
  3  2  2  0  0  0
  9 10  1  0  0  0
  9  4  2  0  0  0
  2  4  1  0  0  0
  2  1  1  0  0  0
  4  6  1  0  0  0
 41 40  2  0  0  0
  1 40  1  0  0  0
  1  5  2  0  0  0
  6 15  1  0  0  0
  6  5  1  0  0  0
 13 15  2  0  0  0
 13 16  1  0  0  0
 40 39  1  0  0  0
 15 12  1  0  0  0
 16 17  2  0  0  0
 12 11  2  0  0  0
 17 11  1  0  0  0
 17 18  1  0  0  0
 11 14  1  0  0  0
 18 19  1  0  0  0
 14 19  2  0  0  0
 14 20  1  0  0  0
 39 42  1  0  0  0
 39 43  1  0  0  0
 20 21  1  0  0  0
 20 22  1  0  0  0
M  END
> <minimizedAffinity>
-7.59588

$$$$
2RA0_JNJ_A_1


 43 48  0  0  0  0  0  0  0  0999 V2000
   41.2069   45.4351   17.8351 C   0  0  0  0  0  0  0  0  0  0  0  0
   41.6949   46.3344   16.8348 C   0  0  0  0  0  0  0  0  0  0  0  0
   41.6297   46.4202   15.3943 C   0  0  0  0  0  0  0  0  0  0  0  0
   42.3953   47.3333   17.5528 C   0  0  0  0  0  0  0  0  0  0  0  0
   41.5714   45.8465   19.0802 N   0  0  0  0  0  0  0  0  0  0  0  0
   42.2976   46.9937   18.8978 N   0  0  0  0  0  0  0  0  0  0  0  0
   42.2762   47.5023   14.7140 C   0  0  0  0  0  0  0  0  0  0  0  0
   42.9880   48.5083   15.4441 C   0  0  0  0  0  0  0  0  0  0  0  0
   43.0356   48.4095   16.8683 C   0  0  0  0  0  0  0  0  0  0  0  0
   43.7058   49.3502   17.5561 F   0  0  0  0  0  0  0  0  0  0  0  0
   44.9915   48.0029   21.3680 C   0  0  0  0  0  0  0  0  0  0  0  0
   44.3436   47.3716   20.2645 C   0  0  0  0  0  0  0  0  0  0  0  0
   42.2225   48.4921   20.8993 C   0  0  0  0  0  0  0  0  0  0  0  0
   46.2917   48.0348   21.9373 C   0  0  0  0  0  0  0  0  0  0  0  0
   42.9521   47.6130   20.0244 C   0  0  0  0  0  0  0  0  0  0  0  0
   42.8587   49.1325   22.0120 C   0  0  0  0  0  0  0  0  0  0  0  0
   44.2412   48.8518   22.1947 C   0  0  0  0  0  0  0  0  0  0  0  0
   45.0519   49.3413   23.1719 O   0  0  0  0  0  0  0  0  0  0  0  0
   46.3386   48.8308   23.0144 N   0  0  0  0  0  0  0  0  0  0  0  0
   47.3309   47.3512   21.4530 N   0  0  0  0  0  0  0  0  0  0  0  0
   47.2191   46.7853   20.6552 H   0  0  0  0  0  0  0  0  0  0  0  0
   48.2091   47.4128   21.8936 H   0  0  0  0  0  0  0  0  0  0  0  0
   44.9515   51.8858   13.4847 C   0  0  0  0  0  0  0  0  0  0  0  0
   45.4153   50.5646   13.2211 C   0  0  0  0  0  0  0  0  0  0  0  0
   44.7859   49.4521   13.8573 C   0  0  0  0  0  0  0  0  0  0  0  0
   43.6880   49.6273   14.7686 C   0  0  0  0  0  0  0  0  0  0  0  0
   43.2455   50.9651   15.0162 C   0  0  0  0  0  0  0  0  0  0  0  0
   43.8627   52.0698   14.3894 C   0  0  0  0  0  0  0  0  0  0  0  0
   45.2518   48.2219   13.5726 F   0  0  0  0  0  0  0  0  0  0  0  0
   46.7039   53.7597   13.1936 C   0  0  0  0  0  0  0  0  0  0  0  0
   45.8067   54.7275   11.4935 C   0  0  0  0  0  0  0  0  0  0  0  0
   44.9868   53.6789   11.7878 C   0  0  0  0  0  0  0  0  0  0  0  0
   45.5332   53.0351   12.8765 N   0  0  0  0  0  0  0  0  0  0  0  0
   46.8562   54.7754   12.3530 N   0  0  0  0  0  0  0  0  0  0  0  0
   47.6579   53.4286   14.3375 C   0  0  0  0  0  0  0  0  0  0  0  0
   46.8364   52.6745   16.5004 C   0  0  0  0  0  0  0  0  0  0  0  0
   47.1821   53.8553   15.6883 N   0  0  0  0  0  0  0  0  0  0  0  0
   48.2181   54.6251   16.3911 C   0  0  0  0  0  0  0  0  0  0  0  0
   40.7865   43.1484   18.4311 N   0  0  0  0  0  0  0  0  0  0  0  0
   40.4087   44.1982   17.6379 C   0  0  0  0  0  0  0  0  0  0  0  0
   39.4796   44.0833   16.8349 O   0  0  0  0  0  0  0  0  0  0  0  0
   40.3123   42.2880   18.3676 H   0  0  0  0  0  0  0  0  0  0  0  0
   41.5324   43.2539   19.0649 H   0  0  0  0  0  0  0  0  0  0  0  0
 36 37  1  0  0  0
 37 38  1  0  0  0
 37 35  1  0  0  0
 35 30  1  0  0  0
 34 30  2  0  0  0
 34 31  1  0  0  0
 30 33  1  0  0  0
 31 32  2  0  0  0
 33 32  1  0  0  0
 33 23  1  0  0  0
 24 23  2  0  0  0
 24 25  1  0  0  0
 23 28  1  0  0  0
 29 25  1  0  0  0
 25 26  2  0  0  0
 28 27  2  0  0  0
 26 27  1  0  0  0
 26  8  1  0  0  0
  7  8  2  0  0  0
  7  3  1  0  0  0
  8  9  1  0  0  0
  3  2  2  0  0  0
  9 10  1  0  0  0
  9  4  2  0  0  0
  2  4  1  0  0  0
  2  1  1  0  0  0
  4  6  1  0  0  0
 41 40  2  0  0  0
  1 40  1  0  0  0
  1  5  2  0  0  0
  6 15  1  0  0  0
  6  5  1  0  0  0
 13 15  2  0  0  0
 13 16  1  0  0  0
 40 39  1  0  0  0
 15 12  1  0  0  0
 16 17  2  0  0  0
 12 11  2  0  0  0
 17 11  1  0  0  0
 17 18  1  0  0  0
 11 14  1  0  0  0
 18 19  1  0  0  0
 14 19  2  0  0  0
 14 20  1  0  0  0
 39 42  1  0  0  0
 39 43  1  0  0  0
 20 21  1  0  0  0
 20 22  1  0  0  0
M  END
> <minimizedAffinity>
-7.44635

$$$$
