5N17_8FK_A_401


 26 29  0  0  0  0  0  0  0  0999 V2000
    2.7170  -25.4163  -32.8230 O   0  0  0  0  0  0  0  0  0  0  0  0
    2.4768  -25.7655  -31.6871 C   0  0  0  0  0  0  0  0  0  0  0  0
    3.4787  -25.3556  -30.6526 C   0  0  0  0  0  0  0  0  0  0  0  0
    3.9379  -24.0459  -30.6765 C   0  0  0  0  0  0  0  0  0  0  0  0
    4.8857  -23.6271  -29.7540 C   0  0  0  0  0  0  0  0  0  0  0  0
    5.3952  -24.5155  -28.8109 C   0  0  0  0  0  0  0  0  0  0  0  0
    4.9697  -25.8416  -28.7568 C   0  0  0  0  0  0  0  0  0  0  0  0
    4.0336  -26.3120  -29.6706 C   0  0  0  0  0  0  0  0  0  0  0  0
    3.4594  -27.9126  -29.6367 S   0  0  0  0  0  0  0  0  0  0  0  0
    1.8291  -27.6356  -29.2364 C   0  0  0  0  0  0  0  0  0  0  0  0
    1.2820  -28.0242  -28.0090 C   0  0  0  0  0  0  0  0  0  0  0  0
   -0.0666  -27.7381  -27.7225 C   0  0  0  0  0  0  0  0  0  0  0  0
   -0.8615  -27.0666  -28.6385 C   0  0  0  0  0  0  0  0  0  0  0  0
   -0.3618  -26.6556  -29.8507 C   0  0  0  0  0  0  0  0  0  0  0  0
    0.9606  -26.8903  -30.1827 C   0  0  0  0  0  0  0  0  0  0  0  0
    1.3848  -26.4842  -31.4509 N   0  0  0  0  0  0  0  0  0  0  0  0
    0.5496  -26.9824  -32.5438 C   0  0  0  0  0  0  0  0  0  0  0  0
   -0.7430  -28.1050  -26.6049 N   0  0  0  0  0  0  0  0  0  0  0  0
   -1.0602  -27.2914  -25.6096 C   0  0  0  0  0  0  0  0  0  0  0  0
   -0.8293  -26.0965  -25.5775 O   0  0  0  0  0  0  0  0  0  0  0  0
   -1.0186  -29.0470  -26.5283 H   0  0  0  0  0  0  0  0  0  0  0  0
   -1.7684  -27.9240  -24.4537 C   0  0  0  0  0  0  0  0  0  0  0  0
   -2.6849  -29.0259  -24.9523 C   0  0  0  0  0  0  0  0  0  0  0  0
   -3.8335  -28.2319  -25.5526 C   0  0  0  0  0  0  0  0  0  0  0  0
   -3.7329  -26.8520  -24.9048 C   0  0  0  0  0  0  0  0  0  0  0  0
   -2.6669  -26.9446  -23.9499 O   0  0  0  0  0  0  0  0  0  0  0  0
  1  2  2  0  0  0
 17 16  1  0  0  0
  2 16  1  0  0  0
  2  3  1  0  0  0
 16 15  1  0  0  0
  4  3  2  0  0  0
  4  5  1  0  0  0
  3  8  1  0  0  0
 15 14  2  0  0  0
 15 10  1  0  0  0
 14 13  1  0  0  0
  5  6  2  0  0  0
  8  9  1  0  0  0
  8  7  2  0  0  0
  9 10  1  0  0  0
 10 11  2  0  0  0
  6  7  1  0  0  0
 13 12  2  0  0  0
 11 12  1  0  0  0
 12 18  1  0  0  0
 18 19  1  0  0  0
 19 20  2  0  0  0
 19 22  1  0  0  0
 22 23  1  0  0  0
 22 26  1  0  0  0
 23 24  1  0  0  0
 26 25  1  0  0  0
 24 25  1  0  0  0
 18 21  1  0  0  0
M  END
> <minimizedAffinity>
-8.46387

$$$$
5N17_8FK_A_401


 26 29  0  0  0  0  0  0  0  0999 V2000
    3.7995  -23.8036  -30.6878 O   0  0  0  0  0  0  0  0  0  0  0  0
    3.5969  -24.9964  -30.6102 C   0  0  0  0  0  0  0  0  0  0  0  0
    2.5517  -25.5422  -31.5332 C   0  0  0  0  0  0  0  0  0  0  0  0
    2.5802  -25.1347  -32.8597 C   0  0  0  0  0  0  0  0  0  0  0  0
    1.6168  -25.5937  -33.7463 C   0  0  0  0  0  0  0  0  0  0  0  0
    0.6078  -26.4496  -33.3132 C   0  0  0  0  0  0  0  0  0  0  0  0
    0.5354  -26.8766  -31.9884 C   0  0  0  0  0  0  0  0  0  0  0  0
    1.4687  -26.4307  -31.0595 C   0  0  0  0  0  0  0  0  0  0  0  0
    1.4444  -26.9376  -29.4361 S   0  0  0  0  0  0  0  0  0  0  0  0
    2.9037  -27.8100  -29.3747 C   0  0  0  0  0  0  0  0  0  0  0  0
    2.9410  -29.1980  -29.2052 C   0  0  0  0  0  0  0  0  0  0  0  0
    4.1791  -29.8684  -29.1951 C   0  0  0  0  0  0  0  0  0  0  0  0
    5.3665  -29.1721  -29.3600 C   0  0  0  0  0  0  0  0  0  0  0  0
    5.3756  -27.8102  -29.5420 C   0  0  0  0  0  0  0  0  0  0  0  0
    4.1904  -27.0976  -29.5806 C   0  0  0  0  0  0  0  0  0  0  0  0
    4.2811  -25.7102  -29.7230 N   0  0  0  0  0  0  0  0  0  0  0  0
    5.1617  -25.0696  -28.7460 C   0  0  0  0  0  0  0  0  0  0  0  0
    4.3697  -31.1948  -28.9820 N   0  0  0  0  0  0  0  0  0  0  0  0
    4.4476  -31.7677  -27.7908 C   0  0  0  0  0  0  0  0  0  0  0  0
    4.3160  -31.1943  -26.7250 O   0  0  0  0  0  0  0  0  0  0  0  0
    4.4566  -31.7750  -29.7727 H   0  0  0  0  0  0  0  0  0  0  0  0
    4.7080  -33.2408  -27.7939 C   0  0  0  0  0  0  0  0  0  0  0  0
    4.1016  -33.8680  -29.0356 C   0  0  0  0  0  0  0  0  0  0  0  0
    2.6203  -33.8707  -28.6950 C   0  0  0  0  0  0  0  0  0  0  0  0
    2.5710  -33.7500  -27.1728 C   0  0  0  0  0  0  0  0  0  0  0  0
    3.9355  -33.7863  -26.7328 O   0  0  0  0  0  0  0  0  0  0  0  0
  1  2  2  0  0  0
 17 16  1  0  0  0
  2 16  1  0  0  0
  2  3  1  0  0  0
 16 15  1  0  0  0
  4  3  2  0  0  0
  4  5  1  0  0  0
  3  8  1  0  0  0
 15 14  2  0  0  0
 15 10  1  0  0  0
 14 13  1  0  0  0
  5  6  2  0  0  0
  8  9  1  0  0  0
  8  7  2  0  0  0
  9 10  1  0  0  0
 10 11  2  0  0  0
  6  7  1  0  0  0
 13 12  2  0  0  0
 11 12  1  0  0  0
 12 18  1  0  0  0
 18 19  1  0  0  0
 19 20  2  0  0  0
 19 22  1  0  0  0
 22 23  1  0  0  0
 22 26  1  0  0  0
 23 24  1  0  0  0
 26 25  1  0  0  0
 24 25  1  0  0  0
 18 21  1  0  0  0
M  END
> <minimizedAffinity>
-6.75034

$$$$
5N17_8FK_A_401


 26 29  0  0  0  0  0  0  0  0999 V2000
    4.3206  -24.7584  -31.1241 O   0  0  0  0  0  0  0  0  0  0  0  0
    3.9417  -25.6127  -30.3517 C   0  0  0  0  0  0  0  0  0  0  0  0
    4.8239  -25.8595  -29.1673 C   0  0  0  0  0  0  0  0  0  0  0  0
    5.3100  -24.7565  -28.4789 C   0  0  0  0  0  0  0  0  0  0  0  0
    6.1518  -24.9348  -27.3906 C   0  0  0  0  0  0  0  0  0  0  0  0
    6.5287  -26.2140  -26.9904 C   0  0  0  0  0  0  0  0  0  0  0  0
    6.0721  -27.3489  -27.6584 C   0  0  0  0  0  0  0  0  0  0  0  0
    5.2398  -27.2201  -28.7644 C   0  0  0  0  0  0  0  0  0  0  0  0
    4.6323  -28.5695  -29.6028 S   0  0  0  0  0  0  0  0  0  0  0  0
    2.9725  -28.4066  -29.2662 C   0  0  0  0  0  0  0  0  0  0  0  0
    2.2774  -29.3171  -28.4634 C   0  0  0  0  0  0  0  0  0  0  0  0
    0.9108  -29.1109  -28.1941 C   0  0  0  0  0  0  0  0  0  0  0  0
    0.2429  -28.0098  -28.7074 C   0  0  0  0  0  0  0  0  0  0  0  0
    0.8896  -27.0840  -29.4901 C   0  0  0  0  0  0  0  0  0  0  0  0
    2.2366  -27.2211  -29.7745 C   0  0  0  0  0  0  0  0  0  0  0  0
    2.8147  -26.2653  -30.6144 N   0  0  0  0  0  0  0  0  0  0  0  0
    2.1031  -26.0781  -31.8788 C   0  0  0  0  0  0  0  0  0  0  0  0
    0.1007  -29.9373  -27.4858 N   0  0  0  0  0  0  0  0  0  0  0  0
   -0.0482  -29.9085  -26.1704 C   0  0  0  0  0  0  0  0  0  0  0  0
    0.4846  -29.1116  -25.4199 O   0  0  0  0  0  0  0  0  0  0  0  0
   -0.4152  -30.6091  -27.9877 H   0  0  0  0  0  0  0  0  0  0  0  0
   -0.9605  -30.9459  -25.5968 C   0  0  0  0  0  0  0  0  0  0  0  0
   -2.0351  -31.3019  -26.6075 C   0  0  0  0  0  0  0  0  0  0  0  0
   -2.9488  -30.0895  -26.5351 C   0  0  0  0  0  0  0  0  0  0  0  0
   -2.6274  -29.4400  -25.1901 C   0  0  0  0  0  0  0  0  0  0  0  0
   -1.6831  -30.3098  -24.5511 O   0  0  0  0  0  0  0  0  0  0  0  0
  1  2  2  0  0  0
 17 16  1  0  0  0
  2 16  1  0  0  0
  2  3  1  0  0  0
 16 15  1  0  0  0
  4  3  2  0  0  0
  4  5  1  0  0  0
  3  8  1  0  0  0
 15 14  2  0  0  0
 15 10  1  0  0  0
 14 13  1  0  0  0
  5  6  2  0  0  0
  8  9  1  0  0  0
  8  7  2  0  0  0
  9 10  1  0  0  0
 10 11  2  0  0  0
  6  7  1  0  0  0
 13 12  2  0  0  0
 11 12  1  0  0  0
 12 18  1  0  0  0
 18 19  1  0  0  0
 19 20  2  0  0  0
 19 22  1  0  0  0
 22 23  1  0  0  0
 22 26  1  0  0  0
 23 24  1  0  0  0
 26 25  1  0  0  0
 24 25  1  0  0  0
 18 21  1  0  0  0
M  END
> <minimizedAffinity>
-6.69548

$$$$
5N17_8FK_A_401


 26 29  0  0  0  0  0  0  0  0999 V2000
   -4.5356  -28.8877  -24.8021 O   0  0  0  0  0  0  0  0  0  0  0  0
   -3.6373  -28.3192  -25.3852 C   0  0  0  0  0  0  0  0  0  0  0  0
   -3.4366  -26.8788  -25.0287 C   0  0  0  0  0  0  0  0  0  0  0  0
   -3.4426  -26.5359  -23.6837 C   0  0  0  0  0  0  0  0  0  0  0  0
   -3.2862  -25.2102  -23.3059 C   0  0  0  0  0  0  0  0  0  0  0  0
   -3.1390  -24.2138  -24.2671 C   0  0  0  0  0  0  0  0  0  0  0  0
   -3.1366  -24.5117  -25.6287 C   0  0  0  0  0  0  0  0  0  0  0  0
   -3.3064  -25.8235  -26.0564 C   0  0  0  0  0  0  0  0  0  0  0  0
   -3.2872  -26.2491  -27.7030 S   0  0  0  0  0  0  0  0  0  0  0  0
   -1.8785  -27.2021  -27.7477 C   0  0  0  0  0  0  0  0  0  0  0  0
   -0.7249  -26.8034  -28.4312 C   0  0  0  0  0  0  0  0  0  0  0  0
    0.4214  -27.6206  -28.4046 C   0  0  0  0  0  0  0  0  0  0  0  0
    0.4271  -28.8153  -27.7013 C   0  0  0  0  0  0  0  0  0  0  0  0
   -0.6795  -29.2392  -27.0059 C   0  0  0  0  0  0  0  0  0  0  0  0
   -1.8298  -28.4711  -26.9780 C   0  0  0  0  0  0  0  0  0  0  0  0
   -2.9295  -28.9889  -26.2882 N   0  0  0  0  0  0  0  0  0  0  0  0
   -3.3012  -30.3440  -26.6952 C   0  0  0  0  0  0  0  0  0  0  0  0
    1.5838  -27.3912  -29.0659 N   0  0  0  0  0  0  0  0  0  0  0  0
    1.7217  -27.4025  -30.3828 C   0  0  0  0  0  0  0  0  0  0  0  0
    0.8204  -27.5761  -31.1825 O   0  0  0  0  0  0  0  0  0  0  0  0
    2.3849  -27.2020  -28.5259 H   0  0  0  0  0  0  0  0  0  0  0  0
    3.1083  -27.1685  -30.8929 C   0  0  0  0  0  0  0  0  0  0  0  0
    3.7399  -26.0048  -30.1515 C   0  0  0  0  0  0  0  0  0  0  0  0
    3.0330  -24.8131  -30.7760 C   0  0  0  0  0  0  0  0  0  0  0  0
    2.4910  -25.3354  -32.1056 C   0  0  0  0  0  0  0  0  0  0  0  0
    2.9695  -26.6823  -32.2214 O   0  0  0  0  0  0  0  0  0  0  0  0
  1  2  2  0  0  0
 17 16  1  0  0  0
  2 16  1  0  0  0
  2  3  1  0  0  0
 16 15  1  0  0  0
  4  3  2  0  0  0
  4  5  1  0  0  0
  3  8  1  0  0  0
 15 14  2  0  0  0
 15 10  1  0  0  0
 14 13  1  0  0  0
  5  6  2  0  0  0
  8  9  1  0  0  0
  8  7  2  0  0  0
  9 10  1  0  0  0
 10 11  2  0  0  0
  6  7  1  0  0  0
 13 12  2  0  0  0
 11 12  1  0  0  0
 12 18  1  0  0  0
 18 19  1  0  0  0
 19 20  2  0  0  0
 19 22  1  0  0  0
 22 23  1  0  0  0
 22 26  1  0  0  0
 23 24  1  0  0  0
 26 25  1  0  0  0
 24 25  1  0  0  0
 18 21  1  0  0  0
M  END
> <minimizedAffinity>
-6.67686

$$$$
5N17_8FK_A_401


 26 29  0  0  0  0  0  0  0  0999 V2000
    3.8077  -24.1233  -30.3142 O   0  0  0  0  0  0  0  0  0  0  0  0
    3.7384  -25.3335  -30.2903 C   0  0  0  0  0  0  0  0  0  0  0  0
    2.6877  -25.9444  -31.1651 C   0  0  0  0  0  0  0  0  0  0  0  0
    2.5699  -25.4718  -32.4649 C   0  0  0  0  0  0  0  0  0  0  0  0
    1.5941  -25.9893  -33.3044 C   0  0  0  0  0  0  0  0  0  0  0  0
    0.7176  -26.9705  -32.8492 C   0  0  0  0  0  0  0  0  0  0  0  0
    0.7938  -27.4670  -31.5491 C   0  0  0  0  0  0  0  0  0  0  0  0
    1.7444  -26.9679  -30.6660 C   0  0  0  0  0  0  0  0  0  0  0  0
    1.8999  -27.5532  -29.0766 S   0  0  0  0  0  0  0  0  0  0  0  0
    3.4432  -28.2629  -29.1704 C   0  0  0  0  0  0  0  0  0  0  0  0
    3.6394  -29.6452  -29.0834 C   0  0  0  0  0  0  0  0  0  0  0  0
    4.9382  -30.1761  -29.2007 C   0  0  0  0  0  0  0  0  0  0  0  0
    6.0293  -29.3471  -29.4109 C   0  0  0  0  0  0  0  0  0  0  0  0
    5.8809  -27.9851  -29.5152 C   0  0  0  0  0  0  0  0  0  0  0  0
    4.6279  -27.4051  -29.4275 C   0  0  0  0  0  0  0  0  0  0  0  0
    4.5608  -26.0108  -29.4969 N   0  0  0  0  0  0  0  0  0  0  0  0
    5.4424  -25.3264  -28.5510 C   0  0  0  0  0  0  0  0  0  0  0  0
    5.2833  -31.4826  -29.0779 N   0  0  0  0  0  0  0  0  0  0  0  0
    6.1329  -32.1198  -29.8688 C   0  0  0  0  0  0  0  0  0  0  0  0
    6.7541  -31.6143  -30.7856 O   0  0  0  0  0  0  0  0  0  0  0  0
    4.8709  -31.9954  -28.3456 H   0  0  0  0  0  0  0  0  0  0  0  0
    6.3286  -33.5735  -29.5753 C   0  0  0  0  0  0  0  0  0  0  0  0
    6.2552  -33.8108  -28.0782 C   0  0  0  0  0  0  0  0  0  0  0  0
    7.5965  -33.2720  -27.6084 C   0  0  0  0  0  0  0  0  0  0  0  0
    8.4750  -33.2717  -28.8584 C   0  0  0  0  0  0  0  0  0  0  0  0
    7.6822  -33.8678  -29.8941 O   0  0  0  0  0  0  0  0  0  0  0  0
  1  2  2  0  0  0
 17 16  1  0  0  0
  2 16  1  0  0  0
  2  3  1  0  0  0
 16 15  1  0  0  0
  4  3  2  0  0  0
  4  5  1  0  0  0
  3  8  1  0  0  0
 15 14  2  0  0  0
 15 10  1  0  0  0
 14 13  1  0  0  0
  5  6  2  0  0  0
  8  9  1  0  0  0
  8  7  2  0  0  0
  9 10  1  0  0  0
 10 11  2  0  0  0
  6  7  1  0  0  0
 13 12  2  0  0  0
 11 12  1  0  0  0
 12 18  1  0  0  0
 18 19  1  0  0  0
 19 20  2  0  0  0
 19 22  1  0  0  0
 22 23  1  0  0  0
 22 26  1  0  0  0
 23 24  1  0  0  0
 26 25  1  0  0  0
 24 25  1  0  0  0
 18 21  1  0  0  0
M  END
> <minimizedAffinity>
-6.36747

$$$$
5N17_8FK_A_401


 26 29  0  0  0  0  0  0  0  0999 V2000
   -3.8145  -25.8592  -21.9359 O   0  0  0  0  0  0  0  0  0  0  0  0
   -3.5156  -25.9887  -23.1038 C   0  0  0  0  0  0  0  0  0  0  0  0
   -4.2622  -25.1206  -24.0687 C   0  0  0  0  0  0  0  0  0  0  0  0
   -4.4186  -23.7791  -23.7482 C   0  0  0  0  0  0  0  0  0  0  0  0
   -5.1251  -22.9414  -24.5989 C   0  0  0  0  0  0  0  0  0  0  0  0
   -5.6952  -23.4383  -25.7679 C   0  0  0  0  0  0  0  0  0  0  0  0
   -5.5711  -24.7801  -26.1239 C   0  0  0  0  0  0  0  0  0  0  0  0
   -4.8862  -25.6616  -25.2953 C   0  0  0  0  0  0  0  0  0  0  0  0
   -4.6818  -27.3031  -25.6907 S   0  0  0  0  0  0  0  0  0  0  0  0
   -2.9935  -27.3522  -25.8951 C   0  0  0  0  0  0  0  0  0  0  0  0
   -2.3951  -27.5735  -27.1400 C   0  0  0  0  0  0  0  0  0  0  0  0
   -0.9914  -27.5705  -27.2516 C   0  0  0  0  0  0  0  0  0  0  0  0
   -0.1902  -27.3419  -26.1437 C   0  0  0  0  0  0  0  0  0  0  0  0
   -0.7358  -27.1077  -24.9046 C   0  0  0  0  0  0  0  0  0  0  0  0
   -2.1085  -27.0790  -24.7343 C   0  0  0  0  0  0  0  0  0  0  0  0
   -2.5893  -26.8808  -23.4371 N   0  0  0  0  0  0  0  0  0  0  0  0
   -2.0309  -27.8045  -22.4495 C   0  0  0  0  0  0  0  0  0  0  0  0
   -0.2772  -27.8281  -28.3762 N   0  0  0  0  0  0  0  0  0  0  0  0
   -0.1527  -26.9996  -29.4015 C   0  0  0  0  0  0  0  0  0  0  0  0
   -0.6230  -25.8782  -29.4603 O   0  0  0  0  0  0  0  0  0  0  0  0
    0.1831  -28.6964  -28.4341 H   0  0  0  0  0  0  0  0  0  0  0  0
    0.6461  -27.5120  -30.5578 C   0  0  0  0  0  0  0  0  0  0  0  0
    1.9518  -28.1036  -30.0595 C   0  0  0  0  0  0  0  0  0  0  0  0
    2.7548  -26.8569  -29.7262 C   0  0  0  0  0  0  0  0  0  0  0  0
    2.0817  -25.7373  -30.5184 C   0  0  0  0  0  0  0  0  0  0  0  0
    1.0576  -26.3703  -31.2977 O   0  0  0  0  0  0  0  0  0  0  0  0
  1  2  2  0  0  0
 17 16  1  0  0  0
  2 16  1  0  0  0
  2  3  1  0  0  0
 16 15  1  0  0  0
  4  3  2  0  0  0
  4  5  1  0  0  0
  3  8  1  0  0  0
 15 14  2  0  0  0
 15 10  1  0  0  0
 14 13  1  0  0  0
  5  6  2  0  0  0
  8  9  1  0  0  0
  8  7  2  0  0  0
  9 10  1  0  0  0
 10 11  2  0  0  0
  6  7  1  0  0  0
 13 12  2  0  0  0
 11 12  1  0  0  0
 12 18  1  0  0  0
 18 19  1  0  0  0
 19 20  2  0  0  0
 19 22  1  0  0  0
 22 23  1  0  0  0
 22 26  1  0  0  0
 23 24  1  0  0  0
 26 25  1  0  0  0
 24 25  1  0  0  0
 18 21  1  0  0  0
M  END
> <minimizedAffinity>
-5.92738

$$$$
5N17_8FK_A_401


 26 29  0  0  0  0  0  0  0  0999 V2000
   -0.9109  -29.9728  -27.2408 O   0  0  0  0  0  0  0  0  0  0  0  0
   -0.0534  -29.1985  -27.6085 C   0  0  0  0  0  0  0  0  0  0  0  0
   -0.4998  -27.7860  -27.8270 C   0  0  0  0  0  0  0  0  0  0  0  0
   -1.3051  -27.2024  -26.8587 C   0  0  0  0  0  0  0  0  0  0  0  0
   -1.7645  -25.9046  -27.0298 C   0  0  0  0  0  0  0  0  0  0  0  0
   -1.4379  -25.1842  -28.1755 C   0  0  0  0  0  0  0  0  0  0  0  0
   -0.6400  -25.7341  -29.1773 C   0  0  0  0  0  0  0  0  0  0  0  0
   -0.1694  -27.0368  -29.0584 C   0  0  0  0  0  0  0  0  0  0  0  0
    0.8277  -27.7509  -30.2368 S   0  0  0  0  0  0  0  0  0  0  0  0
    2.2599  -27.9423  -29.3387 C   0  0  0  0  0  0  0  0  0  0  0  0
    3.4241  -27.2200  -29.6209 C   0  0  0  0  0  0  0  0  0  0  0  0
    4.5690  -27.3983  -28.8209 C   0  0  0  0  0  0  0  0  0  0  0  0
    4.5574  -28.2758  -27.7478 C   0  0  0  0  0  0  0  0  0  0  0  0
    3.4320  -28.9959  -27.4271 C   0  0  0  0  0  0  0  0  0  0  0  0
    2.2699  -28.8502  -28.1636 C   0  0  0  0  0  0  0  0  0  0  0  0
    1.1804  -29.6494  -27.8064 N   0  0  0  0  0  0  0  0  0  0  0  0
    1.4910  -31.0770  -27.7307 C   0  0  0  0  0  0  0  0  0  0  0  0
    5.7784  -26.8134  -29.0121 N   0  0  0  0  0  0  0  0  0  0  0  0
    6.2425  -25.7871  -28.3159 C   0  0  0  0  0  0  0  0  0  0  0  0
    5.6708  -25.2549  -27.3822 O   0  0  0  0  0  0  0  0  0  0  0  0
    6.3541  -27.1796  -29.7218 H   0  0  0  0  0  0  0  0  0  0  0  0
    7.5851  -25.2744  -28.7311 C   0  0  0  0  0  0  0  0  0  0  0  0
    8.4446  -26.4233  -29.2250 C   0  0  0  0  0  0  0  0  0  0  0  0
    8.8249  -27.1130  -27.9250 C   0  0  0  0  0  0  0  0  0  0  0  0
    8.6087  -26.0540  -26.8452 C   0  0  0  0  0  0  0  0  0  0  0  0
    8.2394  -24.8554  -27.5408 O   0  0  0  0  0  0  0  0  0  0  0  0
  1  2  2  0  0  0
 17 16  1  0  0  0
  2 16  1  0  0  0
  2  3  1  0  0  0
 16 15  1  0  0  0
  4  3  2  0  0  0
  4  5  1  0  0  0
  3  8  1  0  0  0
 15 14  2  0  0  0
 15 10  1  0  0  0
 14 13  1  0  0  0
  5  6  2  0  0  0
  8  9  1  0  0  0
  8  7  2  0  0  0
  9 10  1  0  0  0
 10 11  2  0  0  0
  6  7  1  0  0  0
 13 12  2  0  0  0
 11 12  1  0  0  0
 12 18  1  0  0  0
 18 19  1  0  0  0
 19 20  2  0  0  0
 19 22  1  0  0  0
 22 23  1  0  0  0
 22 26  1  0  0  0
 23 24  1  0  0  0
 26 25  1  0  0  0
 24 25  1  0  0  0
 18 21  1  0  0  0
M  END
> <minimizedAffinity>
-5.80536

$$$$
5N17_8FK_A_401


 26 29  0  0  0  0  0  0  0  0999 V2000
    4.7875  -27.6874  -30.2492 O   0  0  0  0  0  0  0  0  0  0  0  0
    3.7903  -27.7732  -29.5649 C   0  0  0  0  0  0  0  0  0  0  0  0
    4.0102  -28.1694  -28.1377 C   0  0  0  0  0  0  0  0  0  0  0  0
    5.0318  -27.5407  -27.4394 C   0  0  0  0  0  0  0  0  0  0  0  0
    5.2899  -27.8931  -26.1226 C   0  0  0  0  0  0  0  0  0  0  0  0
    4.5420  -28.8869  -25.4970 C   0  0  0  0  0  0  0  0  0  0  0  0
    3.5134  -29.5507  -26.1633 C   0  0  0  0  0  0  0  0  0  0  0  0
    3.2281  -29.2436  -27.4888 C   0  0  0  0  0  0  0  0  0  0  0  0
    1.9692  -30.0031  -28.3438 S   0  0  0  0  0  0  0  0  0  0  0  0
    0.9339  -28.6757  -28.5906 C   0  0  0  0  0  0  0  0  0  0  0  0
   -0.3191  -28.5777  -27.9764 C   0  0  0  0  0  0  0  0  0  0  0  0
   -1.1175  -27.4385  -28.1940 C   0  0  0  0  0  0  0  0  0  0  0  0
   -0.6753  -26.4041  -29.0042 C   0  0  0  0  0  0  0  0  0  0  0  0
    0.5535  -26.4531  -29.6170 C   0  0  0  0  0  0  0  0  0  0  0  0
    1.3919  -27.5370  -29.4267 C   0  0  0  0  0  0  0  0  0  0  0  0
    2.6061  -27.5374  -30.1188 N   0  0  0  0  0  0  0  0  0  0  0  0
    2.4684  -27.3203  -31.5590 C   0  0  0  0  0  0  0  0  0  0  0  0
   -2.3705  -27.2355  -27.7147 N   0  0  0  0  0  0  0  0  0  0  0  0
   -2.7037  -27.2512  -26.4332 C   0  0  0  0  0  0  0  0  0  0  0  0
   -1.9286  -27.4055  -25.5072 O   0  0  0  0  0  0  0  0  0  0  0  0
   -3.0859  -27.0636  -28.3689 H   0  0  0  0  0  0  0  0  0  0  0  0
   -4.1558  -27.0485  -26.1368 C   0  0  0  0  0  0  0  0  0  0  0  0
   -4.7337  -26.0101  -27.0805 C   0  0  0  0  0  0  0  0  0  0  0  0
   -4.1730  -24.7185  -26.5082 C   0  0  0  0  0  0  0  0  0  0  0  0
   -3.7928  -25.0634  -25.0693 C   0  0  0  0  0  0  0  0  0  0  0  0
   -4.2206  -26.4169  -24.8651 O   0  0  0  0  0  0  0  0  0  0  0  0
  1  2  2  0  0  0
 17 16  1  0  0  0
  2 16  1  0  0  0
  2  3  1  0  0  0
 16 15  1  0  0  0
  4  3  2  0  0  0
  4  5  1  0  0  0
  3  8  1  0  0  0
 15 14  2  0  0  0
 15 10  1  0  0  0
 14 13  1  0  0  0
  5  6  2  0  0  0
  8  9  1  0  0  0
  8  7  2  0  0  0
  9 10  1  0  0  0
 10 11  2  0  0  0
  6  7  1  0  0  0
 13 12  2  0  0  0
 11 12  1  0  0  0
 12 18  1  0  0  0
 18 19  1  0  0  0
 19 20  2  0  0  0
 19 22  1  0  0  0
 22 23  1  0  0  0
 22 26  1  0  0  0
 23 24  1  0  0  0
 26 25  1  0  0  0
 24 25  1  0  0  0
 18 21  1  0  0  0
M  END
> <minimizedAffinity>
-5.60011

$$$$
