4PMM_31V_A_801


 38 43  0  0  0  0  0  0  0  0999 V2000
   35.1186  -33.9071  -10.6488 C   0  0  0  0  0  0  0  0  0  0  0  0
   33.7125  -34.2642   -8.5920 C   0  0  0  0  0  0  0  0  0  0  0  0
   33.8799  -34.0284   -9.9013 N   0  0  0  0  0  0  0  0  0  0  0  0
   32.6974  -33.8328  -10.5098 N   0  0  0  0  0  0  0  0  0  0  0  0
   31.7705  -33.9314   -9.5832 N   0  0  0  0  0  0  0  0  0  0  0  0
   32.3649  -34.1922   -8.3838 C   0  0  0  0  0  0  0  0  0  0  0  0
   31.4217  -35.1739   -4.8843 C   0  0  0  0  0  0  0  0  0  0  0  0
   32.0947  -35.0923   -6.0876 C   0  0  0  0  0  0  0  0  0  0  0  0
   30.4381  -33.5676   -6.9490 C   0  0  0  0  0  0  0  0  0  0  0  0
   31.6121  -34.2983   -7.1255 C   0  0  0  0  0  0  0  0  0  0  0  0
   29.7542  -33.6363   -5.7474 C   0  0  0  0  0  0  0  0  0  0  0  0
   30.2440  -34.4544   -4.7147 C   0  0  0  0  0  0  0  0  0  0  0  0
   29.5462  -34.5618   -3.4595 N   0  0  0  0  0  0  0  0  0  0  0  0
   30.1078  -34.6392   -2.2240 C   0  0  0  0  0  0  0  0  0  0  0  0
   28.1788  -34.6795   -3.2804 C   0  0  0  0  0  0  0  0  0  0  0  0
   27.9905  -34.8300   -1.9410 C   0  0  0  0  0  0  0  0  0  0  0  0
   26.7145  -35.0103   -1.1817 C   0  0  0  0  0  0  0  0  0  0  0  0
   29.2175  -34.8026   -1.2801 N   0  0  0  0  0  0  0  0  0  0  0  0
   28.6269  -32.9124   -5.4642 O   0  0  0  0  0  0  0  0  0  0  0  0
   28.5166  -31.5910   -6.0030 C   0  0  0  0  0  0  0  0  0  0  0  0
   35.9785  -32.7823  -10.0952 C   0  0  0  0  0  0  0  0  0  0  0  0
   35.6176  -32.0534   -9.1694 O   0  0  0  0  0  0  0  0  0  0  0  0
   37.1191  -32.5489  -10.8024 N   0  0  0  0  0  0  0  0  0  0  0  0
   37.2577  -33.0940  -11.6104 H   0  0  0  0  0  0  0  0  0  0  0  0
   38.8006  -30.9825  -11.4743 N   0  0  0  0  0  0  0  0  0  0  0  0
   38.0971  -31.6290  -10.5024 C   0  0  0  0  0  0  0  0  0  0  0  0
   39.4292  -30.1258   -9.6134 C   0  0  0  0  0  0  0  0  0  0  0  0
   38.4692  -31.0908   -9.3103 C   0  0  0  0  0  0  0  0  0  0  0  0
   39.6470  -30.0351  -10.9221 N   0  0  0  0  0  0  0  0  0  0  0  0
   39.8492  -31.4553  -15.0067 C   0  0  0  0  0  0  0  0  0  0  0  0
   37.4792  -31.0793  -14.9423 C   0  0  0  0  0  0  0  0  0  0  0  0
   37.5228  -30.9809  -13.5606 C   0  0  0  0  0  0  0  0  0  0  0  0
   38.7428  -31.1188  -12.8958 C   0  0  0  0  0  0  0  0  0  0  0  0
   38.6372  -31.3100  -15.6654 C   0  0  0  0  0  0  0  0  0  0  0  0
   39.9086  -31.3669  -13.6239 C   0  0  0  0  0  0  0  0  0  0  0  0
   40.1155  -29.3346   -8.5566 C   0  0  0  0  0  0  0  0  0  0  0  0
   39.7499  -27.8934   -8.3523 C   0  0  0  0  0  0  0  0  0  0  0  0
   41.0701  -28.2355   -8.9216 C   0  0  0  0  0  0  0  0  0  0  0  0
 34 31  2  0  0  0
 34 30  1  0  0  0
 31 32  1  0  0  0
 30 35  2  0  0  0
 32 33  2  0  0  0
 35 33  1  0  0  0
 33 25  1  0  0  0
 25 29  1  0  0  0
 25 26  1  0  0  0
 29 27  2  0  0  0
 23 26  1  0  0  0
 23 21  1  0  0  0
  1 21  1  0  0  0
  1  3  1  0  0  0
 26 28  2  0  0  0
  4  3  1  0  0  0
  4  5  2  0  0  0
 21 22  2  0  0  0
  3  2  1  0  0  0
 27 28  1  0  0  0
 27 36  1  0  0  0
  5  6  1  0  0  0
 38 36  1  0  0  0
 38 37  1  0  0  0
 36 37  1  0  0  0
  2  6  2  0  0  0
  6 10  1  0  0  0
 10  9  2  0  0  0
 10  8  1  0  0  0
  9 11  1  0  0  0
 20 19  1  0  0  0
  8  7  2  0  0  0
 11 19  1  0  0  0
 11 12  2  0  0  0
  7 12  1  0  0  0
 12 13  1  0  0  0
 13 15  1  0  0  0
 13 14  1  0  0  0
 15 16  2  0  0  0
 14 18  2  0  0  0
 16 18  1  0  0  0
 16 17  1  0  0  0
 23 24  1  0  0  0
M  END
> <minimizedAffinity>
-12.16645

$$$$
4PMM_31V_A_801


 38 43  0  0  0  0  0  0  0  0999 V2000
   31.8780  -35.8031   -8.1028 C   0  0  0  0  0  0  0  0  0  0  0  0
   33.8590  -34.2884   -8.4435 C   0  0  0  0  0  0  0  0  0  0  0  0
   32.7392  -34.9040   -8.8496 N   0  0  0  0  0  0  0  0  0  0  0  0
   32.4912  -34.6459  -10.1452 N   0  0  0  0  0  0  0  0  0  0  0  0
   33.4637  -33.8719  -10.5730 N   0  0  0  0  0  0  0  0  0  0  0  0
   34.3302  -33.6361   -9.5467 C   0  0  0  0  0  0  0  0  0  0  0  0
   37.4421  -31.7054   -8.7168 C   0  0  0  0  0  0  0  0  0  0  0  0
   36.2594  -32.4065   -8.5863 C   0  0  0  0  0  0  0  0  0  0  0  0
   36.0725  -32.6033  -10.9815 C   0  0  0  0  0  0  0  0  0  0  0  0
   35.5657  -32.8556   -9.7078 C   0  0  0  0  0  0  0  0  0  0  0  0
   37.2588  -31.9049  -11.1285 C   0  0  0  0  0  0  0  0  0  0  0  0
   37.9395  -31.4435   -9.9887 C   0  0  0  0  0  0  0  0  0  0  0  0
   39.1660  -30.6984  -10.1083 N   0  0  0  0  0  0  0  0  0  0  0  0
   40.2592  -31.0482  -10.8365 C   0  0  0  0  0  0  0  0  0  0  0  0
   39.4892  -29.5254   -9.4484 C   0  0  0  0  0  0  0  0  0  0  0  0
   40.7686  -29.2351   -9.8106 C   0  0  0  0  0  0  0  0  0  0  0  0
   41.6309  -28.0871   -9.3913 C   0  0  0  0  0  0  0  0  0  0  0  0
   41.2477  -30.2046  -10.6902 N   0  0  0  0  0  0  0  0  0  0  0  0
   37.8600  -31.6598  -12.3341 O   0  0  0  0  0  0  0  0  0  0  0  0
   37.0368  -31.2519  -13.4317 C   0  0  0  0  0  0  0  0  0  0  0  0
   31.5620  -35.2351   -6.7285 C   0  0  0  0  0  0  0  0  0  0  0  0
   32.4077  -35.1139   -5.8404 O   0  0  0  0  0  0  0  0  0  0  0  0
   30.2372  -35.0084   -6.5070 N   0  0  0  0  0  0  0  0  0  0  0  0
   29.6182  -35.2637   -7.2287 H   0  0  0  0  0  0  0  0  0  0  0  0
   28.8769  -33.3565   -5.4330 N   0  0  0  0  0  0  0  0  0  0  0  0
   29.6762  -34.4590   -5.3773 C   0  0  0  0  0  0  0  0  0  0  0  0
   28.8476  -34.0117   -3.3930 C   0  0  0  0  0  0  0  0  0  0  0  0
   29.6615  -34.9025   -4.0919 C   0  0  0  0  0  0  0  0  0  0  0  0
   28.3531  -33.0643   -4.1844 N   0  0  0  0  0  0  0  0  0  0  0  0
   27.7142  -30.4569   -7.4433 C   0  0  0  0  0  0  0  0  0  0  0  0
   28.0951  -32.3182   -8.9106 C   0  0  0  0  0  0  0  0  0  0  0  0
   28.4944  -33.0963   -7.8354 C   0  0  0  0  0  0  0  0  0  0  0  0
   28.5010  -32.5492   -6.5509 C   0  0  0  0  0  0  0  0  0  0  0  0
   27.7009  -31.0051   -8.7175 C   0  0  0  0  0  0  0  0  0  0  0  0
   28.1180  -31.2200   -6.3580 C   0  0  0  0  0  0  0  0  0  0  0  0
   28.6119  -34.1383   -1.9293 C   0  0  0  0  0  0  0  0  0  0  0  0
   28.4547  -35.4996   -1.3173 C   0  0  0  0  0  0  0  0  0  0  0  0
   27.2841  -34.6017   -1.4050 C   0  0  0  0  0  0  0  0  0  0  0  0
 34 31  2  0  0  0
 34 30  1  0  0  0
 31 32  1  0  0  0
 30 35  2  0  0  0
 32 33  2  0  0  0
 35 33  1  0  0  0
 33 25  1  0  0  0
 25 29  1  0  0  0
 25 26  1  0  0  0
 29 27  2  0  0  0
 23 26  1  0  0  0
 23 21  1  0  0  0
  1 21  1  0  0  0
  1  3  1  0  0  0
 26 28  2  0  0  0
  4  3  1  0  0  0
  4  5  2  0  0  0
 21 22  2  0  0  0
  3  2  1  0  0  0
 27 28  1  0  0  0
 27 36  1  0  0  0
  5  6  1  0  0  0
 38 36  1  0  0  0
 38 37  1  0  0  0
 36 37  1  0  0  0
  2  6  2  0  0  0
  6 10  1  0  0  0
 10  9  2  0  0  0
 10  8  1  0  0  0
  9 11  1  0  0  0
 20 19  1  0  0  0
  8  7  2  0  0  0
 11 19  1  0  0  0
 11 12  2  0  0  0
  7 12  1  0  0  0
 12 13  1  0  0  0
 13 15  1  0  0  0
 13 14  1  0  0  0
 15 16  2  0  0  0
 14 18  2  0  0  0
 16 18  1  0  0  0
 16 17  1  0  0  0
 23 24  1  0  0  0
M  END
> <minimizedAffinity>
-10.58222

$$$$
4PMM_31V_A_801


 38 43  0  0  0  0  0  0  0  0999 V2000
   31.7747  -35.1575   -7.5643 C   0  0  0  0  0  0  0  0  0  0  0  0
   33.7246  -34.2160   -8.8473 C   0  0  0  0  0  0  0  0  0  0  0  0
   33.0770  -34.5342   -7.7173 N   0  0  0  0  0  0  0  0  0  0  0  0
   33.7695  -34.1340   -6.6369 N   0  0  0  0  0  0  0  0  0  0  0  0
   34.8590  -33.5459   -7.0785 N   0  0  0  0  0  0  0  0  0  0  0  0
   34.8597  -33.5743   -8.4419 C   0  0  0  0  0  0  0  0  0  0  0  0
   36.9802  -32.6346  -11.3951 C   0  0  0  0  0  0  0  0  0  0  0  0
   36.0247  -33.2471  -10.6079 C   0  0  0  0  0  0  0  0  0  0  0  0
   36.7643  -32.0007   -8.6817 C   0  0  0  0  0  0  0  0  0  0  0  0
   35.9102  -32.9423   -9.2535 C   0  0  0  0  0  0  0  0  0  0  0  0
   37.7246  -31.3756   -9.4585 C   0  0  0  0  0  0  0  0  0  0  0  0
   37.8396  -31.7050  -10.8201 C   0  0  0  0  0  0  0  0  0  0  0  0
   38.8400  -31.0863  -11.6508 N   0  0  0  0  0  0  0  0  0  0  0  0
   40.1183  -30.7900  -11.2959 C   0  0  0  0  0  0  0  0  0  0  0  0
   38.6675  -30.6119  -12.9395 C   0  0  0  0  0  0  0  0  0  0  0  0
   39.8545  -30.0458  -13.2898 C   0  0  0  0  0  0  0  0  0  0  0  0
   40.2366  -29.3683  -14.5675 C   0  0  0  0  0  0  0  0  0  0  0  0
   40.7673  -30.1639  -12.2430 N   0  0  0  0  0  0  0  0  0  0  0  0
   38.5676  -30.3998   -8.9978 O   0  0  0  0  0  0  0  0  0  0  0  0
   39.3428  -30.6716   -7.8256 C   0  0  0  0  0  0  0  0  0  0  0  0
   30.6618  -34.1328   -7.7138 C   0  0  0  0  0  0  0  0  0  0  0  0
   30.4234  -33.5488   -8.7725 O   0  0  0  0  0  0  0  0  0  0  0  0
   30.0439  -33.8021   -6.5458 N   0  0  0  0  0  0  0  0  0  0  0  0
   30.3940  -34.2208   -5.7264 H   0  0  0  0  0  0  0  0  0  0  0  0
   28.2618  -32.8819   -5.2381 N   0  0  0  0  0  0  0  0  0  0  0  0
   28.9804  -32.9425   -6.3945 C   0  0  0  0  0  0  0  0  0  0  0  0
   27.4924  -31.3303   -6.5000 C   0  0  0  0  0  0  0  0  0  0  0  0
   28.5188  -31.9551   -7.2076 C   0  0  0  0  0  0  0  0  0  0  0  0
   27.3174  -31.8702   -5.2974 N   0  0  0  0  0  0  0  0  0  0  0  0
   27.4142  -34.5487   -2.0280 C   0  0  0  0  0  0  0  0  0  0  0  0
   29.7421  -34.9006   -2.4965 C   0  0  0  0  0  0  0  0  0  0  0  0
   29.6216  -34.1881   -3.6791 C   0  0  0  0  0  0  0  0  0  0  0  0
   28.3850  -33.6485   -4.0381 C   0  0  0  0  0  0  0  0  0  0  0  0
   28.6457  -35.0771   -1.6697 C   0  0  0  0  0  0  0  0  0  0  0  0
   27.2753  -33.8395   -3.2117 C   0  0  0  0  0  0  0  0  0  0  0  0
   26.7015  -30.2105   -7.0784 C   0  0  0  0  0  0  0  0  0  0  0  0
   27.0461  -29.6840   -8.4409 C   0  0  0  0  0  0  0  0  0  0  0  0
   27.3125  -28.8505   -7.2499 C   0  0  0  0  0  0  0  0  0  0  0  0
 34 31  2  0  0  0
 34 30  1  0  0  0
 31 32  1  0  0  0
 30 35  2  0  0  0
 32 33  2  0  0  0
 35 33  1  0  0  0
 33 25  1  0  0  0
 25 29  1  0  0  0
 25 26  1  0  0  0
 29 27  2  0  0  0
 23 26  1  0  0  0
 23 21  1  0  0  0
  1 21  1  0  0  0
  1  3  1  0  0  0
 26 28  2  0  0  0
  4  3  1  0  0  0
  4  5  2  0  0  0
 21 22  2  0  0  0
  3  2  1  0  0  0
 27 28  1  0  0  0
 27 36  1  0  0  0
  5  6  1  0  0  0
 38 36  1  0  0  0
 38 37  1  0  0  0
 36 37  1  0  0  0
  2  6  2  0  0  0
  6 10  1  0  0  0
 10  9  2  0  0  0
 10  8  1  0  0  0
  9 11  1  0  0  0
 20 19  1  0  0  0
  8  7  2  0  0  0
 11 19  1  0  0  0
 11 12  2  0  0  0
  7 12  1  0  0  0
 12 13  1  0  0  0
 13 15  1  0  0  0
 13 14  1  0  0  0
 15 16  2  0  0  0
 14 18  2  0  0  0
 16 18  1  0  0  0
 16 17  1  0  0  0
 23 24  1  0  0  0
M  END
> <minimizedAffinity>
-9.88171

$$$$
4PMM_31V_A_801


 38 43  0  0  0  0  0  0  0  0999 V2000
   31.6749  -35.0726   -8.2497 C   0  0  0  0  0  0  0  0  0  0  0  0
   33.6935  -33.6313   -8.6777 C   0  0  0  0  0  0  0  0  0  0  0  0
   32.8057  -34.5781   -9.0143 N   0  0  0  0  0  0  0  0  0  0  0  0
   33.1150  -35.1272  -10.2016 N   0  0  0  0  0  0  0  0  0  0  0  0
   34.2126  -34.5376  -10.6204 N   0  0  0  0  0  0  0  0  0  0  0  0
   34.6004  -33.6107   -9.6983 C   0  0  0  0  0  0  0  0  0  0  0  0
   37.6132  -31.5555   -8.8039 C   0  0  0  0  0  0  0  0  0  0  0  0
   36.4362  -32.2711   -8.7027 C   0  0  0  0  0  0  0  0  0  0  0  0
   36.4215  -32.6484  -11.0835 C   0  0  0  0  0  0  0  0  0  0  0  0
   35.8307  -32.8170   -9.8322 C   0  0  0  0  0  0  0  0  0  0  0  0
   37.6032  -31.9367  -11.2006 C   0  0  0  0  0  0  0  0  0  0  0  0
   38.1942  -31.3773  -10.0546 C   0  0  0  0  0  0  0  0  0  0  0  0
   39.4132  -30.6162  -10.1453 N   0  0  0  0  0  0  0  0  0  0  0  0
   40.5292  -30.9533  -10.8444 C   0  0  0  0  0  0  0  0  0  0  0  0
   39.7039  -29.4372   -9.4810 C   0  0  0  0  0  0  0  0  0  0  0  0
   40.9881  -29.1307   -9.8114 C   0  0  0  0  0  0  0  0  0  0  0  0
   41.8240  -27.9701   -9.3738 C   0  0  0  0  0  0  0  0  0  0  0  0
   41.5023  -30.0961  -10.6756 N   0  0  0  0  0  0  0  0  0  0  0  0
   38.2834  -31.7682  -12.3770 O   0  0  0  0  0  0  0  0  0  0  0  0
   37.6555  -31.0178  -13.4217 C   0  0  0  0  0  0  0  0  0  0  0  0
   30.5180  -34.0874   -8.2933 C   0  0  0  0  0  0  0  0  0  0  0  0
   30.1260  -33.5564   -9.3340 O   0  0  0  0  0  0  0  0  0  0  0  0
   30.0445  -33.7247   -7.0687 N   0  0  0  0  0  0  0  0  0  0  0  0
   30.5109  -34.0977   -6.2861 H   0  0  0  0  0  0  0  0  0  0  0  0
   28.3940  -32.8246   -5.5859 N   0  0  0  0  0  0  0  0  0  0  0  0
   28.9808  -32.8901   -6.8143 C   0  0  0  0  0  0  0  0  0  0  0  0
   27.4455  -31.3196   -6.7805 C   0  0  0  0  0  0  0  0  0  0  0  0
   28.4038  -31.9318   -7.5876 C   0  0  0  0  0  0  0  0  0  0  0  0
   27.4209  -31.8392   -5.5567 N   0  0  0  0  0  0  0  0  0  0  0  0
   30.1714  -34.9014   -3.0701 C   0  0  0  0  0  0  0  0  0  0  0  0
   27.9455  -34.4637   -2.2851 C   0  0  0  0  0  0  0  0  0  0  0  0
   27.6811  -33.7169   -3.4223 C   0  0  0  0  0  0  0  0  0  0  0  0
   28.6717  -33.5631   -4.3941 C   0  0  0  0  0  0  0  0  0  0  0  0
   29.1830  -35.0593   -2.1098 C   0  0  0  0  0  0  0  0  0  0  0  0
   29.9252  -34.1510   -4.2102 C   0  0  0  0  0  0  0  0  0  0  0  0
   26.5640  -30.2328   -7.2861 C   0  0  0  0  0  0  0  0  0  0  0  0
   26.9050  -29.5372   -8.5715 C   0  0  0  0  0  0  0  0  0  0  0  0
   27.0334  -28.8072   -7.2929 C   0  0  0  0  0  0  0  0  0  0  0  0
 34 31  2  0  0  0
 34 30  1  0  0  0
 31 32  1  0  0  0
 30 35  2  0  0  0
 32 33  2  0  0  0
 35 33  1  0  0  0
 33 25  1  0  0  0
 25 29  1  0  0  0
 25 26  1  0  0  0
 29 27  2  0  0  0
 23 26  1  0  0  0
 23 21  1  0  0  0
  1 21  1  0  0  0
  1  3  1  0  0  0
 26 28  2  0  0  0
  4  3  1  0  0  0
  4  5  2  0  0  0
 21 22  2  0  0  0
  3  2  1  0  0  0
 27 28  1  0  0  0
 27 36  1  0  0  0
  5  6  1  0  0  0
 38 36  1  0  0  0
 38 37  1  0  0  0
 36 37  1  0  0  0
  2  6  2  0  0  0
  6 10  1  0  0  0
 10  9  2  0  0  0
 10  8  1  0  0  0
  9 11  1  0  0  0
 20 19  1  0  0  0
  8  7  2  0  0  0
 11 19  1  0  0  0
 11 12  2  0  0  0
  7 12  1  0  0  0
 12 13  1  0  0  0
 13 15  1  0  0  0
 13 14  1  0  0  0
 15 16  2  0  0  0
 14 18  2  0  0  0
 16 18  1  0  0  0
 16 17  1  0  0  0
 23 24  1  0  0  0
M  END
> <minimizedAffinity>
-9.70138

$$$$
4PMM_31V_A_801


 38 43  0  0  0  0  0  0  0  0999 V2000
   40.8041  -27.5296  -16.5787 C   0  0  0  0  0  0  0  0  0  0  0  0
   38.4454  -28.3328  -16.9343 C   0  0  0  0  0  0  0  0  0  0  0  0
   39.4618  -27.4803  -17.1296 N   0  0  0  0  0  0  0  0  0  0  0  0
   39.0809  -26.4459  -17.8989 N   0  0  0  0  0  0  0  0  0  0  0  0
   37.8117  -26.6312  -18.1864 N   0  0  0  0  0  0  0  0  0  0  0  0
   37.3859  -27.7866  -17.6003 C   0  0  0  0  0  0  0  0  0  0  0  0
   34.2846  -29.5280  -18.8045 C   0  0  0  0  0  0  0  0  0  0  0  0
   35.5780  -29.0482  -18.7388 C   0  0  0  0  0  0  0  0  0  0  0  0
   35.0973  -27.9416  -16.6519 C   0  0  0  0  0  0  0  0  0  0  0  0
   35.9935  -28.2531  -17.6730 C   0  0  0  0  0  0  0  0  0  0  0  0
   33.7985  -28.4181  -16.7017 C   0  0  0  0  0  0  0  0  0  0  0  0
   33.3884  -29.2055  -17.7914 C   0  0  0  0  0  0  0  0  0  0  0  0
   32.0394  -29.7012  -17.8821 N   0  0  0  0  0  0  0  0  0  0  0  0
   31.5821  -30.8958  -17.4219 C   0  0  0  0  0  0  0  0  0  0  0  0
   30.9735  -29.0881  -18.5174 C   0  0  0  0  0  0  0  0  0  0  0  0
   29.9290  -29.9542  -18.4119 C   0  0  0  0  0  0  0  0  0  0  0  0
   28.5315  -29.8148  -18.9265 C   0  0  0  0  0  0  0  0  0  0  0  0
   30.3237  -31.0958  -17.7161 N   0  0  0  0  0  0  0  0  0  0  0  0
   32.8674  -28.2110  -15.7192 O   0  0  0  0  0  0  0  0  0  0  0  0
   32.5019  -26.8632  -15.4049 C   0  0  0  0  0  0  0  0  0  0  0  0
   40.8995  -28.5698  -15.4742 C   0  0  0  0  0  0  0  0  0  0  0  0
   41.7336  -29.4769  -15.4752 O   0  0  0  0  0  0  0  0  0  0  0  0
   39.8939  -28.5075  -14.5575 N   0  0  0  0  0  0  0  0  0  0  0  0
   39.1940  -27.8331  -14.7142 H   0  0  0  0  0  0  0  0  0  0  0  0
   39.0077  -30.4295  -13.4381 N   0  0  0  0  0  0  0  0  0  0  0  0
   39.7568  -29.2910  -13.4350 C   0  0  0  0  0  0  0  0  0  0  0  0
   39.9399  -30.3346  -11.5110 C   0  0  0  0  0  0  0  0  0  0  0  0
   40.3713  -29.2166  -12.2242 C   0  0  0  0  0  0  0  0  0  0  0  0
   39.1138  -31.0923  -12.2263 N   0  0  0  0  0  0  0  0  0  0  0  0
   38.0672  -32.2011  -16.5651 C   0  0  0  0  0  0  0  0  0  0  0  0
   36.0722  -31.4143  -15.4865 C   0  0  0  0  0  0  0  0  0  0  0  0
   36.8287  -30.8815  -14.4548 C   0  0  0  0  0  0  0  0  0  0  0  0
   38.2189  -31.0080  -14.4802 C   0  0  0  0  0  0  0  0  0  0  0  0
   36.6868  -32.0672  -16.5415 C   0  0  0  0  0  0  0  0  0  0  0  0
   38.8380  -31.6800  -15.5366 C   0  0  0  0  0  0  0  0  0  0  0  0
   40.3662  -30.5902  -10.1085 C   0  0  0  0  0  0  0  0  0  0  0  0
   39.3688  -30.4633   -8.9942 C   0  0  0  0  0  0  0  0  0  0  0  0
   40.4526  -29.4661   -9.1178 C   0  0  0  0  0  0  0  0  0  0  0  0
 34 31  2  0  0  0
 34 30  1  0  0  0
 31 32  1  0  0  0
 30 35  2  0  0  0
 32 33  2  0  0  0
 35 33  1  0  0  0
 33 25  1  0  0  0
 25 29  1  0  0  0
 25 26  1  0  0  0
 29 27  2  0  0  0
 23 26  1  0  0  0
 23 21  1  0  0  0
  1 21  1  0  0  0
  1  3  1  0  0  0
 26 28  2  0  0  0
  4  3  1  0  0  0
  4  5  2  0  0  0
 21 22  2  0  0  0
  3  2  1  0  0  0
 27 28  1  0  0  0
 27 36  1  0  0  0
  5  6  1  0  0  0
 38 36  1  0  0  0
 38 37  1  0  0  0
 36 37  1  0  0  0
  2  6  2  0  0  0
  6 10  1  0  0  0
 10  9  2  0  0  0
 10  8  1  0  0  0
  9 11  1  0  0  0
 20 19  1  0  0  0
  8  7  2  0  0  0
 11 19  1  0  0  0
 11 12  2  0  0  0
  7 12  1  0  0  0
 12 13  1  0  0  0
 13 15  1  0  0  0
 13 14  1  0  0  0
 15 16  2  0  0  0
 14 18  2  0  0  0
 16 18  1  0  0  0
 16 17  1  0  0  0
 23 24  1  0  0  0
M  END
> <minimizedAffinity>
-9.18331

$$$$
