4OAG_ADP_A_501
  RCSB PDB12061714013D
Coordinates from PDB:4OAG:A:501 Model:1 without hydrogens
 27 29  0  0  0  0            999 V2000
   77.4250  -11.3180    4.4600   P 0  0  0  0  0  0  0  0  0  0  0  0
   78.3880  -10.9800    3.3350   O 0  0  0  0  0  0  0  0  0  0  0  0
   76.4510  -10.2010    4.8040   O 0  0  0  0  0  0  0  0  0  0  0  0
   76.7860  -12.6720    4.3610   O 0  0  0  0  0  0  0  0  0  0  0  0
   78.2520  -12.3450    7.0080   P 0  0  0  0  0  0  0  0  0  0  0  0
   79.0440  -11.7100    8.1310   O 0  0  0  0  0  0  0  0  0  0  0  0
   76.8040  -12.7310    7.1880   O 0  0  0  0  0  0  0  0  0  0  0  0
   78.4010  -11.3640    5.7390   O 0  0  0  0  0  0  0  0  0  0  0  0
   79.0680  -13.5930    6.4310   O 0  0  0  0  0  0  0  0  0  0  0  0
   78.3970  -14.7810    6.0500   C 0  0  0  0  0  0  0  0  0  0  0  0
   79.3110  -15.9270    6.4360   C 0  0  0  0  0  0  0  0  0  0  0  0
   79.3830  -15.9870    7.8620   O 0  0  0  0  0  0  0  0  0  0  0  0
   78.8080  -17.2800    5.9580   C 0  0  0  0  0  0  0  0  0  0  0  0
   79.9030  -17.9980    5.3610   O 0  0  0  0  0  0  0  0  0  0  0  0
   78.3280  -17.9780    7.2180   C 0  0  0  0  0  0  0  0  0  0  0  0
   78.5450  -19.3900    7.1630   O 0  0  0  0  0  0  0  0  0  0  0  0
   79.2200  -17.3430    8.2720   C 0  0  0  0  0  0  0  0  0  0  0  0
   78.7530  -17.3270    9.6760   N 0  0  0  0  0  0  0  0  0  0  0  0
   77.6270  -16.8020   10.2050   C 0  0  0  0  0  0  0  0  0  0  0  0
   77.6250  -16.9720   11.5570   N 0  0  0  0  0  0  0  0  0  0  0  0
   78.7750  -17.5970   11.8860   C 0  0  0  0  0  0  0  0  0  0  0  0
   79.4170  -18.0760   13.1230   C 0  0  0  0  0  0  0  0  0  0  0  0
   78.8120  -17.9210   14.3220   N 0  0  0  0  0  0  0  0  0  0  0  0
   80.6180  -18.6740   13.0100   N 0  0  0  0  0  0  0  0  0  0  0  0
   81.2420  -18.8320   11.8180   C 0  0  0  0  0  0  0  0  0  0  0  0
   80.7120  -18.4310   10.6550   N 0  0  0  0  0  0  0  0  0  0  0  0
   79.5060  -17.8200   10.6430   C 0  0  0  0  0  0  0  0  0  0  0  0
  1  2  2  0  0  0  0
  1  3  1  0  0  0  0
  1  4  1  0  0  0  0
  1  8  1  0  0  0  0
  5  6  2  0  0  0  0
  5  7  1  0  0  0  0
  5  8  1  0  0  0  0
  5  9  1  0  0  0  0
  9 10  1  0  0  0  0
 10 11  1  0  0  0  0
 11 12  1  0  0  0  0
 11 13  1  0  0  0  0
 12 17  1  0  0  0  0
 13 14  1  0  0  0  0
 13 15  1  0  0  0  0
 15 16  1  0  0  0  0
 15 17  1  0  0  0  0
 17 18  1  0  0  0  0
 18 19  1  0  0  0  0
 18 27  1  0  0  0  0
 19 20  2  0  0  0  0
 20 21  1  0  0  0  0
 21 22  1  0  0  0  0
 21 27  2  0  0  0  0
 22 23  1  0  0  0  0
 22 24  2  0  0  0  0
 24 25  1  0  0  0  0
 25 26  2  0  0  0  0
 26 27  1  0  0  0  0
A    1
PB
A    2
O1B
A    3
O2B
A    4
O3B
A    5
PA
A    6
O1A
A    7
O2A
A    8
O3A
A    9
O5'
A   10
C5'
A   11
C4'
A   12
O4'
A   13
C3'
A   14
O3'
A   15
C2'
A   16
O2'
A   17
C1'
A   18
N9
A   19
C8
A   20
N7
A   21
C5
A   22
C6
A   23
N6
A   24
N1
A   25
C2
A   26
N3
A   27
C4
M  END
>  <InstanceId>
4OAG_ADP_A_501

>  <ChemCompId>
ADP

>  <PdbId>
4OAG

>  <ChainId>
A

>  <ResidueNumber>
501

>  <InsertionCode>


>  <Model>
1

>  <AltIds>


>  <MissingHeavyAtoms>
0

>  <ObservedFormula>
C10 N5 O10 P2

>  <Name>
ADENOSINE-5'-DIPHOSPHATE

>  <SystematicName>
[(2R,3S,4R,5R)-5-(6-aminopurin-9-yl)-3,4-dihydroxy-oxolan-2-yl]methyl phosphono hydrogen phosphate

>  <Synonyms>


>  <Type>
NON-POLYMER

>  <Formula>
C10 H15 N5 O10 P2

>  <MolecularWeight>
427.201

>  <ModifiedDate>
2011-06-04

>  <Parent>
A

>  <OneLetterCode>


>  <SubcomponentList>


>  <AmbiguousFlag>
N

>  <InChI>
InChI=1S/C10H15N5O10P2/c11-8-5-9(13-2-12-8)15(3-14-5)10-7(17)6(16)4(24-10)1-23-27(21,22)25-26(18,19)20/h2-4,6-7,10,16-17H,1H2,(H,21,22)(H2,11,12,13)(H2,18,19,20)/t4-,6-,7-,10-/m1/s1

>  <InChIKey>
XTWYTFMLZFPYCI-KQYNXXCUSA-N

>  <SMILES>
c1nc(c2c(n1)n(cn2)[C@H]3[C@@H]([C@@H]([C@H](O3)CO[P@](=O)(O)OP(=O)(O)O)O)O)N

$$$$
