2E7F_C2F_A_3000


 41 43  0  0  0  0  0  0  0  0999 V2000
   -8.8727   68.6338  116.3501 C   0  0  0  0  0  0  0  0  0  0  0  0
   -9.3766   67.9638  117.5041 C   0  0  0  0  0  0  0  0  0  0  0  0
   -9.5057   68.6535  118.7272 C   0  0  0  0  0  0  0  0  0  0  0  0
   -9.1324   70.0169  118.8119 C   0  0  0  0  0  0  0  0  0  0  0  0
   -8.6235   70.6918  117.6423 C   0  0  0  0  0  0  0  0  0  0  0  0
   -8.4966   70.0031  116.4231 C   0  0  0  0  0  0  0  0  0  0  0  0
   -8.7393   67.8832  115.0619 C   0  0  0  0  0  0  0  0  0  0  0  0
   -9.0028   68.4542  114.0145 O   0  0  0  0  0  0  0  0  0  0  0  0
   -8.3258   66.6039  115.1379 N   0  0  0  0  0  0  0  0  0  0  0  0
   -8.1481   66.2702  116.0469 H   0  0  0  0  0  0  0  0  0  0  0  0
   -8.1030   65.6387  114.0587 C   0  0  0  0  0  0  0  0  0  0  0  0
   -9.3857   64.8945  113.7590 C   0  0  0  0  0  0  0  0  0  0  0  0
  -10.3497   64.9984  114.5470 O   0  0  0  0  0  0  0  0  0  0  0  0
   -9.4481   64.2046  112.7278 O   0  0  0  0  0  0  0  0  0  0  0  0
   -8.7073   64.1471  112.1570 H   0  0  0  0  0  0  0  0  0  0  0  0
   -7.0405   64.6419  114.5458 C   0  0  0  0  0  0  0  0  0  0  0  0
   -5.9939   64.4791  113.4393 C   0  0  0  0  0  0  0  0  0  0  0  0
   -4.9634   65.6093  113.4411 C   0  0  0  0  0  0  0  0  0  0  0  0
   -4.1555   65.6023  114.4131 O   0  0  0  0  0  0  0  0  0  0  0  0
   -4.9321   66.4914  112.5464 O   0  0  0  0  0  0  0  0  0  0  0  0
   -5.5474   66.4645  111.8403 H   0  0  0  0  0  0  0  0  0  0  0  0
   -9.2790   70.6343  120.0216 N   0  0  0  0  0  0  0  0  0  0  0  0
   -8.9638   70.1583  120.8237 H   0  0  0  0  0  0  0  0  0  0  0  0
   -9.8713   71.9499  120.1989 C   0  0  0  0  0  0  0  0  0  0  0  0
  -11.8751   76.0199  120.8945 N   0  0  0  0  0  0  0  0  0  0  0  0
  -11.1054   77.1120  120.6084 C   0  0  0  0  0  0  0  0  0  0  0  0
  -11.3036   78.2506  121.3267 N   0  0  0  0  0  0  0  0  0  0  0  0
  -10.1456   77.0831  119.6240 N   0  0  0  0  0  0  0  0  0  0  0  0
   -9.8937   75.9768  118.8667 C   0  0  0  0  0  0  0  0  0  0  0  0
   -9.0132   75.9898  117.9834 O   0  0  0  0  0  0  0  0  0  0  0  0
  -10.6946   74.7390  119.1161 C   0  0  0  0  0  0  0  0  0  0  0  0
  -10.4969   73.5143  118.3641 N   0  0  0  0  0  0  0  0  0  0  0  0
  -10.9455   72.2939  119.1275 C   0  0  0  0  0  0  0  0  0  0  0  0
  -12.3536   72.4800  119.8062 C   0  0  0  0  0  0  0  0  0  0  0  0
  -12.4965   73.7603  120.5130 N   0  0  0  0  0  0  0  0  0  0  0  0
  -11.7304   74.8452  120.2163 C   0  0  0  0  0  0  0  0  0  0  0  0
  -11.2006   73.6092  117.0612 C   0  0  0  0  0  0  0  0  0  0  0  0
  -11.9899   78.2744  122.0321 H   0  0  0  0  0  0  0  0  0  0  0  0
  -10.7606   79.0505  121.1410 H   0  0  0  0  0  0  0  0  0  0  0  0
   -9.6168   77.8969  119.4585 H   0  0  0  0  0  0  0  0  0  0  0  0
  -13.1704   73.8360  121.2266 H   0  0  0  0  0  0  0  0  0  0  0  0
 25 26  2  0  0  0
 25 36  1  0  0  0
 26 27  1  0  0  0
 26 28  1  0  0  0
 28 29  1  0  0  0
 29 30  2  0  0  0
 29 31  1  0  0  0
 31 32  1  0  0  0
 31 36  2  0  0  0
 32 33  1  0  0  0
 32 37  1  0  0  0
 33 34  1  0  0  0
 33 24  1  0  0  0
 34 35  1  0  0  0
 35 36  1  0  0  0
 24 22  1  0  0  0
 22  4  1  0  0  0
  1  2  2  0  0  0
  1  6  1  0  0  0
  1  7  1  0  0  0
  2  3  1  0  0  0
  3  4  2  0  0  0
  4  5  1  0  0  0
  5  6  2  0  0  0
  7  8  2  0  0  0
  7  9  1  0  0  0
  9 11  1  0  0  0
 11 16  1  0  0  0
 11 12  1  0  0  0
 16 17  1  0  0  0
 17 18  1  0  0  0
 18 19  2  0  0  0
 18 20  1  0  0  0
 12 13  2  0  0  0
 12 14  1  0  0  0
 27 38  1  0  0  0
 27 39  1  0  0  0
 28 40  1  0  0  0
 35 41  1  0  0  0
 22 23  1  0  0  0
  9 10  1  0  0  0
 20 21  1  0  0  0
 14 15  1  0  0  0
M  END
> <minimizedAffinity>
-8.85135

$$$$
2E7F_C2F_A_3000


 41 43  0  0  0  0  0  0  0  0999 V2000
   -8.9641   67.8703  115.3914 C   0  0  0  0  0  0  0  0  0  0  0  0
   -9.1437   67.4911  116.7547 C   0  0  0  0  0  0  0  0  0  0  0  0
   -9.2605   68.4758  117.7573 C   0  0  0  0  0  0  0  0  0  0  0  0
   -9.1980   69.8474  117.4106 C   0  0  0  0  0  0  0  0  0  0  0  0
   -9.0167   70.2274  116.0304 C   0  0  0  0  0  0  0  0  0  0  0  0
   -8.9017   69.2444  115.0316 C   0  0  0  0  0  0  0  0  0  0  0  0
   -8.8382   66.8100  114.3423 C   0  0  0  0  0  0  0  0  0  0  0  0
   -9.4906   66.9141  113.3147 O   0  0  0  0  0  0  0  0  0  0  0  0
   -7.9955   65.7913  114.5985 N   0  0  0  0  0  0  0  0  0  0  0  0
   -7.5327   65.8334  115.4664 H   0  0  0  0  0  0  0  0  0  0  0  0
   -7.6703   64.6294  113.7677 C   0  0  0  0  0  0  0  0  0  0  0  0
   -8.7156   63.5519  113.9556 C   0  0  0  0  0  0  0  0  0  0  0  0
   -8.3489   62.3751  114.1596 O   0  0  0  0  0  0  0  0  0  0  0  0
   -9.9155   63.8705  113.9107 O   0  0  0  0  0  0  0  0  0  0  0  0
  -10.1580   64.7622  113.7558 H   0  0  0  0  0  0  0  0  0  0  0  0
   -6.3059   64.0990  114.2335 C   0  0  0  0  0  0  0  0  0  0  0  0
   -5.3097   65.2624  114.2191 C   0  0  0  0  0  0  0  0  0  0  0  0
   -4.7851   65.5629  112.8143 C   0  0  0  0  0  0  0  0  0  0  0  0
   -4.4187   64.5539  112.1471 O   0  0  0  0  0  0  0  0  0  0  0  0
   -4.7098   66.7328  112.3611 O   0  0  0  0  0  0  0  0  0  0  0  0
   -4.9911   67.4570  112.8849 H   0  0  0  0  0  0  0  0  0  0  0  0
   -9.3171   70.7571  118.4227 N   0  0  0  0  0  0  0  0  0  0  0  0
   -9.4652   70.4162  119.3343 H   0  0  0  0  0  0  0  0  0  0  0  0
   -9.2389   72.1968  118.2381 C   0  0  0  0  0  0  0  0  0  0  0  0
   -9.4249   75.9346  120.8948 N   0  0  0  0  0  0  0  0  0  0  0  0
   -8.7641   77.0308  120.4166 C   0  0  0  0  0  0  0  0  0  0  0  0
   -8.2224   77.9021  121.3104 N   0  0  0  0  0  0  0  0  0  0  0  0
   -8.6350   77.2666  119.0679 N   0  0  0  0  0  0  0  0  0  0  0  0
   -9.1521   76.4358  118.1175 C   0  0  0  0  0  0  0  0  0  0  0  0
   -9.0129   76.6837  116.9031 O   0  0  0  0  0  0  0  0  0  0  0  0
   -9.8919   75.2136  118.5585 C   0  0  0  0  0  0  0  0  0  0  0  0
  -10.4738   74.2706  117.6221 N   0  0  0  0  0  0  0  0  0  0  0  0
  -10.6296   72.8939  118.2168 C   0  0  0  0  0  0  0  0  0  0  0  0
  -11.2501   72.9188  119.6632 C   0  0  0  0  0  0  0  0  0  0  0  0
  -10.6411   73.9262  120.5427 N   0  0  0  0  0  0  0  0  0  0  0  0
   -9.9912   75.0188  120.0574 C   0  0  0  0  0  0  0  0  0  0  0  0
  -11.7785   74.7869  117.1394 C   0  0  0  0  0  0  0  0  0  0  0  0
   -8.3130   77.7360  122.2766 H   0  0  0  0  0  0  0  0  0  0  0  0
   -7.7398   78.6985  120.9910 H   0  0  0  0  0  0  0  0  0  0  0  0
   -8.1480   78.0706  118.7754 H   0  0  0  0  0  0  0  0  0  0  0  0
  -10.7056   73.8064  121.5177 H   0  0  0  0  0  0  0  0  0  0  0  0
 25 26  2  0  0  0
 25 36  1  0  0  0
 26 27  1  0  0  0
 26 28  1  0  0  0
 28 29  1  0  0  0
 29 30  2  0  0  0
 29 31  1  0  0  0
 31 32  1  0  0  0
 31 36  2  0  0  0
 32 33  1  0  0  0
 32 37  1  0  0  0
 33 34  1  0  0  0
 33 24  1  0  0  0
 34 35  1  0  0  0
 35 36  1  0  0  0
 24 22  1  0  0  0
 22  4  1  0  0  0
  1  2  2  0  0  0
  1  6  1  0  0  0
  1  7  1  0  0  0
  2  3  1  0  0  0
  3  4  2  0  0  0
  4  5  1  0  0  0
  5  6  2  0  0  0
  7  8  2  0  0  0
  7  9  1  0  0  0
  9 11  1  0  0  0
 11 16  1  0  0  0
 11 12  1  0  0  0
 16 17  1  0  0  0
 17 18  1  0  0  0
 18 19  2  0  0  0
 18 20  1  0  0  0
 12 13  2  0  0  0
 12 14  1  0  0  0
 27 38  1  0  0  0
 27 39  1  0  0  0
 28 40  1  0  0  0
 35 41  1  0  0  0
 22 23  1  0  0  0
  9 10  1  0  0  0
 20 21  1  0  0  0
 14 15  1  0  0  0
M  END
> <minimizedAffinity>
-8.80327

$$$$
2E7F_C2F_A_3000


 41 43  0  0  0  0  0  0  0  0999 V2000
  -11.8653   73.8766  118.3488 C   0  0  0  0  0  0  0  0  0  0  0  0
  -12.7935   73.8738  117.2658 C   0  0  0  0  0  0  0  0  0  0  0  0
  -13.9465   73.0636  117.3195 C   0  0  0  0  0  0  0  0  0  0  0  0
  -14.1841   72.2478  118.4523 C   0  0  0  0  0  0  0  0  0  0  0  0
  -13.2432   72.2535  119.5463 C   0  0  0  0  0  0  0  0  0  0  0  0
  -12.0948   73.0629  119.4920 C   0  0  0  0  0  0  0  0  0  0  0  0
  -10.6454   74.7405  118.2712 C   0  0  0  0  0  0  0  0  0  0  0  0
   -9.6576   74.3185  117.6893 O   0  0  0  0  0  0  0  0  0  0  0  0
  -10.7146   75.9526  118.8540 N   0  0  0  0  0  0  0  0  0  0  0  0
  -11.5724   76.1648  119.2880 H   0  0  0  0  0  0  0  0  0  0  0  0
   -9.6933   76.9998  118.9332 C   0  0  0  0  0  0  0  0  0  0  0  0
   -8.6227   76.6026  119.9256 C   0  0  0  0  0  0  0  0  0  0  0  0
   -7.4249   76.6207  119.5708 O   0  0  0  0  0  0  0  0  0  0  0  0
   -8.9655   76.2764  121.0743 O   0  0  0  0  0  0  0  0  0  0  0  0
   -9.8725   76.2729  121.3093 H   0  0  0  0  0  0  0  0  0  0  0  0
  -10.3862   78.2813  119.4208 C   0  0  0  0  0  0  0  0  0  0  0  0
  -11.8392   77.9389  119.7640 C   0  0  0  0  0  0  0  0  0  0  0  0
  -12.0215   77.5864  121.2410 C   0  0  0  0  0  0  0  0  0  0  0  0
  -12.0123   76.3508  121.5067 O   0  0  0  0  0  0  0  0  0  0  0  0
  -12.1841   78.4638  122.1261 O   0  0  0  0  0  0  0  0  0  0  0  0
  -12.1852   79.3711  121.8918 H   0  0  0  0  0  0  0  0  0  0  0  0
  -15.3167   71.4840  118.4497 N   0  0  0  0  0  0  0  0  0  0  0  0
  -15.6387   71.1392  117.5856 H   0  0  0  0  0  0  0  0  0  0  0  0
  -16.0763   71.1484  119.6428 C   0  0  0  0  0  0  0  0  0  0  0  0
  -16.0037   74.6748  122.5793 N   0  0  0  0  0  0  0  0  0  0  0  0
  -15.3227   75.7808  122.1551 C   0  0  0  0  0  0  0  0  0  0  0  0
  -14.7099   76.5612  123.0861 N   0  0  0  0  0  0  0  0  0  0  0  0
  -15.2433   76.1151  120.8235 N   0  0  0  0  0  0  0  0  0  0  0  0
  -15.8325   75.3785  119.8380 C   0  0  0  0  0  0  0  0  0  0  0  0
  -15.7366   75.7142  118.6406 O   0  0  0  0  0  0  0  0  0  0  0  0
  -16.5987   74.1525  120.2193 C   0  0  0  0  0  0  0  0  0  0  0  0
  -17.2564   73.3054  119.2424 N   0  0  0  0  0  0  0  0  0  0  0  0
  -17.4388   71.8933  119.7382 C   0  0  0  0  0  0  0  0  0  0  0  0
  -17.9948   71.8283  121.2094 C   0  0  0  0  0  0  0  0  0  0  0  0
  -17.3102   72.7431  122.1332 N   0  0  0  0  0  0  0  0  0  0  0  0
  -16.6405   73.8465  121.7023 C   0  0  0  0  0  0  0  0  0  0  0  0
  -18.5600   73.9025  118.8606 C   0  0  0  0  0  0  0  0  0  0  0  0
  -14.7649   76.3246  124.0402 H   0  0  0  0  0  0  0  0  0  0  0  0
  -14.2114   77.3626  122.8057 H   0  0  0  0  0  0  0  0  0  0  0  0
  -14.7389   76.9218  120.5703 H   0  0  0  0  0  0  0  0  0  0  0  0
  -17.3369   72.5509  123.0984 H   0  0  0  0  0  0  0  0  0  0  0  0
 25 26  2  0  0  0
 25 36  1  0  0  0
 26 27  1  0  0  0
 26 28  1  0  0  0
 28 29  1  0  0  0
 29 30  2  0  0  0
 29 31  1  0  0  0
 31 32  1  0  0  0
 31 36  2  0  0  0
 32 33  1  0  0  0
 32 37  1  0  0  0
 33 34  1  0  0  0
 33 24  1  0  0  0
 34 35  1  0  0  0
 35 36  1  0  0  0
 24 22  1  0  0  0
 22  4  1  0  0  0
  1  2  2  0  0  0
  1  6  1  0  0  0
  1  7  1  0  0  0
  2  3  1  0  0  0
  3  4  2  0  0  0
  4  5  1  0  0  0
  5  6  2  0  0  0
  7  8  2  0  0  0
  7  9  1  0  0  0
  9 11  1  0  0  0
 11 16  1  0  0  0
 11 12  1  0  0  0
 16 17  1  0  0  0
 17 18  1  0  0  0
 18 19  2  0  0  0
 18 20  1  0  0  0
 12 13  2  0  0  0
 12 14  1  0  0  0
 27 38  1  0  0  0
 27 39  1  0  0  0
 28 40  1  0  0  0
 35 41  1  0  0  0
 22 23  1  0  0  0
  9 10  1  0  0  0
 20 21  1  0  0  0
 14 15  1  0  0  0
M  END
> <minimizedAffinity>
-8.21530

$$$$
2E7F_C2F_A_3000


 41 43  0  0  0  0  0  0  0  0999 V2000
   -9.1680   69.1099  117.3148 C   0  0  0  0  0  0  0  0  0  0  0  0
   -9.1040   70.4054  116.7212 C   0  0  0  0  0  0  0  0  0  0  0  0
   -9.0805   71.5588  117.5322 C   0  0  0  0  0  0  0  0  0  0  0  0
   -9.1221   71.4318  118.9420 C   0  0  0  0  0  0  0  0  0  0  0  0
   -9.1863   70.1197  119.5390 C   0  0  0  0  0  0  0  0  0  0  0  0
   -9.2083   68.9704  118.7292 C   0  0  0  0  0  0  0  0  0  0  0  0
   -9.1961   67.8979  116.4368 C   0  0  0  0  0  0  0  0  0  0  0  0
   -9.8238   66.9161  116.8035 O   0  0  0  0  0  0  0  0  0  0  0  0
   -8.5195   67.9672  115.2745 N   0  0  0  0  0  0  0  0  0  0  0  0
   -8.0576   68.8198  115.1043 H   0  0  0  0  0  0  0  0  0  0  0  0
   -8.3740   66.9528  114.2277 C   0  0  0  0  0  0  0  0  0  0  0  0
   -9.7378   66.4981  113.7566 C   0  0  0  0  0  0  0  0  0  0  0  0
  -10.2197   66.9924  112.7152 O   0  0  0  0  0  0  0  0  0  0  0  0
  -10.3397   65.6348  114.4167 O   0  0  0  0  0  0  0  0  0  0  0  0
   -9.9510   65.2836  115.1936 H   0  0  0  0  0  0  0  0  0  0  0  0
   -7.6269   65.7604  114.8441 C   0  0  0  0  0  0  0  0  0  0  0  0
   -6.8582   65.0479  113.7272 C   0  0  0  0  0  0  0  0  0  0  0  0
   -5.3950   65.4871  113.6548 C   0  0  0  0  0  0  0  0  0  0  0  0
   -4.6095   64.8804  114.4373 O   0  0  0  0  0  0  0  0  0  0  0  0
   -5.0044   66.3979  112.8818 O   0  0  0  0  0  0  0  0  0  0  0  0
   -5.6158   66.8258  112.3152 H   0  0  0  0  0  0  0  0  0  0  0  0
   -9.0966   72.5827  119.6772 N   0  0  0  0  0  0  0  0  0  0  0  0
   -9.3898   72.5371  120.6160 H   0  0  0  0  0  0  0  0  0  0  0  0
   -8.6638   73.8707  119.1606 C   0  0  0  0  0  0  0  0  0  0  0  0
   -9.0750   77.5400  116.4347 N   0  0  0  0  0  0  0  0  0  0  0  0
  -10.0278   77.4459  115.4599 C   0  0  0  0  0  0  0  0  0  0  0  0
   -9.8227   78.1051  114.2873 N   0  0  0  0  0  0  0  0  0  0  0  0
  -11.1736   76.7062  115.6369 N   0  0  0  0  0  0  0  0  0  0  0  0
  -11.4432   76.0208  116.7851 C   0  0  0  0  0  0  0  0  0  0  0  0
  -12.4938   75.3597  116.9069 O   0  0  0  0  0  0  0  0  0  0  0  0
  -10.4508   76.0736  117.9021 C   0  0  0  0  0  0  0  0  0  0  0  0
  -10.6488   75.3757  119.1585 N   0  0  0  0  0  0  0  0  0  0  0  0
   -9.3481   75.0796  119.8611 C   0  0  0  0  0  0  0  0  0  0  0  0
   -8.3739   76.3157  119.8920 C   0  0  0  0  0  0  0  0  0  0  0  0
   -8.2556   76.9984  118.5963 N   0  0  0  0  0  0  0  0  0  0  0  0
   -9.2132   76.9050  117.6340 C   0  0  0  0  0  0  0  0  0  0  0  0
  -11.5516   76.1658  120.0317 C   0  0  0  0  0  0  0  0  0  0  0  0
   -9.0035   78.6355  114.1576 H   0  0  0  0  0  0  0  0  0  0  0  0
  -10.4935   78.0516  113.5687 H   0  0  0  0  0  0  0  0  0  0  0  0
  -11.8281   76.6698  114.9024 H   0  0  0  0  0  0  0  0  0  0  0  0
   -7.4550   77.5428  118.4179 H   0  0  0  0  0  0  0  0  0  0  0  0
 25 26  2  0  0  0
 25 36  1  0  0  0
 26 27  1  0  0  0
 26 28  1  0  0  0
 28 29  1  0  0  0
 29 30  2  0  0  0
 29 31  1  0  0  0
 31 32  1  0  0  0
 31 36  2  0  0  0
 32 33  1  0  0  0
 32 37  1  0  0  0
 33 34  1  0  0  0
 33 24  1  0  0  0
 34 35  1  0  0  0
 35 36  1  0  0  0
 24 22  1  0  0  0
 22  4  1  0  0  0
  1  2  2  0  0  0
  1  6  1  0  0  0
  1  7  1  0  0  0
  2  3  1  0  0  0
  3  4  2  0  0  0
  4  5  1  0  0  0
  5  6  2  0  0  0
  7  8  2  0  0  0
  7  9  1  0  0  0
  9 11  1  0  0  0
 11 16  1  0  0  0
 11 12  1  0  0  0
 16 17  1  0  0  0
 17 18  1  0  0  0
 18 19  2  0  0  0
 18 20  1  0  0  0
 12 13  2  0  0  0
 12 14  1  0  0  0
 27 38  1  0  0  0
 27 39  1  0  0  0
 28 40  1  0  0  0
 35 41  1  0  0  0
 22 23  1  0  0  0
  9 10  1  0  0  0
 20 21  1  0  0  0
 14 15  1  0  0  0
M  END
> <minimizedAffinity>
-8.10934

$$$$
2E7F_C2F_A_3000


 41 43  0  0  0  0  0  0  0  0999 V2000
   -9.3813   69.6945  117.9852 C   0  0  0  0  0  0  0  0  0  0  0  0
   -9.1830   70.1839  116.6602 C   0  0  0  0  0  0  0  0  0  0  0  0
   -8.9462   69.2864  115.5986 C   0  0  0  0  0  0  0  0  0  0  0  0
   -8.9034   67.8931  115.8481 C   0  0  0  0  0  0  0  0  0  0  0  0
   -9.1049   67.4014  117.1897 C   0  0  0  0  0  0  0  0  0  0  0  0
   -9.3423   68.2975  118.2470 C   0  0  0  0  0  0  0  0  0  0  0  0
   -9.6273   70.6635  119.0993 C   0  0  0  0  0  0  0  0  0  0  0  0
   -9.5638   70.2669  120.2531 O   0  0  0  0  0  0  0  0  0  0  0  0
   -9.9040   71.9357  118.7552 N   0  0  0  0  0  0  0  0  0  0  0  0
   -9.9230   72.1175  117.7878 H   0  0  0  0  0  0  0  0  0  0  0  0
  -10.1806   73.0872  119.6174 C   0  0  0  0  0  0  0  0  0  0  0  0
  -11.6555   73.1402  119.9501 C   0  0  0  0  0  0  0  0  0  0  0  0
  -12.2765   74.2140  119.8005 O   0  0  0  0  0  0  0  0  0  0  0  0
  -12.2129   72.1069  120.3562 O   0  0  0  0  0  0  0  0  0  0  0  0
  -11.7191   71.3171  120.4578 H   0  0  0  0  0  0  0  0  0  0  0  0
   -9.7916   74.3508  118.8352 C   0  0  0  0  0  0  0  0  0  0  0  0
   -8.6285   75.0277  119.5669 C   0  0  0  0  0  0  0  0  0  0  0  0
   -9.0836   76.2251  120.4024 C   0  0  0  0  0  0  0  0  0  0  0  0
   -8.2307   77.1488  120.5321 O   0  0  0  0  0  0  0  0  0  0  0  0
  -10.2208   76.2796  120.9349 O   0  0  0  0  0  0  0  0  0  0  0  0
  -10.8276   75.5754  120.8168 H   0  0  0  0  0  0  0  0  0  0  0  0
   -8.6706   67.0710  114.7822 N   0  0  0  0  0  0  0  0  0  0  0  0
   -8.6407   67.4759  113.8852 H   0  0  0  0  0  0  0  0  0  0  0  0
   -8.4644   65.6361  114.8891 C   0  0  0  0  0  0  0  0  0  0  0  0
   -5.4855   62.4600  116.3391 N   0  0  0  0  0  0  0  0  0  0  0  0
   -6.0284   61.2504  116.6695 C   0  0  0  0  0  0  0  0  0  0  0  0
   -5.4298   60.5166  117.6466 N   0  0  0  0  0  0  0  0  0  0  0  0
   -7.1540   60.7674  116.0444 N   0  0  0  0  0  0  0  0  0  0  0  0
   -7.8045   61.4496  115.0583 C   0  0  0  0  0  0  0  0  0  0  0  0
   -8.8240   60.9781  114.5160 O   0  0  0  0  0  0  0  0  0  0  0  0
   -7.2729   62.7819  114.6367 C   0  0  0  0  0  0  0  0  0  0  0  0
   -7.8978   63.5814  113.5999 N   0  0  0  0  0  0  0  0  0  0  0  0
   -7.5893   65.0501  113.7441 C   0  0  0  0  0  0  0  0  0  0  0  0
   -6.0657   65.3309  114.0229 C   0  0  0  0  0  0  0  0  0  0  0  0
   -5.4898   64.4560  115.0534 N   0  0  0  0  0  0  0  0  0  0  0  0
   -6.0330   63.2494  115.3708 C   0  0  0  0  0  0  0  0  0  0  0  0
   -7.4803   63.0836  112.2658 C   0  0  0  0  0  0  0  0  0  0  0  0
   -4.6238   60.8596  118.0960 H   0  0  0  0  0  0  0  0  0  0  0  0
   -5.8026   59.6426  117.9041 H   0  0  0  0  0  0  0  0  0  0  0  0
   -7.5060   59.8905  116.3208 H   0  0  0  0  0  0  0  0  0  0  0  0
   -4.6820   64.7534  115.5313 H   0  0  0  0  0  0  0  0  0  0  0  0
 25 26  2  0  0  0
 25 36  1  0  0  0
 26 27  1  0  0  0
 26 28  1  0  0  0
 28 29  1  0  0  0
 29 30  2  0  0  0
 29 31  1  0  0  0
 31 32  1  0  0  0
 31 36  2  0  0  0
 32 33  1  0  0  0
 32 37  1  0  0  0
 33 34  1  0  0  0
 33 24  1  0  0  0
 34 35  1  0  0  0
 35 36  1  0  0  0
 24 22  1  0  0  0
 22  4  1  0  0  0
  1  2  2  0  0  0
  1  6  1  0  0  0
  1  7  1  0  0  0
  2  3  1  0  0  0
  3  4  2  0  0  0
  4  5  1  0  0  0
  5  6  2  0  0  0
  7  8  2  0  0  0
  7  9  1  0  0  0
  9 11  1  0  0  0
 11 16  1  0  0  0
 11 12  1  0  0  0
 16 17  1  0  0  0
 17 18  1  0  0  0
 18 19  2  0  0  0
 18 20  1  0  0  0
 12 13  2  0  0  0
 12 14  1  0  0  0
 27 38  1  0  0  0
 27 39  1  0  0  0
 28 40  1  0  0  0
 35 41  1  0  0  0
 22 23  1  0  0  0
  9 10  1  0  0  0
 20 21  1  0  0  0
 14 15  1  0  0  0
M  END
> <minimizedAffinity>
-8.05037

$$$$
2E7F_C2F_A_3000


 41 43  0  0  0  0  0  0  0  0999 V2000
   -9.0549   68.5703  116.2897 C   0  0  0  0  0  0  0  0  0  0  0  0
   -8.9771   69.9425  115.9080 C   0  0  0  0  0  0  0  0  0  0  0  0
   -9.0790   70.9581  116.8810 C   0  0  0  0  0  0  0  0  0  0  0  0
   -9.2608   70.6156  118.2430 C   0  0  0  0  0  0  0  0  0  0  0  0
   -9.3386   69.2265  118.6256 C   0  0  0  0  0  0  0  0  0  0  0  0
   -9.2355   68.2148  117.6545 C   0  0  0  0  0  0  0  0  0  0  0  0
   -8.9486   67.5070  115.2416 C   0  0  0  0  0  0  0  0  0  0  0  0
   -7.8540   67.0205  115.0013 O   0  0  0  0  0  0  0  0  0  0  0  0
  -10.0865   67.1427  114.6204 N   0  0  0  0  0  0  0  0  0  0  0  0
  -10.8983   67.6167  114.9128 H   0  0  0  0  0  0  0  0  0  0  0  0
  -10.2867   66.1404  113.5709 C   0  0  0  0  0  0  0  0  0  0  0  0
  -11.6563   66.3091  112.9508 C   0  0  0  0  0  0  0  0  0  0  0  0
  -12.3175   67.3389  113.2027 O   0  0  0  0  0  0  0  0  0  0  0  0
  -12.0838   65.4187  112.1972 O   0  0  0  0  0  0  0  0  0  0  0  0
  -11.5633   64.6581  112.0283 H   0  0  0  0  0  0  0  0  0  0  0  0
  -10.1970   64.7573  114.2334 C   0  0  0  0  0  0  0  0  0  0  0  0
   -9.1267   63.9436  113.4995 C   0  0  0  0  0  0  0  0  0  0  0  0
   -7.9994   63.4912  114.4288 C   0  0  0  0  0  0  0  0  0  0  0  0
   -7.6752   62.2734  114.3319 O   0  0  0  0  0  0  0  0  0  0  0  0
   -7.4449   64.2725  115.2422 O   0  0  0  0  0  0  0  0  0  0  0  0
   -7.7116   65.1697  115.2862 H   0  0  0  0  0  0  0  0  0  0  0  0
   -9.3528   71.6405  119.1414 N   0  0  0  0  0  0  0  0  0  0  0  0
   -8.5428   72.1703  119.3215 H   0  0  0  0  0  0  0  0  0  0  0  0
  -10.5717   71.9980  119.8482 C   0  0  0  0  0  0  0  0  0  0  0  0
  -12.0630   76.1827  121.0008 N   0  0  0  0  0  0  0  0  0  0  0  0
  -11.2118   77.2117  120.7118 C   0  0  0  0  0  0  0  0  0  0  0  0
  -11.2223   78.3074  121.5186 N   0  0  0  0  0  0  0  0  0  0  0  0
  -10.3544   77.1618  119.6378 N   0  0  0  0  0  0  0  0  0  0  0  0
  -10.2909   76.0956  118.7891 C   0  0  0  0  0  0  0  0  0  0  0  0
   -9.4984   76.0876  117.8260 O   0  0  0  0  0  0  0  0  0  0  0  0
  -11.1917   74.9280  119.0353 C   0  0  0  0  0  0  0  0  0  0  0  0
  -11.1938   73.7493  118.1895 N   0  0  0  0  0  0  0  0  0  0  0  0
  -11.6970   72.5256  118.9125 C   0  0  0  0  0  0  0  0  0  0  0  0
  -13.0096   72.7987  119.7373 C   0  0  0  0  0  0  0  0  0  0  0  0
  -12.9515   74.0304  120.5364 N   0  0  0  0  0  0  0  0  0  0  0  0
  -12.1056   75.0534  120.2368 C   0  0  0  0  0  0  0  0  0  0  0  0
  -11.9997   74.0103  116.9712 C   0  0  0  0  0  0  0  0  0  0  0  0
  -11.8349   78.3462  122.2882 H   0  0  0  0  0  0  0  0  0  0  0  0
  -10.6172   79.0614  121.3326 H   0  0  0  0  0  0  0  0  0  0  0  0
   -9.7601   77.9294  119.4742 H   0  0  0  0  0  0  0  0  0  0  0  0
  -13.5457   74.1187  121.3164 H   0  0  0  0  0  0  0  0  0  0  0  0
 25 26  2  0  0  0
 25 36  1  0  0  0
 26 27  1  0  0  0
 26 28  1  0  0  0
 28 29  1  0  0  0
 29 30  2  0  0  0
 29 31  1  0  0  0
 31 32  1  0  0  0
 31 36  2  0  0  0
 32 33  1  0  0  0
 32 37  1  0  0  0
 33 34  1  0  0  0
 33 24  1  0  0  0
 34 35  1  0  0  0
 35 36  1  0  0  0
 24 22  1  0  0  0
 22  4  1  0  0  0
  1  2  2  0  0  0
  1  6  1  0  0  0
  1  7  1  0  0  0
  2  3  1  0  0  0
  3  4  2  0  0  0
  4  5  1  0  0  0
  5  6  2  0  0  0
  7  8  2  0  0  0
  7  9  1  0  0  0
  9 11  1  0  0  0
 11 16  1  0  0  0
 11 12  1  0  0  0
 16 17  1  0  0  0
 17 18  1  0  0  0
 18 19  2  0  0  0
 18 20  1  0  0  0
 12 13  2  0  0  0
 12 14  1  0  0  0
 27 38  1  0  0  0
 27 39  1  0  0  0
 28 40  1  0  0  0
 35 41  1  0  0  0
 22 23  1  0  0  0
  9 10  1  0  0  0
 20 21  1  0  0  0
 14 15  1  0  0  0
M  END
> <minimizedAffinity>
-7.93724

$$$$
2E7F_C2F_A_3000


 41 43  0  0  0  0  0  0  0  0999 V2000
   -9.0284   67.4872  115.9654 C   0  0  0  0  0  0  0  0  0  0  0  0
   -9.2305   67.4015  117.3748 C   0  0  0  0  0  0  0  0  0  0  0  0
   -9.2743   68.5724  118.1594 C   0  0  0  0  0  0  0  0  0  0  0  0
   -9.1158   69.8393  117.5468 C   0  0  0  0  0  0  0  0  0  0  0  0
   -8.9120   69.9222  116.1207 C   0  0  0  0  0  0  0  0  0  0  0  0
   -8.8699   68.7539  115.3395 C   0  0  0  0  0  0  0  0  0  0  0  0
   -8.9810   66.2325  115.1504 C   0  0  0  0  0  0  0  0  0  0  0  0
   -9.9216   65.9672  114.4175 O   0  0  0  0  0  0  0  0  0  0  0  0
   -7.8832   65.4624  115.2742 N   0  0  0  0  0  0  0  0  0  0  0  0
   -7.2010   65.7960  115.9008 H   0  0  0  0  0  0  0  0  0  0  0  0
   -7.5610   64.1981  114.6081 C   0  0  0  0  0  0  0  0  0  0  0  0
   -6.6880   63.3495  115.5061 C   0  0  0  0  0  0  0  0  0  0  0  0
   -7.0498   62.1871  115.7872 O   0  0  0  0  0  0  0  0  0  0  0  0
   -5.6259   63.8313  115.9339 O   0  0  0  0  0  0  0  0  0  0  0  0
   -5.3827   64.7067  115.7047 H   0  0  0  0  0  0  0  0  0  0  0  0
   -6.7884   64.5388  113.3248 C   0  0  0  0  0  0  0  0  0  0  0  0
   -6.4573   63.2288  112.6033 C   0  0  0  0  0  0  0  0  0  0  0  0
   -7.5796   62.7799  111.6663 C   0  0  0  0  0  0  0  0  0  0  0  0
   -8.5922   62.2820  112.2359 O   0  0  0  0  0  0  0  0  0  0  0  0
   -7.4943   62.8852  110.4168 O   0  0  0  0  0  0  0  0  0  0  0  0
   -6.7277   63.2598  110.0296 H   0  0  0  0  0  0  0  0  0  0  0  0
   -9.1672   70.9389  118.3557 N   0  0  0  0  0  0  0  0  0  0  0  0
   -9.1121   70.7989  119.3287 H   0  0  0  0  0  0  0  0  0  0  0  0
   -9.2983   72.3027  117.8701 C   0  0  0  0  0  0  0  0  0  0  0  0
   -9.3982   75.8312  120.8032 N   0  0  0  0  0  0  0  0  0  0  0  0
   -8.8748   77.0027  120.3335 C   0  0  0  0  0  0  0  0  0  0  0  0
   -8.2848   77.8503  121.2196 N   0  0  0  0  0  0  0  0  0  0  0  0
   -8.9293   77.3367  119.0006 N   0  0  0  0  0  0  0  0  0  0  0  0
   -9.5046   76.5350  118.0586 C   0  0  0  0  0  0  0  0  0  0  0  0
   -9.5332   76.8729  116.8584 O   0  0  0  0  0  0  0  0  0  0  0  0
  -10.1025   75.2348  118.4914 C   0  0  0  0  0  0  0  0  0  0  0  0
  -10.7329   74.3157  117.5626 N   0  0  0  0  0  0  0  0  0  0  0  0
  -10.7235   72.8948  118.0665 C   0  0  0  0  0  0  0  0  0  0  0  0
  -11.1606   72.7772  119.5741 C   0  0  0  0  0  0  0  0  0  0  0  0
  -10.5147   73.7661  120.4481 N   0  0  0  0  0  0  0  0  0  0  0  0
  -10.0027   74.9338  119.9726 C   0  0  0  0  0  0  0  0  0  0  0  0
  -12.1183   74.7650  117.2783 C   0  0  0  0  0  0  0  0  0  0  0  0
   -8.2442   77.6140  122.1745 H   0  0  0  0  0  0  0  0  0  0  0  0
   -7.8986   78.6998  120.9059 H   0  0  0  0  0  0  0  0  0  0  0  0
   -8.5358   78.1923  118.7136 H   0  0  0  0  0  0  0  0  0  0  0  0
  -10.4500   73.5772  121.4122 H   0  0  0  0  0  0  0  0  0  0  0  0
 25 26  2  0  0  0
 25 36  1  0  0  0
 26 27  1  0  0  0
 26 28  1  0  0  0
 28 29  1  0  0  0
 29 30  2  0  0  0
 29 31  1  0  0  0
 31 32  1  0  0  0
 31 36  2  0  0  0
 32 33  1  0  0  0
 32 37  1  0  0  0
 33 34  1  0  0  0
 33 24  1  0  0  0
 34 35  1  0  0  0
 35 36  1  0  0  0
 24 22  1  0  0  0
 22  4  1  0  0  0
  1  2  2  0  0  0
  1  6  1  0  0  0
  1  7  1  0  0  0
  2  3  1  0  0  0
  3  4  2  0  0  0
  4  5  1  0  0  0
  5  6  2  0  0  0
  7  8  2  0  0  0
  7  9  1  0  0  0
  9 11  1  0  0  0
 11 16  1  0  0  0
 11 12  1  0  0  0
 16 17  1  0  0  0
 17 18  1  0  0  0
 18 19  2  0  0  0
 18 20  1  0  0  0
 12 13  2  0  0  0
 12 14  1  0  0  0
 27 38  1  0  0  0
 27 39  1  0  0  0
 28 40  1  0  0  0
 35 41  1  0  0  0
 22 23  1  0  0  0
  9 10  1  0  0  0
 20 21  1  0  0  0
 14 15  1  0  0  0
M  END
> <minimizedAffinity>
-7.91275

$$$$
2E7F_C2F_A_3000


 41 43  0  0  0  0  0  0  0  0999 V2000
   -9.1871   69.6550  117.8211 C   0  0  0  0  0  0  0  0  0  0  0  0
   -8.9418   70.7806  116.9800 C   0  0  0  0  0  0  0  0  0  0  0  0
   -8.9043   72.0807  117.5249 C   0  0  0  0  0  0  0  0  0  0  0  0
   -9.1125   72.2710  118.9127 C   0  0  0  0  0  0  0  0  0  0  0  0
   -9.3599   71.1300  119.7606 C   0  0  0  0  0  0  0  0  0  0  0  0
   -9.3956   69.8341  119.2161 C   0  0  0  0  0  0  0  0  0  0  0  0
   -9.2270   68.2834  117.2230 C   0  0  0  0  0  0  0  0  0  0  0  0
   -8.9161   67.3265  117.9160 O   0  0  0  0  0  0  0  0  0  0  0  0
   -9.6141   68.1865  115.9368 N   0  0  0  0  0  0  0  0  0  0  0  0
   -9.8368   69.0386  115.4970 H   0  0  0  0  0  0  0  0  0  0  0  0
   -9.7504   66.9919  115.1000 C   0  0  0  0  0  0  0  0  0  0  0  0
   -8.3853   66.4113  114.8031 C   0  0  0  0  0  0  0  0  0  0  0  0
   -7.7760   66.7792  113.7762 O   0  0  0  0  0  0  0  0  0  0  0  0
   -7.9018   65.5875  115.5974 O   0  0  0  0  0  0  0  0  0  0  0  0
   -8.3843   65.3320  116.3589 H   0  0  0  0  0  0  0  0  0  0  0  0
  -10.4138   67.4260  113.7842 C   0  0  0  0  0  0  0  0  0  0  0  0
  -11.5756   66.4704  113.4958 C   0  0  0  0  0  0  0  0  0  0  0  0
  -11.1299   65.2272  112.7245 C   0  0  0  0  0  0  0  0  0  0  0  0
  -11.1545   65.3349  111.4654 O   0  0  0  0  0  0  0  0  0  0  0  0
  -10.7781   64.1681  113.3026 O   0  0  0  0  0  0  0  0  0  0  0  0
  -10.7722   64.1250  114.2386 H   0  0  0  0  0  0  0  0  0  0  0  0
   -9.0649   73.5519  119.3850 N   0  0  0  0  0  0  0  0  0  0  0  0
   -8.1801   73.9648  119.5105 H   0  0  0  0  0  0  0  0  0  0  0  0
  -10.2389   74.3436  119.7139 C   0  0  0  0  0  0  0  0  0  0  0  0
   -9.2769   77.2426  116.2884 N   0  0  0  0  0  0  0  0  0  0  0  0
  -10.3475   77.6505  115.5437 C   0  0  0  0  0  0  0  0  0  0  0  0
  -10.1500   77.9389  114.2286 N   0  0  0  0  0  0  0  0  0  0  0  0
  -11.6042   77.7715  116.0888 N   0  0  0  0  0  0  0  0  0  0  0  0
  -11.8735   77.4989  117.3980 C   0  0  0  0  0  0  0  0  0  0  0  0
  -13.0277   77.6197  117.8550 O   0  0  0  0  0  0  0  0  0  0  0  0
  -10.7550   77.0478  118.2818 C   0  0  0  0  0  0  0  0  0  0  0  0
  -10.9449   76.7323  119.6850 N   0  0  0  0  0  0  0  0  0  0  0  0
   -9.8984   75.7798  120.2053 C   0  0  0  0  0  0  0  0  0  0  0  0
   -8.4391   76.1752  119.7672 C   0  0  0  0  0  0  0  0  0  0  0  0
   -8.3309   76.5230  118.3437 N   0  0  0  0  0  0  0  0  0  0  0  0
   -9.4012   76.9355  117.6116 C   0  0  0  0  0  0  0  0  0  0  0  0
  -10.9602   77.9846  120.4808 C   0  0  0  0  0  0  0  0  0  0  0  0
   -9.2515   77.8533  113.8354 H   0  0  0  0  0  0  0  0  0  0  0  0
  -10.9056   78.2332  113.6703 H   0  0  0  0  0  0  0  0  0  0  0  0
  -12.3421   78.0680  115.5085 H   0  0  0  0  0  0  0  0  0  0  0  0
   -7.4527   76.4551  117.9038 H   0  0  0  0  0  0  0  0  0  0  0  0
 25 26  2  0  0  0
 25 36  1  0  0  0
 26 27  1  0  0  0
 26 28  1  0  0  0
 28 29  1  0  0  0
 29 30  2  0  0  0
 29 31  1  0  0  0
 31 32  1  0  0  0
 31 36  2  0  0  0
 32 33  1  0  0  0
 32 37  1  0  0  0
 33 34  1  0  0  0
 33 24  1  0  0  0
 34 35  1  0  0  0
 35 36  1  0  0  0
 24 22  1  0  0  0
 22  4  1  0  0  0
  1  2  2  0  0  0
  1  6  1  0  0  0
  1  7  1  0  0  0
  2  3  1  0  0  0
  3  4  2  0  0  0
  4  5  1  0  0  0
  5  6  2  0  0  0
  7  8  2  0  0  0
  7  9  1  0  0  0
  9 11  1  0  0  0
 11 16  1  0  0  0
 11 12  1  0  0  0
 16 17  1  0  0  0
 17 18  1  0  0  0
 18 19  2  0  0  0
 18 20  1  0  0  0
 12 13  2  0  0  0
 12 14  1  0  0  0
 27 38  1  0  0  0
 27 39  1  0  0  0
 28 40  1  0  0  0
 35 41  1  0  0  0
 22 23  1  0  0  0
  9 10  1  0  0  0
 20 21  1  0  0  0
 14 15  1  0  0  0
M  END
> <minimizedAffinity>
-7.83943

$$$$
2E7F_C2F_A_3000


 41 43  0  0  0  0  0  0  0  0999 V2000
  -16.2529   75.8057  120.3221 C   0  0  0  0  0  0  0  0  0  0  0  0
  -14.9733   75.1937  120.4731 C   0  0  0  0  0  0  0  0  0  0  0  0
  -13.8144   75.8429  119.9998 C   0  0  0  0  0  0  0  0  0  0  0  0
  -13.9202   77.1070  119.3705 C   0  0  0  0  0  0  0  0  0  0  0  0
  -15.2162   77.7233  119.2198 C   0  0  0  0  0  0  0  0  0  0  0  0
  -16.3708   77.0756  119.6934 C   0  0  0  0  0  0  0  0  0  0  0  0
  -17.4718   75.0989  120.8275 C   0  0  0  0  0  0  0  0  0  0  0  0
  -18.5514   75.6677  120.7715 O   0  0  0  0  0  0  0  0  0  0  0  0
  -17.3008   73.8561  121.3172 N   0  0  0  0  0  0  0  0  0  0  0  0
  -16.3759   73.5191  121.3018 H   0  0  0  0  0  0  0  0  0  0  0  0
  -18.2970   72.9350  121.8696 C   0  0  0  0  0  0  0  0  0  0  0  0
  -18.1494   72.8564  123.3732 C   0  0  0  0  0  0  0  0  0  0  0  0
  -18.0506   73.9131  124.0326 O   0  0  0  0  0  0  0  0  0  0  0  0
  -18.1395   71.7380  123.9140 O   0  0  0  0  0  0  0  0  0  0  0  0
  -18.2155   70.9642  123.3913 H   0  0  0  0  0  0  0  0  0  0  0  0
  -18.0296   71.5501  121.2608 C   0  0  0  0  0  0  0  0  0  0  0  0
  -16.9658   71.7042  120.1696 C   0  0  0  0  0  0  0  0  0  0  0  0
  -15.9812   70.5341  120.1464 C   0  0  0  0  0  0  0  0  0  0  0  0
  -14.7897   70.8364  119.8523 O   0  0  0  0  0  0  0  0  0  0  0  0
  -16.3356   69.3528  120.3883 O   0  0  0  0  0  0  0  0  0  0  0  0
  -17.2284   69.1662  120.6030 H   0  0  0  0  0  0  0  0  0  0  0  0
  -12.7647   77.6889  118.9319 N   0  0  0  0  0  0  0  0  0  0  0  0
  -12.6292   77.7706  117.9602 H   0  0  0  0  0  0  0  0  0  0  0  0
  -11.7226   78.1951  119.8100 C   0  0  0  0  0  0  0  0  0  0  0  0
   -9.4456   74.3402  120.8193 N   0  0  0  0  0  0  0  0  0  0  0  0
   -9.8768   73.2153  120.1745 C   0  0  0  0  0  0  0  0  0  0  0  0
   -9.7564   72.0179  120.8097 N   0  0  0  0  0  0  0  0  0  0  0  0
  -10.4248   73.2686  118.9144 N   0  0  0  0  0  0  0  0  0  0  0  0
  -10.5758   74.4334  118.2206 C   0  0  0  0  0  0  0  0  0  0  0  0
  -11.0790   74.4407  117.0794 O   0  0  0  0  0  0  0  0  0  0  0  0
  -10.1271   75.7103  118.8559 C   0  0  0  0  0  0  0  0  0  0  0  0
  -10.2494   76.9973  118.1975 N   0  0  0  0  0  0  0  0  0  0  0  0
  -10.3018   78.1408  119.1788 C   0  0  0  0  0  0  0  0  0  0  0  0
   -9.2077   78.0311  120.3052 C   0  0  0  0  0  0  0  0  0  0  0  0
   -9.1111   76.6895  120.8967 N   0  0  0  0  0  0  0  0  0  0  0  0
   -9.5364   75.5737  120.2441 C   0  0  0  0  0  0  0  0  0  0  0  0
   -9.1309   77.1761  117.2389 C   0  0  0  0  0  0  0  0  0  0  0  0
   -9.3645   71.9765  121.7118 H   0  0  0  0  0  0  0  0  0  0  0  0
  -10.0613   71.1931  120.3671 H   0  0  0  0  0  0  0  0  0  0  0  0
  -10.7214   72.4290  118.4944 H   0  0  0  0  0  0  0  0  0  0  0  0
   -8.7250   76.5945  121.7973 H   0  0  0  0  0  0  0  0  0  0  0  0
 25 26  2  0  0  0
 25 36  1  0  0  0
 26 27  1  0  0  0
 26 28  1  0  0  0
 28 29  1  0  0  0
 29 30  2  0  0  0
 29 31  1  0  0  0
 31 32  1  0  0  0
 31 36  2  0  0  0
 32 33  1  0  0  0
 32 37  1  0  0  0
 33 34  1  0  0  0
 33 24  1  0  0  0
 34 35  1  0  0  0
 35 36  1  0  0  0
 24 22  1  0  0  0
 22  4  1  0  0  0
  1  2  2  0  0  0
  1  6  1  0  0  0
  1  7  1  0  0  0
  2  3  1  0  0  0
  3  4  2  0  0  0
  4  5  1  0  0  0
  5  6  2  0  0  0
  7  8  2  0  0  0
  7  9  1  0  0  0
  9 11  1  0  0  0
 11 16  1  0  0  0
 11 12  1  0  0  0
 16 17  1  0  0  0
 17 18  1  0  0  0
 18 19  2  0  0  0
 18 20  1  0  0  0
 12 13  2  0  0  0
 12 14  1  0  0  0
 27 38  1  0  0  0
 27 39  1  0  0  0
 28 40  1  0  0  0
 35 41  1  0  0  0
 22 23  1  0  0  0
  9 10  1  0  0  0
 20 21  1  0  0  0
 14 15  1  0  0  0
M  END
> <minimizedAffinity>
-7.76825

$$$$
2E7F_C2F_A_3000


 41 43  0  0  0  0  0  0  0  0999 V2000
  -11.5734   72.6480  118.5026 C   0  0  0  0  0  0  0  0  0  0  0  0
  -12.3714   72.9387  117.3566 C   0  0  0  0  0  0  0  0  0  0  0  0
  -13.3825   73.9193  117.4243 C   0  0  0  0  0  0  0  0  0  0  0  0
  -13.6086   74.6181  118.6350 C   0  0  0  0  0  0  0  0  0  0  0  0
  -12.7992   74.3218  119.7923 C   0  0  0  0  0  0  0  0  0  0  0  0
  -11.7904   73.3447  119.7229 C   0  0  0  0  0  0  0  0  0  0  0  0
  -10.5077   71.6008  118.4119 C   0  0  0  0  0  0  0  0  0  0  0  0
  -10.1907   70.9902  119.4214 O   0  0  0  0  0  0  0  0  0  0  0  0
   -9.9575   71.3896  117.2010 N   0  0  0  0  0  0  0  0  0  0  0  0
  -10.3079   71.9525  116.4733 H   0  0  0  0  0  0  0  0  0  0  0  0
   -8.9111   70.4402  116.8140 C   0  0  0  0  0  0  0  0  0  0  0  0
   -7.5726   71.1430  116.7558 C   0  0  0  0  0  0  0  0  0  0  0  0
   -6.7154   70.8961  117.6306 O   0  0  0  0  0  0  0  0  0  0  0  0
   -7.3587   71.9433  115.8300 O   0  0  0  0  0  0  0  0  0  0  0  0
   -8.0226   72.1068  115.1893 H   0  0  0  0  0  0  0  0  0  0  0  0
   -9.2662   69.9094  115.4168 C   0  0  0  0  0  0  0  0  0  0  0  0
   -9.3463   68.3816  115.4913 C   0  0  0  0  0  0  0  0  0  0  0  0
   -9.5047   67.7386  114.1127 C   0  0  0  0  0  0  0  0  0  0  0  0
   -8.5658   66.9669  113.7654 O   0  0  0  0  0  0  0  0  0  0  0  0
  -10.4921   67.9730  113.3713 O   0  0  0  0  0  0  0  0  0  0  0  0
  -11.1697   68.5510  113.6624 H   0  0  0  0  0  0  0  0  0  0  0  0
  -14.6009   75.5569  118.6424 N   0  0  0  0  0  0  0  0  0  0  0  0
  -15.1531   75.6509  117.8328 H   0  0  0  0  0  0  0  0  0  0  0  0
  -14.8927   76.4258  119.7706 C   0  0  0  0  0  0  0  0  0  0  0  0
  -10.7815   78.0401  121.0181 N   0  0  0  0  0  0  0  0  0  0  0  0
   -9.7327   77.6497  120.2342 C   0  0  0  0  0  0  0  0  0  0  0  0
   -8.5083   77.5115  120.8116 N   0  0  0  0  0  0  0  0  0  0  0  0
   -9.8882   77.3946  118.8919 N   0  0  0  0  0  0  0  0  0  0  0  0
  -11.0855   77.5125  118.2489 C   0  0  0  0  0  0  0  0  0  0  0  0
  -11.1863   77.2709  117.0294 O   0  0  0  0  0  0  0  0  0  0  0  0
  -12.2838   77.9370  119.0359 C   0  0  0  0  0  0  0  0  0  0  0  0
  -13.5982   78.0871  118.4404 N   0  0  0  0  0  0  0  0  0  0  0  0
  -14.7064   77.9370  119.4516 C   0  0  0  0  0  0  0  0  0  0  0  0
  -14.4404   78.7457  120.7757 C   0  0  0  0  0  0  0  0  0  0  0  0
  -13.0768   78.5797  121.2973 N   0  0  0  0  0  0  0  0  0  0  0  0
  -12.0366   78.1976  120.5075 C   0  0  0  0  0  0  0  0  0  0  0  0
  -13.6874   79.3982  117.7513 C   0  0  0  0  0  0  0  0  0  0  0  0
   -8.3938   77.6933  121.7724 H   0  0  0  0  0  0  0  0  0  0  0  0
   -7.7370   77.2296  120.2686 H   0  0  0  0  0  0  0  0  0  0  0  0
   -9.1005   77.1146  118.3719 H   0  0  0  0  0  0  0  0  0  0  0  0
  -12.9097   78.7510  122.2523 H   0  0  0  0  0  0  0  0  0  0  0  0
 25 26  2  0  0  0
 25 36  1  0  0  0
 26 27  1  0  0  0
 26 28  1  0  0  0
 28 29  1  0  0  0
 29 30  2  0  0  0
 29 31  1  0  0  0
 31 32  1  0  0  0
 31 36  2  0  0  0
 32 33  1  0  0  0
 32 37  1  0  0  0
 33 34  1  0  0  0
 33 24  1  0  0  0
 34 35  1  0  0  0
 35 36  1  0  0  0
 24 22  1  0  0  0
 22  4  1  0  0  0
  1  2  2  0  0  0
  1  6  1  0  0  0
  1  7  1  0  0  0
  2  3  1  0  0  0
  3  4  2  0  0  0
  4  5  1  0  0  0
  5  6  2  0  0  0
  7  8  2  0  0  0
  7  9  1  0  0  0
  9 11  1  0  0  0
 11 16  1  0  0  0
 11 12  1  0  0  0
 16 17  1  0  0  0
 17 18  1  0  0  0
 18 19  2  0  0  0
 18 20  1  0  0  0
 12 13  2  0  0  0
 12 14  1  0  0  0
 27 38  1  0  0  0
 27 39  1  0  0  0
 28 40  1  0  0  0
 35 41  1  0  0  0
 22 23  1  0  0  0
  9 10  1  0  0  0
 20 21  1  0  0  0
 14 15  1  0  0  0
M  END
> <minimizedAffinity>
-7.73858

$$$$
