4CPT_1T8_B_1202


 58 61  0  0  0  0  0  0  0  0999 V2000
   14.7314   23.4650    6.0895 C   0  0  0  0  0  0  0  0  0  0  0  0
   13.1964   23.4180    6.0411 C   0  0  0  0  0  0  0  0  0  0  0  0
   12.6884   22.9995    4.6488 C   0  0  0  0  0  0  0  0  0  0  0  0
    7.0553   23.5948    2.9761 C   0  0  0  0  0  0  0  0  0  0  0  0
    8.3002   23.0201    3.2117 C   0  0  0  0  0  0  0  0  0  0  0  0
    9.4665   23.6895    2.8482 C   0  0  0  0  0  0  0  0  0  0  0  0
   10.7256   23.2025    3.2248 C   0  0  0  0  0  0  0  0  0  0  0  0
    9.3619   24.8972    2.1690 C   0  0  0  0  0  0  0  0  0  0  0  0
    8.1187   25.4824    1.9562 C   0  0  0  0  0  0  0  0  0  0  0  0
    6.9545   24.8335    2.3464 C   0  0  0  0  0  0  0  0  0  0  0  0
    5.7160   25.4479    2.1125 C   0  0  0  0  0  0  0  0  0  0  0  0
    4.8011   25.2298    3.1452 C   0  0  0  0  0  0  0  0  0  0  0  0
    4.7863   25.9550    4.3413 C   0  0  0  0  0  0  0  0  0  0  0  0
    5.8183   26.8112    4.7324 C   0  0  0  0  0  0  0  0  0  0  0  0
    6.7647   26.0739    5.6017 N   0  0  0  0  0  0  0  0  0  0  0  0
    8.0659   26.5499    5.7873 C   0  0  0  0  0  0  0  0  0  0  0  0
    8.3794   27.5902    5.2044 O   0  0  0  0  0  0  0  0  0  0  0  0
    9.0270   25.7450    6.4394 C   0  0  0  0  0  0  0  0  0  0  0  0
   10.0988   25.4005    5.4705 N   0  0  0  0  0  0  0  0  0  0  0  0
   10.6193   24.1063    5.3379 C   0  0  0  0  0  0  0  0  0  0  0  0
   10.1406   23.1953    6.0204 O   0  0  0  0  0  0  0  0  0  0  0  0
   11.4645   23.8482    4.2437 C   0  0  0  0  0  0  0  0  0  0  0  0
   11.9612   25.1022    3.7464 O   0  0  0  0  0  0  0  0  0  0  0  0
    6.4763   25.2462    6.0501 H   0  0  0  0  0  0  0  0  0  0  0  0
   10.4598   26.1135    4.8955 H   0  0  0  0  0  0  0  0  0  0  0  0
   11.2155   25.6631    3.4814 H   0  0  0  0  0  0  0  0  0  0  0  0
    9.6127   26.5196    7.6291 C   0  0  0  0  0  0  0  0  0  0  0  0
    8.4847   26.9002    8.5934 C   0  0  0  0  0  0  0  0  0  0  0  0
   10.6535   25.6648    8.3597 C   0  0  0  0  0  0  0  0  0  0  0  0
   15.3300   22.1679    6.4584 N   0  0  0  0  0  0  0  0  0  0  0  0
   15.7166   21.4160    5.5077 N   0  0  0  0  0  0  0  0  0  0  0  0
   15.2618   20.2569    4.9939 C   0  0  0  0  0  0  0  0  0  0  0  0
   14.0501   19.7951    5.5897 O   0  0  0  0  0  0  0  0  0  0  0  0
   16.5200   21.7535    5.0496 H   0  0  0  0  0  0  0  0  0  0  0  0
   16.0344   19.5215    4.1506 C   0  0  0  0  0  0  0  0  0  0  0  0
   15.3848   18.9588    2.8743 C   0  0  0  0  0  0  0  0  0  0  0  0
   14.5462   17.7189    3.2071 C   0  0  0  0  0  0  0  0  0  0  0  0
   14.4929   20.0203    2.2330 C   0  0  0  0  0  0  0  0  0  0  0  0
   16.4785   18.5539    1.8875 C   0  0  0  0  0  0  0  0  0  0  0  0
   16.6274   18.3993    4.8948 N   0  0  0  0  0  0  0  0  0  0  0  0
   17.9146   18.3907    5.2560 C   0  0  0  0  0  0  0  0  0  0  0  0
   18.6809   19.2738    4.8598 O   0  0  0  0  0  0  0  0  0  0  0  0
   16.0592   17.6316    5.1340 H   0  0  0  0  0  0  0  0  0  0  0  0
   18.3580   17.3871    6.0634 O   0  0  0  0  0  0  0  0  0  0  0  0
   18.2813   16.1125    5.4179 C   0  0  0  0  0  0  0  0  0  0  0  0
   16.1375   22.1484    7.5451 C   0  0  0  0  0  0  0  0  0  0  0  0
   16.2587   20.9573    8.2647 C   0  0  0  0  0  0  0  0  0  0  0  0
   17.4857   20.3078    8.3622 C   0  0  0  0  0  0  0  0  0  0  0  0
   17.6474   19.2003    9.1992 C   0  0  0  0  0  0  0  0  0  0  0  0
   15.2473   20.5914    9.1378 C   0  0  0  0  0  0  0  0  0  0  0  0
   15.3922   19.4716    9.9483 C   0  0  0  0  0  0  0  0  0  0  0  0
   16.5907   18.7757    9.9962 C   0  0  0  0  0  0  0  0  0  0  0  0
   16.7107   17.6727   10.8448 C   0  0  0  0  0  0  0  0  0  0  0  0
   15.7546   16.6642   10.8196 C   0  0  0  0  0  0  0  0  0  0  0  0
   15.9205   15.5186   11.5913 C   0  0  0  0  0  0  0  0  0  0  0  0
   17.0755   15.3406   12.3416 C   0  0  0  0  0  0  0  0  0  0  0  0
   18.0871   16.3048   12.2971 N   0  0  0  0  0  0  0  0  0  0  0  0
   17.8926   17.4764   11.5528 C   0  0  0  0  0  0  0  0  0  0  0  0
  4  5  1  0  0  0
  4 10  2  0  0  0
  5  6  2  0  0  0
  6  7  1  0  0  0
  6  8  1  0  0  0
  7 22  1  0  0  0
  8  9  2  0  0  0
  9 10  1  0  0  0
 10 11  1  0  0  0
 11 12  1  0  0  0
 12 13  2  0  0  0
 13 14  1  0  0  0
 14 15  1  0  0  0
 15 16  1  0  0  0
 16 17  2  0  0  0
 16 18  1  0  0  0
 18 27  1  0  0  0
 18 19  1  0  0  0
 27 28  1  0  0  0
 27 29  1  0  0  0
 19 20  1  0  0  0
 20 21  2  0  0  0
 20 22  1  0  0  0
 22 23  1  0  0  0
 22  3  1  0  0  0
  3  2  1  0  0  0
  2  1  1  0  0  0
  1 30  1  0  0  0
 30 31  1  0  0  0
 30 46  1  0  0  0
 31 32  1  0  0  0
 32 33  2  0  0  0
 32 35  1  0  0  0
 35 36  1  0  0  0
 35 40  1  0  0  0
 36 37  1  0  0  0
 36 38  1  0  0  0
 36 39  1  0  0  0
 40 41  1  0  0  0
 41 42  2  0  0  0
 41 44  1  0  0  0
 44 45  1  0  0  0
 46 47  1  0  0  0
 47 48  1  0  0  0
 47 50  2  0  0  0
 48 49  2  0  0  0
 49 52  1  0  0  0
 50 51  1  0  0  0
 51 52  2  0  0  0
 52 53  1  0  0  0
 53 54  1  0  0  0
 53 58  2  0  0  0
 54 55  2  0  0  0
 55 56  1  0  0  0
 56 57  2  0  0  0
 57 58  1  0  0  0
 15 24  1  0  0  0
 19 25  1  0  0  0
 23 26  1  0  0  0
 31 34  1  0  0  0
 40 43  1  0  0  0
M  END
> <minimizedAffinity>
-11.99469

$$$$
4CPT_1T8_B_1202


 58 61  0  0  0  0  0  0  0  0999 V2000
   12.5642   24.1961    4.1824 C   0  0  0  0  0  0  0  0  0  0  0  0
   12.8130   22.8356    4.8515 C   0  0  0  0  0  0  0  0  0  0  0  0
   13.1975   22.9979    6.3340 C   0  0  0  0  0  0  0  0  0  0  0  0
   16.7655   19.4136    9.3845 C   0  0  0  0  0  0  0  0  0  0  0  0
   15.6769   20.2180    9.0628 C   0  0  0  0  0  0  0  0  0  0  0  0
   15.8715   21.4688    8.4811 C   0  0  0  0  0  0  0  0  0  0  0  0
   14.7885   22.2184    8.0021 C   0  0  0  0  0  0  0  0  0  0  0  0
   17.1697   21.9333    8.3098 C   0  0  0  0  0  0  0  0  0  0  0  0
   18.2565   21.1190    8.6084 C   0  0  0  0  0  0  0  0  0  0  0  0
   18.0664   19.8580    9.1583 C   0  0  0  0  0  0  0  0  0  0  0  0
   19.1834   19.0634    9.4534 C   0  0  0  0  0  0  0  0  0  0  0  0
   18.9652   17.7079    9.1965 C   0  0  0  0  0  0  0  0  0  0  0  0
   19.0544   17.1297    7.9259 C   0  0  0  0  0  0  0  0  0  0  0  0
   19.1408   17.8754    6.7479 C   0  0  0  0  0  0  0  0  0  0  0  0
   17.7836   18.0588    6.1826 N   0  0  0  0  0  0  0  0  0  0  0  0
   17.5362   19.0857    5.2669 C   0  0  0  0  0  0  0  0  0  0  0  0
   18.4823   19.8145    4.9603 O   0  0  0  0  0  0  0  0  0  0  0  0
   16.2092   19.3929    4.8906 C   0  0  0  0  0  0  0  0  0  0  0  0
   15.8822   20.7617    5.3661 N   0  0  0  0  0  0  0  0  0  0  0  0
   14.6770   21.0783    6.0069 C   0  0  0  0  0  0  0  0  0  0  0  0
   13.8633   20.1770    6.2316 O   0  0  0  0  0  0  0  0  0  0  0  0
   14.5680   22.3440    6.6104 C   0  0  0  0  0  0  0  0  0  0  0  0
   15.5722   23.2049    6.0476 O   0  0  0  0  0  0  0  0  0  0  0  0
   17.0539   17.4557    6.4527 H   0  0  0  0  0  0  0  0  0  0  0  0
   16.5420   21.4786    5.2247 H   0  0  0  0  0  0  0  0  0  0  0  0
   16.4501   22.8228    6.2037 H   0  0  0  0  0  0  0  0  0  0  0  0
   16.0859   19.3161    3.3617 C   0  0  0  0  0  0  0  0  0  0  0  0
   16.5300   17.9297    2.8846 C   0  0  0  0  0  0  0  0  0  0  0  0
   14.6382   19.5738    2.9313 C   0  0  0  0  0  0  0  0  0  0  0  0
   11.1291   24.5109    4.0472 N   0  0  0  0  0  0  0  0  0  0  0  0
   10.6369   25.3420    4.8752 N   0  0  0  0  0  0  0  0  0  0  0  0
    9.9659   25.2130    6.0361 C   0  0  0  0  0  0  0  0  0  0  0  0
    9.8275   23.8633    6.4781 O   0  0  0  0  0  0  0  0  0  0  0  0
   10.7762   26.2801    4.6110 H   0  0  0  0  0  0  0  0  0  0  0  0
    9.3086   26.2724    6.5787 C   0  0  0  0  0  0  0  0  0  0  0  0
    9.3104   26.4220    8.1100 C   0  0  0  0  0  0  0  0  0  0  0  0
    8.0680   25.7535    8.7108 C   0  0  0  0  0  0  0  0  0  0  0  0
   10.5675   25.7799    8.6940 C   0  0  0  0  0  0  0  0  0  0  0  0
    9.2857   27.9060    8.4724 C   0  0  0  0  0  0  0  0  0  0  0  0
    7.9098   26.2572    6.1224 N   0  0  0  0  0  0  0  0  0  0  0  0
    7.5065   26.9505    5.0528 C   0  0  0  0  0  0  0  0  0  0  0  0
    8.2766   27.7327    4.4880 O   0  0  0  0  0  0  0  0  0  0  0  0
    7.2512   25.7205    6.6197 H   0  0  0  0  0  0  0  0  0  0  0  0
    6.2310   26.7768    4.6069 O   0  0  0  0  0  0  0  0  0  0  0  0
    5.2940   26.7178    5.6865 C   0  0  0  0  0  0  0  0  0  0  0  0
   10.6382   24.6225    2.7903 C   0  0  0  0  0  0  0  0  0  0  0  0
    9.2729   24.4093    2.5860 C   0  0  0  0  0  0  0  0  0  0  0  0
    8.5848   23.4519    3.3254 C   0  0  0  0  0  0  0  0  0  0  0  0
    7.1952   23.3353    3.2328 C   0  0  0  0  0  0  0  0  0  0  0  0
    8.5405   25.3542    1.8861 C   0  0  0  0  0  0  0  0  0  0  0  0
    7.1620   25.2235    1.7651 C   0  0  0  0  0  0  0  0  0  0  0  0
    6.4776   24.2259    2.4428 C   0  0  0  0  0  0  0  0  0  0  0  0
    5.0885   24.1425    2.3220 C   0  0  0  0  0  0  0  0  0  0  0  0
    4.3516   23.3932    3.2315 C   0  0  0  0  0  0  0  0  0  0  0  0
    2.9616   23.3863    3.1740 C   0  0  0  0  0  0  0  0  0  0  0  0
    2.2947   24.1814    2.2512 C   0  0  0  0  0  0  0  0  0  0  0  0
    3.0245   25.0134    1.3967 N   0  0  0  0  0  0  0  0  0  0  0  0
    4.4253   24.9806    1.4307 C   0  0  0  0  0  0  0  0  0  0  0  0
  4  5  1  0  0  0
  4 10  2  0  0  0
  5  6  2  0  0  0
  6  7  1  0  0  0
  6  8  1  0  0  0
  7 22  1  0  0  0
  8  9  2  0  0  0
  9 10  1  0  0  0
 10 11  1  0  0  0
 11 12  1  0  0  0
 12 13  2  0  0  0
 13 14  1  0  0  0
 14 15  1  0  0  0
 15 16  1  0  0  0
 16 17  2  0  0  0
 16 18  1  0  0  0
 18 27  1  0  0  0
 18 19  1  0  0  0
 27 28  1  0  0  0
 27 29  1  0  0  0
 19 20  1  0  0  0
 20 21  2  0  0  0
 20 22  1  0  0  0
 22 23  1  0  0  0
 22  3  1  0  0  0
  3  2  1  0  0  0
  2  1  1  0  0  0
  1 30  1  0  0  0
 30 31  1  0  0  0
 30 46  1  0  0  0
 31 32  1  0  0  0
 32 33  2  0  0  0
 32 35  1  0  0  0
 35 36  1  0  0  0
 35 40  1  0  0  0
 36 37  1  0  0  0
 36 38  1  0  0  0
 36 39  1  0  0  0
 40 41  1  0  0  0
 41 42  2  0  0  0
 41 44  1  0  0  0
 44 45  1  0  0  0
 46 47  1  0  0  0
 47 48  1  0  0  0
 47 50  2  0  0  0
 48 49  2  0  0  0
 49 52  1  0  0  0
 50 51  1  0  0  0
 51 52  2  0  0  0
 52 53  1  0  0  0
 53 54  1  0  0  0
 53 58  2  0  0  0
 54 55  2  0  0  0
 55 56  1  0  0  0
 56 57  2  0  0  0
 57 58  1  0  0  0
 15 24  1  0  0  0
 19 25  1  0  0  0
 23 26  1  0  0  0
 31 34  1  0  0  0
 40 43  1  0  0  0
M  END
> <minimizedAffinity>
-11.26514

$$$$
4CPT_1T8_B_1202


 58 61  0  0  0  0  0  0  0  0999 V2000
   11.4209   24.3769    3.7328 C   0  0  0  0  0  0  0  0  0  0  0  0
   11.8725   23.0668    4.3964 C   0  0  0  0  0  0  0  0  0  0  0  0
   13.0107   22.3965    3.6047 C   0  0  0  0  0  0  0  0  0  0  0  0
   15.2921   20.2870    8.6276 C   0  0  0  0  0  0  0  0  0  0  0  0
   14.3719   20.7955    7.7164 C   0  0  0  0  0  0  0  0  0  0  0  0
   14.6989   21.8910    6.9203 C   0  0  0  0  0  0  0  0  0  0  0  0
   13.8503   22.3114    5.8871 C   0  0  0  0  0  0  0  0  0  0  0  0
   15.9232   22.5186    7.1146 C   0  0  0  0  0  0  0  0  0  0  0  0
   16.8516   21.9950    8.0074 C   0  0  0  0  0  0  0  0  0  0  0  0
   16.5421   20.8831    8.7798 C   0  0  0  0  0  0  0  0  0  0  0  0
   17.4983   20.3828    9.6750 C   0  0  0  0  0  0  0  0  0  0  0  0
   17.4920   18.9880    9.7483 C   0  0  0  0  0  0  0  0  0  0  0  0
   18.1202   18.1542    8.8171 C   0  0  0  0  0  0  0  0  0  0  0  0
   18.6203   18.6089    7.5947 C   0  0  0  0  0  0  0  0  0  0  0  0
   17.5934   18.4201    6.5436 N   0  0  0  0  0  0  0  0  0  0  0  0
   17.6648   19.1477    5.3521 C   0  0  0  0  0  0  0  0  0  0  0  0
   18.6036   19.9365    5.2228 O   0  0  0  0  0  0  0  0  0  0  0  0
   16.5816   19.1266    4.4448 C   0  0  0  0  0  0  0  0  0  0  0  0
   16.0013   20.4914    4.3614 N   0  0  0  0  0  0  0  0  0  0  0  0
   14.6222   20.7367    4.3978 C   0  0  0  0  0  0  0  0  0  0  0  0
   13.8486   19.7865    4.5517 O   0  0  0  0  0  0  0  0  0  0  0  0
   14.1967   22.0700    4.5370 C   0  0  0  0  0  0  0  0  0  0  0  0
   15.2823   22.9356    4.1646 O   0  0  0  0  0  0  0  0  0  0  0  0
   16.8585   17.7804    6.6847 H   0  0  0  0  0  0  0  0  0  0  0  0
   16.6131   21.2581    4.2767 H   0  0  0  0  0  0  0  0  0  0  0  0
   16.0479   22.7568    4.7328 H   0  0  0  0  0  0  0  0  0  0  0  0
   17.0853   18.6763    3.0656 C   0  0  0  0  0  0  0  0  0  0  0  0
   17.7538   17.3036    3.1915 C   0  0  0  0  0  0  0  0  0  0  0  0
   15.9202   18.5970    2.0738 C   0  0  0  0  0  0  0  0  0  0  0  0
   10.1999   24.9347    4.3452 N   0  0  0  0  0  0  0  0  0  0  0  0
   10.3342   25.5490    5.4512 N   0  0  0  0  0  0  0  0  0  0  0  0
   10.0877   25.2208    6.7341 C   0  0  0  0  0  0  0  0  0  0  0  0
    9.6427   23.8769    6.9129 O   0  0  0  0  0  0  0  0  0  0  0  0
   10.6956   26.4588    5.3471 H   0  0  0  0  0  0  0  0  0  0  0  0
   10.0620   26.1758    7.7017 C   0  0  0  0  0  0  0  0  0  0  0  0
   11.0130   26.0208    8.9013 C   0  0  0  0  0  0  0  0  0  0  0  0
   12.2744   25.2552    8.4840 C   0  0  0  0  0  0  0  0  0  0  0  0
   11.4054   27.3972    9.4353 C   0  0  0  0  0  0  0  0  0  0  0  0
   10.3096   25.2321   10.0045 C   0  0  0  0  0  0  0  0  0  0  0  0
    8.6903   26.3015    8.2189 N   0  0  0  0  0  0  0  0  0  0  0  0
    7.9581   27.4030    8.0235 C   0  0  0  0  0  0  0  0  0  0  0  0
    8.4624   28.4058    7.5098 O   0  0  0  0  0  0  0  0  0  0  0  0
    8.2998   25.5521    8.7240 H   0  0  0  0  0  0  0  0  0  0  0  0
    6.6511   27.3930    8.4073 O   0  0  0  0  0  0  0  0  0  0  0  0
    5.7706   27.6102    7.3007 C   0  0  0  0  0  0  0  0  0  0  0  0
    9.2886   25.4875    3.5102 C   0  0  0  0  0  0  0  0  0  0  0  0
    7.9453   25.1362    3.6620 C   0  0  0  0  0  0  0  0  0  0  0  0
    7.0110   26.0715    4.0970 C   0  0  0  0  0  0  0  0  0  0  0  0
    5.6462   25.7709    4.1097 C   0  0  0  0  0  0  0  0  0  0  0  0
    7.4855   23.9643    3.0838 C   0  0  0  0  0  0  0  0  0  0  0  0
    6.1329   23.6470    3.1231 C   0  0  0  0  0  0  0  0  0  0  0  0
    5.2032   24.5467    3.6225 C   0  0  0  0  0  0  0  0  0  0  0  0
    3.8484   24.2068    3.6190 C   0  0  0  0  0  0  0  0  0  0  0  0
    3.4176   23.0583    2.9653 C   0  0  0  0  0  0  0  0  0  0  0  0
    2.0858   22.6637    3.0414 C   0  0  0  0  0  0  0  0  0  0  0  0
    1.1881   23.3751    3.8267 C   0  0  0  0  0  0  0  0  0  0  0  0
    1.6335   24.4751    4.5660 N   0  0  0  0  0  0  0  0  0  0  0  0
    2.9663   24.8926    4.4486 C   0  0  0  0  0  0  0  0  0  0  0  0
  4  5  1  0  0  0
  4 10  2  0  0  0
  5  6  2  0  0  0
  6  7  1  0  0  0
  6  8  1  0  0  0
  7 22  1  0  0  0
  8  9  2  0  0  0
  9 10  1  0  0  0
 10 11  1  0  0  0
 11 12  1  0  0  0
 12 13  2  0  0  0
 13 14  1  0  0  0
 14 15  1  0  0  0
 15 16  1  0  0  0
 16 17  2  0  0  0
 16 18  1  0  0  0
 18 27  1  0  0  0
 18 19  1  0  0  0
 27 28  1  0  0  0
 27 29  1  0  0  0
 19 20  1  0  0  0
 20 21  2  0  0  0
 20 22  1  0  0  0
 22 23  1  0  0  0
 22  3  1  0  0  0
  3  2  1  0  0  0
  2  1  1  0  0  0
  1 30  1  0  0  0
 30 31  1  0  0  0
 30 46  1  0  0  0
 31 32  1  0  0  0
 32 33  2  0  0  0
 32 35  1  0  0  0
 35 36  1  0  0  0
 35 40  1  0  0  0
 36 37  1  0  0  0
 36 38  1  0  0  0
 36 39  1  0  0  0
 40 41  1  0  0  0
 41 42  2  0  0  0
 41 44  1  0  0  0
 44 45  1  0  0  0
 46 47  1  0  0  0
 47 48  1  0  0  0
 47 50  2  0  0  0
 48 49  2  0  0  0
 49 52  1  0  0  0
 50 51  1  0  0  0
 51 52  2  0  0  0
 52 53  1  0  0  0
 53 54  1  0  0  0
 53 58  2  0  0  0
 54 55  2  0  0  0
 55 56  1  0  0  0
 56 57  2  0  0  0
 57 58  1  0  0  0
 15 24  1  0  0  0
 19 25  1  0  0  0
 23 26  1  0  0  0
 31 34  1  0  0  0
 40 43  1  0  0  0
M  END
> <minimizedAffinity>
-10.78072

$$$$
4CPT_1T8_B_1202


 58 61  0  0  0  0  0  0  0  0999 V2000
   11.7522   24.8939    8.3810 C   0  0  0  0  0  0  0  0  0  0  0  0
   13.1781   24.6030    7.8882 C   0  0  0  0  0  0  0  0  0  0  0  0
   13.2044   23.4175    6.9055 C   0  0  0  0  0  0  0  0  0  0  0  0
   16.8999   19.5301    9.3785 C   0  0  0  0  0  0  0  0  0  0  0  0
   15.8304   20.4056    9.2196 C   0  0  0  0  0  0  0  0  0  0  0  0
   16.0265   21.6637    8.6545 C   0  0  0  0  0  0  0  0  0  0  0  0
   14.9397   22.4899    8.3372 C   0  0  0  0  0  0  0  0  0  0  0  0
   17.3192   22.0604    8.3349 C   0  0  0  0  0  0  0  0  0  0  0  0
   18.3835   21.1760    8.4710 C   0  0  0  0  0  0  0  0  0  0  0  0
   18.1872   19.9086    9.0036 C   0  0  0  0  0  0  0  0  0  0  0  0
   19.2822   19.0424    9.1329 C   0  0  0  0  0  0  0  0  0  0  0  0
   18.9525   17.7115    8.8663 C   0  0  0  0  0  0  0  0  0  0  0  0
   18.8488   17.1756    7.5784 C   0  0  0  0  0  0  0  0  0  0  0  0
   18.8336   17.9574    6.4209 C   0  0  0  0  0  0  0  0  0  0  0  0
   17.4305   18.2372    6.0362 N   0  0  0  0  0  0  0  0  0  0  0  0
   17.1340   19.3089    5.1889 C   0  0  0  0  0  0  0  0  0  0  0  0
   18.0771   19.9940    4.7872 O   0  0  0  0  0  0  0  0  0  0  0  0
   15.7916   19.7037    4.9914 C   0  0  0  0  0  0  0  0  0  0  0  0
   15.6091   21.0705    5.5437 N   0  0  0  0  0  0  0  0  0  0  0  0
   14.5137   21.4309    6.3397 C   0  0  0  0  0  0  0  0  0  0  0  0
   13.6812   20.5693    6.6387 O   0  0  0  0  0  0  0  0  0  0  0  0
   14.5567   22.6780    6.9886 C   0  0  0  0  0  0  0  0  0  0  0  0
   15.5336   23.5009    6.3291 O   0  0  0  0  0  0  0  0  0  0  0  0
   16.7047   17.6667    6.3783 H   0  0  0  0  0  0  0  0  0  0  0  0
   16.2883   21.7538    5.3413 H   0  0  0  0  0  0  0  0  0  0  0  0
   16.3994   23.0648    6.3626 H   0  0  0  0  0  0  0  0  0  0  0  0
   15.4757   19.6894    3.4886 C   0  0  0  0  0  0  0  0  0  0  0  0
   14.8249   18.3528    3.1183 C   0  0  0  0  0  0  0  0  0  0  0  0
   14.5315   20.8424    3.1327 C   0  0  0  0  0  0  0  0  0  0  0  0
   10.9677   25.6903    7.4181 N   0  0  0  0  0  0  0  0  0  0  0  0
   10.4473   25.0677    6.4382 N   0  0  0  0  0  0  0  0  0  0  0  0
   10.7249   25.0057    5.1216 C   0  0  0  0  0  0  0  0  0  0  0  0
   11.8891   25.7373    4.7401 O   0  0  0  0  0  0  0  0  0  0  0  0
    9.6768   24.5125    6.6977 H   0  0  0  0  0  0  0  0  0  0  0  0
    9.8286   24.4742    4.2480 C   0  0  0  0  0  0  0  0  0  0  0  0
   10.2419   23.2224    3.4544 C   0  0  0  0  0  0  0  0  0  0  0  0
   10.9277   23.6266    2.1438 C   0  0  0  0  0  0  0  0  0  0  0  0
   11.1970   22.3699    4.2877 C   0  0  0  0  0  0  0  0  0  0  0  0
    8.9964   22.4042    3.1178 C   0  0  0  0  0  0  0  0  0  0  0  0
    9.4192   25.5104    3.2870 N   0  0  0  0  0  0  0  0  0  0  0  0
    8.1453   25.8965    3.1621 C   0  0  0  0  0  0  0  0  0  0  0  0
    7.2489   25.2982    3.7641 O   0  0  0  0  0  0  0  0  0  0  0  0
   10.1038   25.9320    2.7188 H   0  0  0  0  0  0  0  0  0  0  0  0
    7.8622   26.9572    2.3556 O   0  0  0  0  0  0  0  0  0  0  0  0
    7.7514   26.5670    0.9836 C   0  0  0  0  0  0  0  0  0  0  0  0
   10.1922   26.6788    7.9228 C   0  0  0  0  0  0  0  0  0  0  0  0
    8.8298   26.6809    7.6145 C   0  0  0  0  0  0  0  0  0  0  0  0
    7.8961   26.1816    8.5177 C   0  0  0  0  0  0  0  0  0  0  0  0
    6.5252   26.3151    8.2808 C   0  0  0  0  0  0  0  0  0  0  0  0
    8.3782   27.4600    6.5618 C   0  0  0  0  0  0  0  0  0  0  0  0
    7.0167   27.5688    6.3040 C   0  0  0  0  0  0  0  0  0  0  0  0
    6.0812   27.0109    7.1624 C   0  0  0  0  0  0  0  0  0  0  0  0
    4.7202   27.1655    6.8886 C   0  0  0  0  0  0  0  0  0  0  0  0
    4.1179   28.4111    7.0202 C   0  0  0  0  0  0  0  0  0  0  0  0
    2.7875   28.5908    6.6554 C   0  0  0  0  0  0  0  0  0  0  0  0
    2.0680   27.5449    6.0924 C   0  0  0  0  0  0  0  0  0  0  0  0
    2.6941   26.3154    5.8655 N   0  0  0  0  0  0  0  0  0  0  0  0
    4.0209   26.1293    6.2770 C   0  0  0  0  0  0  0  0  0  0  0  0
  4  5  1  0  0  0
  4 10  2  0  0  0
  5  6  2  0  0  0
  6  7  1  0  0  0
  6  8  1  0  0  0
  7 22  1  0  0  0
  8  9  2  0  0  0
  9 10  1  0  0  0
 10 11  1  0  0  0
 11 12  1  0  0  0
 12 13  2  0  0  0
 13 14  1  0  0  0
 14 15  1  0  0  0
 15 16  1  0  0  0
 16 17  2  0  0  0
 16 18  1  0  0  0
 18 27  1  0  0  0
 18 19  1  0  0  0
 27 28  1  0  0  0
 27 29  1  0  0  0
 19 20  1  0  0  0
 20 21  2  0  0  0
 20 22  1  0  0  0
 22 23  1  0  0  0
 22  3  1  0  0  0
  3  2  1  0  0  0
  2  1  1  0  0  0
  1 30  1  0  0  0
 30 31  1  0  0  0
 30 46  1  0  0  0
 31 32  1  0  0  0
 32 33  2  0  0  0
 32 35  1  0  0  0
 35 36  1  0  0  0
 35 40  1  0  0  0
 36 37  1  0  0  0
 36 38  1  0  0  0
 36 39  1  0  0  0
 40 41  1  0  0  0
 41 42  2  0  0  0
 41 44  1  0  0  0
 44 45  1  0  0  0
 46 47  1  0  0  0
 47 48  1  0  0  0
 47 50  2  0  0  0
 48 49  2  0  0  0
 49 52  1  0  0  0
 50 51  1  0  0  0
 51 52  2  0  0  0
 52 53  1  0  0  0
 53 54  1  0  0  0
 53 58  2  0  0  0
 54 55  2  0  0  0
 55 56  1  0  0  0
 56 57  2  0  0  0
 57 58  1  0  0  0
 15 24  1  0  0  0
 19 25  1  0  0  0
 23 26  1  0  0  0
 31 34  1  0  0  0
 40 43  1  0  0  0
M  END
> <minimizedAffinity>
-10.61370

$$$$
4CPT_1T8_B_1202


 58 61  0  0  0  0  0  0  0  0999 V2000
   14.1059   20.2858    5.5458 C   0  0  0  0  0  0  0  0  0  0  0  0
   13.1632   21.3152    6.1879 C   0  0  0  0  0  0  0  0  0  0  0  0
   13.6098   22.7570    5.8819 C   0  0  0  0  0  0  0  0  0  0  0  0
    8.4116   23.0616    3.0944 C   0  0  0  0  0  0  0  0  0  0  0  0
    9.5969   22.5443    3.6073 C   0  0  0  0  0  0  0  0  0  0  0  0
   10.7972   23.2313    3.4399 C   0  0  0  0  0  0  0  0  0  0  0  0
   11.9664   22.8102    4.0881 C   0  0  0  0  0  0  0  0  0  0  0  0
   10.8034   24.3935    2.6785 C   0  0  0  0  0  0  0  0  0  0  0  0
    9.6149   24.9226    2.1875 C   0  0  0  0  0  0  0  0  0  0  0  0
    8.4110   24.2578    2.3801 C   0  0  0  0  0  0  0  0  0  0  0  0
    7.2307   24.8149    1.8676 C   0  0  0  0  0  0  0  0  0  0  0  0
    6.1334   24.6254    2.7108 C   0  0  0  0  0  0  0  0  0  0  0  0
    5.8643   25.4174    3.8320 C   0  0  0  0  0  0  0  0  0  0  0  0
    6.7784   26.3296    4.3645 C   0  0  0  0  0  0  0  0  0  0  0  0
    7.5485   25.6764    5.4486 N   0  0  0  0  0  0  0  0  0  0  0  0
    8.7757   26.2066    5.8572 C   0  0  0  0  0  0  0  0  0  0  0  0
    9.1761   27.2218    5.2831 O   0  0  0  0  0  0  0  0  0  0  0  0
    9.6051   25.4740    6.7360 C   0  0  0  0  0  0  0  0  0  0  0  0
   10.8560   25.1111    6.0218 N   0  0  0  0  0  0  0  0  0  0  0  0
   11.4209   23.8301    6.0769 C   0  0  0  0  0  0  0  0  0  0  0  0
   10.8360   22.9440    6.7076 O   0  0  0  0  0  0  0  0  0  0  0  0
   12.4728   23.5385    5.1900 C   0  0  0  0  0  0  0  0  0  0  0  0
   13.0308   24.7780    4.7223 O   0  0  0  0  0  0  0  0  0  0  0  0
    7.1949   24.8665    5.8825 H   0  0  0  0  0  0  0  0  0  0  0  0
   11.3084   25.8018    5.4856 H   0  0  0  0  0  0  0  0  0  0  0  0
   12.3407   25.2969    4.2802 H   0  0  0  0  0  0  0  0  0  0  0  0
    9.9245   26.3355    7.9666 C   0  0  0  0  0  0  0  0  0  0  0  0
    8.6364   26.5950    8.7542 C   0  0  0  0  0  0  0  0  0  0  0  0
   10.9459   25.6262    8.8617 C   0  0  0  0  0  0  0  0  0  0  0  0
   15.5285   20.5710    5.8133 N   0  0  0  0  0  0  0  0  0  0  0  0
   15.9937   20.1979    6.9372 N   0  0  0  0  0  0  0  0  0  0  0  0
   16.5099   20.8532    7.9948 C   0  0  0  0  0  0  0  0  0  0  0  0
   16.4729   22.2742    7.8700 O   0  0  0  0  0  0  0  0  0  0  0  0
   15.9718   19.2214    7.0601 H   0  0  0  0  0  0  0  0  0  0  0  0
   17.1924   20.1823    8.9607 C   0  0  0  0  0  0  0  0  0  0  0  0
   18.7000   19.9508    8.7576 C   0  0  0  0  0  0  0  0  0  0  0  0
   19.4689   20.3047   10.0362 C   0  0  0  0  0  0  0  0  0  0  0  0
   18.9577   18.4892    8.3957 C   0  0  0  0  0  0  0  0  0  0  0  0
   19.2006   20.8476    7.6266 C   0  0  0  0  0  0  0  0  0  0  0  0
   16.5548   18.8749    9.1821 N   0  0  0  0  0  0  0  0  0  0  0  0
   16.2006   18.4575   10.4019 C   0  0  0  0  0  0  0  0  0  0  0  0
   16.5182   19.1080   11.4019 O   0  0  0  0  0  0  0  0  0  0  0  0
   16.3838   18.2899    8.4090 H   0  0  0  0  0  0  0  0  0  0  0  0
   15.4888   17.3014   10.5136 O   0  0  0  0  0  0  0  0  0  0  0  0
   16.3188   16.2014   10.8985 C   0  0  0  0  0  0  0  0  0  0  0  0
   16.3912   20.4264    4.7798 C   0  0  0  0  0  0  0  0  0  0  0  0
   17.1544   19.2589    4.7062 C   0  0  0  0  0  0  0  0  0  0  0  0
   18.4849   19.2528    5.1141 C   0  0  0  0  0  0  0  0  0  0  0  0
   19.2095   18.0597    5.1830 C   0  0  0  0  0  0  0  0  0  0  0  0
   16.5122   18.0438    4.5320 C   0  0  0  0  0  0  0  0  0  0  0  0
   17.2354   16.8574    4.5678 C   0  0  0  0  0  0  0  0  0  0  0  0
   18.5809   16.8518    4.9035 C   0  0  0  0  0  0  0  0  0  0  0  0
   19.2695   15.6378    4.9592 C   0  0  0  0  0  0  0  0  0  0  0  0
   20.6044   15.5732    4.5774 C   0  0  0  0  0  0  0  0  0  0  0  0
   21.3210   14.3898    4.7233 C   0  0  0  0  0  0  0  0  0  0  0  0
   20.7297   13.2812    5.3149 C   0  0  0  0  0  0  0  0  0  0  0  0
   19.4179   13.3662    5.7914 N   0  0  0  0  0  0  0  0  0  0  0  0
   18.6885   14.5476    5.6000 C   0  0  0  0  0  0  0  0  0  0  0  0
  4  5  1  0  0  0
  4 10  2  0  0  0
  5  6  2  0  0  0
  6  7  1  0  0  0
  6  8  1  0  0  0
  7 22  1  0  0  0
  8  9  2  0  0  0
  9 10  1  0  0  0
 10 11  1  0  0  0
 11 12  1  0  0  0
 12 13  2  0  0  0
 13 14  1  0  0  0
 14 15  1  0  0  0
 15 16  1  0  0  0
 16 17  2  0  0  0
 16 18  1  0  0  0
 18 27  1  0  0  0
 18 19  1  0  0  0
 27 28  1  0  0  0
 27 29  1  0  0  0
 19 20  1  0  0  0
 20 21  2  0  0  0
 20 22  1  0  0  0
 22 23  1  0  0  0
 22  3  1  0  0  0
  3  2  1  0  0  0
  2  1  1  0  0  0
  1 30  1  0  0  0
 30 31  1  0  0  0
 30 46  1  0  0  0
 31 32  1  0  0  0
 32 33  2  0  0  0
 32 35  1  0  0  0
 35 36  1  0  0  0
 35 40  1  0  0  0
 36 37  1  0  0  0
 36 38  1  0  0  0
 36 39  1  0  0  0
 40 41  1  0  0  0
 41 42  2  0  0  0
 41 44  1  0  0  0
 44 45  1  0  0  0
 46 47  1  0  0  0
 47 48  1  0  0  0
 47 50  2  0  0  0
 48 49  2  0  0  0
 49 52  1  0  0  0
 50 51  1  0  0  0
 51 52  2  0  0  0
 52 53  1  0  0  0
 53 54  1  0  0  0
 53 58  2  0  0  0
 54 55  2  0  0  0
 55 56  1  0  0  0
 56 57  2  0  0  0
 57 58  1  0  0  0
 15 24  1  0  0  0
 19 25  1  0  0  0
 23 26  1  0  0  0
 31 34  1  0  0  0
 40 43  1  0  0  0
M  END
> <minimizedAffinity>
-10.18366

$$$$
4CPT_1T8_B_1202


 58 61  0  0  0  0  0  0  0  0999 V2000
   13.7615   21.5376    2.8589 C   0  0  0  0  0  0  0  0  0  0  0  0
   14.2275   20.4552    3.8447 C   0  0  0  0  0  0  0  0  0  0  0  0
   15.6577   20.7276    4.3469 C   0  0  0  0  0  0  0  0  0  0  0  0
   19.8868   16.6056    4.4373 C   0  0  0  0  0  0  0  0  0  0  0  0
   19.0798   17.6478    3.9920 C   0  0  0  0  0  0  0  0  0  0  0  0
   17.6961   17.5811    4.1392 C   0  0  0  0  0  0  0  0  0  0  0  0
   16.8851   18.6865    3.8482 C   0  0  0  0  0  0  0  0  0  0  0  0
   17.1326   16.4212    4.6566 C   0  0  0  0  0  0  0  0  0  0  0  0
   17.9409   15.3909    5.1241 C   0  0  0  0  0  0  0  0  0  0  0  0
   19.3227   15.4672    5.0091 C   0  0  0  0  0  0  0  0  0  0  0  0
   20.1096   14.4089    5.4852 C   0  0  0  0  0  0  0  0  0  0  0  0
   21.2994   14.8428    6.0743 C   0  0  0  0  0  0  0  0  0  0  0  0
   21.3914   15.3262    7.3837 C   0  0  0  0  0  0  0  0  0  0  0  0
   20.2776   15.6459    8.1637 C   0  0  0  0  0  0  0  0  0  0  0  0
   19.9807   17.0909    8.0261 N   0  0  0  0  0  0  0  0  0  0  0  0
   18.7133   17.5825    8.3520 C   0  0  0  0  0  0  0  0  0  0  0  0
   17.8740   16.7718    8.7504 O   0  0  0  0  0  0  0  0  0  0  0  0
   18.3650   18.9123    8.0246 C   0  0  0  0  0  0  0  0  0  0  0  0
   17.2683   18.8864    7.0231 N   0  0  0  0  0  0  0  0  0  0  0  0
   17.2602   19.6975    5.8805 C   0  0  0  0  0  0  0  0  0  0  0  0
   18.2251   20.4371    5.6640 O   0  0  0  0  0  0  0  0  0  0  0  0
   16.2930   19.4319    4.8945 C   0  0  0  0  0  0  0  0  0  0  0  0
   15.2375   18.6578    5.4889 O   0  0  0  0  0  0  0  0  0  0  0  0
   20.6781   17.7067    7.7042 H   0  0  0  0  0  0  0  0  0  0  0  0
   16.5131   18.2718    7.1686 H   0  0  0  0  0  0  0  0  0  0  0  0
   15.6027   17.8327    5.8449 H   0  0  0  0  0  0  0  0  0  0  0  0
   17.9090   19.6437    9.2956 C   0  0  0  0  0  0  0  0  0  0  0  0
   16.4355   19.3233    9.5661 C   0  0  0  0  0  0  0  0  0  0  0  0
   18.7621   19.2117   10.4927 C   0  0  0  0  0  0  0  0  0  0  0  0
   12.6029   22.3025    3.3581 N   0  0  0  0  0  0  0  0  0  0  0  0
   12.7021   22.8144    4.5187 N   0  0  0  0  0  0  0  0  0  0  0  0
   12.2096   22.4823    5.7277 C   0  0  0  0  0  0  0  0  0  0  0  0
   11.4712   21.2613    5.7368 O   0  0  0  0  0  0  0  0  0  0  0  0
   13.2577   23.6269    4.5371 H   0  0  0  0  0  0  0  0  0  0  0  0
   12.2457   23.3683    6.7584 C   0  0  0  0  0  0  0  0  0  0  0  0
   11.3243   24.5988    6.6917 C   0  0  0  0  0  0  0  0  0  0  0  0
    9.8796   24.1664    6.4136 C   0  0  0  0  0  0  0  0  0  0  0  0
   11.3821   25.3643    8.0123 C   0  0  0  0  0  0  0  0  0  0  0  0
   11.7839   25.5127    5.5570 C   0  0  0  0  0  0  0  0  0  0  0  0
   13.6272   23.8410    6.9400 N   0  0  0  0  0  0  0  0  0  0  0  0
   14.5817   23.0579    7.4529 C   0  0  0  0  0  0  0  0  0  0  0  0
   14.2993   21.9476    7.9127 O   0  0  0  0  0  0  0  0  0  0  0  0
   13.8555   24.7615    6.6759 H   0  0  0  0  0  0  0  0  0  0  0  0
   15.8652   23.5146    7.4598 O   0  0  0  0  0  0  0  0  0  0  0  0
   16.6664   22.8337    8.4300 C   0  0  0  0  0  0  0  0  0  0  0  0
   11.9441   23.0772    2.4642 C   0  0  0  0  0  0  0  0  0  0  0  0
   10.6516   23.5047    2.7769 C   0  0  0  0  0  0  0  0  0  0  0  0
   10.2630   24.8209    2.5457 C   0  0  0  0  0  0  0  0  0  0  0  0
    8.9339   25.2178    2.7165 C   0  0  0  0  0  0  0  0  0  0  0  0
    9.6680   22.5587    3.0156 C   0  0  0  0  0  0  0  0  0  0  0  0
    8.3507   22.9530    3.2178 C   0  0  0  0  0  0  0  0  0  0  0  0
    7.9698   24.2770    3.0596 C   0  0  0  0  0  0  0  0  0  0  0  0
    6.6313   24.6327    3.2413 C   0  0  0  0  0  0  0  0  0  0  0  0
    5.6478   23.6519    3.2894 C   0  0  0  0  0  0  0  0  0  0  0  0
    4.3280   23.9927    3.5674 C   0  0  0  0  0  0  0  0  0  0  0  0
    3.9919   25.3064    3.8671 C   0  0  0  0  0  0  0  0  0  0  0  0
    4.9906   26.2837    3.9173 N   0  0  0  0  0  0  0  0  0  0  0  0
    6.3101   25.9406    3.5919 C   0  0  0  0  0  0  0  0  0  0  0  0
  4  5  1  0  0  0
  4 10  2  0  0  0
  5  6  2  0  0  0
  6  7  1  0  0  0
  6  8  1  0  0  0
  7 22  1  0  0  0
  8  9  2  0  0  0
  9 10  1  0  0  0
 10 11  1  0  0  0
 11 12  1  0  0  0
 12 13  2  0  0  0
 13 14  1  0  0  0
 14 15  1  0  0  0
 15 16  1  0  0  0
 16 17  2  0  0  0
 16 18  1  0  0  0
 18 27  1  0  0  0
 18 19  1  0  0  0
 27 28  1  0  0  0
 27 29  1  0  0  0
 19 20  1  0  0  0
 20 21  2  0  0  0
 20 22  1  0  0  0
 22 23  1  0  0  0
 22  3  1  0  0  0
  3  2  1  0  0  0
  2  1  1  0  0  0
  1 30  1  0  0  0
 30 31  1  0  0  0
 30 46  1  0  0  0
 31 32  1  0  0  0
 32 33  2  0  0  0
 32 35  1  0  0  0
 35 36  1  0  0  0
 35 40  1  0  0  0
 36 37  1  0  0  0
 36 38  1  0  0  0
 36 39  1  0  0  0
 40 41  1  0  0  0
 41 42  2  0  0  0
 41 44  1  0  0  0
 44 45  1  0  0  0
 46 47  1  0  0  0
 47 48  1  0  0  0
 47 50  2  0  0  0
 48 49  2  0  0  0
 49 52  1  0  0  0
 50 51  1  0  0  0
 51 52  2  0  0  0
 52 53  1  0  0  0
 53 54  1  0  0  0
 53 58  2  0  0  0
 54 55  2  0  0  0
 55 56  1  0  0  0
 56 57  2  0  0  0
 57 58  1  0  0  0
 15 24  1  0  0  0
 19 25  1  0  0  0
 23 26  1  0  0  0
 31 34  1  0  0  0
 40 43  1  0  0  0
M  END
> <minimizedAffinity>
-9.81312

$$$$
4CPT_1T8_B_1202


 58 61  0  0  0  0  0  0  0  0999 V2000
   15.3833   22.4876    6.9655 C   0  0  0  0  0  0  0  0  0  0  0  0
   13.9200   22.8789    6.7082 C   0  0  0  0  0  0  0  0  0  0  0  0
   13.4318   22.3685    5.3397 C   0  0  0  0  0  0  0  0  0  0  0  0
    8.0939   23.2493    2.9701 C   0  0  0  0  0  0  0  0  0  0  0  0
    9.2697   22.6129    3.3550 C   0  0  0  0  0  0  0  0  0  0  0  0
   10.5034   23.2272    3.1520 C   0  0  0  0  0  0  0  0  0  0  0  0
   11.6794   22.6768    3.6798 C   0  0  0  0  0  0  0  0  0  0  0  0
   10.5440   24.4432    2.4809 C   0  0  0  0  0  0  0  0  0  0  0  0
    9.3674   25.0898    2.1190 C   0  0  0  0  0  0  0  0  0  0  0  0
    8.1334   24.4958    2.3489 C   0  0  0  0  0  0  0  0  0  0  0  0
    6.9657   25.1714    1.9670 C   0  0  0  0  0  0  0  0  0  0  0  0
    5.9168   24.9911    2.8716 C   0  0  0  0  0  0  0  0  0  0  0  0
    5.7834   25.7078    4.0654 C   0  0  0  0  0  0  0  0  0  0  0  0
    6.7963   26.5100    4.5962 C   0  0  0  0  0  0  0  0  0  0  0  0
    7.5875   25.7214    5.5694 N   0  0  0  0  0  0  0  0  0  0  0  0
    8.8754   26.1321    5.9256 C   0  0  0  0  0  0  0  0  0  0  0  0
    9.3100   27.1599    5.4012 O   0  0  0  0  0  0  0  0  0  0  0  0
    9.7058   25.2768    6.6845 C   0  0  0  0  0  0  0  0  0  0  0  0
   10.8753   24.8871    5.8557 N   0  0  0  0  0  0  0  0  0  0  0  0
   11.3464   23.5700    5.7737 C   0  0  0  0  0  0  0  0  0  0  0  0
   10.7415   22.6788    6.3776 O   0  0  0  0  0  0  0  0  0  0  0  0
   12.3115   23.2787    4.7929 C   0  0  0  0  0  0  0  0  0  0  0  0
   12.9268   24.5103    4.3795 O   0  0  0  0  0  0  0  0  0  0  0  0
    7.2051   24.9057    5.9664 H   0  0  0  0  0  0  0  0  0  0  0  0
   11.3403   25.5857    5.3408 H   0  0  0  0  0  0  0  0  0  0  0  0
   12.2486   25.1088    4.0289 H   0  0  0  0  0  0  0  0  0  0  0  0
   10.1705   26.0137    7.9492 C   0  0  0  0  0  0  0  0  0  0  0  0
    9.0044   26.1122    8.9379 C   0  0  0  0  0  0  0  0  0  0  0  0
   11.3405   25.2682    8.5994 C   0  0  0  0  0  0  0  0  0  0  0  0
   15.5137   21.1862    7.6484 N   0  0  0  0  0  0  0  0  0  0  0  0
   15.7130   20.1646    6.9169 N   0  0  0  0  0  0  0  0  0  0  0  0
   16.7249   19.7750    6.1178 C   0  0  0  0  0  0  0  0  0  0  0  0
   17.8490   20.6538    6.1366 O   0  0  0  0  0  0  0  0  0  0  0  0
   14.9682   19.5210    6.9398 H   0  0  0  0  0  0  0  0  0  0  0  0
   16.5553   18.7603    5.2287 C   0  0  0  0  0  0  0  0  0  0  0  0
   17.7416   17.8152    4.9696 C   0  0  0  0  0  0  0  0  0  0  0  0
   18.6650   17.7736    6.1932 C   0  0  0  0  0  0  0  0  0  0  0  0
   17.2295   16.4077    4.6692 C   0  0  0  0  0  0  0  0  0  0  0  0
   18.5434   18.3274    3.7743 C   0  0  0  0  0  0  0  0  0  0  0  0
   16.1243   19.3177    3.9370 N   0  0  0  0  0  0  0  0  0  0  0  0
   14.8420   19.3179    3.5586 C   0  0  0  0  0  0  0  0  0  0  0  0
   13.9914   18.7287    4.2319 O   0  0  0  0  0  0  0  0  0  0  0  0
   16.8004   19.7021    3.3334 H   0  0  0  0  0  0  0  0  0  0  0  0
   14.5001   19.9764    2.4161 O   0  0  0  0  0  0  0  0  0  0  0  0
   15.1964   19.4617    1.2772 C   0  0  0  0  0  0  0  0  0  0  0  0
   16.1910   21.1703    8.8207 C   0  0  0  0  0  0  0  0  0  0  0  0
   16.5900   19.9382    9.3439 C   0  0  0  0  0  0  0  0  0  0  0  0
   17.9337   19.6725    9.5904 C   0  0  0  0  0  0  0  0  0  0  0  0
   18.3255   18.5037   10.2490 C   0  0  0  0  0  0  0  0  0  0  0  0
   15.6382   19.1067    9.9112 C   0  0  0  0  0  0  0  0  0  0  0  0
   16.0222   17.9275   10.5387 C   0  0  0  0  0  0  0  0  0  0  0  0
   17.3620   17.6212   10.7237 C   0  0  0  0  0  0  0  0  0  0  0  0
   17.7117   16.4418   11.3853 C   0  0  0  0  0  0  0  0  0  0  0  0
   16.7797   15.7827   12.1784 C   0  0  0  0  0  0  0  0  0  0  0  0
   17.0921   14.5581   12.7599 C   0  0  0  0  0  0  0  0  0  0  0  0
   18.3127   13.9494   12.4984 C   0  0  0  0  0  0  0  0  0  0  0  0
   19.2180   14.5581   11.6238 N   0  0  0  0  0  0  0  0  0  0  0  0
   18.9143   15.8127   11.0778 C   0  0  0  0  0  0  0  0  0  0  0  0
  4  5  1  0  0  0
  4 10  2  0  0  0
  5  6  2  0  0  0
  6  7  1  0  0  0
  6  8  1  0  0  0
  7 22  1  0  0  0
  8  9  2  0  0  0
  9 10  1  0  0  0
 10 11  1  0  0  0
 11 12  1  0  0  0
 12 13  2  0  0  0
 13 14  1  0  0  0
 14 15  1  0  0  0
 15 16  1  0  0  0
 16 17  2  0  0  0
 16 18  1  0  0  0
 18 27  1  0  0  0
 18 19  1  0  0  0
 27 28  1  0  0  0
 27 29  1  0  0  0
 19 20  1  0  0  0
 20 21  2  0  0  0
 20 22  1  0  0  0
 22 23  1  0  0  0
 22  3  1  0  0  0
  3  2  1  0  0  0
  2  1  1  0  0  0
  1 30  1  0  0  0
 30 31  1  0  0  0
 30 46  1  0  0  0
 31 32  1  0  0  0
 32 33  2  0  0  0
 32 35  1  0  0  0
 35 36  1  0  0  0
 35 40  1  0  0  0
 36 37  1  0  0  0
 36 38  1  0  0  0
 36 39  1  0  0  0
 40 41  1  0  0  0
 41 42  2  0  0  0
 41 44  1  0  0  0
 44 45  1  0  0  0
 46 47  1  0  0  0
 47 48  1  0  0  0
 47 50  2  0  0  0
 48 49  2  0  0  0
 49 52  1  0  0  0
 50 51  1  0  0  0
 51 52  2  0  0  0
 52 53  1  0  0  0
 53 54  1  0  0  0
 53 58  2  0  0  0
 54 55  2  0  0  0
 55 56  1  0  0  0
 56 57  2  0  0  0
 57 58  1  0  0  0
 15 24  1  0  0  0
 19 25  1  0  0  0
 23 26  1  0  0  0
 31 34  1  0  0  0
 40 43  1  0  0  0
M  END
> <minimizedAffinity>
-9.61465

$$$$
4CPT_1T8_B_1202


 58 61  0  0  0  0  0  0  0  0999 V2000
   16.4887   20.2640    8.1304 C   0  0  0  0  0  0  0  0  0  0  0  0
   16.1713   21.2896    7.0313 C   0  0  0  0  0  0  0  0  0  0  0  0
   15.5078   22.5521    7.6123 C   0  0  0  0  0  0  0  0  0  0  0  0
   11.0282   25.8953    5.7043 C   0  0  0  0  0  0  0  0  0  0  0  0
   12.1958   25.5153    6.3586 C   0  0  0  0  0  0  0  0  0  0  0  0
   12.2419   24.3291    7.0875 C   0  0  0  0  0  0  0  0  0  0  0  0
   13.4502   23.8513    7.6130 C   0  0  0  0  0  0  0  0  0  0  0  0
   11.0797   23.5796    7.2217 C   0  0  0  0  0  0  0  0  0  0  0  0
    9.9205   23.9470    6.5474 C   0  0  0  0  0  0  0  0  0  0  0  0
    9.8794   25.1120    5.7927 C   0  0  0  0  0  0  0  0  0  0  0  0
    8.6935   25.4575    5.1293 C   0  0  0  0  0  0  0  0  0  0  0  0
    8.9228   26.0375    3.8795 C   0  0  0  0  0  0  0  0  0  0  0  0
    9.2037   25.3076    2.7197 C   0  0  0  0  0  0  0  0  0  0  0  0
    9.5145   23.9458    2.7264 C   0  0  0  0  0  0  0  0  0  0  0  0
   10.9860   23.7785    2.7646 N   0  0  0  0  0  0  0  0  0  0  0  0
   11.5456   22.5696    3.1886 C   0  0  0  0  0  0  0  0  0  0  0  0
   10.7707   21.6702    3.5217 O   0  0  0  0  0  0  0  0  0  0  0  0
   12.9357   22.4785    3.4256 C   0  0  0  0  0  0  0  0  0  0  0  0
   13.1582   22.2191    4.8712 N   0  0  0  0  0  0  0  0  0  0  0  0
   14.1207   22.8999    5.6284 C   0  0  0  0  0  0  0  0  0  0  0  0
   14.7875   23.7890    5.0900 O   0  0  0  0  0  0  0  0  0  0  0  0
   14.0923   22.7364    7.0251 C   0  0  0  0  0  0  0  0  0  0  0  0
   13.3465   21.5457    7.3290 O   0  0  0  0  0  0  0  0  0  0  0  0
   11.5716   24.5210    2.4907 H   0  0  0  0  0  0  0  0  0  0  0  0
   12.6044   21.5382    5.3173 H   0  0  0  0  0  0  0  0  0  0  0  0
   12.4479   21.6273    6.9730 H   0  0  0  0  0  0  0  0  0  0  0  0
   13.5190   21.3348    2.5828 C   0  0  0  0  0  0  0  0  0  0  0  0
   14.6459   21.8781    1.6985 C   0  0  0  0  0  0  0  0  0  0  0  0
   14.0612   20.2273    3.4921 C   0  0  0  0  0  0  0  0  0  0  0  0
   17.8668   19.7441    8.0440 N   0  0  0  0  0  0  0  0  0  0  0  0
   18.0510   18.7036    7.3354 N   0  0  0  0  0  0  0  0  0  0  0  0
   18.6889   18.4705    6.1721 C   0  0  0  0  0  0  0  0  0  0  0  0
   19.3632   19.6113    5.6428 O   0  0  0  0  0  0  0  0  0  0  0  0
   17.6391   17.8960    7.7194 H   0  0  0  0  0  0  0  0  0  0  0  0
   18.4919   17.3087    5.4938 C   0  0  0  0  0  0  0  0  0  0  0  0
   19.4702   16.1473    5.7422 C   0  0  0  0  0  0  0  0  0  0  0  0
   20.3756   15.9448    4.5213 C   0  0  0  0  0  0  0  0  0  0  0  0
   20.3290   16.4441    6.9702 C   0  0  0  0  0  0  0  0  0  0  0  0
   18.6786   14.8620    5.9774 C   0  0  0  0  0  0  0  0  0  0  0  0
   18.4739   17.5904    4.0497 N   0  0  0  0  0  0  0  0  0  0  0  0
   17.3316   17.7527    3.3743 C   0  0  0  0  0  0  0  0  0  0  0  0
   16.2459   17.5413    3.9224 O   0  0  0  0  0  0  0  0  0  0  0  0
   19.3287   17.6615    3.5664 H   0  0  0  0  0  0  0  0  0  0  0  0
   17.3952   18.1503    2.0729 O   0  0  0  0  0  0  0  0  0  0  0  0
   16.2172   17.7855    1.3475 C   0  0  0  0  0  0  0  0  0  0  0  0
   18.8655   20.6548    7.9630 C   0  0  0  0  0  0  0  0  0  0  0  0
   19.7875   20.7285    9.0096 C   0  0  0  0  0  0  0  0  0  0  0  0
   20.5634   21.8690    9.1941 C   0  0  0  0  0  0  0  0  0  0  0  0
   21.3780   22.0089   10.3212 C   0  0  0  0  0  0  0  0  0  0  0  0
   19.7078   19.8105   10.0440 C   0  0  0  0  0  0  0  0  0  0  0  0
   20.5391   19.9286   11.1516 C   0  0  0  0  0  0  0  0  0  0  0  0
   21.3692   21.0286   11.3067 C   0  0  0  0  0  0  0  0  0  0  0  0
   22.1693   21.1295   12.4471 C   0  0  0  0  0  0  0  0  0  0  0  0
   22.8261   22.3196   12.7371 C   0  0  0  0  0  0  0  0  0  0  0  0
   23.5442   22.4561   13.9207 C   0  0  0  0  0  0  0  0  0  0  0  0
   23.5555   21.4293   14.8556 C   0  0  0  0  0  0  0  0  0  0  0  0
   22.8177   20.2658   14.6170 N   0  0  0  0  0  0  0  0  0  0  0  0
   22.1337   20.1183   13.4025 C   0  0  0  0  0  0  0  0  0  0  0  0
  4  5  1  0  0  0
  4 10  2  0  0  0
  5  6  2  0  0  0
  6  7  1  0  0  0
  6  8  1  0  0  0
  7 22  1  0  0  0
  8  9  2  0  0  0
  9 10  1  0  0  0
 10 11  1  0  0  0
 11 12  1  0  0  0
 12 13  2  0  0  0
 13 14  1  0  0  0
 14 15  1  0  0  0
 15 16  1  0  0  0
 16 17  2  0  0  0
 16 18  1  0  0  0
 18 27  1  0  0  0
 18 19  1  0  0  0
 27 28  1  0  0  0
 27 29  1  0  0  0
 19 20  1  0  0  0
 20 21  2  0  0  0
 20 22  1  0  0  0
 22 23  1  0  0  0
 22  3  1  0  0  0
  3  2  1  0  0  0
  2  1  1  0  0  0
  1 30  1  0  0  0
 30 31  1  0  0  0
 30 46  1  0  0  0
 31 32  1  0  0  0
 32 33  2  0  0  0
 32 35  1  0  0  0
 35 36  1  0  0  0
 35 40  1  0  0  0
 36 37  1  0  0  0
 36 38  1  0  0  0
 36 39  1  0  0  0
 40 41  1  0  0  0
 41 42  2  0  0  0
 41 44  1  0  0  0
 44 45  1  0  0  0
 46 47  1  0  0  0
 47 48  1  0  0  0
 47 50  2  0  0  0
 48 49  2  0  0  0
 49 52  1  0  0  0
 50 51  1  0  0  0
 51 52  2  0  0  0
 52 53  1  0  0  0
 53 54  1  0  0  0
 53 58  2  0  0  0
 54 55  2  0  0  0
 55 56  1  0  0  0
 56 57  2  0  0  0
 57 58  1  0  0  0
 15 24  1  0  0  0
 19 25  1  0  0  0
 23 26  1  0  0  0
 31 34  1  0  0  0
 40 43  1  0  0  0
M  END
> <minimizedAffinity>
-9.18209

$$$$
4CPT_1T8_B_1202


 58 61  0  0  0  0  0  0  0  0999 V2000
   14.2202   21.2269    3.0090 C   0  0  0  0  0  0  0  0  0  0  0  0
   14.7771   20.2678    4.0723 C   0  0  0  0  0  0  0  0  0  0  0  0
   16.3156   20.3130    4.1224 C   0  0  0  0  0  0  0  0  0  0  0  0
   20.3358   16.0192    4.6561 C   0  0  0  0  0  0  0  0  0  0  0  0
   19.5934   17.0607    4.1086 C   0  0  0  0  0  0  0  0  0  0  0  0
   18.2045   17.0692    4.2156 C   0  0  0  0  0  0  0  0  0  0  0  0
   17.4566   18.1855    3.8170 C   0  0  0  0  0  0  0  0  0  0  0  0
   17.5708   15.9792    4.7995 C   0  0  0  0  0  0  0  0  0  0  0  0
   18.3145   14.9511    5.3682 C   0  0  0  0  0  0  0  0  0  0  0  0
   19.7011   14.9547    5.2926 C   0  0  0  0  0  0  0  0  0  0  0  0
   20.4219   13.9004    5.8713 C   0  0  0  0  0  0  0  0  0  0  0  0
   21.6138   14.3225    6.4646 C   0  0  0  0  0  0  0  0  0  0  0  0
   21.6914   14.8991    7.7367 C   0  0  0  0  0  0  0  0  0  0  0  0
   20.5724   15.3282    8.4543 C   0  0  0  0  0  0  0  0  0  0  0  0
   20.3499   16.7707    8.2000 N   0  0  0  0  0  0  0  0  0  0  0  0
   19.0989   17.3435    8.4472 C   0  0  0  0  0  0  0  0  0  0  0  0
   18.2103   16.6049    8.8775 O   0  0  0  0  0  0  0  0  0  0  0  0
   18.8250   18.6593    8.0106 C   0  0  0  0  0  0  0  0  0  0  0  0
   17.7575   18.6080    6.9789 N   0  0  0  0  0  0  0  0  0  0  0  0
   17.8216   19.3296    5.7794 C   0  0  0  0  0  0  0  0  0  0  0  0
   18.8270   20.0053    5.5398 O   0  0  0  0  0  0  0  0  0  0  0  0
   16.8715   19.0347    4.7852 C   0  0  0  0  0  0  0  0  0  0  0  0
   15.7631   18.3575    5.4012 O   0  0  0  0  0  0  0  0  0  0  0  0
   21.0853   17.3275    7.8558 H   0  0  0  0  0  0  0  0  0  0  0  0
   16.9696   18.0417    7.1453 H   0  0  0  0  0  0  0  0  0  0  0  0
   16.0775   17.5459    5.8292 H   0  0  0  0  0  0  0  0  0  0  0  0
   18.3686   19.5053    9.2083 C   0  0  0  0  0  0  0  0  0  0  0  0
   18.9035   20.9328    9.0560 C   0  0  0  0  0  0  0  0  0  0  0  0
   16.8388   19.5305    9.2894 C   0  0  0  0  0  0  0  0  0  0  0  0
   13.0660   22.0077    3.4941 N   0  0  0  0  0  0  0  0  0  0  0  0
   13.1433   22.4878    4.6698 N   0  0  0  0  0  0  0  0  0  0  0  0
   14.0291   23.2899    5.2913 C   0  0  0  0  0  0  0  0  0  0  0  0
   15.0747   23.7643    4.4440 O   0  0  0  0  0  0  0  0  0  0  0  0
   12.3958   22.2145    5.2492 H   0  0  0  0  0  0  0  0  0  0  0  0
   14.0145   23.4222    6.6445 C   0  0  0  0  0  0  0  0  0  0  0  0
   14.7460   22.3622    7.4863 C   0  0  0  0  0  0  0  0  0  0  0  0
   14.0050   21.0217    7.4137 C   0  0  0  0  0  0  0  0  0  0  0  0
   16.1735   22.1841    6.9723 C   0  0  0  0  0  0  0  0  0  0  0  0
   14.7866   22.8156    8.9446 C   0  0  0  0  0  0  0  0  0  0  0  0
   12.6194   23.4907    7.1073 N   0  0  0  0  0  0  0  0  0  0  0  0
   12.0570   24.6407    7.4927 C   0  0  0  0  0  0  0  0  0  0  0  0
   12.7371   25.6659    7.5945 O   0  0  0  0  0  0  0  0  0  0  0  0
   12.0841   22.6649    7.1340 H   0  0  0  0  0  0  0  0  0  0  0  0
   10.7239   24.6522    7.7729 O   0  0  0  0  0  0  0  0  0  0  0  0
   10.3080   25.9040    8.3269 C   0  0  0  0  0  0  0  0  0  0  0  0
   12.4527   22.8205    2.6017 C   0  0  0  0  0  0  0  0  0  0  0  0
   11.1420   23.2277    2.8613 C   0  0  0  0  0  0  0  0  0  0  0  0
   10.8875   24.4315    3.5116 C   0  0  0  0  0  0  0  0  0  0  0  0
    9.5828   24.9150    3.6426 C   0  0  0  0  0  0  0  0  0  0  0  0
   10.0982   22.6018    2.1995 C   0  0  0  0  0  0  0  0  0  0  0  0
    8.7953   23.0607    2.3534 C   0  0  0  0  0  0  0  0  0  0  0  0
    8.5268   24.2219    3.0623 C   0  0  0  0  0  0  0  0  0  0  0  0
    7.2084   24.6703    3.1714 C   0  0  0  0  0  0  0  0  0  0  0  0
    6.1589   23.7591    3.1823 C   0  0  0  0  0  0  0  0  0  0  0  0
    4.8534   24.1929    3.3888 C   0  0  0  0  0  0  0  0  0  0  0  0
    4.5934   25.5311    3.6541 C   0  0  0  0  0  0  0  0  0  0  0  0
    5.6530   26.4392    3.7422 N   0  0  0  0  0  0  0  0  0  0  0  0
    6.9603   26.0024    3.4886 C   0  0  0  0  0  0  0  0  0  0  0  0
  4  5  1  0  0  0
  4 10  2  0  0  0
  5  6  2  0  0  0
  6  7  1  0  0  0
  6  8  1  0  0  0
  7 22  1  0  0  0
  8  9  2  0  0  0
  9 10  1  0  0  0
 10 11  1  0  0  0
 11 12  1  0  0  0
 12 13  2  0  0  0
 13 14  1  0  0  0
 14 15  1  0  0  0
 15 16  1  0  0  0
 16 17  2  0  0  0
 16 18  1  0  0  0
 18 27  1  0  0  0
 18 19  1  0  0  0
 27 28  1  0  0  0
 27 29  1  0  0  0
 19 20  1  0  0  0
 20 21  2  0  0  0
 20 22  1  0  0  0
 22 23  1  0  0  0
 22  3  1  0  0  0
  3  2  1  0  0  0
  2  1  1  0  0  0
  1 30  1  0  0  0
 30 31  1  0  0  0
 30 46  1  0  0  0
 31 32  1  0  0  0
 32 33  2  0  0  0
 32 35  1  0  0  0
 35 36  1  0  0  0
 35 40  1  0  0  0
 36 37  1  0  0  0
 36 38  1  0  0  0
 36 39  1  0  0  0
 40 41  1  0  0  0
 41 42  2  0  0  0
 41 44  1  0  0  0
 44 45  1  0  0  0
 46 47  1  0  0  0
 47 48  1  0  0  0
 47 50  2  0  0  0
 48 49  2  0  0  0
 49 52  1  0  0  0
 50 51  1  0  0  0
 51 52  2  0  0  0
 52 53  1  0  0  0
 53 54  1  0  0  0
 53 58  2  0  0  0
 54 55  2  0  0  0
 55 56  1  0  0  0
 56 57  2  0  0  0
 57 58  1  0  0  0
 15 24  1  0  0  0
 19 25  1  0  0  0
 23 26  1  0  0  0
 31 34  1  0  0  0
 40 43  1  0  0  0
M  END
> <minimizedAffinity>
-9.12338

$$$$
