2PQB_GG9_A_501


 35 35  0  0  0  0  0  0  0  0999 V2000
 -127.6792   32.1607  127.5935 C   0  0  0  0  0  0  0  0  0  0  0  0
 -127.3870   32.4530  126.1921 C   0  0  0  0  0  0  0  0  0  0  0  0
 -128.5256   32.3515  125.1602 C   0  0  0  0  0  0  0  0  0  0  0  0
 -129.9876   32.3863  125.7994 C   0  0  0  0  0  0  0  0  0  0  0  0
 -130.1111   31.3486  126.9451 C   0  0  0  0  0  0  0  0  0  0  0  0
 -129.0628   31.7841  128.0682 C   0  0  0  0  0  0  0  0  0  0  0  0
 -130.8816   32.1777  124.6907 O   0  0  0  0  0  0  0  0  0  0  0  0
 -130.6665   31.3379  124.2556 H   0  0  0  0  0  0  0  0  0  0  0  0
 -126.5391   32.2327  128.5885 C   0  0  0  0  0  0  0  0  0  0  0  0
 -125.4157   32.3279  128.1173 O   0  0  0  0  0  0  0  0  0  0  0  0
 -126.8006   32.1628  129.7885 O   0  0  0  0  0  0  0  0  0  0  0  0
 -127.6912   32.0913  130.0705 H   0  0  0  0  0  0  0  0  0  0  0  0
 -128.4102   31.1009  124.2748 O   0  0  0  0  0  0  0  0  0  0  0  0
 -127.4078   31.0181  122.9688 P   0  0  0  0  0  0  0  0  0  0  0  0
 -127.6730   32.2518  122.0732 O   0  0  0  0  0  0  0  0  0  0  0  0
 -127.7960   29.6526  122.3108 O   0  0  0  0  0  0  0  0  0  0  0  0
 -125.9988   31.2049  123.5580 O   0  0  0  0  0  0  0  0  0  0  0  0
 -127.4092   33.0570  122.5455 H   0  0  0  0  0  0  0  0  0  0  0  0
 -127.6024   28.9297  122.9279 H   0  0  0  0  0  0  0  0  0  0  0  0
 -131.4623   31.3651  127.4953 O   0  0  0  0  0  0  0  0  0  0  0  0
 -132.4654   30.3142  127.2728 C   0  0  0  0  0  0  0  0  0  0  0  0
 -133.7174   30.8277  127.9505 C   0  0  0  0  0  0  0  0  0  0  0  0
 -133.5400   31.9916  128.4493 O   0  0  0  0  0  0  0  0  0  0  0  0
 -134.7605   30.2007  128.0219 O   0  0  0  0  0  0  0  0  0  0  0  0
 -134.8235   29.3503  127.6335 H   0  0  0  0  0  0  0  0  0  0  0  0
 -132.6982   29.9072  125.7704 C   0  0  0  0  0  0  0  0  0  0  0  0
 -131.6496   29.2908  125.2981 F   0  0  0  0  0  0  0  0  0  0  0  0
 -133.7190   29.1246  125.7208 F   0  0  0  0  0  0  0  0  0  0  0  0
 -131.5575   29.3951  127.9704 O   0  0  0  0  0  0  0  0  0  0  0  0
 -131.9884   27.8817  128.5108 P   0  0  0  0  0  0  0  0  0  0  0  0
 -130.8340   27.2229  129.1953 O   0  0  0  0  0  0  0  0  0  0  0  0
 -132.3974   27.0529  127.3080 O   0  0  0  0  0  0  0  0  0  0  0  0
 -133.1724   28.0318  129.5134 O   0  0  0  0  0  0  0  0  0  0  0  0
 -132.6535   26.1640  127.5998 H   0  0  0  0  0  0  0  0  0  0  0  0
 -133.4347   27.1559  129.8373 H   0  0  0  0  0  0  0  0  0  0  0  0
  1  9  1  0  0  0
  1  2  2  0  0  0
  1  6  1  0  0  0
  2  3  1  0  0  0
  3 13  1  0  0  0
  3  4  1  0  0  0
  4  5  1  0  0  0
  4  7  1  0  0  0
  5  6  1  0  0  0
  5 20  1  0  0  0
  9 10  2  0  0  0
  9 11  1  0  0  0
 13 14  1  0  0  0
 20 21  1  0  0  0
 14 17  2  0  0  0
 14 15  1  0  0  0
 14 16  1  0  0  0
 21 29  1  0  0  0
 21 26  1  0  0  0
 21 22  1  0  0  0
 26 27  1  0  0  0
 26 28  1  0  0  0
 22 23  2  0  0  0
 22 24  1  0  0  0
 30 31  2  0  0  0
 30 33  1  0  0  0
 30 32  1  0  0  0
 30 29  1  0  0  0
  7  8  1  0  0  0
 11 12  1  0  0  0
 15 18  1  0  0  0
 16 19  1  0  0  0
 24 25  1  0  0  0
 32 34  1  0  0  0
 33 35  1  0  0  0
M  END
> <minimizedAffinity>
-11.81007

$$$$
2PQB_GG9_A_501


 35 35  0  0  0  0  0  0  0  0999 V2000
 -127.7170   30.3710  123.2573 C   0  0  0  0  0  0  0  0  0  0  0  0
 -127.0438   31.6626  123.1415 C   0  0  0  0  0  0  0  0  0  0  0  0
 -127.2520   32.7096  124.2514 C   0  0  0  0  0  0  0  0  0  0  0  0
 -127.8061   32.1048  125.6205 C   0  0  0  0  0  0  0  0  0  0  0  0
 -129.0613   31.2303  125.3665 C   0  0  0  0  0  0  0  0  0  0  0  0
 -128.5916   30.0193  124.4375 C   0  0  0  0  0  0  0  0  0  0  0  0
 -128.0221   33.2468  126.4694 O   0  0  0  0  0  0  0  0  0  0  0  0
 -128.6373   33.8595  126.0369 H   0  0  0  0  0  0  0  0  0  0  0  0
 -127.5275   29.3667  122.1391 C   0  0  0  0  0  0  0  0  0  0  0  0
 -126.6442   28.5379  122.3008 O   0  0  0  0  0  0  0  0  0  0  0  0
 -128.2388   29.4583  121.1395 O   0  0  0  0  0  0  0  0  0  0  0  0
 -128.8967   30.1239  121.0921 H   0  0  0  0  0  0  0  0  0  0  0  0
 -128.1770   33.8564  123.8153 O   0  0  0  0  0  0  0  0  0  0  0  0
 -127.6135   35.2671  123.1752 P   0  0  0  0  0  0  0  0  0  0  0  0
 -126.0979   35.1079  122.9064 O   0  0  0  0  0  0  0  0  0  0  0  0
 -127.9619   36.3204  124.2785 O   0  0  0  0  0  0  0  0  0  0  0  0
 -128.2911   35.3572  121.7968 O   0  0  0  0  0  0  0  0  0  0  0  0
 -125.9604   34.4419  122.2147 H   0  0  0  0  0  0  0  0  0  0  0  0
 -128.9243   36.3647  124.3909 H   0  0  0  0  0  0  0  0  0  0  0  0
 -129.5789   30.7143  126.6293 O   0  0  0  0  0  0  0  0  0  0  0  0
 -131.0034   30.5003  126.9206 C   0  0  0  0  0  0  0  0  0  0  0  0
 -131.3738   31.6177  127.8717 C   0  0  0  0  0  0  0  0  0  0  0  0
 -130.4700   32.5214  127.9122 O   0  0  0  0  0  0  0  0  0  0  0  0
 -132.4015   31.6432  128.5270 O   0  0  0  0  0  0  0  0  0  0  0  0
 -133.0237   30.9469  128.4498 H   0  0  0  0  0  0  0  0  0  0  0  0
 -131.9472   30.4198  125.6638 C   0  0  0  0  0  0  0  0  0  0  0  0
 -131.6646   29.3653  124.9491 F   0  0  0  0  0  0  0  0  0  0  0  0
 -133.1632   30.3475  126.0797 F   0  0  0  0  0  0  0  0  0  0  0  0
 -130.6298   29.1746  127.4294 O   0  0  0  0  0  0  0  0  0  0  0  0
 -131.6980   28.0972  128.1122 P   0  0  0  0  0  0  0  0  0  0  0  0
 -132.7968   28.8261  128.8169 O   0  0  0  0  0  0  0  0  0  0  0  0
 -130.9352   27.2509  129.1137 O   0  0  0  0  0  0  0  0  0  0  0  0
 -132.3018   27.2125  126.9798 O   0  0  0  0  0  0  0  0  0  0  0  0
 -131.5396   26.6137  129.5254 H   0  0  0  0  0  0  0  0  0  0  0  0
 -132.9275   26.5785  127.3637 H   0  0  0  0  0  0  0  0  0  0  0  0
  1  9  1  0  0  0
  1  2  2  0  0  0
  1  6  1  0  0  0
  2  3  1  0  0  0
  3 13  1  0  0  0
  3  4  1  0  0  0
  4  5  1  0  0  0
  4  7  1  0  0  0
  5  6  1  0  0  0
  5 20  1  0  0  0
  9 10  2  0  0  0
  9 11  1  0  0  0
 13 14  1  0  0  0
 20 21  1  0  0  0
 14 17  2  0  0  0
 14 15  1  0  0  0
 14 16  1  0  0  0
 21 29  1  0  0  0
 21 26  1  0  0  0
 21 22  1  0  0  0
 26 27  1  0  0  0
 26 28  1  0  0  0
 22 23  2  0  0  0
 22 24  1  0  0  0
 30 31  2  0  0  0
 30 33  1  0  0  0
 30 32  1  0  0  0
 30 29  1  0  0  0
  7  8  1  0  0  0
 11 12  1  0  0  0
 15 18  1  0  0  0
 16 19  1  0  0  0
 24 25  1  0  0  0
 32 34  1  0  0  0
 33 35  1  0  0  0
M  END
> <minimizedAffinity>
-9.91154

$$$$
2PQB_GG9_A_501


 35 35  0  0  0  0  0  0  0  0999 V2000
 -127.7806   31.9405  127.8841 C   0  0  0  0  0  0  0  0  0  0  0  0
 -127.6485   32.4743  126.5305 C   0  0  0  0  0  0  0  0  0  0  0  0
 -128.7991   32.2545  125.5310 C   0  0  0  0  0  0  0  0  0  0  0  0
 -130.1898   31.8715  126.2140 C   0  0  0  0  0  0  0  0  0  0  0  0
 -130.0094   30.6905  127.2027 C   0  0  0  0  0  0  0  0  0  0  0  0
 -129.0145   31.2001  128.3431 C   0  0  0  0  0  0  0  0  0  0  0  0
 -131.0835   31.6140  125.1155 O   0  0  0  0  0  0  0  0  0  0  0  0
 -130.7163   30.9102  124.5580 H   0  0  0  0  0  0  0  0  0  0  0  0
 -126.6243   32.1370  128.8429 C   0  0  0  0  0  0  0  0  0  0  0  0
 -126.4789   33.2646  129.2906 O   0  0  0  0  0  0  0  0  0  0  0  0
 -125.8945   31.1776  129.0887 O   0  0  0  0  0  0  0  0  0  0  0  0
 -126.0738   30.3420  128.7044 H   0  0  0  0  0  0  0  0  0  0  0  0
 -128.4667   31.1913  124.4725 O   0  0  0  0  0  0  0  0  0  0  0  0
 -127.4603   31.4798  123.1991 P   0  0  0  0  0  0  0  0  0  0  0  0
 -127.7006   30.3853  122.1318 O   0  0  0  0  0  0  0  0  0  0  0  0
 -126.0399   31.4363  123.8537 O   0  0  0  0  0  0  0  0  0  0  0  0
 -127.9791   32.7961  122.5946 O   0  0  0  0  0  0  0  0  0  0  0  0
 -128.5972   30.4751  121.7727 H   0  0  0  0  0  0  0  0  0  0  0  0
 -125.9638   32.1479  124.5086 H   0  0  0  0  0  0  0  0  0  0  0  0
 -131.2937   30.3268  127.7916 O   0  0  0  0  0  0  0  0  0  0  0  0
 -131.8386   28.9622  127.8248 C   0  0  0  0  0  0  0  0  0  0  0  0
 -131.8995   28.5368  126.3737 C   0  0  0  0  0  0  0  0  0  0  0  0
 -133.0148   27.9781  126.0926 O   0  0  0  0  0  0  0  0  0  0  0  0
 -130.9904   28.6963  125.5773 O   0  0  0  0  0  0  0  0  0  0  0  0
 -130.1972   29.1144  125.8493 H   0  0  0  0  0  0  0  0  0  0  0  0
 -131.0581   27.9433  128.7356 C   0  0  0  0  0  0  0  0  0  0  0  0
 -131.8937   27.1688  129.3718 F   0  0  0  0  0  0  0  0  0  0  0  0
 -130.2978   27.2309  127.9797 F   0  0  0  0  0  0  0  0  0  0  0  0
 -133.0196   29.5235  128.4926 O   0  0  0  0  0  0  0  0  0  0  0  0
 -133.9685   30.7341  127.8585 P   0  0  0  0  0  0  0  0  0  0  0  0
 -135.4143   30.4546  128.1171 O   0  0  0  0  0  0  0  0  0  0  0  0
 -133.7276   30.7837  126.3616 O   0  0  0  0  0  0  0  0  0  0  0  0
 -133.5693   32.0815  128.5326 O   0  0  0  0  0  0  0  0  0  0  0  0
 -134.2720   31.4843  125.9696 H   0  0  0  0  0  0  0  0  0  0  0  0
 -134.1152   32.7976  128.1721 H   0  0  0  0  0  0  0  0  0  0  0  0
  1  9  1  0  0  0
  1  2  2  0  0  0
  1  6  1  0  0  0
  2  3  1  0  0  0
  3 13  1  0  0  0
  3  4  1  0  0  0
  4  5  1  0  0  0
  4  7  1  0  0  0
  5  6  1  0  0  0
  5 20  1  0  0  0
  9 10  2  0  0  0
  9 11  1  0  0  0
 13 14  1  0  0  0
 20 21  1  0  0  0
 14 17  2  0  0  0
 14 15  1  0  0  0
 14 16  1  0  0  0
 21 29  1  0  0  0
 21 26  1  0  0  0
 21 22  1  0  0  0
 26 27  1  0  0  0
 26 28  1  0  0  0
 22 23  2  0  0  0
 22 24  1  0  0  0
 30 31  2  0  0  0
 30 33  1  0  0  0
 30 32  1  0  0  0
 30 29  1  0  0  0
  7  8  1  0  0  0
 11 12  1  0  0  0
 15 18  1  0  0  0
 16 19  1  0  0  0
 24 25  1  0  0  0
 32 34  1  0  0  0
 33 35  1  0  0  0
M  END
> <minimizedAffinity>
-9.88026

$$$$
2PQB_GG9_A_501


 35 35  0  0  0  0  0  0  0  0999 V2000
 -127.5636   32.2825  127.6226 C   0  0  0  0  0  0  0  0  0  0  0  0
 -128.7428   31.8483  128.3681 C   0  0  0  0  0  0  0  0  0  0  0  0
 -130.0894   31.7404  127.6288 C   0  0  0  0  0  0  0  0  0  0  0  0
 -129.9555   31.6721  126.0400 C   0  0  0  0  0  0  0  0  0  0  0  0
 -129.0639   32.8266  125.5137 C   0  0  0  0  0  0  0  0  0  0  0  0
 -127.6150   32.6079  126.1485 C   0  0  0  0  0  0  0  0  0  0  0  0
 -131.3101   31.6795  125.5535 O   0  0  0  0  0  0  0  0  0  0  0  0
 -131.7639   32.4753  125.8724 H   0  0  0  0  0  0  0  0  0  0  0  0
 -126.2551   32.4155  128.3743 C   0  0  0  0  0  0  0  0  0  0  0  0
 -126.3396   32.6901  129.5621 O   0  0  0  0  0  0  0  0  0  0  0  0
 -125.2029   32.2717  127.7534 O   0  0  0  0  0  0  0  0  0  0  0  0
 -125.2226   32.0607  126.8407 H   0  0  0  0  0  0  0  0  0  0  0  0
 -131.0534   32.8817  127.9883 O   0  0  0  0  0  0  0  0  0  0  0  0
 -131.9740   32.8788  129.3557 P   0  0  0  0  0  0  0  0  0  0  0  0
 -131.0368   32.6902  130.5725 O   0  0  0  0  0  0  0  0  0  0  0  0
 -132.9605   31.6883  129.1155 O   0  0  0  0  0  0  0  0  0  0  0  0
 -132.5220   34.3135  129.4488 O   0  0  0  0  0  0  0  0  0  0  0  0
 -130.4577   33.4637  130.6576 H   0  0  0  0  0  0  0  0  0  0  0  0
 -133.5125   31.8771  128.3406 H   0  0  0  0  0  0  0  0  0  0  0  0
 -128.9803   32.7743  124.0580 O   0  0  0  0  0  0  0  0  0  0  0  0
 -127.7251   32.6944  123.2978 C   0  0  0  0  0  0  0  0  0  0  0  0
 -127.2283   31.2826  123.5224 C   0  0  0  0  0  0  0  0  0  0  0  0
 -125.9539   31.2409  123.6184 O   0  0  0  0  0  0  0  0  0  0  0  0
 -127.9553   30.3062  123.5893 O   0  0  0  0  0  0  0  0  0  0  0  0
 -128.8835   30.4070  123.5108 H   0  0  0  0  0  0  0  0  0  0  0  0
 -127.8298   33.0782  121.7751 C   0  0  0  0  0  0  0  0  0  0  0  0
 -127.5033   32.0611  121.0258 F   0  0  0  0  0  0  0  0  0  0  0  0
 -129.0460   33.4224  121.5313 F   0  0  0  0  0  0  0  0  0  0  0  0
 -127.2334   33.8035  124.1250 O   0  0  0  0  0  0  0  0  0  0  0  0
 -127.2882   35.4044  123.6753 P   0  0  0  0  0  0  0  0  0  0  0  0
 -126.4647   36.2368  124.6050 O   0  0  0  0  0  0  0  0  0  0  0  0
 -128.7333   35.8609  123.7406 O   0  0  0  0  0  0  0  0  0  0  0  0
 -126.7278   35.5319  122.2265 O   0  0  0  0  0  0  0  0  0  0  0  0
 -128.7896   36.7941  123.4818 H   0  0  0  0  0  0  0  0  0  0  0  0
 -126.7537   36.4615  121.9505 H   0  0  0  0  0  0  0  0  0  0  0  0
  1  9  1  0  0  0
  1  2  2  0  0  0
  1  6  1  0  0  0
  2  3  1  0  0  0
  3 13  1  0  0  0
  3  4  1  0  0  0
  4  5  1  0  0  0
  4  7  1  0  0  0
  5  6  1  0  0  0
  5 20  1  0  0  0
  9 10  2  0  0  0
  9 11  1  0  0  0
 13 14  1  0  0  0
 20 21  1  0  0  0
 14 17  2  0  0  0
 14 15  1  0  0  0
 14 16  1  0  0  0
 21 29  1  0  0  0
 21 26  1  0  0  0
 21 22  1  0  0  0
 26 27  1  0  0  0
 26 28  1  0  0  0
 22 23  2  0  0  0
 22 24  1  0  0  0
 30 31  2  0  0  0
 30 33  1  0  0  0
 30 32  1  0  0  0
 30 29  1  0  0  0
  7  8  1  0  0  0
 11 12  1  0  0  0
 15 18  1  0  0  0
 16 19  1  0  0  0
 24 25  1  0  0  0
 32 34  1  0  0  0
 33 35  1  0  0  0
M  END
> <minimizedAffinity>
-9.30325

$$$$
2PQB_GG9_A_501


 35 35  0  0  0  0  0  0  0  0999 V2000
 -132.4854   29.4981  126.5565 C   0  0  0  0  0  0  0  0  0  0  0  0
 -132.5292   29.9475  127.9460 C   0  0  0  0  0  0  0  0  0  0  0  0
 -131.6330   31.1246  128.3735 C   0  0  0  0  0  0  0  0  0  0  0  0
 -131.1021   32.0127  127.1584 C   0  0  0  0  0  0  0  0  0  0  0  0
 -130.4547   31.1205  126.0676 C   0  0  0  0  0  0  0  0  0  0  0  0
 -131.6085   30.1614  125.5208 C   0  0  0  0  0  0  0  0  0  0  0  0
 -130.2174   32.9746  127.7615 O   0  0  0  0  0  0  0  0  0  0  0  0
 -129.5137   32.5104  128.2413 H   0  0  0  0  0  0  0  0  0  0  0  0
 -133.3485   28.3172  126.1626 C   0  0  0  0  0  0  0  0  0  0  0  0
 -133.2167   27.3039  126.8327 O   0  0  0  0  0  0  0  0  0  0  0  0
 -134.0962   28.4328  125.1925 O   0  0  0  0  0  0  0  0  0  0  0  0
 -134.1406   29.2463  124.7296 H   0  0  0  0  0  0  0  0  0  0  0  0
 -130.4264   30.6739  129.2116 O   0  0  0  0  0  0  0  0  0  0  0  0
 -129.6616   31.6644  130.2847 P   0  0  0  0  0  0  0  0  0  0  0  0
 -129.4260   30.8735  131.5937 O   0  0  0  0  0  0  0  0  0  0  0  0
 -130.6560   32.8636  130.4301 O   0  0  0  0  0  0  0  0  0  0  0  0
 -128.2734   31.8985  129.6638 O   0  0  0  0  0  0  0  0  0  0  0  0
 -128.8022   30.1498  131.4265 H   0  0  0  0  0  0  0  0  0  0  0  0
 -130.7530   33.3088  129.5738 H   0  0  0  0  0  0  0  0  0  0  0  0
 -129.9410   31.9474  124.9809 O   0  0  0  0  0  0  0  0  0  0  0  0
 -128.5177   32.2340  124.7532 C   0  0  0  0  0  0  0  0  0  0  0  0
 -128.5095   33.4366  123.8344 C   0  0  0  0  0  0  0  0  0  0  0  0
 -128.4279   34.5309  124.4908 O   0  0  0  0  0  0  0  0  0  0  0  0
 -128.5851   33.3674  122.6196 O   0  0  0  0  0  0  0  0  0  0  0  0
 -128.6425   32.5313  122.2006 H   0  0  0  0  0  0  0  0  0  0  0  0
 -127.6525   32.4418  126.0513 C   0  0  0  0  0  0  0  0  0  0  0  0
 -127.6677   31.3636  126.7860 F   0  0  0  0  0  0  0  0  0  0  0  0
 -126.4447   32.7026  125.6905 F   0  0  0  0  0  0  0  0  0  0  0  0
 -128.4010   30.8745  124.2111 O   0  0  0  0  0  0  0  0  0  0  0  0
 -127.2497   30.4008  123.1074 P   0  0  0  0  0  0  0  0  0  0  0  0
 -127.0891   28.9144  123.1251 O   0  0  0  0  0  0  0  0  0  0  0  0
 -125.9347   31.0516  123.4924 O   0  0  0  0  0  0  0  0  0  0  0  0
 -127.7045   30.8591  121.6888 O   0  0  0  0  0  0  0  0  0  0  0  0
 -125.2468   30.7889  122.8610 H   0  0  0  0  0  0  0  0  0  0  0  0
 -127.0418   30.5893  121.0339 H   0  0  0  0  0  0  0  0  0  0  0  0
  1  9  1  0  0  0
  1  2  2  0  0  0
  1  6  1  0  0  0
  2  3  1  0  0  0
  3 13  1  0  0  0
  3  4  1  0  0  0
  4  5  1  0  0  0
  4  7  1  0  0  0
  5  6  1  0  0  0
  5 20  1  0  0  0
  9 10  2  0  0  0
  9 11  1  0  0  0
 13 14  1  0  0  0
 20 21  1  0  0  0
 14 17  2  0  0  0
 14 15  1  0  0  0
 14 16  1  0  0  0
 21 29  1  0  0  0
 21 26  1  0  0  0
 21 22  1  0  0  0
 26 27  1  0  0  0
 26 28  1  0  0  0
 22 23  2  0  0  0
 22 24  1  0  0  0
 30 31  2  0  0  0
 30 33  1  0  0  0
 30 32  1  0  0  0
 30 29  1  0  0  0
  7  8  1  0  0  0
 11 12  1  0  0  0
 15 18  1  0  0  0
 16 19  1  0  0  0
 24 25  1  0  0  0
 32 34  1  0  0  0
 33 35  1  0  0  0
M  END
> <minimizedAffinity>
-9.03128

$$$$
2PQB_GG9_A_501


 35 35  0  0  0  0  0  0  0  0999 V2000
 -130.9004   30.8756  126.2872 C   0  0  0  0  0  0  0  0  0  0  0  0
 -130.2401   31.1978  127.5500 C   0  0  0  0  0  0  0  0  0  0  0  0
 -128.9846   32.0892  127.5243 C   0  0  0  0  0  0  0  0  0  0  0  0
 -128.8129   32.9321  126.1800 C   0  0  0  0  0  0  0  0  0  0  0  0
 -128.9318   32.0133  124.9364 C   0  0  0  0  0  0  0  0  0  0  0  0
 -130.4076   31.4039  124.9607 C   0  0  0  0  0  0  0  0  0  0  0  0
 -127.5472   33.6024  126.3222 O   0  0  0  0  0  0  0  0  0  0  0  0
 -126.8473   32.9455  126.4622 H   0  0  0  0  0  0  0  0  0  0  0  0
 -132.1139   29.9696  126.3291 C   0  0  0  0  0  0  0  0  0  0  0  0
 -131.8923   28.7681  126.3106 O   0  0  0  0  0  0  0  0  0  0  0  0
 -133.2313   30.4838  126.3492 O   0  0  0  0  0  0  0  0  0  0  0  0
 -133.3175   31.4168  126.3625 H   0  0  0  0  0  0  0  0  0  0  0  0
 -127.6920   31.2957  127.7706 O   0  0  0  0  0  0  0  0  0  0  0  0
 -126.5958   31.7079  128.9307 P   0  0  0  0  0  0  0  0  0  0  0  0
 -125.4842   30.6316  128.9537 O   0  0  0  0  0  0  0  0  0  0  0  0
 -127.4621   31.7629  130.2325 O   0  0  0  0  0  0  0  0  0  0  0  0
 -125.9425   32.9946  128.3970 O   0  0  0  0  0  0  0  0  0  0  0  0
 -124.9920   30.6572  128.1182 H   0  0  0  0  0  0  0  0  0  0  0  0
 -128.1338   32.4572  130.1447 H   0  0  0  0  0  0  0  0  0  0  0  0
 -128.7362   32.7897  123.7167 O   0  0  0  0  0  0  0  0  0  0  0  0
 -127.5889   32.6422  122.8102 C   0  0  0  0  0  0  0  0  0  0  0  0
 -127.1770   31.1920  122.9436 C   0  0  0  0  0  0  0  0  0  0  0  0
 -126.0508   31.0745  123.5376 O   0  0  0  0  0  0  0  0  0  0  0  0
 -127.8337   30.2549  122.5233 O   0  0  0  0  0  0  0  0  0  0  0  0
 -128.6530   30.4111  122.0963 H   0  0  0  0  0  0  0  0  0  0  0  0
 -127.8432   33.0780  121.3195 C   0  0  0  0  0  0  0  0  0  0  0  0
 -127.5401   32.1064  120.5030 F   0  0  0  0  0  0  0  0  0  0  0  0
 -129.0897   33.3743  121.1956 F   0  0  0  0  0  0  0  0  0  0  0  0
 -126.9210   33.6874  123.5958 O   0  0  0  0  0  0  0  0  0  0  0  0
 -127.2902   35.3073  123.5068 P   0  0  0  0  0  0  0  0  0  0  0  0
 -126.4490   36.0884  124.4648 O   0  0  0  0  0  0  0  0  0  0  0  0
 -128.7529   35.4759  123.8713 O   0  0  0  0  0  0  0  0  0  0  0  0
 -127.0174   35.7988  122.0530 O   0  0  0  0  0  0  0  0  0  0  0  0
 -128.9912   36.4151  123.8261 H   0  0  0  0  0  0  0  0  0  0  0  0
 -127.2286   36.7431  121.9860 H   0  0  0  0  0  0  0  0  0  0  0  0
  1  9  1  0  0  0
  1  2  2  0  0  0
  1  6  1  0  0  0
  2  3  1  0  0  0
  3 13  1  0  0  0
  3  4  1  0  0  0
  4  5  1  0  0  0
  4  7  1  0  0  0
  5  6  1  0  0  0
  5 20  1  0  0  0
  9 10  2  0  0  0
  9 11  1  0  0  0
 13 14  1  0  0  0
 20 21  1  0  0  0
 14 17  2  0  0  0
 14 15  1  0  0  0
 14 16  1  0  0  0
 21 29  1  0  0  0
 21 26  1  0  0  0
 21 22  1  0  0  0
 26 27  1  0  0  0
 26 28  1  0  0  0
 22 23  2  0  0  0
 22 24  1  0  0  0
 30 31  2  0  0  0
 30 33  1  0  0  0
 30 32  1  0  0  0
 30 29  1  0  0  0
  7  8  1  0  0  0
 11 12  1  0  0  0
 15 18  1  0  0  0
 16 19  1  0  0  0
 24 25  1  0  0  0
 32 34  1  0  0  0
 33 35  1  0  0  0
M  END
> <minimizedAffinity>
-8.88676

$$$$
