3G2Y_GF4_A_1


 16 17  0  0  0  0  0  0  0  0999 V2000
   -3.6684   55.0803   13.0891 O   0  0  0  0  0  0  0  0  0  0  0  0
   -3.9403   53.8221   13.1241 C   0  0  0  0  0  0  0  0  0  0  0  0
   -2.9695   52.7339   12.9044 C   0  0  0  0  0  0  0  0  0  0  0  0
   -3.8215   51.5011   13.0701 C   0  0  0  0  0  0  0  0  0  0  0  0
   -3.3827   50.0628   12.9551 C   0  0  0  0  0  0  0  0  0  0  0  0
   -5.0892   51.8876   13.3474 N   0  0  0  0  0  0  0  0  0  0  0  0
   -5.1164   53.2873   13.3897 N   0  0  0  0  0  0  0  0  0  0  0  0
   -5.8574   51.2894   13.4938 H   0  0  0  0  0  0  0  0  0  0  0  0
   -6.2405   53.9721   13.6055 C   0  0  0  0  0  0  0  0  0  0  0  0
   -6.2165   55.0682   14.3569 N   0  0  0  0  0  0  0  0  0  0  0  0
   -7.5463   55.5113   14.3682 N   0  0  0  0  0  0  0  0  0  0  0  0
   -8.3010   54.6130   13.5959 N   0  0  0  0  0  0  0  0  0  0  0  0
   -7.4330   53.6279   13.1083 N   0  0  0  0  0  0  0  0  0  0  0  0
   -5.4404   55.4764   14.8044 H   0  0  0  0  0  0  0  0  0  0  0  0
   -1.4981   52.8654   12.5912 C   0  0  0  0  0  0  0  0  0  0  0  0
   -1.3258   53.0879   11.1071 C   0  0  0  0  0  0  0  0  0  0  0  0
  2  1  2  0  0  0
  3  2  1  0  0  0
  3 15  1  0  0  0
 15 16  1  0  0  0
  4  3  2  0  0  0
  4  6  1  0  0  0
  5  4  1  0  0  0
  6  7  1  0  0  0
  7  2  1  0  0  0
  7  9  1  0  0  0
  9 13  2  0  0  0
 10  9  1  0  0  0
 10 11  1  0  0  0
 11 12  2  0  0  0
 12 13  1  0  0  0
  6  8  1  0  0  0
 10 14  1  0  0  0
M  END
> <minimizedAffinity>
-6.48384

$$$$
3G2Y_GF4_A_1


 16 17  0  0  0  0  0  0  0  0999 V2000
   -8.0386   55.5437   13.7680 O   0  0  0  0  0  0  0  0  0  0  0  0
   -7.6918   55.4052   12.5355 C   0  0  0  0  0  0  0  0  0  0  0  0
   -8.4868   55.8409   11.3723 C   0  0  0  0  0  0  0  0  0  0  0  0
   -7.6091   55.4433   10.2127 C   0  0  0  0  0  0  0  0  0  0  0  0
   -7.8931   55.6306    8.7434 C   0  0  0  0  0  0  0  0  0  0  0  0
   -6.4839   54.8697   10.7007 N   0  0  0  0  0  0  0  0  0  0  0  0
   -6.5624   54.8820   12.0991 N   0  0  0  0  0  0  0  0  0  0  0  0
   -5.7407   54.5074   10.1663 H   0  0  0  0  0  0  0  0  0  0  0  0
   -5.6141   54.3488   12.8709 C   0  0  0  0  0  0  0  0  0  0  0  0
   -5.9492   53.6936   13.9777 N   0  0  0  0  0  0  0  0  0  0  0  0
   -4.7247   53.2857   14.5246 N   0  0  0  0  0  0  0  0  0  0  0  0
   -3.7047   53.7461   13.6755 N   0  0  0  0  0  0  0  0  0  0  0  0
   -4.3053   54.4272   12.6092 N   0  0  0  0  0  0  0  0  0  0  0  0
   -6.8529   53.5314   14.3329 H   0  0  0  0  0  0  0  0  0  0  0  0
   -9.8396   56.5119   11.3840 C   0  0  0  0  0  0  0  0  0  0  0  0
  -10.8340   55.6337   10.6616 C   0  0  0  0  0  0  0  0  0  0  0  0
  2  1  2  0  0  0
  3  2  1  0  0  0
  3 15  1  0  0  0
 15 16  1  0  0  0
  4  3  2  0  0  0
  4  6  1  0  0  0
  5  4  1  0  0  0
  6  7  1  0  0  0
  7  2  1  0  0  0
  7  9  1  0  0  0
  9 13  2  0  0  0
 10  9  1  0  0  0
 10 11  1  0  0  0
 11 12  2  0  0  0
 12 13  1  0  0  0
  6  8  1  0  0  0
 10 14  1  0  0  0
M  END
> <minimizedAffinity>
-6.21836

$$$$
3G2Y_GF4_A_1


 16 17  0  0  0  0  0  0  0  0999 V2000
   -5.1026   51.3380   13.1641 O   0  0  0  0  0  0  0  0  0  0  0  0
   -5.4183   52.4876   12.6771 C   0  0  0  0  0  0  0  0  0  0  0  0
   -6.7928   52.9554   12.4186 C   0  0  0  0  0  0  0  0  0  0  0  0
   -6.5658   54.3418   11.8714 C   0  0  0  0  0  0  0  0  0  0  0  0
   -7.6113   55.3288   11.4163 C   0  0  0  0  0  0  0  0  0  0  0  0
   -5.2335   54.5821   11.8458 N   0  0  0  0  0  0  0  0  0  0  0  0
   -4.5793   53.4528   12.3544 N   0  0  0  0  0  0  0  0  0  0  0  0
   -4.8004   55.4062   11.5257 H   0  0  0  0  0  0  0  0  0  0  0  0
   -3.2498   53.3696   12.4223 C   0  0  0  0  0  0  0  0  0  0  0  0
   -2.6457   53.3432   13.6058 N   0  0  0  0  0  0  0  0  0  0  0  0
   -1.2808   53.2588   13.2978 N   0  0  0  0  0  0  0  0  0  0  0  0
   -1.1603   53.2432   11.8984 N   0  0  0  0  0  0  0  0  0  0  0  0
   -2.4487   53.3107   11.3534 N   0  0  0  0  0  0  0  0  0  0  0  0
   -3.0625   53.3756   14.4972 H   0  0  0  0  0  0  0  0  0  0  0  0
   -8.0793   52.2007   12.6551 C   0  0  0  0  0  0  0  0  0  0  0  0
   -8.2293   51.1341   11.5959 C   0  0  0  0  0  0  0  0  0  0  0  0
  2  1  2  0  0  0
  3  2  1  0  0  0
  3 15  1  0  0  0
 15 16  1  0  0  0
  4  3  2  0  0  0
  4  6  1  0  0  0
  5  4  1  0  0  0
  6  7  1  0  0  0
  7  2  1  0  0  0
  7  9  1  0  0  0
  9 13  2  0  0  0
 10  9  1  0  0  0
 10 11  1  0  0  0
 11 12  2  0  0  0
 12 13  1  0  0  0
  6  8  1  0  0  0
 10 14  1  0  0  0
M  END
> <minimizedAffinity>
-6.19447

$$$$
3G2Y_GF4_A_1


 16 17  0  0  0  0  0  0  0  0999 V2000
   -3.4907   54.3184   12.4480 O   0  0  0  0  0  0  0  0  0  0  0  0
   -4.1911   53.2395   12.3871 C   0  0  0  0  0  0  0  0  0  0  0  0
   -3.7511   51.9709   11.7771 C   0  0  0  0  0  0  0  0  0  0  0  0
   -4.9431   51.0746   11.9977 C   0  0  0  0  0  0  0  0  0  0  0  0
   -5.0935   49.6327   11.5821 C   0  0  0  0  0  0  0  0  0  0  0  0
   -5.8981   51.7800   12.6485 N   0  0  0  0  0  0  0  0  0  0  0  0
   -5.4023   53.0692   12.8809 N   0  0  0  0  0  0  0  0  0  0  0  0
   -6.7857   51.4454   12.9123 H   0  0  0  0  0  0  0  0  0  0  0  0
   -6.1300   54.0165   13.4744 C   0  0  0  0  0  0  0  0  0  0  0  0
   -5.5526   54.8679   14.3159 N   0  0  0  0  0  0  0  0  0  0  0  0
   -6.5979   55.6993   14.7413 N   0  0  0  0  0  0  0  0  0  0  0  0
   -7.7721   55.2679   14.1022 N   0  0  0  0  0  0  0  0  0  0  0  0
   -7.4431   54.1804   13.2832 N   0  0  0  0  0  0  0  0  0  0  0  0
   -4.6051   54.9061   14.5805 H   0  0  0  0  0  0  0  0  0  0  0  0
   -2.4286   51.6846   11.1066 C   0  0  0  0  0  0  0  0  0  0  0  0
   -1.5324   50.9479   12.0741 C   0  0  0  0  0  0  0  0  0  0  0  0
  2  1  2  0  0  0
  3  2  1  0  0  0
  3 15  1  0  0  0
 15 16  1  0  0  0
  4  3  2  0  0  0
  4  6  1  0  0  0
  5  4  1  0  0  0
  6  7  1  0  0  0
  7  2  1  0  0  0
  7  9  1  0  0  0
  9 13  2  0  0  0
 10  9  1  0  0  0
 10 11  1  0  0  0
 11 12  2  0  0  0
 12 13  1  0  0  0
  6  8  1  0  0  0
 10 14  1  0  0  0
M  END
> <minimizedAffinity>
-6.14998

$$$$
3G2Y_GF4_A_1


 16 17  0  0  0  0  0  0  0  0999 V2000
   -6.2688   51.3486   12.8060 O   0  0  0  0  0  0  0  0  0  0  0  0
   -5.2356   52.1163   12.7672 C   0  0  0  0  0  0  0  0  0  0  0  0
   -3.8697   51.6898   12.4103 C   0  0  0  0  0  0  0  0  0  0  0  0
   -3.0896   52.9752   12.5204 C   0  0  0  0  0  0  0  0  0  0  0  0
   -1.6151   53.1750   12.2746 C   0  0  0  0  0  0  0  0  0  0  0  0
   -3.9384   53.9643   12.8874 N   0  0  0  0  0  0  0  0  0  0  0  0
   -5.2204   53.4131   13.0076 N   0  0  0  0  0  0  0  0  0  0  0  0
   -3.6967   54.9059   13.0427 H   0  0  0  0  0  0  0  0  0  0  0  0
   -6.2730   54.1348   13.3954 C   0  0  0  0  0  0  0  0  0  0  0  0
   -7.4512   53.9609   12.8054 N   0  0  0  0  0  0  0  0  0  0  0  0
   -8.3011   54.8694   13.4512 N   0  0  0  0  0  0  0  0  0  0  0  0
   -7.5415   55.5508   14.4165 N   0  0  0  0  0  0  0  0  0  0  0  0
   -6.2328   55.0544   14.3651 N   0  0  0  0  0  0  0  0  0  0  0  0
   -7.6760   53.3354   12.0791 H   0  0  0  0  0  0  0  0  0  0  0  0
   -3.4097   50.3008   12.0367 C   0  0  0  0  0  0  0  0  0  0  0  0
   -2.8754   49.6084   13.2683 C   0  0  0  0  0  0  0  0  0  0  0  0
  2  1  2  0  0  0
  3  2  1  0  0  0
  3 15  1  0  0  0
 15 16  1  0  0  0
  4  3  2  0  0  0
  4  6  1  0  0  0
  5  4  1  0  0  0
  6  7  1  0  0  0
  7  2  1  0  0  0
  7  9  1  0  0  0
  9 13  2  0  0  0
 10  9  1  0  0  0
 10 11  1  0  0  0
 11 12  2  0  0  0
 12 13  1  0  0  0
  6  8  1  0  0  0
 10 14  1  0  0  0
M  END
> <minimizedAffinity>
-5.83525

$$$$
3G2Y_GF4_A_1


 16 17  0  0  0  0  0  0  0  0999 V2000
   -5.7688   53.2984   10.8407 O   0  0  0  0  0  0  0  0  0  0  0  0
   -5.1400   52.6047   11.7249 C   0  0  0  0  0  0  0  0  0  0  0  0
   -4.4964   51.2997   11.4846 C   0  0  0  0  0  0  0  0  0  0  0  0
   -3.9206   50.9683   12.8381 C   0  0  0  0  0  0  0  0  0  0  0  0
   -3.1395   49.7373   13.2240 C   0  0  0  0  0  0  0  0  0  0  0  0
   -4.2191   51.9759   13.6918 N   0  0  0  0  0  0  0  0  0  0  0  0
   -4.9355   52.9478   12.9819 N   0  0  0  0  0  0  0  0  0  0  0  0
   -3.9753   52.0180   14.6447 H   0  0  0  0  0  0  0  0  0  0  0  0
   -5.4064   54.0522   13.5630 C   0  0  0  0  0  0  0  0  0  0  0  0
   -4.8122   55.2213   13.3469 N   0  0  0  0  0  0  0  0  0  0  0  0
   -5.5574   56.1356   14.1044 N   0  0  0  0  0  0  0  0  0  0  0  0
   -6.5819   55.4209   14.7470 N   0  0  0  0  0  0  0  0  0  0  0  0
   -6.4668   54.0749   14.3771 N   0  0  0  0  0  0  0  0  0  0  0  0
   -4.0264   55.4039   12.7825 H   0  0  0  0  0  0  0  0  0  0  0  0
   -4.4510   50.5226   10.1906 C   0  0  0  0  0  0  0  0  0  0  0  0
   -3.4162   51.1392    9.2790 C   0  0  0  0  0  0  0  0  0  0  0  0
  2  1  2  0  0  0
  3  2  1  0  0  0
  3 15  1  0  0  0
 15 16  1  0  0  0
  4  3  2  0  0  0
  4  6  1  0  0  0
  5  4  1  0  0  0
  6  7  1  0  0  0
  7  2  1  0  0  0
  7  9  1  0  0  0
  9 13  2  0  0  0
 10  9  1  0  0  0
 10 11  1  0  0  0
 11 12  2  0  0  0
 12 13  1  0  0  0
  6  8  1  0  0  0
 10 14  1  0  0  0
M  END
> <minimizedAffinity>
-5.64728

$$$$
3G2Y_GF4_A_1


 16 17  0  0  0  0  0  0  0  0999 V2000
   -5.9137   55.3465   13.8148 O   0  0  0  0  0  0  0  0  0  0  0  0
   -6.3832   54.2775   13.2717 C   0  0  0  0  0  0  0  0  0  0  0  0
   -5.6480   53.0090   13.1119 C   0  0  0  0  0  0  0  0  0  0  0  0
   -6.6675   52.1263   12.4376 C   0  0  0  0  0  0  0  0  0  0  0  0
   -6.4950   50.6905   12.0098 C   0  0  0  0  0  0  0  0  0  0  0  0
   -7.8061   52.8381   12.2637 N   0  0  0  0  0  0  0  0  0  0  0  0
   -7.6023   54.1185   12.7939 N   0  0  0  0  0  0  0  0  0  0  0  0
   -8.6325   52.5127   11.8390 H   0  0  0  0  0  0  0  0  0  0  0  0
   -8.5357   55.0696   12.7386 C   0  0  0  0  0  0  0  0  0  0  0  0
   -8.9653   55.5109   11.5607 N   0  0  0  0  0  0  0  0  0  0  0  0
   -9.9182   56.4875   11.8816 N   0  0  0  0  0  0  0  0  0  0  0  0
   -9.9919   56.5665   13.2822 N   0  0  0  0  0  0  0  0  0  0  0  0
   -9.0914   55.6355   13.8150 N   0  0  0  0  0  0  0  0  0  0  0  0
   -8.6789   55.2181   10.6654 H   0  0  0  0  0  0  0  0  0  0  0  0
   -4.2281   52.7117   13.5310 C   0  0  0  0  0  0  0  0  0  0  0  0
   -3.2770   53.4066   12.5852 C   0  0  0  0  0  0  0  0  0  0  0  0
  2  1  2  0  0  0
  3  2  1  0  0  0
  3 15  1  0  0  0
 15 16  1  0  0  0
  4  3  2  0  0  0
  4  6  1  0  0  0
  5  4  1  0  0  0
  6  7  1  0  0  0
  7  2  1  0  0  0
  7  9  1  0  0  0
  9 13  2  0  0  0
 10  9  1  0  0  0
 10 11  1  0  0  0
 11 12  2  0  0  0
 12 13  1  0  0  0
  6  8  1  0  0  0
 10 14  1  0  0  0
M  END
> <minimizedAffinity>
-5.61542

$$$$
3G2Y_GF4_A_1


 16 17  0  0  0  0  0  0  0  0999 V2000
   -3.7991   50.5794   11.7488 O   0  0  0  0  0  0  0  0  0  0  0  0
   -2.8742   51.3977   11.3835 C   0  0  0  0  0  0  0  0  0  0  0  0
   -1.7756   51.0814   10.4518 C   0  0  0  0  0  0  0  0  0  0  0  0
   -1.0208   52.3849   10.3864 C   0  0  0  0  0  0  0  0  0  0  0  0
    0.2218   52.6839    9.5858 C   0  0  0  0  0  0  0  0  0  0  0  0
   -1.6445   53.2844   11.1834 N   0  0  0  0  0  0  0  0  0  0  0  0
   -2.7629   52.6598   11.7498 N   0  0  0  0  0  0  0  0  0  0  0  0
   -1.3615   54.2147   11.3377 H   0  0  0  0  0  0  0  0  0  0  0  0
   -3.5636   53.2815   12.6167 C   0  0  0  0  0  0  0  0  0  0  0  0
   -3.9929   52.6425   13.7002 N   0  0  0  0  0  0  0  0  0  0  0  0
   -4.7971   53.5809   14.3617 N   0  0  0  0  0  0  0  0  0  0  0  0
   -4.7943   54.7588   13.5964 N   0  0  0  0  0  0  0  0  0  0  0  0
   -3.9848   54.5424   12.4741 N   0  0  0  0  0  0  0  0  0  0  0  0
   -3.7916   51.7190   13.9758 H   0  0  0  0  0  0  0  0  0  0  0  0
   -1.5084   49.7660    9.7599 C   0  0  0  0  0  0  0  0  0  0  0  0
   -0.4082   49.0355   10.4933 C   0  0  0  0  0  0  0  0  0  0  0  0
  2  1  2  0  0  0
  3  2  1  0  0  0
  3 15  1  0  0  0
 15 16  1  0  0  0
  4  3  2  0  0  0
  4  6  1  0  0  0
  5  4  1  0  0  0
  6  7  1  0  0  0
  7  2  1  0  0  0
  7  9  1  0  0  0
  9 13  2  0  0  0
 10  9  1  0  0  0
 10 11  1  0  0  0
 11 12  2  0  0  0
 12 13  1  0  0  0
  6  8  1  0  0  0
 10 14  1  0  0  0
M  END
> <minimizedAffinity>
-5.57434

$$$$
3G2Y_GF4_A_1


 16 17  0  0  0  0  0  0  0  0999 V2000
   -1.7738   53.3595   13.3837 O   0  0  0  0  0  0  0  0  0  0  0  0
   -2.5137   52.8936   12.4382 C   0  0  0  0  0  0  0  0  0  0  0  0
   -2.0263   52.1445   11.2650 C   0  0  0  0  0  0  0  0  0  0  0  0
   -3.3015   51.8483   10.5171 C   0  0  0  0  0  0  0  0  0  0  0  0
   -3.4466   51.1002    9.2157 C   0  0  0  0  0  0  0  0  0  0  0  0
   -4.3394   52.3731   11.2103 N   0  0  0  0  0  0  0  0  0  0  0  0
   -3.8281   52.9761   12.3665 N   0  0  0  0  0  0  0  0  0  0  0  0
   -5.2876   52.3371   10.9477 H   0  0  0  0  0  0  0  0  0  0  0  0
   -4.6063   53.6172   13.2397 C   0  0  0  0  0  0  0  0  0  0  0  0
   -4.7843   53.1209   14.4598 N   0  0  0  0  0  0  0  0  0  0  0  0
   -5.6444   54.0345   15.0848 N   0  0  0  0  0  0  0  0  0  0  0  0
   -5.9335   55.0497   14.1580 N   0  0  0  0  0  0  0  0  0  0  0  0
   -5.2460   54.7604   12.9725 N   0  0  0  0  0  0  0  0  0  0  0  0
   -4.3993   52.2979   14.8388 H   0  0  0  0  0  0  0  0  0  0  0  0
   -0.5973   51.7870   10.9326 C   0  0  0  0  0  0  0  0  0  0  0  0
   -0.0874   52.7268    9.8656 C   0  0  0  0  0  0  0  0  0  0  0  0
  2  1  2  0  0  0
  3  2  1  0  0  0
  3 15  1  0  0  0
 15 16  1  0  0  0
  4  3  2  0  0  0
  4  6  1  0  0  0
  5  4  1  0  0  0
  6  7  1  0  0  0
  7  2  1  0  0  0
  7  9  1  0  0  0
  9 13  2  0  0  0
 10  9  1  0  0  0
 10 11  1  0  0  0
 11 12  2  0  0  0
 12 13  1  0  0  0
  6  8  1  0  0  0
 10 14  1  0  0  0
M  END
> <minimizedAffinity>
-5.56167

$$$$
3G2Y_GF4_A_1


 16 17  0  0  0  0  0  0  0  0999 V2000
   -6.4128   53.5143   10.3023 O   0  0  0  0  0  0  0  0  0  0  0  0
   -7.1635   54.3343   10.9523 C   0  0  0  0  0  0  0  0  0  0  0  0
   -8.3636   55.0011   10.4137 C   0  0  0  0  0  0  0  0  0  0  0  0
   -8.8361   55.8174   11.5899 C   0  0  0  0  0  0  0  0  0  0  0  0
  -10.0368   56.7281   11.6489 C   0  0  0  0  0  0  0  0  0  0  0  0
   -7.9919   55.6070   12.6274 N   0  0  0  0  0  0  0  0  0  0  0  0
   -7.0120   54.6967   12.2114 N   0  0  0  0  0  0  0  0  0  0  0  0
   -8.0557   56.0213   13.5183 H   0  0  0  0  0  0  0  0  0  0  0  0
   -6.0094   54.3169   13.0048 C   0  0  0  0  0  0  0  0  0  0  0  0
   -4.7516   54.4557   12.5982 N   0  0  0  0  0  0  0  0  0  0  0  0
   -3.9854   53.9594   13.6620 N   0  0  0  0  0  0  0  0  0  0  0  0
   -4.8730   53.5398   14.6666 N   0  0  0  0  0  0  0  0  0  0  0  0
   -6.1776   53.7860   14.2204 N   0  0  0  0  0  0  0  0  0  0  0  0
   -4.4307   54.8239   11.7434 H   0  0  0  0  0  0  0  0  0  0  0  0
   -8.9396   54.8725    9.0238 C   0  0  0  0  0  0  0  0  0  0  0  0
   -8.3225   55.9249    8.1330 C   0  0  0  0  0  0  0  0  0  0  0  0
  2  1  2  0  0  0
  3  2  1  0  0  0
  3 15  1  0  0  0
 15 16  1  0  0  0
  4  3  2  0  0  0
  4  6  1  0  0  0
  5  4  1  0  0  0
  6  7  1  0  0  0
  7  2  1  0  0  0
  7  9  1  0  0  0
  9 13  2  0  0  0
 10  9  1  0  0  0
 10 11  1  0  0  0
 11 12  2  0  0  0
 12 13  1  0  0  0
  6  8  1  0  0  0
 10 14  1  0  0  0
M  END
> <minimizedAffinity>
-5.49729

$$$$
