4QIJ_1HA_A_401


 72 76  0  0  0  0  0  0  0  0999 V2000
   34.7962  -15.1686  200.7340 P   0  0  0  0  0  0  0  0  0  0  0  0
   35.2173  -14.4327  201.9390 O   0  0  0  0  0  0  0  0  0  0  0  0
   35.1225  -16.6324  200.8424 O   0  0  0  0  0  0  0  0  0  0  0  0
   34.7565  -14.7905  202.7139 H   0  0  0  0  0  0  0  0  0  0  0  0
   35.5526  -14.5979  199.3836 O   0  0  0  0  0  0  0  0  0  0  0  0
   36.3438  -15.5207  198.5568 C   0  0  0  0  0  0  0  0  0  0  0  0
   35.7984  -15.4514  197.1469 C   0  0  0  0  0  0  0  0  0  0  0  0
   36.9271  -15.8029  196.1413 C   0  0  0  0  0  0  0  0  0  0  0  0
   35.3101  -14.0371  196.8940 C   0  0  0  0  0  0  0  0  0  0  0  0
   34.6598  -16.4851  197.0123 C   0  0  0  0  0  0  0  0  0  0  0  0
   33.4358  -15.8899  197.1571 O   0  0  0  0  0  0  0  0  0  0  0  0
   33.3069  -15.2392  196.4493 H   0  0  0  0  0  0  0  0  0  0  0  0
   34.0246  -16.4966  194.4799 N   0  0  0  0  0  0  0  0  0  0  0  0
   34.6808  -17.1796  195.6468 C   0  0  0  0  0  0  0  0  0  0  0  0
   35.1748  -18.2456  195.4987 O   0  0  0  0  0  0  0  0  0  0  0  0
   33.6049  -15.6117  194.5796 H   0  0  0  0  0  0  0  0  0  0  0  0
   34.0296  -17.1815  193.2047 C   0  0  0  0  0  0  0  0  0  0  0  0
   32.6418  -17.3096  192.6440 C   0  0  0  0  0  0  0  0  0  0  0  0
   33.8981  -16.5261  190.5435 N   0  0  0  0  0  0  0  0  0  0  0  0
   32.7371  -16.4182  191.3600 C   0  0  0  0  0  0  0  0  0  0  0  0
   31.8125  -15.6068  191.0974 O   0  0  0  0  0  0  0  0  0  0  0  0
   34.6001  -17.1719  190.7870 H   0  0  0  0  0  0  0  0  0  0  0  0
   34.0660  -15.7178  189.3793 C   0  0  0  0  0  0  0  0  0  0  0  0
   33.2298  -16.2288  188.1036 C   0  0  0  0  0  0  0  0  0  0  0  0
   32.5604  -14.7748  187.3606 S   0  0  0  0  0  0  0  0  0  0  0  0
   33.7020  -14.2264  186.0613 C   0  0  0  0  0  0  0  0  0  0  0  0
   34.8052  -13.8423  186.3781 O   0  0  0  0  0  0  0  0  0  0  0  0
   35.1217  -14.4622  183.6147 O   0  0  0  0  0  0  0  0  0  0  0  0
   33.8913  -13.7872  183.6737 C   0  0  0  0  0  0  0  0  0  0  0  0
   33.4590  -13.2732  182.4451 C   0  0  0  0  0  0  0  0  0  0  0  0
   34.2642  -13.4651  181.2831 C   0  0  0  0  0  0  0  0  0  0  0  0
   33.8456  -12.9671  180.0837 C   0  0  0  0  0  0  0  0  0  0  0  0
   32.6357  -12.2779  180.0133 C   0  0  0  0  0  0  0  0  0  0  0  0
   31.8427  -12.0894  181.1541 C   0  0  0  0  0  0  0  0  0  0  0  0
   32.2687  -12.5956  182.3811 C   0  0  0  0  0  0  0  0  0  0  0  0
   31.4757  -12.4102  183.5428 C   0  0  0  0  0  0  0  0  0  0  0  0
   31.9119  -12.9209  184.7686 C   0  0  0  0  0  0  0  0  0  0  0  0
   33.1022  -13.5974  184.8306 C   0  0  0  0  0  0  0  0  0  0  0  0
   35.4873  -14.8387  184.3909 H   0  0  0  0  0  0  0  0  0  0  0  0
   33.2353  -14.9425  200.6743 O   0  0  0  0  0  0  0  0  0  0  0  0
   32.0381  -16.0347  200.8863 P   0  0  0  0  0  0  0  0  0  0  0  0
   31.7970  -16.9287  199.6698 O   0  0  0  0  0  0  0  0  0  0  0  0
   32.3969  -16.9236  202.0977 O   0  0  0  0  0  0  0  0  0  0  0  0
   33.1995  -17.4311  201.8999 H   0  0  0  0  0  0  0  0  0  0  0  0
   30.7148  -15.1897  201.1963 O   0  0  0  0  0  0  0  0  0  0  0  0
   29.5845  -15.8108  201.9051 C   0  0  0  0  0  0  0  0  0  0  0  0
   28.2945  -15.3941  201.1676 C   0  0  0  0  0  0  0  0  0  0  0  0
   28.5854  -14.6252  200.1540 O   0  0  0  0  0  0  0  0  0  0  0  0
   27.6220  -16.6779  200.5627 C   0  0  0  0  0  0  0  0  0  0  0  0
   28.1094  -16.6241  199.1256 C   0  0  0  0  0  0  0  0  0  0  0  0
   27.2814  -17.5163  198.2125 O   0  0  0  0  0  0  0  0  0  0  0  0
   28.0340  -15.3191  198.8372 C   0  0  0  0  0  0  0  0  0  0  0  0
   26.3488  -17.2545  198.2636 H   0  0  0  0  0  0  0  0  0  0  0  0
   28.8850  -14.9755  197.7238 N   0  0  0  0  0  0  0  0  0  0  0  0
   30.1592  -14.4944  197.8117 C   0  0  0  0  0  0  0  0  0  0  0  0
   30.6278  -14.3010  196.5394 N   0  0  0  0  0  0  0  0  0  0  0  0
   29.6332  -14.6710  195.6629 C   0  0  0  0  0  0  0  0  0  0  0  0
   28.5645  -15.0855  196.3813 C   0  0  0  0  0  0  0  0  0  0  0  0
   27.4307  -15.5100  195.7315 N   0  0  0  0  0  0  0  0  0  0  0  0
   27.3798  -15.5079  194.3647 C   0  0  0  0  0  0  0  0  0  0  0  0
   28.4662  -15.0874  193.6302 N   0  0  0  0  0  0  0  0  0  0  0  0
   29.5836  -14.6783  194.2651 C   0  0  0  0  0  0  0  0  0  0  0  0
   30.5988  -14.2755  193.3752 N   0  0  0  0  0  0  0  0  0  0  0  0
   31.4620  -13.9565  193.7250 H   0  0  0  0  0  0  0  0  0  0  0  0
   30.4450  -14.3130  192.4035 H   0  0  0  0  0  0  0  0  0  0  0  0
   26.2672  -16.5540  200.5686 O   0  0  0  0  0  0  0  0  0  0  0  0
   25.2312  -17.7603  200.9929 P   0  0  0  0  0  0  0  0  0  0  0  0
   23.8268  -17.2447  200.9079 O   0  0  0  0  0  0  0  0  0  0  0  0
   25.4092  -18.9515  199.9834 O   0  0  0  0  0  0  0  0  0  0  0  0
   25.5846  -18.2613  202.4280 O   0  0  0  0  0  0  0  0  0  0  0  0
   25.1919  -18.6509  199.0871 H   0  0  0  0  0  0  0  0  0  0  0  0
   24.9756  -18.9726  202.6812 H   0  0  0  0  0  0  0  0  0  0  0  0
  3  1  2  0  0  0
  2  1  1  0  0  0
  1 40  1  0  0  0
  1  5  1  0  0  0
 42 41  2  0  0  0
 40 41  1  0  0  0
  5  6  1  0  0  0
 41 43  1  0  0  0
 41 45  1  0  0  0
  6  7  1  0  0  0
  9  7  1  0  0  0
 46 45  1  0  0  0
 46 47  1  0  0  0
 68 67  2  0  0  0
  7 10  1  0  0  0
  7  8  1  0  0  0
 47 49  1  0  0  0
 47 48  1  0  0  0
 10 11  1  0  0  0
 10 14  1  0  0  0
 49 66  1  0  0  0
 49 50  1  0  0  0
 67 69  1  0  0  0
 67 66  1  0  0  0
 67 70  1  0  0  0
 48 52  1  0  0  0
 15 14  2  0  0  0
 14 13  1  0  0  0
 50 52  1  0  0  0
 50 51  1  0  0  0
 52 54  1  0  0  0
 55 54  1  0  0  0
 55 56  2  0  0  0
 13 17  1  0  0  0
 54 58  1  0  0  0
 56 57  1  0  0  0
 17 18  1  0  0  0
 58 57  2  0  0  0
 58 59  1  0  0  0
 18 20  1  0  0  0
 57 62  1  0  0  0
 59 60  2  0  0  0
 20 21  2  0  0  0
 20 19  1  0  0  0
 62 63  1  0  0  0
 62 61  2  0  0  0
 60 61  1  0  0  0
 19 23  1  0  0  0
 23 24  1  0  0  0
 24 25  1  0  0  0
 27 26  2  0  0  0
 25 26  1  0  0  0
 26 38  1  0  0  0
 38 29  2  0  0  0
 38 37  1  0  0  0
 28 29  1  0  0  0
 29 30  1  0  0  0
 37 36  2  0  0  0
 36 35  1  0  0  0
 30 35  2  0  0  0
 30 31  1  0  0  0
 35 34  1  0  0  0
 31 32  2  0  0  0
 34 33  2  0  0  0
 32 33  1  0  0  0
 28 39  1  0  0  0
 19 22  1  0  0  0
 13 16  1  0  0  0
 11 12  1  0  0  0
  2  4  1  0  0  0
 43 44  1  0  0  0
 69 71  1  0  0  0
 70 72  1  0  0  0
 51 53  1  0  0  0
 63 64  1  0  0  0
 63 65  1  0  0  0
M  END
> <minimizedAffinity>
-11.84690

$$$$
4QIJ_1HA_A_401


 72 76  0  0  0  0  0  0  0  0999 V2000
   34.9958  -18.7159  199.1489 P   0  0  0  0  0  0  0  0  0  0  0  0
   36.4320  -18.9660  199.3627 O   0  0  0  0  0  0  0  0  0  0  0  0
   34.4493  -19.5689  198.0377 O   0  0  0  0  0  0  0  0  0  0  0  0
   36.5662  -19.8970  199.5997 H   0  0  0  0  0  0  0  0  0  0  0  0
   34.7116  -17.1425  198.7423 O   0  0  0  0  0  0  0  0  0  0  0  0
   34.1308  -16.8318  197.4280 C   0  0  0  0  0  0  0  0  0  0  0  0
   34.9626  -15.7280  196.8115 C   0  0  0  0  0  0  0  0  0  0  0  0
   35.7050  -14.9556  197.9344 C   0  0  0  0  0  0  0  0  0  0  0  0
   34.0309  -14.7857  196.0723 C   0  0  0  0  0  0  0  0  0  0  0  0
   36.0006  -16.3690  195.8657 C   0  0  0  0  0  0  0  0  0  0  0  0
   36.9553  -17.0494  196.5721 O   0  0  0  0  0  0  0  0  0  0  0  0
   36.5387  -17.7755  197.0622 H   0  0  0  0  0  0  0  0  0  0  0  0
   34.6351  -16.8164  193.6858 N   0  0  0  0  0  0  0  0  0  0  0  0
   35.3495  -17.3570  194.8925 C   0  0  0  0  0  0  0  0  0  0  0  0
   35.3736  -18.5255  195.0835 O   0  0  0  0  0  0  0  0  0  0  0  0
   34.5992  -15.8488  193.5079 H   0  0  0  0  0  0  0  0  0  0  0  0
   34.0016  -17.7639  192.7935 C   0  0  0  0  0  0  0  0  0  0  0  0
   32.5790  -17.3787  192.5026 C   0  0  0  0  0  0  0  0  0  0  0  0
   33.8767  -16.6659  190.4021 N   0  0  0  0  0  0  0  0  0  0  0  0
   32.7523  -16.4558  191.2494 C   0  0  0  0  0  0  0  0  0  0  0  0
   31.9235  -15.5336  191.0381 O   0  0  0  0  0  0  0  0  0  0  0  0
   34.5034  -17.3974  190.6056 H   0  0  0  0  0  0  0  0  0  0  0  0
   34.1147  -15.8385  189.2639 C   0  0  0  0  0  0  0  0  0  0  0  0
   33.2630  -16.2550  187.9643 C   0  0  0  0  0  0  0  0  0  0  0  0
   32.6027  -14.7483  187.3257 S   0  0  0  0  0  0  0  0  0  0  0  0
   33.7013  -14.1638  186.0052 C   0  0  0  0  0  0  0  0  0  0  0  0
   34.8108  -13.7782  186.2972 O   0  0  0  0  0  0  0  0  0  0  0  0
   34.9984  -14.4226  183.4936 O   0  0  0  0  0  0  0  0  0  0  0  0
   33.7897  -13.7171  183.6131 C   0  0  0  0  0  0  0  0  0  0  0  0
   33.3136  -13.1859  182.4082 C   0  0  0  0  0  0  0  0  0  0  0  0
   34.0584  -13.3921  181.2089 C   0  0  0  0  0  0  0  0  0  0  0  0
   33.5968  -12.8773  180.0325 C   0  0  0  0  0  0  0  0  0  0  0  0
   32.4029  -12.1575  180.0218 C   0  0  0  0  0  0  0  0  0  0  0  0
   31.6692  -11.9550  181.1993 C   0  0  0  0  0  0  0  0  0  0  0  0
   32.1392  -12.4782  182.4029 C   0  0  0  0  0  0  0  0  0  0  0  0
   31.4065  -12.2788  183.6013 C   0  0  0  0  0  0  0  0  0  0  0  0
   31.8864  -12.8068  184.8032 C   0  0  0  0  0  0  0  0  0  0  0  0
   33.0608  -13.5134  184.8065 C   0  0  0  0  0  0  0  0  0  0  0  0
   35.3902  -14.8123  184.2503 H   0  0  0  0  0  0  0  0  0  0  0  0
   34.3321  -19.0962  200.5293 O   0  0  0  0  0  0  0  0  0  0  0  0
   32.8242  -19.6582  200.8151 P   0  0  0  0  0  0  0  0  0  0  0  0
   32.5974  -21.0895  200.3282 O   0  0  0  0  0  0  0  0  0  0  0  0
   32.5613  -19.5991  202.3362 O   0  0  0  0  0  0  0  0  0  0  0  0
   33.1696  -20.2009  202.7931 H   0  0  0  0  0  0  0  0  0  0  0  0
   31.8279  -18.6702  200.0455 O   0  0  0  0  0  0  0  0  0  0  0  0
   30.6562  -18.1084  200.7365 C   0  0  0  0  0  0  0  0  0  0  0  0
   30.9072  -16.5957  200.9113 C   0  0  0  0  0  0  0  0  0  0  0  0
   31.1138  -16.0378  199.7497 O   0  0  0  0  0  0  0  0  0  0  0  0
   29.6066  -15.9319  201.4892 C   0  0  0  0  0  0  0  0  0  0  0  0
   28.9650  -15.3798  200.2285 C   0  0  0  0  0  0  0  0  0  0  0  0
   27.9047  -14.3347  200.5431 O   0  0  0  0  0  0  0  0  0  0  0  0
   30.0153  -14.9106  199.5441 C   0  0  0  0  0  0  0  0  0  0  0  0
   28.3013  -13.6181  201.0627 H   0  0  0  0  0  0  0  0  0  0  0  0
   29.7153  -14.7865  198.1382 N   0  0  0  0  0  0  0  0  0  0  0  0
   30.5537  -14.2869  197.1842 C   0  0  0  0  0  0  0  0  0  0  0  0
   29.9060  -14.3446  195.9787 N   0  0  0  0  0  0  0  0  0  0  0  0
   28.6604  -14.8888  196.1949 C   0  0  0  0  0  0  0  0  0  0  0  0
   28.5379  -15.1623  197.5141 C   0  0  0  0  0  0  0  0  0  0  0  0
   27.3737  -15.7163  197.9891 N   0  0  0  0  0  0  0  0  0  0  0  0
   26.3407  -15.9846  197.1337 C   0  0  0  0  0  0  0  0  0  0  0  0
   26.4623  -15.7084  195.7901 N   0  0  0  0  0  0  0  0  0  0  0  0
   27.6071  -15.1726  195.3195 C   0  0  0  0  0  0  0  0  0  0  0  0
   27.5706  -14.9449  193.9297 N   0  0  0  0  0  0  0  0  0  0  0  0
   28.3517  -14.5558  193.4739 H   0  0  0  0  0  0  0  0  0  0  0  0
   26.7639  -15.1749  193.4142 H   0  0  0  0  0  0  0  0  0  0  0  0
   29.9251  -14.8927  202.3074 O   0  0  0  0  0  0  0  0  0  0  0  0
   29.1469  -14.5555  203.7179 P   0  0  0  0  0  0  0  0  0  0  0  0
   29.2335  -13.0824  203.9784 O   0  0  0  0  0  0  0  0  0  0  0  0
   27.6381  -14.9688  203.5686 O   0  0  0  0  0  0  0  0  0  0  0  0
   29.7850  -15.3920  204.8706 O   0  0  0  0  0  0  0  0  0  0  0  0
   27.2311  -14.4544  202.8540 H   0  0  0  0  0  0  0  0  0  0  0  0
   29.3285  -15.1956  205.7036 H   0  0  0  0  0  0  0  0  0  0  0  0
  3  1  2  0  0  0
  2  1  1  0  0  0
  1 40  1  0  0  0
  1  5  1  0  0  0
 42 41  2  0  0  0
 40 41  1  0  0  0
  5  6  1  0  0  0
 41 43  1  0  0  0
 41 45  1  0  0  0
  6  7  1  0  0  0
  9  7  1  0  0  0
 46 45  1  0  0  0
 46 47  1  0  0  0
 68 67  2  0  0  0
  7 10  1  0  0  0
  7  8  1  0  0  0
 47 49  1  0  0  0
 47 48  1  0  0  0
 10 11  1  0  0  0
 10 14  1  0  0  0
 49 66  1  0  0  0
 49 50  1  0  0  0
 67 69  1  0  0  0
 67 66  1  0  0  0
 67 70  1  0  0  0
 48 52  1  0  0  0
 15 14  2  0  0  0
 14 13  1  0  0  0
 50 52  1  0  0  0
 50 51  1  0  0  0
 52 54  1  0  0  0
 55 54  1  0  0  0
 55 56  2  0  0  0
 13 17  1  0  0  0
 54 58  1  0  0  0
 56 57  1  0  0  0
 17 18  1  0  0  0
 58 57  2  0  0  0
 58 59  1  0  0  0
 18 20  1  0  0  0
 57 62  1  0  0  0
 59 60  2  0  0  0
 20 21  2  0  0  0
 20 19  1  0  0  0
 62 63  1  0  0  0
 62 61  2  0  0  0
 60 61  1  0  0  0
 19 23  1  0  0  0
 23 24  1  0  0  0
 24 25  1  0  0  0
 27 26  2  0  0  0
 25 26  1  0  0  0
 26 38  1  0  0  0
 38 29  2  0  0  0
 38 37  1  0  0  0
 28 29  1  0  0  0
 29 30  1  0  0  0
 37 36  2  0  0  0
 36 35  1  0  0  0
 30 35  2  0  0  0
 30 31  1  0  0  0
 35 34  1  0  0  0
 31 32  2  0  0  0
 34 33  2  0  0  0
 32 33  1  0  0  0
 28 39  1  0  0  0
 19 22  1  0  0  0
 13 16  1  0  0  0
 11 12  1  0  0  0
  2  4  1  0  0  0
 43 44  1  0  0  0
 69 71  1  0  0  0
 70 72  1  0  0  0
 51 53  1  0  0  0
 63 64  1  0  0  0
 63 65  1  0  0  0
M  END
> <minimizedAffinity>
-10.07747

$$$$
4QIJ_1HA_A_401


 72 76  0  0  0  0  0  0  0  0999 V2000
   35.4876  -14.9001  198.4227 P   0  0  0  0  0  0  0  0  0  0  0  0
   35.4063  -13.4542  198.6943 O   0  0  0  0  0  0  0  0  0  0  0  0
   36.6532  -15.5280  199.1354 O   0  0  0  0  0  0  0  0  0  0  0  0
   35.2940  -13.3100  199.6469 H   0  0  0  0  0  0  0  0  0  0  0  0
   35.6794  -15.2014  196.8122 O   0  0  0  0  0  0  0  0  0  0  0  0
   35.9736  -16.5708  196.3656 C   0  0  0  0  0  0  0  0  0  0  0  0
   34.8174  -17.0272  195.5025 C   0  0  0  0  0  0  0  0  0  0  0  0
   33.5955  -17.3437  196.4056 C   0  0  0  0  0  0  0  0  0  0  0  0
   35.2429  -18.2803  194.7599 C   0  0  0  0  0  0  0  0  0  0  0  0
   34.4491  -15.8827  194.5344 C   0  0  0  0  0  0  0  0  0  0  0  0
   35.5683  -15.3525  193.9514 O   0  0  0  0  0  0  0  0  0  0  0  0
   36.0107  -16.0342  193.4219 H   0  0  0  0  0  0  0  0  0  0  0  0
   34.1062  -16.6001  192.0475 N   0  0  0  0  0  0  0  0  0  0  0  0
   33.5231  -16.3628  193.4123 C   0  0  0  0  0  0  0  0  0  0  0  0
   32.3632  -16.5235  193.5889 O   0  0  0  0  0  0  0  0  0  0  0  0
   35.0669  -16.4702  191.8760 H   0  0  0  0  0  0  0  0  0  0  0  0
   33.2102  -17.0257  190.9934 C   0  0  0  0  0  0  0  0  0  0  0  0
   32.6073  -15.8512  190.2767 C   0  0  0  0  0  0  0  0  0  0  0  0
   32.5846  -15.6095  187.7183 N   0  0  0  0  0  0  0  0  0  0  0  0
   33.3303  -15.9235  188.8895 C   0  0  0  0  0  0  0  0  0  0  0  0
   34.5327  -16.2885  188.8343 O   0  0  0  0  0  0  0  0  0  0  0  0
   31.6444  -15.3311  187.8059 H   0  0  0  0  0  0  0  0  0  0  0  0
   33.1712  -15.6897  186.4198 C   0  0  0  0  0  0  0  0  0  0  0  0
   33.8060  -14.3047  185.9033 C   0  0  0  0  0  0  0  0  0  0  0  0
   32.5434  -13.0917  186.1239 S   0  0  0  0  0  0  0  0  0  0  0  0
   32.8454  -11.7408  184.9509 C   0  0  0  0  0  0  0  0  0  0  0  0
   32.6369  -10.6025  185.3056 O   0  0  0  0  0  0  0  0  0  0  0  0
   35.1146  -11.6785  183.2466 O   0  0  0  0  0  0  0  0  0  0  0  0
   33.8399  -11.9831  182.7414 C   0  0  0  0  0  0  0  0  0  0  0  0
   33.8155  -12.2481  181.3667 C   0  0  0  0  0  0  0  0  0  0  0  0
   35.0301  -12.1900  180.6204 C   0  0  0  0  0  0  0  0  0  0  0  0
   35.0107  -12.4491  179.2809 C   0  0  0  0  0  0  0  0  0  0  0  0
   33.8023  -12.7671  178.6625 C   0  0  0  0  0  0  0  0  0  0  0  0
   32.6080  -12.8257  179.3947 C   0  0  0  0  0  0  0  0  0  0  0  0
   32.6245  -12.5598  180.7630 C   0  0  0  0  0  0  0  0  0  0  0  0
   31.4224  -12.6146  181.5144 C   0  0  0  0  0  0  0  0  0  0  0  0
   31.4493  -12.3456  182.8857 C   0  0  0  0  0  0  0  0  0  0  0  0
   32.6406  -12.0337  183.4872 C   0  0  0  0  0  0  0  0  0  0  0  0
   35.2242  -11.4876  184.1574 H   0  0  0  0  0  0  0  0  0  0  0  0
   34.1207  -15.4689  198.9694 O   0  0  0  0  0  0  0  0  0  0  0  0
   33.6260  -15.6193  200.5198 P   0  0  0  0  0  0  0  0  0  0  0  0
   33.6731  -17.0543  201.0452 O   0  0  0  0  0  0  0  0  0  0  0  0
   34.5257  -14.7313  201.4077 O   0  0  0  0  0  0  0  0  0  0  0  0
   35.4372  -15.0617  201.3771 H   0  0  0  0  0  0  0  0  0  0  0  0
   32.1171  -15.0875  200.5590 O   0  0  0  0  0  0  0  0  0  0  0  0
   31.1698  -15.6102  201.5566 C   0  0  0  0  0  0  0  0  0  0  0  0
   29.7575  -15.1553  201.1318 C   0  0  0  0  0  0  0  0  0  0  0  0
   29.8236  -14.4517  200.0347 O   0  0  0  0  0  0  0  0  0  0  0  0
   28.9014  -16.4254  200.7850 C   0  0  0  0  0  0  0  0  0  0  0  0
   29.0223  -16.4656  199.2719 C   0  0  0  0  0  0  0  0  0  0  0  0
   27.9570  -17.3505  198.6415 O   0  0  0  0  0  0  0  0  0  0  0  0
   28.9354  -15.1732  198.9345 C   0  0  0  0  0  0  0  0  0  0  0  0
   27.0779  -17.0341  198.9025 H   0  0  0  0  0  0  0  0  0  0  0  0
   29.5007  -14.9301  197.6294 N   0  0  0  0  0  0  0  0  0  0  0  0
   30.7889  -14.5585  197.3741 C   0  0  0  0  0  0  0  0  0  0  0  0
   30.9335  -14.4358  196.0176 N   0  0  0  0  0  0  0  0  0  0  0  0
   29.7239  -14.7393  195.4354 C   0  0  0  0  0  0  0  0  0  0  0  0
   28.8432  -15.0435  196.4162 C   0  0  0  0  0  0  0  0  0  0  0  0
   27.5525  -15.3840  196.0905 N   0  0  0  0  0  0  0  0  0  0  0  0
   27.1575  -15.4094  194.7813 C   0  0  0  0  0  0  0  0  0  0  0  0
   28.0516  -15.1012  193.7802 N   0  0  0  0  0  0  0  0  0  0  0  0
   29.3215  -14.7750  194.0964 C   0  0  0  0  0  0  0  0  0  0  0  0
   30.1063  -14.4819  192.9637 N   0  0  0  0  0  0  0  0  0  0  0  0
   31.0519  -14.2302  193.0717 H   0  0  0  0  0  0  0  0  0  0  0  0
   29.7090  -14.5287  192.0641 H   0  0  0  0  0  0  0  0  0  0  0  0
   27.5965  -16.2246  201.1130 O   0  0  0  0  0  0  0  0  0  0  0  0
   26.8731  -16.8531  202.4511 P   0  0  0  0  0  0  0  0  0  0  0  0
   27.4743  -18.1947  202.7414 O   0  0  0  0  0  0  0  0  0  0  0  0
   27.1407  -15.8905  203.6640 O   0  0  0  0  0  0  0  0  0  0  0  0
   25.3337  -16.9417  202.2104 O   0  0  0  0  0  0  0  0  0  0  0  0
   28.0956  -15.8280  203.8226 H   0  0  0  0  0  0  0  0  0  0  0  0
   24.9042  -17.3119  202.9974 H   0  0  0  0  0  0  0  0  0  0  0  0
  3  1  2  0  0  0
  2  1  1  0  0  0
  1 40  1  0  0  0
  1  5  1  0  0  0
 42 41  2  0  0  0
 40 41  1  0  0  0
  5  6  1  0  0  0
 41 43  1  0  0  0
 41 45  1  0  0  0
  6  7  1  0  0  0
  9  7  1  0  0  0
 46 45  1  0  0  0
 46 47  1  0  0  0
 68 67  2  0  0  0
  7 10  1  0  0  0
  7  8  1  0  0  0
 47 49  1  0  0  0
 47 48  1  0  0  0
 10 11  1  0  0  0
 10 14  1  0  0  0
 49 66  1  0  0  0
 49 50  1  0  0  0
 67 69  1  0  0  0
 67 66  1  0  0  0
 67 70  1  0  0  0
 48 52  1  0  0  0
 15 14  2  0  0  0
 14 13  1  0  0  0
 50 52  1  0  0  0
 50 51  1  0  0  0
 52 54  1  0  0  0
 55 54  1  0  0  0
 55 56  2  0  0  0
 13 17  1  0  0  0
 54 58  1  0  0  0
 56 57  1  0  0  0
 17 18  1  0  0  0
 58 57  2  0  0  0
 58 59  1  0  0  0
 18 20  1  0  0  0
 57 62  1  0  0  0
 59 60  2  0  0  0
 20 21  2  0  0  0
 20 19  1  0  0  0
 62 63  1  0  0  0
 62 61  2  0  0  0
 60 61  1  0  0  0
 19 23  1  0  0  0
 23 24  1  0  0  0
 24 25  1  0  0  0
 27 26  2  0  0  0
 25 26  1  0  0  0
 26 38  1  0  0  0
 38 29  2  0  0  0
 38 37  1  0  0  0
 28 29  1  0  0  0
 29 30  1  0  0  0
 37 36  2  0  0  0
 36 35  1  0  0  0
 30 35  2  0  0  0
 30 31  1  0  0  0
 35 34  1  0  0  0
 31 32  2  0  0  0
 34 33  2  0  0  0
 32 33  1  0  0  0
 28 39  1  0  0  0
 19 22  1  0  0  0
 13 16  1  0  0  0
 11 12  1  0  0  0
  2  4  1  0  0  0
 43 44  1  0  0  0
 69 71  1  0  0  0
 70 72  1  0  0  0
 51 53  1  0  0  0
 63 64  1  0  0  0
 63 65  1  0  0  0
M  END
> <minimizedAffinity>
-9.99645

$$$$
4QIJ_1HA_A_401


 72 76  0  0  0  0  0  0  0  0999 V2000
   35.3874  -19.0348  198.3808 P   0  0  0  0  0  0  0  0  0  0  0  0
   36.7887  -19.2167  197.9636 O   0  0  0  0  0  0  0  0  0  0  0  0
   34.4397  -19.7199  197.4356 O   0  0  0  0  0  0  0  0  0  0  0  0
   37.0023  -20.1628  197.9513 H   0  0  0  0  0  0  0  0  0  0  0  0
   34.9716  -17.4388  198.4186 O   0  0  0  0  0  0  0  0  0  0  0  0
   34.2398  -16.8581  197.2835 C   0  0  0  0  0  0  0  0  0  0  0  0
   35.0031  -15.6335  196.8274 C   0  0  0  0  0  0  0  0  0  0  0  0
   35.7347  -15.0021  198.0418 C   0  0  0  0  0  0  0  0  0  0  0  0
   34.0102  -14.6392  196.2547 C   0  0  0  0  0  0  0  0  0  0  0  0
   36.0475  -16.0717  195.7785 C   0  0  0  0  0  0  0  0  0  0  0  0
   37.1532  -16.6089  196.3803 O   0  0  0  0  0  0  0  0  0  0  0  0
   36.8991  -17.4062  196.8708 H   0  0  0  0  0  0  0  0  0  0  0  0
   34.5780  -16.6740  193.7061 N   0  0  0  0  0  0  0  0  0  0  0  0
   35.4827  -17.1239  194.8188 C   0  0  0  0  0  0  0  0  0  0  0  0
   35.7198  -18.2767  194.9502 O   0  0  0  0  0  0  0  0  0  0  0  0
   34.3641  -15.7215  193.5791 H   0  0  0  0  0  0  0  0  0  0  0  0
   34.0313  -17.6860  192.8273 C   0  0  0  0  0  0  0  0  0  0  0  0
   32.6066  -17.3833  192.4596 C   0  0  0  0  0  0  0  0  0  0  0  0
   33.9193  -16.7475  190.3438 N   0  0  0  0  0  0  0  0  0  0  0  0
   32.7921  -16.5029  191.1779 C   0  0  0  0  0  0  0  0  0  0  0  0
   31.9703  -15.5829  190.9323 O   0  0  0  0  0  0  0  0  0  0  0  0
   34.5402  -17.4759  190.5742 H   0  0  0  0  0  0  0  0  0  0  0  0
   34.1683  -15.9592  189.1805 C   0  0  0  0  0  0  0  0  0  0  0  0
   33.2430  -16.3425  187.9216 C   0  0  0  0  0  0  0  0  0  0  0  0
   32.6033  -14.8124  187.3185 S   0  0  0  0  0  0  0  0  0  0  0  0
   33.7132  -14.2091  186.0161 C   0  0  0  0  0  0  0  0  0  0  0  0
   34.8088  -13.7991  186.3269 O   0  0  0  0  0  0  0  0  0  0  0  0
   35.0496  -14.4687  183.5253 O   0  0  0  0  0  0  0  0  0  0  0  0
   33.8298  -13.7789  183.6222 C   0  0  0  0  0  0  0  0  0  0  0  0
   33.3639  -13.2632  182.4067 C   0  0  0  0  0  0  0  0  0  0  0  0
   34.1284  -13.4680  181.2197 C   0  0  0  0  0  0  0  0  0  0  0  0
   33.6768  -12.9683  180.0330 C   0  0  0  0  0  0  0  0  0  0  0  0
   32.4736  -12.2650  179.9998 C   0  0  0  0  0  0  0  0  0  0  0  0
   31.7204  -12.0639  181.1652 C   0  0  0  0  0  0  0  0  0  0  0  0
   32.1801  -12.5716  182.3793 C   0  0  0  0  0  0  0  0  0  0  0  0
   31.4277  -12.3735  183.5656 C   0  0  0  0  0  0  0  0  0  0  0  0
   31.8975  -12.8860  184.7781 C   0  0  0  0  0  0  0  0  0  0  0  0
   33.0812  -13.5764  184.8036 C   0  0  0  0  0  0  0  0  0  0  0  0
   35.4358  -14.8473  184.2904 H   0  0  0  0  0  0  0  0  0  0  0  0
   35.3270  -19.6929  199.8140 O   0  0  0  0  0  0  0  0  0  0  0  0
   34.0242  -20.2604  200.6214 P   0  0  0  0  0  0  0  0  0  0  0  0
   33.9365  -21.7863  200.6548 O   0  0  0  0  0  0  0  0  0  0  0  0
   34.0792  -19.7301  202.0712 O   0  0  0  0  0  0  0  0  0  0  0  0
   34.8592  -20.0934  202.5190 H   0  0  0  0  0  0  0  0  0  0  0  0
   32.7418  -19.6701  199.8675 O   0  0  0  0  0  0  0  0  0  0  0  0
   31.8009  -18.7895  200.5783 C   0  0  0  0  0  0  0  0  0  0  0  0
   32.2230  -17.3341  200.2859 C   0  0  0  0  0  0  0  0  0  0  0  0
   31.5680  -16.8754  199.2545 O   0  0  0  0  0  0  0  0  0  0  0  0
   31.8066  -16.4338  201.5032 C   0  0  0  0  0  0  0  0  0  0  0  0
   30.4990  -15.8426  201.0067 C   0  0  0  0  0  0  0  0  0  0  0  0
   30.0873  -14.6199  201.8135 O   0  0  0  0  0  0  0  0  0  0  0  0
   30.7597  -15.5904  199.7182 C   0  0  0  0  0  0  0  0  0  0  0  0
   30.7938  -13.9562  201.7780 H   0  0  0  0  0  0  0  0  0  0  0  0
   29.5455  -15.4852  198.9458 N   0  0  0  0  0  0  0  0  0  0  0  0
   28.2781  -15.6510  199.4244 C   0  0  0  0  0  0  0  0  0  0  0  0
   27.4052  -15.4638  198.3857 N   0  0  0  0  0  0  0  0  0  0  0  0
   28.1440  -15.1761  197.2606 C   0  0  0  0  0  0  0  0  0  0  0  0
   29.4543  -15.1868  197.5969 C   0  0  0  0  0  0  0  0  0  0  0  0
   30.4048  -14.9270  196.6394 N   0  0  0  0  0  0  0  0  0  0  0  0
   30.0292  -14.6648  195.3506 C   0  0  0  0  0  0  0  0  0  0  0  0
   28.6962  -14.6522  195.0050 N   0  0  0  0  0  0  0  0  0  0  0  0
   27.7604  -14.8984  195.9446 C   0  0  0  0  0  0  0  0  0  0  0  0
   26.4491  -14.8549  195.4313 N   0  0  0  0  0  0  0  0  0  0  0  0
   25.6820  -15.0194  196.0260 H   0  0  0  0  0  0  0  0  0  0  0  0
   26.2999  -14.6599  194.4779 H   0  0  0  0  0  0  0  0  0  0  0  0
   32.7025  -15.4250  201.6785 O   0  0  0  0  0  0  0  0  0  0  0  0
   34.2798  -15.6517  202.0898 P   0  0  0  0  0  0  0  0  0  0  0  0
   35.0482  -14.4064  201.7667 O   0  0  0  0  0  0  0  0  0  0  0  0
   34.3601  -15.9252  203.6352 O   0  0  0  0  0  0  0  0  0  0  0  0
   34.8363  -16.8961  201.3300 O   0  0  0  0  0  0  0  0  0  0  0  0
   34.0163  -15.1572  204.1178 H   0  0  0  0  0  0  0  0  0  0  0  0
   35.7661  -17.0325  201.5703 H   0  0  0  0  0  0  0  0  0  0  0  0
  3  1  2  0  0  0
  2  1  1  0  0  0
  1 40  1  0  0  0
  1  5  1  0  0  0
 42 41  2  0  0  0
 40 41  1  0  0  0
  5  6  1  0  0  0
 41 43  1  0  0  0
 41 45  1  0  0  0
  6  7  1  0  0  0
  9  7  1  0  0  0
 46 45  1  0  0  0
 46 47  1  0  0  0
 68 67  2  0  0  0
  7 10  1  0  0  0
  7  8  1  0  0  0
 47 49  1  0  0  0
 47 48  1  0  0  0
 10 11  1  0  0  0
 10 14  1  0  0  0
 49 66  1  0  0  0
 49 50  1  0  0  0
 67 69  1  0  0  0
 67 66  1  0  0  0
 67 70  1  0  0  0
 48 52  1  0  0  0
 15 14  2  0  0  0
 14 13  1  0  0  0
 50 52  1  0  0  0
 50 51  1  0  0  0
 52 54  1  0  0  0
 55 54  1  0  0  0
 55 56  2  0  0  0
 13 17  1  0  0  0
 54 58  1  0  0  0
 56 57  1  0  0  0
 17 18  1  0  0  0
 58 57  2  0  0  0
 58 59  1  0  0  0
 18 20  1  0  0  0
 57 62  1  0  0  0
 59 60  2  0  0  0
 20 21  2  0  0  0
 20 19  1  0  0  0
 62 63  1  0  0  0
 62 61  2  0  0  0
 60 61  1  0  0  0
 19 23  1  0  0  0
 23 24  1  0  0  0
 24 25  1  0  0  0
 27 26  2  0  0  0
 25 26  1  0  0  0
 26 38  1  0  0  0
 38 29  2  0  0  0
 38 37  1  0  0  0
 28 29  1  0  0  0
 29 30  1  0  0  0
 37 36  2  0  0  0
 36 35  1  0  0  0
 30 35  2  0  0  0
 30 31  1  0  0  0
 35 34  1  0  0  0
 31 32  2  0  0  0
 34 33  2  0  0  0
 32 33  1  0  0  0
 28 39  1  0  0  0
 19 22  1  0  0  0
 13 16  1  0  0  0
 11 12  1  0  0  0
  2  4  1  0  0  0
 43 44  1  0  0  0
 69 71  1  0  0  0
 70 72  1  0  0  0
 51 53  1  0  0  0
 63 64  1  0  0  0
 63 65  1  0  0  0
M  END
> <minimizedAffinity>
-9.93478

$$$$
4QIJ_1HA_A_401


 72 76  0  0  0  0  0  0  0  0999 V2000
   36.2257  -18.3895  197.4932 P   0  0  0  0  0  0  0  0  0  0  0  0
   37.6720  -18.5508  197.2624 O   0  0  0  0  0  0  0  0  0  0  0  0
   35.4584  -18.4034  196.2002 O   0  0  0  0  0  0  0  0  0  0  0  0
   37.8363  -19.3984  196.8202 H   0  0  0  0  0  0  0  0  0  0  0  0
   35.8907  -16.9598  198.2450 O   0  0  0  0  0  0  0  0  0  0  0  0
   36.1111  -15.6978  197.5240 C   0  0  0  0  0  0  0  0  0  0  0  0
   35.0013  -14.7476  197.9183 C   0  0  0  0  0  0  0  0  0  0  0  0
   35.1639  -13.4155  197.1386 C   0  0  0  0  0  0  0  0  0  0  0  0
   35.1070  -14.4840  199.4089 C   0  0  0  0  0  0  0  0  0  0  0  0
   33.6499  -15.3925  197.5432 C   0  0  0  0  0  0  0  0  0  0  0  0
   32.6227  -14.8282  198.2504 O   0  0  0  0  0  0  0  0  0  0  0  0
   32.5544  -13.8870  198.0259 H   0  0  0  0  0  0  0  0  0  0  0  0
   34.0702  -16.0835  195.0608 N   0  0  0  0  0  0  0  0  0  0  0  0
   33.3349  -15.2270  196.0531 C   0  0  0  0  0  0  0  0  0  0  0  0
   32.5513  -14.4270  195.6680 O   0  0  0  0  0  0  0  0  0  0  0  0
   34.7282  -16.7532  195.3570 H   0  0  0  0  0  0  0  0  0  0  0  0
   33.7798  -15.8924  193.6557 C   0  0  0  0  0  0  0  0  0  0  0  0
   33.0521  -17.0733  193.0790 C   0  0  0  0  0  0  0  0  0  0  0  0
   32.8623  -16.2480  190.6527 N   0  0  0  0  0  0  0  0  0  0  0  0
   33.5541  -17.0594  191.5958 C   0  0  0  0  0  0  0  0  0  0  0  0
   34.5257  -17.7852  191.2622 O   0  0  0  0  0  0  0  0  0  0  0  0
   32.1044  -15.6972  190.9552 H   0  0  0  0  0  0  0  0  0  0  0  0
   33.2442  -16.2159  189.2780 C   0  0  0  0  0  0  0  0  0  0  0  0
   33.4700  -14.7328  188.6974 C   0  0  0  0  0  0  0  0  0  0  0  0
   32.5656  -14.6721  187.1834 S   0  0  0  0  0  0  0  0  0  0  0  0
   33.6829  -14.0852  185.8799 C   0  0  0  0  0  0  0  0  0  0  0  0
   34.7745  -13.6658  186.1923 O   0  0  0  0  0  0  0  0  0  0  0  0
   35.0536  -14.3537  183.4087 O   0  0  0  0  0  0  0  0  0  0  0  0
   33.8236  -13.6796  183.4830 C   0  0  0  0  0  0  0  0  0  0  0  0
   33.3659  -13.1836  182.2562 C   0  0  0  0  0  0  0  0  0  0  0  0
   34.1479  -13.3909  181.0810 C   0  0  0  0  0  0  0  0  0  0  0  0
   33.7045  -12.9104  179.8834 C   0  0  0  0  0  0  0  0  0  0  0  0
   32.4923  -12.2239  179.8276 C   0  0  0  0  0  0  0  0  0  0  0  0
   31.7220  -12.0204  180.9813 C   0  0  0  0  0  0  0  0  0  0  0  0
   32.1734  -12.5086  182.2065 C   0  0  0  0  0  0  0  0  0  0  0  0
   31.4036  -12.3078  183.3812 C   0  0  0  0  0  0  0  0  0  0  0  0
   31.8651  -12.8005  184.6050 C   0  0  0  0  0  0  0  0  0  0  0  0
   33.0576  -13.4744  184.6527 C   0  0  0  0  0  0  0  0  0  0  0  0
   35.4353  -14.7186  184.1828 H   0  0  0  0  0  0  0  0  0  0  0  0
   35.8412  -19.6302  198.3895 O   0  0  0  0  0  0  0  0  0  0  0  0
   34.3670  -20.2908  198.6380 P   0  0  0  0  0  0  0  0  0  0  0  0
   33.9119  -21.2223  197.5145 O   0  0  0  0  0  0  0  0  0  0  0  0
   34.4048  -21.0849  199.9625 O   0  0  0  0  0  0  0  0  0  0  0  0
   35.0264  -21.8248  199.8783 H   0  0  0  0  0  0  0  0  0  0  0  0
   33.3452  -19.0652  198.7599 O   0  0  0  0  0  0  0  0  0  0  0  0
   32.1597  -19.1683  199.6258 C   0  0  0  0  0  0  0  0  0  0  0  0
   31.8329  -17.7463  200.1289 C   0  0  0  0  0  0  0  0  0  0  0  0
   31.1448  -17.0988  199.2286 O   0  0  0  0  0  0  0  0  0  0  0  0
   30.9045  -17.8585  201.3905 C   0  0  0  0  0  0  0  0  0  0  0  0
   29.5337  -17.6371  200.7760 C   0  0  0  0  0  0  0  0  0  0  0  0
   28.4914  -17.2853  201.8273 O   0  0  0  0  0  0  0  0  0  0  0  0
   29.7641  -16.6675  199.8824 C   0  0  0  0  0  0  0  0  0  0  0  0
   28.7760  -16.4955  202.3131 H   0  0  0  0  0  0  0  0  0  0  0  0
   28.7425  -16.6359  198.8640 N   0  0  0  0  0  0  0  0  0  0  0  0
   27.6055  -17.3908  198.8502 C   0  0  0  0  0  0  0  0  0  0  0  0
   26.8942  -17.0650  197.7260 N   0  0  0  0  0  0  0  0  0  0  0  0
   27.5995  -16.0981  197.0462 C   0  0  0  0  0  0  0  0  0  0  0  0
   28.7310  -15.8305  197.7378 C   0  0  0  0  0  0  0  0  0  0  0  0
   29.6136  -14.8913  197.2617 N   0  0  0  0  0  0  0  0  0  0  0  0
   29.3533  -14.2341  196.0908 C   0  0  0  0  0  0  0  0  0  0  0  0
   28.2021  -14.5034  195.3846 N   0  0  0  0  0  0  0  0  0  0  0  0
   27.3295  -15.4185  195.8540 C   0  0  0  0  0  0  0  0  0  0  0  0
   26.2091  -15.5823  195.0158 N   0  0  0  0  0  0  0  0  0  0  0  0
   25.5036  -16.2252  195.2570 H   0  0  0  0  0  0  0  0  0  0  0  0
   26.1316  -15.0538  194.1888 H   0  0  0  0  0  0  0  0  0  0  0  0
   31.1604  -16.8457  202.2621 O   0  0  0  0  0  0  0  0  0  0  0  0
   32.2224  -16.9514  203.5149 P   0  0  0  0  0  0  0  0  0  0  0  0
   33.6163  -16.8214  202.9803 O   0  0  0  0  0  0  0  0  0  0  0  0
   31.9373  -15.7724  204.5140 O   0  0  0  0  0  0  0  0  0  0  0  0
   32.0057  -18.3050  204.2606 O   0  0  0  0  0  0  0  0  0  0  0  0
   32.0691  -14.9252  204.0604 H   0  0  0  0  0  0  0  0  0  0  0  0
   32.6303  -18.3705  204.9999 H   0  0  0  0  0  0  0  0  0  0  0  0
  3  1  2  0  0  0
  2  1  1  0  0  0
  1 40  1  0  0  0
  1  5  1  0  0  0
 42 41  2  0  0  0
 40 41  1  0  0  0
  5  6  1  0  0  0
 41 43  1  0  0  0
 41 45  1  0  0  0
  6  7  1  0  0  0
  9  7  1  0  0  0
 46 45  1  0  0  0
 46 47  1  0  0  0
 68 67  2  0  0  0
  7 10  1  0  0  0
  7  8  1  0  0  0
 47 49  1  0  0  0
 47 48  1  0  0  0
 10 11  1  0  0  0
 10 14  1  0  0  0
 49 66  1  0  0  0
 49 50  1  0  0  0
 67 69  1  0  0  0
 67 66  1  0  0  0
 67 70  1  0  0  0
 48 52  1  0  0  0
 15 14  2  0  0  0
 14 13  1  0  0  0
 50 52  1  0  0  0
 50 51  1  0  0  0
 52 54  1  0  0  0
 55 54  1  0  0  0
 55 56  2  0  0  0
 13 17  1  0  0  0
 54 58  1  0  0  0
 56 57  1  0  0  0
 17 18  1  0  0  0
 58 57  2  0  0  0
 58 59  1  0  0  0
 18 20  1  0  0  0
 57 62  1  0  0  0
 59 60  2  0  0  0
 20 21  2  0  0  0
 20 19  1  0  0  0
 62 63  1  0  0  0
 62 61  2  0  0  0
 60 61  1  0  0  0
 19 23  1  0  0  0
 23 24  1  0  0  0
 24 25  1  0  0  0
 27 26  2  0  0  0
 25 26  1  0  0  0
 26 38  1  0  0  0
 38 29  2  0  0  0
 38 37  1  0  0  0
 28 29  1  0  0  0
 29 30  1  0  0  0
 37 36  2  0  0  0
 36 35  1  0  0  0
 30 35  2  0  0  0
 30 31  1  0  0  0
 35 34  1  0  0  0
 31 32  2  0  0  0
 34 33  2  0  0  0
 32 33  1  0  0  0
 28 39  1  0  0  0
 19 22  1  0  0  0
 13 16  1  0  0  0
 11 12  1  0  0  0
  2  4  1  0  0  0
 43 44  1  0  0  0
 69 71  1  0  0  0
 70 72  1  0  0  0
 51 53  1  0  0  0
 63 64  1  0  0  0
 63 65  1  0  0  0
M  END
> <minimizedAffinity>
-9.43296

$$$$
4QIJ_1HA_A_401


 72 76  0  0  0  0  0  0  0  0999 V2000
   34.5628  -15.8060  199.8549 P   0  0  0  0  0  0  0  0  0  0  0  0
   34.1722  -14.8068  200.8649 O   0  0  0  0  0  0  0  0  0  0  0  0
   36.0497  -15.8087  199.6315 O   0  0  0  0  0  0  0  0  0  0  0  0
   34.6062  -15.0123  201.7077 H   0  0  0  0  0  0  0  0  0  0  0  0
   33.8501  -15.5019  198.3985 O   0  0  0  0  0  0  0  0  0  0  0  0
   33.9792  -16.4859  197.3139 C   0  0  0  0  0  0  0  0  0  0  0  0
   34.0666  -15.7200  196.0116 C   0  0  0  0  0  0  0  0  0  0  0  0
   34.8986  -14.4282  196.2299 C   0  0  0  0  0  0  0  0  0  0  0  0
   32.6590  -15.3549  195.5783 C   0  0  0  0  0  0  0  0  0  0  0  0
   34.7764  -16.6096  194.9686 C   0  0  0  0  0  0  0  0  0  0  0  0
   34.9161  -17.8910  195.4289 O   0  0  0  0  0  0  0  0  0  0  0  0
   34.0393  -18.2791  195.5761 H   0  0  0  0  0  0  0  0  0  0  0  0
   34.0972  -15.5112  192.6995 N   0  0  0  0  0  0  0  0  0  0  0  0
   33.9985  -16.6711  193.6501 C   0  0  0  0  0  0  0  0  0  0  0  0
   33.3061  -17.5927  193.3788 O   0  0  0  0  0  0  0  0  0  0  0  0
   34.6639  -14.7328  192.9049 H   0  0  0  0  0  0  0  0  0  0  0  0
   33.3323  -15.5751  191.4722 C   0  0  0  0  0  0  0  0  0  0  0  0
   34.1875  -16.0011  190.3130 C   0  0  0  0  0  0  0  0  0  0  0  0
   33.6975  -16.0241  187.7903 N   0  0  0  0  0  0  0  0  0  0  0  0
   33.2585  -15.6687  189.0970 C   0  0  0  0  0  0  0  0  0  0  0  0
   32.1707  -15.0684  189.2926 O   0  0  0  0  0  0  0  0  0  0  0  0
   34.5577  -16.4904  187.6812 H   0  0  0  0  0  0  0  0  0  0  0  0
   32.9171  -15.7186  186.6352 C   0  0  0  0  0  0  0  0  0  0  0  0
   33.5036  -14.5084  185.7523 C   0  0  0  0  0  0  0  0  0  0  0  0
   32.5148  -13.1034  186.1552 S   0  0  0  0  0  0  0  0  0  0  0  0
   32.9061  -11.7796  184.9777 C   0  0  0  0  0  0  0  0  0  0  0  0
   32.7673  -10.6289  185.3263 O   0  0  0  0  0  0  0  0  0  0  0  0
   35.1599  -11.6937  183.2542 O   0  0  0  0  0  0  0  0  0  0  0  0
   33.8829  -12.0039  182.7585 C   0  0  0  0  0  0  0  0  0  0  0  0
   33.8483  -12.2618  181.3827 C   0  0  0  0  0  0  0  0  0  0  0  0
   35.0559  -12.1920  180.6262 C   0  0  0  0  0  0  0  0  0  0  0  0
   35.0265  -12.4442  179.2856 C   0  0  0  0  0  0  0  0  0  0  0  0
   33.8149  -12.7667  178.6760 C   0  0  0  0  0  0  0  0  0  0  0  0
   32.6274  -12.8369  179.4182 C   0  0  0  0  0  0  0  0  0  0  0  0
   32.6540  -12.5780  180.7876 C   0  0  0  0  0  0  0  0  0  0  0  0
   31.4589  -12.6445  181.5492 C   0  0  0  0  0  0  0  0  0  0  0  0
   31.4960  -12.3826  182.9216 C   0  0  0  0  0  0  0  0  0  0  0  0
   32.6904  -12.0662  183.5144 C   0  0  0  0  0  0  0  0  0  0  0  0
   35.2763  -11.5070  184.1650 H   0  0  0  0  0  0  0  0  0  0  0  0
   34.0833  -17.1782  200.4698 O   0  0  0  0  0  0  0  0  0  0  0  0
   33.6191  -17.5017  202.0031 P   0  0  0  0  0  0  0  0  0  0  0  0
   33.4595  -18.9935  202.2969 O   0  0  0  0  0  0  0  0  0  0  0  0
   34.6721  -16.9114  202.9669 O   0  0  0  0  0  0  0  0  0  0  0  0
   35.5201  -17.3637  202.8357 H   0  0  0  0  0  0  0  0  0  0  0  0
   32.2126  -16.7659  202.2067 O   0  0  0  0  0  0  0  0  0  0  0  0
   31.1467  -16.9071  201.2018 C   0  0  0  0  0  0  0  0  0  0  0  0
   30.5231  -15.5108  200.9938 C   0  0  0  0  0  0  0  0  0  0  0  0
   30.0784  -15.3953  199.7723 O   0  0  0  0  0  0  0  0  0  0  0  0
   29.2694  -15.3737  201.9295 C   0  0  0  0  0  0  0  0  0  0  0  0
   28.1395  -15.6968  200.9678 C   0  0  0  0  0  0  0  0  0  0  0  0
   26.7910  -15.2383  201.5032 O   0  0  0  0  0  0  0  0  0  0  0  0
   28.5241  -15.0810  199.8432 C   0  0  0  0  0  0  0  0  0  0  0  0
   26.8211  -14.2854  201.6820 H   0  0  0  0  0  0  0  0  0  0  0  0
   27.8700  -15.6413  198.6856 N   0  0  0  0  0  0  0  0  0  0  0  0
   26.8868  -16.5877  198.7042 C   0  0  0  0  0  0  0  0  0  0  0  0
   26.5249  -16.8482  197.4092 N   0  0  0  0  0  0  0  0  0  0  0  0
   27.2902  -16.0509  196.5889 C   0  0  0  0  0  0  0  0  0  0  0  0
   28.1146  -15.3093  197.3639 C   0  0  0  0  0  0  0  0  0  0  0  0
   28.9878  -14.4254  196.7772 N   0  0  0  0  0  0  0  0  0  0  0  0
   29.0282  -14.2997  195.4158 C   0  0  0  0  0  0  0  0  0  0  0  0
   28.1898  -15.0524  194.6240 N   0  0  0  0  0  0  0  0  0  0  0  0
   27.3255  -15.9146  195.1974 C   0  0  0  0  0  0  0  0  0  0  0  0
   26.5448  -16.6110  194.2538 N   0  0  0  0  0  0  0  0  0  0  0  0
   25.8776  -17.2687  194.5563 H   0  0  0  0  0  0  0  0  0  0  0  0
   26.6664  -16.4399  193.2920 H   0  0  0  0  0  0  0  0  0  0  0  0
   29.1283  -14.0883  202.3520 O   0  0  0  0  0  0  0  0  0  0  0  0
   28.5008  -13.6594  203.8117 P   0  0  0  0  0  0  0  0  0  0  0  0
   28.9683  -12.2771  204.1524 O   0  0  0  0  0  0  0  0  0  0  0  0
   26.9330  -13.6656  203.7043 O   0  0  0  0  0  0  0  0  0  0  0  0
   28.9347  -14.7051  204.8859 O   0  0  0  0  0  0  0  0  0  0  0  0
   26.6519  -13.0185  203.0386 H   0  0  0  0  0  0  0  0  0  0  0  0
   28.5664  -14.4552  205.7477 H   0  0  0  0  0  0  0  0  0  0  0  0
  3  1  2  0  0  0
  2  1  1  0  0  0
  1 40  1  0  0  0
  1  5  1  0  0  0
 42 41  2  0  0  0
 40 41  1  0  0  0
  5  6  1  0  0  0
 41 43  1  0  0  0
 41 45  1  0  0  0
  6  7  1  0  0  0
  9  7  1  0  0  0
 46 45  1  0  0  0
 46 47  1  0  0  0
 68 67  2  0  0  0
  7 10  1  0  0  0
  7  8  1  0  0  0
 47 49  1  0  0  0
 47 48  1  0  0  0
 10 11  1  0  0  0
 10 14  1  0  0  0
 49 66  1  0  0  0
 49 50  1  0  0  0
 67 69  1  0  0  0
 67 66  1  0  0  0
 67 70  1  0  0  0
 48 52  1  0  0  0
 15 14  2  0  0  0
 14 13  1  0  0  0
 50 52  1  0  0  0
 50 51  1  0  0  0
 52 54  1  0  0  0
 55 54  1  0  0  0
 55 56  2  0  0  0
 13 17  1  0  0  0
 54 58  1  0  0  0
 56 57  1  0  0  0
 17 18  1  0  0  0
 58 57  2  0  0  0
 58 59  1  0  0  0
 18 20  1  0  0  0
 57 62  1  0  0  0
 59 60  2  0  0  0
 20 21  2  0  0  0
 20 19  1  0  0  0
 62 63  1  0  0  0
 62 61  2  0  0  0
 60 61  1  0  0  0
 19 23  1  0  0  0
 23 24  1  0  0  0
 24 25  1  0  0  0
 27 26  2  0  0  0
 25 26  1  0  0  0
 26 38  1  0  0  0
 38 29  2  0  0  0
 38 37  1  0  0  0
 28 29  1  0  0  0
 29 30  1  0  0  0
 37 36  2  0  0  0
 36 35  1  0  0  0
 30 35  2  0  0  0
 30 31  1  0  0  0
 35 34  1  0  0  0
 31 32  2  0  0  0
 34 33  2  0  0  0
 32 33  1  0  0  0
 28 39  1  0  0  0
 19 22  1  0  0  0
 13 16  1  0  0  0
 11 12  1  0  0  0
  2  4  1  0  0  0
 43 44  1  0  0  0
 69 71  1  0  0  0
 70 72  1  0  0  0
 51 53  1  0  0  0
 63 64  1  0  0  0
 63 65  1  0  0  0
M  END
> <minimizedAffinity>
-9.39366

$$$$
4QIJ_1HA_A_401


 72 76  0  0  0  0  0  0  0  0999 V2000
   36.2605  -18.4427  197.3546 P   0  0  0  0  0  0  0  0  0  0  0  0
   37.4669  -18.2795  196.5247 O   0  0  0  0  0  0  0  0  0  0  0  0
   35.0433  -18.6985  196.5098 O   0  0  0  0  0  0  0  0  0  0  0  0
   37.6177  -19.0883  196.0108 H   0  0  0  0  0  0  0  0  0  0  0  0
   35.9580  -17.0914  198.2513 O   0  0  0  0  0  0  0  0  0  0  0  0
   36.2689  -15.7692  197.6888 C   0  0  0  0  0  0  0  0  0  0  0  0
   35.0849  -14.8673  197.9629 C   0  0  0  0  0  0  0  0  0  0  0  0
   35.1607  -13.6241  197.0369 C   0  0  0  0  0  0  0  0  0  0  0  0
   35.1460  -14.4288  199.4142 C   0  0  0  0  0  0  0  0  0  0  0  0
   33.7917  -15.6515  197.6535 C   0  0  0  0  0  0  0  0  0  0  0  0
   32.7635  -15.2410  198.4581 O   0  0  0  0  0  0  0  0  0  0  0  0
   32.5709  -14.3062  198.2852 H   0  0  0  0  0  0  0  0  0  0  0  0
   34.1864  -16.0645  195.1058 N   0  0  0  0  0  0  0  0  0  0  0  0
   33.3476  -15.4646  196.1992 C   0  0  0  0  0  0  0  0  0  0  0  0
   32.3810  -14.8403  195.9193 O   0  0  0  0  0  0  0  0  0  0  0  0
   34.9958  -16.5849  195.3140 H   0  0  0  0  0  0  0  0  0  0  0  0
   33.7663  -15.8527  193.7370 C   0  0  0  0  0  0  0  0  0  0  0  0
   33.0560  -17.0569  193.1873 C   0  0  0  0  0  0  0  0  0  0  0  0
   32.7838  -16.2674  190.7569 N   0  0  0  0  0  0  0  0  0  0  0  0
   33.5237  -17.0438  191.6928 C   0  0  0  0  0  0  0  0  0  0  0  0
   34.5116  -17.7405  191.3453 O   0  0  0  0  0  0  0  0  0  0  0  0
   32.0146  -15.7389  191.0705 H   0  0  0  0  0  0  0  0  0  0  0  0
   33.1333  -16.2390  189.3735 C   0  0  0  0  0  0  0  0  0  0  0  0
   33.3486  -14.7575  188.7848 C   0  0  0  0  0  0  0  0  0  0  0  0
   32.4926  -14.7301  187.2418 S   0  0  0  0  0  0  0  0  0  0  0  0
   33.6413  -14.1388  185.9679 C   0  0  0  0  0  0  0  0  0  0  0  0
   34.7330  -13.7406  186.3062 O   0  0  0  0  0  0  0  0  0  0  0  0
   35.0125  -14.4525  183.5024 O   0  0  0  0  0  0  0  0  0  0  0  0
   33.8098  -13.7304  183.5732 C   0  0  0  0  0  0  0  0  0  0  0  0
   33.3782  -13.2123  182.3461 C   0  0  0  0  0  0  0  0  0  0  0  0
   34.1573  -13.4462  181.1740 C   0  0  0  0  0  0  0  0  0  0  0  0
   33.7391  -12.9442  179.9761 C   0  0  0  0  0  0  0  0  0  0  0  0
   32.5554  -12.2100  179.9170 C   0  0  0  0  0  0  0  0  0  0  0  0
   31.7880  -11.9803  181.0678 C   0  0  0  0  0  0  0  0  0  0  0  0
   32.2136  -12.4904  182.2933 C   0  0  0  0  0  0  0  0  0  0  0  0
   31.4466  -12.2635  183.4650 C   0  0  0  0  0  0  0  0  0  0  0  0
   31.8821  -12.7785  184.6892 C   0  0  0  0  0  0  0  0  0  0  0  0
   33.0467  -13.4994  184.7400 C   0  0  0  0  0  0  0  0  0  0  0  0
   35.3756  -14.8351  184.2768 H   0  0  0  0  0  0  0  0  0  0  0  0
   36.5878  -19.6910  198.2632 O   0  0  0  0  0  0  0  0  0  0  0  0
   35.8102  -20.2075  199.6047 P   0  0  0  0  0  0  0  0  0  0  0  0
   34.3920  -20.7128  199.3388 O   0  0  0  0  0  0  0  0  0  0  0  0
   36.6370  -21.3474  200.2399 O   0  0  0  0  0  0  0  0  0  0  0  0
   36.6668  -22.1027  199.6319 H   0  0  0  0  0  0  0  0  0  0  0  0
   35.7509  -18.9523  200.5957 O   0  0  0  0  0  0  0  0  0  0  0  0
   34.5560  -18.7112  201.4202 C   0  0  0  0  0  0  0  0  0  0  0  0
   34.3357  -17.1847  201.4752 C   0  0  0  0  0  0  0  0  0  0  0  0
   33.1504  -16.8856  201.0183 O   0  0  0  0  0  0  0  0  0  0  0  0
   34.3533  -16.7262  202.9770 C   0  0  0  0  0  0  0  0  0  0  0  0
   32.8685  -16.6544  203.2870 C   0  0  0  0  0  0  0  0  0  0  0  0
   32.5904  -15.8424  204.5434 O   0  0  0  0  0  0  0  0  0  0  0  0
   32.3584  -16.1284  202.1668 C   0  0  0  0  0  0  0  0  0  0  0  0
   32.9580  -14.9507  204.4401 H   0  0  0  0  0  0  0  0  0  0  0  0
   30.9495  -16.4147  202.0443 N   0  0  0  0  0  0  0  0  0  0  0  0
   30.4051  -17.4726  201.3755 C   0  0  0  0  0  0  0  0  0  0  0  0
   29.0432  -17.3959  201.4982 N   0  0  0  0  0  0  0  0  0  0  0  0
   28.7497  -16.2830  202.2529 C   0  0  0  0  0  0  0  0  0  0  0  0
   29.9119  -15.6787  202.5910 C   0  0  0  0  0  0  0  0  0  0  0  0
   29.8881  -14.5343  203.3510 N   0  0  0  0  0  0  0  0  0  0  0  0
   28.6950  -14.0044  203.7591 C   0  0  0  0  0  0  0  0  0  0  0  0
   27.5101  -14.6174  203.4175 N   0  0  0  0  0  0  0  0  0  0  0  0
   27.5307  -15.7457  202.6789 C   0  0  0  0  0  0  0  0  0  0  0  0
   26.2406  -16.2441  202.4103 N   0  0  0  0  0  0  0  0  0  0  0  0
   26.1309  -17.0652  201.8783 H   0  0  0  0  0  0  0  0  0  0  0  0
   25.4487  -15.7712  202.7546 H   0  0  0  0  0  0  0  0  0  0  0  0
   34.8827  -15.4779  203.0881 O   0  0  0  0  0  0  0  0  0  0  0  0
   36.0457  -15.0612  204.1755 P   0  0  0  0  0  0  0  0  0  0  0  0
   36.2475  -13.5773  204.1239 O   0  0  0  0  0  0  0  0  0  0  0  0
   35.5571  -15.4692  205.6123 O   0  0  0  0  0  0  0  0  0  0  0  0
   37.3575  -15.8417  203.8507 O   0  0  0  0  0  0  0  0  0  0  0  0
   34.7413  -14.9895  205.8248 H   0  0  0  0  0  0  0  0  0  0  0  0
   38.0452  -15.5983  204.4900 H   0  0  0  0  0  0  0  0  0  0  0  0
  3  1  2  0  0  0
  2  1  1  0  0  0
  1 40  1  0  0  0
  1  5  1  0  0  0
 42 41  2  0  0  0
 40 41  1  0  0  0
  5  6  1  0  0  0
 41 43  1  0  0  0
 41 45  1  0  0  0
  6  7  1  0  0  0
  9  7  1  0  0  0
 46 45  1  0  0  0
 46 47  1  0  0  0
 68 67  2  0  0  0
  7 10  1  0  0  0
  7  8  1  0  0  0
 47 49  1  0  0  0
 47 48  1  0  0  0
 10 11  1  0  0  0
 10 14  1  0  0  0
 49 66  1  0  0  0
 49 50  1  0  0  0
 67 69  1  0  0  0
 67 66  1  0  0  0
 67 70  1  0  0  0
 48 52  1  0  0  0
 15 14  2  0  0  0
 14 13  1  0  0  0
 50 52  1  0  0  0
 50 51  1  0  0  0
 52 54  1  0  0  0
 55 54  1  0  0  0
 55 56  2  0  0  0
 13 17  1  0  0  0
 54 58  1  0  0  0
 56 57  1  0  0  0
 17 18  1  0  0  0
 58 57  2  0  0  0
 58 59  1  0  0  0
 18 20  1  0  0  0
 57 62  1  0  0  0
 59 60  2  0  0  0
 20 21  2  0  0  0
 20 19  1  0  0  0
 62 63  1  0  0  0
 62 61  2  0  0  0
 60 61  1  0  0  0
 19 23  1  0  0  0
 23 24  1  0  0  0
 24 25  1  0  0  0
 27 26  2  0  0  0
 25 26  1  0  0  0
 26 38  1  0  0  0
 38 29  2  0  0  0
 38 37  1  0  0  0
 28 29  1  0  0  0
 29 30  1  0  0  0
 37 36  2  0  0  0
 36 35  1  0  0  0
 30 35  2  0  0  0
 30 31  1  0  0  0
 35 34  1  0  0  0
 31 32  2  0  0  0
 34 33  2  0  0  0
 32 33  1  0  0  0
 28 39  1  0  0  0
 19 22  1  0  0  0
 13 16  1  0  0  0
 11 12  1  0  0  0
  2  4  1  0  0  0
 43 44  1  0  0  0
 69 71  1  0  0  0
 70 72  1  0  0  0
 51 53  1  0  0  0
 63 64  1  0  0  0
 63 65  1  0  0  0
M  END
> <minimizedAffinity>
-9.26479

$$$$
4QIJ_1HA_A_401


 72 76  0  0  0  0  0  0  0  0999 V2000
   34.7984  -20.5293  197.4134 P   0  0  0  0  0  0  0  0  0  0  0  0
   35.0899  -19.6028  196.3054 O   0  0  0  0  0  0  0  0  0  0  0  0
   34.2039  -21.8160  196.9113 O   0  0  0  0  0  0  0  0  0  0  0  0
   35.7244  -20.0145  195.6981 H   0  0  0  0  0  0  0  0  0  0  0  0
   33.7211  -19.8760  198.4783 O   0  0  0  0  0  0  0  0  0  0  0  0
   32.7271  -20.7465  199.1228 C   0  0  0  0  0  0  0  0  0  0  0  0
   32.9846  -20.7069  200.6135 C   0  0  0  0  0  0  0  0  0  0  0  0
   34.2258  -21.5780  200.9440 C   0  0  0  0  0  0  0  0  0  0  0  0
   31.7646  -21.2648  201.3226 C   0  0  0  0  0  0  0  0  0  0  0  0
   33.2681  -19.2453  201.0215 C   0  0  0  0  0  0  0  0  0  0  0  0
   32.3829  -18.3881  200.4256 O   0  0  0  0  0  0  0  0  0  0  0  0
   31.4834  -18.5920  200.7259 H   0  0  0  0  0  0  0  0  0  0  0  0
   31.9085  -18.4302  203.0960 N   0  0  0  0  0  0  0  0  0  0  0  0
   33.1599  -19.0467  202.5367 C   0  0  0  0  0  0  0  0  0  0  0  0
   34.0441  -19.3410  203.2674 O   0  0  0  0  0  0  0  0  0  0  0  0
   31.1614  -18.1746  202.5079 H   0  0  0  0  0  0  0  0  0  0  0  0
   31.8367  -18.2241  204.5270 C   0  0  0  0  0  0  0  0  0  0  0  0
   31.8032  -16.7622  204.8709 C   0  0  0  0  0  0  0  0  0  0  0  0
   29.9997  -15.0395  204.2510 N   0  0  0  0  0  0  0  0  0  0  0  0
   30.3159  -16.3958  204.5457 C   0  0  0  0  0  0  0  0  0  0  0  0
   29.4329  -17.2907  204.5861 O   0  0  0  0  0  0  0  0  0  0  0  0
   30.7210  -14.3696  204.2330 H   0  0  0  0  0  0  0  0  0  0  0  0
   28.6594  -14.6303  203.9811 C   0  0  0  0  0  0  0  0  0  0  0  0
   28.2222  -14.8003  202.4423 C   0  0  0  0  0  0  0  0  0  0  0  0
   29.5921  -14.2218  201.4921 S   0  0  0  0  0  0  0  0  0  0  0  0
   30.0727  -15.5342  200.3351 C   0  0  0  0  0  0  0  0  0  0  0  0
   31.2343  -15.6269  200.0079 O   0  0  0  0  0  0  0  0  0  0  0  0
   29.9236  -14.0817  197.9008 O   0  0  0  0  0  0  0  0  0  0  0  0
   29.0781  -15.1773  198.1413 C   0  0  0  0  0  0  0  0  0  0  0  0
   28.1982  -15.4648  197.0907 C   0  0  0  0  0  0  0  0  0  0  0  0
   28.2267  -14.6601  195.9129 C   0  0  0  0  0  0  0  0  0  0  0  0
   27.3719  -14.9381  194.8864 C   0  0  0  0  0  0  0  0  0  0  0  0
   26.4834  -16.0059  195.0053 C   0  0  0  0  0  0  0  0  0  0  0  0
   26.4550  -16.7984  196.1616 C   0  0  0  0  0  0  0  0  0  0  0  0
   27.3259  -16.5157  197.2127 C   0  0  0  0  0  0  0  0  0  0  0  0
   27.3057  -17.3095  198.3883 C   0  0  0  0  0  0  0  0  0  0  0  0
   28.1824  -17.0175  199.4370 C   0  0  0  0  0  0  0  0  0  0  0  0
   29.0532  -15.9663  199.3134 C   0  0  0  0  0  0  0  0  0  0  0  0
   30.5451  -13.8181  198.5506 H   0  0  0  0  0  0  0  0  0  0  0  0
   36.2062  -20.7821  198.0805 O   0  0  0  0  0  0  0  0  0  0  0  0
   37.5038  -19.7896  198.1303 P   0  0  0  0  0  0  0  0  0  0  0  0
   38.6325  -20.2957  199.0287 O   0  0  0  0  0  0  0  0  0  0  0  0
   38.0450  -19.6210  196.6933 O   0  0  0  0  0  0  0  0  0  0  0  0
   38.3657  -20.4760  196.3662 H   0  0  0  0  0  0  0  0  0  0  0  0
   36.9699  -18.3868  198.6856 O   0  0  0  0  0  0  0  0  0  0  0  0
   37.7489  -17.1568  198.4713 C   0  0  0  0  0  0  0  0  0  0  0  0
   36.7677  -15.9692  198.5642 C   0  0  0  0  0  0  0  0  0  0  0  0
   36.4721  -15.5367  197.3689 O   0  0  0  0  0  0  0  0  0  0  0  0
   35.4199  -16.4762  199.1907 C   0  0  0  0  0  0  0  0  0  0  0  0
   34.5745  -16.6955  197.9485 C   0  0  0  0  0  0  0  0  0  0  0  0
   33.0928  -16.7923  198.2811 O   0  0  0  0  0  0  0  0  0  0  0  0
   34.8998  -15.6478  197.1815 C   0  0  0  0  0  0  0  0  0  0  0  0
   32.8120  -15.9873  198.7437 H   0  0  0  0  0  0  0  0  0  0  0  0
   34.6007  -15.8986  195.7924 N   0  0  0  0  0  0  0  0  0  0  0  0
   35.4677  -16.4052  194.8681 C   0  0  0  0  0  0  0  0  0  0  0  0
   34.8052  -16.5002  193.6731 N   0  0  0  0  0  0  0  0  0  0  0  0
   33.5185  -16.0517  193.8675 C   0  0  0  0  0  0  0  0  0  0  0  0
   33.3868  -15.6830  195.1624 C   0  0  0  0  0  0  0  0  0  0  0  0
   32.1837  -15.1949  195.6121 N   0  0  0  0  0  0  0  0  0  0  0  0
   31.1255  -15.0762  194.7537 C   0  0  0  0  0  0  0  0  0  0  0  0
   31.2558  -15.4514  193.4350 N   0  0  0  0  0  0  0  0  0  0  0  0
   32.4330  -15.9390  192.9928 C   0  0  0  0  0  0  0  0  0  0  0  0
   32.4052  -16.2700  191.6236 N   0  0  0  0  0  0  0  0  0  0  0  0
   33.2093  -16.6359  191.1892 H   0  0  0  0  0  0  0  0  0  0  0  0
   31.5816  -16.1354  191.1013 H   0  0  0  0  0  0  0  0  0  0  0  0
   34.8457  -15.4979  199.9418 O   0  0  0  0  0  0  0  0  0  0  0  0
   34.7194  -15.5467  201.5820 P   0  0  0  0  0  0  0  0  0  0  0  0
   35.2104  -14.2474  202.1443 O   0  0  0  0  0  0  0  0  0  0  0  0
   33.2069  -15.7389  201.9624 O   0  0  0  0  0  0  0  0  0  0  0  0
   35.5322  -16.7634  202.1248 O   0  0  0  0  0  0  0  0  0  0  0  0
   32.6918  -14.9874  201.6294 H   0  0  0  0  0  0  0  0  0  0  0  0
   35.4599  -16.7951  203.0916 H   0  0  0  0  0  0  0  0  0  0  0  0
  3  1  2  0  0  0
  2  1  1  0  0  0
  1 40  1  0  0  0
  1  5  1  0  0  0
 42 41  2  0  0  0
 40 41  1  0  0  0
  5  6  1  0  0  0
 41 43  1  0  0  0
 41 45  1  0  0  0
  6  7  1  0  0  0
  9  7  1  0  0  0
 46 45  1  0  0  0
 46 47  1  0  0  0
 68 67  2  0  0  0
  7 10  1  0  0  0
  7  8  1  0  0  0
 47 49  1  0  0  0
 47 48  1  0  0  0
 10 11  1  0  0  0
 10 14  1  0  0  0
 49 66  1  0  0  0
 49 50  1  0  0  0
 67 69  1  0  0  0
 67 66  1  0  0  0
 67 70  1  0  0  0
 48 52  1  0  0  0
 15 14  2  0  0  0
 14 13  1  0  0  0
 50 52  1  0  0  0
 50 51  1  0  0  0
 52 54  1  0  0  0
 55 54  1  0  0  0
 55 56  2  0  0  0
 13 17  1  0  0  0
 54 58  1  0  0  0
 56 57  1  0  0  0
 17 18  1  0  0  0
 58 57  2  0  0  0
 58 59  1  0  0  0
 18 20  1  0  0  0
 57 62  1  0  0  0
 59 60  2  0  0  0
 20 21  2  0  0  0
 20 19  1  0  0  0
 62 63  1  0  0  0
 62 61  2  0  0  0
 60 61  1  0  0  0
 19 23  1  0  0  0
 23 24  1  0  0  0
 24 25  1  0  0  0
 27 26  2  0  0  0
 25 26  1  0  0  0
 26 38  1  0  0  0
 38 29  2  0  0  0
 38 37  1  0  0  0
 28 29  1  0  0  0
 29 30  1  0  0  0
 37 36  2  0  0  0
 36 35  1  0  0  0
 30 35  2  0  0  0
 30 31  1  0  0  0
 35 34  1  0  0  0
 31 32  2  0  0  0
 34 33  2  0  0  0
 32 33  1  0  0  0
 28 39  1  0  0  0
 19 22  1  0  0  0
 13 16  1  0  0  0
 11 12  1  0  0  0
  2  4  1  0  0  0
 43 44  1  0  0  0
 69 71  1  0  0  0
 70 72  1  0  0  0
 51 53  1  0  0  0
 63 64  1  0  0  0
 63 65  1  0  0  0
M  END
> <minimizedAffinity>
-9.20126

$$$$
4QIJ_1HA_A_401


 72 76  0  0  0  0  0  0  0  0999 V2000
   31.0258  -18.8070  201.5449 P   0  0  0  0  0  0  0  0  0  0  0  0
   29.9705  -19.1223  202.5235 O   0  0  0  0  0  0  0  0  0  0  0  0
   30.4593  -18.6345  200.1628 O   0  0  0  0  0  0  0  0  0  0  0  0
   29.3251  -18.3986  202.5475 H   0  0  0  0  0  0  0  0  0  0  0  0
   32.1527  -20.0092  201.4646 O   0  0  0  0  0  0  0  0  0  0  0  0
   32.0430  -21.0303  200.4127 C   0  0  0  0  0  0  0  0  0  0  0  0
   33.4374  -21.2963  199.8884 C   0  0  0  0  0  0  0  0  0  0  0  0
   33.4262  -22.5903  199.0316 C   0  0  0  0  0  0  0  0  0  0  0  0
   34.3661  -21.4764  201.0748 C   0  0  0  0  0  0  0  0  0  0  0  0
   33.8615  -20.1055  199.0023 C   0  0  0  0  0  0  0  0  0  0  0  0
   34.2554  -19.0402  199.7660 O   0  0  0  0  0  0  0  0  0  0  0  0
   35.0328  -19.2882  200.2905 H   0  0  0  0  0  0  0  0  0  0  0  0
   34.7477  -20.6922  196.6175 N   0  0  0  0  0  0  0  0  0  0  0  0
   35.0270  -20.4714  198.0777 C   0  0  0  0  0  0  0  0  0  0  0  0
   36.1285  -20.6093  198.4900 O   0  0  0  0  0  0  0  0  0  0  0  0
   33.8395  -20.5864  196.2523 H   0  0  0  0  0  0  0  0  0  0  0  0
   35.8565  -21.0654  195.7652 C   0  0  0  0  0  0  0  0  0  0  0  0
   36.6287  -19.8604  195.3086 C   0  0  0  0  0  0  0  0  0  0  0  0
   35.3570  -17.6494  194.9952 N   0  0  0  0  0  0  0  0  0  0  0  0
   35.5093  -19.0128  194.6154 C   0  0  0  0  0  0  0  0  0  0  0  0
   34.7512  -19.5567  193.7719 O   0  0  0  0  0  0  0  0  0  0  0  0
   35.9700  -17.2636  195.6621 H   0  0  0  0  0  0  0  0  0  0  0  0
   34.3346  -16.8299  194.4298 C   0  0  0  0  0  0  0  0  0  0  0  0
   34.5420  -15.2557  194.6882 C   0  0  0  0  0  0  0  0  0  0  0  0
   34.0345  -14.9767  196.3552 S   0  0  0  0  0  0  0  0  0  0  0  0
   35.4870  -14.4543  197.3089 C   0  0  0  0  0  0  0  0  0  0  0  0
   36.1080  -13.4828  196.9409 O   0  0  0  0  0  0  0  0  0  0  0  0
   35.0960  -14.7850  200.1009 O   0  0  0  0  0  0  0  0  0  0  0  0
   35.9929  -15.6037  199.3951 C   0  0  0  0  0  0  0  0  0  0  0  0
   36.6380  -16.5629  200.1853 C   0  0  0  0  0  0  0  0  0  0  0  0
   36.3486  -16.6307  201.5807 C   0  0  0  0  0  0  0  0  0  0  0  0
   36.9741  -17.5651  202.3537 C   0  0  0  0  0  0  0  0  0  0  0  0
   37.8870  -18.4399  201.7662 C   0  0  0  0  0  0  0  0  0  0  0  0
   38.1716  -18.3753  200.3948 C   0  0  0  0  0  0  0  0  0  0  0  0
   37.5355  -17.4206  199.6029 C   0  0  0  0  0  0  0  0  0  0  0  0
   37.8161  -17.3444  198.2143 C   0  0  0  0  0  0  0  0  0  0  0  0
   37.1736  -16.3832  197.4290 C   0  0  0  0  0  0  0  0  0  0  0  0
   36.2773  -15.5265  198.0130 C   0  0  0  0  0  0  0  0  0  0  0  0
   34.6198  -14.1150  199.6510 H   0  0  0  0  0  0  0  0  0  0  0  0
   31.6446  -17.4545  202.0727 O   0  0  0  0  0  0  0  0  0  0  0  0
   32.0358  -16.1130  201.2251 P   0  0  0  0  0  0  0  0  0  0  0  0
   33.1161  -15.2583  201.8882 O   0  0  0  0  0  0  0  0  0  0  0  0
   32.5281  -16.5455  199.8262 O   0  0  0  0  0  0  0  0  0  0  0  0
   33.3447  -17.0613  199.9160 H   0  0  0  0  0  0  0  0  0  0  0  0
   30.6879  -15.2601  201.0950 O   0  0  0  0  0  0  0  0  0  0  0  0
   29.5501  -15.5259  201.9897 C   0  0  0  0  0  0  0  0  0  0  0  0
   28.2681  -15.1049  201.2406 C   0  0  0  0  0  0  0  0  0  0  0  0
   28.5749  -14.3905  200.1924 O   0  0  0  0  0  0  0  0  0  0  0  0
   27.5552  -16.3941  200.6966 C   0  0  0  0  0  0  0  0  0  0  0  0
   28.0352  -16.4182  199.2562 C   0  0  0  0  0  0  0  0  0  0  0  0
   27.1763  -17.3256  198.3877 O   0  0  0  0  0  0  0  0  0  0  0  0
   27.9957  -15.1257  198.9104 C   0  0  0  0  0  0  0  0  0  0  0  0
   26.2519  -17.0348  198.4316 H   0  0  0  0  0  0  0  0  0  0  0  0
   28.8494  -14.8567  197.7788 N   0  0  0  0  0  0  0  0  0  0  0  0
   30.1373  -14.4090  197.8391 C   0  0  0  0  0  0  0  0  0  0  0  0
   30.6036  -14.2860  196.5571 N   0  0  0  0  0  0  0  0  0  0  0  0
   29.5936  -14.6659  195.7028 C   0  0  0  0  0  0  0  0  0  0  0  0
   28.5178  -15.0171  196.4441 C   0  0  0  0  0  0  0  0  0  0  0  0
   27.3685  -15.4373  195.8193 N   0  0  0  0  0  0  0  0  0  0  0  0
   27.3095  -15.4947  194.4540 C   0  0  0  0  0  0  0  0  0  0  0  0
   28.4029  -15.1387  193.6963 N   0  0  0  0  0  0  0  0  0  0  0  0
   29.5354  -14.7341  194.3070 C   0  0  0  0  0  0  0  0  0  0  0  0
   30.5563  -14.4006  193.3952 N   0  0  0  0  0  0  0  0  0  0  0  0
   31.4303  -14.0913  193.7263 H   0  0  0  0  0  0  0  0  0  0  0  0
   30.3956  -14.4769  192.4269 H   0  0  0  0  0  0  0  0  0  0  0  0
   26.2047  -16.2308  200.7036 O   0  0  0  0  0  0  0  0  0  0  0  0
   25.1379  -17.3788  201.2063 P   0  0  0  0  0  0  0  0  0  0  0  0
   23.7655  -17.0037  200.7360 O   0  0  0  0  0  0  0  0  0  0  0  0
   25.5470  -18.7559  200.5691 O   0  0  0  0  0  0  0  0  0  0  0  0
   25.2101  -17.5033  202.7602 O   0  0  0  0  0  0  0  0  0  0  0  0
   25.5056  -18.6898  199.6023 H   0  0  0  0  0  0  0  0  0  0  0  0
   24.5824  -18.1794  203.0599 H   0  0  0  0  0  0  0  0  0  0  0  0
  3  1  2  0  0  0
  2  1  1  0  0  0
  1 40  1  0  0  0
  1  5  1  0  0  0
 42 41  2  0  0  0
 40 41  1  0  0  0
  5  6  1  0  0  0
 41 43  1  0  0  0
 41 45  1  0  0  0
  6  7  1  0  0  0
  9  7  1  0  0  0
 46 45  1  0  0  0
 46 47  1  0  0  0
 68 67  2  0  0  0
  7 10  1  0  0  0
  7  8  1  0  0  0
 47 49  1  0  0  0
 47 48  1  0  0  0
 10 11  1  0  0  0
 10 14  1  0  0  0
 49 66  1  0  0  0
 49 50  1  0  0  0
 67 69  1  0  0  0
 67 66  1  0  0  0
 67 70  1  0  0  0
 48 52  1  0  0  0
 15 14  2  0  0  0
 14 13  1  0  0  0
 50 52  1  0  0  0
 50 51  1  0  0  0
 52 54  1  0  0  0
 55 54  1  0  0  0
 55 56  2  0  0  0
 13 17  1  0  0  0
 54 58  1  0  0  0
 56 57  1  0  0  0
 17 18  1  0  0  0
 58 57  2  0  0  0
 58 59  1  0  0  0
 18 20  1  0  0  0
 57 62  1  0  0  0
 59 60  2  0  0  0
 20 21  2  0  0  0
 20 19  1  0  0  0
 62 63  1  0  0  0
 62 61  2  0  0  0
 60 61  1  0  0  0
 19 23  1  0  0  0
 23 24  1  0  0  0
 24 25  1  0  0  0
 27 26  2  0  0  0
 25 26  1  0  0  0
 26 38  1  0  0  0
 38 29  2  0  0  0
 38 37  1  0  0  0
 28 29  1  0  0  0
 29 30  1  0  0  0
 37 36  2  0  0  0
 36 35  1  0  0  0
 30 35  2  0  0  0
 30 31  1  0  0  0
 35 34  1  0  0  0
 31 32  2  0  0  0
 34 33  2  0  0  0
 32 33  1  0  0  0
 28 39  1  0  0  0
 19 22  1  0  0  0
 13 16  1  0  0  0
 11 12  1  0  0  0
  2  4  1  0  0  0
 43 44  1  0  0  0
 69 71  1  0  0  0
 70 72  1  0  0  0
 51 53  1  0  0  0
 63 64  1  0  0  0
 63 65  1  0  0  0
M  END
> <minimizedAffinity>
-9.11726

$$$$
4QIJ_1HA_A_401


 72 76  0  0  0  0  0  0  0  0999 V2000
   33.2735  -16.8406  199.7938 P   0  0  0  0  0  0  0  0  0  0  0  0
   32.6527  -17.0372  198.4721 O   0  0  0  0  0  0  0  0  0  0  0  0
   33.6498  -15.4017  200.0152 O   0  0  0  0  0  0  0  0  0  0  0  0
   31.8480  -16.4992  198.4096 H   0  0  0  0  0  0  0  0  0  0  0  0
   34.6500  -17.7358  199.9528 O   0  0  0  0  0  0  0  0  0  0  0  0
   35.8178  -17.1482  200.6251 C   0  0  0  0  0  0  0  0  0  0  0  0
   36.5798  -18.2770  201.2850 C   0  0  0  0  0  0  0  0  0  0  0  0
   38.0657  -17.8628  201.4563 C   0  0  0  0  0  0  0  0  0  0  0  0
   36.4892  -19.4995  200.3908 C   0  0  0  0  0  0  0  0  0  0  0  0
   35.9622  -18.5354  202.6760 C   0  0  0  0  0  0  0  0  0  0  0  0
   35.1519  -17.4992  203.0543 O   0  0  0  0  0  0  0  0  0  0  0  0
   34.4127  -17.4225  202.4309 H   0  0  0  0  0  0  0  0  0  0  0  0
   33.8419  -19.8501  201.9062 N   0  0  0  0  0  0  0  0  0  0  0  0
   35.1204  -19.8154  202.6955 C   0  0  0  0  0  0  0  0  0  0  0  0
   35.4391  -20.7597  203.3351 O   0  0  0  0  0  0  0  0  0  0  0  0
   33.5550  -19.0762  201.3696 H   0  0  0  0  0  0  0  0  0  0  0  0
   33.0459  -21.0579  201.9602 C   0  0  0  0  0  0  0  0  0  0  0  0
   33.6487  -22.1514  201.1251 C   0  0  0  0  0  0  0  0  0  0  0  0
   34.4805  -21.9897  198.6989 N   0  0  0  0  0  0  0  0  0  0  0  0
   33.5646  -21.5337  199.6886 C   0  0  0  0  0  0  0  0  0  0  0  0
   32.7225  -20.6305  199.4494 O   0  0  0  0  0  0  0  0  0  0  0  0
   35.1261  -22.6965  198.9290 H   0  0  0  0  0  0  0  0  0  0  0  0
   34.4828  -21.4440  197.3802 C   0  0  0  0  0  0  0  0  0  0  0  0
   35.3582  -22.2870  196.3262 C   0  0  0  0  0  0  0  0  0  0  0  0
   34.8636  -21.7144  194.7320 S   0  0  0  0  0  0  0  0  0  0  0  0
   35.9521  -20.3413  194.2610 C   0  0  0  0  0  0  0  0  0  0  0  0
   37.1505  -20.4980  194.3264 O   0  0  0  0  0  0  0  0  0  0  0  0
   36.9930  -18.9023  196.4753 O   0  0  0  0  0  0  0  0  0  0  0  0
   36.0415  -18.3227  195.6200 C   0  0  0  0  0  0  0  0  0  0  0  0
   35.6852  -17.0124  195.9615 C   0  0  0  0  0  0  0  0  0  0  0  0
   36.2874  -16.3965  197.0989 C   0  0  0  0  0  0  0  0  0  0  0  0
   35.9439  -15.1192  197.4340 C   0  0  0  0  0  0  0  0  0  0  0  0
   35.0089  -14.4356  196.6580 C   0  0  0  0  0  0  0  0  0  0  0  0
   34.4171  -15.0390  195.5393 C   0  0  0  0  0  0  0  0  0  0  0  0
   34.7647  -16.3445  195.1955 C   0  0  0  0  0  0  0  0  0  0  0  0
   34.1718  -16.9663  194.0666 C   0  0  0  0  0  0  0  0  0  0  0  0
   34.5264  -18.2759  193.7306 C   0  0  0  0  0  0  0  0  0  0  0  0
   35.4462  -18.9420  194.4978 C   0  0  0  0  0  0  0  0  0  0  0  0
   37.2897  -19.7777  196.3215 H   0  0  0  0  0  0  0  0  0  0  0  0
   32.1559  -17.2934  200.8120 O   0  0  0  0  0  0  0  0  0  0  0  0
   31.9161  -16.7962  202.3504 P   0  0  0  0  0  0  0  0  0  0  0  0
   31.9883  -17.9235  203.3806 O   0  0  0  0  0  0  0  0  0  0  0  0
   32.9856  -15.7355  202.6930 O   0  0  0  0  0  0  0  0  0  0  0  0
   33.8651  -16.1441  202.6705 H   0  0  0  0  0  0  0  0  0  0  0  0
   30.4578  -16.1381  202.3831 O   0  0  0  0  0  0  0  0  0  0  0  0
   30.2494  -14.7665  201.8921 C   0  0  0  0  0  0  0  0  0  0  0  0
   28.8744  -14.7327  201.1920 C   0  0  0  0  0  0  0  0  0  0  0  0
   28.9717  -14.1260  200.0407 O   0  0  0  0  0  0  0  0  0  0  0  0
   28.4343  -16.2061  200.8732 C   0  0  0  0  0  0  0  0  0  0  0  0
   28.8430  -16.3335  199.4163 C   0  0  0  0  0  0  0  0  0  0  0  0
   28.1631  -17.5138  198.7381 O   0  0  0  0  0  0  0  0  0  0  0  0
   28.5087  -15.1401  198.9107 C   0  0  0  0  0  0  0  0  0  0  0  0
   27.2006  -17.4190  198.8125 H   0  0  0  0  0  0  0  0  0  0  0  0
   29.2323  -14.8621  197.6936 N   0  0  0  0  0  0  0  0  0  0  0  0
   30.5209  -14.4193  197.6145 C   0  0  0  0  0  0  0  0  0  0  0  0
   30.8419  -14.2845  196.2898 N   0  0  0  0  0  0  0  0  0  0  0  0
   29.7413  -14.6522  195.5496 C   0  0  0  0  0  0  0  0  0  0  0  0
   28.7533  -15.0076  196.4027 C   0  0  0  0  0  0  0  0  0  0  0  0
   27.5397  -15.4175  195.9057 N   0  0  0  0  0  0  0  0  0  0  0  0
   27.3287  -15.4604  194.5551 C   0  0  0  0  0  0  0  0  0  0  0  0
   28.3325  -15.1003  193.6838 N   0  0  0  0  0  0  0  0  0  0  0  0
   29.5277  -14.7057  194.1685 C   0  0  0  0  0  0  0  0  0  0  0  0
   30.4421  -14.3662  193.1519 N   0  0  0  0  0  0  0  0  0  0  0  0
   31.3489  -14.0632  193.3866 H   0  0  0  0  0  0  0  0  0  0  0  0
   30.1742  -14.4319  192.2068 H   0  0  0  0  0  0  0  0  0  0  0  0
   27.0821  -16.3287  200.9591 O   0  0  0  0  0  0  0  0  0  0  0  0
   26.2115  -16.0219  202.3216 P   0  0  0  0  0  0  0  0  0  0  0  0
   27.0746  -16.2867  203.5176 O   0  0  0  0  0  0  0  0  0  0  0  0
   25.7849  -14.5095  202.3135 O   0  0  0  0  0  0  0  0  0  0  0  0
   24.9256  -16.9064  202.3209 O   0  0  0  0  0  0  0  0  0  0  0  0
   26.5773  -13.9500  202.3139 H   0  0  0  0  0  0  0  0  0  0  0  0
   24.4100  -16.7279  203.1229 H   0  0  0  0  0  0  0  0  0  0  0  0
  3  1  2  0  0  0
  2  1  1  0  0  0
  1 40  1  0  0  0
  1  5  1  0  0  0
 42 41  2  0  0  0
 40 41  1  0  0  0
  5  6  1  0  0  0
 41 43  1  0  0  0
 41 45  1  0  0  0
  6  7  1  0  0  0
  9  7  1  0  0  0
 46 45  1  0  0  0
 46 47  1  0  0  0
 68 67  2  0  0  0
  7 10  1  0  0  0
  7  8  1  0  0  0
 47 49  1  0  0  0
 47 48  1  0  0  0
 10 11  1  0  0  0
 10 14  1  0  0  0
 49 66  1  0  0  0
 49 50  1  0  0  0
 67 69  1  0  0  0
 67 66  1  0  0  0
 67 70  1  0  0  0
 48 52  1  0  0  0
 15 14  2  0  0  0
 14 13  1  0  0  0
 50 52  1  0  0  0
 50 51  1  0  0  0
 52 54  1  0  0  0
 55 54  1  0  0  0
 55 56  2  0  0  0
 13 17  1  0  0  0
 54 58  1  0  0  0
 56 57  1  0  0  0
 17 18  1  0  0  0
 58 57  2  0  0  0
 58 59  1  0  0  0
 18 20  1  0  0  0
 57 62  1  0  0  0
 59 60  2  0  0  0
 20 21  2  0  0  0
 20 19  1  0  0  0
 62 63  1  0  0  0
 62 61  2  0  0  0
 60 61  1  0  0  0
 19 23  1  0  0  0
 23 24  1  0  0  0
 24 25  1  0  0  0
 27 26  2  0  0  0
 25 26  1  0  0  0
 26 38  1  0  0  0
 38 29  2  0  0  0
 38 37  1  0  0  0
 28 29  1  0  0  0
 29 30  1  0  0  0
 37 36  2  0  0  0
 36 35  1  0  0  0
 30 35  2  0  0  0
 30 31  1  0  0  0
 35 34  1  0  0  0
 31 32  2  0  0  0
 34 33  2  0  0  0
 32 33  1  0  0  0
 28 39  1  0  0  0
 19 22  1  0  0  0
 13 16  1  0  0  0
 11 12  1  0  0  0
  2  4  1  0  0  0
 43 44  1  0  0  0
 69 71  1  0  0  0
 70 72  1  0  0  0
 51 53  1  0  0  0
 63 64  1  0  0  0
 63 65  1  0  0  0
M  END
> <minimizedAffinity>
-8.97753

$$$$
