3ISS_EPU_A_601


 53 55  0  0  0  0  0  0  0  0999 V2000
   -4.4582  -10.1627    1.7544 P   0  0  0  0  0  0  0  0  0  0  0  0
   -5.6587  -10.3183    2.5265 O   0  0  0  0  0  0  0  0  0  0  0  0
   -3.2688  -10.8012    2.2520 O   0  0  0  0  0  0  0  0  0  0  0  0
   -3.0777  -10.4771    3.1461 H   0  0  0  0  0  0  0  0  0  0  0  0
   -4.1836   -8.6453    1.4083 O   0  0  0  0  0  0  0  0  0  0  0  0
   -2.9043   -7.7932    1.6837 P   0  0  0  0  0  0  0  0  0  0  0  0
   -2.0087   -7.8607    0.5760 O   0  0  0  0  0  0  0  0  0  0  0  0
   -2.4405   -8.0351    3.0224 O   0  0  0  0  0  0  0  0  0  0  0  0
   -1.6460   -7.5044    3.1901 H   0  0  0  0  0  0  0  0  0  0  0  0
   -3.4654   -6.3576    1.7116 O   0  0  0  0  0  0  0  0  0  0  0  0
   -2.8363   -5.4063    0.8858 C   0  0  0  0  0  0  0  0  0  0  0  0
   -2.3405   -2.4307    1.9861 C   0  0  0  0  0  0  0  0  0  0  0  0
   -2.5241   -3.1786    3.2715 C   0  0  0  0  0  0  0  0  0  0  0  0
   -1.7929   -2.5393    4.2917 O   0  0  0  0  0  0  0  0  0  0  0  0
   -1.8712   -4.4923    3.0365 C   0  0  0  0  0  0  0  0  0  0  0  0
   -1.7261   -4.6213    1.5451 C   0  0  0  0  0  0  0  0  0  0  0  0
   -1.8580   -3.3331    1.0162 O   0  0  0  0  0  0  0  0  0  0  0  0
   -0.6050   -4.4000    3.6558 O   0  0  0  0  0  0  0  0  0  0  0  0
   -0.8595   -2.4829    4.0339 H   0  0  0  0  0  0  0  0  0  0  0  0
   -0.1260   -3.6352    3.3001 H   0  0  0  0  0  0  0  0  0  0  0  0
   -3.5889   -1.8352    1.5781 N   0  0  0  0  0  0  0  0  0  0  0  0
   -3.5480   -0.5762    1.0399 C   0  0  0  0  0  0  0  0  0  0  0  0
   -4.6331    0.0696    0.6449 N   0  0  0  0  0  0  0  0  0  0  0  0
   -5.8021   -0.5192    0.7612 C   0  0  0  0  0  0  0  0  0  0  0  0
   -5.8735   -1.7835    1.2917 C   0  0  0  0  0  0  0  0  0  0  0  0
   -4.7366   -2.4391    1.7084 C   0  0  0  0  0  0  0  0  0  0  0  0
   -2.4652   -0.0389    0.9235 O   0  0  0  0  0  0  0  0  0  0  0  0
   -6.8008    0.0811    0.3883 O   0  0  0  0  0  0  0  0  0  0  0  0
   -4.5657    0.9773    0.2695 H   0  0  0  0  0  0  0  0  0  0  0  0
   -4.6266  -10.7630    0.3659 O   0  0  0  0  0  0  0  0  0  0  0  0
   -3.5058  -11.0958   -0.3438 C   0  0  0  0  0  0  0  0  0  0  0  0
   -3.7328  -10.6271   -1.7531 C   0  0  0  0  0  0  0  0  0  0  0  0
   -5.0609  -11.1375   -2.2238 C   0  0  0  0  0  0  0  0  0  0  0  0
   -4.9537  -12.6120   -2.2120 C   0  0  0  0  0  0  0  0  0  0  0  0
   -4.7061  -13.0098   -0.7948 C   0  0  0  0  0  0  0  0  0  0  0  0
   -6.2115  -13.0586   -2.6189 O   0  0  0  0  0  0  0  0  0  0  0  0
   -3.4879  -12.4899   -0.3529 O   0  0  0  0  0  0  0  0  0  0  0  0
   -6.8913  -12.6854   -2.0361 H   0  0  0  0  0  0  0  0  0  0  0  0
   -3.1974   -8.4708   -2.4925 C   0  0  0  0  0  0  0  0  0  0  0  0
   -3.4406   -7.0115   -2.5066 C   0  0  0  0  0  0  0  0  0  0  0  0
   -3.9523   -9.2181   -1.7348 N   0  0  0  0  0  0  0  0  0  0  0  0
   -2.3344   -8.9526   -3.1414 O   0  0  0  0  0  0  0  0  0  0  0  0
   -4.6522   -8.8213   -1.1675 H   0  0  0  0  0  0  0  0  0  0  0  0
   -4.6057  -14.4948   -0.8095 C   0  0  0  0  0  0  0  0  0  0  0  0
   -3.2195  -14.7137   -0.7784 O   0  0  0  0  0  0  0  0  0  0  0  0
   -2.8047  -14.2675   -1.5333 H   0  0  0  0  0  0  0  0  0  0  0  0
   -5.2923  -10.7575   -3.5457 O   0  0  0  0  0  0  0  0  0  0  0  0
   -6.4946  -10.0267   -3.7041 C   0  0  0  0  0  0  0  0  0  0  0  0
   -7.2442   -9.9984   -2.3929 C   0  0  0  0  0  0  0  0  0  0  0  0
   -7.3532  -10.5790   -4.8074 C   0  0  0  0  0  0  0  0  0  0  0  0
   -7.1719  -11.7220   -5.1935 O   0  0  0  0  0  0  0  0  0  0  0  0
   -8.2224   -9.8945   -5.3442 O   0  0  0  0  0  0  0  0  0  0  0  0
   -8.3707   -9.0153   -5.0561 H   0  0  0  0  0  0  0  0  0  0  0  0
 21 22  1  0  0  0
 21 26  1  0  0  0
 21 12  1  0  0  0
 22 23  1  0  0  0
 22 27  2  0  0  0
 23 24  1  0  0  0
 24 25  1  0  0  0
 24 28  2  0  0  0
 25 26  2  0  0  0
 12 13  1  0  0  0
 12 17  1  0  0  0
 13 14  1  0  0  0
 13 15  1  0  0  0
 15 16  1  0  0  0
 15 18  1  0  0  0
 16 17  1  0  0  0
 16 11  1  0  0  0
 11 10  1  0  0  0
 10  6  1  0  0  0
  6  7  2  0  0  0
  6  8  1  0  0  0
  6  5  1  0  0  0
  5  1  1  0  0  0
  1  2  2  0  0  0
  1  3  1  0  0  0
  1 30  1  0  0  0
 31 32  1  0  0  0
 31 30  1  0  0  0
 31 37  1  0  0  0
 32 33  1  0  0  0
 32 41  1  0  0  0
 33 34  1  0  0  0
 33 47  1  0  0  0
 34 35  1  0  0  0
 34 36  1  0  0  0
 35 44  1  0  0  0
 35 37  1  0  0  0
 44 45  1  0  0  0
 39 40  1  0  0  0
 39 41  1  0  0  0
 39 42  2  0  0  0
 47 48  1  0  0  0
 50 51  2  0  0  0
 50 52  1  0  0  0
 50 48  1  0  0  0
 48 49  2  0  0  0
 23 29  1  0  0  0
 14 19  1  0  0  0
 18 20  1  0  0  0
  8  9  1  0  0  0
  3  4  1  0  0  0
 41 43  1  0  0  0
 36 38  1  0  0  0
 45 46  1  0  0  0
 52 53  1  0  0  0
M  END
> <minimizedAffinity>
-10.24395

$$$$
3ISS_EPU_A_601


 53 55  0  0  0  0  0  0  0  0999 V2000
   -3.0257   -9.4180   -2.9443 P   0  0  0  0  0  0  0  0  0  0  0  0
   -2.3397  -10.1707   -1.9322 O   0  0  0  0  0  0  0  0  0  0  0  0
   -2.2987   -9.1220   -4.1501 O   0  0  0  0  0  0  0  0  0  0  0  0
   -1.4906   -8.6333   -3.9287 H   0  0  0  0  0  0  0  0  0  0  0  0
   -3.6880   -8.1129   -2.3478 O   0  0  0  0  0  0  0  0  0  0  0  0
   -3.2620   -7.2819   -1.0963 P   0  0  0  0  0  0  0  0  0  0  0  0
   -1.9293   -6.7971   -1.2461 O   0  0  0  0  0  0  0  0  0  0  0  0
   -3.6669   -7.9670    0.1005 O   0  0  0  0  0  0  0  0  0  0  0  0
   -3.4009   -7.4483    0.8757 H   0  0  0  0  0  0  0  0  0  0  0  0
   -4.1913   -6.0550   -1.1847 O   0  0  0  0  0  0  0  0  0  0  0  0
   -3.6183   -4.8460   -1.6240 C   0  0  0  0  0  0  0  0  0  0  0  0
   -3.4796   -3.7674    1.3973 C   0  0  0  0  0  0  0  0  0  0  0  0
   -2.4024   -2.9464    0.7561 C   0  0  0  0  0  0  0  0  0  0  0  0
   -2.2881   -1.7163    1.4329 O   0  0  0  0  0  0  0  0  0  0  0  0
   -2.9230   -2.6407   -0.6014 C   0  0  0  0  0  0  0  0  0  0  0  0
   -4.0380   -3.6198   -0.8471 C   0  0  0  0  0  0  0  0  0  0  0  0
   -4.4153   -4.1203    0.4034 O   0  0  0  0  0  0  0  0  0  0  0  0
   -3.4234   -1.3220   -0.5249 O   0  0  0  0  0  0  0  0  0  0  0  0
   -3.1451   -1.2620    1.4249 H   0  0  0  0  0  0  0  0  0  0  0  0
   -4.0794   -1.2659    0.1874 H   0  0  0  0  0  0  0  0  0  0  0  0
   -2.9064   -4.9346    2.0207 N   0  0  0  0  0  0  0  0  0  0  0  0
   -3.6666   -5.6007    2.9452 C   0  0  0  0  0  0  0  0  0  0  0  0
   -3.2357   -6.6742    3.5876 N   0  0  0  0  0  0  0  0  0  0  0  0
   -2.0323   -7.1326    3.3255 C   0  0  0  0  0  0  0  0  0  0  0  0
   -1.2496   -6.4889    2.3991 C   0  0  0  0  0  0  0  0  0  0  0  0
   -1.7076   -5.3665    1.7462 C   0  0  0  0  0  0  0  0  0  0  0  0
   -4.7824   -5.1814    3.1774 O   0  0  0  0  0  0  0  0  0  0  0  0
   -1.6423   -8.1291    3.9185 O   0  0  0  0  0  0  0  0  0  0  0  0
   -3.8077   -7.1227    4.2516 H   0  0  0  0  0  0  0  0  0  0  0  0
   -4.2478  -10.1742   -3.4456 O   0  0  0  0  0  0  0  0  0  0  0  0
   -5.4838   -9.7840   -3.0088 C   0  0  0  0  0  0  0  0  0  0  0  0
   -6.0816  -10.9639   -2.2962 C   0  0  0  0  0  0  0  0  0  0  0  0
   -5.9784  -12.1672   -3.1835 C   0  0  0  0  0  0  0  0  0  0  0  0
   -6.7907  -11.8574   -4.3794 C   0  0  0  0  0  0  0  0  0  0  0  0
   -6.1614  -10.6681   -5.0255 C   0  0  0  0  0  0  0  0  0  0  0  0
   -6.6474  -12.9765   -5.2005 O   0  0  0  0  0  0  0  0  0  0  0  0
   -6.2223   -9.5655   -4.1710 O   0  0  0  0  0  0  0  0  0  0  0  0
   -5.7054  -13.1372   -5.3666 H   0  0  0  0  0  0  0  0  0  0  0  0
   -5.6263  -11.0634   -0.0014 C   0  0  0  0  0  0  0  0  0  0  0  0
   -4.7598  -11.4659    1.1282 C   0  0  0  0  0  0  0  0  0  0  0  0
   -5.2247  -11.3252   -1.2150 N   0  0  0  0  0  0  0  0  0  0  0  0
   -6.6534  -10.5078    0.1841 O   0  0  0  0  0  0  0  0  0  0  0  0
   -4.3563  -11.7590   -1.3794 H   0  0  0  0  0  0  0  0  0  0  0  0
   -6.9936  -10.3793   -6.2253 C   0  0  0  0  0  0  0  0  0  0  0  0
   -8.2954  -10.3471   -5.7012 O   0  0  0  0  0  0  0  0  0  0  0  0
   -8.4881  -11.1903   -5.2622 H   0  0  0  0  0  0  0  0  0  0  0  0
   -6.5606  -13.2782   -2.5737 O   0  0  0  0  0  0  0  0  0  0  0  0
   -5.7824  -14.4525   -2.7153 C   0  0  0  0  0  0  0  0  0  0  0  0
   -6.6554  -15.5786   -3.2172 C   0  0  0  0  0  0  0  0  0  0  0  0
   -5.0901  -14.8323   -1.4363 C   0  0  0  0  0  0  0  0  0  0  0  0
   -4.0961  -14.2174   -1.0869 O   0  0  0  0  0  0  0  0  0  0  0  0
   -5.4934  -15.7652   -0.7441 O   0  0  0  0  0  0  0  0  0  0  0  0
   -6.2558  -16.2448   -1.0023 H   0  0  0  0  0  0  0  0  0  0  0  0
 21 22  1  0  0  0
 21 26  1  0  0  0
 21 12  1  0  0  0
 22 23  1  0  0  0
 22 27  2  0  0  0
 23 24  1  0  0  0
 24 25  1  0  0  0
 24 28  2  0  0  0
 25 26  2  0  0  0
 12 13  1  0  0  0
 12 17  1  0  0  0
 13 14  1  0  0  0
 13 15  1  0  0  0
 15 16  1  0  0  0
 15 18  1  0  0  0
 16 17  1  0  0  0
 16 11  1  0  0  0
 11 10  1  0  0  0
 10  6  1  0  0  0
  6  7  2  0  0  0
  6  8  1  0  0  0
  6  5  1  0  0  0
  5  1  1  0  0  0
  1  2  2  0  0  0
  1  3  1  0  0  0
  1 30  1  0  0  0
 31 32  1  0  0  0
 31 30  1  0  0  0
 31 37  1  0  0  0
 32 33  1  0  0  0
 32 41  1  0  0  0
 33 34  1  0  0  0
 33 47  1  0  0  0
 34 35  1  0  0  0
 34 36  1  0  0  0
 35 44  1  0  0  0
 35 37  1  0  0  0
 44 45  1  0  0  0
 39 40  1  0  0  0
 39 41  1  0  0  0
 39 42  2  0  0  0
 47 48  1  0  0  0
 50 51  2  0  0  0
 50 52  1  0  0  0
 50 48  1  0  0  0
 48 49  2  0  0  0
 23 29  1  0  0  0
 14 19  1  0  0  0
 18 20  1  0  0  0
  8  9  1  0  0  0
  3  4  1  0  0  0
 41 43  1  0  0  0
 36 38  1  0  0  0
 45 46  1  0  0  0
 52 53  1  0  0  0
M  END
> <minimizedAffinity>
-10.22293

$$$$
3ISS_EPU_A_601


 53 55  0  0  0  0  0  0  0  0999 V2000
   -5.1273  -10.3865    0.8834 P   0  0  0  0  0  0  0  0  0  0  0  0
   -6.4506  -10.2964    1.4332 O   0  0  0  0  0  0  0  0  0  0  0  0
   -4.1104  -10.9797    1.7104 O   0  0  0  0  0  0  0  0  0  0  0  0
   -4.0414  -10.4858    2.5424 H   0  0  0  0  0  0  0  0  0  0  0  0
   -4.6451   -8.9983    0.3015 O   0  0  0  0  0  0  0  0  0  0  0  0
   -3.4058   -8.1412    0.7112 P   0  0  0  0  0  0  0  0  0  0  0  0
   -2.2032   -8.8912    0.5542 O   0  0  0  0  0  0  0  0  0  0  0  0
   -3.6841   -7.4424    1.9359 O   0  0  0  0  0  0  0  0  0  0  0  0
   -2.9125   -6.9111    2.1875 H   0  0  0  0  0  0  0  0  0  0  0  0
   -3.3896   -7.0471   -0.3748 O   0  0  0  0  0  0  0  0  0  0  0  0
   -2.1647   -6.8085   -1.0272 C   0  0  0  0  0  0  0  0  0  0  0  0
   -0.9459   -4.1345   -2.3215 C   0  0  0  0  0  0  0  0  0  0  0  0
   -2.1809   -3.5928   -1.6683 C   0  0  0  0  0  0  0  0  0  0  0  0
   -1.9657   -2.2487   -1.3059 O   0  0  0  0  0  0  0  0  0  0  0  0
   -2.3032   -4.3622   -0.4033 C   0  0  0  0  0  0  0  0  0  0  0  0
   -1.4259   -5.5726   -0.5687 C   0  0  0  0  0  0  0  0  0  0  0  0
   -0.5471   -5.2905   -1.6197 O   0  0  0  0  0  0  0  0  0  0  0  0
   -1.7975   -3.5123    0.6052 O   0  0  0  0  0  0  0  0  0  0  0  0
   -1.1914   -2.1905   -0.7246 H   0  0  0  0  0  0  0  0  0  0  0  0
   -0.8947   -3.2409    0.3767 H   0  0  0  0  0  0  0  0  0  0  0  0
   -1.2075   -4.4239   -3.7098 N   0  0  0  0  0  0  0  0  0  0  0  0
   -0.2027   -4.1865   -4.6100 C   0  0  0  0  0  0  0  0  0  0  0  0
   -0.3379   -4.4030   -5.9083 N   0  0  0  0  0  0  0  0  0  0  0  0
   -1.4783   -4.8753   -6.3594 C   0  0  0  0  0  0  0  0  0  0  0  0
   -2.5016   -5.1284   -5.4798 C   0  0  0  0  0  0  0  0  0  0  0  0
   -2.3497   -4.8882   -4.1326 C   0  0  0  0  0  0  0  0  0  0  0  0
    0.8537   -3.7605   -4.1888 O   0  0  0  0  0  0  0  0  0  0  0  0
   -1.5946   -5.0790   -7.5602 O   0  0  0  0  0  0  0  0  0  0  0  0
    0.4042   -4.2133   -6.5267 H   0  0  0  0  0  0  0  0  0  0  0  0
   -5.1186  -11.2563   -0.3655 O   0  0  0  0  0  0  0  0  0  0  0  0
   -3.9211  -11.5191   -0.9720 C   0  0  0  0  0  0  0  0  0  0  0  0
   -4.1487  -11.3866   -2.4512 C   0  0  0  0  0  0  0  0  0  0  0  0
   -5.3437  -12.2071   -2.8314 C   0  0  0  0  0  0  0  0  0  0  0  0
   -4.9884  -13.6073   -2.5167 C   0  0  0  0  0  0  0  0  0  0  0  0
   -4.7531  -13.6663   -1.0439 C   0  0  0  0  0  0  0  0  0  0  0  0
   -6.1285  -14.3413   -2.8463 O   0  0  0  0  0  0  0  0  0  0  0  0
   -3.6663  -12.8618   -0.6957 O   0  0  0  0  0  0  0  0  0  0  0  0
   -6.8919  -13.9865   -2.3644 H   0  0  0  0  0  0  0  0  0  0  0  0
   -3.8155   -9.2700   -3.3957 C   0  0  0  0  0  0  0  0  0  0  0  0
   -4.2943   -7.9069   -3.7148 C   0  0  0  0  0  0  0  0  0  0  0  0
   -4.6049  -10.0635   -2.7251 N   0  0  0  0  0  0  0  0  0  0  0  0
   -2.7404   -9.6333   -3.7278 O   0  0  0  0  0  0  0  0  0  0  0  0
   -5.4889   -9.7581   -2.4175 H   0  0  0  0  0  0  0  0  0  0  0  0
   -4.4013  -15.0831   -0.7530 C   0  0  0  0  0  0  0  0  0  0  0  0
   -5.6562  -15.7086   -0.6875 O   0  0  0  0  0  0  0  0  0  0  0  0
   -6.1992  -15.2741   -0.0113 H   0  0  0  0  0  0  0  0  0  0  0  0
   -5.5651  -12.1436   -4.2070 O   0  0  0  0  0  0  0  0  0  0  0  0
   -6.9145  -11.8656   -4.5333 C   0  0  0  0  0  0  0  0  0  0  0  0
   -7.3717  -12.8008   -5.6281 C   0  0  0  0  0  0  0  0  0  0  0  0
   -7.1190  -10.4294   -4.9270 C   0  0  0  0  0  0  0  0  0  0  0  0
   -7.3897   -9.6052   -4.0692 O   0  0  0  0  0  0  0  0  0  0  0  0
   -7.0396  -10.0710   -6.1005 O   0  0  0  0  0  0  0  0  0  0  0  0
   -6.8324  -10.6951   -6.7680 H   0  0  0  0  0  0  0  0  0  0  0  0
 21 22  1  0  0  0
 21 26  1  0  0  0
 21 12  1  0  0  0
 22 23  1  0  0  0
 22 27  2  0  0  0
 23 24  1  0  0  0
 24 25  1  0  0  0
 24 28  2  0  0  0
 25 26  2  0  0  0
 12 13  1  0  0  0
 12 17  1  0  0  0
 13 14  1  0  0  0
 13 15  1  0  0  0
 15 16  1  0  0  0
 15 18  1  0  0  0
 16 17  1  0  0  0
 16 11  1  0  0  0
 11 10  1  0  0  0
 10  6  1  0  0  0
  6  7  2  0  0  0
  6  8  1  0  0  0
  6  5  1  0  0  0
  5  1  1  0  0  0
  1  2  2  0  0  0
  1  3  1  0  0  0
  1 30  1  0  0  0
 31 32  1  0  0  0
 31 30  1  0  0  0
 31 37  1  0  0  0
 32 33  1  0  0  0
 32 41  1  0  0  0
 33 34  1  0  0  0
 33 47  1  0  0  0
 34 35  1  0  0  0
 34 36  1  0  0  0
 35 44  1  0  0  0
 35 37  1  0  0  0
 44 45  1  0  0  0
 39 40  1  0  0  0
 39 41  1  0  0  0
 39 42  2  0  0  0
 47 48  1  0  0  0
 50 51  2  0  0  0
 50 52  1  0  0  0
 50 48  1  0  0  0
 48 49  2  0  0  0
 23 29  1  0  0  0
 14 19  1  0  0  0
 18 20  1  0  0  0
  8  9  1  0  0  0
  3  4  1  0  0  0
 41 43  1  0  0  0
 36 38  1  0  0  0
 45 46  1  0  0  0
 52 53  1  0  0  0
M  END
> <minimizedAffinity>
-9.99652

$$$$
3ISS_EPU_A_601


 53 55  0  0  0  0  0  0  0  0999 V2000
   -4.3080   -2.9284   -1.5483 P   0  0  0  0  0  0  0  0  0  0  0  0
   -5.4024   -2.2812   -2.2152 O   0  0  0  0  0  0  0  0  0  0  0  0
   -4.6329   -3.9653   -0.6052 O   0  0  0  0  0  0  0  0  0  0  0  0
   -5.2148   -3.6060    0.0827 H   0  0  0  0  0  0  0  0  0  0  0  0
   -3.3124   -1.8777   -0.9135 O   0  0  0  0  0  0  0  0  0  0  0  0
   -3.5151   -0.9685    0.3397 P   0  0  0  0  0  0  0  0  0  0  0  0
   -4.5951   -0.0608    0.1316 O   0  0  0  0  0  0  0  0  0  0  0  0
   -2.2399   -0.5012    0.8101 O   0  0  0  0  0  0  0  0  0  0  0  0
   -2.3694    0.0631    1.5884 H   0  0  0  0  0  0  0  0  0  0  0  0
   -3.9853   -1.9782    1.4056 O   0  0  0  0  0  0  0  0  0  0  0  0
   -5.0090   -1.5608    2.2777 C   0  0  0  0  0  0  0  0  0  0  0  0
   -4.2138   -4.4302    3.4798 C   0  0  0  0  0  0  0  0  0  0  0  0
   -4.2051   -3.5928    4.7224 C   0  0  0  0  0  0  0  0  0  0  0  0
   -4.5302   -4.3992    5.8307 O   0  0  0  0  0  0  0  0  0  0  0  0
   -5.3317   -2.6417    4.5405 C   0  0  0  0  0  0  0  0  0  0  0  0
   -5.6620   -2.6672    3.0734 C   0  0  0  0  0  0  0  0  0  0  0  0
   -5.0990   -3.8383    2.5557 O   0  0  0  0  0  0  0  0  0  0  0  0
   -6.3976   -3.1700    5.3021 O   0  0  0  0  0  0  0  0  0  0  0  0
   -5.3911   -4.8208    5.6823 H   0  0  0  0  0  0  0  0  0  0  0  0
   -6.5792   -4.0792    5.0170 H   0  0  0  0  0  0  0  0  0  0  0  0
   -2.8795   -4.5310    2.9423 N   0  0  0  0  0  0  0  0  0  0  0  0
   -2.6813   -5.3791    1.8850 C   0  0  0  0  0  0  0  0  0  0  0  0
   -1.4970   -5.5590    1.3231 N   0  0  0  0  0  0  0  0  0  0  0  0
   -0.4643   -4.8917    1.7870 C   0  0  0  0  0  0  0  0  0  0  0  0
   -0.6338   -4.0300    2.8424 C   0  0  0  0  0  0  0  0  0  0  0  0
   -1.8704   -3.8610    3.4238 C   0  0  0  0  0  0  0  0  0  0  0  0
   -3.6395   -5.9861    1.4513 O   0  0  0  0  0  0  0  0  0  0  0  0
    0.6267   -5.0581    1.2590 O   0  0  0  0  0  0  0  0  0  0  0  0
   -1.3911   -6.1831    0.5691 H   0  0  0  0  0  0  0  0  0  0  0  0
   -3.4045   -3.6328   -2.5502 O   0  0  0  0  0  0  0  0  0  0  0  0
   -2.1696   -4.0512   -2.1370 C   0  0  0  0  0  0  0  0  0  0  0  0
   -1.3502   -4.2678   -3.3776 C   0  0  0  0  0  0  0  0  0  0  0  0
   -2.1250   -5.1349   -4.3229 C   0  0  0  0  0  0  0  0  0  0  0  0
   -2.3075   -6.4270   -3.6277 C   0  0  0  0  0  0  0  0  0  0  0  0
   -3.1043   -6.1406   -2.3985 C   0  0  0  0  0  0  0  0  0  0  0  0
   -3.0600   -7.1990   -4.5136 O   0  0  0  0  0  0  0  0  0  0  0  0
   -2.3912   -5.2947   -1.5467 O   0  0  0  0  0  0  0  0  0  0  0  0
   -3.8774   -6.7279   -4.7391 H   0  0  0  0  0  0  0  0  0  0  0  0
   -0.1022   -2.5501   -4.3652 C   0  0  0  0  0  0  0  0  0  0  0  0
   -0.0209   -1.2942   -5.1431 C   0  0  0  0  0  0  0  0  0  0  0  0
   -1.2822   -3.0394   -4.0987 N   0  0  0  0  0  0  0  0  0  0  0  0
    0.8742   -3.0958   -3.9821 O   0  0  0  0  0  0  0  0  0  0  0  0
   -2.1008   -2.5745   -4.3868 H   0  0  0  0  0  0  0  0  0  0  0  0
   -3.2766   -7.4543   -1.7201 C   0  0  0  0  0  0  0  0  0  0  0  0
   -4.3645   -7.2225   -0.8639 O   0  0  0  0  0  0  0  0  0  0  0  0
   -4.1592   -6.4805   -0.2739 H   0  0  0  0  0  0  0  0  0  0  0  0
   -1.3806   -5.3942   -5.4734 O   0  0  0  0  0  0  0  0  0  0  0  0
   -2.0950   -5.1156   -6.6636 C   0  0  0  0  0  0  0  0  0  0  0  0
   -2.2126   -6.3760   -7.4880 C   0  0  0  0  0  0  0  0  0  0  0  0
   -1.4645   -4.0057   -7.4574 C   0  0  0  0  0  0  0  0  0  0  0  0
   -1.8683   -2.8632   -7.3163 O   0  0  0  0  0  0  0  0  0  0  0  0
   -0.5626   -4.2288   -8.2629 O   0  0  0  0  0  0  0  0  0  0  0  0
   -0.2443   -5.1023   -8.3799 H   0  0  0  0  0  0  0  0  0  0  0  0
 21 22  1  0  0  0
 21 26  1  0  0  0
 21 12  1  0  0  0
 22 23  1  0  0  0
 22 27  2  0  0  0
 23 24  1  0  0  0
 24 25  1  0  0  0
 24 28  2  0  0  0
 25 26  2  0  0  0
 12 13  1  0  0  0
 12 17  1  0  0  0
 13 14  1  0  0  0
 13 15  1  0  0  0
 15 16  1  0  0  0
 15 18  1  0  0  0
 16 17  1  0  0  0
 16 11  1  0  0  0
 11 10  1  0  0  0
 10  6  1  0  0  0
  6  7  2  0  0  0
  6  8  1  0  0  0
  6  5  1  0  0  0
  5  1  1  0  0  0
  1  2  2  0  0  0
  1  3  1  0  0  0
  1 30  1  0  0  0
 31 32  1  0  0  0
 31 30  1  0  0  0
 31 37  1  0  0  0
 32 33  1  0  0  0
 32 41  1  0  0  0
 33 34  1  0  0  0
 33 47  1  0  0  0
 34 35  1  0  0  0
 34 36  1  0  0  0
 35 44  1  0  0  0
 35 37  1  0  0  0
 44 45  1  0  0  0
 39 40  1  0  0  0
 39 41  1  0  0  0
 39 42  2  0  0  0
 47 48  1  0  0  0
 50 51  2  0  0  0
 50 52  1  0  0  0
 50 48  1  0  0  0
 48 49  2  0  0  0
 23 29  1  0  0  0
 14 19  1  0  0  0
 18 20  1  0  0  0
  8  9  1  0  0  0
  3  4  1  0  0  0
 41 43  1  0  0  0
 36 38  1  0  0  0
 45 46  1  0  0  0
 52 53  1  0  0  0
M  END
> <minimizedAffinity>
-9.99228

$$$$
3ISS_EPU_A_601


 53 55  0  0  0  0  0  0  0  0999 V2000
   -1.3528   -4.2905   -0.5717 P   0  0  0  0  0  0  0  0  0  0  0  0
   -1.3018   -3.4271   -1.7178 O   0  0  0  0  0  0  0  0  0  0  0  0
   -0.1721   -4.3676    0.2468 O   0  0  0  0  0  0  0  0  0  0  0  0
    0.5789   -4.6560   -0.2953 H   0  0  0  0  0  0  0  0  0  0  0  0
   -1.8710   -5.7335   -0.9552 O   0  0  0  0  0  0  0  0  0  0  0  0
   -3.3406   -6.2483   -1.0712 P   0  0  0  0  0  0  0  0  0  0  0  0
   -3.4462   -7.2384   -2.0921 O   0  0  0  0  0  0  0  0  0  0  0  0
   -4.2485   -5.1349   -1.0276 O   0  0  0  0  0  0  0  0  0  0  0  0
   -5.1602   -5.4581   -1.0999 H   0  0  0  0  0  0  0  0  0  0  0  0
   -3.5409   -6.9762    0.2730 O   0  0  0  0  0  0  0  0  0  0  0  0
   -3.2303   -8.3491    0.3120 C   0  0  0  0  0  0  0  0  0  0  0  0
   -5.4048  -10.6033   -0.3956 C   0  0  0  0  0  0  0  0  0  0  0  0
   -4.3122  -11.4421    0.1943 C   0  0  0  0  0  0  0  0  0  0  0  0
   -4.8738  -12.5895    0.7880 O   0  0  0  0  0  0  0  0  0  0  0  0
   -3.7609  -10.6156    1.2988 C   0  0  0  0  0  0  0  0  0  0  0  0
   -4.2343   -9.2116    1.0410 C   0  0  0  0  0  0  0  0  0  0  0  0
   -5.3106   -9.3078    0.1528 O   0  0  0  0  0  0  0  0  0  0  0  0
   -4.3406  -11.1298    2.4799 O   0  0  0  0  0  0  0  0  0  0  0  0
   -5.5269  -12.3223    1.4536 H   0  0  0  0  0  0  0  0  0  0  0  0
   -5.3071  -11.1134    2.3993 H   0  0  0  0  0  0  0  0  0  0  0  0
   -5.2872  -10.5779   -1.8327 N   0  0  0  0  0  0  0  0  0  0  0  0
   -6.4387  -10.4501   -2.5635 C   0  0  0  0  0  0  0  0  0  0  0  0
   -6.4489  -10.4291   -3.8865 N   0  0  0  0  0  0  0  0  0  0  0  0
   -5.3091  -10.5243   -4.5334 C   0  0  0  0  0  0  0  0  0  0  0  0
   -4.1381  -10.6476   -3.8273 C   0  0  0  0  0  0  0  0  0  0  0  0
   -4.1441  -10.6785   -2.4508 C   0  0  0  0  0  0  0  0  0  0  0  0
   -7.4894  -10.3513   -1.9628 O   0  0  0  0  0  0  0  0  0  0  0  0
   -5.3250  -10.4980   -5.7565 O   0  0  0  0  0  0  0  0  0  0  0  0
   -7.2974  -10.3435   -4.3785 H   0  0  0  0  0  0  0  0  0  0  0  0
   -2.4286   -3.8328    0.4027 O   0  0  0  0  0  0  0  0  0  0  0  0
   -2.0424   -3.2386    1.5726 C   0  0  0  0  0  0  0  0  0  0  0  0
   -2.9114   -3.8130    2.6553 C   0  0  0  0  0  0  0  0  0  0  0  0
   -4.3449   -3.7054    2.2322 C   0  0  0  0  0  0  0  0  0  0  0  0
   -4.6199   -2.2584    2.1031 C   0  0  0  0  0  0  0  0  0  0  0  0
   -3.7129   -1.7462    1.0341 C   0  0  0  0  0  0  0  0  0  0  0  0
   -5.9463   -2.1901    1.6750 O   0  0  0  0  0  0  0  0  0  0  0  0
   -2.3792   -1.8943    1.4202 O   0  0  0  0  0  0  0  0  0  0  0  0
   -6.0507   -2.7085    0.8618 H   0  0  0  0  0  0  0  0  0  0  0  0
   -1.5703   -5.6810    3.0974 C   0  0  0  0  0  0  0  0  0  0  0  0
   -1.3775   -7.1462    3.1687 C   0  0  0  0  0  0  0  0  0  0  0  0
   -2.7230   -5.2262    2.6888 N   0  0  0  0  0  0  0  0  0  0  0  0
   -0.7011   -4.9353    3.3917 O   0  0  0  0  0  0  0  0  0  0  0  0
   -3.4411   -5.8402    2.4119 H   0  0  0  0  0  0  0  0  0  0  0  0
   -4.0109   -0.2922    0.9215 C   0  0  0  0  0  0  0  0  0  0  0  0
   -4.6823   -0.2061   -0.3082 O   0  0  0  0  0  0  0  0  0  0  0  0
   -4.1175   -0.5641   -1.0108 H   0  0  0  0  0  0  0  0  0  0  0  0
   -5.1891   -4.1918    3.2302 O   0  0  0  0  0  0  0  0  0  0  0  0
   -5.2324   -3.3524    4.3696 C   0  0  0  0  0  0  0  0  0  0  0  0
   -4.3084   -3.8975    5.4331 C   0  0  0  0  0  0  0  0  0  0  0  0
   -6.6294   -3.1857    4.8989 C   0  0  0  0  0  0  0  0  0  0  0  0
   -6.8794   -3.5167    6.0462 O   0  0  0  0  0  0  0  0  0  0  0  0
   -7.5319   -2.7413    4.1918 O   0  0  0  0  0  0  0  0  0  0  0  0
   -7.3518   -2.4838    3.3091 H   0  0  0  0  0  0  0  0  0  0  0  0
 21 22  1  0  0  0
 21 26  1  0  0  0
 21 12  1  0  0  0
 22 23  1  0  0  0
 22 27  2  0  0  0
 23 24  1  0  0  0
 24 25  1  0  0  0
 24 28  2  0  0  0
 25 26  2  0  0  0
 12 13  1  0  0  0
 12 17  1  0  0  0
 13 14  1  0  0  0
 13 15  1  0  0  0
 15 16  1  0  0  0
 15 18  1  0  0  0
 16 17  1  0  0  0
 16 11  1  0  0  0
 11 10  1  0  0  0
 10  6  1  0  0  0
  6  7  2  0  0  0
  6  8  1  0  0  0
  6  5  1  0  0  0
  5  1  1  0  0  0
  1  2  2  0  0  0
  1  3  1  0  0  0
  1 30  1  0  0  0
 31 32  1  0  0  0
 31 30  1  0  0  0
 31 37  1  0  0  0
 32 33  1  0  0  0
 32 41  1  0  0  0
 33 34  1  0  0  0
 33 47  1  0  0  0
 34 35  1  0  0  0
 34 36  1  0  0  0
 35 44  1  0  0  0
 35 37  1  0  0  0
 44 45  1  0  0  0
 39 40  1  0  0  0
 39 41  1  0  0  0
 39 42  2  0  0  0
 47 48  1  0  0  0
 50 51  2  0  0  0
 50 52  1  0  0  0
 50 48  1  0  0  0
 48 49  2  0  0  0
 23 29  1  0  0  0
 14 19  1  0  0  0
 18 20  1  0  0  0
  8  9  1  0  0  0
  3  4  1  0  0  0
 41 43  1  0  0  0
 36 38  1  0  0  0
 45 46  1  0  0  0
 52 53  1  0  0  0
M  END
> <minimizedAffinity>
-9.92343

$$$$
3ISS_EPU_A_601


 53 55  0  0  0  0  0  0  0  0999 V2000
   -3.0011   -8.6006   -3.1055 P   0  0  0  0  0  0  0  0  0  0  0  0
   -2.0969   -8.8296   -4.1970 O   0  0  0  0  0  0  0  0  0  0  0  0
   -3.8042   -7.4079   -3.1558 O   0  0  0  0  0  0  0  0  0  0  0  0
   -3.2262   -6.6312   -3.2162 H   0  0  0  0  0  0  0  0  0  0  0  0
   -2.2712   -8.7330   -1.7099 O   0  0  0  0  0  0  0  0  0  0  0  0
   -2.4890   -7.9002   -0.4070 P   0  0  0  0  0  0  0  0  0  0  0  0
   -1.5185   -8.2475    0.5784 O   0  0  0  0  0  0  0  0  0  0  0  0
   -3.8888   -7.8656   -0.0829 O   0  0  0  0  0  0  0  0  0  0  0  0
   -4.0205   -7.3477    0.7266 H   0  0  0  0  0  0  0  0  0  0  0  0
   -2.1541   -6.4690   -0.8721 O   0  0  0  0  0  0  0  0  0  0  0  0
   -2.5844   -5.4098   -0.0501 C   0  0  0  0  0  0  0  0  0  0  0  0
   -2.1970   -2.5246    1.3050 C   0  0  0  0  0  0  0  0  0  0  0  0
   -2.2158   -3.4045    2.5178 C   0  0  0  0  0  0  0  0  0  0  0  0
   -1.4429   -2.8123    3.5358 O   0  0  0  0  0  0  0  0  0  0  0  0
   -1.4984   -4.6358    2.0979 C   0  0  0  0  0  0  0  0  0  0  0  0
   -1.4765   -4.6094    0.5943 C   0  0  0  0  0  0  0  0  0  0  0  0
   -1.7414   -3.2902    0.2122 O   0  0  0  0  0  0  0  0  0  0  0  0
   -0.1919   -4.5071    2.6193 O   0  0  0  0  0  0  0  0  0  0  0  0
   -0.5418   -2.6603    3.2106 H   0  0  0  0  0  0  0  0  0  0  0  0
    0.2009   -3.6773    2.3061 H   0  0  0  0  0  0  0  0  0  0  0  0
   -3.5140   -1.9897    1.0621 N   0  0  0  0  0  0  0  0  0  0  0  0
   -3.6044   -0.8074    0.3762 C   0  0  0  0  0  0  0  0  0  0  0  0
   -4.7598   -0.2202    0.1099 N   0  0  0  0  0  0  0  0  0  0  0  0
   -5.8726   -0.7946    0.5084 C   0  0  0  0  0  0  0  0  0  0  0  0
   -5.8133   -1.9832    1.1931 C   0  0  0  0  0  0  0  0  0  0  0  0
   -4.6028   -2.5772    1.4722 C   0  0  0  0  0  0  0  0  0  0  0  0
   -2.5751   -0.2845   -0.0004 O   0  0  0  0  0  0  0  0  0  0  0  0
   -6.9378   -0.2495    0.2536 O   0  0  0  0  0  0  0  0  0  0  0  0
   -4.7855    0.6338   -0.3792 H   0  0  0  0  0  0  0  0  0  0  0  0
   -4.0319   -9.7166   -3.0138 O   0  0  0  0  0  0  0  0  0  0  0  0
   -5.3094   -9.3990   -2.6426 C   0  0  0  0  0  0  0  0  0  0  0  0
   -5.8696  -10.6076   -1.9476 C   0  0  0  0  0  0  0  0  0  0  0  0
   -5.6497  -11.8092   -2.8157 C   0  0  0  0  0  0  0  0  0  0  0  0
   -6.4187  -11.5588   -4.0534 C   0  0  0  0  0  0  0  0  0  0  0  0
   -5.8310  -10.3385   -4.6805 C   0  0  0  0  0  0  0  0  0  0  0  0
   -6.1673  -12.6735   -4.8543 O   0  0  0  0  0  0  0  0  0  0  0  0
   -6.0010   -9.2350   -3.8421 O   0  0  0  0  0  0  0  0  0  0  0  0
   -5.2101  -12.7778   -4.9721 H   0  0  0  0  0  0  0  0  0  0  0  0
   -5.5652  -10.7726    0.3683 C   0  0  0  0  0  0  0  0  0  0  0  0
   -4.7310  -11.1149    1.5413 C   0  0  0  0  0  0  0  0  0  0  0  0
   -5.0473  -10.9075   -0.8217 N   0  0  0  0  0  0  0  0  0  0  0  0
   -6.6712  -10.3757    0.5000 O   0  0  0  0  0  0  0  0  0  0  0  0
   -4.1168  -11.2072   -0.9388 H   0  0  0  0  0  0  0  0  0  0  0  0
   -6.6184  -10.1103   -5.9230 C   0  0  0  0  0  0  0  0  0  0  0  0
   -7.9435  -10.1321   -5.4605 O   0  0  0  0  0  0  0  0  0  0  0  0
   -8.1166  -10.9762   -5.0149 H   0  0  0  0  0  0  0  0  0  0  0  0
   -6.1933  -12.9488   -2.2233 O   0  0  0  0  0  0  0  0  0  0  0  0
   -5.3780  -14.0947   -2.3876 C   0  0  0  0  0  0  0  0  0  0  0  0
   -6.2208  -15.2466   -2.8823 C   0  0  0  0  0  0  0  0  0  0  0  0
   -4.6500  -14.4593   -1.1241 C   0  0  0  0  0  0  0  0  0  0  0  0
   -3.7646  -13.7292   -0.7101 O   0  0  0  0  0  0  0  0  0  0  0  0
   -4.9147  -15.4906   -0.5090 O   0  0  0  0  0  0  0  0  0  0  0  0
   -5.5927  -16.0591   -0.8174 H   0  0  0  0  0  0  0  0  0  0  0  0
 21 22  1  0  0  0
 21 26  1  0  0  0
 21 12  1  0  0  0
 22 23  1  0  0  0
 22 27  2  0  0  0
 23 24  1  0  0  0
 24 25  1  0  0  0
 24 28  2  0  0  0
 25 26  2  0  0  0
 12 13  1  0  0  0
 12 17  1  0  0  0
 13 14  1  0  0  0
 13 15  1  0  0  0
 15 16  1  0  0  0
 15 18  1  0  0  0
 16 17  1  0  0  0
 16 11  1  0  0  0
 11 10  1  0  0  0
 10  6  1  0  0  0
  6  7  2  0  0  0
  6  8  1  0  0  0
  6  5  1  0  0  0
  5  1  1  0  0  0
  1  2  2  0  0  0
  1  3  1  0  0  0
  1 30  1  0  0  0
 31 32  1  0  0  0
 31 30  1  0  0  0
 31 37  1  0  0  0
 32 33  1  0  0  0
 32 41  1  0  0  0
 33 34  1  0  0  0
 33 47  1  0  0  0
 34 35  1  0  0  0
 34 36  1  0  0  0
 35 44  1  0  0  0
 35 37  1  0  0  0
 44 45  1  0  0  0
 39 40  1  0  0  0
 39 41  1  0  0  0
 39 42  2  0  0  0
 47 48  1  0  0  0
 50 51  2  0  0  0
 50 52  1  0  0  0
 50 48  1  0  0  0
 48 49  2  0  0  0
 23 29  1  0  0  0
 14 19  1  0  0  0
 18 20  1  0  0  0
  8  9  1  0  0  0
  3  4  1  0  0  0
 41 43  1  0  0  0
 36 38  1  0  0  0
 45 46  1  0  0  0
 52 53  1  0  0  0
M  END
> <minimizedAffinity>
-9.89696

$$$$
3ISS_EPU_A_601


 53 55  0  0  0  0  0  0  0  0999 V2000
   -2.6005   -3.4039   -0.8346 P   0  0  0  0  0  0  0  0  0  0  0  0
   -2.4979   -2.0008   -1.1216 O   0  0  0  0  0  0  0  0  0  0  0  0
   -3.8860   -3.8978   -0.4180 O   0  0  0  0  0  0  0  0  0  0  0  0
   -4.1732   -3.4216    0.3768 H   0  0  0  0  0  0  0  0  0  0  0  0
   -1.4638   -3.8781    0.1559 O   0  0  0  0  0  0  0  0  0  0  0  0
   -1.5807   -4.2867    1.6584 P   0  0  0  0  0  0  0  0  0  0  0  0
   -2.6974   -3.6424    2.2680 O   0  0  0  0  0  0  0  0  0  0  0  0
   -0.2821   -4.2485    2.2730 O   0  0  0  0  0  0  0  0  0  0  0  0
   -0.3583   -4.5028    3.2060 H   0  0  0  0  0  0  0  0  0  0  0  0
   -1.9315   -5.7850    1.5651 O   0  0  0  0  0  0  0  0  0  0  0  0
   -3.1017   -6.2123    2.2215 C   0  0  0  0  0  0  0  0  0  0  0  0
   -3.8182   -9.2420    3.0078 C   0  0  0  0  0  0  0  0  0  0  0  0
   -2.3658   -9.3767    2.6648 C   0  0  0  0  0  0  0  0  0  0  0  0
   -1.8067  -10.4338    3.4094 O   0  0  0  0  0  0  0  0  0  0  0  0
   -1.7449   -8.1243    3.1679 C   0  0  0  0  0  0  0  0  0  0  0  0
   -2.8770   -7.1571    3.3792 C   0  0  0  0  0  0  0  0  0  0  0  0
   -4.0499   -7.9176    3.4320 O   0  0  0  0  0  0  0  0  0  0  0  0
   -1.1455   -8.4692    4.3996 O   0  0  0  0  0  0  0  0  0  0  0  0
   -1.9434  -10.2704    4.3557 H   0  0  0  0  0  0  0  0  0  0  0  0
   -1.8125   -8.8597    4.9857 H   0  0  0  0  0  0  0  0  0  0  0  0
   -4.6294   -9.5794    1.8642 N   0  0  0  0  0  0  0  0  0  0  0  0
   -5.8497  -10.1565    2.0972 C   0  0  0  0  0  0  0  0  0  0  0  0
   -6.6687  -10.5185    1.1230 N   0  0  0  0  0  0  0  0  0  0  0  0
   -6.3073  -10.3095   -0.1230 C   0  0  0  0  0  0  0  0  0  0  0  0
   -5.0922   -9.7274   -0.3870 C   0  0  0  0  0  0  0  0  0  0  0  0
   -4.2458   -9.3656    0.6370 C   0  0  0  0  0  0  0  0  0  0  0  0
   -6.1857  -10.3384    3.2499 O   0  0  0  0  0  0  0  0  0  0  0  0
   -7.0719  -10.6409   -1.0188 O   0  0  0  0  0  0  0  0  0  0  0  0
   -7.5353  -10.9379    1.3285 H   0  0  0  0  0  0  0  0  0  0  0  0
   -2.2877   -4.2333   -2.0718 O   0  0  0  0  0  0  0  0  0  0  0  0
   -1.2488   -5.1214   -2.0192 C   0  0  0  0  0  0  0  0  0  0  0  0
   -0.4534   -4.9296   -3.2794 C   0  0  0  0  0  0  0  0  0  0  0  0
   -1.3857   -4.9808   -4.4515 C   0  0  0  0  0  0  0  0  0  0  0  0
   -1.9679   -6.3398   -4.4449 C   0  0  0  0  0  0  0  0  0  0  0  0
   -2.7213   -6.4743   -3.1634 C   0  0  0  0  0  0  0  0  0  0  0  0
   -2.8553   -6.3467   -5.5218 O   0  0  0  0  0  0  0  0  0  0  0  0
   -1.8486   -6.3786   -2.0777 O   0  0  0  0  0  0  0  0  0  0  0  0
   -3.4906   -5.6206   -5.4218 H   0  0  0  0  0  0  0  0  0  0  0  0
    1.1737   -3.3094   -2.8204 C   0  0  0  0  0  0  0  0  0  0  0  0
    1.6705   -1.9180   -2.8984 C   0  0  0  0  0  0  0  0  0  0  0  0
    0.0028   -3.5794   -3.3290 N   0  0  0  0  0  0  0  0  0  0  0  0
    1.8127   -4.1581   -2.3013 O   0  0  0  0  0  0  0  0  0  0  0  0
   -0.5491   -2.8722   -3.7347 H   0  0  0  0  0  0  0  0  0  0  0  0
   -3.2989   -7.8460   -3.1828 C   0  0  0  0  0  0  0  0  0  0  0  0
   -2.2872   -8.6015   -3.7959 O   0  0  0  0  0  0  0  0  0  0  0  0
   -2.0888   -8.2281   -4.6689 H   0  0  0  0  0  0  0  0  0  0  0  0
   -0.6793   -4.8473   -5.6467 O   0  0  0  0  0  0  0  0  0  0  0  0
   -1.0669   -3.7053   -6.3886 C   0  0  0  0  0  0  0  0  0  0  0  0
   -1.7184   -4.1402   -7.6802 C   0  0  0  0  0  0  0  0  0  0  0  0
    0.0879   -2.7790   -6.6492 C   0  0  0  0  0  0  0  0  0  0  0  0
    0.1431   -1.7100   -6.0639 O   0  0  0  0  0  0  0  0  0  0  0  0
    0.9689   -3.0676   -7.4570 O   0  0  0  0  0  0  0  0  0  0  0  0
    0.9370   -3.8858   -7.9126 H   0  0  0  0  0  0  0  0  0  0  0  0
 21 22  1  0  0  0
 21 26  1  0  0  0
 21 12  1  0  0  0
 22 23  1  0  0  0
 22 27  2  0  0  0
 23 24  1  0  0  0
 24 25  1  0  0  0
 24 28  2  0  0  0
 25 26  2  0  0  0
 12 13  1  0  0  0
 12 17  1  0  0  0
 13 14  1  0  0  0
 13 15  1  0  0  0
 15 16  1  0  0  0
 15 18  1  0  0  0
 16 17  1  0  0  0
 16 11  1  0  0  0
 11 10  1  0  0  0
 10  6  1  0  0  0
  6  7  2  0  0  0
  6  8  1  0  0  0
  6  5  1  0  0  0
  5  1  1  0  0  0
  1  2  2  0  0  0
  1  3  1  0  0  0
  1 30  1  0  0  0
 31 32  1  0  0  0
 31 30  1  0  0  0
 31 37  1  0  0  0
 32 33  1  0  0  0
 32 41  1  0  0  0
 33 34  1  0  0  0
 33 47  1  0  0  0
 34 35  1  0  0  0
 34 36  1  0  0  0
 35 44  1  0  0  0
 35 37  1  0  0  0
 44 45  1  0  0  0
 39 40  1  0  0  0
 39 41  1  0  0  0
 39 42  2  0  0  0
 47 48  1  0  0  0
 50 51  2  0  0  0
 50 52  1  0  0  0
 50 48  1  0  0  0
 48 49  2  0  0  0
 23 29  1  0  0  0
 14 19  1  0  0  0
 18 20  1  0  0  0
  8  9  1  0  0  0
  3  4  1  0  0  0
 41 43  1  0  0  0
 36 38  1  0  0  0
 45 46  1  0  0  0
 52 53  1  0  0  0
M  END
> <minimizedAffinity>
-9.89014

$$$$
3ISS_EPU_A_601


 53 55  0  0  0  0  0  0  0  0999 V2000
   -4.1428   -9.5910    1.3054 P   0  0  0  0  0  0  0  0  0  0  0  0
   -5.3369   -9.2146    2.0082 O   0  0  0  0  0  0  0  0  0  0  0  0
   -3.1742  -10.3734    2.0263 O   0  0  0  0  0  0  0  0  0  0  0  0
   -2.8980   -9.8927    2.8222 H   0  0  0  0  0  0  0  0  0  0  0  0
   -3.4610   -8.3454    0.6115 O   0  0  0  0  0  0  0  0  0  0  0  0
   -2.0663   -7.7050    0.8992 P   0  0  0  0  0  0  0  0  0  0  0  0
   -1.2030   -7.8566   -0.2257 O   0  0  0  0  0  0  0  0  0  0  0  0
   -1.6287   -8.0703    2.2186 O   0  0  0  0  0  0  0  0  0  0  0  0
   -0.7623   -7.6710    2.3941 H   0  0  0  0  0  0  0  0  0  0  0  0
   -2.4072   -6.2046    0.9958 O   0  0  0  0  0  0  0  0  0  0  0  0
   -1.9467   -5.3735   -0.0435 C   0  0  0  0  0  0  0  0  0  0  0  0
   -4.1015   -3.0895    0.6280 C   0  0  0  0  0  0  0  0  0  0  0  0
   -3.0765   -2.2964   -0.1241 C   0  0  0  0  0  0  0  0  0  0  0  0
   -3.7063   -1.2166   -0.7734 O   0  0  0  0  0  0  0  0  0  0  0  0
   -2.5992   -3.2160   -1.1888 C   0  0  0  0  0  0  0  0  0  0  0  0
   -3.0228   -4.5954   -0.7646 C   0  0  0  0  0  0  0  0  0  0  0  0
   -4.0261   -4.4294    0.1958 O   0  0  0  0  0  0  0  0  0  0  0  0
   -3.2817   -2.8218   -2.3610 O   0  0  0  0  0  0  0  0  0  0  0  0
   -4.4053   -1.5528   -1.3559 H   0  0  0  0  0  0  0  0  0  0  0  0
   -4.2382   -2.8423   -2.2007 H   0  0  0  0  0  0  0  0  0  0  0  0
   -3.8687   -2.9787    2.0468 N   0  0  0  0  0  0  0  0  0  0  0  0
   -4.9335   -2.6486    2.8429 C   0  0  0  0  0  0  0  0  0  0  0  0
   -4.8307   -2.5070    4.1544 N   0  0  0  0  0  0  0  0  0  0  0  0
   -3.6631   -2.6995    4.7259 C   0  0  0  0  0  0  0  0  0  0  0  0
   -2.5790   -3.0371    3.9540 C   0  0  0  0  0  0  0  0  0  0  0  0
   -2.6989   -3.1706    2.5888 C   0  0  0  0  0  0  0  0  0  0  0  0
   -6.0135   -2.4820    2.3134 O   0  0  0  0  0  0  0  0  0  0  0  0
   -3.5763   -2.5730    5.9397 O   0  0  0  0  0  0  0  0  0  0  0  0
   -5.6168   -2.2612    4.6938 H   0  0  0  0  0  0  0  0  0  0  0  0
   -4.4752  -10.4619    0.1023 O   0  0  0  0  0  0  0  0  0  0  0  0
   -3.4478  -10.9407   -0.6632 C   0  0  0  0  0  0  0  0  0  0  0  0
   -3.8308  -10.7031   -2.0964 C   0  0  0  0  0  0  0  0  0  0  0  0
   -5.2102  -11.2429   -2.3237 C   0  0  0  0  0  0  0  0  0  0  0  0
   -5.1193  -12.6981   -2.0786 C   0  0  0  0  0  0  0  0  0  0  0  0
   -4.7142  -12.8653   -0.6518 C   0  0  0  0  0  0  0  0  0  0  0  0
   -6.4208  -13.1668   -2.2619 O   0  0  0  0  0  0  0  0  0  0  0  0
   -3.4472  -12.3173   -0.4419 O   0  0  0  0  0  0  0  0  0  0  0  0
   -7.0243  -12.6824   -1.6770 H   0  0  0  0  0  0  0  0  0  0  0  0
   -3.2065   -8.6705   -3.0773 C   0  0  0  0  0  0  0  0  0  0  0  0
   -3.4265   -7.2261   -3.3103 C   0  0  0  0  0  0  0  0  0  0  0  0
   -4.0305   -9.3041   -2.2885 N   0  0  0  0  0  0  0  0  0  0  0  0
   -2.3014   -9.2399   -3.5820 O   0  0  0  0  0  0  0  0  0  0  0  0
   -4.7677   -8.8307   -1.8396 H   0  0  0  0  0  0  0  0  0  0  0  0
   -4.6332  -14.3349   -0.4300 C   0  0  0  0  0  0  0  0  0  0  0  0
   -3.4626  -14.6899   -1.1184 O   0  0  0  0  0  0  0  0  0  0  0  0
   -3.5387  -14.4192   -2.0468 H   0  0  0  0  0  0  0  0  0  0  0  0
   -5.5884  -11.0782   -3.6560 O   0  0  0  0  0  0  0  0  0  0  0  0
   -6.7751  -10.3195   -3.7998 C   0  0  0  0  0  0  0  0  0  0  0  0
   -7.4050  -10.1064   -2.4434 C   0  0  0  0  0  0  0  0  0  0  0  0
   -7.7454  -10.9587   -4.7534 C   0  0  0  0  0  0  0  0  0  0  0  0
   -7.8126  -12.1753   -4.8149 O   0  0  0  0  0  0  0  0  0  0  0  0
   -8.4594  -10.2798   -5.4892 O   0  0  0  0  0  0  0  0  0  0  0  0
   -8.4165   -9.3446   -5.4509 H   0  0  0  0  0  0  0  0  0  0  0  0
 21 22  1  0  0  0
 21 26  1  0  0  0
 21 12  1  0  0  0
 22 23  1  0  0  0
 22 27  2  0  0  0
 23 24  1  0  0  0
 24 25  1  0  0  0
 24 28  2  0  0  0
 25 26  2  0  0  0
 12 13  1  0  0  0
 12 17  1  0  0  0
 13 14  1  0  0  0
 13 15  1  0  0  0
 15 16  1  0  0  0
 15 18  1  0  0  0
 16 17  1  0  0  0
 16 11  1  0  0  0
 11 10  1  0  0  0
 10  6  1  0  0  0
  6  7  2  0  0  0
  6  8  1  0  0  0
  6  5  1  0  0  0
  5  1  1  0  0  0
  1  2  2  0  0  0
  1  3  1  0  0  0
  1 30  1  0  0  0
 31 32  1  0  0  0
 31 30  1  0  0  0
 31 37  1  0  0  0
 32 33  1  0  0  0
 32 41  1  0  0  0
 33 34  1  0  0  0
 33 47  1  0  0  0
 34 35  1  0  0  0
 34 36  1  0  0  0
 35 44  1  0  0  0
 35 37  1  0  0  0
 44 45  1  0  0  0
 39 40  1  0  0  0
 39 41  1  0  0  0
 39 42  2  0  0  0
 47 48  1  0  0  0
 50 51  2  0  0  0
 50 52  1  0  0  0
 50 48  1  0  0  0
 48 49  2  0  0  0
 23 29  1  0  0  0
 14 19  1  0  0  0
 18 20  1  0  0  0
  8  9  1  0  0  0
  3  4  1  0  0  0
 41 43  1  0  0  0
 36 38  1  0  0  0
 45 46  1  0  0  0
 52 53  1  0  0  0
M  END
> <minimizedAffinity>
-9.88567

$$$$
3ISS_EPU_A_601


 53 55  0  0  0  0  0  0  0  0999 V2000
   -3.1791   -7.9016   -1.1800 P   0  0  0  0  0  0  0  0  0  0  0  0
   -1.9237   -8.5790   -1.0168 O   0  0  0  0  0  0  0  0  0  0  0  0
   -4.0593   -7.8646   -0.0425 O   0  0  0  0  0  0  0  0  0  0  0  0
   -4.2581   -8.7703    0.2421 H   0  0  0  0  0  0  0  0  0  0  0  0
   -3.9432   -8.3989   -2.4711 O   0  0  0  0  0  0  0  0  0  0  0  0
   -3.4790   -8.3576   -3.9614 P   0  0  0  0  0  0  0  0  0  0  0  0
   -2.2952   -9.1323   -4.1398 O   0  0  0  0  0  0  0  0  0  0  0  0
   -3.5600   -7.0107   -4.4565 O   0  0  0  0  0  0  0  0  0  0  0  0
   -3.2711   -6.9886   -5.3822 H   0  0  0  0  0  0  0  0  0  0  0  0
   -4.6144   -9.1132   -4.6802 O   0  0  0  0  0  0  0  0  0  0  0  0
   -5.4162   -9.9643   -3.8956 C   0  0  0  0  0  0  0  0  0  0  0  0
   -4.9337  -12.3239   -1.7718 C   0  0  0  0  0  0  0  0  0  0  0  0
   -6.2533  -12.7333   -2.3518 C   0  0  0  0  0  0  0  0  0  0  0  0
   -6.3772  -14.1350   -2.2859 O   0  0  0  0  0  0  0  0  0  0  0  0
   -6.1551  -12.3801   -3.7914 C   0  0  0  0  0  0  0  0  0  0  0  0
   -5.0043  -11.4182   -3.9039 C   0  0  0  0  0  0  0  0  0  0  0  0
   -4.2440  -11.5644   -2.7389 O   0  0  0  0  0  0  0  0  0  0  0  0
   -5.8616  -13.5907   -4.4574 O   0  0  0  0  0  0  0  0  0  0  0  0
   -5.6321  -14.5476   -2.7501 H   0  0  0  0  0  0  0  0  0  0  0  0
   -5.0605  -13.9833   -4.0765 H   0  0  0  0  0  0  0  0  0  0  0  0
   -5.1390  -11.5721   -0.5585 N   0  0  0  0  0  0  0  0  0  0  0  0
   -4.0717  -11.4246    0.2874 C   0  0  0  0  0  0  0  0  0  0  0  0
   -4.1509  -10.7667    1.4327 N   0  0  0  0  0  0  0  0  0  0  0  0
   -5.2960  -10.2205    1.7752 C   0  0  0  0  0  0  0  0  0  0  0  0
   -6.3817  -10.3470    0.9445 C   0  0  0  0  0  0  0  0  0  0  0  0
   -6.2870  -11.0436   -0.2394 C   0  0  0  0  0  0  0  0  0  0  0  0
   -3.0120  -11.9210   -0.0369 O   0  0  0  0  0  0  0  0  0  0  0  0
   -5.3607   -9.6085    2.8326 O   0  0  0  0  0  0  0  0  0  0  0  0
   -3.3641  -10.6877    2.0192 H   0  0  0  0  0  0  0  0  0  0  0  0
   -2.9616   -6.4309   -1.5061 O   0  0  0  0  0  0  0  0  0  0  0  0
   -1.6897   -5.9304   -1.4560 C   0  0  0  0  0  0  0  0  0  0  0  0
   -1.6665   -4.9227   -0.3418 C   0  0  0  0  0  0  0  0  0  0  0  0
   -2.8082   -3.9701   -0.5281 C   0  0  0  0  0  0  0  0  0  0  0  0
   -2.5545   -3.2825   -1.8122 C   0  0  0  0  0  0  0  0  0  0  0  0
   -2.5667   -4.3362   -2.8693 C   0  0  0  0  0  0  0  0  0  0  0  0
   -3.6478   -2.4310   -1.9763 O   0  0  0  0  0  0  0  0  0  0  0  0
   -1.5269   -5.2440   -2.6586 O   0  0  0  0  0  0  0  0  0  0  0  0
   -4.4683   -2.9466   -1.9345 H   0  0  0  0  0  0  0  0  0  0  0  0
   -1.1350   -5.6490    1.8200 C   0  0  0  0  0  0  0  0  0  0  0  0
   -1.5130   -6.2956    3.0959 C   0  0  0  0  0  0  0  0  0  0  0  0
   -2.0289   -5.5776    0.8722 N   0  0  0  0  0  0  0  0  0  0  0  0
   -0.0476   -5.2154    1.6534 O   0  0  0  0  0  0  0  0  0  0  0  0
   -2.9264   -5.9641    0.9914 H   0  0  0  0  0  0  0  0  0  0  0  0
   -2.3131   -3.6197   -4.1491 C   0  0  0  0  0  0  0  0  0  0  0  0
   -1.2700   -2.7424   -3.8135 O   0  0  0  0  0  0  0  0  0  0  0  0
   -1.5476   -2.1772   -3.0756 H   0  0  0  0  0  0  0  0  0  0  0  0
   -2.7982   -2.9915    0.4656 O   0  0  0  0  0  0  0  0  0  0  0  0
   -4.0662   -2.8087    1.0685 C   0  0  0  0  0  0  0  0  0  0  0  0
   -4.3699   -1.3321    1.1664 C   0  0  0  0  0  0  0  0  0  0  0  0
   -4.1551   -3.4707    2.4151 C   0  0  0  0  0  0  0  0  0  0  0  0
   -4.5794   -4.6117    2.4956 O   0  0  0  0  0  0  0  0  0  0  0  0
   -3.8282   -2.8777    3.4415 O   0  0  0  0  0  0  0  0  0  0  0  0
   -3.5010   -2.0011    3.3921 H   0  0  0  0  0  0  0  0  0  0  0  0
 21 22  1  0  0  0
 21 26  1  0  0  0
 21 12  1  0  0  0
 22 23  1  0  0  0
 22 27  2  0  0  0
 23 24  1  0  0  0
 24 25  1  0  0  0
 24 28  2  0  0  0
 25 26  2  0  0  0
 12 13  1  0  0  0
 12 17  1  0  0  0
 13 14  1  0  0  0
 13 15  1  0  0  0
 15 16  1  0  0  0
 15 18  1  0  0  0
 16 17  1  0  0  0
 16 11  1  0  0  0
 11 10  1  0  0  0
 10  6  1  0  0  0
  6  7  2  0  0  0
  6  8  1  0  0  0
  6  5  1  0  0  0
  5  1  1  0  0  0
  1  2  2  0  0  0
  1  3  1  0  0  0
  1 30  1  0  0  0
 31 32  1  0  0  0
 31 30  1  0  0  0
 31 37  1  0  0  0
 32 33  1  0  0  0
 32 41  1  0  0  0
 33 34  1  0  0  0
 33 47  1  0  0  0
 34 35  1  0  0  0
 34 36  1  0  0  0
 35 44  1  0  0  0
 35 37  1  0  0  0
 44 45  1  0  0  0
 39 40  1  0  0  0
 39 41  1  0  0  0
 39 42  2  0  0  0
 47 48  1  0  0  0
 50 51  2  0  0  0
 50 52  1  0  0  0
 50 48  1  0  0  0
 48 49  2  0  0  0
 23 29  1  0  0  0
 14 19  1  0  0  0
 18 20  1  0  0  0
  8  9  1  0  0  0
  3  4  1  0  0  0
 41 43  1  0  0  0
 36 38  1  0  0  0
 45 46  1  0  0  0
 52 53  1  0  0  0
M  END
> <minimizedAffinity>
-9.82782

$$$$
3ISS_EPU_A_601


 53 55  0  0  0  0  0  0  0  0999 V2000
   -3.2307   -9.1784   -2.9432 P   0  0  0  0  0  0  0  0  0  0  0  0
   -3.6692   -7.8114   -2.9704 O   0  0  0  0  0  0  0  0  0  0  0  0
   -2.6853   -9.6696   -1.7058 O   0  0  0  0  0  0  0  0  0  0  0  0
   -1.9286   -9.1213   -1.4457 H   0  0  0  0  0  0  0  0  0  0  0  0
   -2.2687   -9.5032   -4.1544 O   0  0  0  0  0  0  0  0  0  0  0  0
   -2.3668   -9.0281   -5.6386 P   0  0  0  0  0  0  0  0  0  0  0  0
   -3.7228   -9.0374   -6.0797 O   0  0  0  0  0  0  0  0  0  0  0  0
   -1.3342   -9.6555   -6.4170 O   0  0  0  0  0  0  0  0  0  0  0  0
   -1.3979   -9.3583   -7.3381 H   0  0  0  0  0  0  0  0  0  0  0  0
   -1.9445   -7.5488   -5.5386 O   0  0  0  0  0  0  0  0  0  0  0  0
   -1.5703   -6.9058   -6.7341 C   0  0  0  0  0  0  0  0  0  0  0  0
   -1.9832   -3.9332   -5.5922 C   0  0  0  0  0  0  0  0  0  0  0  0
   -1.1227   -3.6580   -6.7877 C   0  0  0  0  0  0  0  0  0  0  0  0
   -1.4060   -2.3688   -7.2796 O   0  0  0  0  0  0  0  0  0  0  0  0
   -1.5927   -4.6210   -7.8166 C   0  0  0  0  0  0  0  0  0  0  0  0
   -2.3726   -5.6714   -7.0747 C   0  0  0  0  0  0  0  0  0  0  0  0
   -2.7008   -5.1232   -5.8304 O   0  0  0  0  0  0  0  0  0  0  0  0
   -2.4396   -3.8783   -8.6690 O   0  0  0  0  0  0  0  0  0  0  0  0
   -2.3509   -2.3029   -7.4887 H   0  0  0  0  0  0  0  0  0  0  0  0
   -3.1425   -3.4635   -8.1449 H   0  0  0  0  0  0  0  0  0  0  0  0
   -1.1661   -4.0376   -4.4085 N   0  0  0  0  0  0  0  0  0  0  0  0
   -1.7054   -3.6130   -3.2231 C   0  0  0  0  0  0  0  0  0  0  0  0
   -1.0409   -3.6504   -2.0796 N   0  0  0  0  0  0  0  0  0  0  0  0
    0.1854   -4.1229   -2.0711 C   0  0  0  0  0  0  0  0  0  0  0  0
    0.7502   -4.5611   -3.2432 C   0  0  0  0  0  0  0  0  0  0  0  0
    0.0500   -4.5062   -4.4276 C   0  0  0  0  0  0  0  0  0  0  0  0
   -2.8426   -3.1872   -3.2321 O   0  0  0  0  0  0  0  0  0  0  0  0
    0.7920   -4.1604   -1.0093 O   0  0  0  0  0  0  0  0  0  0  0  0
   -1.4586   -3.3293   -1.2479 H   0  0  0  0  0  0  0  0  0  0  0  0
   -4.3912  -10.1242   -3.2177 O   0  0  0  0  0  0  0  0  0  0  0  0
   -5.6339   -9.7866   -2.7569 C   0  0  0  0  0  0  0  0  0  0  0  0
   -6.1927  -11.0102   -2.0875 C   0  0  0  0  0  0  0  0  0  0  0  0
   -6.0632  -12.1740   -3.0227 C   0  0  0  0  0  0  0  0  0  0  0  0
   -6.8937  -11.8403   -4.1995 C   0  0  0  0  0  0  0  0  0  0  0  0
   -6.3032  -10.6091   -4.8022 C   0  0  0  0  0  0  0  0  0  0  0  0
   -6.7259  -12.9216   -5.0653 O   0  0  0  0  0  0  0  0  0  0  0  0
   -6.3878   -9.5432   -3.9042 O   0  0  0  0  0  0  0  0  0  0  0  0
   -5.7811  -13.0489   -5.2445 H   0  0  0  0  0  0  0  0  0  0  0  0
   -5.6971  -11.1477    0.1969 C   0  0  0  0  0  0  0  0  0  0  0  0
   -4.8112  -11.5692    1.3044 C   0  0  0  0  0  0  0  0  0  0  0  0
   -5.3171  -11.3894   -1.0277 N   0  0  0  0  0  0  0  0  0  0  0  0
   -6.7206  -10.5951    0.4097 O   0  0  0  0  0  0  0  0  0  0  0  0
   -4.4519  -11.8207   -1.2144 H   0  0  0  0  0  0  0  0  0  0  0  0
   -7.1530  -10.2968   -5.9837 C   0  0  0  0  0  0  0  0  0  0  0  0
   -8.4542  -10.3971   -5.4668 O   0  0  0  0  0  0  0  0  0  0  0  0
   -8.5852  -11.2813   -5.0902 H   0  0  0  0  0  0  0  0  0  0  0  0
   -6.6090  -13.3242   -2.4533 O   0  0  0  0  0  0  0  0  0  0  0  0
   -5.7978  -14.4689   -2.6439 C   0  0  0  0  0  0  0  0  0  0  0  0
   -6.6442  -15.6054   -3.1674 C   0  0  0  0  0  0  0  0  0  0  0  0
   -5.0731  -14.8665   -1.3885 C   0  0  0  0  0  0  0  0  0  0  0  0
   -4.0743  -14.2519   -1.0523 O   0  0  0  0  0  0  0  0  0  0  0  0
   -5.4548  -15.8134   -0.7030 O   0  0  0  0  0  0  0  0  0  0  0  0
   -6.2206  -16.2929   -0.9512 H   0  0  0  0  0  0  0  0  0  0  0  0
 21 22  1  0  0  0
 21 26  1  0  0  0
 21 12  1  0  0  0
 22 23  1  0  0  0
 22 27  2  0  0  0
 23 24  1  0  0  0
 24 25  1  0  0  0
 24 28  2  0  0  0
 25 26  2  0  0  0
 12 13  1  0  0  0
 12 17  1  0  0  0
 13 14  1  0  0  0
 13 15  1  0  0  0
 15 16  1  0  0  0
 15 18  1  0  0  0
 16 17  1  0  0  0
 16 11  1  0  0  0
 11 10  1  0  0  0
 10  6  1  0  0  0
  6  7  2  0  0  0
  6  8  1  0  0  0
  6  5  1  0  0  0
  5  1  1  0  0  0
  1  2  2  0  0  0
  1  3  1  0  0  0
  1 30  1  0  0  0
 31 32  1  0  0  0
 31 30  1  0  0  0
 31 37  1  0  0  0
 32 33  1  0  0  0
 32 41  1  0  0  0
 33 34  1  0  0  0
 33 47  1  0  0  0
 34 35  1  0  0  0
 34 36  1  0  0  0
 35 44  1  0  0  0
 35 37  1  0  0  0
 44 45  1  0  0  0
 39 40  1  0  0  0
 39 41  1  0  0  0
 39 42  2  0  0  0
 47 48  1  0  0  0
 50 51  2  0  0  0
 50 52  1  0  0  0
 50 48  1  0  0  0
 48 49  2  0  0  0
 23 29  1  0  0  0
 14 19  1  0  0  0
 18 20  1  0  0  0
  8  9  1  0  0  0
  3  4  1  0  0  0
 41 43  1  0  0  0
 36 38  1  0  0  0
 45 46  1  0  0  0
 52 53  1  0  0  0
M  END
> <minimizedAffinity>
-9.82305

$$$$
