3T64_DU3_A_201


 32 35  0  0  0  0  0  0  0  0999 V2000
   -7.5281   25.5716   -0.5190 C   0  0  0  0  0  0  0  0  0  0  0  0
   -7.9624   26.7425    0.3361 C   0  0  0  0  0  0  0  0  0  0  0  0
   -8.7727   27.6209   -0.5972 C   0  0  0  0  0  0  0  0  0  0  0  0
   -9.8948   28.1383    0.1339 O   0  0  0  0  0  0  0  0  0  0  0  0
   -9.2780   26.7185   -1.7150 C   0  0  0  0  0  0  0  0  0  0  0  0
   -8.3355   25.5886   -1.7268 O   0  0  0  0  0  0  0  0  0  0  0  0
  -10.4180   27.4018    0.4870 H   0  0  0  0  0  0  0  0  0  0  0  0
   -6.1573   25.7397   -1.0748 N   0  0  0  0  0  0  0  0  0  0  0  0
   -5.4937   24.5822   -1.4533 C   0  0  0  0  0  0  0  0  0  0  0  0
   -6.0111   23.4750   -1.2986 O   0  0  0  0  0  0  0  0  0  0  0  0
   -4.2135   24.6770   -2.0147 N   0  0  0  0  0  0  0  0  0  0  0  0
   -3.6322   25.9225   -2.2036 C   0  0  0  0  0  0  0  0  0  0  0  0
   -2.5132   25.9537   -2.7059 O   0  0  0  0  0  0  0  0  0  0  0  0
   -4.2868   27.0964   -1.8171 C   0  0  0  0  0  0  0  0  0  0  0  0
   -5.5701   27.0006   -1.2495 C   0  0  0  0  0  0  0  0  0  0  0  0
   -3.7273   23.8613   -2.2746 H   0  0  0  0  0  0  0  0  0  0  0  0
   -9.4053   27.5193   -3.0824 C   0  0  0  0  0  0  0  0  0  0  0  0
   -9.4908   26.5939   -4.2625 N   0  0  0  0  0  0  0  0  0  0  0  0
   -8.9746   25.7426   -4.0406 H   0  0  0  0  0  0  0  0  0  0  0  0
   -8.9339   27.1651   -5.5232 C   0  0  0  0  0  0  0  0  0  0  0  0
   -9.4143   26.4605   -6.8113 C   0  0  0  0  0  0  0  0  0  0  0  0
   -9.5661   27.2113   -7.9764 C   0  0  0  0  0  0  0  0  0  0  0  0
   -9.9926   26.6214   -9.1613 C   0  0  0  0  0  0  0  0  0  0  0  0
  -10.2516   25.2601   -9.1870 C   0  0  0  0  0  0  0  0  0  0  0  0
  -10.0918   24.5063   -8.0327 C   0  0  0  0  0  0  0  0  0  0  0  0
   -9.6718   25.0994   -6.8481 C   0  0  0  0  0  0  0  0  0  0  0  0
   -7.4139   27.0737   -5.5783 C   0  0  0  0  0  0  0  0  0  0  0  0
   -6.7977   25.8842   -5.1887 C   0  0  0  0  0  0  0  0  0  0  0  0
   -5.4063   25.8008   -5.2327 C   0  0  0  0  0  0  0  0  0  0  0  0
   -4.6409   26.8899   -5.6410 C   0  0  0  0  0  0  0  0  0  0  0  0
   -5.2600   28.0722   -6.0048 C   0  0  0  0  0  0  0  0  0  0  0  0
   -6.6447   28.1748   -5.9788 C   0  0  0  0  0  0  0  0  0  0  0  0
  9  8  1  0  0  0
 15  8  1  0  0  0
  8  1  1  0  0  0
 11  9  1  0  0  0
 10  9  2  0  0  0
 12 11  1  0  0  0
 13 12  2  0  0  0
 12 14  1  0  0  0
 14 15  2  0  0  0
  6  1  1  0  0  0
  1  2  1  0  0  0
 21 20  1  0  0  0
 27 20  1  0  0  0
 20 18  1  0  0  0
 22 21  2  0  0  0
 26 21  1  0  0  0
 23 22  1  0  0  0
  3  2  1  0  0  0
 24 23  2  0  0  0
 24 25  1  0  0  0
 25 26  2  0  0  0
 28 27  2  0  0  0
 27 32  1  0  0  0
 29 28  1  0  0  0
 29 30  2  0  0  0
 30 31  1  0  0  0
 31 32  2  0  0  0
  5  3  1  0  0  0
  3  4  1  0  0  0
 17  5  1  0  0  0
  6  5  1  0  0  0
 18 17  1  0  0  0
 11 16  1  0  0  0
  4  7  1  0  0  0
 18 19  1  0  0  0
M  END
> <minimizedAffinity>
-8.79865

$$$$
3T64_DU3_A_201


 32 35  0  0  0  0  0  0  0  0999 V2000
   -8.9574   27.2700   -6.2974 C   0  0  0  0  0  0  0  0  0  0  0  0
   -9.5635   25.9111   -6.5749 C   0  0  0  0  0  0  0  0  0  0  0  0
  -10.0981   25.4471   -5.2340 C   0  0  0  0  0  0  0  0  0  0  0  0
  -11.3544   24.7879   -5.4549 O   0  0  0  0  0  0  0  0  0  0  0  0
  -10.3314   26.7004   -4.4011 C   0  0  0  0  0  0  0  0  0  0  0  0
   -9.4406   27.7075   -4.9989 O   0  0  0  0  0  0  0  0  0  0  0  0
  -11.9649   25.3963   -5.8999 H   0  0  0  0  0  0  0  0  0  0  0  0
   -7.4884   27.2101   -6.0637 N   0  0  0  0  0  0  0  0  0  0  0  0
   -6.7646   28.3555   -6.3597 C   0  0  0  0  0  0  0  0  0  0  0  0
   -7.3180   29.3527   -6.8255 O   0  0  0  0  0  0  0  0  0  0  0  0
   -5.3827   28.3732   -6.1296 N   0  0  0  0  0  0  0  0  0  0  0  0
   -4.7572   27.2573   -5.5925 C   0  0  0  0  0  0  0  0  0  0  0  0
   -3.5469   27.3246   -5.4022 O   0  0  0  0  0  0  0  0  0  0  0  0
   -5.4741   26.0929   -5.2989 C   0  0  0  0  0  0  0  0  0  0  0  0
   -6.8606   26.0739   -5.5342 C   0  0  0  0  0  0  0  0  0  0  0  0
   -4.8565   29.1759   -6.3487 H   0  0  0  0  0  0  0  0  0  0  0  0
  -10.0989   26.4107   -2.8553 C   0  0  0  0  0  0  0  0  0  0  0  0
   -8.8169   27.0189   -2.3626 N   0  0  0  0  0  0  0  0  0  0  0  0
   -8.1665   27.0751   -3.1464 H   0  0  0  0  0  0  0  0  0  0  0  0
   -8.1629   26.2494   -1.2644 C   0  0  0  0  0  0  0  0  0  0  0  0
   -8.2312   26.9291    0.1212 C   0  0  0  0  0  0  0  0  0  0  0  0
   -9.1708   27.9370    0.3343 C   0  0  0  0  0  0  0  0  0  0  0  0
   -9.2729   28.5760    1.5653 C   0  0  0  0  0  0  0  0  0  0  0  0
   -8.4385   28.1890    2.6022 C   0  0  0  0  0  0  0  0  0  0  0  0
   -7.5089   27.1789    2.3984 C   0  0  0  0  0  0  0  0  0  0  0  0
   -7.4044   26.5464    1.1653 C   0  0  0  0  0  0  0  0  0  0  0  0
   -6.6754   26.0339   -1.5147 C   0  0  0  0  0  0  0  0  0  0  0  0
   -6.1931   24.7287   -1.6158 C   0  0  0  0  0  0  0  0  0  0  0  0
   -4.8309   24.5295   -1.8388 C   0  0  0  0  0  0  0  0  0  0  0  0
   -3.9612   25.6119   -1.9416 C   0  0  0  0  0  0  0  0  0  0  0  0
   -4.4454   26.9018   -1.8186 C   0  0  0  0  0  0  0  0  0  0  0  0
   -5.7997   27.1245   -1.6067 C   0  0  0  0  0  0  0  0  0  0  0  0
  9  8  1  0  0  0
 15  8  1  0  0  0
  8  1  1  0  0  0
 11  9  1  0  0  0
 10  9  2  0  0  0
 12 11  1  0  0  0
 13 12  2  0  0  0
 12 14  1  0  0  0
 14 15  2  0  0  0
  6  1  1  0  0  0
  1  2  1  0  0  0
 21 20  1  0  0  0
 27 20  1  0  0  0
 20 18  1  0  0  0
 22 21  2  0  0  0
 26 21  1  0  0  0
 23 22  1  0  0  0
  3  2  1  0  0  0
 24 23  2  0  0  0
 24 25  1  0  0  0
 25 26  2  0  0  0
 28 27  2  0  0  0
 27 32  1  0  0  0
 29 28  1  0  0  0
 29 30  2  0  0  0
 30 31  1  0  0  0
 31 32  2  0  0  0
  5  3  1  0  0  0
  3  4  1  0  0  0
 17  5  1  0  0  0
  6  5  1  0  0  0
 18 17  1  0  0  0
 11 16  1  0  0  0
  4  7  1  0  0  0
 18 19  1  0  0  0
M  END
> <minimizedAffinity>
-8.69214

$$$$
3T64_DU3_A_201


 32 35  0  0  0  0  0  0  0  0999 V2000
   -9.1681   27.2146   -5.7593 C   0  0  0  0  0  0  0  0  0  0  0  0
   -9.8215   25.8630   -5.9517 C   0  0  0  0  0  0  0  0  0  0  0  0
  -10.2404   25.4363   -4.5583 C   0  0  0  0  0  0  0  0  0  0  0  0
  -11.5234   24.7983   -4.6504 O   0  0  0  0  0  0  0  0  0  0  0  0
  -10.3742   26.7102   -3.7348 C   0  0  0  0  0  0  0  0  0  0  0  0
   -9.5232   27.6873   -4.4321 O   0  0  0  0  0  0  0  0  0  0  0  0
  -12.1606   25.4099   -5.0513 H   0  0  0  0  0  0  0  0  0  0  0  0
   -7.6852   27.1299   -5.6583 N   0  0  0  0  0  0  0  0  0  0  0  0
   -6.9786   28.3012   -5.8865 C   0  0  0  0  0  0  0  0  0  0  0  0
   -7.5601   29.3436   -6.1914 O   0  0  0  0  0  0  0  0  0  0  0  0
   -5.5821   28.2939   -5.7731 N   0  0  0  0  0  0  0  0  0  0  0  0
   -4.9238   27.1258   -5.4166 C   0  0  0  0  0  0  0  0  0  0  0  0
   -3.7013   27.1721   -5.3227 O   0  0  0  0  0  0  0  0  0  0  0  0
   -5.6240   25.9359   -5.1935 C   0  0  0  0  0  0  0  0  0  0  0  0
   -7.0254   25.9425   -5.3118 C   0  0  0  0  0  0  0  0  0  0  0  0
   -5.0690   29.1161   -5.9461 H   0  0  0  0  0  0  0  0  0  0  0  0
  -10.0075   26.4464   -2.2105 C   0  0  0  0  0  0  0  0  0  0  0  0
   -8.6335   25.8576   -2.0634 N   0  0  0  0  0  0  0  0  0  0  0  0
   -8.6766   25.1123   -1.3683 H   0  0  0  0  0  0  0  0  0  0  0  0
   -7.5952   26.8395   -1.6346 C   0  0  0  0  0  0  0  0  0  0  0  0
   -6.1468   26.3056   -1.6943 C   0  0  0  0  0  0  0  0  0  0  0  0
   -5.0888   27.2078   -1.5916 C   0  0  0  0  0  0  0  0  0  0  0  0
   -3.7679   26.7750   -1.6365 C   0  0  0  0  0  0  0  0  0  0  0  0
   -3.5014   25.4210   -1.7658 C   0  0  0  0  0  0  0  0  0  0  0  0
   -4.5510   24.5177   -1.8576 C   0  0  0  0  0  0  0  0  0  0  0  0
   -5.8702   24.9535   -1.8192 C   0  0  0  0  0  0  0  0  0  0  0  0
   -7.7819   27.2857   -0.1897 C   0  0  0  0  0  0  0  0  0  0  0  0
   -8.3395   28.5400    0.0596 C   0  0  0  0  0  0  0  0  0  0  0  0
   -8.5055   28.9525    1.3815 C   0  0  0  0  0  0  0  0  0  0  0  0
   -8.1064   28.1366    2.4367 C   0  0  0  0  0  0  0  0  0  0  0  0
   -7.5348   26.9035    2.1791 C   0  0  0  0  0  0  0  0  0  0  0  0
   -7.3692   26.4676    0.8710 C   0  0  0  0  0  0  0  0  0  0  0  0
  9  8  1  0  0  0
 15  8  1  0  0  0
  8  1  1  0  0  0
 11  9  1  0  0  0
 10  9  2  0  0  0
 12 11  1  0  0  0
 13 12  2  0  0  0
 12 14  1  0  0  0
 14 15  2  0  0  0
  6  1  1  0  0  0
  1  2  1  0  0  0
 21 20  1  0  0  0
 27 20  1  0  0  0
 20 18  1  0  0  0
 22 21  2  0  0  0
 26 21  1  0  0  0
 23 22  1  0  0  0
  3  2  1  0  0  0
 24 23  2  0  0  0
 24 25  1  0  0  0
 25 26  2  0  0  0
 28 27  2  0  0  0
 27 32  1  0  0  0
 29 28  1  0  0  0
 29 30  2  0  0  0
 30 31  1  0  0  0
 31 32  2  0  0  0
  5  3  1  0  0  0
  3  4  1  0  0  0
 17  5  1  0  0  0
  6  5  1  0  0  0
 18 17  1  0  0  0
 11 16  1  0  0  0
  4  7  1  0  0  0
 18 19  1  0  0  0
M  END
> <minimizedAffinity>
-8.39251

$$$$
3T64_DU3_A_201


 32 35  0  0  0  0  0  0  0  0999 V2000
   -7.6054   25.7410   -0.7901 C   0  0  0  0  0  0  0  0  0  0  0  0
   -8.0585   26.9020    0.0687 C   0  0  0  0  0  0  0  0  0  0  0  0
   -8.6855   27.8798   -0.9059 C   0  0  0  0  0  0  0  0  0  0  0  0
   -9.8499   28.4473   -0.2865 O   0  0  0  0  0  0  0  0  0  0  0  0
   -9.1118   27.0690   -2.1223 C   0  0  0  0  0  0  0  0  0  0  0  0
   -8.2559   25.8729   -2.0826 O   0  0  0  0  0  0  0  0  0  0  0  0
  -10.4623   27.7374   -0.0378 H   0  0  0  0  0  0  0  0  0  0  0  0
   -6.1685   25.8298   -1.1695 N   0  0  0  0  0  0  0  0  0  0  0  0
   -5.5672   24.6586   -1.6055 C   0  0  0  0  0  0  0  0  0  0  0  0
   -6.1933   23.5982   -1.6381 O   0  0  0  0  0  0  0  0  0  0  0  0
   -4.2256   24.6845   -2.0088 N   0  0  0  0  0  0  0  0  0  0  0  0
   -3.5203   25.8790   -1.9868 C   0  0  0  0  0  0  0  0  0  0  0  0
   -2.3507   25.8517   -2.3568 O   0  0  0  0  0  0  0  0  0  0  0  0
   -4.1123   27.0647   -1.5401 C   0  0  0  0  0  0  0  0  0  0  0  0
   -5.4577   27.0375   -1.1310 C   0  0  0  0  0  0  0  0  0  0  0  0
   -3.7843   23.8566   -2.3072 H   0  0  0  0  0  0  0  0  0  0  0  0
   -9.0150   27.9375   -3.4505 C   0  0  0  0  0  0  0  0  0  0  0  0
   -9.7045   27.2671   -4.6043 N   0  0  0  0  0  0  0  0  0  0  0  0
  -10.5355   26.7934   -4.2500 H   0  0  0  0  0  0  0  0  0  0  0  0
   -8.8602   26.2638   -5.3159 C   0  0  0  0  0  0  0  0  0  0  0  0
   -7.3779   26.6706   -5.4711 C   0  0  0  0  0  0  0  0  0  0  0  0
   -6.3855   25.7552   -5.1230 C   0  0  0  0  0  0  0  0  0  0  0  0
   -5.0376   26.0739   -5.2484 C   0  0  0  0  0  0  0  0  0  0  0  0
   -4.6773   27.3161   -5.7467 C   0  0  0  0  0  0  0  0  0  0  0  0
   -5.6614   28.2268   -6.1047 C   0  0  0  0  0  0  0  0  0  0  0  0
   -7.0077   27.9084   -5.9722 C   0  0  0  0  0  0  0  0  0  0  0  0
   -9.3404   26.0081   -6.7391 C   0  0  0  0  0  0  0  0  0  0  0  0
   -9.5450   27.0982   -7.5854 C   0  0  0  0  0  0  0  0  0  0  0  0
   -9.9904   26.8664   -8.8865 C   0  0  0  0  0  0  0  0  0  0  0  0
  -10.2447   25.5718   -9.3313 C   0  0  0  0  0  0  0  0  0  0  0  0
  -10.0594   24.4989   -8.4780 C   0  0  0  0  0  0  0  0  0  0  0  0
   -9.6066   24.7049   -7.1814 C   0  0  0  0  0  0  0  0  0  0  0  0
  9  8  1  0  0  0
 15  8  1  0  0  0
  8  1  1  0  0  0
 11  9  1  0  0  0
 10  9  2  0  0  0
 12 11  1  0  0  0
 13 12  2  0  0  0
 12 14  1  0  0  0
 14 15  2  0  0  0
  6  1  1  0  0  0
  1  2  1  0  0  0
 21 20  1  0  0  0
 27 20  1  0  0  0
 20 18  1  0  0  0
 22 21  2  0  0  0
 26 21  1  0  0  0
 23 22  1  0  0  0
  3  2  1  0  0  0
 24 23  2  0  0  0
 24 25  1  0  0  0
 25 26  2  0  0  0
 28 27  2  0  0  0
 27 32  1  0  0  0
 29 28  1  0  0  0
 29 30  2  0  0  0
 30 31  1  0  0  0
 31 32  2  0  0  0
  5  3  1  0  0  0
  3  4  1  0  0  0
 17  5  1  0  0  0
  6  5  1  0  0  0
 18 17  1  0  0  0
 11 16  1  0  0  0
  4  7  1  0  0  0
 18 19  1  0  0  0
M  END
> <minimizedAffinity>
-8.26622

$$$$
3T64_DU3_A_201


 32 35  0  0  0  0  0  0  0  0999 V2000
   -7.1990   26.9206   -5.4882 C   0  0  0  0  0  0  0  0  0  0  0  0
   -8.4982   26.5680   -6.1800 C   0  0  0  0  0  0  0  0  0  0  0  0
   -9.5378   27.4530   -5.5204 C   0  0  0  0  0  0  0  0  0  0  0  0
  -10.4455   27.9120   -6.5339 O   0  0  0  0  0  0  0  0  0  0  0  0
   -8.7897   28.6468   -4.9423 C   0  0  0  0  0  0  0  0  0  0  0  0
   -7.4109   28.1639   -4.7668 O   0  0  0  0  0  0  0  0  0  0  0  0
   -9.9502   28.3826   -7.2224 H   0  0  0  0  0  0  0  0  0  0  0  0
   -6.8634   25.9862   -4.3790 N   0  0  0  0  0  0  0  0  0  0  0  0
   -5.5239   25.8870   -4.0335 C   0  0  0  0  0  0  0  0  0  0  0  0
   -4.6623   26.5194   -4.6461 O   0  0  0  0  0  0  0  0  0  0  0  0
   -5.1480   25.0495   -2.9750 N   0  0  0  0  0  0  0  0  0  0  0  0
   -6.1160   24.3457   -2.2732 C   0  0  0  0  0  0  0  0  0  0  0  0
   -5.7377   23.6318   -1.3498 O   0  0  0  0  0  0  0  0  0  0  0  0
   -7.4688   24.4296   -2.6181 C   0  0  0  0  0  0  0  0  0  0  0  0
   -7.8454   25.2669   -3.6835 C   0  0  0  0  0  0  0  0  0  0  0  0
   -4.1987   24.9606   -2.7296 H   0  0  0  0  0  0  0  0  0  0  0  0
   -9.5008   29.1837   -3.6256 C   0  0  0  0  0  0  0  0  0  0  0  0
   -8.6910   28.8863   -2.3960 N   0  0  0  0  0  0  0  0  0  0  0  0
   -8.1916   28.0095   -2.5451 H   0  0  0  0  0  0  0  0  0  0  0  0
   -9.5031   28.7577   -1.1510 C   0  0  0  0  0  0  0  0  0  0  0  0
   -8.7659   28.0816    0.0263 C   0  0  0  0  0  0  0  0  0  0  0  0
   -8.9598   28.5724    1.3168 C   0  0  0  0  0  0  0  0  0  0  0  0
   -8.3210   27.9951    2.4090 C   0  0  0  0  0  0  0  0  0  0  0  0
   -7.4934   26.9010    2.2110 C   0  0  0  0  0  0  0  0  0  0  0  0
   -7.3055   26.4021    0.9297 C   0  0  0  0  0  0  0  0  0  0  0  0
   -7.9398   26.9849   -0.1610 C   0  0  0  0  0  0  0  0  0  0  0  0
  -10.7528   27.9114   -1.3598 C   0  0  0  0  0  0  0  0  0  0  0  0
  -11.9288   28.2763   -0.7038 C   0  0  0  0  0  0  0  0  0  0  0  0
  -13.0721   27.4994   -0.8889 C   0  0  0  0  0  0  0  0  0  0  0  0
  -13.0396   26.3680   -1.6998 C   0  0  0  0  0  0  0  0  0  0  0  0
  -11.8633   26.0020   -2.3289 C   0  0  0  0  0  0  0  0  0  0  0  0
  -10.7152   26.7665   -2.1675 C   0  0  0  0  0  0  0  0  0  0  0  0
  9  8  1  0  0  0
 15  8  1  0  0  0
  8  1  1  0  0  0
 11  9  1  0  0  0
 10  9  2  0  0  0
 12 11  1  0  0  0
 13 12  2  0  0  0
 12 14  1  0  0  0
 14 15  2  0  0  0
  6  1  1  0  0  0
  1  2  1  0  0  0
 21 20  1  0  0  0
 27 20  1  0  0  0
 20 18  1  0  0  0
 22 21  2  0  0  0
 26 21  1  0  0  0
 23 22  1  0  0  0
  3  2  1  0  0  0
 24 23  2  0  0  0
 24 25  1  0  0  0
 25 26  2  0  0  0
 28 27  2  0  0  0
 27 32  1  0  0  0
 29 28  1  0  0  0
 29 30  2  0  0  0
 30 31  1  0  0  0
 31 32  2  0  0  0
  5  3  1  0  0  0
  3  4  1  0  0  0
 17  5  1  0  0  0
  6  5  1  0  0  0
 18 17  1  0  0  0
 11 16  1  0  0  0
  4  7  1  0  0  0
 18 19  1  0  0  0
M  END
> <minimizedAffinity>
-7.75972

$$$$
3T64_DU3_A_201


 32 35  0  0  0  0  0  0  0  0999 V2000
   -8.9598   28.0400   -0.9225 C   0  0  0  0  0  0  0  0  0  0  0  0
   -9.5150   29.0417   -1.9121 C   0  0  0  0  0  0  0  0  0  0  0  0
  -10.0835   28.1975   -3.0361 C   0  0  0  0  0  0  0  0  0  0  0  0
  -11.3109   28.8001   -3.4740 O   0  0  0  0  0  0  0  0  0  0  0  0
  -10.3835   26.8276   -2.4426 C   0  0  0  0  0  0  0  0  0  0  0  0
   -9.5021   26.7371   -1.2679 O   0  0  0  0  0  0  0  0  0  0  0  0
  -11.9228   28.8688   -2.7245 H   0  0  0  0  0  0  0  0  0  0  0  0
   -7.4990   27.8092   -1.0927 N   0  0  0  0  0  0  0  0  0  0  0  0
   -6.6571   28.4870   -0.2237 C   0  0  0  0  0  0  0  0  0  0  0  0
   -7.1078   29.2650    0.6184 O   0  0  0  0  0  0  0  0  0  0  0  0
   -5.2733   28.2857   -0.3114 N   0  0  0  0  0  0  0  0  0  0  0  0
   -4.7618   27.4002   -1.2490 C   0  0  0  0  0  0  0  0  0  0  0  0
   -3.5442   27.2523   -1.2815 O   0  0  0  0  0  0  0  0  0  0  0  0
   -5.5994   26.7181   -2.1374 C   0  0  0  0  0  0  0  0  0  0  0  0
   -6.9881   26.9238   -2.0521 C   0  0  0  0  0  0  0  0  0  0  0  0
   -4.6651   28.7718    0.2911 H   0  0  0  0  0  0  0  0  0  0  0  0
  -10.1983   25.6813   -3.5286 C   0  0  0  0  0  0  0  0  0  0  0  0
  -10.2541   26.2266   -4.9271 N   0  0  0  0  0  0  0  0  0  0  0  0
  -11.1717   26.0133   -5.3182 H   0  0  0  0  0  0  0  0  0  0  0  0
   -9.2140   25.6669   -5.8386 C   0  0  0  0  0  0  0  0  0  0  0  0
   -7.8732   26.4342   -5.8263 C   0  0  0  0  0  0  0  0  0  0  0  0
   -6.6808   25.7118   -5.8072 C   0  0  0  0  0  0  0  0  0  0  0  0
   -5.4491   26.3575   -5.7990 C   0  0  0  0  0  0  0  0  0  0  0  0
   -5.4087   27.7426   -5.8304 C   0  0  0  0  0  0  0  0  0  0  0  0
   -6.5926   28.4661   -5.8604 C   0  0  0  0  0  0  0  0  0  0  0  0
   -7.8223   27.8185   -5.8618 C   0  0  0  0  0  0  0  0  0  0  0  0
   -9.6534   25.6827   -7.2974 C   0  0  0  0  0  0  0  0  0  0  0  0
  -10.0334   24.4821   -7.8979 C   0  0  0  0  0  0  0  0  0  0  0  0
  -10.4302   24.4938   -9.2348 C   0  0  0  0  0  0  0  0  0  0  0  0
  -10.4312   25.6785   -9.9662 C   0  0  0  0  0  0  0  0  0  0  0  0
  -10.0322   26.8603   -9.3682 C   0  0  0  0  0  0  0  0  0  0  0  0
   -9.6431   26.8745   -8.0352 C   0  0  0  0  0  0  0  0  0  0  0  0
  9  8  1  0  0  0
 15  8  1  0  0  0
  8  1  1  0  0  0
 11  9  1  0  0  0
 10  9  2  0  0  0
 12 11  1  0  0  0
 13 12  2  0  0  0
 12 14  1  0  0  0
 14 15  2  0  0  0
  6  1  1  0  0  0
  1  2  1  0  0  0
 21 20  1  0  0  0
 27 20  1  0  0  0
 20 18  1  0  0  0
 22 21  2  0  0  0
 26 21  1  0  0  0
 23 22  1  0  0  0
  3  2  1  0  0  0
 24 23  2  0  0  0
 24 25  1  0  0  0
 25 26  2  0  0  0
 28 27  2  0  0  0
 27 32  1  0  0  0
 29 28  1  0  0  0
 29 30  2  0  0  0
 30 31  1  0  0  0
 31 32  2  0  0  0
  5  3  1  0  0  0
  3  4  1  0  0  0
 17  5  1  0  0  0
  6  5  1  0  0  0
 18 17  1  0  0  0
 11 16  1  0  0  0
  4  7  1  0  0  0
 18 19  1  0  0  0
M  END
> <minimizedAffinity>
-7.58873

$$$$
3T64_DU3_A_201


 32 35  0  0  0  0  0  0  0  0999 V2000
   -7.4165   25.8896    0.1533 C   0  0  0  0  0  0  0  0  0  0  0  0
   -6.8911   26.6402    1.3580 C   0  0  0  0  0  0  0  0  0  0  0  0
   -7.5486   28.0042    1.2783 C   0  0  0  0  0  0  0  0  0  0  0  0
   -7.9064   28.4090    2.6086 O   0  0  0  0  0  0  0  0  0  0  0  0
   -8.8156   27.8291    0.4518 C   0  0  0  0  0  0  0  0  0  0  0  0
   -8.5622   26.6247   -0.3546 O   0  0  0  0  0  0  0  0  0  0  0  0
   -8.4929   27.7441    3.0021 H   0  0  0  0  0  0  0  0  0  0  0  0
   -6.4889   25.9431   -1.0099 N   0  0  0  0  0  0  0  0  0  0  0  0
   -6.5437   24.8794   -1.8981 C   0  0  0  0  0  0  0  0  0  0  0  0
   -7.3015   23.9281   -1.7025 O   0  0  0  0  0  0  0  0  0  0  0  0
   -5.7193   24.8876   -3.0310 N   0  0  0  0  0  0  0  0  0  0  0  0
   -4.8741   25.9632   -3.2628 C   0  0  0  0  0  0  0  0  0  0  0  0
   -4.1777   25.9274   -4.2724 O   0  0  0  0  0  0  0  0  0  0  0  0
   -4.8024   27.0371   -2.3698 C   0  0  0  0  0  0  0  0  0  0  0  0
   -5.6268   27.0264   -1.2304 C   0  0  0  0  0  0  0  0  0  0  0  0
   -5.7397   24.1316   -3.6613 H   0  0  0  0  0  0  0  0  0  0  0  0
   -9.1477   29.1480   -0.3714 C   0  0  0  0  0  0  0  0  0  0  0  0
   -8.6124   29.0777   -1.7731 N   0  0  0  0  0  0  0  0  0  0  0  0
   -8.3694   30.0223   -2.0714 H   0  0  0  0  0  0  0  0  0  0  0  0
   -9.5728   28.5061   -2.7615 C   0  0  0  0  0  0  0  0  0  0  0  0
   -8.9235   27.6095   -3.8391 C   0  0  0  0  0  0  0  0  0  0  0  0
   -7.9385   28.1500   -4.6647 C   0  0  0  0  0  0  0  0  0  0  0  0
   -7.3225   27.3817   -5.6467 C   0  0  0  0  0  0  0  0  0  0  0  0
   -7.6815   26.0509   -5.7921 C   0  0  0  0  0  0  0  0  0  0  0  0
   -8.6538   25.5053   -4.9657 C   0  0  0  0  0  0  0  0  0  0  0  0
   -9.2727   26.2769   -3.9894 C   0  0  0  0  0  0  0  0  0  0  0  0
  -10.3046   29.5859   -3.5488 C   0  0  0  0  0  0  0  0  0  0  0  0
  -11.3902   29.2184   -4.3443 C   0  0  0  0  0  0  0  0  0  0  0  0
  -12.0575   30.2045   -5.0704 C   0  0  0  0  0  0  0  0  0  0  0  0
  -11.6392   31.5315   -5.0188 C   0  0  0  0  0  0  0  0  0  0  0  0
  -10.5484   31.8828   -4.2440 C   0  0  0  0  0  0  0  0  0  0  0  0
   -9.8751   30.9194   -3.5043 C   0  0  0  0  0  0  0  0  0  0  0  0
  9  8  1  0  0  0
 15  8  1  0  0  0
  8  1  1  0  0  0
 11  9  1  0  0  0
 10  9  2  0  0  0
 12 11  1  0  0  0
 13 12  2  0  0  0
 12 14  1  0  0  0
 14 15  2  0  0  0
  6  1  1  0  0  0
  1  2  1  0  0  0
 21 20  1  0  0  0
 27 20  1  0  0  0
 20 18  1  0  0  0
 22 21  2  0  0  0
 26 21  1  0  0  0
 23 22  1  0  0  0
  3  2  1  0  0  0
 24 23  2  0  0  0
 24 25  1  0  0  0
 25 26  2  0  0  0
 28 27  2  0  0  0
 27 32  1  0  0  0
 29 28  1  0  0  0
 29 30  2  0  0  0
 30 31  1  0  0  0
 31 32  2  0  0  0
  5  3  1  0  0  0
  3  4  1  0  0  0
 17  5  1  0  0  0
  6  5  1  0  0  0
 18 17  1  0  0  0
 11 16  1  0  0  0
  4  7  1  0  0  0
 18 19  1  0  0  0
M  END
> <minimizedAffinity>
-7.20099

$$$$
3T64_DU3_A_201


 32 35  0  0  0  0  0  0  0  0999 V2000
   -8.8508   27.6801   -5.5553 C   0  0  0  0  0  0  0  0  0  0  0  0
   -7.3383   27.7350   -5.5599 C   0  0  0  0  0  0  0  0  0  0  0  0
   -6.9087   26.5855   -4.6693 C   0  0  0  0  0  0  0  0  0  0  0  0
   -5.7520   25.9700   -5.2565 O   0  0  0  0  0  0  0  0  0  0  0  0
   -8.0577   25.5861   -4.6640 C   0  0  0  0  0  0  0  0  0  0  0  0
   -9.2399   26.3865   -5.0201 O   0  0  0  0  0  0  0  0  0  0  0  0
   -5.9643   25.6747   -6.1558 H   0  0  0  0  0  0  0  0  0  0  0  0
   -9.4592   28.6081   -4.5628 N   0  0  0  0  0  0  0  0  0  0  0  0
   -9.0693   29.9371   -4.6341 C   0  0  0  0  0  0  0  0  0  0  0  0
   -8.2339   30.3097   -5.4593 O   0  0  0  0  0  0  0  0  0  0  0  0
   -9.6319   30.8662   -3.7490 N   0  0  0  0  0  0  0  0  0  0  0  0
  -10.5832   30.4539   -2.8270 C   0  0  0  0  0  0  0  0  0  0  0  0
  -11.0519   31.3062   -2.0790 O   0  0  0  0  0  0  0  0  0  0  0  0
  -10.9775   29.1150   -2.7386 C   0  0  0  0  0  0  0  0  0  0  0  0
  -10.4092   28.1819   -3.6242 C   0  0  0  0  0  0  0  0  0  0  0  0
   -9.3527   31.8097   -3.7812 H   0  0  0  0  0  0  0  0  0  0  0  0
   -8.1421   24.8198   -3.2736 C   0  0  0  0  0  0  0  0  0  0  0  0
   -8.4728   25.7530   -2.1440 N   0  0  0  0  0  0  0  0  0  0  0  0
   -8.3746   26.7110   -2.4802 H   0  0  0  0  0  0  0  0  0  0  0  0
   -7.6023   25.5855   -0.9439 C   0  0  0  0  0  0  0  0  0  0  0  0
   -7.9041   26.5704    0.2074 C   0  0  0  0  0  0  0  0  0  0  0  0
   -8.8860   27.5434    0.0249 C   0  0  0  0  0  0  0  0  0  0  0  0
   -9.1956   28.4501    1.0330 C   0  0  0  0  0  0  0  0  0  0  0  0
   -8.5292   28.3705    2.2457 C   0  0  0  0  0  0  0  0  0  0  0  0
   -7.5586   27.3970    2.4361 C   0  0  0  0  0  0  0  0  0  0  0  0
   -7.2464   26.4963    1.4248 C   0  0  0  0  0  0  0  0  0  0  0  0
   -6.1286   25.8053   -1.2624 C   0  0  0  0  0  0  0  0  0  0  0  0
   -5.3357   24.6997   -1.5711 C   0  0  0  0  0  0  0  0  0  0  0  0
   -3.9852   24.8983   -1.8569 C   0  0  0  0  0  0  0  0  0  0  0  0
   -3.4302   26.1747   -1.8184 C   0  0  0  0  0  0  0  0  0  0  0  0
   -4.2196   27.2621   -1.4902 C   0  0  0  0  0  0  0  0  0  0  0  0
   -5.5693   27.0895   -1.2121 C   0  0  0  0  0  0  0  0  0  0  0  0
  9  8  1  0  0  0
 15  8  1  0  0  0
  8  1  1  0  0  0
 11  9  1  0  0  0
 10  9  2  0  0  0
 12 11  1  0  0  0
 13 12  2  0  0  0
 12 14  1  0  0  0
 14 15  2  0  0  0
  6  1  1  0  0  0
  1  2  1  0  0  0
 21 20  1  0  0  0
 27 20  1  0  0  0
 20 18  1  0  0  0
 22 21  2  0  0  0
 26 21  1  0  0  0
 23 22  1  0  0  0
  3  2  1  0  0  0
 24 23  2  0  0  0
 24 25  1  0  0  0
 25 26  2  0  0  0
 28 27  2  0  0  0
 27 32  1  0  0  0
 29 28  1  0  0  0
 29 30  2  0  0  0
 30 31  1  0  0  0
 31 32  2  0  0  0
  5  3  1  0  0  0
  3  4  1  0  0  0
 17  5  1  0  0  0
  6  5  1  0  0  0
 18 17  1  0  0  0
 11 16  1  0  0  0
  4  7  1  0  0  0
 18 19  1  0  0  0
M  END
> <minimizedAffinity>
-7.19539

$$$$
3T64_DU3_A_201


 32 35  0  0  0  0  0  0  0  0999 V2000
   -7.2506   25.7773    0.1501 C   0  0  0  0  0  0  0  0  0  0  0  0
   -7.0792   26.6182    1.3969 C   0  0  0  0  0  0  0  0  0  0  0  0
   -7.8474   27.8935    1.1094 C   0  0  0  0  0  0  0  0  0  0  0  0
   -8.5231   28.2918    2.3120 O   0  0  0  0  0  0  0  0  0  0  0  0
   -8.8816   27.5485    0.0463 C   0  0  0  0  0  0  0  0  0  0  0  0
   -8.3333   26.3592   -0.6245 O   0  0  0  0  0  0  0  0  0  0  0  0
   -9.1052   27.5747    2.6085 H   0  0  0  0  0  0  0  0  0  0  0  0
   -6.1068   25.9051   -0.7941 N   0  0  0  0  0  0  0  0  0  0  0  0
   -5.9025   24.8491   -1.6697 C   0  0  0  0  0  0  0  0  0  0  0  0
   -6.6177   23.8468   -1.6323 O   0  0  0  0  0  0  0  0  0  0  0  0
   -4.8625   24.9244   -2.6056 N   0  0  0  0  0  0  0  0  0  0  0  0
   -4.0630   26.0569   -2.6606 C   0  0  0  0  0  0  0  0  0  0  0  0
   -3.1707   26.0784   -3.5025 O   0  0  0  0  0  0  0  0  0  0  0  0
   -4.2525   27.1242   -1.7769 C   0  0  0  0  0  0  0  0  0  0  0  0
   -5.2936   27.0464   -0.8346 C   0  0  0  0  0  0  0  0  0  0  0  0
   -4.6995   24.1750   -3.2230 H   0  0  0  0  0  0  0  0  0  0  0  0
   -9.1697   28.7956   -0.8966 C   0  0  0  0  0  0  0  0  0  0  0  0
   -8.5412   28.6258   -2.2503 N   0  0  0  0  0  0  0  0  0  0  0  0
   -7.9507   29.4370   -2.4338 H   0  0  0  0  0  0  0  0  0  0  0  0
   -9.5252   28.5002   -3.3647 C   0  0  0  0  0  0  0  0  0  0  0  0
  -10.9225   28.0044   -2.9310 C   0  0  0  0  0  0  0  0  0  0  0  0
  -11.0999   26.6526   -2.6393 C   0  0  0  0  0  0  0  0  0  0  0  0
  -12.3379   26.1593   -2.2415 C   0  0  0  0  0  0  0  0  0  0  0  0
  -13.4073   27.0320   -2.1147 C   0  0  0  0  0  0  0  0  0  0  0  0
  -13.2333   28.3803   -2.3936 C   0  0  0  0  0  0  0  0  0  0  0  0
  -11.9967   28.8695   -2.7973 C   0  0  0  0  0  0  0  0  0  0  0  0
   -9.0747   27.5030   -4.4251 C   0  0  0  0  0  0  0  0  0  0  0  0
   -7.9797   26.6822   -4.1536 C   0  0  0  0  0  0  0  0  0  0  0  0
   -7.5623   25.7731   -5.1254 C   0  0  0  0  0  0  0  0  0  0  0  0
   -8.2136   25.6955   -6.3535 C   0  0  0  0  0  0  0  0  0  0  0  0
   -9.2849   26.5286   -6.6216 C   0  0  0  0  0  0  0  0  0  0  0  0
   -9.7246   27.4342   -5.6650 C   0  0  0  0  0  0  0  0  0  0  0  0
  9  8  1  0  0  0
 15  8  1  0  0  0
  8  1  1  0  0  0
 11  9  1  0  0  0
 10  9  2  0  0  0
 12 11  1  0  0  0
 13 12  2  0  0  0
 12 14  1  0  0  0
 14 15  2  0  0  0
  6  1  1  0  0  0
  1  2  1  0  0  0
 21 20  1  0  0  0
 27 20  1  0  0  0
 20 18  1  0  0  0
 22 21  2  0  0  0
 26 21  1  0  0  0
 23 22  1  0  0  0
  3  2  1  0  0  0
 24 23  2  0  0  0
 24 25  1  0  0  0
 25 26  2  0  0  0
 28 27  2  0  0  0
 27 32  1  0  0  0
 29 28  1  0  0  0
 29 30  2  0  0  0
 30 31  1  0  0  0
 31 32  2  0  0  0
  5  3  1  0  0  0
  3  4  1  0  0  0
 17  5  1  0  0  0
  6  5  1  0  0  0
 18 17  1  0  0  0
 11 16  1  0  0  0
  4  7  1  0  0  0
 18 19  1  0  0  0
M  END
> <minimizedAffinity>
-7.18388

$$$$
3T64_DU3_A_201


 32 35  0  0  0  0  0  0  0  0999 V2000
  -13.1201   24.8475   -5.8444 C   0  0  0  0  0  0  0  0  0  0  0  0
  -12.6870   23.4945   -5.3223 C   0  0  0  0  0  0  0  0  0  0  0  0
  -12.1220   23.7768   -3.9438 C   0  0  0  0  0  0  0  0  0  0  0  0
  -12.5278   22.7156   -3.0659 O   0  0  0  0  0  0  0  0  0  0  0  0
  -12.7514   25.0816   -3.4744 C   0  0  0  0  0  0  0  0  0  0  0  0
  -13.1504   25.7625   -4.7162 O   0  0  0  0  0  0  0  0  0  0  0  0
  -13.4958   22.6552   -3.0576 H   0  0  0  0  0  0  0  0  0  0  0  0
  -12.0958   25.4845   -6.7170 N   0  0  0  0  0  0  0  0  0  0  0  0
  -12.5523   26.4298   -7.6234 C   0  0  0  0  0  0  0  0  0  0  0  0
  -13.7522   26.6929   -7.7151 O   0  0  0  0  0  0  0  0  0  0  0  0
  -11.6326   27.0892   -8.4494 N   0  0  0  0  0  0  0  0  0  0  0  0
  -10.2788   26.8062   -8.3403 C   0  0  0  0  0  0  0  0  0  0  0  0
   -9.5125   27.4155   -9.0800 O   0  0  0  0  0  0  0  0  0  0  0  0
   -9.8069   25.8482   -7.4373 C   0  0  0  0  0  0  0  0  0  0  0  0
  -10.7307   25.1831   -6.6114 C   0  0  0  0  0  0  0  0  0  0  0  0
  -11.9465   27.7522   -9.1061 H   0  0  0  0  0  0  0  0  0  0  0  0
  -11.7547   25.8923   -2.5379 C   0  0  0  0  0  0  0  0  0  0  0  0
  -10.6822   26.5813   -3.3324 N   0  0  0  0  0  0  0  0  0  0  0  0
  -10.9162   26.5035   -4.3221 H   0  0  0  0  0  0  0  0  0  0  0  0
   -9.3169   26.0156   -3.1271 C   0  0  0  0  0  0  0  0  0  0  0  0
   -8.7021   26.3158   -1.7421 C   0  0  0  0  0  0  0  0  0  0  0  0
   -7.6866   25.4910   -1.2600 C   0  0  0  0  0  0  0  0  0  0  0  0
   -7.0996   25.7228   -0.0207 C   0  0  0  0  0  0  0  0  0  0  0  0
   -7.5195   26.8045    0.7375 C   0  0  0  0  0  0  0  0  0  0  0  0
   -8.5225   27.6348    0.2574 C   0  0  0  0  0  0  0  0  0  0  0  0
   -9.1120   27.3971   -0.9785 C   0  0  0  0  0  0  0  0  0  0  0  0
   -8.3059   26.5668   -4.1249 C   0  0  0  0  0  0  0  0  0  0  0  0
   -7.3086   25.7195   -4.6085 C   0  0  0  0  0  0  0  0  0  0  0  0
   -6.3786   26.2239   -5.5173 C   0  0  0  0  0  0  0  0  0  0  0  0
   -6.4308   27.5546   -5.9236 C   0  0  0  0  0  0  0  0  0  0  0  0
   -7.4104   28.3927   -5.4221 C   0  0  0  0  0  0  0  0  0  0  0  0
   -8.3532   27.9095   -4.5242 C   0  0  0  0  0  0  0  0  0  0  0  0
  9  8  1  0  0  0
 15  8  1  0  0  0
  8  1  1  0  0  0
 11  9  1  0  0  0
 10  9  2  0  0  0
 12 11  1  0  0  0
 13 12  2  0  0  0
 12 14  1  0  0  0
 14 15  2  0  0  0
  6  1  1  0  0  0
  1  2  1  0  0  0
 21 20  1  0  0  0
 27 20  1  0  0  0
 20 18  1  0  0  0
 22 21  2  0  0  0
 26 21  1  0  0  0
 23 22  1  0  0  0
  3  2  1  0  0  0
 24 23  2  0  0  0
 24 25  1  0  0  0
 25 26  2  0  0  0
 28 27  2  0  0  0
 27 32  1  0  0  0
 29 28  1  0  0  0
 29 30  2  0  0  0
 30 31  1  0  0  0
 31 32  2  0  0  0
  5  3  1  0  0  0
  3  4  1  0  0  0
 17  5  1  0  0  0
  6  5  1  0  0  0
 18 17  1  0  0  0
 11 16  1  0  0  0
  4  7  1  0  0  0
 18 19  1  0  0  0
M  END
> <minimizedAffinity>
-6.89114

$$$$
