5LLE_V51_A_302


 28 31  0  0  0  0  0  0  0  0999 V2000
   -6.6922    3.7822   16.5294 F   0  0  0  0  0  0  0  0  0  0  0  0
   -5.8921    3.2174   15.5968 C   0  0  0  0  0  0  0  0  0  0  0  0
   -5.4440    1.9423   15.7962 C   0  0  0  0  0  0  0  0  0  0  0  0
   -4.6289    1.3661   14.7975 C   0  0  0  0  0  0  0  0  0  0  0  0
   -4.1684    0.1021   14.8358 F   0  0  0  0  0  0  0  0  0  0  0  0
   -4.2081    2.1040   13.6766 C   0  0  0  0  0  0  0  0  0  0  0  0
   -3.3893    1.4522   12.8162 F   0  0  0  0  0  0  0  0  0  0  0  0
   -5.4613    3.9575   14.4989 C   0  0  0  0  0  0  0  0  0  0  0  0
   -5.9036    5.1993   14.4071 F   0  0  0  0  0  0  0  0  0  0  0  0
   -4.6278    3.4484   13.5029 C   0  0  0  0  0  0  0  0  0  0  0  0
   -6.0433    1.0417   17.2389 S   0  0  0  0  0  0  0  0  0  0  0  0
   -5.5184   -0.3771   17.3537 O   0  0  0  0  0  0  0  0  0  0  0  0
   -7.7733    0.9932   17.0007 N   0  0  0  0  0  0  0  0  0  0  0  0
   -5.4890    1.8050   18.4570 O   0  0  0  0  0  0  0  0  0  0  0  0
   -8.1326    1.9446   16.9227 H   0  0  0  0  0  0  0  0  0  0  0  0
   -8.2129    0.5278   17.7948 H   0  0  0  0  0  0  0  0  0  0  0  0
   -4.2505    4.3031   12.3914 N   0  0  0  0  0  0  0  0  0  0  0  0
   -4.7366    4.2034   11.5411 H   0  0  0  0  0  0  0  0  0  0  0  0
   -3.1850    5.3062   12.4677 C   0  0  0  0  0  0  0  0  0  0  0  0
   -3.7453    6.7475   12.3080 C   0  0  0  0  0  0  0  0  0  0  0  0
   -2.1724    4.9898   11.3183 C   0  0  0  0  0  0  0  0  0  0  0  0
   -2.4075    5.2905   13.8125 C   0  0  0  0  0  0  0  0  0  0  0  0
   -1.2299    6.3183   13.7534 C   0  0  0  0  0  0  0  0  0  0  0  0
   -0.2441    6.0122   12.5871 C   0  0  0  0  0  0  0  0  0  0  0  0
   -1.0093    6.0398   11.2554 C   0  0  0  0  0  0  0  0  0  0  0  0
   -1.7830    7.7431   13.5333 C   0  0  0  0  0  0  0  0  0  0  0  0
   -2.5938    7.7931   12.2312 C   0  0  0  0  0  0  0  0  0  0  0  0
   -1.6050    7.4569   11.0714 C   0  0  0  0  0  0  0  0  0  0  0  0
 24 25  1  0  0  0
 24 23  1  0  0  0
 21 25  1  0  0  0
 21 19  1  0  0  0
 25 28  1  0  0  0
  7  6  1  0  0  0
 22 23  1  0  0  0
 22 19  1  0  0  0
 17 19  1  0  0  0
 17 10  1  0  0  0
 23 26  1  0  0  0
 19 20  1  0  0  0
 28 27  1  0  0  0
  6 10  2  0  0  0
  6  4  1  0  0  0
 10  8  1  0  0  0
 26 27  1  0  0  0
 20 27  1  0  0  0
  5  4  1  0  0  0
  4  3  2  0  0  0
  8  9  1  0  0  0
  8  2  2  0  0  0
  3  2  1  0  0  0
  3 11  1  0  0  0
  2  1  1  0  0  0
 13 11  1  0  0  0
 11 14  2  0  0  0
 11 12  2  0  0  0
 13 15  1  0  0  0
 13 16  1  0  0  0
 17 18  1  0  0  0
M  END
> <minimizedAffinity>
-8.12029

$$$$
5LLE_V51_A_302


 28 31  0  0  0  0  0  0  0  0999 V2000
   -6.8734    3.7654   16.7319 F   0  0  0  0  0  0  0  0  0  0  0  0
   -6.0417    3.3880   15.7345 C   0  0  0  0  0  0  0  0  0  0  0  0
   -5.4906    2.1385   15.7719 C   0  0  0  0  0  0  0  0  0  0  0  0
   -4.6439    1.7593   14.7074 C   0  0  0  0  0  0  0  0  0  0  0  0
   -4.0831    0.5418   14.5862 F   0  0  0  0  0  0  0  0  0  0  0  0
   -4.2968    2.6628   13.6870 C   0  0  0  0  0  0  0  0  0  0  0  0
   -3.4388    2.1918   12.7503 F   0  0  0  0  0  0  0  0  0  0  0  0
   -5.6847    4.2917   14.7373 C   0  0  0  0  0  0  0  0  0  0  0  0
   -6.2262    5.4953   14.8025 F   0  0  0  0  0  0  0  0  0  0  0  0
   -4.8250    3.9799   13.6838 C   0  0  0  0  0  0  0  0  0  0  0  0
   -5.9986    1.0194   17.0914 S   0  0  0  0  0  0  0  0  0  0  0  0
   -5.4678   -0.3949   16.9518 O   0  0  0  0  0  0  0  0  0  0  0  0
   -7.7401    0.9919   16.9560 N   0  0  0  0  0  0  0  0  0  0  0  0
   -5.3690    1.5900   18.3767 O   0  0  0  0  0  0  0  0  0  0  0  0
   -8.1034    1.9404   17.0491 H   0  0  0  0  0  0  0  0  0  0  0  0
   -8.1293    0.4049   17.6938 H   0  0  0  0  0  0  0  0  0  0  0  0
   -4.5307    4.9943   12.6875 N   0  0  0  0  0  0  0  0  0  0  0  0
   -5.2055    5.1759   11.9941 H   0  0  0  0  0  0  0  0  0  0  0  0
   -3.2828    5.7621   12.6589 C   0  0  0  0  0  0  0  0  0  0  0  0
   -2.6837    5.9309   14.0834 C   0  0  0  0  0  0  0  0  0  0  0  0
   -3.6175    7.1610   12.0445 C   0  0  0  0  0  0  0  0  0  0  0  0
   -2.1683    5.1106   11.7949 C   0  0  0  0  0  0  0  0  0  0  0  0
   -0.9219    6.0541   11.7422 C   0  0  0  0  0  0  0  0  0  0  0  0
   -1.2723    7.4544   11.1570 C   0  0  0  0  0  0  0  0  0  0  0  0
   -2.3655    8.1050   12.0179 C   0  0  0  0  0  0  0  0  0  0  0  0
   -0.3632    6.2712   13.1654 C   0  0  0  0  0  0  0  0  0  0  0  0
   -1.4480    6.8786   14.0651 C   0  0  0  0  0  0  0  0  0  0  0  0
   -1.8137    8.2679   13.4552 C   0  0  0  0  0  0  0  0  0  0  0  0
 24 25  1  0  0  0
 24 23  1  0  0  0
 21 25  1  0  0  0
 21 19  1  0  0  0
 25 28  1  0  0  0
  7  6  1  0  0  0
 22 23  1  0  0  0
 22 19  1  0  0  0
 17 19  1  0  0  0
 17 10  1  0  0  0
 23 26  1  0  0  0
 19 20  1  0  0  0
 28 27  1  0  0  0
  6 10  2  0  0  0
  6  4  1  0  0  0
 10  8  1  0  0  0
 26 27  1  0  0  0
 20 27  1  0  0  0
  5  4  1  0  0  0
  4  3  2  0  0  0
  8  9  1  0  0  0
  8  2  2  0  0  0
  3  2  1  0  0  0
  3 11  1  0  0  0
  2  1  1  0  0  0
 13 11  1  0  0  0
 11 14  2  0  0  0
 11 12  2  0  0  0
 13 15  1  0  0  0
 13 16  1  0  0  0
 17 18  1  0  0  0
M  END
> <minimizedAffinity>
-8.09783

$$$$
5LLE_V51_A_302


 28 31  0  0  0  0  0  0  0  0999 V2000
   -4.2623    0.1924   14.9135 F   0  0  0  0  0  0  0  0  0  0  0  0
   -4.6451    1.4834   14.7878 C   0  0  0  0  0  0  0  0  0  0  0  0
   -5.5222    2.0033   15.6970 C   0  0  0  0  0  0  0  0  0  0  0  0
   -5.8888    3.3598   15.5582 C   0  0  0  0  0  0  0  0  0  0  0  0
   -6.6945    4.0151   16.4143 F   0  0  0  0  0  0  0  0  0  0  0  0
   -5.4467    4.1327   14.4696 C   0  0  0  0  0  0  0  0  0  0  0  0
   -5.9080    5.4058   14.4254 F   0  0  0  0  0  0  0  0  0  0  0  0
   -4.2214    2.2391   13.6979 C   0  0  0  0  0  0  0  0  0  0  0  0
   -3.4119    1.6445   12.8393 F   0  0  0  0  0  0  0  0  0  0  0  0
   -4.5823    3.5712   13.4942 C   0  0  0  0  0  0  0  0  0  0  0  0
   -6.0284    0.9687   17.0844 S   0  0  0  0  0  0  0  0  0  0  0  0
   -5.5549   -0.4700   16.9979 O   0  0  0  0  0  0  0  0  0  0  0  0
   -7.7732    1.0016   17.0034 N   0  0  0  0  0  0  0  0  0  0  0  0
   -5.3372    1.5752   18.3206 O   0  0  0  0  0  0  0  0  0  0  0  0
   -8.0981    1.9668   17.0611 H   0  0  0  0  0  0  0  0  0  0  0  0
   -8.1598    0.4657   17.7805 H   0  0  0  0  0  0  0  0  0  0  0  0
   -4.0712    4.2722   12.3300 N   0  0  0  0  0  0  0  0  0  0  0  0
   -4.4046    4.0065   11.4426 H   0  0  0  0  0  0  0  0  0  0  0  0
   -3.0855    5.3539   12.4052 C   0  0  0  0  0  0  0  0  0  0  0  0
   -3.7445    6.7435   12.1783 C   0  0  0  0  0  0  0  0  0  0  0  0
   -2.0139    5.0775   11.2999 C   0  0  0  0  0  0  0  0  0  0  0  0
   -2.3552    5.4394   13.7736 C   0  0  0  0  0  0  0  0  0  0  0  0
   -1.2551    6.5498   13.7164 C   0  0  0  0  0  0  0  0  0  0  0  0
   -0.2103    6.2810   12.5930 C   0  0  0  0  0  0  0  0  0  0  0  0
   -0.9297    6.2088   11.2377 C   0  0  0  0  0  0  0  0  0  0  0  0
   -1.9037    7.9216   13.4299 C   0  0  0  0  0  0  0  0  0  0  0  0
   -2.6711    7.8692   12.1020 C   0  0  0  0  0  0  0  0  0  0  0  0
   -1.6214    7.5708   10.9862 C   0  0  0  0  0  0  0  0  0  0  0  0
 24 25  1  0  0  0
 24 23  1  0  0  0
 21 25  1  0  0  0
 21 19  1  0  0  0
 25 28  1  0  0  0
  7  6  1  0  0  0
 22 23  1  0  0  0
 22 19  1  0  0  0
 17 19  1  0  0  0
 17 10  1  0  0  0
 23 26  1  0  0  0
 19 20  1  0  0  0
 28 27  1  0  0  0
  6 10  2  0  0  0
  6  4  1  0  0  0
 10  8  1  0  0  0
 26 27  1  0  0  0
 20 27  1  0  0  0
  5  4  1  0  0  0
  4  3  2  0  0  0
  8  9  1  0  0  0
  8  2  2  0  0  0
  3  2  1  0  0  0
  3 11  1  0  0  0
  2  1  1  0  0  0
 13 11  1  0  0  0
 11 14  2  0  0  0
 11 12  2  0  0  0
 13 15  1  0  0  0
 13 16  1  0  0  0
 17 18  1  0  0  0
M  END
> <minimizedAffinity>
-7.92545

$$$$
5LLE_V51_A_302


 28 31  0  0  0  0  0  0  0  0999 V2000
   -4.0904    3.9925   15.0825 F   0  0  0  0  0  0  0  0  0  0  0  0
   -4.0542    3.2567   13.9483 C   0  0  0  0  0  0  0  0  0  0  0  0
   -4.1809    1.8994   14.0378 C   0  0  0  0  0  0  0  0  0  0  0  0
   -4.1632    1.1551   12.8379 C   0  0  0  0  0  0  0  0  0  0  0  0
   -4.3370   -0.1779   12.7743 F   0  0  0  0  0  0  0  0  0  0  0  0
   -3.9283    1.7702   11.5952 C   0  0  0  0  0  0  0  0  0  0  0  0
   -3.8879    0.9399   10.5255 F   0  0  0  0  0  0  0  0  0  0  0  0
   -3.8014    3.8668   12.7225 C   0  0  0  0  0  0  0  0  0  0  0  0
   -3.6434    5.1787   12.7314 F   0  0  0  0  0  0  0  0  0  0  0  0
   -3.7381    3.1742   11.5133 C   0  0  0  0  0  0  0  0  0  0  0  0
   -4.5080    1.1764   15.6569 S   0  0  0  0  0  0  0  0  0  0  0  0
   -4.7092   -0.3272   15.6421 O   0  0  0  0  0  0  0  0  0  0  0  0
   -5.9944    1.9468   16.1557 N   0  0  0  0  0  0  0  0  0  0  0  0
   -3.2332    1.4313   16.4839 O   0  0  0  0  0  0  0  0  0  0  0  0
   -5.8656    2.9586   16.1678 H   0  0  0  0  0  0  0  0  0  0  0  0
   -6.2472    1.6251   17.0901 H   0  0  0  0  0  0  0  0  0  0  0  0
   -3.4830    3.9114   10.2887 N   0  0  0  0  0  0  0  0  0  0  0  0
   -4.2549    4.2291    9.7667 H   0  0  0  0  0  0  0  0  0  0  0  0
   -2.1380    4.2077    9.7882 C   0  0  0  0  0  0  0  0  0  0  0  0
   -2.1555    4.5477    8.2713 C   0  0  0  0  0  0  0  0  0  0  0  0
   -1.2609    2.9390   10.0473 C   0  0  0  0  0  0  0  0  0  0  0  0
   -1.4606    5.4142   10.4944 C   0  0  0  0  0  0  0  0  0  0  0  0
    0.0026    5.5810    9.9671 C   0  0  0  0  0  0  0  0  0  0  0  0
    0.8588    4.3014   10.2027 C   0  0  0  0  0  0  0  0  0  0  0  0
    0.1966    3.1102    9.4943 C   0  0  0  0  0  0  0  0  0  0  0  0
   -0.0118    5.8579    8.4480 C   0  0  0  0  0  0  0  0  0  0  0  0
   -0.7100    4.7053    7.7137 C   0  0  0  0  0  0  0  0  0  0  0  0
    0.1384    3.4224    7.9790 C   0  0  0  0  0  0  0  0  0  0  0  0
 24 25  1  0  0  0
 24 23  1  0  0  0
 21 25  1  0  0  0
 21 19  1  0  0  0
 25 28  1  0  0  0
  7  6  1  0  0  0
 22 23  1  0  0  0
 22 19  1  0  0  0
 17 19  1  0  0  0
 17 10  1  0  0  0
 23 26  1  0  0  0
 19 20  1  0  0  0
 28 27  1  0  0  0
  6 10  2  0  0  0
  6  4  1  0  0  0
 10  8  1  0  0  0
 26 27  1  0  0  0
 20 27  1  0  0  0
  5  4  1  0  0  0
  4  3  2  0  0  0
  8  9  1  0  0  0
  8  2  2  0  0  0
  3  2  1  0  0  0
  3 11  1  0  0  0
  2  1  1  0  0  0
 13 11  1  0  0  0
 11 14  2  0  0  0
 11 12  2  0  0  0
 13 15  1  0  0  0
 13 16  1  0  0  0
 17 18  1  0  0  0
M  END
> <minimizedAffinity>
-7.67009

$$$$
5LLE_V51_A_302


 28 31  0  0  0  0  0  0  0  0999 V2000
   -3.3960    4.0859   15.6049 F   0  0  0  0  0  0  0  0  0  0  0  0
   -3.6306    3.8092   14.3021 C   0  0  0  0  0  0  0  0  0  0  0  0
   -4.0644    2.5597   13.9604 C   0  0  0  0  0  0  0  0  0  0  0  0
   -4.3245    2.3021   12.5966 C   0  0  0  0  0  0  0  0  0  0  0  0
   -4.8114    1.1382   12.1281 F   0  0  0  0  0  0  0  0  0  0  0  0
   -4.0585    3.2621   11.6039 C   0  0  0  0  0  0  0  0  0  0  0  0
   -4.3056    2.8751   10.3293 F   0  0  0  0  0  0  0  0  0  0  0  0
   -3.3469    4.7552   13.3205 C   0  0  0  0  0  0  0  0  0  0  0  0
   -2.8850    5.9222   13.7338 F   0  0  0  0  0  0  0  0  0  0  0  0
   -3.5515    4.5395   11.9576 C   0  0  0  0  0  0  0  0  0  0  0  0
   -4.4130    1.3847   15.2830 S   0  0  0  0  0  0  0  0  0  0  0  0
   -4.5758   -0.0505   14.8186 O   0  0  0  0  0  0  0  0  0  0  0  0
   -5.9303    1.9479   15.9406 N   0  0  0  0  0  0  0  0  0  0  0  0
   -3.1658    1.4049   16.1874 O   0  0  0  0  0  0  0  0  0  0  0  0
   -5.8274    2.9128   16.2549 H   0  0  0  0  0  0  0  0  0  0  0  0
   -6.1978    1.3600   16.7301 H   0  0  0  0  0  0  0  0  0  0  0  0
   -3.2356    5.6009   11.0185 N   0  0  0  0  0  0  0  0  0  0  0  0
   -2.3066    5.6828   10.7032 H   0  0  0  0  0  0  0  0  0  0  0  0
   -4.2258    6.5566   10.5150 C   0  0  0  0  0  0  0  0  0  0  0  0
   -5.5434    6.5005   11.3381 C   0  0  0  0  0  0  0  0  0  0  0  0
   -4.5056    6.1851    9.0216 C   0  0  0  0  0  0  0  0  0  0  0  0
   -3.7482    8.0340   10.5625 C   0  0  0  0  0  0  0  0  0  0  0  0
   -4.8269    8.9588    9.9084 C   0  0  0  0  0  0  0  0  0  0  0  0
   -5.1201    8.5616    8.4312 C   0  0  0  0  0  0  0  0  0  0  0  0
   -5.6045    7.1046    8.3842 C   0  0  0  0  0  0  0  0  0  0  0  0
   -6.1547    8.8563   10.6901 C   0  0  0  0  0  0  0  0  0  0  0  0
   -6.6428    7.4014   10.7016 C   0  0  0  0  0  0  0  0  0  0  0  0
   -6.9063    7.0026    9.2159 C   0  0  0  0  0  0  0  0  0  0  0  0
 24 25  1  0  0  0
 24 23  1  0  0  0
 21 25  1  0  0  0
 21 19  1  0  0  0
 25 28  1  0  0  0
  7  6  1  0  0  0
 22 23  1  0  0  0
 22 19  1  0  0  0
 17 19  1  0  0  0
 17 10  1  0  0  0
 23 26  1  0  0  0
 19 20  1  0  0  0
 28 27  1  0  0  0
  6 10  2  0  0  0
  6  4  1  0  0  0
 10  8  1  0  0  0
 26 27  1  0  0  0
 20 27  1  0  0  0
  5  4  1  0  0  0
  4  3  2  0  0  0
  8  9  1  0  0  0
  8  2  2  0  0  0
  3  2  1  0  0  0
  3 11  1  0  0  0
  2  1  1  0  0  0
 13 11  1  0  0  0
 11 14  2  0  0  0
 11 12  2  0  0  0
 13 15  1  0  0  0
 13 16  1  0  0  0
 17 18  1  0  0  0
M  END
> <minimizedAffinity>
-7.49780

$$$$
5LLE_V51_A_302


 28 31  0  0  0  0  0  0  0  0999 V2000
   -4.1087   -0.0501   13.0036 F   0  0  0  0  0  0  0  0  0  0  0  0
   -4.0387    1.2990   12.9401 C   0  0  0  0  0  0  0  0  0  0  0  0
   -4.2516    2.0252   14.0774 C   0  0  0  0  0  0  0  0  0  0  0  0
   -4.1503    3.4310   13.9907 C   0  0  0  0  0  0  0  0  0  0  0  0
   -4.2763    4.2628   15.0411 F   0  0  0  0  0  0  0  0  0  0  0  0
   -3.9323    4.0773   12.7608 C   0  0  0  0  0  0  0  0  0  0  0  0
   -3.9035    5.4311   12.8041 F   0  0  0  0  0  0  0  0  0  0  0  0
   -3.8428    1.9359   11.7175 C   0  0  0  0  0  0  0  0  0  0  0  0
   -3.6935    1.1595   10.6586 F   0  0  0  0  0  0  0  0  0  0  0  0
   -3.7705    3.3212   11.5708 C   0  0  0  0  0  0  0  0  0  0  0  0
   -4.4978    1.1352   15.6262 S   0  0  0  0  0  0  0  0  0  0  0  0
   -4.6894   -0.3611   15.4647 O   0  0  0  0  0  0  0  0  0  0  0  0
   -5.9644    1.8328   16.2697 N   0  0  0  0  0  0  0  0  0  0  0  0
   -3.1874    1.3179   16.4158 O   0  0  0  0  0  0  0  0  0  0  0  0
   -5.8420    2.8393   16.3807 H   0  0  0  0  0  0  0  0  0  0  0  0
   -6.1711    1.4134   17.1763 H   0  0  0  0  0  0  0  0  0  0  0  0
   -3.5480    3.8818   10.2501 N   0  0  0  0  0  0  0  0  0  0  0  0
   -4.3298    4.0383    9.6726 H   0  0  0  0  0  0  0  0  0  0  0  0
   -2.2219    4.2272    9.7308 C   0  0  0  0  0  0  0  0  0  0  0  0
   -1.5335    5.3155   10.6016 C   0  0  0  0  0  0  0  0  0  0  0  0
   -2.4218    4.7506    8.2705 C   0  0  0  0  0  0  0  0  0  0  0  0
   -1.2382    3.0259    9.6815 C   0  0  0  0  0  0  0  0  0  0  0  0
    0.1059    3.4712    9.0167 C   0  0  0  0  0  0  0  0  0  0  0  0
   -0.1081    4.0189    7.5744 C   0  0  0  0  0  0  0  0  0  0  0  0
   -1.0709    5.2147    7.6233 C   0  0  0  0  0  0  0  0  0  0  0  0
    0.7597    4.5956    9.8491 C   0  0  0  0  0  0  0  0  0  0  0  0
   -0.1979    5.7901    9.9565 C   0  0  0  0  0  0  0  0  0  0  0  0
   -0.4294    6.3141    8.5047 C   0  0  0  0  0  0  0  0  0  0  0  0
 24 25  1  0  0  0
 24 23  1  0  0  0
 21 25  1  0  0  0
 21 19  1  0  0  0
 25 28  1  0  0  0
  7  6  1  0  0  0
 22 23  1  0  0  0
 22 19  1  0  0  0
 17 19  1  0  0  0
 17 10  1  0  0  0
 23 26  1  0  0  0
 19 20  1  0  0  0
 28 27  1  0  0  0
  6 10  2  0  0  0
  6  4  1  0  0  0
 10  8  1  0  0  0
 26 27  1  0  0  0
 20 27  1  0  0  0
  5  4  1  0  0  0
  4  3  2  0  0  0
  8  9  1  0  0  0
  8  2  2  0  0  0
  3  2  1  0  0  0
  3 11  1  0  0  0
  2  1  1  0  0  0
 13 11  1  0  0  0
 11 14  2  0  0  0
 11 12  2  0  0  0
 13 15  1  0  0  0
 13 16  1  0  0  0
 17 18  1  0  0  0
M  END
> <minimizedAffinity>
-7.42979

$$$$
5LLE_V51_A_302


 28 31  0  0  0  0  0  0  0  0999 V2000
   -4.7267    1.0410   12.4185 F   0  0  0  0  0  0  0  0  0  0  0  0
   -4.2875    2.2970   12.6605 C   0  0  0  0  0  0  0  0  0  0  0  0
   -4.1297    2.7030   13.9553 C   0  0  0  0  0  0  0  0  0  0  0  0
   -3.6479    4.0108   14.1820 C   0  0  0  0  0  0  0  0  0  0  0  0
   -3.3896    4.5189   15.4012 F   0  0  0  0  0  0  0  0  0  0  0  0
   -3.4255    4.9062   13.1205 C   0  0  0  0  0  0  0  0  0  0  0  0
   -3.0095    6.1463   13.4736 F   0  0  0  0  0  0  0  0  0  0  0  0
   -4.0878    3.1867   11.6082 C   0  0  0  0  0  0  0  0  0  0  0  0
   -4.3095    2.7271   10.3893 F   0  0  0  0  0  0  0  0  0  0  0  0
   -3.6474    4.4993   11.7793 C   0  0  0  0  0  0  0  0  0  0  0  0
   -4.4044    1.4981   15.2683 S   0  0  0  0  0  0  0  0  0  0  0  0
   -4.5091    0.0625   14.7888 O   0  0  0  0  0  0  0  0  0  0  0  0
   -5.9355    1.9840   15.9551 N   0  0  0  0  0  0  0  0  0  0  0  0
   -3.1458    1.5645   16.1545 O   0  0  0  0  0  0  0  0  0  0  0  0
   -5.8716    2.9489   16.2796 H   0  0  0  0  0  0  0  0  0  0  0  0
   -6.1640    1.3754   16.7411 H   0  0  0  0  0  0  0  0  0  0  0  0
   -3.4573    5.3393   10.6104 N   0  0  0  0  0  0  0  0  0  0  0  0
   -2.6758    5.1689   10.0363 H   0  0  0  0  0  0  0  0  0  0  0  0
   -4.3664    6.4271   10.2394 C   0  0  0  0  0  0  0  0  0  0  0  0
   -5.6983    6.3553   11.0379 C   0  0  0  0  0  0  0  0  0  0  0  0
   -4.6472    6.2894    8.7069 C   0  0  0  0  0  0  0  0  0  0  0  0
   -3.7831    7.8437   10.4969 C   0  0  0  0  0  0  0  0  0  0  0  0
   -4.7802    8.9285    9.9720 C   0  0  0  0  0  0  0  0  0  0  0  0
   -5.0766    8.7641    8.4518 C   0  0  0  0  0  0  0  0  0  0  0  0
   -5.6651    7.3682    8.1976 C   0  0  0  0  0  0  0  0  0  0  0  0
   -6.1250    8.8174   10.7228 C   0  0  0  0  0  0  0  0  0  0  0  0
   -6.7181    7.4156   10.5269 C   0  0  0  0  0  0  0  0  0  0  0  0
   -6.9848    7.2487    8.9982 C   0  0  0  0  0  0  0  0  0  0  0  0
 24 25  1  0  0  0
 24 23  1  0  0  0
 21 25  1  0  0  0
 21 19  1  0  0  0
 25 28  1  0  0  0
  7  6  1  0  0  0
 22 23  1  0  0  0
 22 19  1  0  0  0
 17 19  1  0  0  0
 17 10  1  0  0  0
 23 26  1  0  0  0
 19 20  1  0  0  0
 28 27  1  0  0  0
  6 10  2  0  0  0
  6  4  1  0  0  0
 10  8  1  0  0  0
 26 27  1  0  0  0
 20 27  1  0  0  0
  5  4  1  0  0  0
  4  3  2  0  0  0
  8  9  1  0  0  0
  8  2  2  0  0  0
  3  2  1  0  0  0
  3 11  1  0  0  0
  2  1  1  0  0  0
 13 11  1  0  0  0
 11 14  2  0  0  0
 11 12  2  0  0  0
 13 15  1  0  0  0
 13 16  1  0  0  0
 17 18  1  0  0  0
M  END
> <minimizedAffinity>
-7.17186

$$$$
5LLE_V51_A_302


 28 31  0  0  0  0  0  0  0  0999 V2000
   -4.9891    2.7641   13.6393 F   0  0  0  0  0  0  0  0  0  0  0  0
   -3.7964    3.1797   13.1559 C   0  0  0  0  0  0  0  0  0  0  0  0
   -3.2276    2.4919   12.1216 C   0  0  0  0  0  0  0  0  0  0  0  0
   -1.9934    2.9588   11.6190 C   0  0  0  0  0  0  0  0  0  0  0  0
   -1.3526    2.4152   10.5678 F   0  0  0  0  0  0  0  0  0  0  0  0
   -1.3171    4.0370   12.2174 C   0  0  0  0  0  0  0  0  0  0  0  0
   -0.1193    4.3569   11.6712 F   0  0  0  0  0  0  0  0  0  0  0  0
   -3.1206    4.2345   13.7636 C   0  0  0  0  0  0  0  0  0  0  0  0
   -3.7200    4.8141   14.7889 F   0  0  0  0  0  0  0  0  0  0  0  0
   -1.8837    4.7119   13.3298 C   0  0  0  0  0  0  0  0  0  0  0  0
   -4.1593    1.1371   11.3813 S   0  0  0  0  0  0  0  0  0  0  0  0
   -3.4958    0.5095   10.1699 O   0  0  0  0  0  0  0  0  0  0  0  0
   -5.6549    1.8921   10.8864 N   0  0  0  0  0  0  0  0  0  0  0  0
   -4.2109    0.0386   12.4604 O   0  0  0  0  0  0  0  0  0  0  0  0
   -6.1062    2.3162   11.6969 H   0  0  0  0  0  0  0  0  0  0  0  0
   -6.2733    1.1888   10.4822 H   0  0  0  0  0  0  0  0  0  0  0  0
   -1.2727    5.8290   14.0275 N   0  0  0  0  0  0  0  0  0  0  0  0
   -0.9955    5.6986   14.9632 H   0  0  0  0  0  0  0  0  0  0  0  0
   -1.0465    7.1402   13.4135 C   0  0  0  0  0  0  0  0  0  0  0  0
   -0.9695    8.2657   14.4830 C   0  0  0  0  0  0  0  0  0  0  0  0
   -2.2401    7.4031   12.4375 C   0  0  0  0  0  0  0  0  0  0  0  0
    0.2720    7.2282   12.5967 C   0  0  0  0  0  0  0  0  0  0  0  0
    0.3677    8.6242   11.8976 C   0  0  0  0  0  0  0  0  0  0  0  0
   -0.8409    8.8887   10.9514 C   0  0  0  0  0  0  0  0  0  0  0  0
   -2.1445    8.8144   11.7604 C   0  0  0  0  0  0  0  0  0  0  0  0
    0.3823    9.7462   12.9584 C   0  0  0  0  0  0  0  0  0  0  0  0
   -0.8882    9.6706   13.8160 C   0  0  0  0  0  0  0  0  0  0  0  0
   -2.0951    9.9079   12.8552 C   0  0  0  0  0  0  0  0  0  0  0  0
 24 25  1  0  0  0
 24 23  1  0  0  0
 21 25  1  0  0  0
 21 19  1  0  0  0
 25 28  1  0  0  0
  7  6  1  0  0  0
 22 23  1  0  0  0
 22 19  1  0  0  0
 17 19  1  0  0  0
 17 10  1  0  0  0
 23 26  1  0  0  0
 19 20  1  0  0  0
 28 27  1  0  0  0
  6 10  2  0  0  0
  6  4  1  0  0  0
 10  8  1  0  0  0
 26 27  1  0  0  0
 20 27  1  0  0  0
  5  4  1  0  0  0
  4  3  2  0  0  0
  8  9  1  0  0  0
  8  2  2  0  0  0
  3  2  1  0  0  0
  3 11  1  0  0  0
  2  1  1  0  0  0
 13 11  1  0  0  0
 11 14  2  0  0  0
 11 12  2  0  0  0
 13 15  1  0  0  0
 13 16  1  0  0  0
 17 18  1  0  0  0
M  END
> <minimizedAffinity>
-7.02486

$$$$
5LLE_V51_A_302


 28 31  0  0  0  0  0  0  0  0999 V2000
   -1.4274    2.4276   10.8745 F   0  0  0  0  0  0  0  0  0  0  0  0
   -2.0288    3.0607   11.9072 C   0  0  0  0  0  0  0  0  0  0  0  0
   -3.2967    2.6929   12.2586 C   0  0  0  0  0  0  0  0  0  0  0  0
   -3.8947    3.3526   13.3546 C   0  0  0  0  0  0  0  0  0  0  0  0
   -5.1111    3.0505   13.8448 F   0  0  0  0  0  0  0  0  0  0  0  0
   -3.2529    4.4191   14.0093 C   0  0  0  0  0  0  0  0  0  0  0  0
   -3.9522    4.9993   15.0142 F   0  0  0  0  0  0  0  0  0  0  0  0
   -1.3986    4.1291   12.5397 C   0  0  0  0  0  0  0  0  0  0  0  0
   -0.1925    4.4507   12.1060 F   0  0  0  0  0  0  0  0  0  0  0  0
   -1.9593    4.8374   13.6027 C   0  0  0  0  0  0  0  0  0  0  0  0
   -4.0520    1.3000   11.3980 S   0  0  0  0  0  0  0  0  0  0  0  0
   -3.2877    0.8313   10.1741 O   0  0  0  0  0  0  0  0  0  0  0  0
   -5.6057    1.9226   10.8975 N   0  0  0  0  0  0  0  0  0  0  0  0
   -4.0158    0.1310   12.4011 O   0  0  0  0  0  0  0  0  0  0  0  0
   -6.1247    2.2395   11.7163 H   0  0  0  0  0  0  0  0  0  0  0  0
   -6.1310    1.1864   10.4259 H   0  0  0  0  0  0  0  0  0  0  0  0
   -1.2086    5.9269   14.2006 N   0  0  0  0  0  0  0  0  0  0  0  0
   -0.7528    5.7634   15.0578 H   0  0  0  0  0  0  0  0  0  0  0  0
   -1.0931    7.2570   13.5964 C   0  0  0  0  0  0  0  0  0  0  0  0
    0.2193    7.3989   12.7752 C   0  0  0  0  0  0  0  0  0  0  0  0
   -1.1141    8.2964   14.7649 C   0  0  0  0  0  0  0  0  0  0  0  0
   -2.2527    7.6034   12.6226 C   0  0  0  0  0  0  0  0  0  0  0  0
   -2.0953    9.0751   12.1165 C   0  0  0  0  0  0  0  0  0  0  0  0
   -2.0870   10.0995   13.2898 C   0  0  0  0  0  0  0  0  0  0  0  0
   -0.9329    9.7655   14.2469 C   0  0  0  0  0  0  0  0  0  0  0  0
   -0.7621    9.2313   11.3531 C   0  0  0  0  0  0  0  0  0  0  0  0
    0.4112    8.8593   12.2697 C   0  0  0  0  0  0  0  0  0  0  0  0
    0.3943    9.8723   13.4570 C   0  0  0  0  0  0  0  0  0  0  0  0
 24 25  1  0  0  0
 24 23  1  0  0  0
 21 25  1  0  0  0
 21 19  1  0  0  0
 25 28  1  0  0  0
  7  6  1  0  0  0
 22 23  1  0  0  0
 22 19  1  0  0  0
 17 19  1  0  0  0
 17 10  1  0  0  0
 23 26  1  0  0  0
 19 20  1  0  0  0
 28 27  1  0  0  0
  6 10  2  0  0  0
  6  4  1  0  0  0
 10  8  1  0  0  0
 26 27  1  0  0  0
 20 27  1  0  0  0
  5  4  1  0  0  0
  4  3  2  0  0  0
  8  9  1  0  0  0
  8  2  2  0  0  0
  3  2  1  0  0  0
  3 11  1  0  0  0
  2  1  1  0  0  0
 13 11  1  0  0  0
 11 14  2  0  0  0
 11 12  2  0  0  0
 13 15  1  0  0  0
 13 16  1  0  0  0
 17 18  1  0  0  0
M  END
> <minimizedAffinity>
-6.96687

$$$$
5LLE_V51_A_302


 28 31  0  0  0  0  0  0  0  0999 V2000
   -4.5632    0.2125   14.8941 F   0  0  0  0  0  0  0  0  0  0  0  0
   -4.7625    1.5089   14.5645 C   0  0  0  0  0  0  0  0  0  0  0  0
   -5.4704    2.3059   15.4189 C   0  0  0  0  0  0  0  0  0  0  0  0
   -5.6454    3.6613   15.0638 C   0  0  0  0  0  0  0  0  0  0  0  0
   -6.2677    4.5697   15.8376 F   0  0  0  0  0  0  0  0  0  0  0  0
   -5.1927    4.1618   13.8299 C   0  0  0  0  0  0  0  0  0  0  0  0
   -5.4648    5.4669   13.5884 F   0  0  0  0  0  0  0  0  0  0  0  0
   -4.3307    1.9955   13.3335 C   0  0  0  0  0  0  0  0  0  0  0  0
   -3.6959    1.1450   12.5462 F   0  0  0  0  0  0  0  0  0  0  0  0
   -4.5093    3.3154   12.9187 C   0  0  0  0  0  0  0  0  0  0  0  0
   -5.9981    1.6105   16.9967 S   0  0  0  0  0  0  0  0  0  0  0  0
   -6.0680    2.6151   18.1315 O   0  0  0  0  0  0  0  0  0  0  0  0
   -4.7633    0.4281   17.3557 N   0  0  0  0  0  0  0  0  0  0  0  0
   -7.4409    1.1215   16.7662 O   0  0  0  0  0  0  0  0  0  0  0  0
   -4.7113   -0.2506   16.5960 H   0  0  0  0  0  0  0  0  0  0  0  0
   -4.9948   -0.0520   18.2253 H   0  0  0  0  0  0  0  0  0  0  0  0
   -4.0059    3.7224   11.6191 N   0  0  0  0  0  0  0  0  0  0  0  0
   -4.6423    3.7805   10.8702 H   0  0  0  0  0  0  0  0  0  0  0  0
   -2.6011    4.0515   11.3625 C   0  0  0  0  0  0  0  0  0  0  0  0
   -1.8314    4.3372   12.6826 C   0  0  0  0  0  0  0  0  0  0  0  0
   -2.5855    5.3169   10.4434 C   0  0  0  0  0  0  0  0  0  0  0  0
   -1.8169    2.9217   10.6401 C   0  0  0  0  0  0  0  0  0  0  0  0
   -0.3659    3.4089   10.3181 C   0  0  0  0  0  0  0  0  0  0  0  0
   -0.3619    4.6868    9.4277 C   0  0  0  0  0  0  0  0  0  0  0  0
   -1.1263    5.8086   10.1465 C   0  0  0  0  0  0  0  0  0  0  0  0
    0.3788    3.7515   11.6268 C   0  0  0  0  0  0  0  0  0  0  0  0
   -0.3859    4.8391   12.3934 C   0  0  0  0  0  0  0  0  0  0  0  0
   -0.4020    6.1060   11.4821 C   0  0  0  0  0  0  0  0  0  0  0  0
 24 25  1  0  0  0
 24 23  1  0  0  0
 21 25  1  0  0  0
 21 19  1  0  0  0
 25 28  1  0  0  0
  7  6  1  0  0  0
 22 23  1  0  0  0
 22 19  1  0  0  0
 17 19  1  0  0  0
 17 10  1  0  0  0
 23 26  1  0  0  0
 19 20  1  0  0  0
 28 27  1  0  0  0
  6 10  2  0  0  0
  6  4  1  0  0  0
 10  8  1  0  0  0
 26 27  1  0  0  0
 20 27  1  0  0  0
  5  4  1  0  0  0
  4  3  2  0  0  0
  8  9  1  0  0  0
  8  2  2  0  0  0
  3  2  1  0  0  0
  3 11  1  0  0  0
  2  1  1  0  0  0
 13 11  1  0  0  0
 11 14  2  0  0  0
 11 12  2  0  0  0
 13 15  1  0  0  0
 13 16  1  0  0  0
 17 18  1  0  0  0
M  END
> <minimizedAffinity>
-6.76653

$$$$
