3T1A_5MA_A_561
  RCSB PDB12061710493D
Coordinates from PDB:3T1A:A:561 Model:1 without hydrogens
 31 35  0  0  0  0            999 V2000
   11.4080   12.3660   15.5530   C 0  0  0  0  0  0  0  0  0  0  0  0
    7.2630   12.6130   15.4030   N 0  0  0  0  0  0  0  0  0  0  0  0
   11.2640   12.1160   17.8480   O 0  0  0  0  0  0  0  0  0  0  0  0
   10.8530   12.6120   14.2850   C 0  0  0  0  0  0  0  0  0  0  0  0
   13.0820   12.2060   15.7200  Cl 0  0  0  0  0  0  0  0  0  0  0  0
    9.4610   12.6660   14.1140   C 0  0  0  0  0  0  0  0  0  0  0  0
   10.7730   16.5220   20.1850  Cl 0  0  0  0  0  0  0  0  0  0  0  0
    8.6380   12.5630   15.2060   C 0  0  0  0  0  0  0  0  0  0  0  0
   10.0370   10.4940   19.9580  Cl 0  0  0  0  0  0  0  0  0  0  0  0
    9.1530   12.3540   16.4660   C 0  0  0  0  0  0  0  0  0  0  0  0
   10.6050   12.2760   16.6450   C 0  0  0  0  0  0  0  0  0  0  0  0
   10.9570   14.1900   19.0090   C 0  0  0  0  0  0  0  0  0  0  0  0
   10.8060   12.8470   18.9610   C 0  0  0  0  0  0  0  0  0  0  0  0
   10.2340   12.1840   20.0430   C 0  0  0  0  0  0  0  0  0  0  0  0
    9.8010   12.8410   21.2080   C 0  0  0  0  0  0  0  0  0  0  0  0
    9.9730   14.2300   21.2680   C 0  0  0  0  0  0  0  0  0  0  0  0
   10.5600   14.8460   20.1640   C 0  0  0  0  0  0  0  0  0  0  0  0
    6.9380   12.4490   16.7120   N 0  0  0  0  0  0  0  0  0  0  0  0
    8.1230   12.2960   17.3600   N 0  0  0  0  0  0  0  0  0  0  0  0
    6.1970   12.6620   14.4410   C 0  0  0  0  0  0  0  0  0  0  0  0
    6.2050   11.1540   14.0800   C 0  0  0  0  0  0  0  0  0  0  0  0
    6.5770   10.7610   12.8400   N 0  0  0  0  0  0  0  0  0  0  0  0
    6.5230    9.4050   12.8480   N 0  0  0  0  0  0  0  0  0  0  0  0
    6.1700    8.8790   14.0340   C 0  0  0  0  0  0  0  0  0  0  0  0
    5.9430    9.9850   14.8960   C 0  0  0  0  0  0  0  0  0  0  0  0
    6.0760    7.5410   14.3510   N 0  0  0  0  0  0  0  0  0  0  0  0
    5.7170    7.3070   15.6800   C 0  0  0  0  0  0  0  0  0  0  0  0
    5.4210    8.2970   16.6630   C 0  0  0  0  0  0  0  0  0  0  0  0
    5.5570    9.6550   16.2430   C 0  0  0  0  0  0  0  0  0  0  0  0
    9.1700   12.1090   22.3640   C 0  0  0  0  0  0  0  0  0  0  0  0
   10.0950   11.1680   22.9820   N 0  0  0  0  0  0  0  0  0  0  0  0
  4  1  2  0  0  0  0
  1  5  1  0  0  0  0
  1 11  1  0  0  0  0
 20  2  1  0  0  0  0
  8  2  1  0  0  0  0
  2 18  1  0  0  0  0
 11  3  1  0  0  0  0
  3 13  1  0  0  0  0
  6  4  1  0  0  0  0
  6  8  2  0  0  0  0
 17  7  1  0  0  0  0
  8 10  1  0  0  0  0
  9 14  1  0  0  0  0
 10 11  2  0  0  0  0
 10 19  1  0  0  0  0
 13 12  2  0  0  0  0
 12 17  1  0  0  0  0
 13 14  1  0  0  0  0
 14 15  2  0  0  0  0
 15 16  1  0  0  0  0
 15 30  1  0  0  0  0
 17 16  2  0  0  0  0
 18 19  2  0  0  0  0
 21 20  1  0  0  0  0
 22 21  1  0  0  0  0
 21 25  2  0  0  0  0
 22 23  1  0  0  0  0
 23 24  2  0  0  0  0
 24 26  1  0  0  0  0
 24 25  1  0  0  0  0
 25 29  1  0  0  0  0
 26 27  2  0  0  0  0
 27 28  1  0  0  0  0
 29 28  2  0  0  0  0
 30 31  1  0  0  0  0
A    1
C
A    2
N
A    3
O
A    4
C1
A    5
CL1
A    6
C2
A    7
CL2
A    8
C3
A    9
CL3
A   10
C4
A   11
C5
A   12
C6
A   13
C7
A   14
C8
A   15
C9
A   16
C10
A   17
C11
A   18
N12
A   19
N13
A   20
C14
A   21
C15
A   22
N16
A   23
N17
A   24
C18
A   25
C19
A   26
N20
A   27
C21
A   28
C22
A   29
C23
A   30
C24
A   31
N26
M  END
>  <InstanceId>
3T1A_5MA_A_561

>  <ChemCompId>
5MA

>  <PdbId>
3T1A

>  <ChainId>
A

>  <ResidueNumber>
561

>  <InsertionCode>


>  <Model>
1

>  <AltIds>


>  <MissingHeavyAtoms>
0

>  <ObservedFormula>
C20 N7 O Cl3

>  <Name>
1-(2,5-dichloro-3-{[5-chloro-1-(2H-pyrazolo[3,4-b]pyridin-3-ylmethyl)-1H-benzotriazol-4-yl]oxy}phenyl)methanamine

>  <SystematicName>
[2,5-bis(chloranyl)-3-[5-chloranyl-1-(2H-pyrazolo[3,4-b]pyridin-3-ylmethyl)benzotriazol-4-yl]oxy-phenyl]methanamine

>  <Synonyms>


>  <Type>
NON-POLYMER

>  <Formula>
C20 H14 Cl3 N7 O

>  <MolecularWeight>
474.73

>  <ModifiedDate>
2011-10-21

>  <Parent>


>  <OneLetterCode>


>  <SubcomponentList>


>  <AmbiguousFlag>
N

>  <InChI>
InChI=1S/C20H14Cl3N7O/c21-11-6-10(8-24)17(23)16(7-11)31-19-13(22)3-4-15-18(19)27-29-30(15)9-14-12-2-1-5-25-20(12)28-26-14/h1-7H,8-9,24H2,(H,25,26,28)

>  <InChIKey>
CUYHWBGVPXGMKQ-UHFFFAOYSA-N

>  <SMILES>
c1cc2c([nH]nc2nc1)Cn3c4ccc(c(c4nn3)Oc5cc(cc(c5Cl)CN)Cl)Cl

$$$$
