3T1A_5MA_A_561


 34 38  0  0  0  0  0  0  0  0999 V2000
   11.2671   12.3808   15.6076 C   0  0  0  0  0  0  0  0  0  0  0  0
    7.1149   12.5267   15.5548 N   0  0  0  0  0  0  0  0  0  0  0  0
   10.6783   12.6620   14.3624 C   0  0  0  0  0  0  0  0  0  0  0  0
   12.9478   12.2575   15.7328 Cl  0  0  0  0  0  0  0  0  0  0  0  0
    9.2820   12.6869   14.2230 C   0  0  0  0  0  0  0  0  0  0  0  0
    8.4861   12.5199   15.3271 C   0  0  0  0  0  0  0  0  0  0  0  0
    9.0338   12.2748   16.5667 C   0  0  0  0  0  0  0  0  0  0  0  0
   10.4909   12.2273   16.7118 C   0  0  0  0  0  0  0  0  0  0  0  0
    6.8231   12.3030   16.8628 N   0  0  0  0  0  0  0  0  0  0  0  0
    8.0255   12.1552   17.4791 N   0  0  0  0  0  0  0  0  0  0  0  0
   11.1800   12.0371   17.8933 O   0  0  0  0  0  0  0  0  0  0  0  0
   10.6544   16.3293   20.4264 Cl  0  0  0  0  0  0  0  0  0  0  0  0
   10.0153   10.3047   19.9503 Cl  0  0  0  0  0  0  0  0  0  0  0  0
   10.8577   14.0536   19.1478 C   0  0  0  0  0  0  0  0  0  0  0  0
   10.7284   12.7115   19.0441 C   0  0  0  0  0  0  0  0  0  0  0  0
   10.1855   11.9927   20.1053 C   0  0  0  0  0  0  0  0  0  0  0  0
    9.7610   12.5913   21.3043 C   0  0  0  0  0  0  0  0  0  0  0  0
    9.9107   13.9792   21.4217 C   0  0  0  0  0  0  0  0  0  0  0  0
   10.4690   14.6523   20.3363 C   0  0  0  0  0  0  0  0  0  0  0  0
    9.1615   11.7994   22.4374 C   0  0  0  0  0  0  0  0  0  0  0  0
   10.1734   11.0554   23.1760 N   0  0  0  0  0  0  0  0  0  0  0  0
   10.6311   10.3917   22.5511 H   0  0  0  0  0  0  0  0  0  0  0  0
    9.7310   10.5500   23.9437 H   0  0  0  0  0  0  0  0  0  0  0  0
    6.0271   12.5860   14.6182 C   0  0  0  0  0  0  0  0  0  0  0  0
    6.0785   11.0990   14.1816 C   0  0  0  0  0  0  0  0  0  0  0  0
    6.4386   10.7812   12.9167 N   0  0  0  0  0  0  0  0  0  0  0  0
    6.4302    9.4254   12.8574 N   0  0  0  0  0  0  0  0  0  0  0  0
    6.1189    8.8292   14.0217 C   0  0  0  0  0  0  0  0  0  0  0  0
    5.8722    9.8825   14.9423 C   0  0  0  0  0  0  0  0  0  0  0  0
    6.0762    7.4747   14.2725 N   0  0  0  0  0  0  0  0  0  0  0  0
    5.7519    7.1626   15.5944 C   0  0  0  0  0  0  0  0  0  0  0  0
    5.4426    8.0917   16.6313 C   0  0  0  0  0  0  0  0  0  0  0  0
    5.5246    9.4728   16.2778 C   0  0  0  0  0  0  0  0  0  0  0  0
    6.6610   11.4055   12.1887 H   0  0  0  0  0  0  0  0  0  0  0  0
  3  1  2  0  0  0
  1  4  1  0  0  0
  1  8  1  0  0  0
 24  2  1  0  0  0
  6  2  1  0  0  0
  2  9  1  0  0  0
  8 11  1  0  0  0
 11 15  1  0  0  0
  5  3  1  0  0  0
  5  6  2  0  0  0
 19 12  1  0  0  0
  6  7  1  0  0  0
 13 16  1  0  0  0
  7  8  2  0  0  0
  7 10  1  0  0  0
 15 14  2  0  0  0
 14 19  1  0  0  0
 15 16  1  0  0  0
 16 17  2  0  0  0
 17 18  1  0  0  0
 17 20  1  0  0  0
 19 18  2  0  0  0
  9 10  2  0  0  0
 25 24  1  0  0  0
 26 25  1  0  0  0
 25 29  2  0  0  0
 26 27  1  0  0  0
 27 28  2  0  0  0
 28 30  1  0  0  0
 28 29  1  0  0  0
 29 33  1  0  0  0
 30 31  2  0  0  0
 31 32  1  0  0  0
 33 32  2  0  0  0
 20 21  1  0  0  0
 26 34  1  0  0  0
 21 22  1  0  0  0
 21 23  1  0  0  0
M  END
> <minimizedAffinity>
-12.53005

$$$$
3T1A_5MA_A_561


 34 38  0  0  0  0  0  0  0  0999 V2000
   11.1401   12.1640   15.9122 C   0  0  0  0  0  0  0  0  0  0  0  0
    6.9906   12.3753   15.8663 N   0  0  0  0  0  0  0  0  0  0  0  0
   10.5606   12.5971   14.7068 C   0  0  0  0  0  0  0  0  0  0  0  0
   12.8183   12.0025   16.0264 Cl  0  0  0  0  0  0  0  0  0  0  0  0
    9.1653   12.6583   14.5677 C   0  0  0  0  0  0  0  0  0  0  0  0
    8.3625   12.3752   15.6428 C   0  0  0  0  0  0  0  0  0  0  0  0
    8.9014   11.9794   16.8467 C   0  0  0  0  0  0  0  0  0  0  0  0
   10.3571   11.8940   16.9890 C   0  0  0  0  0  0  0  0  0  0  0  0
    6.6901   12.0050   17.1385 N   0  0  0  0  0  0  0  0  0  0  0  0
    7.8877   11.7688   17.7364 N   0  0  0  0  0  0  0  0  0  0  0  0
   11.0385   11.5574   18.1420 O   0  0  0  0  0  0  0  0  0  0  0  0
    9.3493   11.0879   22.8368 Cl  0  0  0  0  0  0  0  0  0  0  0  0
   11.0932   14.4873   18.1111 Cl  0  0  0  0  0  0  0  0  0  0  0  0
   10.2694   11.4121   20.4072 C   0  0  0  0  0  0  0  0  0  0  0  0
   10.6461   12.1661   19.3496 C   0  0  0  0  0  0  0  0  0  0  0  0
   10.5996   13.5538   19.4479 C   0  0  0  0  0  0  0  0  0  0  0  0
   10.1700   14.2306   20.6028 C   0  0  0  0  0  0  0  0  0  0  0  0
    9.7618   13.4519   21.6935 C   0  0  0  0  0  0  0  0  0  0  0  0
    9.8168   12.0674   21.5420 C   0  0  0  0  0  0  0  0  0  0  0  0
   10.1403   15.7341   20.6969 C   0  0  0  0  0  0  0  0  0  0  0  0
   11.4736   16.2944   20.8740 N   0  0  0  0  0  0  0  0  0  0  0  0
   11.8769   15.9441   21.7430 H   0  0  0  0  0  0  0  0  0  0  0  0
   11.4123   17.3118   20.9135 H   0  0  0  0  0  0  0  0  0  0  0  0
    5.9077   12.5593   14.9402 C   0  0  0  0  0  0  0  0  0  0  0  0
    5.9821   11.1544   14.2881 C   0  0  0  0  0  0  0  0  0  0  0  0
    6.2694   11.0382   12.9712 N   0  0  0  0  0  0  0  0  0  0  0  0
    6.3044    9.7061   12.7145 N   0  0  0  0  0  0  0  0  0  0  0  0
    6.0909    8.9353   13.7953 C   0  0  0  0  0  0  0  0  0  0  0  0
    5.8685    9.8331   14.8734 C   0  0  0  0  0  0  0  0  0  0  0  0
    6.1118    7.5582   13.8471 N   0  0  0  0  0  0  0  0  0  0  0  0
    5.8858    7.0451   15.1259 C   0  0  0  0  0  0  0  0  0  0  0  0
    5.6129    7.8006   16.3044 C   0  0  0  0  0  0  0  0  0  0  0  0
    5.6234    9.2205   16.1528 C   0  0  0  0  0  0  0  0  0  0  0  0
    6.4219   11.7700   12.3305 H   0  0  0  0  0  0  0  0  0  0  0  0
  3  1  2  0  0  0
  1  4  1  0  0  0
  1  8  1  0  0  0
 24  2  1  0  0  0
  6  2  1  0  0  0
  2  9  1  0  0  0
  8 11  1  0  0  0
 11 15  1  0  0  0
  5  3  1  0  0  0
  5  6  2  0  0  0
 19 12  1  0  0  0
  6  7  1  0  0  0
 13 16  1  0  0  0
  7  8  2  0  0  0
  7 10  1  0  0  0
 15 14  2  0  0  0
 14 19  1  0  0  0
 15 16  1  0  0  0
 16 17  2  0  0  0
 17 18  1  0  0  0
 17 20  1  0  0  0
 19 18  2  0  0  0
  9 10  2  0  0  0
 25 24  1  0  0  0
 26 25  1  0  0  0
 25 29  2  0  0  0
 26 27  1  0  0  0
 27 28  2  0  0  0
 28 30  1  0  0  0
 28 29  1  0  0  0
 29 33  1  0  0  0
 30 31  2  0  0  0
 31 32  1  0  0  0
 33 32  2  0  0  0
 20 21  1  0  0  0
 26 34  1  0  0  0
 21 22  1  0  0  0
 21 23  1  0  0  0
M  END
> <minimizedAffinity>
-11.64503

$$$$
