1BNV_AL7_A_555


 28 30  0  0  0  0  0  0  0  0999 V2000
   -5.7785    1.9874   16.2237 C   0  0  0  0  0  0  0  0  0  0  0  0
   -4.4745    4.5296   12.4448 C   0  0  0  0  0  0  0  0  0  0  0  0
   -3.8071    3.4242   13.2772 C   0  0  0  0  0  0  0  0  0  0  0  0
   -6.4895    3.5475   16.2825 S   0  0  0  0  0  0  0  0  0  0  0  0
   -5.5546    3.9925   14.9422 C   0  0  0  0  0  0  0  0  0  0  0  0
   -4.7013    3.0028   14.4410 C   0  0  0  0  0  0  0  0  0  0  0  0
   -4.8582    1.8637   15.1982 C   0  0  0  0  0  0  0  0  0  0  0  0
   -4.5430    5.6873   13.3342 N   0  0  0  0  0  0  0  0  0  0  0  0
   -5.7007    5.5596   14.2777 S   0  0  0  0  0  0  0  0  0  0  0  0
   -6.9810    5.6749   13.5160 O   0  0  0  0  0  0  0  0  0  0  0  0
   -5.6399    6.5009   15.4309 O   0  0  0  0  0  0  0  0  0  0  0  0
   -3.2379    8.7908   11.9785 C   0  0  0  0  0  0  0  0  0  0  0  0
   -2.3133    9.1723   12.9369 C   0  0  0  0  0  0  0  0  0  0  0  0
   -2.1009    8.3619   14.0488 C   0  0  0  0  0  0  0  0  0  0  0  0
   -2.8049    7.1585   14.2068 C   0  0  0  0  0  0  0  0  0  0  0  0
   -3.7560    6.7762   13.2384 C   0  0  0  0  0  0  0  0  0  0  0  0
   -3.9542    7.6064   12.1274 C   0  0  0  0  0  0  0  0  0  0  0  0
   -1.2384   10.0335   15.4973 C   0  0  0  0  0  0  0  0  0  0  0  0
   -1.2941    8.6842   15.0175 O   0  0  0  0  0  0  0  0  0  0  0  0
   -5.6731    0.9546   18.7138 N   0  0  0  0  0  0  0  0  0  0  0  0
   -6.2445    0.7680   17.3617 S   0  0  0  0  0  0  0  0  0  0  0  0
   -7.6609    0.7552   17.3894 O   0  0  0  0  0  0  0  0  0  0  0  0
   -5.6527   -0.3445   16.7672 O   0  0  0  0  0  0  0  0  0  0  0  0
   -6.1023    1.7679   19.1551 H   0  0  0  0  0  0  0  0  0  0  0  0
   -4.6661    1.0994   18.6404 H   0  0  0  0  0  0  0  0  0  0  0  0
   -1.9429    3.6055   12.4138 C   0  0  0  0  0  0  0  0  0  0  0  0
   -2.4930    3.8522   13.7458 N   0  0  0  0  0  0  0  0  0  0  0  0
   -2.0976    3.2605   14.4765 H   0  0  0  0  0  0  0  0  0  0  0  0
  1 21  1  0  0  0
  1  4  1  0  0  0
  1  7  2  0  0  0
  2  3  1  0  0  0
  2  8  1  0  0  0
  3  6  1  0  0  0
  3 27  1  0  0  0
 26 27  1  0  0  0
 12 13  2  0  0  0
 12 17  1  0  0  0
 13 14  1  0  0  0
 14 15  2  0  0  0
 14 19  1  0  0  0
 15 16  1  0  0  0
 18 19  1  0  0  0
 20 21  1  0  0  0
 21 22  2  0  0  0
 21 23  2  0  0  0
  4  5  1  0  0  0
  5  6  2  0  0  0
  5  9  1  0  0  0
  6  7  1  0  0  0
  8  9  1  0  0  0
  8 16  1  0  0  0
  9 10  2  0  0  0
  9 11  2  0  0  0
 16 17  2  0  0  0
 20 24  1  0  0  0
 20 25  1  0  0  0
 27 28  1  0  0  0
M  END
> <minimizedAffinity>
-7.02227

$$$$
1BNV_AL7_A_555


 28 30  0  0  0  0  0  0  0  0999 V2000
    0.1350    4.4568   11.6049 C   0  0  0  0  0  0  0  0  0  0  0  0
   -4.3098    5.2943   13.0143 C   0  0  0  0  0  0  0  0  0  0  0  0
   -2.9329    5.8382   13.4250 C   0  0  0  0  0  0  0  0  0  0  0  0
   -0.8179    3.0397   11.4406 S   0  0  0  0  0  0  0  0  0  0  0  0
   -2.0837    3.8331   12.2386 C   0  0  0  0  0  0  0  0  0  0  0  0
   -1.8181    5.1461   12.6440 C   0  0  0  0  0  0  0  0  0  0  0  0
   -0.5367    5.4729   12.2610 C   0  0  0  0  0  0  0  0  0  0  0  0
   -4.3172    3.9019   13.4586 N   0  0  0  0  0  0  0  0  0  0  0  0
   -3.5734    3.0349   12.4880 S   0  0  0  0  0  0  0  0  0  0  0  0
   -4.3332    2.9570   11.2037 O   0  0  0  0  0  0  0  0  0  0  0  0
   -3.2317    1.6889   13.0276 O   0  0  0  0  0  0  0  0  0  0  0  0
   -7.0415    3.5988   15.8373 C   0  0  0  0  0  0  0  0  0  0  0  0
   -6.6471    2.5189   16.6102 C   0  0  0  0  0  0  0  0  0  0  0  0
   -5.4312    1.8934   16.3486 C   0  0  0  0  0  0  0  0  0  0  0  0
   -4.5953    2.3486   15.3177 C   0  0  0  0  0  0  0  0  0  0  0  0
   -5.0022    3.4393   14.5219 C   0  0  0  0  0  0  0  0  0  0  0  0
   -6.2296    4.0540   14.8022 C   0  0  0  0  0  0  0  0  0  0  0  0
   -5.9468    0.0516   17.7550 C   0  0  0  0  0  0  0  0  0  0  0  0
   -5.0234    0.8386   16.9924 O   0  0  0  0  0  0  0  0  0  0  0  0
    2.8037    4.4212   11.9990 N   0  0  0  0  0  0  0  0  0  0  0  0
    1.7449    4.5095   10.9690 S   0  0  0  0  0  0  0  0  0  0  0  0
    1.8453    3.4588   10.0240 O   0  0  0  0  0  0  0  0  0  0  0  0
    1.7409    5.7942   10.4295 O   0  0  0  0  0  0  0  0  0  0  0  0
    2.8121    3.4826   12.3983 H   0  0  0  0  0  0  0  0  0  0  0  0
    2.6192    5.1023   12.7354 H   0  0  0  0  0  0  0  0  0  0  0  0
   -3.1990    7.0792   15.0507 C   0  0  0  0  0  0  0  0  0  0  0  0
   -2.7333    5.7058   14.8646 N   0  0  0  0  0  0  0  0  0  0  0  0
   -1.7627    5.5537   15.1388 H   0  0  0  0  0  0  0  0  0  0  0  0
  1 21  1  0  0  0
  1  4  1  0  0  0
  1  7  2  0  0  0
  2  3  1  0  0  0
  2  8  1  0  0  0
  3  6  1  0  0  0
  3 27  1  0  0  0
 26 27  1  0  0  0
 12 13  2  0  0  0
 12 17  1  0  0  0
 13 14  1  0  0  0
 14 15  2  0  0  0
 14 19  1  0  0  0
 15 16  1  0  0  0
 18 19  1  0  0  0
 20 21  1  0  0  0
 21 22  2  0  0  0
 21 23  2  0  0  0
  4  5  1  0  0  0
  5  6  2  0  0  0
  5  9  1  0  0  0
  6  7  1  0  0  0
  8  9  1  0  0  0
  8 16  1  0  0  0
  9 10  2  0  0  0
  9 11  2  0  0  0
 16 17  2  0  0  0
 20 24  1  0  0  0
 20 25  1  0  0  0
 27 28  1  0  0  0
M  END
> <minimizedAffinity>
-6.99990

$$$$
1BNV_AL7_A_555


 28 30  0  0  0  0  0  0  0  0999 V2000
   -4.6191    1.7599   14.8819 C   0  0  0  0  0  0  0  0  0  0  0  0
   -4.6574    3.1851   10.3641 C   0  0  0  0  0  0  0  0  0  0  0  0
   -4.2846    1.8742   11.0730 C   0  0  0  0  0  0  0  0  0  0  0  0
   -4.2919    3.4411   14.7861 S   0  0  0  0  0  0  0  0  0  0  0  0
   -4.2167    3.3011   13.0998 C   0  0  0  0  0  0  0  0  0  0  0  0
   -4.4216    2.0149   12.5873 C   0  0  0  0  0  0  0  0  0  0  0  0
   -4.6533    1.1557   13.6378 C   0  0  0  0  0  0  0  0  0  0  0  0
   -3.6305    4.1428   10.7697 N   0  0  0  0  0  0  0  0  0  0  0  0
   -3.9231    4.6817   12.1375 S   0  0  0  0  0  0  0  0  0  0  0  0
   -5.1461    5.5386   12.0857 O   0  0  0  0  0  0  0  0  0  0  0  0
   -2.7669    5.3806   12.7655 O   0  0  0  0  0  0  0  0  0  0  0  0
   -1.9267    6.2227    8.3318 C   0  0  0  0  0  0  0  0  0  0  0  0
   -0.6355    5.7215    8.3590 C   0  0  0  0  0  0  0  0  0  0  0  0
   -0.3320    4.6472    9.1908 C   0  0  0  0  0  0  0  0  0  0  0  0
   -1.3196    4.0592    9.9955 C   0  0  0  0  0  0  0  0  0  0  0  0
   -2.6311    4.5773    9.9784 C   0  0  0  0  0  0  0  0  0  0  0  0
   -2.9147    5.6589    9.1342 C   0  0  0  0  0  0  0  0  0  0  0  0
    1.5015    4.1064   10.5986 C   0  0  0  0  0  0  0  0  0  0  0  0
    0.8695    4.1628    9.3136 O   0  0  0  0  0  0  0  0  0  0  0  0
   -5.7388    1.7815   17.3363 N   0  0  0  0  0  0  0  0  0  0  0  0
   -4.8784    1.0032   16.4179 S   0  0  0  0  0  0  0  0  0  0  0  0
   -5.4192   -0.2795   16.1552 O   0  0  0  0  0  0  0  0  0  0  0  0
   -3.5725    1.0083   16.9040 O   0  0  0  0  0  0  0  0  0  0  0  0
   -6.6968    1.7819   16.9862 H   0  0  0  0  0  0  0  0  0  0  0  0
   -5.3967    2.7408   17.3917 H   0  0  0  0  0  0  0  0  0  0  0  0
   -3.4201    0.0760   10.5504 C   0  0  0  0  0  0  0  0  0  0  0  0
   -2.9396    1.4489   10.6992 N   0  0  0  0  0  0  0  0  0  0  0  0
   -2.2442    1.5699   11.4355 H   0  0  0  0  0  0  0  0  0  0  0  0
  1 21  1  0  0  0
  1  4  1  0  0  0
  1  7  2  0  0  0
  2  3  1  0  0  0
  2  8  1  0  0  0
  3  6  1  0  0  0
  3 27  1  0  0  0
 26 27  1  0  0  0
 12 13  2  0  0  0
 12 17  1  0  0  0
 13 14  1  0  0  0
 14 15  2  0  0  0
 14 19  1  0  0  0
 15 16  1  0  0  0
 18 19  1  0  0  0
 20 21  1  0  0  0
 21 22  2  0  0  0
 21 23  2  0  0  0
  4  5  1  0  0  0
  5  6  2  0  0  0
  5  9  1  0  0  0
  6  7  1  0  0  0
  8  9  1  0  0  0
  8 16  1  0  0  0
  9 10  2  0  0  0
  9 11  2  0  0  0
 16 17  2  0  0  0
 20 24  1  0  0  0
 20 25  1  0  0  0
 27 28  1  0  0  0
M  END
> <minimizedAffinity>
-6.73892

$$$$
1BNV_AL7_A_555


 28 30  0  0  0  0  0  0  0  0999 V2000
   -5.7761    1.9646   16.2216 C   0  0  0  0  0  0  0  0  0  0  0  0
   -4.4151    4.6200   12.5418 C   0  0  0  0  0  0  0  0  0  0  0  0
   -3.7347    3.5390   13.3955 C   0  0  0  0  0  0  0  0  0  0  0  0
   -6.5685    3.4856   16.2606 S   0  0  0  0  0  0  0  0  0  0  0  0
   -5.5911    3.9954   14.9747 C   0  0  0  0  0  0  0  0  0  0  0  0
   -4.6637    3.0572   14.5073 C   0  0  0  0  0  0  0  0  0  0  0  0
   -4.7999    1.9015   15.2433 C   0  0  0  0  0  0  0  0  0  0  0  0
   -4.5880    5.7608   13.4389 N   0  0  0  0  0  0  0  0  0  0  0  0
   -5.7838    5.5618   14.3205 S   0  0  0  0  0  0  0  0  0  0  0  0
   -7.0282    5.6219   13.4955 O   0  0  0  0  0  0  0  0  0  0  0  0
   -5.8300    6.4895   15.4853 O   0  0  0  0  0  0  0  0  0  0  0  0
   -2.1659    8.2465   14.5007 C   0  0  0  0  0  0  0  0  0  0  0  0
   -2.1366    9.1170   13.4235 C   0  0  0  0  0  0  0  0  0  0  0  0
   -2.9636    8.8841   12.3281 C   0  0  0  0  0  0  0  0  0  0  0  0
   -3.8336    7.7835   12.3048 C   0  0  0  0  0  0  0  0  0  0  0  0
   -3.8543    6.8894   13.3952 C   0  0  0  0  0  0  0  0  0  0  0  0
   -3.0138    7.1426   14.4872 C   0  0  0  0  0  0  0  0  0  0  0  0
   -4.1736   10.0425   10.6457 C   0  0  0  0  0  0  0  0  0  0  0  0
   -2.9472    9.6232   11.2572 O   0  0  0  0  0  0  0  0  0  0  0  0
   -5.6917    0.8729   18.6873 N   0  0  0  0  0  0  0  0  0  0  0  0
   -6.2357    0.7080   17.3211 S   0  0  0  0  0  0  0  0  0  0  0  0
   -7.6517    0.6651   17.3233 O   0  0  0  0  0  0  0  0  0  0  0  0
   -5.6102   -0.3769   16.7102 O   0  0  0  0  0  0  0  0  0  0  0  0
   -6.1455    1.6660   19.1405 H   0  0  0  0  0  0  0  0  0  0  0  0
   -4.6869    1.0404   18.6352 H   0  0  0  0  0  0  0  0  0  0  0  0
   -1.8341    3.8003   12.6382 C   0  0  0  0  0  0  0  0  0  0  0  0
   -2.4697    4.0270   13.9353 N   0  0  0  0  0  0  0  0  0  0  0  0
   -2.0908    3.4562   14.6909 H   0  0  0  0  0  0  0  0  0  0  0  0
  1 21  1  0  0  0
  1  4  1  0  0  0
  1  7  2  0  0  0
  2  3  1  0  0  0
  2  8  1  0  0  0
  3  6  1  0  0  0
  3 27  1  0  0  0
 26 27  1  0  0  0
 12 13  2  0  0  0
 12 17  1  0  0  0
 13 14  1  0  0  0
 14 15  2  0  0  0
 14 19  1  0  0  0
 15 16  1  0  0  0
 18 19  1  0  0  0
 20 21  1  0  0  0
 21 22  2  0  0  0
 21 23  2  0  0  0
  4  5  1  0  0  0
  5  6  2  0  0  0
  5  9  1  0  0  0
  6  7  1  0  0  0
  8  9  1  0  0  0
  8 16  1  0  0  0
  9 10  2  0  0  0
  9 11  2  0  0  0
 16 17  2  0  0  0
 20 24  1  0  0  0
 20 25  1  0  0  0
 27 28  1  0  0  0
M  END
> <minimizedAffinity>
-6.72844

$$$$
1BNV_AL7_A_555


 28 30  0  0  0  0  0  0  0  0999 V2000
   -4.0437    1.7283   11.8088 C   0  0  0  0  0  0  0  0  0  0  0  0
   -4.3086    5.3338   14.8704 C   0  0  0  0  0  0  0  0  0  0  0  0
   -5.2146    4.8130   13.7443 C   0  0  0  0  0  0  0  0  0  0  0  0
   -2.4724    2.3027   12.1882 S   0  0  0  0  0  0  0  0  0  0  0  0
   -3.1783    3.5884   13.0351 C   0  0  0  0  0  0  0  0  0  0  0  0
   -4.5776    3.6165   13.0411 C   0  0  0  0  0  0  0  0  0  0  0  0
   -5.0413    2.5321   12.3308 C   0  0  0  0  0  0  0  0  0  0  0  0
   -3.1219    5.8543   14.1944 N   0  0  0  0  0  0  0  0  0  0  0  0
   -2.1924    4.7375   13.8264 S   0  0  0  0  0  0  0  0  0  0  0  0
   -1.6094    4.1432   15.0673 O   0  0  0  0  0  0  0  0  0  0  0  0
   -1.1470    5.1291   12.8398 O   0  0  0  0  0  0  0  0  0  0  0  0
   -2.0003    9.1894   15.0843 C   0  0  0  0  0  0  0  0  0  0  0  0
   -2.0616    9.8602   13.8739 C   0  0  0  0  0  0  0  0  0  0  0  0
   -2.5127    9.1918   12.7391 C   0  0  0  0  0  0  0  0  0  0  0  0
   -2.9151    7.8493   12.8074 C   0  0  0  0  0  0  0  0  0  0  0  0
   -2.8403    7.1619   14.0365 C   0  0  0  0  0  0  0  0  0  0  0  0
   -2.3833    7.8535   15.1659 C   0  0  0  0  0  0  0  0  0  0  0  0
   -3.5637   10.6831   11.2200 C   0  0  0  0  0  0  0  0  0  0  0  0
   -2.5408    9.7381   11.5584 O   0  0  0  0  0  0  0  0  0  0  0  0
   -5.5177    0.2233   10.1233 N   0  0  0  0  0  0  0  0  0  0  0  0
   -4.2475    0.2807   10.8802 S   0  0  0  0  0  0  0  0  0  0  0  0
   -3.1232    0.1831   10.0239 O   0  0  0  0  0  0  0  0  0  0  0  0
   -4.2901   -0.6545   11.9122 O   0  0  0  0  0  0  0  0  0  0  0  0
   -5.4932    0.9059    9.3658 H   0  0  0  0  0  0  0  0  0  0  0  0
   -6.2955    0.4361   10.7478 H   0  0  0  0  0  0  0  0  0  0  0  0
   -6.7665    6.1537   13.5254 C   0  0  0  0  0  0  0  0  0  0  0  0
   -5.5280    5.8792   12.7983 N   0  0  0  0  0  0  0  0  0  0  0  0
   -5.6691    5.5586   11.8403 H   0  0  0  0  0  0  0  0  0  0  0  0
  1 21  1  0  0  0
  1  4  1  0  0  0
  1  7  2  0  0  0
  2  3  1  0  0  0
  2  8  1  0  0  0
  3  6  1  0  0  0
  3 27  1  0  0  0
 26 27  1  0  0  0
 12 13  2  0  0  0
 12 17  1  0  0  0
 13 14  1  0  0  0
 14 15  2  0  0  0
 14 19  1  0  0  0
 15 16  1  0  0  0
 18 19  1  0  0  0
 20 21  1  0  0  0
 21 22  2  0  0  0
 21 23  2  0  0  0
  4  5  1  0  0  0
  5  6  2  0  0  0
  5  9  1  0  0  0
  6  7  1  0  0  0
  8  9  1  0  0  0
  8 16  1  0  0  0
  9 10  2  0  0  0
  9 11  2  0  0  0
 16 17  2  0  0  0
 20 24  1  0  0  0
 20 25  1  0  0  0
 27 28  1  0  0  0
M  END
> <minimizedAffinity>
-6.64712

$$$$
1BNV_AL7_A_555


 28 30  0  0  0  0  0  0  0  0999 V2000
   -5.3449    1.7494   15.5478 C   0  0  0  0  0  0  0  0  0  0  0  0
   -4.0807    3.2312   11.2292 C   0  0  0  0  0  0  0  0  0  0  0  0
   -3.6616    2.0568   12.1265 C   0  0  0  0  0  0  0  0  0  0  0  0
   -5.4693    3.4573   15.4451 S   0  0  0  0  0  0  0  0  0  0  0  0
   -4.7377    3.3900   13.9191 C   0  0  0  0  0  0  0  0  0  0  0  0
   -4.3843    2.1122   13.4705 C   0  0  0  0  0  0  0  0  0  0  0  0
   -4.7505    1.1939   14.4287 C   0  0  0  0  0  0  0  0  0  0  0  0
   -3.5759    4.4252   11.9041 N   0  0  0  0  0  0  0  0  0  0  0  0
   -4.4891    4.8237   13.0239 S   0  0  0  0  0  0  0  0  0  0  0  0
   -5.7866    5.3075   12.4624 O   0  0  0  0  0  0  0  0  0  0  0  0
   -3.8827    5.7992   13.9728 O   0  0  0  0  0  0  0  0  0  0  0  0
   -1.6831    6.8536    9.9824 C   0  0  0  0  0  0  0  0  0  0  0  0
   -0.4459    6.8314   10.6052 C   0  0  0  0  0  0  0  0  0  0  0  0
   -0.2295    5.9669   11.6748 C   0  0  0  0  0  0  0  0  0  0  0  0
   -1.2461    5.1108   12.1246 C   0  0  0  0  0  0  0  0  0  0  0  0
   -2.5099    5.1423   11.4998 C   0  0  0  0  0  0  0  0  0  0  0  0
   -2.7061    6.0198   10.4254 C   0  0  0  0  0  0  0  0  0  0  0  0
    2.1382    5.7940   11.6646 C   0  0  0  0  0  0  0  0  0  0  0  0
    0.8850    5.9338   12.3456 O   0  0  0  0  0  0  0  0  0  0  0  0
   -7.3896    1.1036   17.1850 N   0  0  0  0  0  0  0  0  0  0  0  0
   -5.9437    0.9086   16.9383 S   0  0  0  0  0  0  0  0  0  0  0  0
   -5.6235   -0.4595   16.7575 O   0  0  0  0  0  0  0  0  0  0  0  0
   -5.2201    1.5605   17.9348 O   0  0  0  0  0  0  0  0  0  0  0  0
   -7.9255    0.6286   16.4587 H   0  0  0  0  0  0  0  0  0  0  0  0
   -7.6056    2.1003   17.1701 H   0  0  0  0  0  0  0  0  0  0  0  0
   -2.1313    0.8578   11.4376 C   0  0  0  0  0  0  0  0  0  0  0  0
   -2.2132    2.0330   12.3036 N   0  0  0  0  0  0  0  0  0  0  0  0
   -1.9131    1.8651   13.2639 H   0  0  0  0  0  0  0  0  0  0  0  0
  1 21  1  0  0  0
  1  4  1  0  0  0
  1  7  2  0  0  0
  2  3  1  0  0  0
  2  8  1  0  0  0
  3  6  1  0  0  0
  3 27  1  0  0  0
 26 27  1  0  0  0
 12 13  2  0  0  0
 12 17  1  0  0  0
 13 14  1  0  0  0
 14 15  2  0  0  0
 14 19  1  0  0  0
 15 16  1  0  0  0
 18 19  1  0  0  0
 20 21  1  0  0  0
 21 22  2  0  0  0
 21 23  2  0  0  0
  4  5  1  0  0  0
  5  6  2  0  0  0
  5  9  1  0  0  0
  6  7  1  0  0  0
  8  9  1  0  0  0
  8 16  1  0  0  0
  9 10  2  0  0  0
  9 11  2  0  0  0
 16 17  2  0  0  0
 20 24  1  0  0  0
 20 25  1  0  0  0
 27 28  1  0  0  0
M  END
> <minimizedAffinity>
-6.64459

$$$$
1BNV_AL7_A_555


 28 30  0  0  0  0  0  0  0  0999 V2000
   -4.3282    1.5809   11.5120 C   0  0  0  0  0  0  0  0  0  0  0  0
   -5.0346    6.1055   12.7253 C   0  0  0  0  0  0  0  0  0  0  0  0
   -4.5011    5.4020   11.4681 C   0  0  0  0  0  0  0  0  0  0  0  0
   -4.1089    1.7847   13.2012 S   0  0  0  0  0  0  0  0  0  0  0  0
   -4.2472    3.4592   12.9879 C   0  0  0  0  0  0  0  0  0  0  0  0
   -4.4465    3.8896   11.6712 C   0  0  0  0  0  0  0  0  0  0  0  0
   -4.4916    2.7849   10.8506 C   0  0  0  0  0  0  0  0  0  0  0  0
   -4.0175    5.8775   13.7498 N   0  0  0  0  0  0  0  0  0  0  0  0
   -4.1580    4.5050   14.3358 S   0  0  0  0  0  0  0  0  0  0  0  0
   -5.4224    4.4271   15.1282 O   0  0  0  0  0  0  0  0  0  0  0  0
   -2.9697    4.0639   15.1187 O   0  0  0  0  0  0  0  0  0  0  0  0
   -2.5913    8.3443   15.9978 C   0  0  0  0  0  0  0  0  0  0  0  0
   -1.4042    8.6764   15.3656 C   0  0  0  0  0  0  0  0  0  0  0  0
   -1.0842    8.0832   14.1475 C   0  0  0  0  0  0  0  0  0  0  0  0
   -1.9531    7.1596   13.5470 C   0  0  0  0  0  0  0  0  0  0  0  0
   -3.1554    6.8109   14.1964 C   0  0  0  0  0  0  0  0  0  0  0  0
   -3.4578    7.4197   15.4214 C   0  0  0  0  0  0  0  0  0  0  0  0
    0.4178    7.4887   12.4077 C   0  0  0  0  0  0  0  0  0  0  0  0
    0.0383    8.3005   13.5261 O   0  0  0  0  0  0  0  0  0  0  0  0
   -4.2751   -1.1004   11.8064 N   0  0  0  0  0  0  0  0  0  0  0  0
   -4.3427   -0.0043   10.8147 S   0  0  0  0  0  0  0  0  0  0  0  0
   -5.5117   -0.0897   10.0191 O   0  0  0  0  0  0  0  0  0  0  0  0
   -3.1443    0.0419   10.1052 O   0  0  0  0  0  0  0  0  0  0  0  0
   -5.1498   -1.1398   12.3297 H   0  0  0  0  0  0  0  0  0  0  0  0
   -3.5018   -0.9301   12.4493 H   0  0  0  0  0  0  0  0  0  0  0  0
   -3.8503    6.9406   10.2585 C   0  0  0  0  0  0  0  0  0  0  0  0
   -3.1951    5.9344   11.0928 N   0  0  0  0  0  0  0  0  0  0  0  0
   -2.6108    5.2787   10.5741 H   0  0  0  0  0  0  0  0  0  0  0  0
  1 21  1  0  0  0
  1  4  1  0  0  0
  1  7  2  0  0  0
  2  3  1  0  0  0
  2  8  1  0  0  0
  3  6  1  0  0  0
  3 27  1  0  0  0
 26 27  1  0  0  0
 12 13  2  0  0  0
 12 17  1  0  0  0
 13 14  1  0  0  0
 14 15  2  0  0  0
 14 19  1  0  0  0
 15 16  1  0  0  0
 18 19  1  0  0  0
 20 21  1  0  0  0
 21 22  2  0  0  0
 21 23  2  0  0  0
  4  5  1  0  0  0
  5  6  2  0  0  0
  5  9  1  0  0  0
  6  7  1  0  0  0
  8  9  1  0  0  0
  8 16  1  0  0  0
  9 10  2  0  0  0
  9 11  2  0  0  0
 16 17  2  0  0  0
 20 24  1  0  0  0
 20 25  1  0  0  0
 27 28  1  0  0  0
M  END
> <minimizedAffinity>
-6.55733

$$$$
1BNV_AL7_A_555


 28 30  0  0  0  0  0  0  0  0999 V2000
   -4.8175    1.9971   14.9306 C   0  0  0  0  0  0  0  0  0  0  0  0
   -4.8639    5.1199   11.3683 C   0  0  0  0  0  0  0  0  0  0  0  0
   -3.9221    3.9795   11.7840 C   0  0  0  0  0  0  0  0  0  0  0  0
   -5.5456    3.4656   15.4368 S   0  0  0  0  0  0  0  0  0  0  0  0
   -5.0926    4.1649   13.9622 C   0  0  0  0  0  0  0  0  0  0  0  0
   -4.3922    3.3303   13.0837 C   0  0  0  0  0  0  0  0  0  0  0  0
   -4.2551    2.0923   13.6702 C   0  0  0  0  0  0  0  0  0  0  0  0
   -4.7064    6.1401   12.4030 N   0  0  0  0  0  0  0  0  0  0  0  0
   -5.5083    5.7860   13.6189 S   0  0  0  0  0  0  0  0  0  0  0  0
   -6.9653    5.8845   13.3026 O   0  0  0  0  0  0  0  0  0  0  0  0
   -5.1365    6.5696   14.8303 O   0  0  0  0  0  0  0  0  0  0  0  0
   -3.9997    9.4769   11.1626 C   0  0  0  0  0  0  0  0  0  0  0  0
   -2.8699    9.8319   11.8813 C   0  0  0  0  0  0  0  0  0  0  0  0
   -2.3151    8.9267   12.7820 C   0  0  0  0  0  0  0  0  0  0  0  0
   -2.8803    7.6555   12.9645 C   0  0  0  0  0  0  0  0  0  0  0  0
   -4.0382    7.2985   12.2430 C   0  0  0  0  0  0  0  0  0  0  0  0
   -4.5802    8.2244   11.3421 C   0  0  0  0  0  0  0  0  0  0  0  0
   -0.0150    8.6134   13.2798 C   0  0  0  0  0  0  0  0  0  0  0  0
   -1.2922    9.2115   13.5342 O   0  0  0  0  0  0  0  0  0  0  0  0
   -6.0610    0.5072   16.8048 N   0  0  0  0  0  0  0  0  0  0  0  0
   -4.8525    0.6020   15.9561 S   0  0  0  0  0  0  0  0  0  0  0  0
   -4.7152   -0.5281   15.1130 O   0  0  0  0  0  0  0  0  0  0  0  0
   -3.7504    0.8777   16.7629 O   0  0  0  0  0  0  0  0  0  0  0  0
   -6.8720    0.3055   16.2201 H   0  0  0  0  0  0  0  0  0  0  0  0
   -6.2046    1.3918   17.2919 H   0  0  0  0  0  0  0  0  0  0  0  0
   -2.1332    3.4946   10.8794 C   0  0  0  0  0  0  0  0  0  0  0  0
   -2.5484    4.4589   11.8970 N   0  0  0  0  0  0  0  0  0  0  0  0
   -2.1272    4.3058   12.8132 H   0  0  0  0  0  0  0  0  0  0  0  0
  1 21  1  0  0  0
  1  4  1  0  0  0
  1  7  2  0  0  0
  2  3  1  0  0  0
  2  8  1  0  0  0
  3  6  1  0  0  0
  3 27  1  0  0  0
 26 27  1  0  0  0
 12 13  2  0  0  0
 12 17  1  0  0  0
 13 14  1  0  0  0
 14 15  2  0  0  0
 14 19  1  0  0  0
 15 16  1  0  0  0
 18 19  1  0  0  0
 20 21  1  0  0  0
 21 22  2  0  0  0
 21 23  2  0  0  0
  4  5  1  0  0  0
  5  6  2  0  0  0
  5  9  1  0  0  0
  6  7  1  0  0  0
  8  9  1  0  0  0
  8 16  1  0  0  0
  9 10  2  0  0  0
  9 11  2  0  0  0
 16 17  2  0  0  0
 20 24  1  0  0  0
 20 25  1  0  0  0
 27 28  1  0  0  0
M  END
> <minimizedAffinity>
-6.44836

$$$$
1BNV_AL7_A_555


 28 30  0  0  0  0  0  0  0  0999 V2000
   -2.0298    7.6878   14.0958 C   0  0  0  0  0  0  0  0  0  0  0  0
   -4.6877    4.6678   11.5941 C   0  0  0  0  0  0  0  0  0  0  0  0
   -4.9176    5.5031   12.8627 C   0  0  0  0  0  0  0  0  0  0  0  0
   -1.0425    6.4867   13.3708 S   0  0  0  0  0  0  0  0  0  0  0  0
   -2.4439    5.6741   12.8765 C   0  0  0  0  0  0  0  0  0  0  0  0
   -3.6546    6.2707   13.2467 C   0  0  0  0  0  0  0  0  0  0  0  0
   -3.3797    7.4266   13.9422 C   0  0  0  0  0  0  0  0  0  0  0  0
   -3.7068    3.6545   11.9778 N   0  0  0  0  0  0  0  0  0  0  0  0
   -2.3231    4.2308   11.9705 S   0  0  0  0  0  0  0  0  0  0  0  0
   -1.9185    4.5409   10.5659 O   0  0  0  0  0  0  0  0  0  0  0  0
   -1.3192    3.3865   12.6769 O   0  0  0  0  0  0  0  0  0  0  0  0
   -4.1294    0.1344   11.2016 C   0  0  0  0  0  0  0  0  0  0  0  0
   -4.3987   -0.4172   12.4434 C   0  0  0  0  0  0  0  0  0  0  0  0
   -4.4671    0.4082   13.5625 C   0  0  0  0  0  0  0  0  0  0  0  0
   -4.2757    1.7934   13.4473 C   0  0  0  0  0  0  0  0  0  0  0  0
   -3.9883    2.3539   12.1856 C   0  0  0  0  0  0  0  0  0  0  0  0
   -3.9240    1.5052   11.0727 C   0  0  0  0  0  0  0  0  0  0  0  0
   -4.7706    0.8590   15.8735 C   0  0  0  0  0  0  0  0  0  0  0  0
   -4.6559   -0.0451   14.7675 O   0  0  0  0  0  0  0  0  0  0  0  0
   -1.9251   10.3467   14.5403 N   0  0  0  0  0  0  0  0  0  0  0  0
   -1.3132    9.0469   14.8948 S   0  0  0  0  0  0  0  0  0  0  0  0
   -1.3946    8.7923   16.2860 O   0  0  0  0  0  0  0  0  0  0  0  0
   -0.0303    8.9855   14.3545 O   0  0  0  0  0  0  0  0  0  0  0  0
   -2.8651   10.3983   14.9329 H   0  0  0  0  0  0  0  0  0  0  0  0
   -1.9755   10.4332   13.5252 H   0  0  0  0  0  0  0  0  0  0  0  0
   -6.5639    5.5053   14.1052 C   0  0  0  0  0  0  0  0  0  0  0  0
   -5.3800    4.6596   13.9602 N   0  0  0  0  0  0  0  0  0  0  0  0
   -4.7651    4.6597   14.7740 H   0  0  0  0  0  0  0  0  0  0  0  0
  1 21  1  0  0  0
  1  4  1  0  0  0
  1  7  2  0  0  0
  2  3  1  0  0  0
  2  8  1  0  0  0
  3  6  1  0  0  0
  3 27  1  0  0  0
 26 27  1  0  0  0
 12 13  2  0  0  0
 12 17  1  0  0  0
 13 14  1  0  0  0
 14 15  2  0  0  0
 14 19  1  0  0  0
 15 16  1  0  0  0
 18 19  1  0  0  0
 20 21  1  0  0  0
 21 22  2  0  0  0
 21 23  2  0  0  0
  4  5  1  0  0  0
  5  6  2  0  0  0
  5  9  1  0  0  0
  6  7  1  0  0  0
  8  9  1  0  0  0
  8 16  1  0  0  0
  9 10  2  0  0  0
  9 11  2  0  0  0
 16 17  2  0  0  0
 20 24  1  0  0  0
 20 25  1  0  0  0
 27 28  1  0  0  0
M  END
> <minimizedAffinity>
-6.35265

$$$$
1BNV_AL7_A_555


 28 30  0  0  0  0  0  0  0  0999 V2000
   -3.6930    0.3060   11.8499 C   0  0  0  0  0  0  0  0  0  0  0  0
   -3.4878    4.3993   14.2262 C   0  0  0  0  0  0  0  0  0  0  0  0
   -4.5983    3.3755   13.9455 C   0  0  0  0  0  0  0  0  0  0  0  0
   -2.5414    1.3542   11.1301 S   0  0  0  0  0  0  0  0  0  0  0  0
   -3.0553    2.5869   12.1717 C   0  0  0  0  0  0  0  0  0  0  0  0
   -4.0862    2.2459   13.0547 C   0  0  0  0  0  0  0  0  0  0  0  0
   -4.4255    0.9281   12.8450 C   0  0  0  0  0  0  0  0  0  0  0  0
   -3.1992    5.0126   12.9313 N   0  0  0  0  0  0  0  0  0  0  0  0
   -2.3117    4.1239   12.1131 S   0  0  0  0  0  0  0  0  0  0  0  0
   -0.9557    4.0603   12.7376 O   0  0  0  0  0  0  0  0  0  0  0  0
   -2.2556    4.4971   10.6718 O   0  0  0  0  0  0  0  0  0  0  0  0
   -2.9318    8.5983   12.4376 C   0  0  0  0  0  0  0  0  0  0  0  0
   -4.1038    8.8970   11.7621 C   0  0  0  0  0  0  0  0  0  0  0  0
   -5.0174    7.8829   11.4880 C   0  0  0  0  0  0  0  0  0  0  0  0
   -4.7706    6.5631   11.8952 C   0  0  0  0  0  0  0  0  0  0  0  0
   -3.5716    6.2558   12.5710 C   0  0  0  0  0  0  0  0  0  0  0  0
   -2.6661    7.2914   12.8366 C   0  0  0  0  0  0  0  0  0  0  0  0
   -6.7473    6.9853   10.1323 C   0  0  0  0  0  0  0  0  0  0  0  0
   -6.1089    8.0769   10.8066 O   0  0  0  0  0  0  0  0  0  0  0  0
   -2.7126   -2.2057   11.7562 N   0  0  0  0  0  0  0  0  0  0  0  0
   -3.8309   -1.3383   11.3242 S   0  0  0  0  0  0  0  0  0  0  0  0
   -5.0772   -1.8158   11.7994 O   0  0  0  0  0  0  0  0  0  0  0  0
   -3.7544   -1.1499    9.9458 O   0  0  0  0  0  0  0  0  0  0  0  0
   -2.7627   -2.3478   12.7650 H   0  0  0  0  0  0  0  0  0  0  0  0
   -1.8260   -1.7607   11.5191 H   0  0  0  0  0  0  0  0  0  0  0  0
   -6.3231    4.2213   14.6961 C   0  0  0  0  0  0  0  0  0  0  0  0
   -5.7652    4.0265   13.3587 N   0  0  0  0  0  0  0  0  0  0  0  0
   -6.3234    3.4196   12.7583 H   0  0  0  0  0  0  0  0  0  0  0  0
  1 21  1  0  0  0
  1  4  1  0  0  0
  1  7  2  0  0  0
  2  3  1  0  0  0
  2  8  1  0  0  0
  3  6  1  0  0  0
  3 27  1  0  0  0
 26 27  1  0  0  0
 12 13  2  0  0  0
 12 17  1  0  0  0
 13 14  1  0  0  0
 14 15  2  0  0  0
 14 19  1  0  0  0
 15 16  1  0  0  0
 18 19  1  0  0  0
 20 21  1  0  0  0
 21 22  2  0  0  0
 21 23  2  0  0  0
  4  5  1  0  0  0
  5  6  2  0  0  0
  5  9  1  0  0  0
  6  7  1  0  0  0
  8  9  1  0  0  0
  8 16  1  0  0  0
  9 10  2  0  0  0
  9 11  2  0  0  0
 16 17  2  0  0  0
 20 24  1  0  0  0
 20 25  1  0  0  0
 27 28  1  0  0  0
M  END
> <minimizedAffinity>
-6.33193

$$$$
