1BNV_AL7_A_555
  RCSB PDB12061702053D
Coordinates from PDB:1BNV:A:555 Model:1 without hydrogens
 25 27  0  0  0  0            999 V2000
   -5.4570    1.8790   15.8760   C 0  0  0  0  0  0  0  0  0  0  0  0
   -4.1420    4.6350   12.2540   C 0  0  0  0  0  0  0  0  0  0  0  0
   -3.4840    3.4720   13.0120   C 0  0  0  0  0  0  0  0  0  0  0  0
   -1.5470    3.0460   12.4460   C 0  0  0  0  0  0  0  0  0  0  0  0
   -2.6170    8.7210   11.8780   C 0  0  0  0  0  0  0  0  0  0  0  0
   -1.8960    9.1920   12.9630   C 0  0  0  0  0  0  0  0  0  0  0  0
   -1.9140    8.4830   14.1610   C 0  0  0  0  0  0  0  0  0  0  0  0
   -2.6460    7.2920   14.2810   C 0  0  0  0  0  0  0  0  0  0  0  0
   -0.6030   10.1410   15.2420   C 0  0  0  0  0  0  0  0  0  0  0  0
   -5.6080   -0.7560   16.4350   N 0  0  0  0  0  0  0  0  0  0  0  0
   -5.9320    0.5970   16.9390   S 0  0  0  0  0  0  0  0  0  0  0  0
   -5.3140    0.8520   18.1880   O 0  0  0  0  0  0  0  0  0  0  0  0
   -7.3140    0.7730   16.9140   O 0  0  0  0  0  0  0  0  0  0  0  0
   -6.1480    3.4410   16.0360   S 0  0  0  0  0  0  0  0  0  0  0  0
   -5.2150    3.9570   14.7200   C 0  0  0  0  0  0  0  0  0  0  0  0
   -4.3770    2.9900   14.1530   C 0  0  0  0  0  0  0  0  0  0  0  0
   -4.5440    1.8080   14.8390   C 0  0  0  0  0  0  0  0  0  0  0  0
   -4.1910    5.7360   13.2140   N 0  0  0  0  0  0  0  0  0  0  0  0
   -5.3450    5.5640   14.1550   S 0  0  0  0  0  0  0  0  0  0  0  0
   -6.6280    5.7420   13.4100   O 0  0  0  0  0  0  0  0  0  0  0  0
   -5.2660    6.4310   15.3640   O 0  0  0  0  0  0  0  0  0  0  0  0
   -2.1620    3.8540   13.4980   N 0  0  0  0  0  0  0  0  0  0  0  0
   -3.3910    6.8190   13.1810   C 0  0  0  0  0  0  0  0  0  0  0  0
   -3.3590    7.5480   11.9850   C 0  0  0  0  0  0  0  0  0  0  0  0
   -1.3110    8.8950   15.2380   O 0  0  0  0  0  0  0  0  0  0  0  0
  1 11  1  0  0  0  0
  1 14  1  0  0  0  0
  1 17  2  0  0  0  0
  2  3  1  0  0  0  0
  2 18  1  0  0  0  0
  3 16  1  0  0  0  0
  3 22  1  0  0  0  0
  4 22  1  0  0  0  0
  5  6  2  0  0  0  0
  5 24  1  0  0  0  0
  6  7  1  0  0  0  0
  7  8  2  0  0  0  0
  7 25  1  0  0  0  0
  8 23  1  0  0  0  0
  9 25  1  0  0  0  0
 10 11  1  0  0  0  0
 11 12  2  0  0  0  0
 11 13  2  0  0  0  0
 14 15  1  0  0  0  0
 15 16  2  0  0  0  0
 15 19  1  0  0  0  0
 16 17  1  0  0  0  0
 18 19  1  0  0  0  0
 18 23  1  0  0  0  0
 19 20  2  0  0  0  0
 19 21  2  0  0  0  0
 23 24  2  0  0  0  0
A    1
C3
A    2
C9
A    3
C10
A    4
C16
A    5
C19
A    6
C20
A    7
C21
A    8
C22
A    9
C24
A   10
N21
A   11
S1
A   12
O1A
A   13
O2A
A   14
S2
A   15
C6
A   16
C5
A   17
C4
A   18
N8
A   19
S7
A   20
O3B
A   21
O4B
A   22
N15
A   23
C17
A   24
C18
A   25
O23
M  END
>  <InstanceId>
1BNV_AL7_A_555

>  <ChemCompId>
AL7

>  <PdbId>
1BNV

>  <ChainId>
A

>  <ResidueNumber>
555

>  <InsertionCode>


>  <Model>
1

>  <AltIds>


>  <MissingHeavyAtoms>
0

>  <ObservedFormula>
C14 N3 O5 S3

>  <Name>
(S)-3,4-DIHYDRO-2-(3-METHOXYPHENYL)-4-METHYLAMINO-2H-THIENO[3,2-E]-1,2-THIAZINE-6-SULFONAMIDE-1,1-DIOXIDE

>  <SystematicName>
(4S)-2-(3-methoxyphenyl)-4-methylamino-1,1-dioxo-3,4-dihydrothieno[4,5-e][1,2]thiazine-6-sulfonamide

>  <Synonyms>
AL7099A

>  <Type>
NON-POLYMER

>  <Formula>
C14 H17 N3 O5 S3

>  <MolecularWeight>
403.497

>  <ModifiedDate>
2011-06-04

>  <Parent>


>  <OneLetterCode>


>  <SubcomponentList>


>  <AmbiguousFlag>
N

>  <InChI>
InChI=1S/C14H17N3O5S3/c1-16-12-8-17(9-4-3-5-10(6-9)22-2)25(20,21)14-11(12)7-13(23-14)24(15,18)19/h3-7,12,16H,8H2,1-2H3,(H2,15,18,19)/t12-/m1/s1

>  <InChIKey>
RMOXCYSVWCHXII-GFCCVEGCSA-N

>  <SMILES>
CN[C@@H]1CN(S(=O)(=O)c2c1cc(s2)S(=O)(=O)N)c3cccc(c3)OC

$$$$
