4R4I_3HV_A_201


 44 49  0  0  0  0  0  0  0  0999 V2000
    8.7244   12.3124   26.0550 C   0  0  0  0  0  0  0  0  0  0  0  0
    7.5548   12.0181   26.7145 C   0  0  0  0  0  0  0  0  0  0  0  0
    8.7224   13.2097   24.9872 C   0  0  0  0  0  0  0  0  0  0  0  0
    6.3453   13.5282   25.2325 C   0  0  0  0  0  0  0  0  0  0  0  0
    6.3834   12.6179   26.2977 C   0  0  0  0  0  0  0  0  0  0  0  0
    7.5353   13.8164   24.5712 C   0  0  0  0  0  0  0  0  0  0  0  0
    4.6832   15.5535   24.9573 C   0  0  0  0  0  0  0  0  0  0  0  0
    5.0533   14.1840   24.7721 C   0  0  0  0  0  0  0  0  0  0  0  0
    3.3960   15.6901   24.3525 C   0  0  0  0  0  0  0  0  0  0  0  0
    3.0668   14.5048   23.8581 N   0  0  0  0  0  0  0  0  0  0  0  0
    4.0287   13.6313   24.1134 N   0  0  0  0  0  0  0  0  0  0  0  0
    3.9771   12.2452   23.7123 C   0  0  0  0  0  0  0  0  0  0  0  0
    3.2647   11.3217   24.4545 C   0  0  0  0  0  0  0  0  0  0  0  0
    3.2462    9.9933   24.0586 C   0  0  0  0  0  0  0  0  0  0  0  0
    3.9452    9.5957   22.9294 C   0  0  0  0  0  0  0  0  0  0  0  0
    3.8641    7.9270   22.5037 Cl  0  0  0  0  0  0  0  0  0  0  0  0
    4.6790   10.5287   22.1958 C   0  0  0  0  0  0  0  0  0  0  0  0
    5.5938   10.1545   20.7758 Cl  0  0  0  0  0  0  0  0  0  0  0  0
    4.6767   11.8493   22.5892 C   0  0  0  0  0  0  0  0  0  0  0  0
    2.5497   16.9271   24.2639 C   0  0  0  0  0  0  0  0  0  0  0  0
    2.2172   17.5110   25.3252 O   0  0  0  0  0  0  0  0  0  0  0  0
    2.1703   17.3838   23.1494 O   0  0  0  0  0  0  0  0  0  0  0  0
    2.4173   16.9497   22.3566 H   0  0  0  0  0  0  0  0  0  0  0  0
   10.0007   11.6547   26.5182 C   0  0  0  0  0  0  0  0  0  0  0  0
   14.8613   13.6315   23.2056 C   0  0  0  0  0  0  0  0  0  0  0  0
   11.8585   10.6727   23.4536 C   0  0  0  0  0  0  0  0  0  0  0  0
   12.1392   13.8841   26.5121 S   0  0  0  0  0  0  0  0  0  0  0  0
   11.9930   12.6599   25.3930 C   0  0  0  0  0  0  0  0  0  0  0  0
   12.9351   12.6504   24.3329 C   0  0  0  0  0  0  0  0  0  0  0  0
   12.8731   11.6608   23.3657 C   0  0  0  0  0  0  0  0  0  0  0  0
   13.8084   11.6474   22.3113 C   0  0  0  0  0  0  0  0  0  0  0  0
   14.7912   12.6326   22.2459 C   0  0  0  0  0  0  0  0  0  0  0  0
   13.9459   13.6462   24.2527 C   0  0  0  0  0  0  0  0  0  0  0  0
   10.9638   10.7473   24.5229 C   0  0  0  0  0  0  0  0  0  0  0  0
   11.0262   11.7046   25.4689 N   0  0  0  0  0  0  0  0  0  0  0  0
   16.9460   13.3898   19.4939 C   0  0  0  0  0  0  0  0  0  0  0  0
   15.7870   12.6056   21.1112 C   0  0  0  0  0  0  0  0  0  0  0  0
   16.5724   11.5286   20.6625 C   0  0  0  0  0  0  0  0  0  0  0  0
   17.3486   12.0487   19.5633 C   0  0  0  0  0  0  0  0  0  0  0  0
   16.0372   13.6585   20.3899 O   0  0  0  0  0  0  0  0  0  0  0  0
   17.3919   14.4415   18.5525 C   0  0  0  0  0  0  0  0  0  0  0  0
   18.4094   14.2890   17.8312 O   0  0  0  0  0  0  0  0  0  0  0  0
   16.6879   15.4778   18.5357 O   0  0  0  0  0  0  0  0  0  0  0  0
   15.9378   15.5437   19.0934 H   0  0  0  0  0  0  0  0  0  0  0  0
 42 41  2  0  0  0
 41 43  1  0  0  0
 41 36  1  0  0  0
 36 39  2  0  0  0
 36 40  1  0  0  0
 39 38  1  0  0  0
 40 37  1  0  0  0
 18 17  1  0  0  0
 38 37  2  0  0  0
 37 32  1  0  0  0
 32 31  2  0  0  0
 32 25  1  0  0  0
 17 19  2  0  0  0
 17 15  1  0  0  0
 19 12  1  0  0  0
 31 30  1  0  0  0
 16 15  1  0  0  0
 25 33  2  0  0  0
 15 14  2  0  0  0
 21 20  2  0  0  0
 30 26  1  0  0  0
 30 29  2  0  0  0
 33 29  1  0  0  0
 12 11  1  0  0  0
 12 13  2  0  0  0
 10 11  1  0  0  0
 10  9  2  0  0  0
 26 34  1  0  0  0
 11  8  1  0  0  0
 20  9  1  0  0  0
 20 22  1  0  0  0
 29 28  1  0  0  0
 14 13  1  0  0  0
  9  7  1  0  0  0
  5  2  2  0  0  0
  5  4  1  0  0  0
  8  7  2  0  0  0
  8  4  1  0  0  0
 34 35  1  0  0  0
 28 35  1  0  0  0
 28 27  2  0  0  0
  2  1  1  0  0  0
  4  6  2  0  0  0
 35 24  1  0  0  0
  1 24  1  0  0  0
  1  3  2  0  0  0
  6  3  1  0  0  0
 43 44  1  0  0  0
 22 23  1  0  0  0
M  END
> <minimizedAffinity>
-8.71707

$$$$
4R4I_3HV_A_201


 44 49  0  0  0  0  0  0  0  0999 V2000
    8.7984   13.9554   26.1857 C   0  0  0  0  0  0  0  0  0  0  0  0
    8.5754   13.7363   24.8472 C   0  0  0  0  0  0  0  0  0  0  0  0
    7.7825   14.4671   26.9929 C   0  0  0  0  0  0  0  0  0  0  0  0
    6.2912   14.5477   25.1002 C   0  0  0  0  0  0  0  0  0  0  0  0
    7.3366   14.0377   24.3179 C   0  0  0  0  0  0  0  0  0  0  0  0
    6.5298   14.7674   26.4535 C   0  0  0  0  0  0  0  0  0  0  0  0
    4.2002   16.1000   24.7025 C   0  0  0  0  0  0  0  0  0  0  0  0
    4.9292   14.8833   24.5144 C   0  0  0  0  0  0  0  0  0  0  0  0
    2.9920   15.9447   23.9557 C   0  0  0  0  0  0  0  0  0  0  0  0
    3.0342   14.7488   23.3850 N   0  0  0  0  0  0  0  0  0  0  0  0
    4.1571   14.1326   23.7209 N   0  0  0  0  0  0  0  0  0  0  0  0
    4.5079   12.8072   23.2685 C   0  0  0  0  0  0  0  0  0  0  0  0
    4.9760   12.6005   21.9842 C   0  0  0  0  0  0  0  0  0  0  0  0
    5.2884   11.3157   21.5681 C   0  0  0  0  0  0  0  0  0  0  0  0
    5.1239   10.2461   22.4345 C   0  0  0  0  0  0  0  0  0  0  0  0
    5.5418    8.6829   21.8394 Cl  0  0  0  0  0  0  0  0  0  0  0  0
    4.6319   10.4583   23.7230 C   0  0  0  0  0  0  0  0  0  0  0  0
    4.3787    9.2073   24.8908 Cl  0  0  0  0  0  0  0  0  0  0  0  0
    4.3404   11.7418   24.1312 C   0  0  0  0  0  0  0  0  0  0  0  0
    1.8688   16.9304   23.8115 C   0  0  0  0  0  0  0  0  0  0  0  0
    2.1450   18.1362   23.5930 O   0  0  0  0  0  0  0  0  0  0  0  0
    0.6626   16.5689   23.9067 O   0  0  0  0  0  0  0  0  0  0  0  0
    0.4544   15.6700   24.0696 H   0  0  0  0  0  0  0  0  0  0  0  0
   10.1541   13.6212   26.7570 C   0  0  0  0  0  0  0  0  0  0  0  0
   14.1955   11.1828   22.7286 C   0  0  0  0  0  0  0  0  0  0  0  0
   12.5712   14.7962   24.1910 C   0  0  0  0  0  0  0  0  0  0  0  0
   11.2098   10.8821   25.7949 S   0  0  0  0  0  0  0  0  0  0  0  0
   11.6849   12.3730   25.2259 C   0  0  0  0  0  0  0  0  0  0  0  0
   12.6758   12.3812   24.2113 C   0  0  0  0  0  0  0  0  0  0  0  0
   13.1187   13.5862   23.6912 C   0  0  0  0  0  0  0  0  0  0  0  0
   14.1025   13.5982   22.6819 C   0  0  0  0  0  0  0  0  0  0  0  0
   14.6271   12.3959   22.2130 C   0  0  0  0  0  0  0  0  0  0  0  0
   13.2196   11.1638   23.7195 C   0  0  0  0  0  0  0  0  0  0  0  0
   11.6020   14.7110   25.1924 C   0  0  0  0  0  0  0  0  0  0  0  0
   11.1644   13.5401   25.6950 N   0  0  0  0  0  0  0  0  0  0  0  0
   16.8603   13.2644   19.5580 C   0  0  0  0  0  0  0  0  0  0  0  0
   15.6800   12.4238   21.1311 C   0  0  0  0  0  0  0  0  0  0  0  0
   16.5657   11.4015   20.7462 C   0  0  0  0  0  0  0  0  0  0  0  0
   17.3574   11.9590   19.6767 C   0  0  0  0  0  0  0  0  0  0  0  0
   15.8885   13.4797   20.4008 O   0  0  0  0  0  0  0  0  0  0  0  0
   17.2751   14.3299   18.6178 C   0  0  0  0  0  0  0  0  0  0  0  0
   18.2469   14.1747   17.8366 O   0  0  0  0  0  0  0  0  0  0  0  0
   16.5938   15.3803   18.6655 O   0  0  0  0  0  0  0  0  0  0  0  0
   15.8778   15.4475   19.2661 H   0  0  0  0  0  0  0  0  0  0  0  0
 42 41  2  0  0  0
 41 43  1  0  0  0
 41 36  1  0  0  0
 36 39  2  0  0  0
 36 40  1  0  0  0
 39 38  1  0  0  0
 40 37  1  0  0  0
 18 17  1  0  0  0
 38 37  2  0  0  0
 37 32  1  0  0  0
 32 31  2  0  0  0
 32 25  1  0  0  0
 17 19  2  0  0  0
 17 15  1  0  0  0
 19 12  1  0  0  0
 31 30  1  0  0  0
 16 15  1  0  0  0
 25 33  2  0  0  0
 15 14  2  0  0  0
 21 20  2  0  0  0
 30 26  1  0  0  0
 30 29  2  0  0  0
 33 29  1  0  0  0
 12 11  1  0  0  0
 12 13  2  0  0  0
 10 11  1  0  0  0
 10  9  2  0  0  0
 26 34  1  0  0  0
 11  8  1  0  0  0
 20  9  1  0  0  0
 20 22  1  0  0  0
 29 28  1  0  0  0
 14 13  1  0  0  0
  9  7  1  0  0  0
  5  2  2  0  0  0
  5  4  1  0  0  0
  8  7  2  0  0  0
  8  4  1  0  0  0
 34 35  1  0  0  0
 28 35  1  0  0  0
 28 27  2  0  0  0
  2  1  1  0  0  0
  4  6  2  0  0  0
 35 24  1  0  0  0
  1 24  1  0  0  0
  1  3  2  0  0  0
  6  3  1  0  0  0
 43 44  1  0  0  0
 22 23  1  0  0  0
M  END
> <minimizedAffinity>
-8.32423

$$$$
4R4I_3HV_A_201


 44 49  0  0  0  0  0  0  0  0999 V2000
    8.7948   11.6485   25.7433 C   0  0  0  0  0  0  0  0  0  0  0  0
    7.7628   11.3959   26.6154 C   0  0  0  0  0  0  0  0  0  0  0  0
    8.6405   11.3961   24.3802 C   0  0  0  0  0  0  0  0  0  0  0  0
    6.3883   10.6230   24.7572 C   0  0  0  0  0  0  0  0  0  0  0  0
    6.5802   10.8834   26.1211 C   0  0  0  0  0  0  0  0  0  0  0  0
    7.4411   10.8807   23.8843 C   0  0  0  0  0  0  0  0  0  0  0  0
    4.8111    8.6776   23.9400 C   0  0  0  0  0  0  0  0  0  0  0  0
    5.0867   10.0542   24.2155 C   0  0  0  0  0  0  0  0  0  0  0  0
    3.4665    8.6427   23.4581 C   0  0  0  0  0  0  0  0  0  0  0  0
    3.0136    9.8886   23.4677 N   0  0  0  0  0  0  0  0  0  0  0  0
    3.9621   10.7057   23.8991 N   0  0  0  0  0  0  0  0  0  0  0  0
    3.7913   12.1339   24.0239 C   0  0  0  0  0  0  0  0  0  0  0  0
    4.2591   12.9891   23.0435 C   0  0  0  0  0  0  0  0  0  0  0  0
    4.0992   14.3576   23.1959 C   0  0  0  0  0  0  0  0  0  0  0  0
    3.4805   14.8623   24.3292 C   0  0  0  0  0  0  0  0  0  0  0  0
    3.3167   16.5752   24.4365 Cl  0  0  0  0  0  0  0  0  0  0  0  0
    3.0286   13.9953   25.3248 C   0  0  0  0  0  0  0  0  0  0  0  0
    2.2482   14.5035   26.7829 Cl  0  0  0  0  0  0  0  0  0  0  0  0
    3.1781   12.6361   25.1549 C   0  0  0  0  0  0  0  0  0  0  0  0
    2.6778    7.4413   23.0236 C   0  0  0  0  0  0  0  0  0  0  0  0
    3.0668    6.3006   23.3778 O   0  0  0  0  0  0  0  0  0  0  0  0
    1.6402    7.5595   22.3137 O   0  0  0  0  0  0  0  0  0  0  0  0
    1.3483    8.4095   22.0485 H   0  0  0  0  0  0  0  0  0  0  0  0
   10.0831   12.2109   26.2910 C   0  0  0  0  0  0  0  0  0  0  0  0
   14.6743   13.2032   22.2360 C   0  0  0  0  0  0  0  0  0  0  0  0
   12.5708   10.2281   24.3708 C   0  0  0  0  0  0  0  0  0  0  0  0
   11.5230   14.5217   24.8317 S   0  0  0  0  0  0  0  0  0  0  0  0
   11.8782   12.9008   24.6949 C   0  0  0  0  0  0  0  0  0  0  0  0
   12.9354   12.5525   23.8161 C   0  0  0  0  0  0  0  0  0  0  0  0
   13.2853   11.2222   23.6533 C   0  0  0  0  0  0  0  0  0  0  0  0
   14.3363   10.8723   22.7817 C   0  0  0  0  0  0  0  0  0  0  0  0
   15.0179   11.8679   22.0853 C   0  0  0  0  0  0  0  0  0  0  0  0
   13.6430   13.5557   23.1002 C   0  0  0  0  0  0  0  0  0  0  0  0
   11.5399   10.6448   25.2152 C   0  0  0  0  0  0  0  0  0  0  0  0
   11.2022   11.9386   25.3807 N   0  0  0  0  0  0  0  0  0  0  0  0
   17.7527   11.7854   19.7822 C   0  0  0  0  0  0  0  0  0  0  0  0
   16.1420   11.4786   21.1554 C   0  0  0  0  0  0  0  0  0  0  0  0
   16.6266   10.1918   20.8600 C   0  0  0  0  0  0  0  0  0  0  0  0
   17.7065   10.3914   19.9245 C   0  0  0  0  0  0  0  0  0  0  0  0
   16.8261   12.3651   20.4938 O   0  0  0  0  0  0  0  0  0  0  0  0
   18.6584   12.5994   18.9406 C   0  0  0  0  0  0  0  0  0  0  0  0
   19.9068   12.4745   19.0081 O   0  0  0  0  0  0  0  0  0  0  0  0
   18.0903   13.4100   18.1725 O   0  0  0  0  0  0  0  0  0  0  0  0
   17.1551   13.4658   18.1588 H   0  0  0  0  0  0  0  0  0  0  0  0
 42 41  2  0  0  0
 41 43  1  0  0  0
 41 36  1  0  0  0
 36 39  2  0  0  0
 36 40  1  0  0  0
 39 38  1  0  0  0
 40 37  1  0  0  0
 18 17  1  0  0  0
 38 37  2  0  0  0
 37 32  1  0  0  0
 32 31  2  0  0  0
 32 25  1  0  0  0
 17 19  2  0  0  0
 17 15  1  0  0  0
 19 12  1  0  0  0
 31 30  1  0  0  0
 16 15  1  0  0  0
 25 33  2  0  0  0
 15 14  2  0  0  0
 21 20  2  0  0  0
 30 26  1  0  0  0
 30 29  2  0  0  0
 33 29  1  0  0  0
 12 11  1  0  0  0
 12 13  2  0  0  0
 10 11  1  0  0  0
 10  9  2  0  0  0
 26 34  1  0  0  0
 11  8  1  0  0  0
 20  9  1  0  0  0
 20 22  1  0  0  0
 29 28  1  0  0  0
 14 13  1  0  0  0
  9  7  1  0  0  0
  5  2  2  0  0  0
  5  4  1  0  0  0
  8  7  2  0  0  0
  8  4  1  0  0  0
 34 35  1  0  0  0
 28 35  1  0  0  0
 28 27  2  0  0  0
  2  1  1  0  0  0
  4  6  2  0  0  0
 35 24  1  0  0  0
  1 24  1  0  0  0
  1  3  2  0  0  0
  6  3  1  0  0  0
 43 44  1  0  0  0
 22 23  1  0  0  0
M  END
> <minimizedAffinity>
-7.66313

$$$$
4R4I_3HV_A_201


 44 49  0  0  0  0  0  0  0  0999 V2000
    6.9245   13.9122   26.3109 C   0  0  0  0  0  0  0  0  0  0  0  0
    7.8855   14.3230   27.2037 C   0  0  0  0  0  0  0  0  0  0  0  0
    7.1514   14.0128   24.9384 C   0  0  0  0  0  0  0  0  0  0  0  0
    9.3338   14.9523   25.3472 C   0  0  0  0  0  0  0  0  0  0  0  0
    9.0697   14.8415   26.7194 C   0  0  0  0  0  0  0  0  0  0  0  0
    8.3523   14.5350   24.4532 C   0  0  0  0  0  0  0  0  0  0  0  0
   10.9753   16.9146   24.7189 C   0  0  0  0  0  0  0  0  0  0  0  0
   10.6367   15.5279   24.8160 C   0  0  0  0  0  0  0  0  0  0  0  0
   12.2940   16.9517   24.1702 C   0  0  0  0  0  0  0  0  0  0  0  0
   12.6759   15.6964   23.9809 N   0  0  0  0  0  0  0  0  0  0  0  0
   11.7056   14.8737   24.3483 N   0  0  0  0  0  0  0  0  0  0  0  0
   11.8017   13.4356   24.2637 C   0  0  0  0  0  0  0  0  0  0  0  0
   11.4965   12.7757   23.0878 C   0  0  0  0  0  0  0  0  0  0  0  0
   11.5787   11.3929   23.0378 C   0  0  0  0  0  0  0  0  0  0  0  0
   11.9575   10.6788   24.1641 C   0  0  0  0  0  0  0  0  0  0  0  0
   12.0404    8.9633   24.0142 Cl  0  0  0  0  0  0  0  0  0  0  0  0
   12.2447   11.3489   25.3539 C   0  0  0  0  0  0  0  0  0  0  0  0
   12.7215   10.5705   26.8235 Cl  0  0  0  0  0  0  0  0  0  0  0  0
   12.1756   12.7247   25.3872 C   0  0  0  0  0  0  0  0  0  0  0  0
   13.1265   18.1626   23.8622 C   0  0  0  0  0  0  0  0  0  0  0  0
   13.3154   19.0140   24.7664 O   0  0  0  0  0  0  0  0  0  0  0  0
   13.6335   18.3365   22.7189 O   0  0  0  0  0  0  0  0  0  0  0  0
   13.4938   17.7026   22.0431 H   0  0  0  0  0  0  0  0  0  0  0  0
    5.6341   13.3444   26.8481 C   0  0  0  0  0  0  0  0  0  0  0  0
    2.1095    9.2579   23.7846 C   0  0  0  0  0  0  0  0  0  0  0  0
    5.9898    9.9950   25.2789 C   0  0  0  0  0  0  0  0  0  0  0  0
    2.7483   12.9886   25.8048 S   0  0  0  0  0  0  0  0  0  0  0  0
    3.9965   11.9003   25.6320 C   0  0  0  0  0  0  0  0  0  0  0  0
    3.6989   10.6929   24.9502 C   0  0  0  0  0  0  0  0  0  0  0  0
    4.6896    9.7418   24.7700 C   0  0  0  0  0  0  0  0  0  0  0  0
    4.3979    8.5411   24.0918 C   0  0  0  0  0  0  0  0  0  0  0  0
    3.1115    8.3156   23.6068 C   0  0  0  0  0  0  0  0  0  0  0  0
    2.3927   10.4480   24.4466 C   0  0  0  0  0  0  0  0  0  0  0  0
    6.2086   11.2038   25.9423 C   0  0  0  0  0  0  0  0  0  0  0  0
    5.2485   12.1336   26.1128 N   0  0  0  0  0  0  0  0  0  0  0  0
    1.8760    5.7500   21.4431 C   0  0  0  0  0  0  0  0  0  0  0  0
    2.8134    7.0252   22.8817 C   0  0  0  0  0  0  0  0  0  0  0  0
    3.3875    5.7570   23.0816 C   0  0  0  0  0  0  0  0  0  0  0  0
    2.7505    4.8892   22.1211 C   0  0  0  0  0  0  0  0  0  0  0  0
    1.9347    6.9606   21.9250 O   0  0  0  0  0  0  0  0  0  0  0  0
    0.9389    5.4360   20.3411 C   0  0  0  0  0  0  0  0  0  0  0  0
   -0.3055    5.5198   20.4932 O   0  0  0  0  0  0  0  0  0  0  0  0
    1.4767    5.0833   19.2658 O   0  0  0  0  0  0  0  0  0  0  0  0
    2.4104    5.0363   19.2023 H   0  0  0  0  0  0  0  0  0  0  0  0
 42 41  2  0  0  0
 41 43  1  0  0  0
 41 36  1  0  0  0
 36 39  2  0  0  0
 36 40  1  0  0  0
 39 38  1  0  0  0
 40 37  1  0  0  0
 18 17  1  0  0  0
 38 37  2  0  0  0
 37 32  1  0  0  0
 32 31  2  0  0  0
 32 25  1  0  0  0
 17 19  2  0  0  0
 17 15  1  0  0  0
 19 12  1  0  0  0
 31 30  1  0  0  0
 16 15  1  0  0  0
 25 33  2  0  0  0
 15 14  2  0  0  0
 21 20  2  0  0  0
 30 26  1  0  0  0
 30 29  2  0  0  0
 33 29  1  0  0  0
 12 11  1  0  0  0
 12 13  2  0  0  0
 10 11  1  0  0  0
 10  9  2  0  0  0
 26 34  1  0  0  0
 11  8  1  0  0  0
 20  9  1  0  0  0
 20 22  1  0  0  0
 29 28  1  0  0  0
 14 13  1  0  0  0
  9  7  1  0  0  0
  5  2  2  0  0  0
  5  4  1  0  0  0
  8  7  2  0  0  0
  8  4  1  0  0  0
 34 35  1  0  0  0
 28 35  1  0  0  0
 28 27  2  0  0  0
  2  1  1  0  0  0
  4  6  2  0  0  0
 35 24  1  0  0  0
  1 24  1  0  0  0
  1  3  2  0  0  0
  6  3  1  0  0  0
 43 44  1  0  0  0
 22 23  1  0  0  0
M  END
> <minimizedAffinity>
-7.20402

$$$$
4R4I_3HV_A_201


 44 49  0  0  0  0  0  0  0  0999 V2000
   10.3080   11.7756   25.7875 C   0  0  0  0  0  0  0  0  0  0  0  0
    9.4465   11.9018   26.8511 C   0  0  0  0  0  0  0  0  0  0  0  0
    9.9468   12.2577   24.5295 C   0  0  0  0  0  0  0  0  0  0  0  0
    7.8271   13.0049   25.4018 C   0  0  0  0  0  0  0  0  0  0  0  0
    8.2207   12.5042   26.6505 C   0  0  0  0  0  0  0  0  0  0  0  0
    8.7070   12.8693   24.3322 C   0  0  0  0  0  0  0  0  0  0  0  0
    6.1452   15.0322   25.4387 C   0  0  0  0  0  0  0  0  0  0  0  0
    6.4748   13.6638   25.1820 C   0  0  0  0  0  0  0  0  0  0  0  0
    4.7713   15.1728   25.0726 C   0  0  0  0  0  0  0  0  0  0  0  0
    4.3582   13.9908   24.6367 N   0  0  0  0  0  0  0  0  0  0  0  0
    5.3490   13.1155   24.7118 N   0  0  0  0  0  0  0  0  0  0  0  0
    5.2254   11.7322   24.3174 C   0  0  0  0  0  0  0  0  0  0  0  0
    4.8686   10.7647   25.2383 C   0  0  0  0  0  0  0  0  0  0  0  0
    4.7750    9.4407   24.8386 C   0  0  0  0  0  0  0  0  0  0  0  0
    5.0455    9.0915   23.5245 C   0  0  0  0  0  0  0  0  0  0  0  0
    4.8993    7.4245   23.1098 Cl  0  0  0  0  0  0  0  0  0  0  0  0
    5.4248   10.0695   22.6043 C   0  0  0  0  0  0  0  0  0  0  0  0
    5.7924    9.7580   20.9427 Cl  0  0  0  0  0  0  0  0  0  0  0  0
    5.4986   11.3846   23.0089 C   0  0  0  0  0  0  0  0  0  0  0  0
    3.9242   16.4104   25.1434 C   0  0  0  0  0  0  0  0  0  0  0  0
    2.6740   16.2914   25.1163 O   0  0  0  0  0  0  0  0  0  0  0  0
    4.4450   17.5577   25.2277 O   0  0  0  0  0  0  0  0  0  0  0  0
    5.3773   17.6487   25.2481 H   0  0  0  0  0  0  0  0  0  0  0  0
   11.6467   11.1183   26.0155 C   0  0  0  0  0  0  0  0  0  0  0  0
   15.7802   11.9345   21.4598 C   0  0  0  0  0  0  0  0  0  0  0  0
   14.1478   13.6534   24.9546 C   0  0  0  0  0  0  0  0  0  0  0  0
   12.7044    9.7211   23.4715 S   0  0  0  0  0  0  0  0  0  0  0  0
   13.2096   11.1917   24.0667 C   0  0  0  0  0  0  0  0  0  0  0  0
   14.2294   11.8567   23.3394 C   0  0  0  0  0  0  0  0  0  0  0  0
   14.6983   13.0844   23.7769 C   0  0  0  0  0  0  0  0  0  0  0  0
   15.7110   13.7489   23.0560 C   0  0  0  0  0  0  0  0  0  0  0  0
   16.2378   13.1654   21.9059 C   0  0  0  0  0  0  0  0  0  0  0  0
   14.7759   11.2771   22.1625 C   0  0  0  0  0  0  0  0  0  0  0  0
   13.1493   12.9400   25.6205 C   0  0  0  0  0  0  0  0  0  0  0  0
   12.6866   11.7490   25.1932 N   0  0  0  0  0  0  0  0  0  0  0  0
   18.3213   14.6871   19.4292 C   0  0  0  0  0  0  0  0  0  0  0  0
   17.3218   13.8888   21.1432 C   0  0  0  0  0  0  0  0  0  0  0  0
   18.4675   14.5295   21.6480 C   0  0  0  0  0  0  0  0  0  0  0  0
   19.1524   15.0605   20.4947 C   0  0  0  0  0  0  0  0  0  0  0  0
   17.2930   14.0028   19.8479 O   0  0  0  0  0  0  0  0  0  0  0  0
   18.5008   14.9439   17.9825 C   0  0  0  0  0  0  0  0  0  0  0  0
   18.1219   16.0192   17.4543 O   0  0  0  0  0  0  0  0  0  0  0  0
   19.0478   14.0186   17.3389 O   0  0  0  0  0  0  0  0  0  0  0  0
   19.3129   13.2349   17.7788 H   0  0  0  0  0  0  0  0  0  0  0  0
 42 41  2  0  0  0
 41 43  1  0  0  0
 41 36  1  0  0  0
 36 39  2  0  0  0
 36 40  1  0  0  0
 39 38  1  0  0  0
 40 37  1  0  0  0
 18 17  1  0  0  0
 38 37  2  0  0  0
 37 32  1  0  0  0
 32 31  2  0  0  0
 32 25  1  0  0  0
 17 19  2  0  0  0
 17 15  1  0  0  0
 19 12  1  0  0  0
 31 30  1  0  0  0
 16 15  1  0  0  0
 25 33  2  0  0  0
 15 14  2  0  0  0
 21 20  2  0  0  0
 30 26  1  0  0  0
 30 29  2  0  0  0
 33 29  1  0  0  0
 12 11  1  0  0  0
 12 13  2  0  0  0
 10 11  1  0  0  0
 10  9  2  0  0  0
 26 34  1  0  0  0
 11  8  1  0  0  0
 20  9  1  0  0  0
 20 22  1  0  0  0
 29 28  1  0  0  0
 14 13  1  0  0  0
  9  7  1  0  0  0
  5  2  2  0  0  0
  5  4  1  0  0  0
  8  7  2  0  0  0
  8  4  1  0  0  0
 34 35  1  0  0  0
 28 35  1  0  0  0
 28 27  2  0  0  0
  2  1  1  0  0  0
  4  6  2  0  0  0
 35 24  1  0  0  0
  1 24  1  0  0  0
  1  3  2  0  0  0
  6  3  1  0  0  0
 43 44  1  0  0  0
 22 23  1  0  0  0
M  END
> <minimizedAffinity>
-7.07646

$$$$
4R4I_3HV_A_201


 44 49  0  0  0  0  0  0  0  0999 V2000
    8.8383   15.1545   25.9772 C   0  0  0  0  0  0  0  0  0  0  0  0
    9.0910   15.1611   24.6261 C   0  0  0  0  0  0  0  0  0  0  0  0
    9.8750   15.3616   26.8871 C   0  0  0  0  0  0  0  0  0  0  0  0
   11.4489   15.5846   25.0745 C   0  0  0  0  0  0  0  0  0  0  0  0
   10.3841   15.3677   24.1890 C   0  0  0  0  0  0  0  0  0  0  0  0
   11.1810   15.5734   26.4400 C   0  0  0  0  0  0  0  0  0  0  0  0
   13.5832   17.0492   24.5849 C   0  0  0  0  0  0  0  0  0  0  0  0
   12.8729   15.8072   24.5911 C   0  0  0  0  0  0  0  0  0  0  0  0
   14.8743   16.7521   24.0500 C   0  0  0  0  0  0  0  0  0  0  0  0
   14.8998   15.4534   23.7843 N   0  0  0  0  0  0  0  0  0  0  0  0
   13.7313   14.9114   24.0912 N   0  0  0  0  0  0  0  0  0  0  0  0
   13.4291   13.5105   23.9161 C   0  0  0  0  0  0  0  0  0  0  0  0
   12.9152   13.0433   22.7207 C   0  0  0  0  0  0  0  0  0  0  0  0
   12.6159   11.6967   22.5842 C   0  0  0  0  0  0  0  0  0  0  0  0
   12.8246   10.8282   23.6444 C   0  0  0  0  0  0  0  0  0  0  0  0
   12.4319    9.1691   23.3885 Cl  0  0  0  0  0  0  0  0  0  0  0  0
   13.3245   11.3091   24.8552 C   0  0  0  0  0  0  0  0  0  0  0  0
   13.6218   10.3278   26.2486 Cl  0  0  0  0  0  0  0  0  0  0  0  0
   13.6340   12.6466   24.9740 C   0  0  0  0  0  0  0  0  0  0  0  0
   16.0160   17.7011   23.8261 C   0  0  0  0  0  0  0  0  0  0  0  0
   16.1582   18.2209   22.6913 O   0  0  0  0  0  0  0  0  0  0  0  0
   16.8278   17.9807   24.7520 O   0  0  0  0  0  0  0  0  0  0  0  0
   16.7235   17.5941   25.5992 H   0  0  0  0  0  0  0  0  0  0  0  0
    7.4222   14.9305   26.4468 C   0  0  0  0  0  0  0  0  0  0  0  0
    3.6701   10.8364   23.6780 C   0  0  0  0  0  0  0  0  0  0  0  0
    7.2499   11.2627   25.8772 C   0  0  0  0  0  0  0  0  0  0  0  0
    4.7935   14.8140   24.8285 S   0  0  0  0  0  0  0  0  0  0  0  0
    5.7493   13.5157   25.2446 C   0  0  0  0  0  0  0  0  0  0  0  0
    5.3048   12.2367   24.8231 C   0  0  0  0  0  0  0  0  0  0  0  0
    6.0505   11.1116   25.1341 C   0  0  0  0  0  0  0  0  0  0  0  0
    5.6125    9.8389   24.7159 C   0  0  0  0  0  0  0  0  0  0  0  0
    4.4283    9.7182   23.9920 C   0  0  0  0  0  0  0  0  0  0  0  0
    4.1006   12.0960   24.0815 C   0  0  0  0  0  0  0  0  0  0  0  0
    7.6234   12.5520   26.2612 C   0  0  0  0  0  0  0  0  0  0  0  0
    6.9035   13.6487   25.9539 N   0  0  0  0  0  0  0  0  0  0  0  0
    2.7340    6.9150   22.5561 C   0  0  0  0  0  0  0  0  0  0  0  0
    3.9715    8.3487   23.5499 C   0  0  0  0  0  0  0  0  0  0  0  0
    4.5694    7.1020   23.8075 C   0  0  0  0  0  0  0  0  0  0  0  0
    3.7322    6.1291   23.1489 C   0  0  0  0  0  0  0  0  0  0  0  0
    2.9033    8.1794   22.8275 O   0  0  0  0  0  0  0  0  0  0  0  0
    1.5757    6.4803   21.7435 C   0  0  0  0  0  0  0  0  0  0  0  0
    0.5525    7.1992   21.6210 O   0  0  0  0  0  0  0  0  0  0  0  0
    1.6944    5.3574   21.2006 O   0  0  0  0  0  0  0  0  0  0  0  0
    2.4783    4.8587   21.3223 H   0  0  0  0  0  0  0  0  0  0  0  0
 42 41  2  0  0  0
 41 43  1  0  0  0
 41 36  1  0  0  0
 36 39  2  0  0  0
 36 40  1  0  0  0
 39 38  1  0  0  0
 40 37  1  0  0  0
 18 17  1  0  0  0
 38 37  2  0  0  0
 37 32  1  0  0  0
 32 31  2  0  0  0
 32 25  1  0  0  0
 17 19  2  0  0  0
 17 15  1  0  0  0
 19 12  1  0  0  0
 31 30  1  0  0  0
 16 15  1  0  0  0
 25 33  2  0  0  0
 15 14  2  0  0  0
 21 20  2  0  0  0
 30 26  1  0  0  0
 30 29  2  0  0  0
 33 29  1  0  0  0
 12 11  1  0  0  0
 12 13  2  0  0  0
 10 11  1  0  0  0
 10  9  2  0  0  0
 26 34  1  0  0  0
 11  8  1  0  0  0
 20  9  1  0  0  0
 20 22  1  0  0  0
 29 28  1  0  0  0
 14 13  1  0  0  0
  9  7  1  0  0  0
  5  2  2  0  0  0
  5  4  1  0  0  0
  8  7  2  0  0  0
  8  4  1  0  0  0
 34 35  1  0  0  0
 28 35  1  0  0  0
 28 27  2  0  0  0
  2  1  1  0  0  0
  4  6  2  0  0  0
 35 24  1  0  0  0
  1 24  1  0  0  0
  1  3  2  0  0  0
  6  3  1  0  0  0
 43 44  1  0  0  0
 22 23  1  0  0  0
M  END
> <minimizedAffinity>
-6.94913

$$$$
4R4I_3HV_A_201


 44 49  0  0  0  0  0  0  0  0999 V2000
   16.2089   11.2589   23.3349 C   0  0  0  0  0  0  0  0  0  0  0  0
   15.9789   10.7140   22.0941 C   0  0  0  0  0  0  0  0  0  0  0  0
   17.1124   12.3110   23.4839 C   0  0  0  0  0  0  0  0  0  0  0  0
   17.5714   12.2791   21.1173 C   0  0  0  0  0  0  0  0  0  0  0  0
   16.6608   11.2194   21.0053 C   0  0  0  0  0  0  0  0  0  0  0  0
   17.7975   12.8210   22.3789 C   0  0  0  0  0  0  0  0  0  0  0  0
   17.9766   13.9915   19.1567 C   0  0  0  0  0  0  0  0  0  0  0  0
   18.3248   12.8310   19.9177 C   0  0  0  0  0  0  0  0  0  0  0  0
   18.9804   14.1053   18.1464 C   0  0  0  0  0  0  0  0  0  0  0  0
   19.8305   13.1034   18.3230 N   0  0  0  0  0  0  0  0  0  0  0  0
   19.4393   12.3606   19.3471 N   0  0  0  0  0  0  0  0  0  0  0  0
   20.1467   11.1859   19.7992 C   0  0  0  0  0  0  0  0  0  0  0  0
   20.8011   11.1810   21.0170 C   0  0  0  0  0  0  0  0  0  0  0  0
   21.4887   10.0469   21.4198 C   0  0  0  0  0  0  0  0  0  0  0  0
   21.5243    8.9290   20.6007 C   0  0  0  0  0  0  0  0  0  0  0  0
   22.3963    7.5592   21.1802 Cl  0  0  0  0  0  0  0  0  0  0  0  0
   20.8789    8.9469   19.3636 C   0  0  0  0  0  0  0  0  0  0  0  0
   20.8563    7.6200   18.2538 Cl  0  0  0  0  0  0  0  0  0  0  0  0
   20.1846   10.0740   18.9809 C   0  0  0  0  0  0  0  0  0  0  0  0
   19.0919   15.1529   17.0767 C   0  0  0  0  0  0  0  0  0  0  0  0
   18.1679   15.9953   16.9550 O   0  0  0  0  0  0  0  0  0  0  0  0
   20.0901   15.1984   16.3047 O   0  0  0  0  0  0  0  0  0  0  0  0
   20.7803   14.5710   16.3938 H   0  0  0  0  0  0  0  0  0  0  0  0
   15.4579   10.7028   24.5193 C   0  0  0  0  0  0  0  0  0  0  0  0
    9.8157   13.2519   24.9362 C   0  0  0  0  0  0  0  0  0  0  0  0
   11.9709    9.9134   23.5070 C   0  0  0  0  0  0  0  0  0  0  0  0
   14.0526   13.2281   25.6105 S   0  0  0  0  0  0  0  0  0  0  0  0
   13.3196   11.9622   24.8153 C   0  0  0  0  0  0  0  0  0  0  0  0
   11.9159   12.0514   24.6337 C   0  0  0  0  0  0  0  0  0  0  0  0
   11.2402   11.0340   23.9804 C   0  0  0  0  0  0  0  0  0  0  0  0
    9.8453   11.1197   23.7970 C   0  0  0  0  0  0  0  0  0  0  0  0
    9.1515   12.2286   24.2765 C   0  0  0  0  0  0  0  0  0  0  0  0
   11.1931   13.1768   25.1139 C   0  0  0  0  0  0  0  0  0  0  0  0
   13.3498    9.8923   23.7247 C   0  0  0  0  0  0  0  0  0  0  0  0
   14.0105   10.8839   24.3536 N   0  0  0  0  0  0  0  0  0  0  0  0
    5.7249   11.6585   23.4258 C   0  0  0  0  0  0  0  0  0  0  0  0
    7.6575   12.3074   24.0724 C   0  0  0  0  0  0  0  0  0  0  0  0
    6.7704   13.3169   24.4869 C   0  0  0  0  0  0  0  0  0  0  0  0
    5.4656   12.8902   24.0432 C   0  0  0  0  0  0  0  0  0  0  0  0
    6.9974   11.3740   23.4521 O   0  0  0  0  0  0  0  0  0  0  0  0
    4.7731   10.7361   22.7666 C   0  0  0  0  0  0  0  0  0  0  0  0
    4.7369   10.6126   21.5168 O   0  0  0  0  0  0  0  0  0  0  0  0
    4.0185   10.1030   23.5410 O   0  0  0  0  0  0  0  0  0  0  0  0
    4.0842   10.2301   24.4670 H   0  0  0  0  0  0  0  0  0  0  0  0
 42 41  2  0  0  0
 41 43  1  0  0  0
 41 36  1  0  0  0
 36 39  2  0  0  0
 36 40  1  0  0  0
 39 38  1  0  0  0
 40 37  1  0  0  0
 18 17  1  0  0  0
 38 37  2  0  0  0
 37 32  1  0  0  0
 32 31  2  0  0  0
 32 25  1  0  0  0
 17 19  2  0  0  0
 17 15  1  0  0  0
 19 12  1  0  0  0
 31 30  1  0  0  0
 16 15  1  0  0  0
 25 33  2  0  0  0
 15 14  2  0  0  0
 21 20  2  0  0  0
 30 26  1  0  0  0
 30 29  2  0  0  0
 33 29  1  0  0  0
 12 11  1  0  0  0
 12 13  2  0  0  0
 10 11  1  0  0  0
 10  9  2  0  0  0
 26 34  1  0  0  0
 11  8  1  0  0  0
 20  9  1  0  0  0
 20 22  1  0  0  0
 29 28  1  0  0  0
 14 13  1  0  0  0
  9  7  1  0  0  0
  5  2  2  0  0  0
  5  4  1  0  0  0
  8  7  2  0  0  0
  8  4  1  0  0  0
 34 35  1  0  0  0
 28 35  1  0  0  0
 28 27  2  0  0  0
  2  1  1  0  0  0
  4  6  2  0  0  0
 35 24  1  0  0  0
  1 24  1  0  0  0
  1  3  2  0  0  0
  6  3  1  0  0  0
 43 44  1  0  0  0
 22 23  1  0  0  0
M  END
> <minimizedAffinity>
-6.79841

$$$$
4R4I_3HV_A_201


 44 49  0  0  0  0  0  0  0  0999 V2000
   15.5820   11.5895   23.3208 C   0  0  0  0  0  0  0  0  0  0  0  0
   15.2041   11.4026   22.0126 C   0  0  0  0  0  0  0  0  0  0  0  0
   16.6958   12.3719   23.6256 C   0  0  0  0  0  0  0  0  0  0  0  0
   17.0689   12.7908   21.2809 C   0  0  0  0  0  0  0  0  0  0  0  0
   15.9476   11.9940   21.0110 C   0  0  0  0  0  0  0  0  0  0  0  0
   17.4430   12.9708   22.6091 C   0  0  0  0  0  0  0  0  0  0  0  0
   17.5959   14.6697   19.5112 C   0  0  0  0  0  0  0  0  0  0  0  0
   17.8891   13.4373   20.1762 C   0  0  0  0  0  0  0  0  0  0  0  0
   18.6506   14.8579   18.5659 C   0  0  0  0  0  0  0  0  0  0  0  0
   19.4765   13.8280   18.6889 N   0  0  0  0  0  0  0  0  0  0  0  0
   19.0240   13.0009   19.6188 N   0  0  0  0  0  0  0  0  0  0  0  0
   19.6911   11.7763   19.9927 C   0  0  0  0  0  0  0  0  0  0  0  0
   19.3997   10.5885   19.3481 C   0  0  0  0  0  0  0  0  0  0  0  0
   20.0404    9.4229   19.7385 C   0  0  0  0  0  0  0  0  0  0  0  0
   20.9614    9.4505   20.7742 C   0  0  0  0  0  0  0  0  0  0  0  0
   21.7170    7.9582   21.1921 Cl  0  0  0  0  0  0  0  0  0  0  0  0
   21.2366   10.6486   21.4346 C   0  0  0  0  0  0  0  0  0  0  0  0
   22.3587   10.8089   22.7415 Cl  0  0  0  0  0  0  0  0  0  0  0  0
   20.6059   11.8040   21.0270 C   0  0  0  0  0  0  0  0  0  0  0  0
   18.8303   15.9979   17.6055 C   0  0  0  0  0  0  0  0  0  0  0  0
   18.3282   15.9080   16.4576 O   0  0  0  0  0  0  0  0  0  0  0  0
   19.4732   17.0348   17.9313 O   0  0  0  0  0  0  0  0  0  0  0  0
   19.8485   17.1038   18.7870 H   0  0  0  0  0  0  0  0  0  0  0  0
   14.7628   10.9419   24.4097 C   0  0  0  0  0  0  0  0  0  0  0  0
    8.5731   11.3356   24.2106 C   0  0  0  0  0  0  0  0  0  0  0  0
   12.1327   13.5466   24.7340 C   0  0  0  0  0  0  0  0  0  0  0  0
   12.2673    9.1614   24.0287 S   0  0  0  0  0  0  0  0  0  0  0  0
   12.2699   10.8046   24.2972 C   0  0  0  0  0  0  0  0  0  0  0  0
   11.0050   11.4443   24.3438 C   0  0  0  0  0  0  0  0  0  0  0  0
   10.9319   12.8099   24.5634 C   0  0  0  0  0  0  0  0  0  0  0  0
    9.6765   13.4490   24.6116 C   0  0  0  0  0  0  0  0  0  0  0  0
    8.5133   12.7028   24.4357 C   0  0  0  0  0  0  0  0  0  0  0  0
    9.8085   10.6977   24.1692 C   0  0  0  0  0  0  0  0  0  0  0  0
   13.3414   12.8506   24.6722 C   0  0  0  0  0  0  0  0  0  0  0  0
   13.4150   11.5212   24.4657 N   0  0  0  0  0  0  0  0  0  0  0  0
    5.1049   13.7182   24.0582 C   0  0  0  0  0  0  0  0  0  0  0  0
    7.1753   13.4004   24.4905 C   0  0  0  0  0  0  0  0  0  0  0  0
    6.8195   14.5541   25.2119 C   0  0  0  0  0  0  0  0  0  0  0  0
    5.4259   14.7804   24.9151 C   0  0  0  0  0  0  0  0  0  0  0  0
    6.1436   12.9630   23.8303 O   0  0  0  0  0  0  0  0  0  0  0  0
    3.8102   13.4129   23.4089 C   0  0  0  0  0  0  0  0  0  0  0  0
    3.3099   12.2611   23.4507 O   0  0  0  0  0  0  0  0  0  0  0  0
    3.2656   14.3769   22.8224 O   0  0  0  0  0  0  0  0  0  0  0  0
    3.6791   15.2177   22.8195 H   0  0  0  0  0  0  0  0  0  0  0  0
 42 41  2  0  0  0
 41 43  1  0  0  0
 41 36  1  0  0  0
 36 39  2  0  0  0
 36 40  1  0  0  0
 39 38  1  0  0  0
 40 37  1  0  0  0
 18 17  1  0  0  0
 38 37  2  0  0  0
 37 32  1  0  0  0
 32 31  2  0  0  0
 32 25  1  0  0  0
 17 19  2  0  0  0
 17 15  1  0  0  0
 19 12  1  0  0  0
 31 30  1  0  0  0
 16 15  1  0  0  0
 25 33  2  0  0  0
 15 14  2  0  0  0
 21 20  2  0  0  0
 30 26  1  0  0  0
 30 29  2  0  0  0
 33 29  1  0  0  0
 12 11  1  0  0  0
 12 13  2  0  0  0
 10 11  1  0  0  0
 10  9  2  0  0  0
 26 34  1  0  0  0
 11  8  1  0  0  0
 20  9  1  0  0  0
 20 22  1  0  0  0
 29 28  1  0  0  0
 14 13  1  0  0  0
  9  7  1  0  0  0
  5  2  2  0  0  0
  5  4  1  0  0  0
  8  7  2  0  0  0
  8  4  1  0  0  0
 34 35  1  0  0  0
 28 35  1  0  0  0
 28 27  2  0  0  0
  2  1  1  0  0  0
  4  6  2  0  0  0
 35 24  1  0  0  0
  1 24  1  0  0  0
  1  3  2  0  0  0
  6  3  1  0  0  0
 43 44  1  0  0  0
 22 23  1  0  0  0
M  END
> <minimizedAffinity>
-6.61963

$$$$
4R4I_3HV_A_201


 44 49  0  0  0  0  0  0  0  0999 V2000
   12.6449   10.6216   24.4174 C   0  0  0  0  0  0  0  0  0  0  0  0
   11.9388   10.6862   25.5949 C   0  0  0  0  0  0  0  0  0  0  0  0
   12.0308   10.9557   23.2104 C   0  0  0  0  0  0  0  0  0  0  0  0
    9.9682   11.4263   24.3665 C   0  0  0  0  0  0  0  0  0  0  0  0
   10.6155   11.0782   25.5601 C   0  0  0  0  0  0  0  0  0  0  0  0
   10.6929   11.3548   23.1806 C   0  0  0  0  0  0  0  0  0  0  0  0
    7.4165   11.0970   23.8003 C   0  0  0  0  0  0  0  0  0  0  0  0
    8.5096   11.8531   24.3298 C   0  0  0  0  0  0  0  0  0  0  0  0
    6.2561   11.9069   23.9977 C   0  0  0  0  0  0  0  0  0  0  0  0
    6.6527   13.0217   24.5958 N   0  0  0  0  0  0  0  0  0  0  0  0
    7.9639   12.9895   24.7773 N   0  0  0  0  0  0  0  0  0  0  0  0
    8.7115   14.0565   25.3996 C   0  0  0  0  0  0  0  0  0  0  0  0
    8.7288   14.1975   26.7748 C   0  0  0  0  0  0  0  0  0  0  0  0
    9.4390   15.2414   27.3468 C   0  0  0  0  0  0  0  0  0  0  0  0
   10.1202   16.1411   26.5415 C   0  0  0  0  0  0  0  0  0  0  0  0
   10.9831   17.4059   27.3339 Cl  0  0  0  0  0  0  0  0  0  0  0  0
   10.0824   16.0055   25.1532 C   0  0  0  0  0  0  0  0  0  0  0  0
   10.8850   17.0648   24.0456 Cl  0  0  0  0  0  0  0  0  0  0  0  0
    9.3868   14.9544   24.5964 C   0  0  0  0  0  0  0  0  0  0  0  0
    4.8381   11.5865   23.6226 C   0  0  0  0  0  0  0  0  0  0  0  0
    4.3512   12.1110   22.5901 O   0  0  0  0  0  0  0  0  0  0  0  0
    4.1346   10.8063   24.3232 O   0  0  0  0  0  0  0  0  0  0  0  0
    4.4958   10.4141   25.0936 H   0  0  0  0  0  0  0  0  0  0  0  0
   14.0912   10.1948   24.4641 C   0  0  0  0  0  0  0  0  0  0  0  0
   17.5447   15.0530   22.7384 C   0  0  0  0  0  0  0  0  0  0  0  0
   15.8830   11.3949   21.4382 C   0  0  0  0  0  0  0  0  0  0  0  0
   15.2455   12.8272   25.5960 S   0  0  0  0  0  0  0  0  0  0  0  0
   15.4567   12.2465   24.0499 C   0  0  0  0  0  0  0  0  0  0  0  0
   16.2316   13.0447   23.1703 C   0  0  0  0  0  0  0  0  0  0  0  0
   16.4484   12.6231   21.8688 C   0  0  0  0  0  0  0  0  0  0  0  0
   17.2190   13.4131   20.9920 C   0  0  0  0  0  0  0  0  0  0  0  0
   17.7582   14.6175   21.4390 C   0  0  0  0  0  0  0  0  0  0  0  0
   16.7913   14.2745   23.6107 C   0  0  0  0  0  0  0  0  0  0  0  0
   15.1289   10.6639   22.3580 C   0  0  0  0  0  0  0  0  0  0  0  0
   14.9223   11.0683   23.6265 N   0  0  0  0  0  0  0  0  0  0  0  0
   19.3128   16.1350   18.5981 C   0  0  0  0  0  0  0  0  0  0  0  0
   18.5821   15.4532   20.4891 C   0  0  0  0  0  0  0  0  0  0  0  0
   19.4769   16.4952   20.7919 C   0  0  0  0  0  0  0  0  0  0  0  0
   19.9822   16.9519   19.5201 C   0  0  0  0  0  0  0  0  0  0  0  0
   18.5337   15.2802   19.2009 O   0  0  0  0  0  0  0  0  0  0  0  0
   19.4216   16.1251   17.1219 C   0  0  0  0  0  0  0  0  0  0  0  0
   20.5207   16.3141   16.5430 O   0  0  0  0  0  0  0  0  0  0  0  0
   18.3489   15.9203   16.5079 O   0  0  0  0  0  0  0  0  0  0  0  0
   17.5542   15.7847   16.9855 H   0  0  0  0  0  0  0  0  0  0  0  0
 42 41  2  0  0  0
 41 43  1  0  0  0
 41 36  1  0  0  0
 36 39  2  0  0  0
 36 40  1  0  0  0
 39 38  1  0  0  0
 40 37  1  0  0  0
 18 17  1  0  0  0
 38 37  2  0  0  0
 37 32  1  0  0  0
 32 31  2  0  0  0
 32 25  1  0  0  0
 17 19  2  0  0  0
 17 15  1  0  0  0
 19 12  1  0  0  0
 31 30  1  0  0  0
 16 15  1  0  0  0
 25 33  2  0  0  0
 15 14  2  0  0  0
 21 20  2  0  0  0
 30 26  1  0  0  0
 30 29  2  0  0  0
 33 29  1  0  0  0
 12 11  1  0  0  0
 12 13  2  0  0  0
 10 11  1  0  0  0
 10  9  2  0  0  0
 26 34  1  0  0  0
 11  8  1  0  0  0
 20  9  1  0  0  0
 20 22  1  0  0  0
 29 28  1  0  0  0
 14 13  1  0  0  0
  9  7  1  0  0  0
  5  2  2  0  0  0
  5  4  1  0  0  0
  8  7  2  0  0  0
  8  4  1  0  0  0
 34 35  1  0  0  0
 28 35  1  0  0  0
 28 27  2  0  0  0
  2  1  1  0  0  0
  4  6  2  0  0  0
 35 24  1  0  0  0
  1 24  1  0  0  0
  1  3  2  0  0  0
  6  3  1  0  0  0
 43 44  1  0  0  0
 22 23  1  0  0  0
M  END
> <minimizedAffinity>
-6.58252

$$$$
4R4I_3HV_A_201


 44 49  0  0  0  0  0  0  0  0999 V2000
   14.7448   13.3457   25.3228 C   0  0  0  0  0  0  0  0  0  0  0  0
   15.0197   14.1846   26.3764 C   0  0  0  0  0  0  0  0  0  0  0  0
   14.8467   13.8084   24.0110 C   0  0  0  0  0  0  0  0  0  0  0  0
   15.5067   15.9857   24.8084 C   0  0  0  0  0  0  0  0  0  0  0  0
   15.3888   15.4886   26.1138 C   0  0  0  0  0  0  0  0  0  0  0  0
   15.2237   15.1275   23.7502 C   0  0  0  0  0  0  0  0  0  0  0  0
   17.2315   17.8976   24.2517 C   0  0  0  0  0  0  0  0  0  0  0  0
   15.9088   17.4235   24.5215 C   0  0  0  0  0  0  0  0  0  0  0  0
   17.1010   19.3048   24.0414 C   0  0  0  0  0  0  0  0  0  0  0  0
   15.8158   19.6035   24.1707 N   0  0  0  0  0  0  0  0  0  0  0  0
   15.1293   18.5087   24.4594 N   0  0  0  0  0  0  0  0  0  0  0  0
   13.7008   18.4926   24.6690 C   0  0  0  0  0  0  0  0  0  0  0  0
   12.8341   18.2992   23.6094 C   0  0  0  0  0  0  0  0  0  0  0  0
   11.4662   18.3067   23.8341 C   0  0  0  0  0  0  0  0  0  0  0  0
   10.9739   18.5146   25.1132 C   0  0  0  0  0  0  0  0  0  0  0  0
    9.2607   18.5023   25.3061 Cl  0  0  0  0  0  0  0  0  0  0  0  0
   11.8532   18.7294   26.1753 C   0  0  0  0  0  0  0  0  0  0  0  0
   11.3613   19.0049   27.8109 Cl  0  0  0  0  0  0  0  0  0  0  0  0
   13.2112   18.7034   25.9430 C   0  0  0  0  0  0  0  0  0  0  0  0
   18.1879   20.2901   23.7221 C   0  0  0  0  0  0  0  0  0  0  0  0
   18.9485   20.6736   24.6453 O   0  0  0  0  0  0  0  0  0  0  0  0
   18.3463   20.7352   22.5510 O   0  0  0  0  0  0  0  0  0  0  0  0
   17.7801   20.4504   21.8609 H   0  0  0  0  0  0  0  0  0  0  0  0
   14.3445   11.9213   25.6181 C   0  0  0  0  0  0  0  0  0  0  0  0
    8.1986   11.3793   26.2819 C   0  0  0  0  0  0  0  0  0  0  0  0
   11.3896   11.0666   23.5336 C   0  0  0  0  0  0  0  0  0  0  0  0
   12.1376   12.2220   27.7587 S   0  0  0  0  0  0  0  0  0  0  0  0
   11.9094   11.7946   26.1657 C   0  0  0  0  0  0  0  0  0  0  0  0
   10.5753   11.5347   25.7610 C   0  0  0  0  0  0  0  0  0  0  0  0
   10.3115   11.1738   24.4500 C   0  0  0  0  0  0  0  0  0  0  0  0
    8.9866   10.9159   24.0437 C   0  0  0  0  0  0  0  0  0  0  0  0
    7.9473   11.0233   24.9652 C   0  0  0  0  0  0  0  0  0  0  0  0
    9.5029   11.6424   26.6873 C   0  0  0  0  0  0  0  0  0  0  0  0
   12.6767   11.3340   24.0038 C   0  0  0  0  0  0  0  0  0  0  0  0
   12.9352   11.6920   25.2768 N   0  0  0  0  0  0  0  0  0  0  0  0
    4.9832   10.0798   23.2004 C   0  0  0  0  0  0  0  0  0  0  0  0
    6.5329   10.7447   24.5159 C   0  0  0  0  0  0  0  0  0  0  0  0
    5.3350   10.9414   25.2261 C   0  0  0  0  0  0  0  0  0  0  0  0
    4.2843   10.5052   24.3389 C   0  0  0  0  0  0  0  0  0  0  0  0
    6.2683   10.2519   23.3417 O   0  0  0  0  0  0  0  0  0  0  0  0
    4.4441    9.5290   21.9367 C   0  0  0  0  0  0  0  0  0  0  0  0
    3.6462    8.5584   21.9307 O   0  0  0  0  0  0  0  0  0  0  0  0
    4.8427   10.0960   20.8929 O   0  0  0  0  0  0  0  0  0  0  0  0
    5.4386   10.8169   20.9497 H   0  0  0  0  0  0  0  0  0  0  0  0
 42 41  2  0  0  0
 41 43  1  0  0  0
 41 36  1  0  0  0
 36 39  2  0  0  0
 36 40  1  0  0  0
 39 38  1  0  0  0
 40 37  1  0  0  0
 18 17  1  0  0  0
 38 37  2  0  0  0
 37 32  1  0  0  0
 32 31  2  0  0  0
 32 25  1  0  0  0
 17 19  2  0  0  0
 17 15  1  0  0  0
 19 12  1  0  0  0
 31 30  1  0  0  0
 16 15  1  0  0  0
 25 33  2  0  0  0
 15 14  2  0  0  0
 21 20  2  0  0  0
 30 26  1  0  0  0
 30 29  2  0  0  0
 33 29  1  0  0  0
 12 11  1  0  0  0
 12 13  2  0  0  0
 10 11  1  0  0  0
 10  9  2  0  0  0
 26 34  1  0  0  0
 11  8  1  0  0  0
 20  9  1  0  0  0
 20 22  1  0  0  0
 29 28  1  0  0  0
 14 13  1  0  0  0
  9  7  1  0  0  0
  5  2  2  0  0  0
  5  4  1  0  0  0
  8  7  2  0  0  0
  8  4  1  0  0  0
 34 35  1  0  0  0
 28 35  1  0  0  0
 28 27  2  0  0  0
  2  1  1  0  0  0
  4  6  2  0  0  0
 35 24  1  0  0  0
  1 24  1  0  0  0
  1  3  2  0  0  0
  6  3  1  0  0  0
 43 44  1  0  0  0
 22 23  1  0  0  0
M  END
> <minimizedAffinity>
-6.54086

$$$$
