3GX0_GDS_A_301


 52 51  0  0  0  0  0  0  0  0999 V2000
   27.9229   37.8016   49.3091 S   0  0  0  0  0  0  0  0  0  0  0  0
   29.7154   37.7526   48.9478 C   0  0  0  0  0  0  0  0  0  0  0  0
   30.5332   38.9006   49.5398 C   0  0  0  0  0  0  0  0  0  0  0  0
   30.7892   39.9069   48.4276 C   0  0  0  0  0  0  0  0  0  0  0  0
   29.9028   40.1346   47.5944 O   0  0  0  0  0  0  0  0  0  0  0  0
   32.0056   40.4793   48.4160 N   0  0  0  0  0  0  0  0  0  0  0  0
   32.6526   40.2449   49.1200 H   0  0  0  0  0  0  0  0  0  0  0  0
   32.3959   41.4494   47.3753 C   0  0  0  0  0  0  0  0  0  0  0  0
   31.9189   42.8687   47.7238 C   0  0  0  0  0  0  0  0  0  0  0  0
   31.0565   43.3629   46.9346 O   0  0  0  0  0  0  0  0  0  0  0  0
   32.3819   43.4283   48.7619 O   0  0  0  0  0  0  0  0  0  0  0  0
   33.0191   42.9863   49.2878 H   0  0  0  0  0  0  0  0  0  0  0  0
   30.3287   40.0671   51.7455 C   0  0  0  0  0  0  0  0  0  0  0  0
   31.5492   40.0660   51.9779 O   0  0  0  0  0  0  0  0  0  0  0  0
   29.7655   39.5548   50.6349 N   0  0  0  0  0  0  0  0  0  0  0  0
   28.7874   39.6165   50.5414 H   0  0  0  0  0  0  0  0  0  0  0  0
   29.3185   40.6983   52.7587 C   0  0  0  0  0  0  0  0  0  0  0  0
   29.9964   41.6056   53.8129 C   0  0  0  0  0  0  0  0  0  0  0  0
   28.9175   40.4774   55.7809 N   0  0  0  0  0  0  0  0  0  0  0  0
   30.1906   40.8518   55.1655 C   0  0  0  0  0  0  0  0  0  0  0  0
   29.0947   39.9894   56.6588 H   0  0  0  0  0  0  0  0  0  0  0  0
   28.4018   39.8645   55.1493 H   0  0  0  0  0  0  0  0  0  0  0  0
   30.9901   41.6844   56.1715 C   0  0  0  0  0  0  0  0  0  0  0  0
   32.1473   41.2760   56.4694 O   0  0  0  0  0  0  0  0  0  0  0  0
   30.4210   42.7249   56.6231 O   0  0  0  0  0  0  0  0  0  0  0  0
   29.5555   42.9457   56.3401 H   0  0  0  0  0  0  0  0  0  0  0  0
   27.6802   36.6303   51.0061 S   0  0  0  0  0  0  0  0  0  0  0  0
   25.9266   36.7671   51.4601 C   0  0  0  0  0  0  0  0  0  0  0  0
   25.4644   35.6322   52.3983 C   0  0  0  0  0  0  0  0  0  0  0  0
   26.3594   34.4496   52.4255 N   0  0  0  0  0  0  0  0  0  0  0  0
   27.1785   34.1614   53.4389 C   0  0  0  0  0  0  0  0  0  0  0  0
   27.3477   34.8647   54.4392 O   0  0  0  0  0  0  0  0  0  0  0  0
   26.3486   33.8421   51.6509 H   0  0  0  0  0  0  0  0  0  0  0  0
   27.9551   32.8510   53.2622 C   0  0  0  0  0  0  0  0  0  0  0  0
   27.8594   32.3906   51.8261 C   0  0  0  0  0  0  0  0  0  0  0  0
   27.2242   31.0114   51.7110 C   0  0  0  0  0  0  0  0  0  0  0  0
   27.8650   30.2721   50.5965 N   0  0  0  0  0  0  0  0  0  0  0  0
   27.7214   30.7808   49.7241 H   0  0  0  0  0  0  0  0  0  0  0  0
   27.4495   29.3436   50.5210 H   0  0  0  0  0  0  0  0  0  0  0  0
   25.6984   31.1231   51.5391 C   0  0  0  0  0  0  0  0  0  0  0  0
   25.0296   30.2744   52.1688 O   0  0  0  0  0  0  0  0  0  0  0  0
   25.2224   32.0226   50.7889 O   0  0  0  0  0  0  0  0  0  0  0  0
   25.7965   32.6207   50.3523 H   0  0  0  0  0  0  0  0  0  0  0  0
   23.1730   34.9955   52.8591 N   0  0  0  0  0  0  0  0  0  0  0  0
   24.1009   35.1493   51.9013 C   0  0  0  0  0  0  0  0  0  0  0  0
   23.9042   34.9511   50.6861 O   0  0  0  0  0  0  0  0  0  0  0  0
   23.3966   35.1805   53.7998 H   0  0  0  0  0  0  0  0  0  0  0  0
   21.7983   34.5416   52.4879 C   0  0  0  0  0  0  0  0  0  0  0  0
   20.7738   35.1515   53.4651 C   0  0  0  0  0  0  0  0  0  0  0  0
   21.2089   35.4415   54.6117 O   0  0  0  0  0  0  0  0  0  0  0  0
   19.5919   35.3048   53.0450 O   0  0  0  0  0  0  0  0  0  0  0  0
   19.3698   35.0554   52.1696 H   0  0  0  0  0  0  0  0  0  0  0  0
 19 20  1  0  0  0
 20 23  1  0  0  0
 20 18  1  0  0  0
 23 24  2  0  0  0
 23 25  1  0  0  0
 18 17  1  0  0  0
 17 13  1  0  0  0
 13 14  2  0  0  0
 13 15  1  0  0  0
 15  3  1  0  0  0
  3  4  1  0  0  0
  3  2  1  0  0  0
  4  5  2  0  0  0
  4  6  1  0  0  0
  2  1  1  0  0  0
  1 27  1  0  0  0
  6  8  1  0  0  0
  8  9  1  0  0  0
  9 10  2  0  0  0
  9 11  1  0  0  0
 44 48  1  0  0  0
 44 45  1  0  0  0
 48 49  1  0  0  0
 49 50  2  0  0  0
 49 51  1  0  0  0
 45 46  2  0  0  0
 45 29  1  0  0  0
 29 30  1  0  0  0
 29 28  1  0  0  0
 30 31  1  0  0  0
 28 27  1  0  0  0
 36 40  1  0  0  0
 36 37  1  0  0  0
 36 35  1  0  0  0
 40 41  2  0  0  0
 40 42  1  0  0  0
 35 34  1  0  0  0
 34 31  1  0  0  0
 31 32  2  0  0  0
 19 21  1  0  0  0
 19 22  1  0  0  0
 25 26  1  0  0  0
 15 16  1  0  0  0
  6  7  1  0  0  0
 11 12  1  0  0  0
 44 47  1  0  0  0
 51 52  1  0  0  0
 30 33  1  0  0  0
 42 43  1  0  0  0
 37 38  1  0  0  0
 37 39  1  0  0  0
M  END
> <minimizedAffinity>
-8.30323

$$$$
3GX0_GDS_A_301


 52 51  0  0  0  0  0  0  0  0999 V2000
   28.8303   38.0512   50.0259 S   0  0  0  0  0  0  0  0  0  0  0  0
   30.3646   38.9053   50.5381 C   0  0  0  0  0  0  0  0  0  0  0  0
   30.1665   40.2863   51.1632 C   0  0  0  0  0  0  0  0  0  0  0  0
   31.1234   41.2472   50.4731 C   0  0  0  0  0  0  0  0  0  0  0  0
   31.6509   42.1571   51.1255 O   0  0  0  0  0  0  0  0  0  0  0  0
   31.3174   41.0464   49.1581 N   0  0  0  0  0  0  0  0  0  0  0  0
   30.8613   40.2947   48.7153 H   0  0  0  0  0  0  0  0  0  0  0  0
   32.1963   41.9236   48.3614 C   0  0  0  0  0  0  0  0  0  0  0  0
   32.0038   41.6914   46.8540 C   0  0  0  0  0  0  0  0  0  0  0  0
   31.4359   40.6010   46.5387 O   0  0  0  0  0  0  0  0  0  0  0  0
   32.3872   42.5891   46.0463 O   0  0  0  0  0  0  0  0  0  0  0  0
   32.7995   43.3657   46.3703 H   0  0  0  0  0  0  0  0  0  0  0  0
   27.9531   41.1649   51.9357 C   0  0  0  0  0  0  0  0  0  0  0  0
   28.2816   41.2389   53.1316 O   0  0  0  0  0  0  0  0  0  0  0  0
   28.7651   40.7410   50.9488 N   0  0  0  0  0  0  0  0  0  0  0  0
   28.4109   40.7311   50.0302 H   0  0  0  0  0  0  0  0  0  0  0  0
   26.5214   41.5861   51.4683 C   0  0  0  0  0  0  0  0  0  0  0  0
   25.6240   40.3843   51.0886 C   0  0  0  0  0  0  0  0  0  0  0  0
   24.1038   42.1328   50.1183 N   0  0  0  0  0  0  0  0  0  0  0  0
   24.6102   40.7690   49.9663 C   0  0  0  0  0  0  0  0  0  0  0  0
   23.4474   42.3377   49.3649 H   0  0  0  0  0  0  0  0  0  0  0  0
   24.8822   42.7908   50.0795 H   0  0  0  0  0  0  0  0  0  0  0  0
   23.4174   39.8098   49.9234 C   0  0  0  0  0  0  0  0  0  0  0  0
   22.2667   40.3223   49.8339 O   0  0  0  0  0  0  0  0  0  0  0  0
   23.6861   38.5708   49.9783 O   0  0  0  0  0  0  0  0  0  0  0  0
   24.5767   38.2870   50.0441 H   0  0  0  0  0  0  0  0  0  0  0  0
   28.2207   36.9830   51.6986 S   0  0  0  0  0  0  0  0  0  0  0  0
   26.4148   36.8375   51.5668 C   0  0  0  0  0  0  0  0  0  0  0  0
   25.8430   35.7058   52.4466 C   0  0  0  0  0  0  0  0  0  0  0  0
   26.6716   34.4762   52.4876 N   0  0  0  0  0  0  0  0  0  0  0  0
   26.7705   33.6826   53.5559 C   0  0  0  0  0  0  0  0  0  0  0  0
   26.2498   33.8995   54.6540 O   0  0  0  0  0  0  0  0  0  0  0  0
   27.1782   34.2313   51.6797 H   0  0  0  0  0  0  0  0  0  0  0  0
   27.6360   32.4369   53.3318 C   0  0  0  0  0  0  0  0  0  0  0  0
   28.0135   32.3333   51.8723 C   0  0  0  0  0  0  0  0  0  0  0  0
   27.3646   31.1308   51.1998 C   0  0  0  0  0  0  0  0  0  0  0  0
   27.8207   31.0567   49.7906 N   0  0  0  0  0  0  0  0  0  0  0  0
   27.5432   31.9058   49.2983 H   0  0  0  0  0  0  0  0  0  0  0  0
   27.3963   30.2471   49.3380 H   0  0  0  0  0  0  0  0  0  0  0  0
   25.8311   31.1987   51.3164 C   0  0  0  0  0  0  0  0  0  0  0  0
   25.2937   30.1986   51.8409 O   0  0  0  0  0  0  0  0  0  0  0  0
   25.2198   32.2158   50.8801 O   0  0  0  0  0  0  0  0  0  0  0  0
   25.7009   32.9244   50.5001 H   0  0  0  0  0  0  0  0  0  0  0  0
   23.7256   34.5503   52.6692 N   0  0  0  0  0  0  0  0  0  0  0  0
   24.4850   35.3102   51.8644 C   0  0  0  0  0  0  0  0  0  0  0  0
   24.1410   35.7081   50.7339 O   0  0  0  0  0  0  0  0  0  0  0  0
   24.0586   34.2812   53.5558 H   0  0  0  0  0  0  0  0  0  0  0  0
   22.3713   34.1154   52.2105 C   0  0  0  0  0  0  0  0  0  0  0  0
   21.2907   34.8516   53.0271 C   0  0  0  0  0  0  0  0  0  0  0  0
   21.6506   35.2872   54.1536 O   0  0  0  0  0  0  0  0  0  0  0  0
   20.1420   34.9533   52.5101 O   0  0  0  0  0  0  0  0  0  0  0  0
   19.9768   34.5926   51.6612 H   0  0  0  0  0  0  0  0  0  0  0  0
 19 20  1  0  0  0
 20 23  1  0  0  0
 20 18  1  0  0  0
 23 24  2  0  0  0
 23 25  1  0  0  0
 18 17  1  0  0  0
 17 13  1  0  0  0
 13 14  2  0  0  0
 13 15  1  0  0  0
 15  3  1  0  0  0
  3  4  1  0  0  0
  3  2  1  0  0  0
  4  5  2  0  0  0
  4  6  1  0  0  0
  2  1  1  0  0  0
  1 27  1  0  0  0
  6  8  1  0  0  0
  8  9  1  0  0  0
  9 10  2  0  0  0
  9 11  1  0  0  0
 44 48  1  0  0  0
 44 45  1  0  0  0
 48 49  1  0  0  0
 49 50  2  0  0  0
 49 51  1  0  0  0
 45 46  2  0  0  0
 45 29  1  0  0  0
 29 30  1  0  0  0
 29 28  1  0  0  0
 30 31  1  0  0  0
 28 27  1  0  0  0
 36 40  1  0  0  0
 36 37  1  0  0  0
 36 35  1  0  0  0
 40 41  2  0  0  0
 40 42  1  0  0  0
 35 34  1  0  0  0
 34 31  1  0  0  0
 31 32  2  0  0  0
 19 21  1  0  0  0
 19 22  1  0  0  0
 25 26  1  0  0  0
 15 16  1  0  0  0
  6  7  1  0  0  0
 11 12  1  0  0  0
 44 47  1  0  0  0
 51 52  1  0  0  0
 30 33  1  0  0  0
 42 43  1  0  0  0
 37 38  1  0  0  0
 37 39  1  0  0  0
M  END
> <minimizedAffinity>
-8.12237

$$$$
3GX0_GDS_A_301


 52 51  0  0  0  0  0  0  0  0999 V2000
   27.8378   38.2277   47.3223 S   0  0  0  0  0  0  0  0  0  0  0  0
   27.8863   37.4964   48.9982 C   0  0  0  0  0  0  0  0  0  0  0  0
   29.2040   37.6764   49.7521 C   0  0  0  0  0  0  0  0  0  0  0  0
   29.5119   39.1659   49.7951 C   0  0  0  0  0  0  0  0  0  0  0  0
   28.5811   39.9812   49.8192 O   0  0  0  0  0  0  0  0  0  0  0  0
   30.8136   39.5016   49.7819 N   0  0  0  0  0  0  0  0  0  0  0  0
   31.4925   38.7888   49.7667 H   0  0  0  0  0  0  0  0  0  0  0  0
   31.2509   40.9106   49.7895 C   0  0  0  0  0  0  0  0  0  0  0  0
   31.6612   41.3786   48.3839 C   0  0  0  0  0  0  0  0  0  0  0  0
   30.9489   42.3049   47.8884 O   0  0  0  0  0  0  0  0  0  0  0  0
   32.6717   40.8457   47.8362 O   0  0  0  0  0  0  0  0  0  0  0  0
   33.1395   40.1647   48.2781 H   0  0  0  0  0  0  0  0  0  0  0  0
   30.1015   36.7411   51.8940 C   0  0  0  0  0  0  0  0  0  0  0  0
   31.2879   36.7552   51.5251 O   0  0  0  0  0  0  0  0  0  0  0  0
   29.0659   37.1572   51.1406 N   0  0  0  0  0  0  0  0  0  0  0  0
   28.1633   37.1156   51.5315 H   0  0  0  0  0  0  0  0  0  0  0  0
   29.7093   36.2311   53.3192 C   0  0  0  0  0  0  0  0  0  0  0  0
   29.5616   34.6929   53.3989 C   0  0  0  0  0  0  0  0  0  0  0  0
   27.5183   33.3176   53.8920 N   0  0  0  0  0  0  0  0  0  0  0  0
   28.1410   34.2376   52.9405 C   0  0  0  0  0  0  0  0  0  0  0  0
   26.5954   33.0489   53.5509 H   0  0  0  0  0  0  0  0  0  0  0  0
   27.4255   33.7769   54.7980 H   0  0  0  0  0  0  0  0  0  0  0  0
   28.1748   33.5650   51.5654 C   0  0  0  0  0  0  0  0  0  0  0  0
   28.3804   32.3194   51.5364 O   0  0  0  0  0  0  0  0  0  0  0  0
   27.9888   34.3196   50.5623 O   0  0  0  0  0  0  0  0  0  0  0  0
   27.8436   35.2369   50.6866 H   0  0  0  0  0  0  0  0  0  0  0  0
   26.1401   39.4227   47.3016 S   0  0  0  0  0  0  0  0  0  0  0  0
   24.8138   38.4177   48.0303 C   0  0  0  0  0  0  0  0  0  0  0  0
   24.7227   38.5734   49.5631 C   0  0  0  0  0  0  0  0  0  0  0  0
   24.0452   37.4523   50.2590 N   0  0  0  0  0  0  0  0  0  0  0  0
   24.6833   36.5443   51.0002 C   0  0  0  0  0  0  0  0  0  0  0  0
   25.9073   36.4776   51.1459 O   0  0  0  0  0  0  0  0  0  0  0  0
   23.0680   37.3734   50.1689 H   0  0  0  0  0  0  0  0  0  0  0  0
   23.7577   35.5220   51.6707 C   0  0  0  0  0  0  0  0  0  0  0  0
   24.5587   34.3172   52.1068 C   0  0  0  0  0  0  0  0  0  0  0  0
   24.1930   33.0714   51.3109 C   0  0  0  0  0  0  0  0  0  0  0  0
   22.7549   32.7702   51.5122 N   0  0  0  0  0  0  0  0  0  0  0  0
   22.5788   32.5988   52.5022 H   0  0  0  0  0  0  0  0  0  0  0  0
   22.5024   31.9417   50.9735 H   0  0  0  0  0  0  0  0  0  0  0  0
   25.0990   31.8883   51.6975 C   0  0  0  0  0  0  0  0  0  0  0  0
   25.3428   31.7835   52.9197 O   0  0  0  0  0  0  0  0  0  0  0  0
   25.5421   31.1241   50.7929 O   0  0  0  0  0  0  0  0  0  0  0  0
   25.3094   31.2739   49.8977 H   0  0  0  0  0  0  0  0  0  0  0  0
   24.6242   40.8801   50.2961 N   0  0  0  0  0  0  0  0  0  0  0  0
   23.9081   39.8356   49.8509 C   0  0  0  0  0  0  0  0  0  0  0  0
   22.6781   39.8549   49.6481 O   0  0  0  0  0  0  0  0  0  0  0  0
   25.5967   40.7959   50.4237 H   0  0  0  0  0  0  0  0  0  0  0  0
   23.9352   42.1719   50.5968 C   0  0  0  0  0  0  0  0  0  0  0  0
   24.1378   42.5292   52.0827 C   0  0  0  0  0  0  0  0  0  0  0  0
   25.2142   42.1326   52.6045 O   0  0  0  0  0  0  0  0  0  0  0  0
   23.2164   43.1788   52.6536 O   0  0  0  0  0  0  0  0  0  0  0  0
   22.4513   43.4273   52.1732 H   0  0  0  0  0  0  0  0  0  0  0  0
 19 20  1  0  0  0
 20 23  1  0  0  0
 20 18  1  0  0  0
 23 24  2  0  0  0
 23 25  1  0  0  0
 18 17  1  0  0  0
 17 13  1  0  0  0
 13 14  2  0  0  0
 13 15  1  0  0  0
 15  3  1  0  0  0
  3  4  1  0  0  0
  3  2  1  0  0  0
  4  5  2  0  0  0
  4  6  1  0  0  0
  2  1  1  0  0  0
  1 27  1  0  0  0
  6  8  1  0  0  0
  8  9  1  0  0  0
  9 10  2  0  0  0
  9 11  1  0  0  0
 44 48  1  0  0  0
 44 45  1  0  0  0
 48 49  1  0  0  0
 49 50  2  0  0  0
 49 51  1  0  0  0
 45 46  2  0  0  0
 45 29  1  0  0  0
 29 30  1  0  0  0
 29 28  1  0  0  0
 30 31  1  0  0  0
 28 27  1  0  0  0
 36 40  1  0  0  0
 36 37  1  0  0  0
 36 35  1  0  0  0
 40 41  2  0  0  0
 40 42  1  0  0  0
 35 34  1  0  0  0
 34 31  1  0  0  0
 31 32  2  0  0  0
 19 21  1  0  0  0
 19 22  1  0  0  0
 25 26  1  0  0  0
 15 16  1  0  0  0
  6  7  1  0  0  0
 11 12  1  0  0  0
 44 47  1  0  0  0
 51 52  1  0  0  0
 30 33  1  0  0  0
 42 43  1  0  0  0
 37 38  1  0  0  0
 37 39  1  0  0  0
M  END
> <minimizedAffinity>
-7.94772

$$$$
3GX0_GDS_A_301


 52 51  0  0  0  0  0  0  0  0999 V2000
   29.7918   38.2365   51.4619 S   0  0  0  0  0  0  0  0  0  0  0  0
   29.1227   39.5032   52.5993 C   0  0  0  0  0  0  0  0  0  0  0  0
   28.5709   40.7600   51.9262 C   0  0  0  0  0  0  0  0  0  0  0  0
   29.6553   41.3070   51.0096 C   0  0  0  0  0  0  0  0  0  0  0  0
   30.6589   41.8391   51.5010 O   0  0  0  0  0  0  0  0  0  0  0  0
   29.4292   41.1890   49.6897 N   0  0  0  0  0  0  0  0  0  0  0  0
   28.6050   40.7473   49.3819 H   0  0  0  0  0  0  0  0  0  0  0  0
   30.3845   41.7044   48.6904 C   0  0  0  0  0  0  0  0  0  0  0  0
   31.3786   40.6171   48.2513 C   0  0  0  0  0  0  0  0  0  0  0  0
   32.4682   41.0420   47.7580 O   0  0  0  0  0  0  0  0  0  0  0  0
   31.0690   39.4017   48.4300 O   0  0  0  0  0  0  0  0  0  0  0  0
   30.2383   39.1797   48.8025 H   0  0  0  0  0  0  0  0  0  0  0  0
   26.1334   40.8921   51.3703 C   0  0  0  0  0  0  0  0  0  0  0  0
   25.8598   41.6839   52.2878 O   0  0  0  0  0  0  0  0  0  0  0  0
   27.3674   40.4142   51.1209 N   0  0  0  0  0  0  0  0  0  0  0  0
   27.4805   39.7993   50.3605 H   0  0  0  0  0  0  0  0  0  0  0  0
   25.0251   40.3817   50.3923 C   0  0  0  0  0  0  0  0  0  0  0  0
   25.0902   38.8571   50.1368 C   0  0  0  0  0  0  0  0  0  0  0  0
   24.1304   37.4325   48.3039 N   0  0  0  0  0  0  0  0  0  0  0  0
   25.0384   38.5377   48.6101 C   0  0  0  0  0  0  0  0  0  0  0  0
   24.1301   37.2613   47.2984 H   0  0  0  0  0  0  0  0  0  0  0  0
   23.1871   37.6733   48.6081 H   0  0  0  0  0  0  0  0  0  0  0  0
   26.4232   38.1973   48.0525 C   0  0  0  0  0  0  0  0  0  0  0  0
   27.4124   38.8018   48.5534 O   0  0  0  0  0  0  0  0  0  0  0  0
   26.4627   37.3276   47.1292 O   0  0  0  0  0  0  0  0  0  0  0  0
   25.6699   36.9332   46.8229 H   0  0  0  0  0  0  0  0  0  0  0  0
   28.3237   36.7720   51.3580 S   0  0  0  0  0  0  0  0  0  0  0  0
   29.2059   35.1889   51.2349 C   0  0  0  0  0  0  0  0  0  0  0  0
   28.7551   34.1715   52.3043 C   0  0  0  0  0  0  0  0  0  0  0  0
   27.4010   33.6061   52.0876 N   0  0  0  0  0  0  0  0  0  0  0  0
   27.1567   32.5316   51.3348 C   0  0  0  0  0  0  0  0  0  0  0  0
   28.0008   31.9181   50.6753 O   0  0  0  0  0  0  0  0  0  0  0  0
   26.6381   34.0493   52.5245 H   0  0  0  0  0  0  0  0  0  0  0  0
   25.6850   32.1016   51.3175 C   0  0  0  0  0  0  0  0  0  0  0  0
   24.9651   32.6969   52.5052 C   0  0  0  0  0  0  0  0  0  0  0  0
   23.8158   33.6012   52.0804 C   0  0  0  0  0  0  0  0  0  0  0  0
   23.0923   32.9699   50.9502 N   0  0  0  0  0  0  0  0  0  0  0  0
   23.7304   32.8475   50.1639 H   0  0  0  0  0  0  0  0  0  0  0  0
   22.3153   33.5673   50.6677 H   0  0  0  0  0  0  0  0  0  0  0  0
   24.3270   35.0114   51.7340 C   0  0  0  0  0  0  0  0  0  0  0  0
   25.1627   35.4848   52.5350 O   0  0  0  0  0  0  0  0  0  0  0  0
   23.8818   35.5981   50.7064 O   0  0  0  0  0  0  0  0  0  0  0  0
   23.2546   35.1701   50.1573 H   0  0  0  0  0  0  0  0  0  0  0  0
   27.5182   34.9571   54.2333 N   0  0  0  0  0  0  0  0  0  0  0  0
   28.7256   34.8988   53.6495 C   0  0  0  0  0  0  0  0  0  0  0  0
   29.7730   35.3640   54.1406 O   0  0  0  0  0  0  0  0  0  0  0  0
   26.7342   34.5582   53.7911 H   0  0  0  0  0  0  0  0  0  0  0  0
   27.3718   35.6317   55.5589 C   0  0  0  0  0  0  0  0  0  0  0  0
   25.9066   35.5322   56.0277 C   0  0  0  0  0  0  0  0  0  0  0  0
   25.5236   36.4205   56.8355 O   0  0  0  0  0  0  0  0  0  0  0  0
   25.2164   34.5756   55.5744 O   0  0  0  0  0  0  0  0  0  0  0  0
   25.5983   33.9654   54.9746 H   0  0  0  0  0  0  0  0  0  0  0  0
 19 20  1  0  0  0
 20 23  1  0  0  0
 20 18  1  0  0  0
 23 24  2  0  0  0
 23 25  1  0  0  0
 18 17  1  0  0  0
 17 13  1  0  0  0
 13 14  2  0  0  0
 13 15  1  0  0  0
 15  3  1  0  0  0
  3  4  1  0  0  0
  3  2  1  0  0  0
  4  5  2  0  0  0
  4  6  1  0  0  0
  2  1  1  0  0  0
  1 27  1  0  0  0
  6  8  1  0  0  0
  8  9  1  0  0  0
  9 10  2  0  0  0
  9 11  1  0  0  0
 44 48  1  0  0  0
 44 45  1  0  0  0
 48 49  1  0  0  0
 49 50  2  0  0  0
 49 51  1  0  0  0
 45 46  2  0  0  0
 45 29  1  0  0  0
 29 30  1  0  0  0
 29 28  1  0  0  0
 30 31  1  0  0  0
 28 27  1  0  0  0
 36 40  1  0  0  0
 36 37  1  0  0  0
 36 35  1  0  0  0
 40 41  2  0  0  0
 40 42  1  0  0  0
 35 34  1  0  0  0
 34 31  1  0  0  0
 31 32  2  0  0  0
 19 21  1  0  0  0
 19 22  1  0  0  0
 25 26  1  0  0  0
 15 16  1  0  0  0
  6  7  1  0  0  0
 11 12  1  0  0  0
 44 47  1  0  0  0
 51 52  1  0  0  0
 30 33  1  0  0  0
 42 43  1  0  0  0
 37 38  1  0  0  0
 37 39  1  0  0  0
M  END
> <minimizedAffinity>
-7.89043

$$$$
3GX0_GDS_A_301


 52 51  0  0  0  0  0  0  0  0999 V2000
   30.4911   37.4186   51.3219 S   0  0  0  0  0  0  0  0  0  0  0  0
   29.5170   38.0143   49.8929 C   0  0  0  0  0  0  0  0  0  0  0  0
   29.6944   39.4939   49.5519 C   0  0  0  0  0  0  0  0  0  0  0  0
   28.6618   39.8508   48.4928 C   0  0  0  0  0  0  0  0  0  0  0  0
   28.7628   40.9198   47.8774 O   0  0  0  0  0  0  0  0  0  0  0  0
   27.6700   38.9618   48.3101 N   0  0  0  0  0  0  0  0  0  0  0  0
   27.6665   38.1318   48.8396 H   0  0  0  0  0  0  0  0  0  0  0  0
   26.5868   39.1979   47.3367 C   0  0  0  0  0  0  0  0  0  0  0  0
   25.3522   38.3376   47.6511 C   0  0  0  0  0  0  0  0  0  0  0  0
   25.3020   37.2181   47.0551 O   0  0  0  0  0  0  0  0  0  0  0  0
   24.5018   38.7748   48.4822 O   0  0  0  0  0  0  0  0  0  0  0  0
   24.6206   39.6172   48.8749 H   0  0  0  0  0  0  0  0  0  0  0  0
   30.4373   41.0027   51.4064 C   0  0  0  0  0  0  0  0  0  0  0  0
   31.6271   41.0288   51.0497 O   0  0  0  0  0  0  0  0  0  0  0  0
   29.4665   40.3228   50.7674 N   0  0  0  0  0  0  0  0  0  0  0  0
   28.5510   40.3770   51.1255 H   0  0  0  0  0  0  0  0  0  0  0  0
   29.9583   41.7978   52.6649 C   0  0  0  0  0  0  0  0  0  0  0  0
   28.7117   41.1790   53.3410 C   0  0  0  0  0  0  0  0  0  0  0  0
   28.9027   40.0315   55.5673 N   0  0  0  0  0  0  0  0  0  0  0  0
   28.7808   41.3239   54.8933 C   0  0  0  0  0  0  0  0  0  0  0  0
   28.9442   40.1766   56.5760 H   0  0  0  0  0  0  0  0  0  0  0  0
   29.7543   39.5645   55.2557 H   0  0  0  0  0  0  0  0  0  0  0  0
   27.5539   42.0496   55.4525 C   0  0  0  0  0  0  0  0  0  0  0  0
   27.2800   43.1817   54.9645 O   0  0  0  0  0  0  0  0  0  0  0  0
   26.9077   41.4476   56.3638 O   0  0  0  0  0  0  0  0  0  0  0  0
   27.1914   40.6055   56.6611 H   0  0  0  0  0  0  0  0  0  0  0  0
   29.1542   37.3784   52.9099 S   0  0  0  0  0  0  0  0  0  0  0  0
   27.4966   37.4098   52.1674 C   0  0  0  0  0  0  0  0  0  0  0  0
   26.6385   36.1936   52.5754 C   0  0  0  0  0  0  0  0  0  0  0  0
   27.3649   34.9003   52.5857 N   0  0  0  0  0  0  0  0  0  0  0  0
   27.0917   33.9019   53.4280 C   0  0  0  0  0  0  0  0  0  0  0  0
   26.2599   33.9470   54.3391 O   0  0  0  0  0  0  0  0  0  0  0  0
   28.0907   34.7709   51.9333 H   0  0  0  0  0  0  0  0  0  0  0  0
   27.9360   32.6424   53.1999 C   0  0  0  0  0  0  0  0  0  0  0  0
   28.1719   32.4471   51.7202 C   0  0  0  0  0  0  0  0  0  0  0  0
   27.5425   31.1584   51.2080 C   0  0  0  0  0  0  0  0  0  0  0  0
   27.8670   30.9966   49.7700 N   0  0  0  0  0  0  0  0  0  0  0  0
   27.4890   31.7854   49.2453 H   0  0  0  0  0  0  0  0  0  0  0  0
   27.4556   30.1297   49.4240 H   0  0  0  0  0  0  0  0  0  0  0  0
   26.0258   31.1467   51.4712 C   0  0  0  0  0  0  0  0  0  0  0  0
   25.6593   30.4362   52.4331 O   0  0  0  0  0  0  0  0  0  0  0  0
   25.2605   31.8183   50.7218 O   0  0  0  0  0  0  0  0  0  0  0  0
   25.6188   32.3260   50.0205 H   0  0  0  0  0  0  0  0  0  0  0  0
   24.5924   35.1245   51.8415 N   0  0  0  0  0  0  0  0  0  0  0  0
   25.5080   36.0630   51.5535 C   0  0  0  0  0  0  0  0  0  0  0  0
   25.4667   36.8106   50.5565 O   0  0  0  0  0  0  0  0  0  0  0  0
   24.6837   34.5761   52.6539 H   0  0  0  0  0  0  0  0  0  0  0  0
   23.4336   34.9178   50.9206 C   0  0  0  0  0  0  0  0  0  0  0  0
   22.4215   33.9567   51.5751 C   0  0  0  0  0  0  0  0  0  0  0  0
   22.8300   32.7831   51.7848 O   0  0  0  0  0  0  0  0  0  0  0  0
   21.2744   34.4156   51.8407 O   0  0  0  0  0  0  0  0  0  0  0  0
   21.0698   35.3085   51.6437 H   0  0  0  0  0  0  0  0  0  0  0  0
 19 20  1  0  0  0
 20 23  1  0  0  0
 20 18  1  0  0  0
 23 24  2  0  0  0
 23 25  1  0  0  0
 18 17  1  0  0  0
 17 13  1  0  0  0
 13 14  2  0  0  0
 13 15  1  0  0  0
 15  3  1  0  0  0
  3  4  1  0  0  0
  3  2  1  0  0  0
  4  5  2  0  0  0
  4  6  1  0  0  0
  2  1  1  0  0  0
  1 27  1  0  0  0
  6  8  1  0  0  0
  8  9  1  0  0  0
  9 10  2  0  0  0
  9 11  1  0  0  0
 44 48  1  0  0  0
 44 45  1  0  0  0
 48 49  1  0  0  0
 49 50  2  0  0  0
 49 51  1  0  0  0
 45 46  2  0  0  0
 45 29  1  0  0  0
 29 30  1  0  0  0
 29 28  1  0  0  0
 30 31  1  0  0  0
 28 27  1  0  0  0
 36 40  1  0  0  0
 36 37  1  0  0  0
 36 35  1  0  0  0
 40 41  2  0  0  0
 40 42  1  0  0  0
 35 34  1  0  0  0
 34 31  1  0  0  0
 31 32  2  0  0  0
 19 21  1  0  0  0
 19 22  1  0  0  0
 25 26  1  0  0  0
 15 16  1  0  0  0
  6  7  1  0  0  0
 11 12  1  0  0  0
 44 47  1  0  0  0
 51 52  1  0  0  0
 30 33  1  0  0  0
 42 43  1  0  0  0
 37 38  1  0  0  0
 37 39  1  0  0  0
M  END
> <minimizedAffinity>
-7.88038

$$$$
3GX0_GDS_A_301


 52 51  0  0  0  0  0  0  0  0999 V2000
   27.8997   36.7081   50.8827 S   0  0  0  0  0  0  0  0  0  0  0  0
   26.1512   36.9015   51.3840 C   0  0  0  0  0  0  0  0  0  0  0  0
   25.5900   35.7719   52.2479 C   0  0  0  0  0  0  0  0  0  0  0  0
   24.2137   35.4159   51.7056 C   0  0  0  0  0  0  0  0  0  0  0  0
   23.9476   35.6433   50.5185 O   0  0  0  0  0  0  0  0  0  0  0  0
   23.3502   34.8826   52.5873 N   0  0  0  0  0  0  0  0  0  0  0  0
   23.6443   34.7302   53.5144 H   0  0  0  0  0  0  0  0  0  0  0  0
   21.9732   34.5197   52.2013 C   0  0  0  0  0  0  0  0  0  0  0  0
   20.9461   35.0664   53.2060 C   0  0  0  0  0  0  0  0  0  0  0  0
   21.3897   35.2831   54.3754 O   0  0  0  0  0  0  0  0  0  0  0  0
   19.7636   35.2865   52.8082 O   0  0  0  0  0  0  0  0  0  0  0  0
   19.5239   35.0951   51.9228 H   0  0  0  0  0  0  0  0  0  0  0  0
   27.0840   34.0174   53.2266 C   0  0  0  0  0  0  0  0  0  0  0  0
   26.9572   34.4135   54.3974 O   0  0  0  0  0  0  0  0  0  0  0  0
   26.4806   34.5818   52.1633 N   0  0  0  0  0  0  0  0  0  0  0  0
   26.6377   34.1836   51.2768 H   0  0  0  0  0  0  0  0  0  0  0  0
   27.9782   32.7796   52.8896 C   0  0  0  0  0  0  0  0  0  0  0  0
   27.2557   31.4279   53.1009 C   0  0  0  0  0  0  0  0  0  0  0  0
   27.0681   31.6260   50.6038 N   0  0  0  0  0  0  0  0  0  0  0  0
   26.5424   30.9586   51.7945 C   0  0  0  0  0  0  0  0  0  0  0  0
   26.5731   31.2882   49.7784 H   0  0  0  0  0  0  0  0  0  0  0  0
   28.0631   31.4217   50.5109 H   0  0  0  0  0  0  0  0  0  0  0  0
   25.0306   31.1935   51.8556 C   0  0  0  0  0  0  0  0  0  0  0  0
   24.5862   32.2419   51.3096 O   0  0  0  0  0  0  0  0  0  0  0  0
   24.3444   30.3074   52.4509 O   0  0  0  0  0  0  0  0  0  0  0  0
   24.7680   29.5606   52.8263 H   0  0  0  0  0  0  0  0  0  0  0  0
   28.9877   37.7846   52.2856 S   0  0  0  0  0  0  0  0  0  0  0  0
   30.6130   38.0858   51.5323 C   0  0  0  0  0  0  0  0  0  0  0  0
   30.8476   39.5742   51.1983 C   0  0  0  0  0  0  0  0  0  0  0  0
   29.7211   40.4721   51.5521 N   0  0  0  0  0  0  0  0  0  0  0  0
   29.8457   41.5483   52.3312 C   0  0  0  0  0  0  0  0  0  0  0  0
   30.8817   41.8941   52.9066 O   0  0  0  0  0  0  0  0  0  0  0  0
   28.8296   40.2618   51.1911 H   0  0  0  0  0  0  0  0  0  0  0  0
   28.5513   42.3533   52.4976 C   0  0  0  0  0  0  0  0  0  0  0  0
   27.6324   41.6477   53.4677 C   0  0  0  0  0  0  0  0  0  0  0  0
   27.9636   41.9860   54.9151 C   0  0  0  0  0  0  0  0  0  0  0  0
   28.3106   40.7389   55.6389 N   0  0  0  0  0  0  0  0  0  0  0  0
   27.5150   40.1009   55.6177 H   0  0  0  0  0  0  0  0  0  0  0  0
   28.5426   40.9611   56.6070 H   0  0  0  0  0  0  0  0  0  0  0  0
   26.8015   42.7454   55.5804 C   0  0  0  0  0  0  0  0  0  0  0  0
   25.7082   42.6775   54.9768 O   0  0  0  0  0  0  0  0  0  0  0  0
   27.0095   43.3835   56.6519 O   0  0  0  0  0  0  0  0  0  0  0  0
   27.8624   43.3823   57.0399 H   0  0  0  0  0  0  0  0  0  0  0  0
   30.5311   38.6663   48.9749 N   0  0  0  0  0  0  0  0  0  0  0  0
   31.0466   39.6818   49.6856 C   0  0  0  0  0  0  0  0  0  0  0  0
   31.6272   40.6687   49.1923 O   0  0  0  0  0  0  0  0  0  0  0  0
   30.0756   37.9227   49.4319 H   0  0  0  0  0  0  0  0  0  0  0  0
   30.6530   38.6722   47.4854 C   0  0  0  0  0  0  0  0  0  0  0  0
   29.2540   38.8210   46.8553 C   0  0  0  0  0  0  0  0  0  0  0  0
   28.8373   37.8316   46.1951 O   0  0  0  0  0  0  0  0  0  0  0  0
   28.6462   39.9127   47.0440 O   0  0  0  0  0  0  0  0  0  0  0  0
   29.0462   40.5896   47.5538 H   0  0  0  0  0  0  0  0  0  0  0  0
 19 20  1  0  0  0
 20 23  1  0  0  0
 20 18  1  0  0  0
 23 24  2  0  0  0
 23 25  1  0  0  0
 18 17  1  0  0  0
 17 13  1  0  0  0
 13 14  2  0  0  0
 13 15  1  0  0  0
 15  3  1  0  0  0
  3  4  1  0  0  0
  3  2  1  0  0  0
  4  5  2  0  0  0
  4  6  1  0  0  0
  2  1  1  0  0  0
  1 27  1  0  0  0
  6  8  1  0  0  0
  8  9  1  0  0  0
  9 10  2  0  0  0
  9 11  1  0  0  0
 44 48  1  0  0  0
 44 45  1  0  0  0
 48 49  1  0  0  0
 49 50  2  0  0  0
 49 51  1  0  0  0
 45 46  2  0  0  0
 45 29  1  0  0  0
 29 30  1  0  0  0
 29 28  1  0  0  0
 30 31  1  0  0  0
 28 27  1  0  0  0
 36 40  1  0  0  0
 36 37  1  0  0  0
 36 35  1  0  0  0
 40 41  2  0  0  0
 40 42  1  0  0  0
 35 34  1  0  0  0
 34 31  1  0  0  0
 31 32  2  0  0  0
 19 21  1  0  0  0
 19 22  1  0  0  0
 25 26  1  0  0  0
 15 16  1  0  0  0
  6  7  1  0  0  0
 11 12  1  0  0  0
 44 47  1  0  0  0
 51 52  1  0  0  0
 30 33  1  0  0  0
 42 43  1  0  0  0
 37 38  1  0  0  0
 37 39  1  0  0  0
M  END
> <minimizedAffinity>
-7.86377

$$$$
3GX0_GDS_A_301


 52 51  0  0  0  0  0  0  0  0999 V2000
   30.4553   36.6302   52.4393 S   0  0  0  0  0  0  0  0  0  0  0  0
   29.2858   35.3367   52.9914 C   0  0  0  0  0  0  0  0  0  0  0  0
   28.3669   34.7790   51.9042 C   0  0  0  0  0  0  0  0  0  0  0  0
   28.2695   33.2744   52.1089 C   0  0  0  0  0  0  0  0  0  0  0  0
   28.5492   32.7890   53.2125 O   0  0  0  0  0  0  0  0  0  0  0  0
   27.8954   32.5545   51.0369 N   0  0  0  0  0  0  0  0  0  0  0  0
   27.6861   33.0207   50.1954 H   0  0  0  0  0  0  0  0  0  0  0  0
   27.7903   31.0839   51.0890 C   0  0  0  0  0  0  0  0  0  0  0  0
   26.5037   30.6380   51.8025 C   0  0  0  0  0  0  0  0  0  0  0  0
   25.5452   30.3050   51.0401 O   0  0  0  0  0  0  0  0  0  0  0  0
   26.4905   30.6050   53.0689 O   0  0  0  0  0  0  0  0  0  0  0  0
   27.2479   30.8708   53.5524 H   0  0  0  0  0  0  0  0  0  0  0  0
   26.5911   36.4365   51.2985 C   0  0  0  0  0  0  0  0  0  0  0  0
   27.2739   37.0095   50.4329 O   0  0  0  0  0  0  0  0  0  0  0  0
   27.0131   35.3860   52.0275 N   0  0  0  0  0  0  0  0  0  0  0  0
   26.3889   34.9959   52.6813 H   0  0  0  0  0  0  0  0  0  0  0  0
   25.1312   36.9031   51.6089 C   0  0  0  0  0  0  0  0  0  0  0  0
   24.0515   36.0112   50.9511 C   0  0  0  0  0  0  0  0  0  0  0  0
   24.0837   35.1011   53.2921 N   0  0  0  0  0  0  0  0  0  0  0  0
   23.5085   34.9478   51.9560 C   0  0  0  0  0  0  0  0  0  0  0  0
   23.7004   34.3869   53.9113 H   0  0  0  0  0  0  0  0  0  0  0  0
   23.8548   36.0257   53.6568 H   0  0  0  0  0  0  0  0  0  0  0  0
   23.7757   33.5195   51.4731 C   0  0  0  0  0  0  0  0  0  0  0  0
   22.8383   32.6826   51.5976 O   0  0  0  0  0  0  0  0  0  0  0  0
   24.9236   33.2945   50.9812 O   0  0  0  0  0  0  0  0  0  0  0  0
   25.5555   33.9847   50.9315 H   0  0  0  0  0  0  0  0  0  0  0  0
   29.5484   38.4297   52.9397 S   0  0  0  0  0  0  0  0  0  0  0  0
   30.3451   39.6940   51.9069 C   0  0  0  0  0  0  0  0  0  0  0  0
   29.4729   40.1180   50.7063 C   0  0  0  0  0  0  0  0  0  0  0  0
   28.0155   39.9234   50.9018 N   0  0  0  0  0  0  0  0  0  0  0  0
   27.2009   40.8588   51.3943 C   0  0  0  0  0  0  0  0  0  0  0  0
   27.5570   41.9655   51.8094 O   0  0  0  0  0  0  0  0  0  0  0  0
   27.6264   39.0537   50.6538 H   0  0  0  0  0  0  0  0  0  0  0  0
   25.7258   40.4425   51.4399 C   0  0  0  0  0  0  0  0  0  0  0  0
   24.8491   41.6727   51.4770 C   0  0  0  0  0  0  0  0  0  0  0  0
   24.0304   41.8276   50.2023 C   0  0  0  0  0  0  0  0  0  0  0  0
   23.9570   43.2645   49.8428 N   0  0  0  0  0  0  0  0  0  0  0  0
   23.5038   43.7809   50.5967 H   0  0  0  0  0  0  0  0  0  0  0  0
   23.4174   43.3730   48.9841 H   0  0  0  0  0  0  0  0  0  0  0  0
   22.6374   41.1926   50.3649 C   0  0  0  0  0  0  0  0  0  0  0  0
   22.4854   40.0919   49.7908 O   0  0  0  0  0  0  0  0  0  0  0  0
   21.7521   41.8004   51.0322 O   0  0  0  0  0  0  0  0  0  0  0  0
   21.9500   42.6245   51.4317 H   0  0  0  0  0  0  0  0  0  0  0  0
   28.9696   39.1809   48.5299 N   0  0  0  0  0  0  0  0  0  0  0  0
   29.8825   39.2556   49.5113 C   0  0  0  0  0  0  0  0  0  0  0  0
   31.0001   38.7037   49.4827 O   0  0  0  0  0  0  0  0  0  0  0  0
   28.1096   39.6523   48.6162 H   0  0  0  0  0  0  0  0  0  0  0  0
   29.2674   38.3773   47.3055 C   0  0  0  0  0  0  0  0  0  0  0  0
   27.9459   37.9365   46.6454 C   0  0  0  0  0  0  0  0  0  0  0  0
   27.3763   36.9381   47.1622 O   0  0  0  0  0  0  0  0  0  0  0  0
   27.5468   38.6003   45.6469 O   0  0  0  0  0  0  0  0  0  0  0  0
   28.0470   39.3305   45.3395 H   0  0  0  0  0  0  0  0  0  0  0  0
 19 20  1  0  0  0
 20 23  1  0  0  0
 20 18  1  0  0  0
 23 24  2  0  0  0
 23 25  1  0  0  0
 18 17  1  0  0  0
 17 13  1  0  0  0
 13 14  2  0  0  0
 13 15  1  0  0  0
 15  3  1  0  0  0
  3  4  1  0  0  0
  3  2  1  0  0  0
  4  5  2  0  0  0
  4  6  1  0  0  0
  2  1  1  0  0  0
  1 27  1  0  0  0
  6  8  1  0  0  0
  8  9  1  0  0  0
  9 10  2  0  0  0
  9 11  1  0  0  0
 44 48  1  0  0  0
 44 45  1  0  0  0
 48 49  1  0  0  0
 49 50  2  0  0  0
 49 51  1  0  0  0
 45 46  2  0  0  0
 45 29  1  0  0  0
 29 30  1  0  0  0
 29 28  1  0  0  0
 30 31  1  0  0  0
 28 27  1  0  0  0
 36 40  1  0  0  0
 36 37  1  0  0  0
 36 35  1  0  0  0
 40 41  2  0  0  0
 40 42  1  0  0  0
 35 34  1  0  0  0
 34 31  1  0  0  0
 31 32  2  0  0  0
 19 21  1  0  0  0
 19 22  1  0  0  0
 25 26  1  0  0  0
 15 16  1  0  0  0
  6  7  1  0  0  0
 11 12  1  0  0  0
 44 47  1  0  0  0
 51 52  1  0  0  0
 30 33  1  0  0  0
 42 43  1  0  0  0
 37 38  1  0  0  0
 37 39  1  0  0  0
M  END
> <minimizedAffinity>
-7.84637

$$$$
3GX0_GDS_A_301


 52 51  0  0  0  0  0  0  0  0999 V2000
   28.9433   38.6644   48.5400 S   0  0  0  0  0  0  0  0  0  0  0  0
   30.7449   38.9760   48.5968 C   0  0  0  0  0  0  0  0  0  0  0  0
   31.1522   40.3728   49.0661 C   0  0  0  0  0  0  0  0  0  0  0  0
   30.9930   41.3210   47.8867 C   0  0  0  0  0  0  0  0  0  0  0  0
   30.5368   42.4562   48.0734 O   0  0  0  0  0  0  0  0  0  0  0  0
   31.3504   40.8358   46.6850 N   0  0  0  0  0  0  0  0  0  0  0  0
   31.7094   39.9210   46.6246 H   0  0  0  0  0  0  0  0  0  0  0  0
   31.2186   41.6387   45.4544 C   0  0  0  0  0  0  0  0  0  0  0  0
   32.5847   42.1497   44.9685 C   0  0  0  0  0  0  0  0  0  0  0  0
   32.9065   41.8077   43.7893 O   0  0  0  0  0  0  0  0  0  0  0  0
   33.2707   42.8817   45.7423 O   0  0  0  0  0  0  0  0  0  0  0  0
   32.9529   43.0833   46.6004 H   0  0  0  0  0  0  0  0  0  0  0  0
   30.5388   40.6101   51.4817 C   0  0  0  0  0  0  0  0  0  0  0  0
   31.5653   40.0529   51.9054 O   0  0  0  0  0  0  0  0  0  0  0  0
   30.2647   40.8101   50.1786 N   0  0  0  0  0  0  0  0  0  0  0  0
   29.4273   41.2733   49.9477 H   0  0  0  0  0  0  0  0  0  0  0  0
   29.4532   41.1519   52.4683 C   0  0  0  0  0  0  0  0  0  0  0  0
   29.9979   42.2128   53.4540 C   0  0  0  0  0  0  0  0  0  0  0  0
   31.3722   40.7599   54.9739 N   0  0  0  0  0  0  0  0  0  0  0  0
   30.1872   41.6123   54.8820 C   0  0  0  0  0  0  0  0  0  0  0  0
   31.4537   40.3919   55.9217 H   0  0  0  0  0  0  0  0  0  0  0  0
   32.2031   41.3073   54.7490 H   0  0  0  0  0  0  0  0  0  0  0  0
   28.9678   40.7983   55.3234 C   0  0  0  0  0  0  0  0  0  0  0  0
   29.1071   39.5457   55.4027 O   0  0  0  0  0  0  0  0  0  0  0  0
   27.9119   41.4546   55.5781 O   0  0  0  0  0  0  0  0  0  0  0  0
   27.9073   42.3874   55.4892 H   0  0  0  0  0  0  0  0  0  0  0  0
   28.6068   37.1746   49.9465 S   0  0  0  0  0  0  0  0  0  0  0  0
   27.1968   37.7389   50.9432 C   0  0  0  0  0  0  0  0  0  0  0  0
   26.5880   36.6122   51.8045 C   0  0  0  0  0  0  0  0  0  0  0  0
   27.3968   35.3700   51.8589 N   0  0  0  0  0  0  0  0  0  0  0  0
   27.5211   34.6120   52.9502 C   0  0  0  0  0  0  0  0  0  0  0  0
   27.0444   34.8758   54.0579 O   0  0  0  0  0  0  0  0  0  0  0  0
   27.8695   35.0884   51.0425 H   0  0  0  0  0  0  0  0  0  0  0  0
   28.3569   33.3439   52.7390 C   0  0  0  0  0  0  0  0  0  0  0  0
   28.2305   32.8820   51.3058 C   0  0  0  0  0  0  0  0  0  0  0  0
   27.6237   31.4886   51.2076 C   0  0  0  0  0  0  0  0  0  0  0  0
   27.8559   30.9519   49.8448 N   0  0  0  0  0  0  0  0  0  0  0  0
   27.4095   31.5607   49.1589 H   0  0  0  0  0  0  0  0  0  0  0  0
   27.4595   30.0145   49.7764 H   0  0  0  0  0  0  0  0  0  0  0  0
   26.1303   31.5135   51.5807 C   0  0  0  0  0  0  0  0  0  0  0  0
   25.8833   31.3386   52.7942 O   0  0  0  0  0  0  0  0  0  0  0  0
   25.2667   31.6886   50.6741 O   0  0  0  0  0  0  0  0  0  0  0  0
   25.5384   31.8128   49.7859 H   0  0  0  0  0  0  0  0  0  0  0  0
   24.6515   35.1589   51.7280 N   0  0  0  0  0  0  0  0  0  0  0  0
   25.2379   36.2398   51.1896 C   0  0  0  0  0  0  0  0  0  0  0  0
   24.7458   36.9319   50.2767 O   0  0  0  0  0  0  0  0  0  0  0  0
   25.0947   34.6652   52.4553 H   0  0  0  0  0  0  0  0  0  0  0  0
   23.3211   34.7099   51.2158 C   0  0  0  0  0  0  0  0  0  0  0  0
   22.6780   33.7448   52.2314 C   0  0  0  0  0  0  0  0  0  0  0  0
   21.9501   34.2752   53.1130 O   0  0  0  0  0  0  0  0  0  0  0  0
   22.9337   32.5139   52.1038 O   0  0  0  0  0  0  0  0  0  0  0  0
   23.4906   32.2206   51.4097 H   0  0  0  0  0  0  0  0  0  0  0  0
 19 20  1  0  0  0
 20 23  1  0  0  0
 20 18  1  0  0  0
 23 24  2  0  0  0
 23 25  1  0  0  0
 18 17  1  0  0  0
 17 13  1  0  0  0
 13 14  2  0  0  0
 13 15  1  0  0  0
 15  3  1  0  0  0
  3  4  1  0  0  0
  3  2  1  0  0  0
  4  5  2  0  0  0
  4  6  1  0  0  0
  2  1  1  0  0  0
  1 27  1  0  0  0
  6  8  1  0  0  0
  8  9  1  0  0  0
  9 10  2  0  0  0
  9 11  1  0  0  0
 44 48  1  0  0  0
 44 45  1  0  0  0
 48 49  1  0  0  0
 49 50  2  0  0  0
 49 51  1  0  0  0
 45 46  2  0  0  0
 45 29  1  0  0  0
 29 30  1  0  0  0
 29 28  1  0  0  0
 30 31  1  0  0  0
 28 27  1  0  0  0
 36 40  1  0  0  0
 36 37  1  0  0  0
 36 35  1  0  0  0
 40 41  2  0  0  0
 40 42  1  0  0  0
 35 34  1  0  0  0
 34 31  1  0  0  0
 31 32  2  0  0  0
 19 21  1  0  0  0
 19 22  1  0  0  0
 25 26  1  0  0  0
 15 16  1  0  0  0
  6  7  1  0  0  0
 11 12  1  0  0  0
 44 47  1  0  0  0
 51 52  1  0  0  0
 30 33  1  0  0  0
 42 43  1  0  0  0
 37 38  1  0  0  0
 37 39  1  0  0  0
M  END
> <minimizedAffinity>
-7.82351

$$$$
3GX0_GDS_A_301


 52 51  0  0  0  0  0  0  0  0999 V2000
   30.2819   36.2084   52.7810 S   0  0  0  0  0  0  0  0  0  0  0  0
   28.9767   35.0317   53.2888 C   0  0  0  0  0  0  0  0  0  0  0  0
   28.0803   34.5225   52.1600 C   0  0  0  0  0  0  0  0  0  0  0  0
   27.9330   33.0177   52.3302 C   0  0  0  0  0  0  0  0  0  0  0  0
   28.2388   32.4924   53.4083 O   0  0  0  0  0  0  0  0  0  0  0  0
   27.4875   32.3417   51.2569 N   0  0  0  0  0  0  0  0  0  0  0  0
   27.2621   32.8381   50.4372 H   0  0  0  0  0  0  0  0  0  0  0  0
   27.3277   30.8752   51.2759 C   0  0  0  0  0  0  0  0  0  0  0  0
   25.9453   30.4681   51.8112 C   0  0  0  0  0  0  0  0  0  0  0  0
   25.3017   29.6462   51.0891 O   0  0  0  0  0  0  0  0  0  0  0  0
   25.5586   30.9425   52.9205 O   0  0  0  0  0  0  0  0  0  0  0  0
   26.1023   31.5466   53.3867 H   0  0  0  0  0  0  0  0  0  0  0  0
   26.3121   36.1296   51.4126 C   0  0  0  0  0  0  0  0  0  0  0  0
   26.9754   36.5810   50.4639 O   0  0  0  0  0  0  0  0  0  0  0  0
   26.7408   35.1662   52.2500 N   0  0  0  0  0  0  0  0  0  0  0  0
   26.1320   34.8697   52.9647 H   0  0  0  0  0  0  0  0  0  0  0  0
   24.8705   36.6584   51.7084 C   0  0  0  0  0  0  0  0  0  0  0  0
   23.7562   35.7142   51.1978 C   0  0  0  0  0  0  0  0  0  0  0  0
   23.8562   34.5556   53.4243 N   0  0  0  0  0  0  0  0  0  0  0  0
   22.9688   35.0763   52.3847 C   0  0  0  0  0  0  0  0  0  0  0  0
   23.2983   34.1502   54.1759 H   0  0  0  0  0  0  0  0  0  0  0  0
   24.4268   35.3150   53.7960 H   0  0  0  0  0  0  0  0  0  0  0  0
   22.0521   33.9429   51.9160 C   0  0  0  0  0  0  0  0  0  0  0  0
   22.5944   32.8343   51.6484 O   0  0  0  0  0  0  0  0  0  0  0  0
   20.8145   34.2125   51.8380 O   0  0  0  0  0  0  0  0  0  0  0  0
   20.5068   35.0694   52.0593 H   0  0  0  0  0  0  0  0  0  0  0  0
   29.3960   38.0826   52.8960 S   0  0  0  0  0  0  0  0  0  0  0  0
   30.3483   39.1539   51.7800 C   0  0  0  0  0  0  0  0  0  0  0  0
   29.5371   39.5966   50.5439 C   0  0  0  0  0  0  0  0  0  0  0  0
   28.0699   39.4199   50.6718 N   0  0  0  0  0  0  0  0  0  0  0  0
   27.1842   40.3990   50.4769 C   0  0  0  0  0  0  0  0  0  0  0  0
   27.4666   41.5764   50.2365 O   0  0  0  0  0  0  0  0  0  0  0  0
   27.7296   38.5286   50.9146 H   0  0  0  0  0  0  0  0  0  0  0  0
   25.7222   39.9541   50.6032 C   0  0  0  0  0  0  0  0  0  0  0  0
   24.8929   40.6144   49.5263 C   0  0  0  0  0  0  0  0  0  0  0  0
   24.1093   39.5977   48.7068 C   0  0  0  0  0  0  0  0  0  0  0  0
   23.0834   38.9639   49.5700 N   0  0  0  0  0  0  0  0  0  0  0  0
   23.5405   38.4868   50.3471 H   0  0  0  0  0  0  0  0  0  0  0  0
   22.5492   38.2885   49.0234 H   0  0  0  0  0  0  0  0  0  0  0  0
   25.0542   38.5653   48.0654 C   0  0  0  0  0  0  0  0  0  0  0  0
   25.9417   39.0450   47.3263 O   0  0  0  0  0  0  0  0  0  0  0  0
   24.8806   37.3351   48.2998 O   0  0  0  0  0  0  0  0  0  0  0  0
   24.1886   37.0595   48.8683 H   0  0  0  0  0  0  0  0  0  0  0  0
   30.4458   39.4254   48.3050 N   0  0  0  0  0  0  0  0  0  0  0  0
   29.9895   38.7365   49.3629 C   0  0  0  0  0  0  0  0  0  0  0  0
   29.9442   37.4924   49.4321 O   0  0  0  0  0  0  0  0  0  0  0  0
   30.4621   40.4096   48.3241 H   0  0  0  0  0  0  0  0  0  0  0  0
   30.9290   38.6884   47.0979 C   0  0  0  0  0  0  0  0  0  0  0  0
   30.2058   39.2224   45.8455 C   0  0  0  0  0  0  0  0  0  0  0  0
   28.9669   38.9990   45.7857 O   0  0  0  0  0  0  0  0  0  0  0  0
   30.9059   39.8293   44.9862 O   0  0  0  0  0  0  0  0  0  0  0  0
   31.8253   39.9433   45.1268 H   0  0  0  0  0  0  0  0  0  0  0  0
 19 20  1  0  0  0
 20 23  1  0  0  0
 20 18  1  0  0  0
 23 24  2  0  0  0
 23 25  1  0  0  0
 18 17  1  0  0  0
 17 13  1  0  0  0
 13 14  2  0  0  0
 13 15  1  0  0  0
 15  3  1  0  0  0
  3  4  1  0  0  0
  3  2  1  0  0  0
  4  5  2  0  0  0
  4  6  1  0  0  0
  2  1  1  0  0  0
  1 27  1  0  0  0
  6  8  1  0  0  0
  8  9  1  0  0  0
  9 10  2  0  0  0
  9 11  1  0  0  0
 44 48  1  0  0  0
 44 45  1  0  0  0
 48 49  1  0  0  0
 49 50  2  0  0  0
 49 51  1  0  0  0
 45 46  2  0  0  0
 45 29  1  0  0  0
 29 30  1  0  0  0
 29 28  1  0  0  0
 30 31  1  0  0  0
 28 27  1  0  0  0
 36 40  1  0  0  0
 36 37  1  0  0  0
 36 35  1  0  0  0
 40 41  2  0  0  0
 40 42  1  0  0  0
 35 34  1  0  0  0
 34 31  1  0  0  0
 31 32  2  0  0  0
 19 21  1  0  0  0
 19 22  1  0  0  0
 25 26  1  0  0  0
 15 16  1  0  0  0
  6  7  1  0  0  0
 11 12  1  0  0  0
 44 47  1  0  0  0
 51 52  1  0  0  0
 30 33  1  0  0  0
 42 43  1  0  0  0
 37 38  1  0  0  0
 37 39  1  0  0  0
M  END
> <minimizedAffinity>
-7.78338

$$$$
3GX0_GDS_A_301


 52 51  0  0  0  0  0  0  0  0999 V2000
   29.1416   39.2636   52.7449 S   0  0  0  0  0  0  0  0  0  0  0  0
   30.2725   39.8105   54.0745 C   0  0  0  0  0  0  0  0  0  0  0  0
   29.6455   40.7159   55.1348 C   0  0  0  0  0  0  0  0  0  0  0  0
   30.7681   41.5093   55.7872 C   0  0  0  0  0  0  0  0  0  0  0  0
   31.9171   41.0495   55.7931 O   0  0  0  0  0  0  0  0  0  0  0  0
   30.4172   42.6801   56.3470 N   0  0  0  0  0  0  0  0  0  0  0  0
   29.4794   42.9752   56.2938 H   0  0  0  0  0  0  0  0  0  0  0  0
   31.4011   43.5342   57.0391 C   0  0  0  0  0  0  0  0  0  0  0  0
   31.3996   44.9637   56.4737 C   0  0  0  0  0  0  0  0  0  0  0  0
   31.6082   45.8852   57.3212 O   0  0  0  0  0  0  0  0  0  0  0  0
   31.2235   45.1256   55.2295 O   0  0  0  0  0  0  0  0  0  0  0  0
   31.0754   44.3836   54.6769 H   0  0  0  0  0  0  0  0  0  0  0  0
   27.4670   41.9416   54.9948 C   0  0  0  0  0  0  0  0  0  0  0  0
   27.0154   41.4732   56.0533 O   0  0  0  0  0  0  0  0  0  0  0  0
   28.6827   41.6528   54.4931 N   0  0  0  0  0  0  0  0  0  0  0  0
   28.9510   42.0872   53.6513 H   0  0  0  0  0  0  0  0  0  0  0  0
   26.6300   42.9489   54.1405 C   0  0  0  0  0  0  0  0  0  0  0  0
   26.1882   42.3722   52.7744 C   0  0  0  0  0  0  0  0  0  0  0  0
   25.6124   44.7885   52.4002 N   0  0  0  0  0  0  0  0  0  0  0  0
   25.3596   43.4159   51.9622 C   0  0  0  0  0  0  0  0  0  0  0  0
   25.0508   45.4321   51.8427 H   0  0  0  0  0  0  0  0  0  0  0  0
   26.6012   45.0074   52.2790 H   0  0  0  0  0  0  0  0  0  0  0  0
   23.8553   43.1455   52.0556 C   0  0  0  0  0  0  0  0  0  0  0  0
   23.3160   42.5399   51.0875 O   0  0  0  0  0  0  0  0  0  0  0  0
   23.2720   43.5521   53.1067 O   0  0  0  0  0  0  0  0  0  0  0  0
   23.7610   43.9941   53.7727 H   0  0  0  0  0  0  0  0  0  0  0  0
   29.6576   37.2871   52.3739 S   0  0  0  0  0  0  0  0  0  0  0  0
   28.3550   36.2791   53.1401 C   0  0  0  0  0  0  0  0  0  0  0  0
   27.6675   35.3308   52.1351 C   0  0  0  0  0  0  0  0  0  0  0  0
   26.1989   35.5074   52.0240 N   0  0  0  0  0  0  0  0  0  0  0  0
   25.6155   36.3647   51.1842 C   0  0  0  0  0  0  0  0  0  0  0  0
   26.2112   37.1595   50.4510 O   0  0  0  0  0  0  0  0  0  0  0  0
   25.6210   34.9602   52.6036 H   0  0  0  0  0  0  0  0  0  0  0  0
   24.0830   36.3180   51.2073 C   0  0  0  0  0  0  0  0  0  0  0  0
   23.6177   35.3475   52.2679 C   0  0  0  0  0  0  0  0  0  0  0  0
   22.7223   34.2591   51.6909 C   0  0  0  0  0  0  0  0  0  0  0  0
   21.5046   34.1362   52.5285 N   0  0  0  0  0  0  0  0  0  0  0  0
   21.7706   33.8818   53.4798 H   0  0  0  0  0  0  0  0  0  0  0  0
   20.8967   33.4147   52.1409 H   0  0  0  0  0  0  0  0  0  0  0  0
   23.4862   32.9281   51.5691 C   0  0  0  0  0  0  0  0  0  0  0  0
   24.4825   32.9549   50.8135 O   0  0  0  0  0  0  0  0  0  0  0  0
   23.0737   31.9152   52.2035 O   0  0  0  0  0  0  0  0  0  0  0  0
   22.3158   31.9817   52.7504 H   0  0  0  0  0  0  0  0  0  0  0  0
   26.9597   33.0176   52.2621 N   0  0  0  0  0  0  0  0  0  0  0  0
   27.9105   33.8981   52.6124 C   0  0  0  0  0  0  0  0  0  0  0  0
   28.9406   33.6107   53.2533 O   0  0  0  0  0  0  0  0  0  0  0  0
   26.1758   33.3141   51.7455 H   0  0  0  0  0  0  0  0  0  0  0  0
   27.0990   31.5842   52.6615 C   0  0  0  0  0  0  0  0  0  0  0  0
   26.7889   30.6806   51.4516 C   0  0  0  0  0  0  0  0  0  0  0  0
   27.7401   30.4885   50.6475 O   0  0  0  0  0  0  0  0  0  0  0  0
   25.6177   30.2148   51.3608 O   0  0  0  0  0  0  0  0  0  0  0  0
   24.9801   30.4191   52.0163 H   0  0  0  0  0  0  0  0  0  0  0  0
 19 20  1  0  0  0
 20 23  1  0  0  0
 20 18  1  0  0  0
 23 24  2  0  0  0
 23 25  1  0  0  0
 18 17  1  0  0  0
 17 13  1  0  0  0
 13 14  2  0  0  0
 13 15  1  0  0  0
 15  3  1  0  0  0
  3  4  1  0  0  0
  3  2  1  0  0  0
  4  5  2  0  0  0
  4  6  1  0  0  0
  2  1  1  0  0  0
  1 27  1  0  0  0
  6  8  1  0  0  0
  8  9  1  0  0  0
  9 10  2  0  0  0
  9 11  1  0  0  0
 44 48  1  0  0  0
 44 45  1  0  0  0
 48 49  1  0  0  0
 49 50  2  0  0  0
 49 51  1  0  0  0
 45 46  2  0  0  0
 45 29  1  0  0  0
 29 30  1  0  0  0
 29 28  1  0  0  0
 30 31  1  0  0  0
 28 27  1  0  0  0
 36 40  1  0  0  0
 36 37  1  0  0  0
 36 35  1  0  0  0
 40 41  2  0  0  0
 40 42  1  0  0  0
 35 34  1  0  0  0
 34 31  1  0  0  0
 31 32  2  0  0  0
 19 21  1  0  0  0
 19 22  1  0  0  0
 25 26  1  0  0  0
 15 16  1  0  0  0
  6  7  1  0  0  0
 11 12  1  0  0  0
 44 47  1  0  0  0
 51 52  1  0  0  0
 30 33  1  0  0  0
 42 43  1  0  0  0
 37 38  1  0  0  0
 37 39  1  0  0  0
M  END
> <minimizedAffinity>
-7.76022

$$$$
