3GX0_GDS_A_301
  RCSB PDB12061708483D
Coordinates from PDB:3GX0:A:301 Model:1 without hydrogens
 40 39  0  0  0  0            999 V2000
   28.5050   43.3690   52.6740   N 0  0  0  0  0  0  0  0  0  0  0  0
   29.1170   42.6390   51.5640   C 0  0  0  0  0  0  0  0  0  0  0  0
   30.6390   42.7150   51.7130   C 0  0  0  0  0  0  0  0  0  0  0  0
   31.1300   43.8220   52.0710   O 0  0  0  0  0  0  0  0  0  0  0  0
   31.2850   41.6510   51.4660   O 0  0  0  0  0  0  0  0  0  0  0  0
   28.6430   43.1670   50.1740   C 0  0  0  0  0  0  0  0  0  0  0  0
   28.9750   42.1580   49.0490   C 0  0  0  0  0  0  0  0  0  0  0  0
   28.1870   40.8130   49.1730   C 0  0  0  0  0  0  0  0  0  0  0  0
   26.9970   40.8010   49.5300   O 0  0  0  0  0  0  0  0  0  0  0  0
   28.9030   39.7120   48.8760   N 0  0  0  0  0  0  0  0  0  0  0  0
   28.3560   38.3280   48.9200   C 0  0  0  0  0  0  0  0  0  0  0  0
   29.2770   37.4440   49.7480   C 0  0  0  0  0  0  0  0  0  0  0  0
   30.4790   37.7260   49.8340   O 0  0  0  0  0  0  0  0  0  0  0  0
   28.3020   37.7470   47.5070   C 0  0  0  0  0  0  0  0  0  0  0  0
   26.9750   38.4120   46.4380   S 0  0  0  0  0  0  0  0  0  0  0  0
   28.7060   36.3740   50.3280   N 0  0  0  0  0  0  0  0  0  0  0  0
   29.4900   35.4180   51.1330   C 0  0  0  0  0  0  0  0  0  0  0  0
   28.7720   34.0640   51.2530   C 0  0  0  0  0  0  0  0  0  0  0  0
   28.9360   33.4560   52.3550   O 0  0  0  0  0  0  0  0  0  0  0  0
   28.0600   33.6650   50.2840   O 0  0  0  0  0  0  0  0  0  0  0  0
   24.2610   41.1860   50.6440   N 0  0  0  0  0  0  0  0  0  0  0  0
   23.5070   42.3500   51.2010   C 0  0  0  0  0  0  0  0  0  0  0  0
   24.4160   43.1380   52.1650   C 0  0  0  0  0  0  0  0  0  0  0  0
   25.5730   42.6700   52.3400   O 0  0  0  0  0  0  0  0  0  0  0  0
   23.9320   44.1750   52.7010   O 0  0  0  0  0  0  0  0  0  0  0  0
   23.5870   40.1340   50.1530   C 0  0  0  0  0  0  0  0  0  0  0  0
   22.3440   40.0470   50.1090   O 0  0  0  0  0  0  0  0  0  0  0  0
   24.4640   39.0110   49.5970   C 0  0  0  0  0  0  0  0  0  0  0  0
   23.9530   37.7400   50.1660   N 0  0  0  0  0  0  0  0  0  0  0  0
   24.4070   39.0950   48.0570   C 0  0  0  0  0  0  0  0  0  0  0  0
   25.2090   37.6800   47.2480   S 0  0  0  0  0  0  0  0  0  0  0  0
   24.1470   33.6470   52.8660   C 0  0  0  0  0  0  0  0  0  0  0  0
   23.4210   32.7160   51.8780   C 0  0  0  0  0  0  0  0  0  0  0  0
   22.2830   33.0980   51.5270   O 0  0  0  0  0  0  0  0  0  0  0  0
   23.9860   31.6500   51.5000   O 0  0  0  0  0  0  0  0  0  0  0  0
   25.1010   32.9150   53.7340   N 0  0  0  0  0  0  0  0  0  0  0  0
   24.8910   34.7500   52.1250   C 0  0  0  0  0  0  0  0  0  0  0  0
   23.9520   35.6380   51.3420   C 0  0  0  0  0  0  0  0  0  0  0  0
   24.7220   36.8400   50.7820   C 0  0  0  0  0  0  0  0  0  0  0  0
   25.9490   36.9120   50.8970   O 0  0  0  0  0  0  0  0  0  0  0  0
  1  2  1  0  0  0  0
  2  3  1  0  0  0  0
  2  6  1  0  0  0  0
  3  4  2  0  0  0  0
  3  5  1  0  0  0  0
  6  7  1  0  0  0  0
  7  8  1  0  0  0  0
  8  9  2  0  0  0  0
  8 10  1  0  0  0  0
 10 11  1  0  0  0  0
 11 12  1  0  0  0  0
 11 14  1  0  0  0  0
 12 13  2  0  0  0  0
 12 16  1  0  0  0  0
 14 15  1  0  0  0  0
 15 31  1  0  0  0  0
 16 17  1  0  0  0  0
 17 18  1  0  0  0  0
 18 19  2  0  0  0  0
 18 20  1  0  0  0  0
 21 22  1  0  0  0  0
 21 26  1  0  0  0  0
 22 23  1  0  0  0  0
 23 24  2  0  0  0  0
 23 25  1  0  0  0  0
 26 27  2  0  0  0  0
 26 28  1  0  0  0  0
 28 29  1  0  0  0  0
 28 30  1  0  0  0  0
 29 39  1  0  0  0  0
 30 31  1  0  0  0  0
 32 33  1  0  0  0  0
 32 36  1  0  0  0  0
 32 37  1  0  0  0  0
 33 34  2  0  0  0  0
 33 35  1  0  0  0  0
 37 38  1  0  0  0  0
 38 39  1  0  0  0  0
 39 40  2  0  0  0  0
A    1
N1
A    2
CA1
A    3
C1
A    4
OE1
A    5
OE2
A    6
CB1
A    7
CG1
A    8
CD1
A    9
O1
A   10
N2
A   11
CA2
A   12
C2
A   13
O2
A   14
CB2
A   15
SG2
A   16
N3
A   17
CA3
A   18
C3
A   19
OE3
A   20
OE4
A   21
N4
A   22
CA4
A   23
C4
A   24
OE5
A   25
OE6
A   26
C5
A   27
O5
A   28
CA5
A   29
N5
A   30
CB5
A   31
SG5
A   32
CA6
A   33
C6
A   34
OE7
A   35
OE8
A   36
N6
A   37
CB6
A   38
CG6
A   39
CD6
A   40
O6
M  END
>  <InstanceId>
3GX0_GDS_A_301

>  <ChemCompId>
GDS

>  <PdbId>
3GX0

>  <ChainId>
A

>  <ResidueNumber>
301

>  <InsertionCode>


>  <Model>
1

>  <AltIds>


>  <MissingHeavyAtoms>
0

>  <ObservedFormula>
C20 N6 O12 S2

>  <Name>
OXIDIZED GLUTATHIONE DISULFIDE

>  <SystematicName>
(2S)-2-amino-5-[[(2R)-3-[(2R)-2-[[(4S)-4-amino-5-hydroxy-5-oxo-pentanoyl]amino]-3-(carboxymethylamino)-3-oxo-propyl]disulfanyl-1-(carboxymethylamino)-1-oxo-propan-2-yl]amino]-5-oxo-pentanoic acid

>  <Synonyms>


>  <Type>
NON-POLYMER

>  <Formula>
C20 H32 N6 O12 S2

>  <MolecularWeight>
612.631

>  <ModifiedDate>
2011-06-04

>  <Parent>


>  <OneLetterCode>


>  <SubcomponentList>


>  <AmbiguousFlag>
N

>  <InChI>
InChI=1S/C20H32N6O12S2/c21-9(19(35)36)1-3-13(27)25-11(17(33)23-5-15(29)30)7-39-40-8-12(18(34)24-6-16(31)32)26-14(28)4-2-10(22)20(37)38/h9-12H,1-8,21-22H2,(H,23,33)(H,24,34)(H,25,27)(H,26,28)(H,29,30)(H,31,32)(H,35,36)(H,37,38)/t9-,10-,11-,12-/m0/s1

>  <InChIKey>
YPZRWBKMTBYPTK-BJDJZHNGSA-N

>  <SMILES>
C(CC(=O)N[C@@H](CSSC[C@@H](C(=O)NCC(=O)O)NC(=O)CC[C@@H](C(=O)O)N)C(=O)NCC(=O)O)[C@@H](C(=O)O)N

$$$$
