2J34_GS6_A_1245


 31 34  0  0  0  0  0  0  0  0999 V2000
    6.1235    7.3710   21.1119 C   0  0  0  0  0  0  0  0  0  0  0  0
    5.3451    8.5824   21.6515 C   0  0  0  0  0  0  0  0  0  0  0  0
    6.3217    9.3239   22.5808 C   0  0  0  0  0  0  0  0  0  0  0  0
    7.3913    7.3109   21.9749 C   0  0  0  0  0  0  0  0  0  0  0  0
    8.1747    6.3715   22.0193 O   0  0  0  0  0  0  0  0  0  0  0  0
    7.5081    8.4654   22.6716 N   0  0  0  0  0  0  0  0  0  0  0  0
    5.2949    6.1532   21.0030 N   0  0  0  0  0  0  0  0  0  0  0  0
    5.7362    5.4664   21.6145 H   0  0  0  0  0  0  0  0  0  0  0  0
    4.9857    5.3629   19.6080 S   0  0  0  0  0  0  0  0  0  0  0  0
    4.9720    6.3051   18.5474 O   0  0  0  0  0  0  0  0  0  0  0  0
    3.7624    4.6804   19.9111 O   0  0  0  0  0  0  0  0  0  0  0  0
   10.8819   -0.1547   18.3223 Cl  0  0  0  0  0  0  0  0  0  0  0  0
    9.7647    1.1771   18.1913 C   0  0  0  0  0  0  0  0  0  0  0  0
    8.7996    1.3659   19.1966 C   0  0  0  0  0  0  0  0  0  0  0  0
    7.8809    2.4628   19.1262 C   0  0  0  0  0  0  0  0  0  0  0  0
    7.9816    3.3507   18.0255 C   0  0  0  0  0  0  0  0  0  0  0  0
    7.0142    4.3978   18.0611 C   0  0  0  0  0  0  0  0  0  0  0  0
    8.9463    3.1573   17.0084 C   0  0  0  0  0  0  0  0  0  0  0  0
    9.8460    2.0668   17.0833 C   0  0  0  0  0  0  0  0  0  0  0  0
    6.2428    4.2278   19.2471 C   0  0  0  0  0  0  0  0  0  0  0  0
    6.6666    2.8679   20.2350 S   0  0  0  0  0  0  0  0  0  0  0  0
    8.7358    8.8170   23.4469 C   0  0  0  0  0  0  0  0  0  0  0  0
    8.9754   10.3417   23.5439 C   0  0  0  0  0  0  0  0  0  0  0  0
    8.7012    8.2397   24.8564 C   0  0  0  0  0  0  0  0  0  0  0  0
    7.6230    7.8495   25.2847 O   0  0  0  0  0  0  0  0  0  0  0  0
    9.8639    8.1699   25.5788 N   0  0  0  0  0  0  0  0  0  0  0  0
    9.7798    7.6652   26.9585 C   0  0  0  0  0  0  0  0  0  0  0  0
   11.0178    6.8643   27.3856 C   0  0  0  0  0  0  0  0  0  0  0  0
   12.2021    7.6054   27.0904 O   0  0  0  0  0  0  0  0  0  0  0  0
   12.3719    7.7832   25.6888 C   0  0  0  0  0  0  0  0  0  0  0  0
   11.2080    8.5771   25.0943 C   0  0  0  0  0  0  0  0  0  0  0  0
 12 13  1  0  0  0
 13 14  2  0  0  0
 13 19  1  0  0  0
 14 15  1  0  0  0
 15 16  2  0  0  0
 15 21  1  0  0  0
 16 17  1  0  0  0
 16 18  1  0  0  0
 17 20  2  0  0  0
 18 19  2  0  0  0
 20  9  1  0  0  0
 20 21  1  0  0  0
  9 10  2  0  0  0
  9 11  2  0  0  0
  9  7  1  0  0  0
  7  1  1  0  0  0
  1  2  1  0  0  0
  1  4  1  0  0  0
  2  3  1  0  0  0
  3  6  1  0  0  0
  4  5  2  0  0  0
  4  6  1  0  0  0
  6 22  1  0  0  0
 22 23  1  0  0  0
 22 24  1  0  0  0
 24 25  2  0  0  0
 24 26  1  0  0  0
 26 27  1  0  0  0
 26 31  1  0  0  0
 27 28  1  0  0  0
 28 29  1  0  0  0
 29 30  1  0  0  0
 30 31  1  0  0  0
  7  8  1  0  0  0
M  END
> <minimizedAffinity>
-8.95439

$$$$
2J34_GS6_A_1245


 31 34  0  0  0  0  0  0  0  0999 V2000
    6.1161    6.7519   22.2041 C   0  0  0  0  0  0  0  0  0  0  0  0
    4.6799    6.2141   22.0919 C   0  0  0  0  0  0  0  0  0  0  0  0
    4.8102    4.8003   21.4991 C   0  0  0  0  0  0  0  0  0  0  0  0
    6.9660    5.7532   21.4065 C   0  0  0  0  0  0  0  0  0  0  0  0
    8.1281    5.9265   21.0636 O   0  0  0  0  0  0  0  0  0  0  0  0
    6.2274    4.6481   21.1509 N   0  0  0  0  0  0  0  0  0  0  0  0
    6.2245    8.1859   21.8672 N   0  0  0  0  0  0  0  0  0  0  0  0
    6.9379    8.2430   21.1403 H   0  0  0  0  0  0  0  0  0  0  0  0
    6.5922    9.3648   22.9354 S   0  0  0  0  0  0  0  0  0  0  0  0
    5.5399    9.4623   23.8820 O   0  0  0  0  0  0  0  0  0  0  0  0
    6.8255   10.4890   22.0776 O   0  0  0  0  0  0  0  0  0  0  0  0
   13.5848    7.5148   26.7491 Cl  0  0  0  0  0  0  0  0  0  0  0  0
   11.9153    7.8108   26.3436 C   0  0  0  0  0  0  0  0  0  0  0  0
   11.5934    8.2828   25.0587 C   0  0  0  0  0  0  0  0  0  0  0  0
   10.2289    8.5165   24.6902 C   0  0  0  0  0  0  0  0  0  0  0  0
    9.2210    8.2489   25.6507 C   0  0  0  0  0  0  0  0  0  0  0  0
    7.9058    8.5230   25.1726 C   0  0  0  0  0  0  0  0  0  0  0  0
    9.5436    7.7824   26.9471 C   0  0  0  0  0  0  0  0  0  0  0  0
   10.8954    7.5603   27.3043 C   0  0  0  0  0  0  0  0  0  0  0  0
    8.0248    8.9703   23.8248 C   0  0  0  0  0  0  0  0  0  0  0  0
    9.6390    9.0634   23.1999 S   0  0  0  0  0  0  0  0  0  0  0  0
    6.8167    3.4015   20.5757 C   0  0  0  0  0  0  0  0  0  0  0  0
    6.1526    2.1128   21.1141 C   0  0  0  0  0  0  0  0  0  0  0  0
    6.7410    3.3881   19.0541 C   0  0  0  0  0  0  0  0  0  0  0  0
    5.7805    3.9345   18.5277 O   0  0  0  0  0  0  0  0  0  0  0  0
    7.7423    2.7826   18.3404 N   0  0  0  0  0  0  0  0  0  0  0  0
    7.6027    2.7346   16.8764 C   0  0  0  0  0  0  0  0  0  0  0  0
    8.9438    2.8441   16.1374 C   0  0  0  0  0  0  0  0  0  0  0  0
    9.8762    1.9091   16.6808 O   0  0  0  0  0  0  0  0  0  0  0  0
   10.1995    2.2182   18.0318 C   0  0  0  0  0  0  0  0  0  0  0  0
    8.9563    2.1516   18.9195 C   0  0  0  0  0  0  0  0  0  0  0  0
 12 13  1  0  0  0
 13 14  2  0  0  0
 13 19  1  0  0  0
 14 15  1  0  0  0
 15 16  2  0  0  0
 15 21  1  0  0  0
 16 17  1  0  0  0
 16 18  1  0  0  0
 17 20  2  0  0  0
 18 19  2  0  0  0
 20  9  1  0  0  0
 20 21  1  0  0  0
  9 10  2  0  0  0
  9 11  2  0  0  0
  9  7  1  0  0  0
  7  1  1  0  0  0
  1  2  1  0  0  0
  1  4  1  0  0  0
  2  3  1  0  0  0
  3  6  1  0  0  0
  4  5  2  0  0  0
  4  6  1  0  0  0
  6 22  1  0  0  0
 22 23  1  0  0  0
 22 24  1  0  0  0
 24 25  2  0  0  0
 24 26  1  0  0  0
 26 27  1  0  0  0
 26 31  1  0  0  0
 27 28  1  0  0  0
 28 29  1  0  0  0
 29 30  1  0  0  0
 30 31  1  0  0  0
  7  8  1  0  0  0
M  END
> <minimizedAffinity>
-8.71569

$$$$
2J34_GS6_A_1245


 31 34  0  0  0  0  0  0  0  0999 V2000
    6.3534    7.5459   21.4450 C   0  0  0  0  0  0  0  0  0  0  0  0
    7.8170    7.2452   21.0817 C   0  0  0  0  0  0  0  0  0  0  0  0
    7.7589    6.2189   19.9369 C   0  0  0  0  0  0  0  0  0  0  0  0
    5.5434    6.4723   20.7054 C   0  0  0  0  0  0  0  0  0  0  0  0
    4.3610    6.2197   20.8960 O   0  0  0  0  0  0  0  0  0  0  0  0
    6.3434    5.8564   19.8040 N   0  0  0  0  0  0  0  0  0  0  0  0
    6.1392    7.7046   22.8978 N   0  0  0  0  0  0  0  0  0  0  0  0
    5.1281    7.6806   23.0295 H   0  0  0  0  0  0  0  0  0  0  0  0
    6.6660    8.9734   23.7802 S   0  0  0  0  0  0  0  0  0  0  0  0
    5.7605    9.1870   24.8513 O   0  0  0  0  0  0  0  0  0  0  0  0
    6.7842   10.0029   22.7900 O   0  0  0  0  0  0  0  0  0  0  0  0
   14.1333    7.4652   26.7511 Cl  0  0  0  0  0  0  0  0  0  0  0  0
   12.4119    7.6156   26.5200 C   0  0  0  0  0  0  0  0  0  0  0  0
   11.9261    8.2113   25.3424 C   0  0  0  0  0  0  0  0  0  0  0  0
   10.5167    8.3310   25.1157 C   0  0  0  0  0  0  0  0  0  0  0  0
    9.6345    7.8246   26.1032 C   0  0  0  0  0  0  0  0  0  0  0  0
    8.2596    8.0042   25.7701 C   0  0  0  0  0  0  0  0  0  0  0  0
   10.1214    7.2328   27.2928 C   0  0  0  0  0  0  0  0  0  0  0  0
   11.5161    7.1245   27.5110 C   0  0  0  0  0  0  0  0  0  0  0  0
    8.2073    8.6350   24.4934 C   0  0  0  0  0  0  0  0  0  0  0  0
    9.7389    8.9963   23.7664 S   0  0  0  0  0  0  0  0  0  0  0  0
    5.8173    4.9074   18.7770 C   0  0  0  0  0  0  0  0  0  0  0  0
    4.5513    5.4312   18.0599 C   0  0  0  0  0  0  0  0  0  0  0  0
    6.8672    4.5705   17.7255 C   0  0  0  0  0  0  0  0  0  0  0  0
    7.0724    5.3933   16.8429 O   0  0  0  0  0  0  0  0  0  0  0  0
    7.5411    3.3801   17.8114 N   0  0  0  0  0  0  0  0  0  0  0  0
    8.5017    3.0621   16.7431 C   0  0  0  0  0  0  0  0  0  0  0  0
    9.7203    2.2725   17.2413 C   0  0  0  0  0  0  0  0  0  0  0  0
    9.2904    1.1508   18.0132 O   0  0  0  0  0  0  0  0  0  0  0  0
    8.6313    1.5589   19.2065 C   0  0  0  0  0  0  0  0  0  0  0  0
    7.3740    2.3682   18.8863 C   0  0  0  0  0  0  0  0  0  0  0  0
 12 13  1  0  0  0
 13 14  2  0  0  0
 13 19  1  0  0  0
 14 15  1  0  0  0
 15 16  2  0  0  0
 15 21  1  0  0  0
 16 17  1  0  0  0
 16 18  1  0  0  0
 17 20  2  0  0  0
 18 19  2  0  0  0
 20  9  1  0  0  0
 20 21  1  0  0  0
  9 10  2  0  0  0
  9 11  2  0  0  0
  9  7  1  0  0  0
  7  1  1  0  0  0
  1  2  1  0  0  0
  1  4  1  0  0  0
  2  3  1  0  0  0
  3  6  1  0  0  0
  4  5  2  0  0  0
  4  6  1  0  0  0
  6 22  1  0  0  0
 22 23  1  0  0  0
 22 24  1  0  0  0
 24 25  2  0  0  0
 24 26  1  0  0  0
 26 27  1  0  0  0
 26 31  1  0  0  0
 27 28  1  0  0  0
 28 29  1  0  0  0
 29 30  1  0  0  0
 30 31  1  0  0  0
  7  8  1  0  0  0
M  END
> <minimizedAffinity>
-8.48610

$$$$
2J34_GS6_A_1245


 31 34  0  0  0  0  0  0  0  0999 V2000
    6.4607    8.0593   19.0125 C   0  0  0  0  0  0  0  0  0  0  0  0
    5.4824    9.2403   19.1258 C   0  0  0  0  0  0  0  0  0  0  0  0
    6.0444   10.1406   20.2399 C   0  0  0  0  0  0  0  0  0  0  0  0
    7.3610    8.1835   20.2494 C   0  0  0  0  0  0  0  0  0  0  0  0
    8.1311    7.3228   20.6548 O   0  0  0  0  0  0  0  0  0  0  0  0
    7.1729    9.3991   20.8140 N   0  0  0  0  0  0  0  0  0  0  0  0
    5.7839    6.7694   18.7684 N   0  0  0  0  0  0  0  0  0  0  0  0
    6.2289    6.1032   19.3997 H   0  0  0  0  0  0  0  0  0  0  0  0
    5.7115    6.0191   17.3200 S   0  0  0  0  0  0  0  0  0  0  0  0
    6.2275    6.8947   16.3302 O   0  0  0  0  0  0  0  0  0  0  0  0
    4.3273    5.6568   17.2354 O   0  0  0  0  0  0  0  0  0  0  0  0
   10.1092   -0.8683   17.0262 Cl  0  0  0  0  0  0  0  0  0  0  0  0
    9.5105    0.7340   17.3627 C   0  0  0  0  0  0  0  0  0  0  0  0
    8.3322    1.1736   16.7335 C   0  0  0  0  0  0  0  0  0  0  0  0
    7.8054    2.4777   17.0053 C   0  0  0  0  0  0  0  0  0  0  0  0
    8.4981    3.3003   17.9292 C   0  0  0  0  0  0  0  0  0  0  0  0
    7.8835    4.5736   18.1148 C   0  0  0  0  0  0  0  0  0  0  0  0
    9.6887    2.8631   18.5567 C   0  0  0  0  0  0  0  0  0  0  0  0
   10.2053    1.5750   18.2770 C   0  0  0  0  0  0  0  0  0  0  0  0
    6.7126    4.6062   17.3033 C   0  0  0  0  0  0  0  0  0  0  0  0
    6.4027    3.1804   16.3674 S   0  0  0  0  0  0  0  0  0  0  0  0
    8.0437    9.9209   21.9101 C   0  0  0  0  0  0  0  0  0  0  0  0
    8.0540   11.4651   21.9929 C   0  0  0  0  0  0  0  0  0  0  0  0
    7.6393    9.3640   23.2694 C   0  0  0  0  0  0  0  0  0  0  0  0
    6.4594    9.0884   23.4429 O   0  0  0  0  0  0  0  0  0  0  0  0
    8.5997    9.1848   24.2308 N   0  0  0  0  0  0  0  0  0  0  0  0
    8.1613    8.7048   25.5509 C   0  0  0  0  0  0  0  0  0  0  0  0
    9.1869    7.7877   26.2318 C   0  0  0  0  0  0  0  0  0  0  0  0
   10.4754    8.4030   26.2161 O   0  0  0  0  0  0  0  0  0  0  0  0
   10.9690    8.5490   24.8894 C   0  0  0  0  0  0  0  0  0  0  0  0
   10.0517    9.4499   24.0617 C   0  0  0  0  0  0  0  0  0  0  0  0
 12 13  1  0  0  0
 13 14  2  0  0  0
 13 19  1  0  0  0
 14 15  1  0  0  0
 15 16  2  0  0  0
 15 21  1  0  0  0
 16 17  1  0  0  0
 16 18  1  0  0  0
 17 20  2  0  0  0
 18 19  2  0  0  0
 20  9  1  0  0  0
 20 21  1  0  0  0
  9 10  2  0  0  0
  9 11  2  0  0  0
  9  7  1  0  0  0
  7  1  1  0  0  0
  1  2  1  0  0  0
  1  4  1  0  0  0
  2  3  1  0  0  0
  3  6  1  0  0  0
  4  5  2  0  0  0
  4  6  1  0  0  0
  6 22  1  0  0  0
 22 23  1  0  0  0
 22 24  1  0  0  0
 24 25  2  0  0  0
 24 26  1  0  0  0
 26 27  1  0  0  0
 26 31  1  0  0  0
 27 28  1  0  0  0
 28 29  1  0  0  0
 29 30  1  0  0  0
 30 31  1  0  0  0
  7  8  1  0  0  0
M  END
> <minimizedAffinity>
-8.29623

$$$$
2J34_GS6_A_1245


 31 34  0  0  0  0  0  0  0  0999 V2000
    6.1715    7.0308   21.9940 C   0  0  0  0  0  0  0  0  0  0  0  0
    7.6373    6.6558   21.7193 C   0  0  0  0  0  0  0  0  0  0  0  0
    7.5901    5.3081   20.9786 C   0  0  0  0  0  0  0  0  0  0  0  0
    5.3793    5.7575   21.6671 C   0  0  0  0  0  0  0  0  0  0  0  0
    4.2064    5.5588   21.9553 O   0  0  0  0  0  0  0  0  0  0  0  0
    6.1826    4.8944   21.0026 N   0  0  0  0  0  0  0  0  0  0  0  0
    5.9729    7.6560   23.3173 N   0  0  0  0  0  0  0  0  0  0  0  0
    4.9734    7.8489   23.3815 H   0  0  0  0  0  0  0  0  0  0  0  0
    6.7155    9.0208   23.8196 S   0  0  0  0  0  0  0  0  0  0  0  0
    5.9380    9.6054   24.8523 O   0  0  0  0  0  0  0  0  0  0  0  0
    6.8614    9.7540   22.5967 O   0  0  0  0  0  0  0  0  0  0  0  0
   14.2189    7.4413   26.6598 Cl  0  0  0  0  0  0  0  0  0  0  0  0
   12.4950    7.6020   26.4560 C   0  0  0  0  0  0  0  0  0  0  0  0
   11.9946    8.2157   25.2939 C   0  0  0  0  0  0  0  0  0  0  0  0
   10.5826    8.3443   25.0895 C   0  0  0  0  0  0  0  0  0  0  0  0
    9.7127    7.8280   26.0829 C   0  0  0  0  0  0  0  0  0  0  0  0
    8.3339    8.0178   25.7725 C   0  0  0  0  0  0  0  0  0  0  0  0
   10.2144    7.2181   27.2570 C   0  0  0  0  0  0  0  0  0  0  0  0
   11.6116    7.1010   27.4533 C   0  0  0  0  0  0  0  0  0  0  0  0
    8.2656    8.6663   24.5054 C   0  0  0  0  0  0  0  0  0  0  0  0
    9.7880    9.0312   23.7610 S   0  0  0  0  0  0  0  0  0  0  0  0
    5.6671    3.6493   20.3573 C   0  0  0  0  0  0  0  0  0  0  0  0
    6.6176    3.0906   19.2729 C   0  0  0  0  0  0  0  0  0  0  0  0
    5.3962    2.5517   21.3786 C   0  0  0  0  0  0  0  0  0  0  0  0
    6.3518    2.1023   21.9975 O   0  0  0  0  0  0  0  0  0  0  0  0
    4.1093    2.1211   21.5715 N   0  0  0  0  0  0  0  0  0  0  0  0
    3.8950    1.0165   22.5197 C   0  0  0  0  0  0  0  0  0  0  0  0
    2.5712    1.1282   23.2888 C   0  0  0  0  0  0  0  0  0  0  0  0
    1.4959    1.3507   22.3760 O   0  0  0  0  0  0  0  0  0  0  0  0
    1.6203    2.6060   21.7175 C   0  0  0  0  0  0  0  0  0  0  0  0
    2.9053    2.6639   20.8908 C   0  0  0  0  0  0  0  0  0  0  0  0
 12 13  1  0  0  0
 13 14  2  0  0  0
 13 19  1  0  0  0
 14 15  1  0  0  0
 15 16  2  0  0  0
 15 21  1  0  0  0
 16 17  1  0  0  0
 16 18  1  0  0  0
 17 20  2  0  0  0
 18 19  2  0  0  0
 20  9  1  0  0  0
 20 21  1  0  0  0
  9 10  2  0  0  0
  9 11  2  0  0  0
  9  7  1  0  0  0
  7  1  1  0  0  0
  1  2  1  0  0  0
  1  4  1  0  0  0
  2  3  1  0  0  0
  3  6  1  0  0  0
  4  5  2  0  0  0
  4  6  1  0  0  0
  6 22  1  0  0  0
 22 23  1  0  0  0
 22 24  1  0  0  0
 24 25  2  0  0  0
 24 26  1  0  0  0
 26 27  1  0  0  0
 26 31  1  0  0  0
 27 28  1  0  0  0
 28 29  1  0  0  0
 29 30  1  0  0  0
 30 31  1  0  0  0
  7  8  1  0  0  0
M  END
> <minimizedAffinity>
-8.13759

$$$$
2J34_GS6_A_1245


 31 34  0  0  0  0  0  0  0  0999 V2000
    6.1444    6.9254   20.8739 C   0  0  0  0  0  0  0  0  0  0  0  0
    7.6682    6.8013   20.7087 C   0  0  0  0  0  0  0  0  0  0  0  0
    8.2791    7.7135   21.7867 C   0  0  0  0  0  0  0  0  0  0  0  0
    5.9547    8.1125   21.8281 C   0  0  0  0  0  0  0  0  0  0  0  0
    4.8937    8.6811   22.0499 O   0  0  0  0  0  0  0  0  0  0  0  0
    7.1459    8.4236   22.3904 N   0  0  0  0  0  0  0  0  0  0  0  0
    5.4228    6.9434   19.5853 N   0  0  0  0  0  0  0  0  0  0  0  0
    4.6043    7.5325   19.7383 H   0  0  0  0  0  0  0  0  0  0  0  0
    4.8685    5.6154   18.8136 S   0  0  0  0  0  0  0  0  0  0  0  0
    4.4642    5.9876   17.5057 O   0  0  0  0  0  0  0  0  0  0  0  0
    3.8603    5.1401   19.7146 O   0  0  0  0  0  0  0  0  0  0  0  0
   10.7415   -0.0569   18.3716 Cl  0  0  0  0  0  0  0  0  0  0  0  0
    9.6442    1.2592   18.0506 C   0  0  0  0  0  0  0  0  0  0  0  0
    8.6486    1.5696   18.9941 C   0  0  0  0  0  0  0  0  0  0  0  0
    7.7452    2.6578   18.7669 C   0  0  0  0  0  0  0  0  0  0  0  0
    7.8922    3.4124   17.5757 C   0  0  0  0  0  0  0  0  0  0  0  0
    6.9360    4.4637   17.4579 C   0  0  0  0  0  0  0  0  0  0  0  0
    8.8877    3.0961   16.6211 C   0  0  0  0  0  0  0  0  0  0  0  0
    9.7721    2.0148   16.8512 C   0  0  0  0  0  0  0  0  0  0  0  0
    6.1239    4.4371   18.6286 C   0  0  0  0  0  0  0  0  0  0  0  0
    6.4996    3.1968   19.7799 S   0  0  0  0  0  0  0  0  0  0  0  0
    7.2741    9.3936   23.5195 C   0  0  0  0  0  0  0  0  0  0  0  0
    6.6180    8.8921   24.8269 C   0  0  0  0  0  0  0  0  0  0  0  0
    8.7297    9.7393   23.8076 C   0  0  0  0  0  0  0  0  0  0  0  0
    9.1889   10.7468   23.2857 O   0  0  0  0  0  0  0  0  0  0  0  0
    9.4580    8.9269   24.6371 N   0  0  0  0  0  0  0  0  0  0  0  0
   10.8772    9.2577   24.8412 C   0  0  0  0  0  0  0  0  0  0  0  0
   11.3772    8.9291   26.2549 C   0  0  0  0  0  0  0  0  0  0  0  0
   11.0193    7.5901   26.5982 O   0  0  0  0  0  0  0  0  0  0  0  0
    9.6077    7.4321   26.6852 C   0  0  0  0  0  0  0  0  0  0  0  0
    8.9418    7.7241   25.3401 C   0  0  0  0  0  0  0  0  0  0  0  0
 12 13  1  0  0  0
 13 14  2  0  0  0
 13 19  1  0  0  0
 14 15  1  0  0  0
 15 16  2  0  0  0
 15 21  1  0  0  0
 16 17  1  0  0  0
 16 18  1  0  0  0
 17 20  2  0  0  0
 18 19  2  0  0  0
 20  9  1  0  0  0
 20 21  1  0  0  0
  9 10  2  0  0  0
  9 11  2  0  0  0
  9  7  1  0  0  0
  7  1  1  0  0  0
  1  2  1  0  0  0
  1  4  1  0  0  0
  2  3  1  0  0  0
  3  6  1  0  0  0
  4  5  2  0  0  0
  4  6  1  0  0  0
  6 22  1  0  0  0
 22 23  1  0  0  0
 22 24  1  0  0  0
 24 25  2  0  0  0
 24 26  1  0  0  0
 26 27  1  0  0  0
 26 31  1  0  0  0
 27 28  1  0  0  0
 28 29  1  0  0  0
 29 30  1  0  0  0
 30 31  1  0  0  0
  7  8  1  0  0  0
M  END
> <minimizedAffinity>
-8.10567

$$$$
2J34_GS6_A_1245


 31 34  0  0  0  0  0  0  0  0999 V2000
    7.3126    7.0647   20.4935 C   0  0  0  0  0  0  0  0  0  0  0  0
    7.3949    5.8519   21.4353 C   0  0  0  0  0  0  0  0  0  0  0  0
    7.6826    4.6413   20.5304 C   0  0  0  0  0  0  0  0  0  0  0  0
    7.2620    6.4571   19.0849 C   0  0  0  0  0  0  0  0  0  0  0  0
    6.9766    7.0640   18.0609 O   0  0  0  0  0  0  0  0  0  0  0  0
    7.5914    5.1463   19.1558 N   0  0  0  0  0  0  0  0  0  0  0  0
    6.2580    8.0247   20.8778 N   0  0  0  0  0  0  0  0  0  0  0  0
    5.9667    8.4733   20.0093 H   0  0  0  0  0  0  0  0  0  0  0  0
    6.4547    9.2378   21.9529 S   0  0  0  0  0  0  0  0  0  0  0  0
    5.2239    9.4504   22.6258 O   0  0  0  0  0  0  0  0  0  0  0  0
    6.9559   10.2964   21.1269 O   0  0  0  0  0  0  0  0  0  0  0  0
   11.5939    7.1321   27.9543 Cl  0  0  0  0  0  0  0  0  0  0  0  0
   10.8843    7.7140   26.4721 C   0  0  0  0  0  0  0  0  0  0  0  0
    9.4986    7.5788   26.2741 C   0  0  0  0  0  0  0  0  0  0  0  0
    8.8842    8.0651   25.0749 C   0  0  0  0  0  0  0  0  0  0  0  0
    9.7091    8.6913   24.1067 C   0  0  0  0  0  0  0  0  0  0  0  0
    8.9884    9.1291   22.9567 C   0  0  0  0  0  0  0  0  0  0  0  0
   11.1049    8.8205   24.3002 C   0  0  0  0  0  0  0  0  0  0  0  0
   11.7042    8.3312   25.4858 C   0  0  0  0  0  0  0  0  0  0  0  0
    7.6153    8.8097   23.1648 C   0  0  0  0  0  0  0  0  0  0  0  0
    7.2435    8.0126   24.6585 S   0  0  0  0  0  0  0  0  0  0  0  0
    7.8402    4.3120   17.9416 C   0  0  0  0  0  0  0  0  0  0  0  0
    8.9052    3.2140   18.1685 C   0  0  0  0  0  0  0  0  0  0  0  0
    6.5634    3.6533   17.4347 C   0  0  0  0  0  0  0  0  0  0  0  0
    5.8965    3.0133   18.2371 O   0  0  0  0  0  0  0  0  0  0  0  0
    6.2079    3.8081   16.1200 N   0  0  0  0  0  0  0  0  0  0  0  0
    5.0025    3.1054   15.6526 C   0  0  0  0  0  0  0  0  0  0  0  0
    4.2254    3.8846   14.5823 C   0  0  0  0  0  0  0  0  0  0  0  0
    5.1134    4.3044   13.5459 O   0  0  0  0  0  0  0  0  0  0  0  0
    6.0727    5.2394   14.0261 C   0  0  0  0  0  0  0  0  0  0  0  0
    6.9464    4.6148   15.1145 C   0  0  0  0  0  0  0  0  0  0  0  0
 12 13  1  0  0  0
 13 14  2  0  0  0
 13 19  1  0  0  0
 14 15  1  0  0  0
 15 16  2  0  0  0
 15 21  1  0  0  0
 16 17  1  0  0  0
 16 18  1  0  0  0
 17 20  2  0  0  0
 18 19  2  0  0  0
 20  9  1  0  0  0
 20 21  1  0  0  0
  9 10  2  0  0  0
  9 11  2  0  0  0
  9  7  1  0  0  0
  7  1  1  0  0  0
  1  2  1  0  0  0
  1  4  1  0  0  0
  2  3  1  0  0  0
  3  6  1  0  0  0
  4  5  2  0  0  0
  4  6  1  0  0  0
  6 22  1  0  0  0
 22 23  1  0  0  0
 22 24  1  0  0  0
 24 25  2  0  0  0
 24 26  1  0  0  0
 26 27  1  0  0  0
 26 31  1  0  0  0
 27 28  1  0  0  0
 28 29  1  0  0  0
 29 30  1  0  0  0
 30 31  1  0  0  0
  7  8  1  0  0  0
M  END
> <minimizedAffinity>
-7.86784

$$$$
2J34_GS6_A_1245


 31 34  0  0  0  0  0  0  0  0999 V2000
    5.3694    7.3139   19.9930 C   0  0  0  0  0  0  0  0  0  0  0  0
    5.3295    6.0813   20.9116 C   0  0  0  0  0  0  0  0  0  0  0  0
    5.2660    6.6337   22.3462 C   0  0  0  0  0  0  0  0  0  0  0  0
    5.6234    8.4941   20.9409 C   0  0  0  0  0  0  0  0  0  0  0  0
    5.9388    9.6253   20.5957 O   0  0  0  0  0  0  0  0  0  0  0  0
    5.4347    8.0856   22.2173 N   0  0  0  0  0  0  0  0  0  0  0  0
    6.2696    7.1427   18.8346 N   0  0  0  0  0  0  0  0  0  0  0  0
    6.4379    8.0832   18.4775 H   0  0  0  0  0  0  0  0  0  0  0  0
    5.9313    6.2303   17.5234 S   0  0  0  0  0  0  0  0  0  0  0  0
    6.2961    6.9563   16.3604 O   0  0  0  0  0  0  0  0  0  0  0  0
    4.5433    5.9282   17.7144 O   0  0  0  0  0  0  0  0  0  0  0  0
   10.2768   -0.6815   17.0694 Cl  0  0  0  0  0  0  0  0  0  0  0  0
    9.4418    0.7498   17.6108 C   0  0  0  0  0  0  0  0  0  0  0  0
    8.8408    1.5954   16.6613 C   0  0  0  0  0  0  0  0  0  0  0  0
    8.1311    2.7681   17.0775 C   0  0  0  0  0  0  0  0  0  0  0  0
    8.0454    3.0411   18.4660 C   0  0  0  0  0  0  0  0  0  0  0  0
    7.3208    4.2341   18.7579 C   0  0  0  0  0  0  0  0  0  0  0  0
    8.6570    2.1963   19.4224 C   0  0  0  0  0  0  0  0  0  0  0  0
    9.3617    1.0429   19.0013 C   0  0  0  0  0  0  0  0  0  0  0  0
    6.8752    4.7784   17.5186 C   0  0  0  0  0  0  0  0  0  0  0  0
    7.3314    3.8951   16.0985 S   0  0  0  0  0  0  0  0  0  0  0  0
    5.3985    9.0359   23.3696 C   0  0  0  0  0  0  0  0  0  0  0  0
    3.9625    9.3599   23.8431 C   0  0  0  0  0  0  0  0  0  0  0  0
    6.1968    8.5162   24.5586 C   0  0  0  0  0  0  0  0  0  0  0  0
    5.5909    7.8971   25.4234 O   0  0  0  0  0  0  0  0  0  0  0  0
    7.5466    8.7486   24.6104 N   0  0  0  0  0  0  0  0  0  0  0  0
    8.2725    8.2866   25.8041 C   0  0  0  0  0  0  0  0  0  0  0  0
    9.7015    7.8166   25.4984 C   0  0  0  0  0  0  0  0  0  0  0  0
   10.3845    8.8061   24.7281 O   0  0  0  0  0  0  0  0  0  0  0  0
    9.7924    8.9702   23.4446 C   0  0  0  0  0  0  0  0  0  0  0  0
    8.3441    9.4450   23.5681 C   0  0  0  0  0  0  0  0  0  0  0  0
 12 13  1  0  0  0
 13 14  2  0  0  0
 13 19  1  0  0  0
 14 15  1  0  0  0
 15 16  2  0  0  0
 15 21  1  0  0  0
 16 17  1  0  0  0
 16 18  1  0  0  0
 17 20  2  0  0  0
 18 19  2  0  0  0
 20  9  1  0  0  0
 20 21  1  0  0  0
  9 10  2  0  0  0
  9 11  2  0  0  0
  9  7  1  0  0  0
  7  1  1  0  0  0
  1  2  1  0  0  0
  1  4  1  0  0  0
  2  3  1  0  0  0
  3  6  1  0  0  0
  4  5  2  0  0  0
  4  6  1  0  0  0
  6 22  1  0  0  0
 22 23  1  0  0  0
 22 24  1  0  0  0
 24 25  2  0  0  0
 24 26  1  0  0  0
 26 27  1  0  0  0
 26 31  1  0  0  0
 27 28  1  0  0  0
 28 29  1  0  0  0
 29 30  1  0  0  0
 30 31  1  0  0  0
  7  8  1  0  0  0
M  END
> <minimizedAffinity>
-7.77595

$$$$
2J34_GS6_A_1245


 31 34  0  0  0  0  0  0  0  0999 V2000
    2.5327    6.1625   22.3708 C   0  0  0  0  0  0  0  0  0  0  0  0
    1.9966    5.9798   23.8005 C   0  0  0  0  0  0  0  0  0  0  0  0
    2.6895    7.0625   24.6460 C   0  0  0  0  0  0  0  0  0  0  0  0
    3.7120    7.1332   22.5216 C   0  0  0  0  0  0  0  0  0  0  0  0
    4.5473    7.3732   21.6597 O   0  0  0  0  0  0  0  0  0  0  0  0
    3.6750    7.6868   23.7561 N   0  0  0  0  0  0  0  0  0  0  0  0
    2.7676    4.8819   21.6734 N   0  0  0  0  0  0  0  0  0  0  0  0
    1.8496    4.4463   21.5847 H   0  0  0  0  0  0  0  0  0  0  0  0
    3.7621    3.7027   22.2085 S   0  0  0  0  0  0  0  0  0  0  0  0
    3.0157    2.5025   22.3324 O   0  0  0  0  0  0  0  0  0  0  0  0
    4.3013    4.2805   23.4042 O   0  0  0  0  0  0  0  0  0  0  0  0
    9.4872    2.4652   16.5028 Cl  0  0  0  0  0  0  0  0  0  0  0  0
    8.5050    2.4107   17.9421 C   0  0  0  0  0  0  0  0  0  0  0  0
    7.4166    3.2927   18.0652 C   0  0  0  0  0  0  0  0  0  0  0  0
    6.5799    3.2579   19.2275 C   0  0  0  0  0  0  0  0  0  0  0  0
    6.8752    2.3067   20.2365 C   0  0  0  0  0  0  0  0  0  0  0  0
    5.9790    2.3697   21.3440 C   0  0  0  0  0  0  0  0  0  0  0  0
    7.9751    1.4244   20.1185 C   0  0  0  0  0  0  0  0  0  0  0  0
    8.8003    1.4703   18.9690 C   0  0  0  0  0  0  0  0  0  0  0  0
    5.0221    3.3875   21.0631 C   0  0  0  0  0  0  0  0  0  0  0  0
    5.2232    4.2173   19.5545 S   0  0  0  0  0  0  0  0  0  0  0  0
    4.5556    8.8263   24.1540 C   0  0  0  0  0  0  0  0  0  0  0  0
    4.0964    9.5206   25.4573 C   0  0  0  0  0  0  0  0  0  0  0  0
    6.0061    8.3909   24.3203 C   0  0  0  0  0  0  0  0  0  0  0  0
    6.2461    7.5131   25.1388 O   0  0  0  0  0  0  0  0  0  0  0  0
    6.9738    8.9824   23.5507 N   0  0  0  0  0  0  0  0  0  0  0  0
    8.3701    8.5810   23.7840 C   0  0  0  0  0  0  0  0  0  0  0  0
    9.2197    8.5770   22.5055 C   0  0  0  0  0  0  0  0  0  0  0  0
    9.0607    9.8152   21.8122 O   0  0  0  0  0  0  0  0  0  0  0  0
    7.7283    9.9836   21.3416 C   0  0  0  0  0  0  0  0  0  0  0  0
    6.7376   10.0120   22.5059 C   0  0  0  0  0  0  0  0  0  0  0  0
 12 13  1  0  0  0
 13 14  2  0  0  0
 13 19  1  0  0  0
 14 15  1  0  0  0
 15 16  2  0  0  0
 15 21  1  0  0  0
 16 17  1  0  0  0
 16 18  1  0  0  0
 17 20  2  0  0  0
 18 19  2  0  0  0
 20  9  1  0  0  0
 20 21  1  0  0  0
  9 10  2  0  0  0
  9 11  2  0  0  0
  9  7  1  0  0  0
  7  1  1  0  0  0
  1  2  1  0  0  0
  1  4  1  0  0  0
  2  3  1  0  0  0
  3  6  1  0  0  0
  4  5  2  0  0  0
  4  6  1  0  0  0
  6 22  1  0  0  0
 22 23  1  0  0  0
 22 24  1  0  0  0
 24 25  2  0  0  0
 24 26  1  0  0  0
 26 27  1  0  0  0
 26 31  1  0  0  0
 27 28  1  0  0  0
 28 29  1  0  0  0
 29 30  1  0  0  0
 30 31  1  0  0  0
  7  8  1  0  0  0
M  END
> <minimizedAffinity>
-7.66956

$$$$
2J34_GS6_A_1245


 31 34  0  0  0  0  0  0  0  0999 V2000
    6.8714    6.1778   20.9519 C   0  0  0  0  0  0  0  0  0  0  0  0
    7.9442    7.0530   20.2827 C   0  0  0  0  0  0  0  0  0  0  0  0
    8.1384    8.2600   21.2170 C   0  0  0  0  0  0  0  0  0  0  0  0
    6.2964    7.0585   22.0697 C   0  0  0  0  0  0  0  0  0  0  0  0
    5.2748    6.8245   22.7019 O   0  0  0  0  0  0  0  0  0  0  0  0
    7.1040    8.1297   22.2494 N   0  0  0  0  0  0  0  0  0  0  0  0
    5.9316    5.5748   19.9851 N   0  0  0  0  0  0  0  0  0  0  0  0
    5.6670    4.6748   20.3856 H   0  0  0  0  0  0  0  0  0  0  0  0
    6.2790    5.2721   18.4187 S   0  0  0  0  0  0  0  0  0  0  0  0
    6.9917    6.3794   17.8908 O   0  0  0  0  0  0  0  0  0  0  0  0
    4.9855    4.9877   17.8709 O   0  0  0  0  0  0  0  0  0  0  0  0
   11.4893   -1.0142   17.9730 Cl  0  0  0  0  0  0  0  0  0  0  0  0
   10.1570    0.0877   17.7487 C   0  0  0  0  0  0  0  0  0  0  0  0
   10.0759    1.2401   18.5506 C   0  0  0  0  0  0  0  0  0  0  0  0
    9.0035    2.1737   18.3760 C   0  0  0  0  0  0  0  0  0  0  0  0
    8.0405    1.9066   17.3704 C   0  0  0  0  0  0  0  0  0  0  0  0
    7.0213    2.9009   17.2936 C   0  0  0  0  0  0  0  0  0  0  0  0
    8.1156    0.7430   16.5685 C   0  0  0  0  0  0  0  0  0  0  0  0
    9.1756   -0.1772   16.7525 C   0  0  0  0  0  0  0  0  0  0  0  0
    7.3193    3.8957   18.2695 C   0  0  0  0  0  0  0  0  0  0  0  0
    8.7398    3.6164   19.2229 S   0  0  0  0  0  0  0  0  0  0  0  0
    6.9461    9.0733   23.3969 C   0  0  0  0  0  0  0  0  0  0  0  0
    5.4875    9.5471   23.5956 C   0  0  0  0  0  0  0  0  0  0  0  0
    7.4420    8.4658   24.7031 C   0  0  0  0  0  0  0  0  0  0  0  0
    6.6462    7.8118   25.3643 O   0  0  0  0  0  0  0  0  0  0  0  0
    8.7452    8.6623   25.0793 N   0  0  0  0  0  0  0  0  0  0  0  0
    9.1702    8.1139   26.3769 C   0  0  0  0  0  0  0  0  0  0  0  0
   10.6265    7.6285   26.3803 C   0  0  0  0  0  0  0  0  0  0  0  0
   11.4790    8.6448   25.8519 O   0  0  0  0  0  0  0  0  0  0  0  0
   11.2021    8.8980   24.4792 C   0  0  0  0  0  0  0  0  0  0  0  0
    9.7693    9.3993   24.2948 C   0  0  0  0  0  0  0  0  0  0  0  0
 12 13  1  0  0  0
 13 14  2  0  0  0
 13 19  1  0  0  0
 14 15  1  0  0  0
 15 16  2  0  0  0
 15 21  1  0  0  0
 16 17  1  0  0  0
 16 18  1  0  0  0
 17 20  2  0  0  0
 18 19  2  0  0  0
 20  9  1  0  0  0
 20 21  1  0  0  0
  9 10  2  0  0  0
  9 11  2  0  0  0
  9  7  1  0  0  0
  7  1  1  0  0  0
  1  2  1  0  0  0
  1  4  1  0  0  0
  2  3  1  0  0  0
  3  6  1  0  0  0
  4  5  2  0  0  0
  4  6  1  0  0  0
  6 22  1  0  0  0
 22 23  1  0  0  0
 22 24  1  0  0  0
 24 25  2  0  0  0
 24 26  1  0  0  0
 26 27  1  0  0  0
 26 31  1  0  0  0
 27 28  1  0  0  0
 28 29  1  0  0  0
 29 30  1  0  0  0
 30 31  1  0  0  0
  7  8  1  0  0  0
M  END
> <minimizedAffinity>
-7.18390

$$$$
