4NH8_2LC_A_301


 32 35  0  0  0  0  0  0  0  0999 V2000
    2.5437  -11.3535  -24.0190 C   0  0  0  0  0  0  0  0  0  0  0  0
    1.8974  -10.1604  -24.3370 C   0  0  0  0  0  0  0  0  0  0  0  0
    0.5032  -10.1279  -24.4517 C   0  0  0  0  0  0  0  0  0  0  0  0
   -0.2422  -11.3359  -24.2638 C   0  0  0  0  0  0  0  0  0  0  0  0
    0.4660  -12.4951  -23.9647 C   0  0  0  0  0  0  0  0  0  0  0  0
   -0.2295  -13.6535  -23.8577 F   0  0  0  0  0  0  0  0  0  0  0  0
    1.8261  -12.5360  -23.8102 C   0  0  0  0  0  0  0  0  0  0  0  0
    7.2059   -9.5740  -23.6202 C   0  0  0  0  0  0  0  0  0  0  0  0
    6.0697  -10.5499  -23.7989 C   0  0  0  0  0  0  0  0  0  0  0  0
    4.7575  -10.2503  -23.6481 C   0  0  0  0  0  0  0  0  0  0  0  0
    3.9803  -11.3651  -23.9203 N   0  0  0  0  0  0  0  0  0  0  0  0
    4.8354  -12.4049  -24.2622 C   0  0  0  0  0  0  0  0  0  0  0  0
    6.1326  -11.9343  -24.1796 C   0  0  0  0  0  0  0  0  0  0  0  0
    7.2342  -12.8701  -24.4595 C   0  0  0  0  0  0  0  0  0  0  0  0
    8.4016  -12.4970  -24.4868 O   0  0  0  0  0  0  0  0  0  0  0  0
    6.8751  -14.3095  -24.7563 C   0  0  0  0  0  0  0  0  0  0  0  0
    5.5407  -14.5138  -25.4926 C   0  0  0  0  0  0  0  0  0  0  0  0
    5.6379  -13.9591  -26.9165 C   0  0  0  0  0  0  0  0  0  0  0  0
    5.2013  -15.9998  -25.5694 C   0  0  0  0  0  0  0  0  0  0  0  0
    4.4439  -13.7818  -24.7104 C   0  0  0  0  0  0  0  0  0  0  0  0
   -1.7444  -11.3601  -24.4433 C   0  0  0  0  0  0  0  0  0  0  0  0
   -2.1682  -11.3546  -25.6843 N   0  0  0  0  0  0  0  0  0  0  0  0
   -2.5249  -11.4252  -23.4703 O   0  0  0  0  0  0  0  0  0  0  0  0
   -3.1340  -11.3694  -25.8747 H   0  0  0  0  0  0  0  0  0  0  0  0
   -1.5205  -11.3358  -26.4256 H   0  0  0  0  0  0  0  0  0  0  0  0
   -0.1375   -8.9323  -24.7022 N   0  0  0  0  0  0  0  0  0  0  0  0
   -0.4300   -8.4206  -23.9137 H   0  0  0  0  0  0  0  0  0  0  0  0
   -0.4314   -8.3390  -26.0037 C   0  0  0  0  0  0  0  0  0  0  0  0
   -0.2020   -6.8226  -25.9665 C   0  0  0  0  0  0  0  0  0  0  0  0
    1.2998   -6.7004  -26.1831 C   0  0  0  0  0  0  0  0  0  0  0  0
    1.7051   -7.9179  -26.8376 O   0  0  0  0  0  0  0  0  0  0  0  0
    0.5854   -8.7822  -27.0301 C   0  0  0  0  0  0  0  0  0  0  0  0
 31 32  1  0  0  0
 31 30  1  0  0  0
 32 28  1  0  0  0
 30 29  1  0  0  0
 28 29  1  0  0  0
 28 26  1  0  0  0
 26  3  1  0  0  0
  8  9  1  0  0  0
 10  9  2  0  0  0
 10 11  1  0  0  0
  3  2  2  0  0  0
  3  4  1  0  0  0
  2  1  1  0  0  0
  9 13  1  0  0  0
 23 21  2  0  0  0
  1 11  1  0  0  0
  1  7  2  0  0  0
 11 12  1  0  0  0
  4 21  1  0  0  0
  4  5  2  0  0  0
 21 22  1  0  0  0
 13 12  2  0  0  0
 13 14  1  0  0  0
 12 20  1  0  0  0
  7  5  1  0  0  0
  5  6  1  0  0  0
 15 14  2  0  0  0
 14 16  1  0  0  0
 20 17  1  0  0  0
 18 17  1  0  0  0
 16 17  1  0  0  0
 17 19  1  0  0  0
 26 27  1  0  0  0
 22 24  1  0  0  0
 22 25  1  0  0  0
M  END
> <minimizedAffinity>
-12.55805

$$$$
4NH8_2LC_A_301


 32 35  0  0  0  0  0  0  0  0999 V2000
    2.6533  -12.2971  -24.3979 C   0  0  0  0  0  0  0  0  0  0  0  0
    2.1718  -11.0002  -24.5665 C   0  0  0  0  0  0  0  0  0  0  0  0
    0.8023  -10.7400  -24.4456 C   0  0  0  0  0  0  0  0  0  0  0  0
   -0.0938  -11.8231  -24.1734 C   0  0  0  0  0  0  0  0  0  0  0  0
    0.4504  -13.0954  -24.0327 C   0  0  0  0  0  0  0  0  0  0  0  0
   -0.4018  -14.1329  -23.8470 F   0  0  0  0  0  0  0  0  0  0  0  0
    1.7917  -13.3607  -24.1088 C   0  0  0  0  0  0  0  0  0  0  0  0
    6.9239  -14.8829  -24.7670 C   0  0  0  0  0  0  0  0  0  0  0  0
    5.9786  -13.7136  -24.6476 C   0  0  0  0  0  0  0  0  0  0  0  0
    4.6291  -13.7944  -24.7292 C   0  0  0  0  0  0  0  0  0  0  0  0
    4.0649  -12.5425  -24.5408 N   0  0  0  0  0  0  0  0  0  0  0  0
    5.0985  -11.6398  -24.3254 C   0  0  0  0  0  0  0  0  0  0  0  0
    6.2922  -12.3327  -24.4023 C   0  0  0  0  0  0  0  0  0  0  0  0
    7.5479  -11.5801  -24.2462 C   0  0  0  0  0  0  0  0  0  0  0  0
    8.6354  -12.1452  -24.2191 O   0  0  0  0  0  0  0  0  0  0  0  0
    7.4514  -10.0797  -24.0768 C   0  0  0  0  0  0  0  0  0  0  0  0
    6.2063   -9.5838  -23.3231 C   0  0  0  0  0  0  0  0  0  0  0  0
    6.2740  -10.0188  -21.8566 C   0  0  0  0  0  0  0  0  0  0  0  0
    6.1269   -8.0607  -23.3777 C   0  0  0  0  0  0  0  0  0  0  0  0
    4.9665  -10.1818  -23.9985 C   0  0  0  0  0  0  0  0  0  0  0  0
   -1.5883  -11.5979  -24.1003 C   0  0  0  0  0  0  0  0  0  0  0  0
   -2.1934  -11.4241  -25.2506 N   0  0  0  0  0  0  0  0  0  0  0  0
   -2.2073  -11.6205  -23.0156 O   0  0  0  0  0  0  0  0  0  0  0  0
   -3.1657  -11.2724  -25.2774 H   0  0  0  0  0  0  0  0  0  0  0  0
   -1.6753  -11.4454  -26.0875 H   0  0  0  0  0  0  0  0  0  0  0  0
    0.3375   -9.4453  -24.5486 N   0  0  0  0  0  0  0  0  0  0  0  0
   -0.6213   -9.3107  -24.3705 H   0  0  0  0  0  0  0  0  0  0  0  0
    1.1055   -8.2517  -24.8917 C   0  0  0  0  0  0  0  0  0  0  0  0
    1.1035   -8.0301  -26.4098 C   0  0  0  0  0  0  0  0  0  0  0  0
   -0.2213   -7.3189  -26.6478 C   0  0  0  0  0  0  0  0  0  0  0  0
   -0.5791   -6.7180  -25.3886 O   0  0  0  0  0  0  0  0  0  0  0  0
    0.4038   -7.0089  -24.3951 C   0  0  0  0  0  0  0  0  0  0  0  0
 31 32  1  0  0  0
 31 30  1  0  0  0
 32 28  1  0  0  0
 30 29  1  0  0  0
 28 29  1  0  0  0
 28 26  1  0  0  0
 26  3  1  0  0  0
  8  9  1  0  0  0
 10  9  2  0  0  0
 10 11  1  0  0  0
  3  2  2  0  0  0
  3  4  1  0  0  0
  2  1  1  0  0  0
  9 13  1  0  0  0
 23 21  2  0  0  0
  1 11  1  0  0  0
  1  7  2  0  0  0
 11 12  1  0  0  0
  4 21  1  0  0  0
  4  5  2  0  0  0
 21 22  1  0  0  0
 13 12  2  0  0  0
 13 14  1  0  0  0
 12 20  1  0  0  0
  7  5  1  0  0  0
  5  6  1  0  0  0
 15 14  2  0  0  0
 14 16  1  0  0  0
 20 17  1  0  0  0
 18 17  1  0  0  0
 16 17  1  0  0  0
 17 19  1  0  0  0
 26 27  1  0  0  0
 22 24  1  0  0  0
 22 25  1  0  0  0
M  END
> <minimizedAffinity>
-11.13715

$$$$
4NH8_2LC_A_301


 32 35  0  0  0  0  0  0  0  0999 V2000
    4.5264   -9.8147  -23.9900 C   0  0  0  0  0  0  0  0  0  0  0  0
    3.2170  -10.2822  -24.0865 C   0  0  0  0  0  0  0  0  0  0  0  0
    2.1465   -9.3823  -24.0399 C   0  0  0  0  0  0  0  0  0  0  0  0
    2.4137   -7.9863  -23.8671 C   0  0  0  0  0  0  0  0  0  0  0  0
    3.7423   -7.5884  -23.7610 C   0  0  0  0  0  0  0  0  0  0  0  0
    3.9951   -6.2779  -23.5251 F   0  0  0  0  0  0  0  0  0  0  0  0
    4.8027   -8.4511  -23.8440 C   0  0  0  0  0  0  0  0  0  0  0  0
    9.2325  -11.5107  -24.1835 C   0  0  0  0  0  0  0  0  0  0  0  0
    7.7241  -11.5083  -24.1714 C   0  0  0  0  0  0  0  0  0  0  0  0
    6.9512  -10.4240  -23.9235 C   0  0  0  0  0  0  0  0  0  0  0  0
    5.6108  -10.7613  -24.0264 N   0  0  0  0  0  0  0  0  0  0  0  0
    5.5368  -12.1081  -24.3584 C   0  0  0  0  0  0  0  0  0  0  0  0
    6.8268  -12.5985  -24.4383 C   0  0  0  0  0  0  0  0  0  0  0  0
    7.0131  -14.0273  -24.7408 C   0  0  0  0  0  0  0  0  0  0  0  0
    8.1285  -14.5072  -24.9093 O   0  0  0  0  0  0  0  0  0  0  0  0
    5.7736  -14.8836  -24.8801 C   0  0  0  0  0  0  0  0  0  0  0  0
    4.5456  -14.1686  -25.4676 C   0  0  0  0  0  0  0  0  0  0  0  0
    4.7979  -13.8154  -26.9359 C   0  0  0  0  0  0  0  0  0  0  0  0
    3.3185  -15.0725  -25.3865 C   0  0  0  0  0  0  0  0  0  0  0  0
    4.2943  -12.8962  -24.6500 C   0  0  0  0  0  0  0  0  0  0  0  0
    1.2845   -6.9865  -23.7453 C   0  0  0  0  0  0  0  0  0  0  0  0
    1.2567   -6.2942  -22.6319 N   0  0  0  0  0  0  0  0  0  0  0  0
    0.4607   -6.8051  -24.6664 O   0  0  0  0  0  0  0  0  0  0  0  0
    0.5490   -5.6255  -22.4855 H   0  0  0  0  0  0  0  0  0  0  0  0
    1.9434   -6.4431  -21.9423 H   0  0  0  0  0  0  0  0  0  0  0  0
    0.8558   -9.8416  -24.2011 N   0  0  0  0  0  0  0  0  0  0  0  0
    0.1586   -9.3720  -23.6886 H   0  0  0  0  0  0  0  0  0  0  0  0
    0.4057  -10.9448  -25.0451 C   0  0  0  0  0  0  0  0  0  0  0  0
   -0.1292  -12.0961  -24.1837 C   0  0  0  0  0  0  0  0  0  0  0  0
   -1.5577  -11.6625  -23.8856 C   0  0  0  0  0  0  0  0  0  0  0  0
   -1.9133  -10.7313  -24.9254 O   0  0  0  0  0  0  0  0  0  0  0  0
   -0.8234  -10.5456  -25.8285 C   0  0  0  0  0  0  0  0  0  0  0  0
 31 32  1  0  0  0
 31 30  1  0  0  0
 32 28  1  0  0  0
 30 29  1  0  0  0
 28 29  1  0  0  0
 28 26  1  0  0  0
 26  3  1  0  0  0
  8  9  1  0  0  0
 10  9  2  0  0  0
 10 11  1  0  0  0
  3  2  2  0  0  0
  3  4  1  0  0  0
  2  1  1  0  0  0
  9 13  1  0  0  0
 23 21  2  0  0  0
  1 11  1  0  0  0
  1  7  2  0  0  0
 11 12  1  0  0  0
  4 21  1  0  0  0
  4  5  2  0  0  0
 21 22  1  0  0  0
 13 12  2  0  0  0
 13 14  1  0  0  0
 12 20  1  0  0  0
  7  5  1  0  0  0
  5  6  1  0  0  0
 15 14  2  0  0  0
 14 16  1  0  0  0
 20 17  1  0  0  0
 18 17  1  0  0  0
 16 17  1  0  0  0
 17 19  1  0  0  0
 26 27  1  0  0  0
 22 24  1  0  0  0
 22 25  1  0  0  0
M  END
> <minimizedAffinity>
-10.14119

$$$$
4NH8_2LC_A_301


 32 35  0  0  0  0  0  0  0  0999 V2000
    2.6049  -12.9309  -24.3402 C   0  0  0  0  0  0  0  0  0  0  0  0
    3.6113  -11.9821  -24.1691 C   0  0  0  0  0  0  0  0  0  0  0  0
    4.9432  -12.3176  -24.4361 C   0  0  0  0  0  0  0  0  0  0  0  0
    5.2574  -13.6486  -24.8603 C   0  0  0  0  0  0  0  0  0  0  0  0
    4.2077  -14.5511  -24.9953 C   0  0  0  0  0  0  0  0  0  0  0  0
    4.5096  -15.8303  -25.3265 F   0  0  0  0  0  0  0  0  0  0  0  0
    2.8951  -14.2281  -24.7762 C   0  0  0  0  0  0  0  0  0  0  0  0
   -2.1277  -13.4369  -22.7885 C   0  0  0  0  0  0  0  0  0  0  0  0
   -0.8923  -12.8239  -23.3994 C   0  0  0  0  0  0  0  0  0  0  0  0
    0.3471  -13.3686  -23.3573 C   0  0  0  0  0  0  0  0  0  0  0  0
    1.2434  -12.5662  -24.0456 N   0  0  0  0  0  0  0  0  0  0  0  0
    0.5403  -11.4778  -24.5462 C   0  0  0  0  0  0  0  0  0  0  0  0
   -0.7777  -11.6027  -24.1483 C   0  0  0  0  0  0  0  0  0  0  0  0
   -1.7246  -10.5402  -24.5252 C   0  0  0  0  0  0  0  0  0  0  0  0
   -2.9219  -10.6305  -24.2779 O   0  0  0  0  0  0  0  0  0  0  0  0
   -1.1770   -9.3428  -25.2705 C   0  0  0  0  0  0  0  0  0  0  0  0
   -0.0019   -9.6407  -26.2165 C   0  0  0  0  0  0  0  0  0  0  0  0
   -0.4803  -10.4968  -27.3924 C   0  0  0  0  0  0  0  0  0  0  0  0
    0.5792   -8.3400  -26.7638 C   0  0  0  0  0  0  0  0  0  0  0  0
    1.0776  -10.3846  -25.4215 C   0  0  0  0  0  0  0  0  0  0  0  0
    6.6906  -14.0729  -25.0962 C   0  0  0  0  0  0  0  0  0  0  0  0
    7.0084  -14.3323  -26.3417 N   0  0  0  0  0  0  0  0  0  0  0  0
    7.5242  -14.1286  -24.1677 O   0  0  0  0  0  0  0  0  0  0  0  0
    7.9243  -14.6139  -26.5676 H   0  0  0  0  0  0  0  0  0  0  0  0
    6.3311  -14.2454  -27.0509 H   0  0  0  0  0  0  0  0  0  0  0  0
    5.9281  -11.3577  -24.3283 N   0  0  0  0  0  0  0  0  0  0  0  0
    6.2471  -10.9635  -25.1721 H   0  0  0  0  0  0  0  0  0  0  0  0
    6.5513  -10.8597  -23.1053 C   0  0  0  0  0  0  0  0  0  0  0  0
    7.8792  -10.1614  -23.4254 C   0  0  0  0  0  0  0  0  0  0  0  0
    7.4376   -8.7648  -23.8402 C   0  0  0  0  0  0  0  0  0  0  0  0
    6.1385   -8.5693  -23.2494 O   0  0  0  0  0  0  0  0  0  0  0  0
    5.7386   -9.7287  -22.5188 C   0  0  0  0  0  0  0  0  0  0  0  0
 31 32  1  0  0  0
 31 30  1  0  0  0
 32 28  1  0  0  0
 30 29  1  0  0  0
 28 29  1  0  0  0
 28 26  1  0  0  0
 26  3  1  0  0  0
  8  9  1  0  0  0
 10  9  2  0  0  0
 10 11  1  0  0  0
  3  2  2  0  0  0
  3  4  1  0  0  0
  2  1  1  0  0  0
  9 13  1  0  0  0
 23 21  2  0  0  0
  1 11  1  0  0  0
  1  7  2  0  0  0
 11 12  1  0  0  0
  4 21  1  0  0  0
  4  5  2  0  0  0
 21 22  1  0  0  0
 13 12  2  0  0  0
 13 14  1  0  0  0
 12 20  1  0  0  0
  7  5  1  0  0  0
  5  6  1  0  0  0
 15 14  2  0  0  0
 14 16  1  0  0  0
 20 17  1  0  0  0
 18 17  1  0  0  0
 16 17  1  0  0  0
 17 19  1  0  0  0
 26 27  1  0  0  0
 22 24  1  0  0  0
 22 25  1  0  0  0
M  END
> <minimizedAffinity>
-9.89709

$$$$
4NH8_2LC_A_301


 32 35  0  0  0  0  0  0  0  0999 V2000
    3.4518  -10.6785  -24.5779 C   0  0  0  0  0  0  0  0  0  0  0  0
    2.3717  -11.2346  -23.8950 C   0  0  0  0  0  0  0  0  0  0  0  0
    1.0819  -10.7300  -24.0942 C   0  0  0  0  0  0  0  0  0  0  0  0
    0.8934   -9.6247  -24.9846 C   0  0  0  0  0  0  0  0  0  0  0  0
    2.0159   -9.1062  -25.6217 C   0  0  0  0  0  0  0  0  0  0  0  0
    1.8514   -8.0150  -26.4086 F   0  0  0  0  0  0  0  0  0  0  0  0
    3.2787   -9.6134  -25.4682 C   0  0  0  0  0  0  0  0  0  0  0  0
    8.3661  -10.6954  -23.6231 C   0  0  0  0  0  0  0  0  0  0  0  0
    6.9866  -11.1950  -23.9736 C   0  0  0  0  0  0  0  0  0  0  0  0
    5.8559  -10.4509  -23.9267 C   0  0  0  0  0  0  0  0  0  0  0  0
    4.7716  -11.2056  -24.3458 N   0  0  0  0  0  0  0  0  0  0  0  0
    5.2384  -12.4716  -24.6758 C   0  0  0  0  0  0  0  0  0  0  0  0
    6.6002  -12.4982  -24.4399 C   0  0  0  0  0  0  0  0  0  0  0  0
    7.3257  -13.7570  -24.6782 C   0  0  0  0  0  0  0  0  0  0  0  0
    8.5449  -13.8251  -24.5703 O   0  0  0  0  0  0  0  0  0  0  0  0
    6.5184  -14.9635  -25.1046 C   0  0  0  0  0  0  0  0  0  0  0  0
    5.2889  -14.6552  -25.9751 C   0  0  0  0  0  0  0  0  0  0  0  0
    5.7339  -14.1292  -27.3425 C   0  0  0  0  0  0  0  0  0  0  0  0
    4.4588  -15.9187  -26.1842 C   0  0  0  0  0  0  0  0  0  0  0  0
    4.4399  -13.6035  -25.2513 C   0  0  0  0  0  0  0  0  0  0  0  0
   -0.4735   -9.0055  -25.1789 C   0  0  0  0  0  0  0  0  0  0  0  0
   -0.5491   -7.7152  -24.9572 N   0  0  0  0  0  0  0  0  0  0  0  0
   -1.4530   -9.6759  -25.5677 O   0  0  0  0  0  0  0  0  0  0  0  0
   -1.4084   -7.2468  -25.0646 H   0  0  0  0  0  0  0  0  0  0  0  0
    0.2533   -7.2149  -24.6832 H   0  0  0  0  0  0  0  0  0  0  0  0
    0.0072  -11.3250  -23.4666 N   0  0  0  0  0  0  0  0  0  0  0  0
   -0.6253  -10.7192  -23.0170 H   0  0  0  0  0  0  0  0  0  0  0  0
   -0.2992  -12.7508  -23.3931 C   0  0  0  0  0  0  0  0  0  0  0  0
    0.1809  -13.3349  -22.0583 C   0  0  0  0  0  0  0  0  0  0  0  0
   -0.9522  -12.9813  -21.1052 C   0  0  0  0  0  0  0  0  0  0  0  0
   -2.1154  -12.7812  -21.9310 O   0  0  0  0  0  0  0  0  0  0  0  0
   -1.7922  -12.9685  -23.3088 C   0  0  0  0  0  0  0  0  0  0  0  0
 31 32  1  0  0  0
 31 30  1  0  0  0
 32 28  1  0  0  0
 30 29  1  0  0  0
 28 29  1  0  0  0
 28 26  1  0  0  0
 26  3  1  0  0  0
  8  9  1  0  0  0
 10  9  2  0  0  0
 10 11  1  0  0  0
  3  2  2  0  0  0
  3  4  1  0  0  0
  2  1  1  0  0  0
  9 13  1  0  0  0
 23 21  2  0  0  0
  1 11  1  0  0  0
  1  7  2  0  0  0
 11 12  1  0  0  0
  4 21  1  0  0  0
  4  5  2  0  0  0
 21 22  1  0  0  0
 13 12  2  0  0  0
 13 14  1  0  0  0
 12 20  1  0  0  0
  7  5  1  0  0  0
  5  6  1  0  0  0
 15 14  2  0  0  0
 14 16  1  0  0  0
 20 17  1  0  0  0
 18 17  1  0  0  0
 16 17  1  0  0  0
 17 19  1  0  0  0
 26 27  1  0  0  0
 22 24  1  0  0  0
 22 25  1  0  0  0
M  END
> <minimizedAffinity>
-9.85764

$$$$
4NH8_2LC_A_301


 32 35  0  0  0  0  0  0  0  0999 V2000
    3.0834  -10.2671  -24.6665 C   0  0  0  0  0  0  0  0  0  0  0  0
    1.7167  -10.5400  -24.6648 C   0  0  0  0  0  0  0  0  0  0  0  0
    0.7936   -9.4942  -24.5548 C   0  0  0  0  0  0  0  0  0  0  0  0
    1.2714   -8.1513  -24.4192 C   0  0  0  0  0  0  0  0  0  0  0  0
    2.6476   -7.9501  -24.4117 C   0  0  0  0  0  0  0  0  0  0  0  0
    3.1034   -6.6895  -24.2111 F   0  0  0  0  0  0  0  0  0  0  0  0
    3.5636   -8.9577  -24.5579 C   0  0  0  0  0  0  0  0  0  0  0  0
    4.7119  -14.9877  -25.0204 C   0  0  0  0  0  0  0  0  0  0  0  0
    4.7318  -13.4872  -24.8676 C   0  0  0  0  0  0  0  0  0  0  0  0
    3.6551  -12.6778  -25.0089 C   0  0  0  0  0  0  0  0  0  0  0  0
    4.0142  -11.3612  -24.7667 N   0  0  0  0  0  0  0  0  0  0  0  0
    5.3675  -11.3415  -24.4542 C   0  0  0  0  0  0  0  0  0  0  0  0
    5.8399  -12.6387  -24.5250 C   0  0  0  0  0  0  0  0  0  0  0  0
    7.2708  -12.8756  -24.2719 C   0  0  0  0  0  0  0  0  0  0  0  0
    7.7368  -14.0089  -24.2354 O   0  0  0  0  0  0  0  0  0  0  0  0
    8.1479  -11.6701  -24.0142 C   0  0  0  0  0  0  0  0  0  0  0  0
    7.4617  -10.5045  -23.2826 C   0  0  0  0  0  0  0  0  0  0  0  0
    7.1304  -10.9116  -21.8442 C   0  0  0  0  0  0  0  0  0  0  0  0
    8.3823   -9.2878  -23.2463 C   0  0  0  0  0  0  0  0  0  0  0  0
    6.1791  -10.1487  -24.0435 C   0  0  0  0  0  0  0  0  0  0  0  0
    0.3101   -6.9979  -24.2312 C   0  0  0  0  0  0  0  0  0  0  0  0
    0.3694   -6.3928  -23.0693 N   0  0  0  0  0  0  0  0  0  0  0  0
   -0.4573   -6.6226  -25.1424 O   0  0  0  0  0  0  0  0  0  0  0  0
   -0.2278   -5.6337  -22.8786 H   0  0  0  0  0  0  0  0  0  0  0  0
    1.0110   -6.6977  -22.3877 H   0  0  0  0  0  0  0  0  0  0  0  0
   -0.5581   -9.7618  -24.6190 N   0  0  0  0  0  0  0  0  0  0  0  0
   -1.1570   -9.0733  -24.2494 H   0  0  0  0  0  0  0  0  0  0  0  0
   -1.2020  -10.9497  -25.1726 C   0  0  0  0  0  0  0  0  0  0  0  0
   -0.6468  -12.2182  -24.5121 C   0  0  0  0  0  0  0  0  0  0  0  0
   -1.4508  -12.3101  -23.2228 C   0  0  0  0  0  0  0  0  0  0  0  0
   -2.6568  -11.5572  -23.4545 O   0  0  0  0  0  0  0  0  0  0  0  0
   -2.6574  -11.0006  -24.7690 C   0  0  0  0  0  0  0  0  0  0  0  0
 31 32  1  0  0  0
 31 30  1  0  0  0
 32 28  1  0  0  0
 30 29  1  0  0  0
 28 29  1  0  0  0
 28 26  1  0  0  0
 26  3  1  0  0  0
  8  9  1  0  0  0
 10  9  2  0  0  0
 10 11  1  0  0  0
  3  2  2  0  0  0
  3  4  1  0  0  0
  2  1  1  0  0  0
  9 13  1  0  0  0
 23 21  2  0  0  0
  1 11  1  0  0  0
  1  7  2  0  0  0
 11 12  1  0  0  0
  4 21  1  0  0  0
  4  5  2  0  0  0
 21 22  1  0  0  0
 13 12  2  0  0  0
 13 14  1  0  0  0
 12 20  1  0  0  0
  7  5  1  0  0  0
  5  6  1  0  0  0
 15 14  2  0  0  0
 14 16  1  0  0  0
 20 17  1  0  0  0
 18 17  1  0  0  0
 16 17  1  0  0  0
 17 19  1  0  0  0
 26 27  1  0  0  0
 22 24  1  0  0  0
 22 25  1  0  0  0
M  END
> <minimizedAffinity>
-9.82994

$$$$
4NH8_2LC_A_301


 32 35  0  0  0  0  0  0  0  0999 V2000
    3.5362  -11.1045  -23.8086 C   0  0  0  0  0  0  0  0  0  0  0  0
    4.2979  -12.0060  -24.5499 C   0  0  0  0  0  0  0  0  0  0  0  0
    5.6934  -11.9038  -24.5576 C   0  0  0  0  0  0  0  0  0  0  0  0
    6.3213  -10.8507  -23.8181 C   0  0  0  0  0  0  0  0  0  0  0  0
    5.5020   -9.9753  -23.1131 C   0  0  0  0  0  0  0  0  0  0  0  0
    6.0883   -8.9352  -22.4715 F   0  0  0  0  0  0  0  0  0  0  0  0
    4.1378  -10.0851  -23.0631 C   0  0  0  0  0  0  0  0  0  0  0  0
   -0.9726  -13.2565  -23.4912 C   0  0  0  0  0  0  0  0  0  0  0  0
    0.0873  -12.2122  -23.7386 C   0  0  0  0  0  0  0  0  0  0  0  0
    1.4002  -12.3514  -23.4366 C   0  0  0  0  0  0  0  0  0  0  0  0
    2.1011  -11.2214  -23.8275 N   0  0  0  0  0  0  0  0  0  0  0  0
    1.1960  -10.3394  -24.4039 C   0  0  0  0  0  0  0  0  0  0  0  0
   -0.0579  -10.9186  -24.3475 C   0  0  0  0  0  0  0  0  0  0  0  0
   -1.2044  -10.1537  -24.8653 C   0  0  0  0  0  0  0  0  0  0  0  0
   -2.3277  -10.6414  -24.9229 O   0  0  0  0  0  0  0  0  0  0  0  0
   -0.9438   -8.7505  -25.3675 C   0  0  0  0  0  0  0  0  0  0  0  0
    0.4317   -8.5324  -26.0192 C   0  0  0  0  0  0  0  0  0  0  0  0
    0.5175   -9.3117  -27.3345 C   0  0  0  0  0  0  0  0  0  0  0  0
    0.6480   -7.0507  -26.3143 C   0  0  0  0  0  0  0  0  0  0  0  0
    1.5084   -9.0183  -25.0419 C   0  0  0  0  0  0  0  0  0  0  0  0
    7.8224  -10.6631  -23.8519 C   0  0  0  0  0  0  0  0  0  0  0  0
    8.2392   -9.4198  -23.8651 N   0  0  0  0  0  0  0  0  0  0  0  0
    8.6098  -11.6323  -23.8246 O   0  0  0  0  0  0  0  0  0  0  0  0
    9.2039   -9.2243  -23.8871 H   0  0  0  0  0  0  0  0  0  0  0  0
    7.5875   -8.6820  -23.8531 H   0  0  0  0  0  0  0  0  0  0  0  0
    6.4466  -12.8368  -25.2395 N   0  0  0  0  0  0  0  0  0  0  0  0
    6.8469  -12.5383  -26.0880 H   0  0  0  0  0  0  0  0  0  0  0  0
    6.7178  -14.2167  -24.8464 C   0  0  0  0  0  0  0  0  0  0  0  0
    5.5265  -15.1181  -25.1950 C   0  0  0  0  0  0  0  0  0  0  0  0
    5.7551  -15.4296  -26.6675 C   0  0  0  0  0  0  0  0  0  0  0  0
    7.1621  -15.2270  -26.9005 O   0  0  0  0  0  0  0  0  0  0  0  0
    7.8147  -14.8060  -25.7027 C   0  0  0  0  0  0  0  0  0  0  0  0
 31 32  1  0  0  0
 31 30  1  0  0  0
 32 28  1  0  0  0
 30 29  1  0  0  0
 28 29  1  0  0  0
 28 26  1  0  0  0
 26  3  1  0  0  0
  8  9  1  0  0  0
 10  9  2  0  0  0
 10 11  1  0  0  0
  3  2  2  0  0  0
  3  4  1  0  0  0
  2  1  1  0  0  0
  9 13  1  0  0  0
 23 21  2  0  0  0
  1 11  1  0  0  0
  1  7  2  0  0  0
 11 12  1  0  0  0
  4 21  1  0  0  0
  4  5  2  0  0  0
 21 22  1  0  0  0
 13 12  2  0  0  0
 13 14  1  0  0  0
 12 20  1  0  0  0
  7  5  1  0  0  0
  5  6  1  0  0  0
 15 14  2  0  0  0
 14 16  1  0  0  0
 20 17  1  0  0  0
 18 17  1  0  0  0
 16 17  1  0  0  0
 17 19  1  0  0  0
 26 27  1  0  0  0
 22 24  1  0  0  0
 22 25  1  0  0  0
M  END
> <minimizedAffinity>
-9.61897

$$$$
4NH8_2LC_A_301


 32 35  0  0  0  0  0  0  0  0999 V2000
    3.4122  -10.0424  -24.5377 C   0  0  0  0  0  0  0  0  0  0  0  0
    4.0530  -11.2774  -24.6169 C   0  0  0  0  0  0  0  0  0  0  0  0
    5.3549  -11.4241  -24.1253 C   0  0  0  0  0  0  0  0  0  0  0  0
    6.0235  -10.2877  -23.5669 C   0  0  0  0  0  0  0  0  0  0  0  0
    5.3331   -9.0807  -23.5333 C   0  0  0  0  0  0  0  0  0  0  0  0
    5.9884   -7.9877  -23.0721 F   0  0  0  0  0  0  0  0  0  0  0  0
    4.0452   -8.9296  -23.9738 C   0  0  0  0  0  0  0  0  0  0  0  0
   -1.3018  -11.3008  -25.6583 C   0  0  0  0  0  0  0  0  0  0  0  0
   -0.0166  -10.5126  -25.6095 C   0  0  0  0  0  0  0  0  0  0  0  0
    1.0546  -10.8208  -24.8402 C   0  0  0  0  0  0  0  0  0  0  0  0
    2.0778   -9.9127  -25.0630 N   0  0  0  0  0  0  0  0  0  0  0  0
    1.6364   -9.0017  -26.0142 C   0  0  0  0  0  0  0  0  0  0  0  0
    0.3403   -9.3385  -26.3573 C   0  0  0  0  0  0  0  0  0  0  0  0
   -0.3677   -8.4895  -27.3296 C   0  0  0  0  0  0  0  0  0  0  0  0
   -1.4858   -8.7797  -27.7403 O   0  0  0  0  0  0  0  0  0  0  0  0
    0.3496   -7.2602  -27.8426 C   0  0  0  0  0  0  0  0  0  0  0  0
    1.8758   -7.3974  -27.9707 C   0  0  0  0  0  0  0  0  0  0  0  0
    2.2207   -8.3955  -29.0794 C   0  0  0  0  0  0  0  0  0  0  0  0
    2.5009   -6.0486  -28.3158 C   0  0  0  0  0  0  0  0  0  0  0  0
    2.4284   -7.8844  -26.6259 C   0  0  0  0  0  0  0  0  0  0  0  0
    7.4543  -10.3854  -23.0844 C   0  0  0  0  0  0  0  0  0  0  0  0
    7.6549  -10.0544  -21.8314 N   0  0  0  0  0  0  0  0  0  0  0  0
    8.3737  -10.7969  -23.8229 O   0  0  0  0  0  0  0  0  0  0  0  0
    8.5620  -10.0946  -21.4509 H   0  0  0  0  0  0  0  0  0  0  0  0
    6.8984   -9.7657  -21.2714 H   0  0  0  0  0  0  0  0  0  0  0  0
    5.9613  -12.6629  -24.1462 N   0  0  0  0  0  0  0  0  0  0  0  0
    6.4878  -12.9042  -23.3500 H   0  0  0  0  0  0  0  0  0  0  0  0
    5.9115  -13.6571  -25.2144 C   0  0  0  0  0  0  0  0  0  0  0  0
    6.6338  -13.1384  -26.4645 C   0  0  0  0  0  0  0  0  0  0  0  0
    8.0945  -13.4456  -26.1654 C   0  0  0  0  0  0  0  0  0  0  0  0
    8.0837  -14.5047  -25.1890 O   0  0  0  0  0  0  0  0  0  0  0  0
    6.7439  -14.8655  -24.8533 C   0  0  0  0  0  0  0  0  0  0  0  0
 31 32  1  0  0  0
 31 30  1  0  0  0
 32 28  1  0  0  0
 30 29  1  0  0  0
 28 29  1  0  0  0
 28 26  1  0  0  0
 26  3  1  0  0  0
  8  9  1  0  0  0
 10  9  2  0  0  0
 10 11  1  0  0  0
  3  2  2  0  0  0
  3  4  1  0  0  0
  2  1  1  0  0  0
  9 13  1  0  0  0
 23 21  2  0  0  0
  1 11  1  0  0  0
  1  7  2  0  0  0
 11 12  1  0  0  0
  4 21  1  0  0  0
  4  5  2  0  0  0
 21 22  1  0  0  0
 13 12  2  0  0  0
 13 14  1  0  0  0
 12 20  1  0  0  0
  7  5  1  0  0  0
  5  6  1  0  0  0
 15 14  2  0  0  0
 14 16  1  0  0  0
 20 17  1  0  0  0
 18 17  1  0  0  0
 16 17  1  0  0  0
 17 19  1  0  0  0
 26 27  1  0  0  0
 22 24  1  0  0  0
 22 25  1  0  0  0
M  END
> <minimizedAffinity>
-9.56097

$$$$
