5FLT_VJJ_A_1264


 17 18  0  0  0  0  0  0  0  0999 V2000
   -6.2989    4.5346   15.2680 C   0  0  0  0  0  0  0  0  0  0  0  0
   -5.8800    4.6075   13.9677 C   0  0  0  0  0  0  0  0  0  0  0  0
   -5.9470    3.4584   16.0653 C   0  0  0  0  0  0  0  0  0  0  0  0
   -4.6807    2.5448   14.2954 C   0  0  0  0  0  0  0  0  0  0  0  0
   -5.0736    3.6024   13.5175 C   0  0  0  0  0  0  0  0  0  0  0  0
   -5.1171    2.4697   15.5883 C   0  0  0  0  0  0  0  0  0  0  0  0
   -5.5001    0.9240   17.3678 O   0  0  0  0  0  0  0  0  0  0  0  0
   -3.7407    0.6671   15.9846 O   0  0  0  0  0  0  0  0  0  0  0  0
   -4.7267    1.3025   16.4250 C   0  0  0  0  0  0  0  0  0  0  0  0
   -3.2272    1.0238   15.2868 H   0  0  0  0  0  0  0  0  0  0  0  0
   -4.6327    3.5956   12.2332 O   0  0  0  0  0  0  0  0  0  0  0  0
   -3.0282    0.2858   10.4435 C   0  0  0  0  0  0  0  0  0  0  0  0
   -2.1998    1.2914   10.8280 C   0  0  0  0  0  0  0  0  0  0  0  0
   -4.3900    0.3759   10.6484 C   0  0  0  0  0  0  0  0  0  0  0  0
   -2.7013    2.4228   11.4187 C   0  0  0  0  0  0  0  0  0  0  0  0
   -4.9105    1.5141   11.2281 C   0  0  0  0  0  0  0  0  0  0  0  0
   -4.0459    2.5211   11.5932 C   0  0  0  0  0  0  0  0  0  0  0  0
  7  9  2  0  0  0
  8  9  1  0  0  0
 12 13  2  0  0  0
 12 14  1  0  0  0
 13 15  1  0  0  0
 14 16  2  0  0  0
  1  2  2  0  0  0
  1  3  1  0  0  0
 15 17  2  0  0  0
 16 17  1  0  0  0
  2  5  1  0  0  0
  3  6  2  0  0  0
  4  5  2  0  0  0
  4  6  1  0  0  0
 11 17  1  0  0  0
 11  5  1  0  0  0
  9  6  1  0  0  0
  8 10  1  0  0  0
M  END
> <minimizedAffinity>
-7.66524

$$$$
5FLT_VJJ_A_1264


 17 18  0  0  0  0  0  0  0  0999 V2000
   -4.2233    4.1237   11.5811 C   0  0  0  0  0  0  0  0  0  0  0  0
   -4.1065    4.1069   12.9441 C   0  0  0  0  0  0  0  0  0  0  0  0
   -4.3395    2.9432   10.8665 C   0  0  0  0  0  0  0  0  0  0  0  0
   -4.3048    1.7077   12.8772 C   0  0  0  0  0  0  0  0  0  0  0  0
   -4.1542    2.8881   13.5568 C   0  0  0  0  0  0  0  0  0  0  0  0
   -4.4035    1.7307   11.5143 C   0  0  0  0  0  0  0  0  0  0  0  0
   -4.2922   -0.6505   11.3742 O   0  0  0  0  0  0  0  0  0  0  0  0
   -5.0513    0.5661    9.6369 O   0  0  0  0  0  0  0  0  0  0  0  0
   -4.5262    0.4488   10.7684 C   0  0  0  0  0  0  0  0  0  0  0  0
   -5.1853    1.4171    9.2685 H   0  0  0  0  0  0  0  0  0  0  0  0
   -4.0265    2.7892   14.9050 O   0  0  0  0  0  0  0  0  0  0  0  0
   -7.0576    1.7685   17.4550 C   0  0  0  0  0  0  0  0  0  0  0  0
   -7.1151    2.9632   16.8111 C   0  0  0  0  0  0  0  0  0  0  0  0
   -5.9945    0.9109   17.2578 C   0  0  0  0  0  0  0  0  0  0  0  0
   -6.1116    3.3468   15.9589 C   0  0  0  0  0  0  0  0  0  0  0  0
   -4.9705    1.2895   16.4150 C   0  0  0  0  0  0  0  0  0  0  0  0
   -5.0517    2.5127   15.7887 C   0  0  0  0  0  0  0  0  0  0  0  0
  7  9  2  0  0  0
  8  9  1  0  0  0
 12 13  2  0  0  0
 12 14  1  0  0  0
 13 15  1  0  0  0
 14 16  2  0  0  0
  1  2  2  0  0  0
  1  3  1  0  0  0
 15 17  2  0  0  0
 16 17  1  0  0  0
  2  5  1  0  0  0
  3  6  2  0  0  0
  4  5  2  0  0  0
  4  6  1  0  0  0
 11 17  1  0  0  0
 11  5  1  0  0  0
  9  6  1  0  0  0
  8 10  1  0  0  0
M  END
> <minimizedAffinity>
-7.51828

$$$$
5FLT_VJJ_A_1264


 17 18  0  0  0  0  0  0  0  0999 V2000
   -6.1527    4.6598   15.1110 C   0  0  0  0  0  0  0  0  0  0  0  0
   -5.5069    4.6432   13.9051 C   0  0  0  0  0  0  0  0  0  0  0  0
   -6.0673    3.5803   15.9742 C   0  0  0  0  0  0  0  0  0  0  0  0
   -4.6192    2.4773   14.4718 C   0  0  0  0  0  0  0  0  0  0  0  0
   -4.7502    3.5433   13.6207 C   0  0  0  0  0  0  0  0  0  0  0  0
   -5.2811    2.4933   15.6674 C   0  0  0  0  0  0  0  0  0  0  0  0
   -5.5941    1.4234   17.7792 O   0  0  0  0  0  0  0  0  0  0  0  0
   -4.8526    0.2559   16.0011 O   0  0  0  0  0  0  0  0  0  0  0  0
   -5.1750    1.3206   16.5775 C   0  0  0  0  0  0  0  0  0  0  0  0
   -4.5542    0.2757   15.1130 H   0  0  0  0  0  0  0  0  0  0  0  0
   -4.0945    3.4457   12.4356 O   0  0  0  0  0  0  0  0  0  0  0  0
   -3.2355    0.0737   10.2852 C   0  0  0  0  0  0  0  0  0  0  0  0
   -4.5326    0.3563   10.5739 C   0  0  0  0  0  0  0  0  0  0  0  0
   -2.2204    0.9061   10.7109 C   0  0  0  0  0  0  0  0  0  0  0  0
   -4.8594    1.4699   11.3041 C   0  0  0  0  0  0  0  0  0  0  0  0
   -2.5327    2.0221   11.4588 C   0  0  0  0  0  0  0  0  0  0  0  0
   -3.8554    2.2725   11.7465 C   0  0  0  0  0  0  0  0  0  0  0  0
  7  9  2  0  0  0
  8  9  1  0  0  0
 12 13  2  0  0  0
 12 14  1  0  0  0
 13 15  1  0  0  0
 14 16  2  0  0  0
  1  2  2  0  0  0
  1  3  1  0  0  0
 15 17  2  0  0  0
 16 17  1  0  0  0
  2  5  1  0  0  0
  3  6  2  0  0  0
  4  5  2  0  0  0
  4  6  1  0  0  0
 11 17  1  0  0  0
 11  5  1  0  0  0
  9  6  1  0  0  0
  8 10  1  0  0  0
M  END
> <minimizedAffinity>
-7.50724

$$$$
5FLT_VJJ_A_1264


 17 18  0  0  0  0  0  0  0  0999 V2000
   -2.5316    5.1616   13.7861 C   0  0  0  0  0  0  0  0  0  0  0  0
   -3.5530    5.0177   14.6848 C   0  0  0  0  0  0  0  0  0  0  0  0
   -2.6331    4.6345   12.5095 C   0  0  0  0  0  0  0  0  0  0  0  0
   -4.8180    3.8770   12.9821 C   0  0  0  0  0  0  0  0  0  0  0  0
   -4.6769    4.3763   14.2505 C   0  0  0  0  0  0  0  0  0  0  0  0
   -3.7868    4.0092   12.0950 C   0  0  0  0  0  0  0  0  0  0  0  0
   -2.8958    3.3943    9.9666 O   0  0  0  0  0  0  0  0  0  0  0  0
   -5.0083    2.8481   10.5264 O   0  0  0  0  0  0  0  0  0  0  0  0
   -3.9190    3.4330   10.7293 C   0  0  0  0  0  0  0  0  0  0  0  0
   -5.7081    2.9336   11.1436 H   0  0  0  0  0  0  0  0  0  0  0  0
   -5.7256    4.1790   15.0903 O   0  0  0  0  0  0  0  0  0  0  0  0
   -6.1175    0.8850   17.4837 C   0  0  0  0  0  0  0  0  0  0  0  0
   -6.9550    1.9377   17.6726 C   0  0  0  0  0  0  0  0  0  0  0  0
   -5.1467    0.9225   16.5036 C   0  0  0  0  0  0  0  0  0  0  0  0
   -6.8460    3.0650   16.8994 C   0  0  0  0  0  0  0  0  0  0  0  0
   -5.0155    2.0555   15.7279 C   0  0  0  0  0  0  0  0  0  0  0  0
   -5.8703    3.1105   15.9540 C   0  0  0  0  0  0  0  0  0  0  0  0
  7  9  2  0  0  0
  8  9  1  0  0  0
 12 13  2  0  0  0
 12 14  1  0  0  0
 13 15  1  0  0  0
 14 16  2  0  0  0
  1  2  2  0  0  0
  1  3  1  0  0  0
 15 17  2  0  0  0
 16 17  1  0  0  0
  2  5  1  0  0  0
  3  6  2  0  0  0
  4  5  2  0  0  0
  4  6  1  0  0  0
 11 17  1  0  0  0
 11  5  1  0  0  0
  9  6  1  0  0  0
  8 10  1  0  0  0
M  END
> <minimizedAffinity>
-6.91669

$$$$
5FLT_VJJ_A_1264


 17 18  0  0  0  0  0  0  0  0999 V2000
   -6.0798    5.5048   14.3951 C   0  0  0  0  0  0  0  0  0  0  0  0
   -4.9562    6.1844   14.0112 C   0  0  0  0  0  0  0  0  0  0  0  0
   -5.9832    4.2638   15.0020 C   0  0  0  0  0  0  0  0  0  0  0  0
   -3.6278    4.3951   14.9245 C   0  0  0  0  0  0  0  0  0  0  0  0
   -3.7529    5.6048   14.2929 C   0  0  0  0  0  0  0  0  0  0  0  0
   -4.7549    3.7138   15.2897 C   0  0  0  0  0  0  0  0  0  0  0  0
   -3.4616    1.9200   16.1906 O   0  0  0  0  0  0  0  0  0  0  0  0
   -5.7076    1.9142   16.3642 O   0  0  0  0  0  0  0  0  0  0  0  0
   -4.6253    2.3811   15.9391 C   0  0  0  0  0  0  0  0  0  0  0  0
   -6.5182    2.3198   16.1269 H   0  0  0  0  0  0  0  0  0  0  0  0
   -2.5940    6.2101   13.9263 O   0  0  0  0  0  0  0  0  0  0  0  0
   -1.7304   10.2083   13.9484 C   0  0  0  0  0  0  0  0  0  0  0  0
   -1.7783    9.5400   15.1301 C   0  0  0  0  0  0  0  0  0  0  0  0
   -1.9714    9.5541   12.7574 C   0  0  0  0  0  0  0  0  0  0  0  0
   -2.0779    8.2023   15.1648 C   0  0  0  0  0  0  0  0  0  0  0  0
   -2.2884    8.2120   12.7778 C   0  0  0  0  0  0  0  0  0  0  0  0
   -2.3430    7.5669   13.9927 C   0  0  0  0  0  0  0  0  0  0  0  0
  7  9  2  0  0  0
  8  9  1  0  0  0
 12 13  2  0  0  0
 12 14  1  0  0  0
 13 15  1  0  0  0
 14 16  2  0  0  0
  1  2  2  0  0  0
  1  3  1  0  0  0
 15 17  2  0  0  0
 16 17  1  0  0  0
  2  5  1  0  0  0
  3  6  2  0  0  0
  4  5  2  0  0  0
  4  6  1  0  0  0
 11 17  1  0  0  0
 11  5  1  0  0  0
  9  6  1  0  0  0
  8 10  1  0  0  0
M  END
> <minimizedAffinity>
-6.79527

$$$$
5FLT_VJJ_A_1264


 17 18  0  0  0  0  0  0  0  0999 V2000
   -4.3216    1.5820   14.1128 C   0  0  0  0  0  0  0  0  0  0  0  0
   -4.6491    2.8154   13.6198 C   0  0  0  0  0  0  0  0  0  0  0  0
   -4.6933    1.2108   15.3941 C   0  0  0  0  0  0  0  0  0  0  0  0
   -5.7994    3.2755   15.6851 C   0  0  0  0  0  0  0  0  0  0  0  0
   -5.3875    3.6313   14.4274 C   0  0  0  0  0  0  0  0  0  0  0  0
   -5.4539    2.0484   16.1777 C   0  0  0  0  0  0  0  0  0  0  0  0
   -6.4888    2.5234   18.2766 O   0  0  0  0  0  0  0  0  0  0  0  0
   -5.7215    0.4556   17.8185 O   0  0  0  0  0  0  0  0  0  0  0  0
   -5.8638    1.6729   17.5582 C   0  0  0  0  0  0  0  0  0  0  0  0
   -5.2448   -0.0967   17.2305 H   0  0  0  0  0  0  0  0  0  0  0  0
   -5.7355    4.8774   14.0150 O   0  0  0  0  0  0  0  0  0  0  0  0
   -3.1096    7.8438   12.9965 C   0  0  0  0  0  0  0  0  0  0  0  0
   -3.0124    7.2739   14.2258 C   0  0  0  0  0  0  0  0  0  0  0  0
   -4.0787    7.4342   12.1034 C   0  0  0  0  0  0  0  0  0  0  0  0
   -3.8830    6.2861   14.6090 C   0  0  0  0  0  0  0  0  0  0  0  0
   -4.9706    6.4519   12.4802 C   0  0  0  0  0  0  0  0  0  0  0  0
   -4.8545    5.9047   13.7380 C   0  0  0  0  0  0  0  0  0  0  0  0
  7  9  2  0  0  0
  8  9  1  0  0  0
 12 13  2  0  0  0
 12 14  1  0  0  0
 13 15  1  0  0  0
 14 16  2  0  0  0
  1  2  2  0  0  0
  1  3  1  0  0  0
 15 17  2  0  0  0
 16 17  1  0  0  0
  2  5  1  0  0  0
  3  6  2  0  0  0
  4  5  2  0  0  0
  4  6  1  0  0  0
 11 17  1  0  0  0
 11  5  1  0  0  0
  9  6  1  0  0  0
  8 10  1  0  0  0
M  END
> <minimizedAffinity>
-6.66374

$$$$
5FLT_VJJ_A_1264


 17 18  0  0  0  0  0  0  0  0999 V2000
   -1.2034    3.0715   11.3320 C   0  0  0  0  0  0  0  0  0  0  0  0
   -2.2113    3.9302   11.6760 C   0  0  0  0  0  0  0  0  0  0  0  0
   -1.4819    1.7679   10.9567 C   0  0  0  0  0  0  0  0  0  0  0  0
   -3.7941    2.1824   11.1860 C   0  0  0  0  0  0  0  0  0  0  0  0
   -3.4883    3.4560   11.5889 C   0  0  0  0  0  0  0  0  0  0  0  0
   -2.7812    1.3246   10.8604 C   0  0  0  0  0  0  0  0  0  0  0  0
   -3.1151   -0.9885   11.3502 O   0  0  0  0  0  0  0  0  0  0  0  0
   -3.5403   -0.1795    9.2913 O   0  0  0  0  0  0  0  0  0  0  0  0
   -3.1056   -0.0719   10.4615 C   0  0  0  0  0  0  0  0  0  0  0  0
   -3.4918    0.5495    8.7046 H   0  0  0  0  0  0  0  0  0  0  0  0
   -4.5405    4.2431   11.9313 O   0  0  0  0  0  0  0  0  0  0  0  0
   -6.0433    4.6514   15.7137 C   0  0  0  0  0  0  0  0  0  0  0  0
   -5.8806    5.7617   14.9480 C   0  0  0  0  0  0  0  0  0  0  0  0
   -5.7056    3.4042   15.2290 C   0  0  0  0  0  0  0  0  0  0  0  0
   -5.3671    5.6671   13.6801 C   0  0  0  0  0  0  0  0  0  0  0  0
   -5.1742    3.2951   13.9610 C   0  0  0  0  0  0  0  0  0  0  0  0
   -5.0086    4.4407   13.2159 C   0  0  0  0  0  0  0  0  0  0  0  0
  7  9  2  0  0  0
  8  9  1  0  0  0
 12 13  2  0  0  0
 12 14  1  0  0  0
 13 15  1  0  0  0
 14 16  2  0  0  0
  1  2  2  0  0  0
  1  3  1  0  0  0
 15 17  2  0  0  0
 16 17  1  0  0  0
  2  5  1  0  0  0
  3  6  2  0  0  0
  4  5  2  0  0  0
  4  6  1  0  0  0
 11 17  1  0  0  0
 11  5  1  0  0  0
  9  6  1  0  0  0
  8 10  1  0  0  0
M  END
> <minimizedAffinity>
-6.48674

$$$$
5FLT_VJJ_A_1264


 17 18  0  0  0  0  0  0  0  0999 V2000
   -6.2892    4.9001   15.5079 C   0  0  0  0  0  0  0  0  0  0  0  0
   -5.1520    5.0042   14.7546 C   0  0  0  0  0  0  0  0  0  0  0  0
   -6.6093    3.7130   16.1452 C   0  0  0  0  0  0  0  0  0  0  0  0
   -4.6143    2.7336   15.3508 C   0  0  0  0  0  0  0  0  0  0  0  0
   -4.3399    3.9084   14.7007 C   0  0  0  0  0  0  0  0  0  0  0  0
   -5.7608    2.6311   16.0875 C   0  0  0  0  0  0  0  0  0  0  0  0
   -5.1916    0.4337   16.8286 O   0  0  0  0  0  0  0  0  0  0  0  0
   -7.1696    1.3556   17.3871 O   0  0  0  0  0  0  0  0  0  0  0  0
   -6.0838    1.3445   16.7620 C   0  0  0  0  0  0  0  0  0  0  0  0
   -7.7670    2.0689   17.2759 H   0  0  0  0  0  0  0  0  0  0  0  0
   -3.2029    3.9291   13.9586 O   0  0  0  0  0  0  0  0  0  0  0  0
   -2.9601    4.6668    9.9425 C   0  0  0  0  0  0  0  0  0  0  0  0
   -2.3359    5.5111   10.8045 C   0  0  0  0  0  0  0  0  0  0  0  0
   -3.6685    3.5783   10.4093 C   0  0  0  0  0  0  0  0  0  0  0  0
   -2.4057    5.3049   12.1583 C   0  0  0  0  0  0  0  0  0  0  0  0
   -3.7597    3.3665   11.7692 C   0  0  0  0  0  0  0  0  0  0  0  0
   -3.1279    4.2483   12.6166 C   0  0  0  0  0  0  0  0  0  0  0  0
  7  9  2  0  0  0
  8  9  1  0  0  0
 12 13  2  0  0  0
 12 14  1  0  0  0
 13 15  1  0  0  0
 14 16  2  0  0  0
  1  2  2  0  0  0
  1  3  1  0  0  0
 15 17  2  0  0  0
 16 17  1  0  0  0
  2  5  1  0  0  0
  3  6  2  0  0  0
  4  5  2  0  0  0
  4  6  1  0  0  0
 11 17  1  0  0  0
 11  5  1  0  0  0
  9  6  1  0  0  0
  8 10  1  0  0  0
M  END
> <minimizedAffinity>
-6.46834

$$$$
5FLT_VJJ_A_1264


 17 18  0  0  0  0  0  0  0  0999 V2000
   -4.4257    1.2803   11.7659 C   0  0  0  0  0  0  0  0  0  0  0  0
   -4.5452    2.6231   11.5331 C   0  0  0  0  0  0  0  0  0  0  0  0
   -4.3261    0.7924   13.0581 C   0  0  0  0  0  0  0  0  0  0  0  0
   -4.5446    2.9808   13.9148 C   0  0  0  0  0  0  0  0  0  0  0  0
   -4.6045    3.4400   12.6250 C   0  0  0  0  0  0  0  0  0  0  0  0
   -4.4079    1.6397   14.1395 C   0  0  0  0  0  0  0  0  0  0  0  0
   -4.7776   -0.0089   15.8269 O   0  0  0  0  0  0  0  0  0  0  0  0
   -3.5602    1.8336   16.2712 O   0  0  0  0  0  0  0  0  0  0  0  0
   -4.3014    1.1397   15.5371 C   0  0  0  0  0  0  0  0  0  0  0  0
   -3.2566    2.6690   15.9747 H   0  0  0  0  0  0  0  0  0  0  0  0
   -4.7045    4.7858   12.4740 O   0  0  0  0  0  0  0  0  0  0  0  0
   -1.8079    7.3835   13.7365 C   0  0  0  0  0  0  0  0  0  0  0  0
   -2.9985    7.3588   14.3902 C   0  0  0  0  0  0  0  0  0  0  0  0
   -1.5756    6.5498   12.6615 C   0  0  0  0  0  0  0  0  0  0  0  0
   -3.9990    6.5116   13.9883 C   0  0  0  0  0  0  0  0  0  0  0  0
   -2.5778    5.7027   12.2367 C   0  0  0  0  0  0  0  0  0  0  0  0
   -3.7776    5.7121   12.9114 C   0  0  0  0  0  0  0  0  0  0  0  0
  7  9  2  0  0  0
  8  9  1  0  0  0
 12 13  2  0  0  0
 12 14  1  0  0  0
 13 15  1  0  0  0
 14 16  2  0  0  0
  1  2  2  0  0  0
  1  3  1  0  0  0
 15 17  2  0  0  0
 16 17  1  0  0  0
  2  5  1  0  0  0
  3  6  2  0  0  0
  4  5  2  0  0  0
  4  6  1  0  0  0
 11 17  1  0  0  0
 11  5  1  0  0  0
  9  6  1  0  0  0
  8 10  1  0  0  0
M  END
> <minimizedAffinity>
-6.46824

$$$$
5FLT_VJJ_A_1264


 17 18  0  0  0  0  0  0  0  0999 V2000
   -6.2060    4.9534   15.4293 C   0  0  0  0  0  0  0  0  0  0  0  0
   -5.0651    5.0287   14.6781 C   0  0  0  0  0  0  0  0  0  0  0  0
   -6.5305    3.7910   16.1084 C   0  0  0  0  0  0  0  0  0  0  0  0
   -4.5328    2.7810   15.3602 C   0  0  0  0  0  0  0  0  0  0  0  0
   -4.2540    3.9308   14.6686 C   0  0  0  0  0  0  0  0  0  0  0  0
   -5.6830    2.7069   16.0947 C   0  0  0  0  0  0  0  0  0  0  0  0
   -7.1767    1.2974   17.3130 O   0  0  0  0  0  0  0  0  0  0  0  0
   -5.1459    0.5484   16.6890 O   0  0  0  0  0  0  0  0  0  0  0  0
   -6.0107    1.4463   16.8145 C   0  0  0  0  0  0  0  0  0  0  0  0
   -4.3130    0.7498   16.3100 H   0  0  0  0  0  0  0  0  0  0  0  0
   -3.1135    3.9231   13.9317 O   0  0  0  0  0  0  0  0  0  0  0  0
   -2.9071    4.6685    9.9150 C   0  0  0  0  0  0  0  0  0  0  0  0
   -3.6728    3.6354   10.3530 C   0  0  0  0  0  0  0  0  0  0  0  0
   -2.2060    5.4548   10.8065 C   0  0  0  0  0  0  0  0  0  0  0  0
   -3.7565    3.3456   11.6907 C   0  0  0  0  0  0  0  0  0  0  0  0
   -2.2688    5.1663   12.1538 C   0  0  0  0  0  0  0  0  0  0  0  0
   -3.0422    4.1039   12.5640 C   0  0  0  0  0  0  0  0  0  0  0  0
  7  9  2  0  0  0
  8  9  1  0  0  0
 12 13  2  0  0  0
 12 14  1  0  0  0
 13 15  1  0  0  0
 14 16  2  0  0  0
  1  2  2  0  0  0
  1  3  1  0  0  0
 15 17  2  0  0  0
 16 17  1  0  0  0
  2  5  1  0  0  0
  3  6  2  0  0  0
  4  5  2  0  0  0
  4  6  1  0  0  0
 11 17  1  0  0  0
 11  5  1  0  0  0
  9  6  1  0  0  0
  8 10  1  0  0  0
M  END
> <minimizedAffinity>
-6.45748

$$$$
