3N76_CA2_A_147
  RCSB PDB12061709523D
Coordinates from PDB:3N76:A:147 Model:1 without hydrogens
 22 23  0  0  0  0            999 V2000
  -37.9190  -62.9070  -52.3590   O 0  0  0  0  0  0  0  0  0  0  0  0
  -37.7280  -61.6870  -52.0010   C 0  0  0  0  0  0  0  0  0  0  0  0
  -36.5970  -61.1070  -51.9230   O 0  0  0  0  0  0  0  0  0  0  0  0
  -38.9520  -60.8160  -51.6350   C 0  0  0  0  0  0  0  0  0  0  0  0
  -39.0280  -59.6360  -52.5020   O 0  0  0  0  0  0  0  0  0  0  0  0
  -38.7560  -60.5220  -50.2680   C 0  0  0  0  0  0  0  0  0  0  0  0
  -39.8330  -60.2740  -49.3930   C 0  0  0  0  0  0  0  0  0  0  0  0
  -41.3310  -60.4960  -49.7650   C 0  0  0  0  0  0  0  0  0  0  0  0
  -42.2780  -59.4930  -49.2220   O 0  0  0  0  0  0  0  0  0  0  0  0
  -41.4610  -60.6470  -51.2940   C 0  0  0  0  0  0  0  0  0  0  0  0
  -42.6860  -61.2920  -51.6420   O 0  0  0  0  0  0  0  0  0  0  0  0
  -40.3040  -61.5270  -51.7910   C 0  0  0  0  0  0  0  0  0  0  0  0
  -39.3610  -60.1370  -48.1010   C 0  0  0  0  0  0  0  0  0  0  0  0
  -40.0460  -59.9340  -46.9290   C 0  0  0  0  0  0  0  0  0  0  0  0
  -39.1050  -59.7310  -45.9320   C 0  0  0  0  0  0  0  0  0  0  0  0
  -39.1710  -60.5770  -44.8650   O 0  0  0  0  0  0  0  0  0  0  0  0
  -38.0430  -61.0090  -44.2490   C 0  0  0  0  0  0  0  0  0  0  0  0
  -36.8250  -61.1310  -44.8980   C 0  0  0  0  0  0  0  0  0  0  0  0
  -35.6890  -61.6260  -44.2260   C 0  0  0  0  0  0  0  0  0  0  0  0
  -35.8210  -62.0260  -42.9010   C 0  0  0  0  0  0  0  0  0  0  0  0
  -37.0690  -61.9100  -42.2420   C 0  0  0  0  0  0  0  0  0  0  0  0
  -38.1800  -61.4060  -42.9150   C 0  0  0  0  0  0  0  0  0  0  0  0
  1  2  2  0  0  0  0
  2  3  1  0  0  0  0
  2  4  1  0  0  0  0
  4  5  1  0  0  0  0
  4  6  1  0  0  0  0
  4 12  1  0  0  0  0
  6  7  1  0  0  0  0
  7  8  1  0  0  0  0
  7 13  1  0  0  0  0
  8  9  1  0  0  0  0
  8 10  1  0  0  0  0
 10 11  1  0  0  0  0
 10 12  1  0  0  0  0
 13 14  1  0  0  0  0
 14 15  1  0  0  0  0
 15 16  1  0  0  0  0
 16 17  1  0  0  0  0
 17 18  2  0  0  0  0
 17 22  1  0  0  0  0
 18 19  1  0  0  0  0
 19 20  2  0  0  0  0
 20 21  1  0  0  0  0
 21 22  2  0  0  0  0
A    1
O2
A    2
C7
A    3
O1
A    4
C1
A    5
O3
A    6
C2
A    7
C3
A    8
C4
A    9
O4
A   10
C5
A   11
O5
A   12
C6
A   13
C8
A   14
C9
A   15
C10
A   16
O11
A   17
C12
A   18
C17
A   19
C16
A   20
C15
A   21
C14
A   22
C13
M  END
>  <InstanceId>
3N76_CA2_A_147

>  <ChemCompId>
CA2

>  <PdbId>
3N76

>  <ChainId>
A

>  <ResidueNumber>
147

>  <InsertionCode>


>  <Model>
1

>  <AltIds>


>  <MissingHeavyAtoms>
0

>  <ObservedFormula>
C16 O6

>  <Name>
(1S,3R,4R,5S)-1,3,4-TRIHYDROXY-5-(3-PHENOXYPROPYL)CYCLOHEXANECARBOXYLIC ACID

>  <SystematicName>
(1S,3R,4R,5S)-1,3,4-trihydroxy-5-(3-phenoxypropyl)cyclohexane-1-carboxylic acid

>  <Synonyms>
1,3,4-TRIHYDROXY-5-(3-PHENOXYPROPYL)-CYCLOHEXANE-1-CARBOXYLIC ACID

>  <Type>
NON-POLYMER

>  <Formula>
C16 H22 O6

>  <MolecularWeight>
310.342

>  <ModifiedDate>
2011-06-04

>  <Parent>


>  <OneLetterCode>


>  <SubcomponentList>


>  <AmbiguousFlag>
N

>  <InChI>
InChI=1S/C16H22O6/c17-13-10-16(21,15(19)20)9-11(14(13)18)5-4-8-22-12-6-2-1-3-7-12/h1-3,6-7,11,13-14,17-18,21H,4-5,8-10H2,(H,19,20)/t11-,13+,14+,16-/m0/s1

>  <InChIKey>
SCUFESRLGCQXRX-DCDXPUDHSA-N

>  <SMILES>
c1ccc(cc1)OCCC[C@H]2C[C@](C[C@H]([C@@H]2O)O)(C(=O)O)O

$$$$
