1F8E_49A_A_0


 28 28  0  0  0  0  0  0  0  0999 V2000
   24.9277   16.1857   61.5936 C   0  0  0  0  0  0  0  0  0  0  0  0
   24.0243   16.2802   62.6334 C   0  0  0  0  0  0  0  0  0  0  0  0
   24.2709   17.2351   63.8187 C   0  0  0  0  0  0  0  0  0  0  0  0
   25.1653   18.4016   63.4350 C   0  0  0  0  0  0  0  0  0  0  0  0
   26.4003   17.8298   62.6874 C   0  0  0  0  0  0  0  0  0  0  0  0
   22.9823   17.7888   64.2432 N   0  0  0  0  0  0  0  0  0  0  0  0
   25.9599   17.1089   61.5080 O   0  0  0  0  0  0  0  0  0  0  0  0
   22.5661   18.3110   63.4722 H   0  0  0  0  0  0  0  0  0  0  0  0
   23.1252   18.4120   65.0379 H   0  0  0  0  0  0  0  0  0  0  0  0
   25.0916   20.3222   64.9904 C   0  0  0  0  0  0  0  0  0  0  0  0
   25.6534   20.9362   66.2462 C   0  0  0  0  0  0  0  0  0  0  0  0
   25.5998   19.1444   64.6372 N   0  0  0  0  0  0  0  0  0  0  0  0
   24.2104   20.8934   64.3482 O   0  0  0  0  0  0  0  0  0  0  0  0
   26.2999   18.7479   65.2046 H   0  0  0  0  0  0  0  0  0  0  0  0
   24.9125   15.1937   60.6115 C   0  0  0  0  0  0  0  0  0  0  0  0
   25.9309   15.0819   59.8932 O   0  0  0  0  0  0  0  0  0  0  0  0
   23.9145   14.4593   60.4707 O   0  0  0  0  0  0  0  0  0  0  0  0
   23.1686   14.5709   61.0267 H   0  0  0  0  0  0  0  0  0  0  0  0
   27.4289   18.9230   62.1873 C   0  0  0  0  0  0  0  0  0  0  0  0
   26.7281   20.0885   61.7054 O   0  0  0  0  0  0  0  0  0  0  0  0
   26.1447   19.8351   60.9730 H   0  0  0  0  0  0  0  0  0  0  0  0
   28.2788   18.2924   61.0790 C   0  0  0  0  0  0  0  0  0  0  0  0
   29.6208   18.6035   61.3038 O   0  0  0  0  0  0  0  0  0  0  0  0
   29.7397   19.5656   61.2708 H   0  0  0  0  0  0  0  0  0  0  0  0
   27.8804   18.7781   59.6841 C   0  0  0  0  0  0  0  0  0  0  0  0
   27.0823   17.7666   58.9415 N   0  0  0  0  0  0  0  0  0  0  0  0
   27.6384   16.9210   58.8146 H   0  0  0  0  0  0  0  0  0  0  0  0
   26.8215   18.1419   58.0296 H   0  0  0  0  0  0  0  0  0  0  0  0
 15  1  1  0  0  0
 15 16  2  0  0  0
 15 17  1  0  0  0
  1  2  2  0  0  0
  1  7  1  0  0  0
  2  3  1  0  0  0
  3  4  1  0  0  0
  3  6  1  0  0  0
  4  5  1  0  0  0
  4 12  1  0  0  0
  5 19  1  0  0  0
  5  7  1  0  0  0
 19 22  1  0  0  0
 19 20  1  0  0  0
 22 25  1  0  0  0
 22 23  1  0  0  0
 25 26  1  0  0  0
 10 11  1  0  0  0
 10 12  1  0  0  0
 10 13  2  0  0  0
 12 14  1  0  0  0
 17 18  1  0  0  0
  6  8  1  0  0  0
  6  9  1  0  0  0
 20 21  1  0  0  0
 23 24  1  0  0  0
 26 27  1  0  0  0
 26 28  1  0  0  0
M  END
> <minimizedAffinity>
-8.02213

$$$$
1F8E_49A_A_0


 28 28  0  0  0  0  0  0  0  0999 V2000
   28.1055   19.5959   62.8491 C   0  0  0  0  0  0  0  0  0  0  0  0
   28.2438   19.0207   61.6015 C   0  0  0  0  0  0  0  0  0  0  0  0
   27.4323   17.7705   61.2063 C   0  0  0  0  0  0  0  0  0  0  0  0
   26.1381   17.6579   61.9939 C   0  0  0  0  0  0  0  0  0  0  0  0
   26.4739   17.8672   63.4953 C   0  0  0  0  0  0  0  0  0  0  0  0
   27.0775   17.8778   59.7885 N   0  0  0  0  0  0  0  0  0  0  0  0
   27.0758   19.1744   63.6781 O   0  0  0  0  0  0  0  0  0  0  0  0
   26.5051   18.7095   59.6433 H   0  0  0  0  0  0  0  0  0  0  0  0
   26.5527   17.0502   59.5058 H   0  0  0  0  0  0  0  0  0  0  0  0
   24.3028   16.1634   61.2786 C   0  0  0  0  0  0  0  0  0  0  0  0
   23.8297   14.7392   61.1467 C   0  0  0  0  0  0  0  0  0  0  0  0
   25.5182   16.3307   61.7934 N   0  0  0  0  0  0  0  0  0  0  0  0
   23.5905   17.1008   60.9195 O   0  0  0  0  0  0  0  0  0  0  0  0
   26.0302   15.5310   62.0536 H   0  0  0  0  0  0  0  0  0  0  0  0
   28.9559   20.5686   63.3775 C   0  0  0  0  0  0  0  0  0  0  0  0
   28.6599   21.0423   64.4972 O   0  0  0  0  0  0  0  0  0  0  0  0
   29.9643   20.9381   62.7437 O   0  0  0  0  0  0  0  0  0  0  0  0
   30.1557   20.5617   61.9072 H   0  0  0  0  0  0  0  0  0  0  0  0
   25.2225   17.8100   64.4619 C   0  0  0  0  0  0  0  0  0  0  0  0
   24.0215   18.1743   63.7502 O   0  0  0  0  0  0  0  0  0  0  0  0
   24.1153   19.0725   63.3963 H   0  0  0  0  0  0  0  0  0  0  0  0
   25.4872   18.7707   65.6261 C   0  0  0  0  0  0  0  0  0  0  0  0
   25.4732   18.0498   66.8213 O   0  0  0  0  0  0  0  0  0  0  0  0
   24.5985   17.6498   66.9474 H   0  0  0  0  0  0  0  0  0  0  0  0
   24.4523   19.8943   65.7083 C   0  0  0  0  0  0  0  0  0  0  0  0
   24.5630   20.8470   64.5717 N   0  0  0  0  0  0  0  0  0  0  0  0
   25.4827   21.2879   64.5858 H   0  0  0  0  0  0  0  0  0  0  0  0
   23.8414   21.5629   64.6567 H   0  0  0  0  0  0  0  0  0  0  0  0
 15  1  1  0  0  0
 15 16  2  0  0  0
 15 17  1  0  0  0
  1  2  2  0  0  0
  1  7  1  0  0  0
  2  3  1  0  0  0
  3  4  1  0  0  0
  3  6  1  0  0  0
  4  5  1  0  0  0
  4 12  1  0  0  0
  5 19  1  0  0  0
  5  7  1  0  0  0
 19 22  1  0  0  0
 19 20  1  0  0  0
 22 25  1  0  0  0
 22 23  1  0  0  0
 25 26  1  0  0  0
 10 11  1  0  0  0
 10 12  1  0  0  0
 10 13  2  0  0  0
 12 14  1  0  0  0
 17 18  1  0  0  0
  6  8  1  0  0  0
  6  9  1  0  0  0
 20 21  1  0  0  0
 23 24  1  0  0  0
 26 27  1  0  0  0
 26 28  1  0  0  0
M  END
> <minimizedAffinity>
-7.83896

$$$$
1F8E_49A_A_0


 28 28  0  0  0  0  0  0  0  0999 V2000
   25.3679   16.4861   61.3930 C   0  0  0  0  0  0  0  0  0  0  0  0
   24.3860   16.3448   62.3534 C   0  0  0  0  0  0  0  0  0  0  0  0
   24.4116   17.1818   63.6481 C   0  0  0  0  0  0  0  0  0  0  0  0
   25.1636   18.4894   63.4673 C   0  0  0  0  0  0  0  0  0  0  0  0
   26.5169   18.1696   62.7764 C   0  0  0  0  0  0  0  0  0  0  0  0
   23.0316   17.5138   64.0123 N   0  0  0  0  0  0  0  0  0  0  0  0
   26.2674   17.5376   61.4946 O   0  0  0  0  0  0  0  0  0  0  0  0
   22.6057   18.0630   63.2658 H   0  0  0  0  0  0  0  0  0  0  0  0
   23.0290   18.0553   64.8767 H   0  0  0  0  0  0  0  0  0  0  0  0
   24.9235   20.3400   65.0894 C   0  0  0  0  0  0  0  0  0  0  0  0
   25.2665   20.8488   66.4652 C   0  0  0  0  0  0  0  0  0  0  0  0
   25.4026   19.1396   64.7735 N   0  0  0  0  0  0  0  0  0  0  0  0
   24.2343   21.0115   64.3219 O   0  0  0  0  0  0  0  0  0  0  0  0
   25.9431   18.6607   65.4426 H   0  0  0  0  0  0  0  0  0  0  0  0
   25.5610   15.6189   60.3162 C   0  0  0  0  0  0  0  0  0  0  0  0
   26.3256   16.0006   59.4023 O   0  0  0  0  0  0  0  0  0  0  0  0
   24.9850   14.5133   60.2842 O   0  0  0  0  0  0  0  0  0  0  0  0
   24.4188   14.2596   60.9864 H   0  0  0  0  0  0  0  0  0  0  0  0
   27.4200   19.4355   62.4845 C   0  0  0  0  0  0  0  0  0  0  0  0
   26.9816   20.0981   61.2802 O   0  0  0  0  0  0  0  0  0  0  0  0
   27.0383   19.4819   60.5332 H   0  0  0  0  0  0  0  0  0  0  0  0
   28.8694   18.9551   62.3539 C   0  0  0  0  0  0  0  0  0  0  0  0
   28.9840   17.6940   62.9411 O   0  0  0  0  0  0  0  0  0  0  0  0
   28.7657   17.7554   63.8842 H   0  0  0  0  0  0  0  0  0  0  0  0
   29.8665   19.9072   63.0169 C   0  0  0  0  0  0  0  0  0  0  0  0
   29.3201   21.2825   63.1645 N   0  0  0  0  0  0  0  0  0  0  0  0
   29.1104   21.6658   62.2429 H   0  0  0  0  0  0  0  0  0  0  0  0
   30.0088   21.8738   63.6299 H   0  0  0  0  0  0  0  0  0  0  0  0
 15  1  1  0  0  0
 15 16  2  0  0  0
 15 17  1  0  0  0
  1  2  2  0  0  0
  1  7  1  0  0  0
  2  3  1  0  0  0
  3  4  1  0  0  0
  3  6  1  0  0  0
  4  5  1  0  0  0
  4 12  1  0  0  0
  5 19  1  0  0  0
  5  7  1  0  0  0
 19 22  1  0  0  0
 19 20  1  0  0  0
 22 25  1  0  0  0
 22 23  1  0  0  0
 25 26  1  0  0  0
 10 11  1  0  0  0
 10 12  1  0  0  0
 10 13  2  0  0  0
 12 14  1  0  0  0
 17 18  1  0  0  0
  6  8  1  0  0  0
  6  9  1  0  0  0
 20 21  1  0  0  0
 23 24  1  0  0  0
 26 27  1  0  0  0
 26 28  1  0  0  0
M  END
> <minimizedAffinity>
-7.74500

$$$$
1F8E_49A_A_0


 28 28  0  0  0  0  0  0  0  0999 V2000
   25.3247   16.3568   61.2179 C   0  0  0  0  0  0  0  0  0  0  0  0
   26.2407   15.3239   61.2006 C   0  0  0  0  0  0  0  0  0  0  0  0
   27.7541   15.5993   61.3079 C   0  0  0  0  0  0  0  0  0  0  0  0
   28.0466   16.9085   62.0209 C   0  0  0  0  0  0  0  0  0  0  0  0
   27.1464   18.0059   61.3912 C   0  0  0  0  0  0  0  0  0  0  0  0
   28.3660   14.5238   62.0928 N   0  0  0  0  0  0  0  0  0  0  0  0
   25.7525   17.6352   61.5465 O   0  0  0  0  0  0  0  0  0  0  0  0
   27.9597   14.5120   63.0282 H   0  0  0  0  0  0  0  0  0  0  0  0
   29.3714   14.6821   62.1607 H   0  0  0  0  0  0  0  0  0  0  0  0
   30.4080   16.9289   62.7535 C   0  0  0  0  0  0  0  0  0  0  0  0
   31.8086   17.3904   62.4453 C   0  0  0  0  0  0  0  0  0  0  0  0
   29.4712   17.2761   61.8748 N   0  0  0  0  0  0  0  0  0  0  0  0
   30.1697   16.2660   63.7628 O   0  0  0  0  0  0  0  0  0  0  0  0
   29.7399   17.8040   61.0884 H   0  0  0  0  0  0  0  0  0  0  0  0
   23.9733   16.2299   60.8917 C   0  0  0  0  0  0  0  0  0  0  0  0
   23.5561   15.0841   60.6112 O   0  0  0  0  0  0  0  0  0  0  0  0
   23.2284   17.2299   60.8847 O   0  0  0  0  0  0  0  0  0  0  0  0
   23.5747   18.0736   61.1001 H   0  0  0  0  0  0  0  0  0  0  0  0
   27.3052   19.4388   62.0429 C   0  0  0  0  0  0  0  0  0  0  0  0
   28.6744   19.8838   61.9495 O   0  0  0  0  0  0  0  0  0  0  0  0
   29.2512   19.2542   62.4096 H   0  0  0  0  0  0  0  0  0  0  0  0
   26.8556   19.3395   63.5046 C   0  0  0  0  0  0  0  0  0  0  0  0
   25.6365   20.0036   63.6503 O   0  0  0  0  0  0  0  0  0  0  0  0
   25.7503   20.9409   63.4280 H   0  0  0  0  0  0  0  0  0  0  0  0
   27.8724   19.9434   64.4750 C   0  0  0  0  0  0  0  0  0  0  0  0
   28.9820   19.0034   64.7862 N   0  0  0  0  0  0  0  0  0  0  0  0
   28.6044   18.1677   65.2327 H   0  0  0  0  0  0  0  0  0  0  0  0
   29.6443   19.4558   65.4163 H   0  0  0  0  0  0  0  0  0  0  0  0
 15  1  1  0  0  0
 15 16  2  0  0  0
 15 17  1  0  0  0
  1  2  2  0  0  0
  1  7  1  0  0  0
  2  3  1  0  0  0
  3  4  1  0  0  0
  3  6  1  0  0  0
  4  5  1  0  0  0
  4 12  1  0  0  0
  5 19  1  0  0  0
  5  7  1  0  0  0
 19 22  1  0  0  0
 19 20  1  0  0  0
 22 25  1  0  0  0
 22 23  1  0  0  0
 25 26  1  0  0  0
 10 11  1  0  0  0
 10 12  1  0  0  0
 10 13  2  0  0  0
 12 14  1  0  0  0
 17 18  1  0  0  0
  6  8  1  0  0  0
  6  9  1  0  0  0
 20 21  1  0  0  0
 23 24  1  0  0  0
 26 27  1  0  0  0
 26 28  1  0  0  0
M  END
> <minimizedAffinity>
-7.40264

$$$$
1F8E_49A_A_0


 28 28  0  0  0  0  0  0  0  0999 V2000
   24.3227   18.6521   64.0781 C   0  0  0  0  0  0  0  0  0  0  0  0
   23.5427   17.5650   63.7373 C   0  0  0  0  0  0  0  0  0  0  0  0
   24.0045   16.5583   62.6644 C   0  0  0  0  0  0  0  0  0  0  0  0
   25.5170   16.5253   62.5264 C   0  0  0  0  0  0  0  0  0  0  0  0
   26.0180   17.9909   62.4178 C   0  0  0  0  0  0  0  0  0  0  0  0
   23.5695   15.2186   63.0687 N   0  0  0  0  0  0  0  0  0  0  0  0
   25.6253   18.7251   63.6058 O   0  0  0  0  0  0  0  0  0  0  0  0
   23.9980   14.9772   63.9623 H   0  0  0  0  0  0  0  0  0  0  0  0
   23.8536   14.5410   62.3613 H   0  0  0  0  0  0  0  0  0  0  0  0
   26.7356   14.7160   61.3623 C   0  0  0  0  0  0  0  0  0  0  0  0
   27.0333   14.0591   60.0397 C   0  0  0  0  0  0  0  0  0  0  0  0
   25.9155   15.7630   61.3239 N   0  0  0  0  0  0  0  0  0  0  0  0
   27.2299   14.2878   62.4051 O   0  0  0  0  0  0  0  0  0  0  0  0
   25.5562   16.0440   60.4514 H   0  0  0  0  0  0  0  0  0  0  0  0
   23.8918   19.7318   64.8510 C   0  0  0  0  0  0  0  0  0  0  0  0
   23.0033   19.5087   65.7033 O   0  0  0  0  0  0  0  0  0  0  0  0
   24.3840   20.8652   64.6832 O   0  0  0  0  0  0  0  0  0  0  0  0
   25.0482   20.9963   64.0354 H   0  0  0  0  0  0  0  0  0  0  0  0
   27.5884   18.1404   62.2964 C   0  0  0  0  0  0  0  0  0  0  0  0
   28.2513   17.1375   63.0941 O   0  0  0  0  0  0  0  0  0  0  0  0
   27.9884   17.2371   64.0225 H   0  0  0  0  0  0  0  0  0  0  0  0
   27.9608   19.5518   62.7629 C   0  0  0  0  0  0  0  0  0  0  0  0
   27.4593   20.4791   61.8480 O   0  0  0  0  0  0  0  0  0  0  0  0
   27.8634   20.3273   60.9794 H   0  0  0  0  0  0  0  0  0  0  0  0
   29.4722   19.7479   62.8952 C   0  0  0  0  0  0  0  0  0  0  0  0
   29.8539   21.1849   62.9249 N   0  0  0  0  0  0  0  0  0  0  0  0
   29.5713   21.6298   62.0516 H   0  0  0  0  0  0  0  0  0  0  0  0
   30.8645   21.2661   63.0364 H   0  0  0  0  0  0  0  0  0  0  0  0
 15  1  1  0  0  0
 15 16  2  0  0  0
 15 17  1  0  0  0
  1  2  2  0  0  0
  1  7  1  0  0  0
  2  3  1  0  0  0
  3  4  1  0  0  0
  3  6  1  0  0  0
  4  5  1  0  0  0
  4 12  1  0  0  0
  5 19  1  0  0  0
  5  7  1  0  0  0
 19 22  1  0  0  0
 19 20  1  0  0  0
 22 25  1  0  0  0
 22 23  1  0  0  0
 25 26  1  0  0  0
 10 11  1  0  0  0
 10 12  1  0  0  0
 10 13  2  0  0  0
 12 14  1  0  0  0
 17 18  1  0  0  0
  6  8  1  0  0  0
  6  9  1  0  0  0
 20 21  1  0  0  0
 23 24  1  0  0  0
 26 27  1  0  0  0
 26 28  1  0  0  0
M  END
> <minimizedAffinity>
-7.19331

$$$$
1F8E_49A_A_0


 28 28  0  0  0  0  0  0  0  0999 V2000
   26.8460   17.4779   59.3582 C   0  0  0  0  0  0  0  0  0  0  0  0
   27.6989   18.1664   60.1980 C   0  0  0  0  0  0  0  0  0  0  0  0
   27.3757   18.3373   61.6960 C   0  0  0  0  0  0  0  0  0  0  0  0
   26.4717   17.2318   62.2143 C   0  0  0  0  0  0  0  0  0  0  0  0
   25.2861   17.0813   61.2230 C   0  0  0  0  0  0  0  0  0  0  0  0
   28.6300   18.2710   62.4507 N   0  0  0  0  0  0  0  0  0  0  0  0
   25.7967   16.7535   59.9053 O   0  0  0  0  0  0  0  0  0  0  0  0
   29.0680   17.3617   62.3032 H   0  0  0  0  0  0  0  0  0  0  0  0
   28.4362   18.3980   63.4441 H   0  0  0  0  0  0  0  0  0  0  0  0
   25.6710   18.7991   63.9509 C   0  0  0  0  0  0  0  0  0  0  0  0
   25.1670   18.9496   65.3626 C   0  0  0  0  0  0  0  0  0  0  0  0
   25.9653   17.5607   63.5639 N   0  0  0  0  0  0  0  0  0  0  0  0
   25.7901   19.7790   63.2156 O   0  0  0  0  0  0  0  0  0  0  0  0
   25.8397   16.8269   64.2081 H   0  0  0  0  0  0  0  0  0  0  0  0
   26.9298   17.4743   57.9648 C   0  0  0  0  0  0  0  0  0  0  0  0
   27.4904   18.4521   57.4213 O   0  0  0  0  0  0  0  0  0  0  0  0
   26.4580   16.5265   57.3060 O   0  0  0  0  0  0  0  0  0  0  0  0
   26.0446   15.8100   57.7460 H   0  0  0  0  0  0  0  0  0  0  0  0
   24.2551   15.9423   61.6011 C   0  0  0  0  0  0  0  0  0  0  0  0
   23.7401   16.1531   62.9322 O   0  0  0  0  0  0  0  0  0  0  0  0
   24.4734   16.1484   63.5671 H   0  0  0  0  0  0  0  0  0  0  0  0
   24.9847   14.5987   61.4978 C   0  0  0  0  0  0  0  0  0  0  0  0
   24.8504   14.1083   60.1978 O   0  0  0  0  0  0  0  0  0  0  0  0
   23.9115   13.9625   60.0026 H   0  0  0  0  0  0  0  0  0  0  0  0
   24.4450   13.5592   62.4820 C   0  0  0  0  0  0  0  0  0  0  0  0
   23.0032   13.2691   62.2613 N   0  0  0  0  0  0  0  0  0  0  0  0
   22.4598   14.1210   62.4004 H   0  0  0  0  0  0  0  0  0  0  0  0
   22.6945   12.5570   62.9231 H   0  0  0  0  0  0  0  0  0  0  0  0
 15  1  1  0  0  0
 15 16  2  0  0  0
 15 17  1  0  0  0
  1  2  2  0  0  0
  1  7  1  0  0  0
  2  3  1  0  0  0
  3  4  1  0  0  0
  3  6  1  0  0  0
  4  5  1  0  0  0
  4 12  1  0  0  0
  5 19  1  0  0  0
  5  7  1  0  0  0
 19 22  1  0  0  0
 19 20  1  0  0  0
 22 25  1  0  0  0
 22 23  1  0  0  0
 25 26  1  0  0  0
 10 11  1  0  0  0
 10 12  1  0  0  0
 10 13  2  0  0  0
 12 14  1  0  0  0
 17 18  1  0  0  0
  6  8  1  0  0  0
  6  9  1  0  0  0
 20 21  1  0  0  0
 23 24  1  0  0  0
 26 27  1  0  0  0
 26 28  1  0  0  0
M  END
> <minimizedAffinity>
-7.18936

$$$$
1F8E_49A_A_0


 28 28  0  0  0  0  0  0  0  0999 V2000
   24.8351   18.8485   64.7870 C   0  0  0  0  0  0  0  0  0  0  0  0
   25.9520   19.6424   64.9560 C   0  0  0  0  0  0  0  0  0  0  0  0
   27.3535   19.1424   64.5516 C   0  0  0  0  0  0  0  0  0  0  0  0
   27.2895   18.0822   63.4654 C   0  0  0  0  0  0  0  0  0  0  0  0
   26.2312   17.0281   63.8896 C   0  0  0  0  0  0  0  0  0  0  0  0
   28.1131   20.2758   64.0170 N   0  0  0  0  0  0  0  0  0  0  0  0
   24.9434   17.6755   64.0538 O   0  0  0  0  0  0  0  0  0  0  0  0
   27.6379   20.6455   63.1937 H   0  0  0  0  0  0  0  0  0  0  0  0
   29.0498   19.9656   63.7584 H   0  0  0  0  0  0  0  0  0  0  0  0
   29.4059   17.6777   62.2528 C   0  0  0  0  0  0  0  0  0  0  0  0
   30.7125   16.9279   62.2343 C   0  0  0  0  0  0  0  0  0  0  0  0
   28.6070   17.4350   63.2886 N   0  0  0  0  0  0  0  0  0  0  0  0
   29.1187   18.4674   61.3534 O   0  0  0  0  0  0  0  0  0  0  0  0
   28.9080   16.7926   63.9713 H   0  0  0  0  0  0  0  0  0  0  0  0
   23.5781   19.1135   65.3333 C   0  0  0  0  0  0  0  0  0  0  0  0
   23.2191   18.4187   66.3100 O   0  0  0  0  0  0  0  0  0  0  0  0
   22.8566   20.0099   64.8528 O   0  0  0  0  0  0  0  0  0  0  0  0
   23.1575   20.5113   64.1206 H   0  0  0  0  0  0  0  0  0  0  0  0
   26.0158   15.8580   62.8467 C   0  0  0  0  0  0  0  0  0  0  0  0
   27.1102   14.9201   62.9114 O   0  0  0  0  0  0  0  0  0  0  0  0
   27.9416   15.3793   62.7141 H   0  0  0  0  0  0  0  0  0  0  0  0
   25.9098   16.4875   61.4536 C   0  0  0  0  0  0  0  0  0  0  0  0
   24.5821   16.8489   61.2188 O   0  0  0  0  0  0  0  0  0  0  0  0
   24.0228   16.0567   61.2401 H   0  0  0  0  0  0  0  0  0  0  0  0
   26.3737   15.5419   60.3441 C   0  0  0  0  0  0  0  0  0  0  0  0
   25.5134   14.3335   60.2369 N   0  0  0  0  0  0  0  0  0  0  0  0
   25.5533   13.8092   61.1109 H   0  0  0  0  0  0  0  0  0  0  0  0
   25.8462   13.7460   59.4724 H   0  0  0  0  0  0  0  0  0  0  0  0
 15  1  1  0  0  0
 15 16  2  0  0  0
 15 17  1  0  0  0
  1  2  2  0  0  0
  1  7  1  0  0  0
  2  3  1  0  0  0
  3  4  1  0  0  0
  3  6  1  0  0  0
  4  5  1  0  0  0
  4 12  1  0  0  0
  5 19  1  0  0  0
  5  7  1  0  0  0
 19 22  1  0  0  0
 19 20  1  0  0  0
 22 25  1  0  0  0
 22 23  1  0  0  0
 25 26  1  0  0  0
 10 11  1  0  0  0
 10 12  1  0  0  0
 10 13  2  0  0  0
 12 14  1  0  0  0
 17 18  1  0  0  0
  6  8  1  0  0  0
  6  9  1  0  0  0
 20 21  1  0  0  0
 23 24  1  0  0  0
 26 27  1  0  0  0
 26 28  1  0  0  0
M  END
> <minimizedAffinity>
-7.16799

$$$$
1F8E_49A_A_0


 28 28  0  0  0  0  0  0  0  0999 V2000
   26.1464   15.4725   61.4275 C   0  0  0  0  0  0  0  0  0  0  0  0
   24.8904   15.7241   61.9426 C   0  0  0  0  0  0  0  0  0  0  0  0
   24.7018   16.6315   63.1750 C   0  0  0  0  0  0  0  0  0  0  0  0
   25.8377   17.6285   63.3285 C   0  0  0  0  0  0  0  0  0  0  0  0
   27.1754   16.8525   63.1895 C   0  0  0  0  0  0  0  0  0  0  0  0
   23.4642   17.3966   63.0018 N   0  0  0  0  0  0  0  0  0  0  0  0
   27.2276   16.2084   61.8907 O   0  0  0  0  0  0  0  0  0  0  0  0
   23.5372   17.9765   62.1658 H   0  0  0  0  0  0  0  0  0  0  0  0
   23.3156   17.9919   63.8166 H   0  0  0  0  0  0  0  0  0  0  0  0
   25.3664   19.5516   64.8094 C   0  0  0  0  0  0  0  0  0  0  0  0
   25.3650   20.0691   66.2242 C   0  0  0  0  0  0  0  0  0  0  0  0
   25.7732   18.2954   64.6465 N   0  0  0  0  0  0  0  0  0  0  0  0
   25.0030   20.2665   63.8756 O   0  0  0  0  0  0  0  0  0  0  0  0
   26.0447   17.7845   65.4431 H   0  0  0  0  0  0  0  0  0  0  0  0
   26.4372   14.4909   60.4784 C   0  0  0  0  0  0  0  0  0  0  0  0
   27.6398   14.1826   60.3220 O   0  0  0  0  0  0  0  0  0  0  0  0
   25.5218   13.9555   59.8224 O   0  0  0  0  0  0  0  0  0  0  0  0
   24.6317   14.2109   59.9655 H   0  0  0  0  0  0  0  0  0  0  0  0
   28.4713   17.7540   63.2960 C   0  0  0  0  0  0  0  0  0  0  0  0
   28.5762   18.3285   64.6153 O   0  0  0  0  0  0  0  0  0  0  0  0
   27.7912   18.8689   64.7960 H   0  0  0  0  0  0  0  0  0  0  0  0
   28.3702   18.8456   62.2251 C   0  0  0  0  0  0  0  0  0  0  0  0
   29.3914   18.6611   61.2914 O   0  0  0  0  0  0  0  0  0  0  0  0
   30.2514   18.7436   61.7324 H   0  0  0  0  0  0  0  0  0  0  0  0
   28.4769   20.2551   62.8101 C   0  0  0  0  0  0  0  0  0  0  0  0
   29.8840   20.7316   62.8796 N   0  0  0  0  0  0  0  0  0  0  0  0
   30.4220   20.1151   63.4885 H   0  0  0  0  0  0  0  0  0  0  0  0
   29.9035   21.6804   63.2534 H   0  0  0  0  0  0  0  0  0  0  0  0
 15  1  1  0  0  0
 15 16  2  0  0  0
 15 17  1  0  0  0
  1  2  2  0  0  0
  1  7  1  0  0  0
  2  3  1  0  0  0
  3  4  1  0  0  0
  3  6  1  0  0  0
  4  5  1  0  0  0
  4 12  1  0  0  0
  5 19  1  0  0  0
  5  7  1  0  0  0
 19 22  1  0  0  0
 19 20  1  0  0  0
 22 25  1  0  0  0
 22 23  1  0  0  0
 25 26  1  0  0  0
 10 11  1  0  0  0
 10 12  1  0  0  0
 10 13  2  0  0  0
 12 14  1  0  0  0
 17 18  1  0  0  0
  6  8  1  0  0  0
  6  9  1  0  0  0
 20 21  1  0  0  0
 23 24  1  0  0  0
 26 27  1  0  0  0
 26 28  1  0  0  0
M  END
> <minimizedAffinity>
-7.11158

$$$$
1F8E_49A_A_0


 28 28  0  0  0  0  0  0  0  0999 V2000
   29.1102   20.6168   64.6591 C   0  0  0  0  0  0  0  0  0  0  0  0
   29.9270   19.9409   63.7746 C   0  0  0  0  0  0  0  0  0  0  0  0
   29.4269   18.6891   63.0257 C   0  0  0  0  0  0  0  0  0  0  0  0
   27.9150   18.6792   62.8773 C   0  0  0  0  0  0  0  0  0  0  0  0
   27.2974   18.9958   64.2663 C   0  0  0  0  0  0  0  0  0  0  0  0
   30.0021   18.6951   61.6780 N   0  0  0  0  0  0  0  0  0  0  0  0
   27.7620   20.2942   64.7169 O   0  0  0  0  0  0  0  0  0  0  0  0
   29.6931   19.5301   61.1802 H   0  0  0  0  0  0  0  0  0  0  0  0
   29.6935   17.8644   61.1729 H   0  0  0  0  0  0  0  0  0  0  0  0
   27.0599   17.1304   61.1500 C   0  0  0  0  0  0  0  0  0  0  0  0
   26.6105   15.7258   60.8424 C   0  0  0  0  0  0  0  0  0  0  0  0
   27.4453   17.3601   62.4026 N   0  0  0  0  0  0  0  0  0  0  0  0
   27.0662   17.9967   60.2756 O   0  0  0  0  0  0  0  0  0  0  0  0
   27.4163   16.6148   63.0451 H   0  0  0  0  0  0  0  0  0  0  0  0
   29.5415   21.6014   65.5498 C   0  0  0  0  0  0  0  0  0  0  0  0
   30.5239   21.3284   66.2750 O   0  0  0  0  0  0  0  0  0  0  0  0
   28.9575   22.7018   65.6063 O   0  0  0  0  0  0  0  0  0  0  0  0
   28.2245   22.8724   65.0481 H   0  0  0  0  0  0  0  0  0  0  0  0
   25.7164   19.0539   64.2837 C   0  0  0  0  0  0  0  0  0  0  0  0
   25.2489   20.2180   63.5709 O   0  0  0  0  0  0  0  0  0  0  0  0
   25.6060   21.0176   63.9881 H   0  0  0  0  0  0  0  0  0  0  0  0
   25.2662   19.0858   65.7482 C   0  0  0  0  0  0  0  0  0  0  0  0
   24.8326   17.8113   66.1173 O   0  0  0  0  0  0  0  0  0  0  0  0
   24.0738   17.5567   65.5693 H   0  0  0  0  0  0  0  0  0  0  0  0
   24.1374   20.0884   65.9948 C   0  0  0  0  0  0  0  0  0  0  0  0
   22.9513   19.8241   65.1375 N   0  0  0  0  0  0  0  0  0  0  0  0
   23.2156   19.9089   64.1560 H   0  0  0  0  0  0  0  0  0  0  0  0
   22.2191   20.5010   65.3522 H   0  0  0  0  0  0  0  0  0  0  0  0
 15  1  1  0  0  0
 15 16  2  0  0  0
 15 17  1  0  0  0
  1  2  2  0  0  0
  1  7  1  0  0  0
  2  3  1  0  0  0
  3  4  1  0  0  0
  3  6  1  0  0  0
  4  5  1  0  0  0
  4 12  1  0  0  0
  5 19  1  0  0  0
  5  7  1  0  0  0
 19 22  1  0  0  0
 19 20  1  0  0  0
 22 25  1  0  0  0
 22 23  1  0  0  0
 25 26  1  0  0  0
 10 11  1  0  0  0
 10 12  1  0  0  0
 10 13  2  0  0  0
 12 14  1  0  0  0
 17 18  1  0  0  0
  6  8  1  0  0  0
  6  9  1  0  0  0
 20 21  1  0  0  0
 23 24  1  0  0  0
 26 27  1  0  0  0
 26 28  1  0  0  0
M  END
> <minimizedAffinity>
-6.82725

$$$$
1F8E_49A_A_0


 28 28  0  0  0  0  0  0  0  0999 V2000
   24.3015   18.7495   64.1332 C   0  0  0  0  0  0  0  0  0  0  0  0
   23.5902   17.6322   63.7431 C   0  0  0  0  0  0  0  0  0  0  0  0
   24.1466   16.6650   62.6788 C   0  0  0  0  0  0  0  0  0  0  0  0
   25.6636   16.7054   62.6086 C   0  0  0  0  0  0  0  0  0  0  0  0
   26.0985   18.1945   62.5422 C   0  0  0  0  0  0  0  0  0  0  0  0
   23.7584   15.3003   63.0452 N   0  0  0  0  0  0  0  0  0  0  0  0
   25.6188   18.8909   63.7210 O   0  0  0  0  0  0  0  0  0  0  0  0
   24.1579   15.0656   63.9539 H   0  0  0  0  0  0  0  0  0  0  0  0
   24.1057   14.6478   62.3423 H   0  0  0  0  0  0  0  0  0  0  0  0
   26.7107   14.7757   61.4715 C   0  0  0  0  0  0  0  0  0  0  0  0
   27.1498   14.1874   60.1559 C   0  0  0  0  0  0  0  0  0  0  0  0
   26.1509   15.9813   61.4152 N   0  0  0  0  0  0  0  0  0  0  0  0
   26.8667   14.1558   62.5234 O   0  0  0  0  0  0  0  0  0  0  0  0
   26.0565   16.4127   60.5353 H   0  0  0  0  0  0  0  0  0  0  0  0
   23.7858   19.7956   64.9002 C   0  0  0  0  0  0  0  0  0  0  0  0
   24.2646   20.9360   64.7107 O   0  0  0  0  0  0  0  0  0  0  0  0
   22.8853   19.5820   65.7360 O   0  0  0  0  0  0  0  0  0  0  0  0
   22.5499   18.7148   65.8519 H   0  0  0  0  0  0  0  0  0  0  0  0
   27.6638   18.4195   62.4937 C   0  0  0  0  0  0  0  0  0  0  0  0
   28.2116   17.8754   61.2749 O   0  0  0  0  0  0  0  0  0  0  0  0
   28.0205   16.9254   61.2304 H   0  0  0  0  0  0  0  0  0  0  0  0
   28.2720   17.7386   63.7245 C   0  0  0  0  0  0  0  0  0  0  0  0
   28.3623   18.6702   64.7601 O   0  0  0  0  0  0  0  0  0  0  0  0
   28.9468   19.3963   64.4918 H   0  0  0  0  0  0  0  0  0  0  0  0
   29.6615   17.1605   63.4503 C   0  0  0  0  0  0  0  0  0  0  0  0
   29.6025   15.7535   62.9721 N   0  0  0  0  0  0  0  0  0  0  0  0
   29.1729   15.1686   63.6889 H   0  0  0  0  0  0  0  0  0  0  0  0
   30.5471   15.4192   62.7817 H   0  0  0  0  0  0  0  0  0  0  0  0
 15  1  1  0  0  0
 15 16  2  0  0  0
 15 17  1  0  0  0
  1  2  2  0  0  0
  1  7  1  0  0  0
  2  3  1  0  0  0
  3  4  1  0  0  0
  3  6  1  0  0  0
  4  5  1  0  0  0
  4 12  1  0  0  0
  5 19  1  0  0  0
  5  7  1  0  0  0
 19 22  1  0  0  0
 19 20  1  0  0  0
 22 25  1  0  0  0
 22 23  1  0  0  0
 25 26  1  0  0  0
 10 11  1  0  0  0
 10 12  1  0  0  0
 10 13  2  0  0  0
 12 14  1  0  0  0
 17 18  1  0  0  0
  6  8  1  0  0  0
  6  9  1  0  0  0
 20 21  1  0  0  0
 23 24  1  0  0  0
 26 27  1  0  0  0
 26 28  1  0  0  0
M  END
> <minimizedAffinity>
-6.75983

$$$$
