2ZZ1_6CN_A_303


 28 29  0  0  0  0  0  0  0  0999 V2000
   24.5399  -18.3778   11.9794 C   0  0  0  0  0  0  0  0  0  0  0  0
   24.0328  -17.2930   12.8971 C   0  0  0  0  0  0  0  0  0  0  0  0
   22.8814  -17.8515   13.5858 O   0  0  0  0  0  0  0  0  0  0  0  0
   25.2034  -17.1621   13.8837 C   0  0  0  0  0  0  0  0  0  0  0  0
   24.6964  -16.6850   15.1240 O   0  0  0  0  0  0  0  0  0  0  0  0
   25.4177  -19.2251   12.7407 O   0  0  0  0  0  0  0  0  0  0  0  0
   25.6928  -18.6017   14.0101 C   0  0  0  0  0  0  0  0  0  0  0  0
   23.1307  -18.6901   14.0047 H   0  0  0  0  0  0  0  0  0  0  0  0
   23.9891  -17.2730   15.4318 H   0  0  0  0  0  0  0  0  0  0  0  0
   27.1297  -18.7606   14.2915 N   0  0  0  0  0  0  0  0  0  0  0  0
   27.5043  -19.7670   15.1452 C   0  0  0  0  0  0  0  0  0  0  0  0
   28.8564  -19.9441   15.4765 C   0  0  0  0  0  0  0  0  0  0  0  0
   29.7793  -19.0886   14.9135 C   0  0  0  0  0  0  0  0  0  0  0  0
   31.0476  -19.1869   15.1268 O   0  0  0  0  0  0  0  0  0  0  0  0
   29.3602  -18.1623   14.0177 N   0  0  0  0  0  0  0  0  0  0  0  0
   28.0492  -17.9951   13.7150 C   0  0  0  0  0  0  0  0  0  0  0  0
   27.7275  -17.1164   12.8922 O   0  0  0  0  0  0  0  0  0  0  0  0
   30.0287  -17.5928   13.5727 H   0  0  0  0  0  0  0  0  0  0  0  0
   26.7955  -21.0480   15.0957 C   0  0  0  0  0  0  0  0  0  0  0  0
   26.2632  -22.0777   15.0612 N   0  0  0  0  0  0  0  0  0  0  0  0
   25.3179  -17.8406   10.7694 C   0  0  0  0  0  0  0  0  0  0  0  0
   24.3126  -17.4783    9.8280 O   0  0  0  0  0  0  0  0  0  0  0  0
   23.0422  -15.3355    9.4561 O   0  0  0  0  0  0  0  0  0  0  0  0
   24.3350  -16.0311    9.0817 P   0  0  0  0  0  0  0  0  0  0  0  0
   24.4609  -16.2712    7.5919 O   0  0  0  0  0  0  0  0  0  0  0  0
   25.5400  -15.3753    9.6918 O   0  0  0  0  0  0  0  0  0  0  0  0
   23.6527  -16.6950    7.2633 H   0  0  0  0  0  0  0  0  0  0  0  0
   25.3938  -15.2512   10.6427 H   0  0  0  0  0  0  0  0  0  0  0  0
 23 24  2  0  0  0
 24 22  1  0  0  0
 24 25  1  0  0  0
 26 24  1  0  0  0
 21 22  1  0  0  0
 21  1  1  0  0  0
  1  2  1  0  0  0
  2  3  1  0  0  0
  4  2  1  0  0  0
  4  5  1  0  0  0
  6  1  1  0  0  0
  6  7  1  0  0  0
  7  4  1  0  0  0
 10  7  1  0  0  0
 11 10  1  0  0  0
 12 11  2  0  0  0
 13 12  1  0  0  0
 13 15  1  0  0  0
 14 13  2  0  0  0
 15 16  1  0  0  0
 16 10  1  0  0  0
 17 16  2  0  0  0
 19 11  1  0  0  0
 20 19  3  0  0  0
 25 27  1  0  0  0
 26 28  1  0  0  0
  3  8  1  0  0  0
  5  9  1  0  0  0
 15 18  1  0  0  0
M  END
> <minimizedAffinity>
-10.08728

$$$$
2ZZ1_6CN_A_303


 28 29  0  0  0  0  0  0  0  0999 V2000
   23.6579  -15.9661    9.7928 C   0  0  0  0  0  0  0  0  0  0  0  0
   23.0085  -14.8695   10.6000 C   0  0  0  0  0  0  0  0  0  0  0  0
   21.5959  -15.2032   10.6724 O   0  0  0  0  0  0  0  0  0  0  0  0
   23.6551  -15.0861   11.9769 C   0  0  0  0  0  0  0  0  0  0  0  0
   22.7633  -14.6045   12.9746 O   0  0  0  0  0  0  0  0  0  0  0  0
   23.9687  -17.0480   10.6880 O   0  0  0  0  0  0  0  0  0  0  0  0
   23.7856  -16.6047   12.0465 C   0  0  0  0  0  0  0  0  0  0  0  0
   21.4940  -16.1066   11.0106 H   0  0  0  0  0  0  0  0  0  0  0  0
   21.9014  -15.0382   12.8745 H   0  0  0  0  0  0  0  0  0  0  0  0
   24.9166  -17.1081   12.8442 N   0  0  0  0  0  0  0  0  0  0  0  0
   24.8072  -17.0528   14.2106 C   0  0  0  0  0  0  0  0  0  0  0  0
   25.8673  -17.4867   15.0212 C   0  0  0  0  0  0  0  0  0  0  0  0
   27.0001  -17.9713   14.4026 C   0  0  0  0  0  0  0  0  0  0  0  0
   28.0158  -18.4246   15.0557 O   0  0  0  0  0  0  0  0  0  0  0  0
   27.0218  -18.0740   13.0517 N   0  0  0  0  0  0  0  0  0  0  0  0
   25.9945  -17.6408   12.2802 C   0  0  0  0  0  0  0  0  0  0  0  0
   26.0816  -17.7517   11.0421 O   0  0  0  0  0  0  0  0  0  0  0  0
   27.8084  -18.4757   12.6167 H   0  0  0  0  0  0  0  0  0  0  0  0
   23.5113  -17.3267   14.8362 C   0  0  0  0  0  0  0  0  0  0  0  0
   22.4971  -17.5315   15.3599 N   0  0  0  0  0  0  0  0  0  0  0  0
   24.9551  -15.5274    9.0980 C   0  0  0  0  0  0  0  0  0  0  0  0
   24.5762  -15.2910    7.7458 O   0  0  0  0  0  0  0  0  0  0  0  0
   24.3790  -15.8227    5.2917 O   0  0  0  0  0  0  0  0  0  0  0  0
   25.1625  -16.2036    6.5312 P   0  0  0  0  0  0  0  0  0  0  0  0
   24.9890  -17.6594    6.9097 O   0  0  0  0  0  0  0  0  0  0  0  0
   26.5965  -15.7637    6.4643 O   0  0  0  0  0  0  0  0  0  0  0  0
   24.0439  -17.8766    6.9346 H   0  0  0  0  0  0  0  0  0  0  0  0
   26.6360  -14.8263    6.2181 H   0  0  0  0  0  0  0  0  0  0  0  0
 23 24  2  0  0  0
 24 22  1  0  0  0
 24 25  1  0  0  0
 26 24  1  0  0  0
 21 22  1  0  0  0
 21  1  1  0  0  0
  1  2  1  0  0  0
  2  3  1  0  0  0
  4  2  1  0  0  0
  4  5  1  0  0  0
  6  1  1  0  0  0
  6  7  1  0  0  0
  7  4  1  0  0  0
 10  7  1  0  0  0
 11 10  1  0  0  0
 12 11  2  0  0  0
 13 12  1  0  0  0
 13 15  1  0  0  0
 14 13  2  0  0  0
 15 16  1  0  0  0
 16 10  1  0  0  0
 17 16  2  0  0  0
 19 11  1  0  0  0
 20 19  3  0  0  0
 25 27  1  0  0  0
 26 28  1  0  0  0
  3  8  1  0  0  0
  5  9  1  0  0  0
 15 18  1  0  0  0
M  END
> <minimizedAffinity>
-8.35762

$$$$
2ZZ1_6CN_A_303


 28 29  0  0  0  0  0  0  0  0999 V2000
   26.3087  -17.1965   14.1017 C   0  0  0  0  0  0  0  0  0  0  0  0
   25.1031  -18.0102   14.5023 C   0  0  0  0  0  0  0  0  0  0  0  0
   24.4476  -17.2657   15.5643 O   0  0  0  0  0  0  0  0  0  0  0  0
   24.2515  -17.9347   13.2256 C   0  0  0  0  0  0  0  0  0  0  0  0
   22.8837  -18.0809   13.5867 O   0  0  0  0  0  0  0  0  0  0  0  0
   25.8805  -16.2178   13.1389 O   0  0  0  0  0  0  0  0  0  0  0  0
   24.5362  -16.5234   12.7203 C   0  0  0  0  0  0  0  0  0  0  0  0
   24.2768  -16.3588   15.2656 H   0  0  0  0  0  0  0  0  0  0  0  0
   22.6518  -17.4140   14.2518 H   0  0  0  0  0  0  0  0  0  0  0  0
   24.4645  -16.3461   11.2601 N   0  0  0  0  0  0  0  0  0  0  0  0
   23.5991  -15.3986   10.7750 C   0  0  0  0  0  0  0  0  0  0  0  0
   23.4639  -15.2094    9.3911 C   0  0  0  0  0  0  0  0  0  0  0  0
   24.2279  -15.9923    8.5520 C   0  0  0  0  0  0  0  0  0  0  0  0
   24.2024  -15.8749    7.2678 O   0  0  0  0  0  0  0  0  0  0  0  0
   25.1215  -16.8580    9.0888 N   0  0  0  0  0  0  0  0  0  0  0  0
   25.2340  -17.0383   10.4279 C   0  0  0  0  0  0  0  0  0  0  0  0
   26.0667  -17.8594   10.8580 O   0  0  0  0  0  0  0  0  0  0  0  0
   25.7074  -17.3722    8.4876 H   0  0  0  0  0  0  0  0  0  0  0  0
   23.4366  -14.1382   11.5035 C   0  0  0  0  0  0  0  0  0  0  0  0
   23.3271  -13.1525   12.1045 N   0  0  0  0  0  0  0  0  0  0  0  0
   27.4300  -18.0350   13.4709 C   0  0  0  0  0  0  0  0  0  0  0  0
   27.7865  -18.9750   14.4796 O   0  0  0  0  0  0  0  0  0  0  0  0
   30.2193  -18.3233   14.4489 O   0  0  0  0  0  0  0  0  0  0  0  0
   29.1210  -18.7724   15.3907 P   0  0  0  0  0  0  0  0  0  0  0  0
   29.4329  -20.0900   16.0687 O   0  0  0  0  0  0  0  0  0  0  0  0
   28.6980  -17.6895   16.3409 O   0  0  0  0  0  0  0  0  0  0  0  0
   29.6981  -20.7421   15.4014 H   0  0  0  0  0  0  0  0  0  0  0  0
   28.5143  -16.8769   15.8439 H   0  0  0  0  0  0  0  0  0  0  0  0
 23 24  2  0  0  0
 24 22  1  0  0  0
 24 25  1  0  0  0
 26 24  1  0  0  0
 21 22  1  0  0  0
 21  1  1  0  0  0
  1  2  1  0  0  0
  2  3  1  0  0  0
  4  2  1  0  0  0
  4  5  1  0  0  0
  6  1  1  0  0  0
  6  7  1  0  0  0
  7  4  1  0  0  0
 10  7  1  0  0  0
 11 10  1  0  0  0
 12 11  2  0  0  0
 13 12  1  0  0  0
 13 15  1  0  0  0
 14 13  2  0  0  0
 15 16  1  0  0  0
 16 10  1  0  0  0
 17 16  2  0  0  0
 19 11  1  0  0  0
 20 19  3  0  0  0
 25 27  1  0  0  0
 26 28  1  0  0  0
  3  8  1  0  0  0
  5  9  1  0  0  0
 15 18  1  0  0  0
M  END
> <minimizedAffinity>
-8.13760

$$$$
2ZZ1_6CN_A_303


 28 29  0  0  0  0  0  0  0  0999 V2000
   25.2337  -16.1752    9.0487 C   0  0  0  0  0  0  0  0  0  0  0  0
   25.0904  -17.5627    8.4740 C   0  0  0  0  0  0  0  0  0  0  0  0
   26.3909  -17.9095    7.9258 O   0  0  0  0  0  0  0  0  0  0  0  0
   24.8351  -18.3894    9.7438 C   0  0  0  0  0  0  0  0  0  0  0  0
   25.2843  -19.7191    9.5140 O   0  0  0  0  0  0  0  0  0  0  0  0
   25.7526  -16.3020   10.3840 O   0  0  0  0  0  0  0  0  0  0  0  0
   25.7102  -17.6872   10.7779 C   0  0  0  0  0  0  0  0  0  0  0  0
   27.0708  -17.7925    8.6076 H   0  0  0  0  0  0  0  0  0  0  0  0
   26.2141  -19.7031    9.2379 H   0  0  0  0  0  0  0  0  0  0  0  0
   25.2242  -17.7490   12.1667 N   0  0  0  0  0  0  0  0  0  0  0  0
   26.1407  -18.0200   13.1510 C   0  0  0  0  0  0  0  0  0  0  0  0
   25.7291  -18.1247   14.4885 C   0  0  0  0  0  0  0  0  0  0  0  0
   24.3928  -17.9388   14.7720 C   0  0  0  0  0  0  0  0  0  0  0  0
   23.9182  -17.9813   15.9707 O   0  0  0  0  0  0  0  0  0  0  0  0
   23.5467  -17.5977   13.7702 N   0  0  0  0  0  0  0  0  0  0  0  0
   23.9560  -17.5105   12.4805 C   0  0  0  0  0  0  0  0  0  0  0  0
   23.1253  -17.2048   11.6035 O   0  0  0  0  0  0  0  0  0  0  0  0
   22.6051  -17.4073   13.9855 H   0  0  0  0  0  0  0  0  0  0  0  0
   27.4872  -17.4521   13.0507 C   0  0  0  0  0  0  0  0  0  0  0  0
   28.5635  -17.0306   12.9571 N   0  0  0  0  0  0  0  0  0  0  0  0
   23.9086  -15.4023    9.1178 C   0  0  0  0  0  0  0  0  0  0  0  0
   24.0564  -14.5352   10.2377 O   0  0  0  0  0  0  0  0  0  0  0  0
   22.5138  -12.7205   11.0571 O   0  0  0  0  0  0  0  0  0  0  0  0
   22.8008  -14.1993   11.2187 P   0  0  0  0  0  0  0  0  0  0  0  0
   23.1963  -14.5681   12.6331 O   0  0  0  0  0  0  0  0  0  0  0  0
   21.7117  -15.0631   10.6513 O   0  0  0  0  0  0  0  0  0  0  0  0
   23.9004  -13.9743   12.9373 H   0  0  0  0  0  0  0  0  0  0  0  0
   21.5077  -14.7746    9.7480 H   0  0  0  0  0  0  0  0  0  0  0  0
 23 24  2  0  0  0
 24 22  1  0  0  0
 24 25  1  0  0  0
 26 24  1  0  0  0
 21 22  1  0  0  0
 21  1  1  0  0  0
  1  2  1  0  0  0
  2  3  1  0  0  0
  4  2  1  0  0  0
  4  5  1  0  0  0
  6  1  1  0  0  0
  6  7  1  0  0  0
  7  4  1  0  0  0
 10  7  1  0  0  0
 11 10  1  0  0  0
 12 11  2  0  0  0
 13 12  1  0  0  0
 13 15  1  0  0  0
 14 13  2  0  0  0
 15 16  1  0  0  0
 16 10  1  0  0  0
 17 16  2  0  0  0
 19 11  1  0  0  0
 20 19  3  0  0  0
 25 27  1  0  0  0
 26 28  1  0  0  0
  3  8  1  0  0  0
  5  9  1  0  0  0
 15 18  1  0  0  0
M  END
> <minimizedAffinity>
-7.53261

$$$$
