2HAW_2PN_A_2001


 14 13  0  0  0  0  0  0  0  0999 V2000
  -12.3273   -7.7955  125.6956 N   0  0  0  0  0  0  0  0  0  0  0  0
  -12.4904   -8.4168  124.9033 H   0  0  0  0  0  0  0  0  0  0  0  0
  -13.9668   -6.9925  125.8397 P   0  0  0  0  0  0  0  0  0  0  0  0
  -13.9669   -5.5769  125.2898 O   0  0  0  0  0  0  0  0  0  0  0  0
  -14.3223   -6.7184  127.4007 O   0  0  0  0  0  0  0  0  0  0  0  0
  -14.9955   -7.9703  125.1643 O   0  0  0  0  0  0  0  0  0  0  0  0
  -15.1918   -6.2933  127.4645 H   0  0  0  0  0  0  0  0  0  0  0  0
  -15.8857   -7.5882  125.2146 H   0  0  0  0  0  0  0  0  0  0  0  0
  -10.8927   -7.5057  125.5241 P   0  0  0  0  0  0  0  0  0  0  0  0
  -10.6631   -6.3740  126.6084 O   0  0  0  0  0  0  0  0  0  0  0  0
  -10.0524   -8.6606  125.6848 O   0  0  0  0  0  0  0  0  0  0  0  0
  -10.7657   -7.0192  124.0191 O   0  0  0  0  0  0  0  0  0  0  0  0
  -10.1118   -8.9790  126.5991 H   0  0  0  0  0  0  0  0  0  0  0  0
  -11.3249   -6.2383  123.8835 H   0  0  0  0  0  0  0  0  0  0  0  0
  3  4  2  0  0  0
  3  5  1  0  0  0
  3  6  1  0  0  0
  3  1  1  0  0  0
  1  9  1  0  0  0
  9 10  2  0  0  0
  9 11  1  0  0  0
  9 12  1  0  0  0
  5  7  1  0  0  0
  6  8  1  0  0  0
  1  2  1  0  0  0
 11 13  1  0  0  0
 12 14  1  0  0  0
M  END
> <minimizedAffinity>
-7.51843

$$$$
2HAW_2PN_A_2001


 14 13  0  0  0  0  0  0  0  0999 V2000
  -12.2130   -7.8236  125.6720 N   0  0  0  0  0  0  0  0  0  0  0  0
  -12.3958   -8.5123  124.9422 H   0  0  0  0  0  0  0  0  0  0  0  0
  -13.8833   -7.1037  125.8848 P   0  0  0  0  0  0  0  0  0  0  0  0
  -14.9511   -7.8949  125.1499 O   0  0  0  0  0  0  0  0  0  0  0  0
  -13.9788   -5.6725  125.1226 O   0  0  0  0  0  0  0  0  0  0  0  0
  -14.1063   -6.9619  127.4342 O   0  0  0  0  0  0  0  0  0  0  0  0
  -14.8669   -5.3012  125.2421 H   0  0  0  0  0  0  0  0  0  0  0  0
  -14.9832   -6.5823  127.6012 H   0  0  0  0  0  0  0  0  0  0  0  0
  -10.8152   -7.4691  125.3685 P   0  0  0  0  0  0  0  0  0  0  0  0
  -10.4801   -6.4572  126.5402 O   0  0  0  0  0  0  0  0  0  0  0  0
   -9.9389   -8.6062  125.2978 O   0  0  0  0  0  0  0  0  0  0  0  0
  -10.8788   -6.8153  123.9241 O   0  0  0  0  0  0  0  0  0  0  0  0
   -9.8822   -9.0255  126.1706 H   0  0  0  0  0  0  0  0  0  0  0  0
  -11.4656   -6.0432  123.9442 H   0  0  0  0  0  0  0  0  0  0  0  0
  3  4  2  0  0  0
  3  5  1  0  0  0
  3  6  1  0  0  0
  3  1  1  0  0  0
  1  9  1  0  0  0
  9 10  2  0  0  0
  9 11  1  0  0  0
  9 12  1  0  0  0
  5  7  1  0  0  0
  6  8  1  0  0  0
  1  2  1  0  0  0
 11 13  1  0  0  0
 12 14  1  0  0  0
M  END
> <minimizedAffinity>
-7.34411

$$$$
2HAW_2PN_A_2001


 14 13  0  0  0  0  0  0  0  0999 V2000
  -12.2614   -7.7439  125.7593 N   0  0  0  0  0  0  0  0  0  0  0  0
  -12.4325   -8.4314  125.0256 H   0  0  0  0  0  0  0  0  0  0  0  0
  -13.9094   -6.9538  125.8744 P   0  0  0  0  0  0  0  0  0  0  0  0
  -14.3978   -6.8427  127.3081 O   0  0  0  0  0  0  0  0  0  0  0  0
  -15.0435   -7.9253  125.2354 O   0  0  0  0  0  0  0  0  0  0  0  0
  -13.7978   -5.5903  125.1005 O   0  0  0  0  0  0  0  0  0  0  0  0
  -15.9111   -7.4968  125.3019 H   0  0  0  0  0  0  0  0  0  0  0  0
  -14.6509   -5.1297  125.1322 H   0  0  0  0  0  0  0  0  0  0  0  0
  -10.8356   -7.4502  125.5307 P   0  0  0  0  0  0  0  0  0  0  0  0
  -10.6049   -6.2144  126.4945 O   0  0  0  0  0  0  0  0  0  0  0  0
   -9.9724   -8.5707  125.7859 O   0  0  0  0  0  0  0  0  0  0  0  0
  -10.7458   -7.1114  123.9831 O   0  0  0  0  0  0  0  0  0  0  0  0
  -10.0088   -8.7990  126.7279 H   0  0  0  0  0  0  0  0  0  0  0  0
  -11.3210   -6.3563  123.7835 H   0  0  0  0  0  0  0  0  0  0  0  0
  3  4  2  0  0  0
  3  5  1  0  0  0
  3  6  1  0  0  0
  3  1  1  0  0  0
  1  9  1  0  0  0
  9 10  2  0  0  0
  9 11  1  0  0  0
  9 12  1  0  0  0
  5  7  1  0  0  0
  6  8  1  0  0  0
  1  2  1  0  0  0
 11 13  1  0  0  0
 12 14  1  0  0  0
M  END
> <minimizedAffinity>
-7.32982

$$$$
2HAW_2PN_A_2001


 14 13  0  0  0  0  0  0  0  0999 V2000
  -12.7515   -7.7196  125.6246 N   0  0  0  0  0  0  0  0  0  0  0  0
  -12.8058   -8.4948  126.2853 H   0  0  0  0  0  0  0  0  0  0  0  0
  -10.9422   -7.4406  125.5776 P   0  0  0  0  0  0  0  0  0  0  0  0
  -10.1594   -8.6423  126.0771 O   0  0  0  0  0  0  0  0  0  0  0  0
  -10.5188   -6.3182  126.6726 O   0  0  0  0  0  0  0  0  0  0  0  0
  -10.6055   -6.9886  124.1104 O   0  0  0  0  0  0  0  0  0  0  0  0
   -9.5594   -6.1790  126.6386 H   0  0  0  0  0  0  0  0  0  0  0  0
   -9.6522   -6.8270  124.0325 H   0  0  0  0  0  0  0  0  0  0  0  0
  -14.0338   -7.0440  125.8907 P   0  0  0  0  0  0  0  0  0  0  0  0
  -15.0630   -8.0241  125.1912 O   0  0  0  0  0  0  0  0  0  0  0  0
  -14.2835   -6.8205  127.2884 O   0  0  0  0  0  0  0  0  0  0  0  0
  -13.8856   -5.6271  125.1919 O   0  0  0  0  0  0  0  0  0  0  0  0
  -14.3783   -7.6735  127.7404 H   0  0  0  0  0  0  0  0  0  0  0  0
  -13.7160   -5.7499  124.2448 H   0  0  0  0  0  0  0  0  0  0  0  0
  3  4  2  0  0  0
  3  5  1  0  0  0
  3  6  1  0  0  0
  3  1  1  0  0  0
  1  9  1  0  0  0
  9 10  2  0  0  0
  9 11  1  0  0  0
  9 12  1  0  0  0
  5  7  1  0  0  0
  6  8  1  0  0  0
  1  2  1  0  0  0
 11 13  1  0  0  0
 12 14  1  0  0  0
M  END
> <minimizedAffinity>
-7.29232

$$$$
2HAW_2PN_A_2001


 14 13  0  0  0  0  0  0  0  0999 V2000
  -10.7341   -6.5401  126.4923 N   0  0  0  0  0  0  0  0  0  0  0  0
  -10.0256   -7.0460  127.0236 H   0  0  0  0  0  0  0  0  0  0  0  0
  -11.5098   -5.5475  127.8214 P   0  0  0  0  0  0  0  0  0  0  0  0
  -11.0595   -4.0973  127.7970 O   0  0  0  0  0  0  0  0  0  0  0  0
  -10.9534   -6.0201  129.2724 O   0  0  0  0  0  0  0  0  0  0  0  0
  -13.0603   -5.7665  127.6853 O   0  0  0  0  0  0  0  0  0  0  0  0
  -11.3707   -5.4879  129.9678 H   0  0  0  0  0  0  0  0  0  0  0  0
  -13.5201   -5.2582  128.3716 H   0  0  0  0  0  0  0  0  0  0  0  0
  -11.0365   -7.5225  125.4365 P   0  0  0  0  0  0  0  0  0  0  0  0
  -12.5792   -7.7884  125.6791 O   0  0  0  0  0  0  0  0  0  0  0  0
  -10.7151   -7.0590  124.1145 O   0  0  0  0  0  0  0  0  0  0  0  0
  -10.0910   -8.7546  125.7616 O   0  0  0  0  0  0  0  0  0  0  0  0
  -11.2808   -6.3036  123.8903 H   0  0  0  0  0  0  0  0  0  0  0  0
  -10.2880   -9.0875  126.6511 H   0  0  0  0  0  0  0  0  0  0  0  0
  3  4  2  0  0  0
  3  5  1  0  0  0
  3  6  1  0  0  0
  3  1  1  0  0  0
  1  9  1  0  0  0
  9 10  2  0  0  0
  9 11  1  0  0  0
  9 12  1  0  0  0
  5  7  1  0  0  0
  6  8  1  0  0  0
  1  2  1  0  0  0
 11 13  1  0  0  0
 12 14  1  0  0  0
M  END
> <minimizedAffinity>
-6.47166

$$$$
2HAW_2PN_A_2001


 14 13  0  0  0  0  0  0  0  0999 V2000
  -12.2455   -6.4076  126.6589 N   0  0  0  0  0  0  0  0  0  0  0  0
  -11.9321   -7.3117  127.0121 H   0  0  0  0  0  0  0  0  0  0  0  0
  -11.3216   -5.2744  127.7614 P   0  0  0  0  0  0  0  0  0  0  0  0
  -12.1177   -4.0282  128.1070 O   0  0  0  0  0  0  0  0  0  0  0  0
  -10.0598   -4.6263  126.9701 O   0  0  0  0  0  0  0  0  0  0  0  0
  -10.8643   -6.1364  128.9936 O   0  0  0  0  0  0  0  0  0  0  0  0
   -9.5785   -4.0286  127.5634 H   0  0  0  0  0  0  0  0  0  0  0  0
  -10.3671   -5.5784  129.6119 H   0  0  0  0  0  0  0  0  0  0  0  0
  -13.6050   -6.7487  126.2042 P   0  0  0  0  0  0  0  0  0  0  0  0
  -13.9089   -5.5695  125.1911 O   0  0  0  0  0  0  0  0  0  0  0  0
  -13.7039   -8.0632  125.6313 O   0  0  0  0  0  0  0  0  0  0  0  0
  -14.4801   -6.7295  127.5277 O   0  0  0  0  0  0  0  0  0  0  0  0
  -13.1763   -8.1021  124.8183 H   0  0  0  0  0  0  0  0  0  0  0  0
  -14.4304   -5.8507  127.9354 H   0  0  0  0  0  0  0  0  0  0  0  0
  3  4  2  0  0  0
  3  5  1  0  0  0
  3  6  1  0  0  0
  3  1  1  0  0  0
  1  9  1  0  0  0
  9 10  2  0  0  0
  9 11  1  0  0  0
  9 12  1  0  0  0
  5  7  1  0  0  0
  6  8  1  0  0  0
  1  2  1  0  0  0
 11 13  1  0  0  0
 12 14  1  0  0  0
M  END
> <minimizedAffinity>
-6.38912

$$$$
2HAW_2PN_A_2001


 14 13  0  0  0  0  0  0  0  0999 V2000
  -12.2416   -6.4124  126.6497 N   0  0  0  0  0  0  0  0  0  0  0  0
  -11.9316   -7.3728  126.7977 H   0  0  0  0  0  0  0  0  0  0  0  0
  -11.2152   -5.5311  127.8839 P   0  0  0  0  0  0  0  0  0  0  0  0
  -10.6865   -6.4589  128.9637 O   0  0  0  0  0  0  0  0  0  0  0  0
  -12.1370   -4.5245  128.7645 O   0  0  0  0  0  0  0  0  0  0  0  0
  -10.1139   -4.7603  127.0693 O   0  0  0  0  0  0  0  0  0  0  0  0
  -11.5832   -4.0638  129.4141 H   0  0  0  0  0  0  0  0  0  0  0  0
   -9.5400   -4.2738  127.6816 H   0  0  0  0  0  0  0  0  0  0  0  0
  -13.6372   -6.6373  126.2338 P   0  0  0  0  0  0  0  0  0  0  0  0
  -14.4024   -6.5444  127.6177 O   0  0  0  0  0  0  0  0  0  0  0  0
  -14.0950   -5.7063  125.2391 O   0  0  0  0  0  0  0  0  0  0  0  0
  -13.6253   -8.0817  125.5771 O   0  0  0  0  0  0  0  0  0  0  0  0
  -14.1117   -4.8126  125.6160 H   0  0  0  0  0  0  0  0  0  0  0  0
  -13.3192   -8.7310  126.2295 H   0  0  0  0  0  0  0  0  0  0  0  0
  3  4  2  0  0  0
  3  5  1  0  0  0
  3  6  1  0  0  0
  3  1  1  0  0  0
  1  9  1  0  0  0
  9 10  2  0  0  0
  9 11  1  0  0  0
  9 12  1  0  0  0
  5  7  1  0  0  0
  6  8  1  0  0  0
  1  2  1  0  0  0
 11 13  1  0  0  0
 12 14  1  0  0  0
M  END
> <minimizedAffinity>
-6.22511

$$$$
2HAW_2PN_A_2001


 14 13  0  0  0  0  0  0  0  0999 V2000
  -10.8212   -6.0986  127.0425 N   0  0  0  0  0  0  0  0  0  0  0  0
  -10.2705   -5.3908  126.5567 H   0  0  0  0  0  0  0  0  0  0  0  0
  -10.9908   -7.3593  125.7252 P   0  0  0  0  0  0  0  0  0  0  0  0
  -12.4070   -7.8973  125.6194 O   0  0  0  0  0  0  0  0  0  0  0  0
  -10.1773   -8.7060  126.1291 O   0  0  0  0  0  0  0  0  0  0  0  0
  -10.4275   -6.7021  124.4133 O   0  0  0  0  0  0  0  0  0  0  0  0
  -10.2743   -9.3658  125.4247 H   0  0  0  0  0  0  0  0  0  0  0  0
  -10.4951   -7.3339  123.6804 H   0  0  0  0  0  0  0  0  0  0  0  0
  -11.6035   -5.2525  127.9610 P   0  0  0  0  0  0  0  0  0  0  0  0
  -11.6476   -6.1511  129.2647 O   0  0  0  0  0  0  0  0  0  0  0  0
  -11.0363   -3.9468  128.1593 O   0  0  0  0  0  0  0  0  0  0  0  0
  -13.0016   -5.0684  127.2335 O   0  0  0  0  0  0  0  0  0  0  0  0
  -10.1783   -4.0312  128.6038 H   0  0  0  0  0  0  0  0  0  0  0  0
  -13.4069   -5.9375  127.0873 H   0  0  0  0  0  0  0  0  0  0  0  0
  3  4  2  0  0  0
  3  5  1  0  0  0
  3  6  1  0  0  0
  3  1  1  0  0  0
  1  9  1  0  0  0
  9 10  2  0  0  0
  9 11  1  0  0  0
  9 12  1  0  0  0
  5  7  1  0  0  0
  6  8  1  0  0  0
  1  2  1  0  0  0
 11 13  1  0  0  0
 12 14  1  0  0  0
M  END
> <minimizedAffinity>
-6.19871

$$$$
2HAW_2PN_A_2001


 14 13  0  0  0  0  0  0  0  0999 V2000
  -12.6467   -4.2360  128.6251 N   0  0  0  0  0  0  0  0  0  0  0  0
  -11.6882   -4.4418  128.3436 H   0  0  0  0  0  0  0  0  0  0  0  0
  -13.5741   -5.3635  127.5197 P   0  0  0  0  0  0  0  0  0  0  0  0
  -14.3629   -6.4079  128.2900 O   0  0  0  0  0  0  0  0  0  0  0  0
  -12.5452   -6.3047  126.6867 O   0  0  0  0  0  0  0  0  0  0  0  0
  -14.4299   -4.4453  126.5736 O   0  0  0  0  0  0  0  0  0  0  0  0
  -13.0472   -6.8970  126.1053 H   0  0  0  0  0  0  0  0  0  0  0  0
  -14.9435   -4.9984  125.9643 H   0  0  0  0  0  0  0  0  0  0  0  0
  -12.5189   -2.8201  129.0133 P   0  0  0  0  0  0  0  0  0  0  0  0
  -13.1400   -2.8306  130.4704 O   0  0  0  0  0  0  0  0  0  0  0  0
  -11.1701   -2.3281  128.9468 O   0  0  0  0  0  0  0  0  0  0  0  0
  -13.3751   -2.0358  127.9318 O   0  0  0  0  0  0  0  0  0  0  0  0
  -10.6238   -2.7927  129.6000 H   0  0  0  0  0  0  0  0  0  0  0  0
  -14.2925   -2.3499  127.9560 H   0  0  0  0  0  0  0  0  0  0  0  0
  3  4  2  0  0  0
  3  5  1  0  0  0
  3  6  1  0  0  0
  3  1  1  0  0  0
  1  9  1  0  0  0
  9 10  2  0  0  0
  9 11  1  0  0  0
  9 12  1  0  0  0
  5  7  1  0  0  0
  6  8  1  0  0  0
  1  2  1  0  0  0
 11 13  1  0  0  0
 12 14  1  0  0  0
M  END
> <minimizedAffinity>
-6.18596

$$$$
2HAW_2PN_A_2001


 14 13  0  0  0  0  0  0  0  0999 V2000
  -12.6823   -4.5717  128.4878 N   0  0  0  0  0  0  0  0  0  0  0  0
  -12.9086   -4.9710  129.3987 H   0  0  0  0  0  0  0  0  0  0  0  0
  -12.4210   -2.8171  128.9424 P   0  0  0  0  0  0  0  0  0  0  0  0
  -12.8975   -2.5083  130.3509 O   0  0  0  0  0  0  0  0  0  0  0  0
  -13.3985   -1.8591  128.0678 O   0  0  0  0  0  0  0  0  0  0  0  0
  -10.9027   -2.5145  128.6708 O   0  0  0  0  0  0  0  0  0  0  0  0
  -13.2513   -0.9333  128.3169 H   0  0  0  0  0  0  0  0  0  0  0  0
  -10.7115   -1.5909  128.8974 H   0  0  0  0  0  0  0  0  0  0  0  0
  -13.4713   -5.4468  127.6028 P   0  0  0  0  0  0  0  0  0  0  0  0
  -12.3328   -6.1883  126.7884 O   0  0  0  0  0  0  0  0  0  0  0  0
  -14.3614   -6.3248  128.3117 O   0  0  0  0  0  0  0  0  0  0  0  0
  -14.3567   -4.4467  126.7463 O   0  0  0  0  0  0  0  0  0  0  0  0
  -13.8439   -6.9484  128.8449 H   0  0  0  0  0  0  0  0  0  0  0  0
  -13.7785   -3.8412  126.2565 H   0  0  0  0  0  0  0  0  0  0  0  0
  3  4  2  0  0  0
  3  5  1  0  0  0
  3  6  1  0  0  0
  3  1  1  0  0  0
  1  9  1  0  0  0
  9 10  2  0  0  0
  9 11  1  0  0  0
  9 12  1  0  0  0
  5  7  1  0  0  0
  6  8  1  0  0  0
  1  2  1  0  0  0
 11 13  1  0  0  0
 12 14  1  0  0  0
M  END
> <minimizedAffinity>
-6.11677

$$$$
