5EIS_5OU_A_201


 22 24  0  0  0  0  0  0  0  0999 V2000
  -25.3700   -6.9186   76.1832 C   0  0  0  0  0  0  0  0  0  0  0  0
  -25.5819   -6.9781   74.8133 C   0  0  0  0  0  0  0  0  0  0  0  0
  -24.5368   -7.0584   73.9741 C   0  0  0  0  0  0  0  0  0  0  0  0
  -27.4914   -6.8230   75.8713 C   0  0  0  0  0  0  0  0  0  0  0  0
  -23.2425   -7.1391   74.5557 N   0  0  0  0  0  0  0  0  0  0  0  0
  -24.1218   -6.9689   76.7048 N   0  0  0  0  0  0  0  0  0  0  0  0
  -26.9195   -6.9010   74.6496 N   0  0  0  0  0  0  0  0  0  0  0  0
  -26.5671   -6.8231   76.8210 N   0  0  0  0  0  0  0  0  0  0  0  0
  -24.5447   -7.1012   72.7067 O   0  0  0  0  0  0  0  0  0  0  0  0
  -23.0671   -7.1035   75.9284 C   0  0  0  0  0  0  0  0  0  0  0  0
  -21.9102   -7.1637   76.2997 O   0  0  0  0  0  0  0  0  0  0  0  0
  -22.4551   -7.2220   73.9707 H   0  0  0  0  0  0  0  0  0  0  0  0
  -27.8672   -5.4962   72.9058 C   0  0  0  0  0  0  0  0  0  0  0  0
  -27.6191   -6.9251   73.3597 C   0  0  0  0  0  0  0  0  0  0  0  0
  -23.9769   -6.9918   78.1690 C   0  0  0  0  0  0  0  0  0  0  0  0
  -23.5855   -5.6958   78.6343 C   0  0  0  0  0  0  0  0  0  0  0  0
  -24.5257   -4.7036   78.8853 C   0  0  0  0  0  0  0  0  0  0  0  0
  -24.1013   -3.4670   79.3649 C   0  0  0  0  0  0  0  0  0  0  0  0
  -22.7904   -3.1629   79.6425 C   0  0  0  0  0  0  0  0  0  0  0  0
  -22.3188   -1.4922   80.2473 Cl  0  0  0  0  0  0  0  0  0  0  0  0
  -21.8386   -4.1485   79.4268 C   0  0  0  0  0  0  0  0  0  0  0  0
  -22.2436   -5.4289   78.9321 C   0  0  0  0  0  0  0  0  0  0  0  0
 20 19  1  0  0  0
 21 19  2  0  0  0
 21 22  1  0  0  0
 19 18  1  0  0  0
 22 16  2  0  0  0
 18 17  2  0  0  0
 11 10  2  0  0  0
 16 17  1  0  0  0
 16 15  1  0  0  0
 15  6  1  0  0  0
 10  6  1  0  0  0
 10  5  1  0  0  0
  6  1  1  0  0  0
  5  3  1  0  0  0
  1  2  2  0  0  0
  1  8  1  0  0  0
  3  9  2  0  0  0
  3  2  1  0  0  0
  2  7  1  0  0  0
  8  4  2  0  0  0
  7  4  1  0  0  0
  7 14  1  0  0  0
 13 14  1  0  0  0
  5 12  1  0  0  0
M  END
> <minimizedAffinity>
-7.38736

$$$$
5EIS_5OU_A_201


 22 24  0  0  0  0  0  0  0  0999 V2000
  -24.1151   -6.2440   77.6071 C   0  0  0  0  0  0  0  0  0  0  0  0
  -23.1369   -5.3831   78.0835 C   0  0  0  0  0  0  0  0  0  0  0  0
  -21.8743   -5.4881   77.6391 C   0  0  0  0  0  0  0  0  0  0  0  0
  -25.0584   -4.9527   79.0387 C   0  0  0  0  0  0  0  0  0  0  0  0
  -21.6184   -6.4623   76.6364 N   0  0  0  0  0  0  0  0  0  0  0  0
  -23.8326   -7.1812   76.6720 N   0  0  0  0  0  0  0  0  0  0  0  0
  -23.7559   -4.5967   78.9893 N   0  0  0  0  0  0  0  0  0  0  0  0
  -25.2993   -5.9600   78.2119 N   0  0  0  0  0  0  0  0  0  0  0  0
  -20.8602   -4.8053   77.9763 O   0  0  0  0  0  0  0  0  0  0  0  0
  -22.6231   -7.2887   76.1631 C   0  0  0  0  0  0  0  0  0  0  0  0
  -22.2725   -8.0910   75.3186 O   0  0  0  0  0  0  0  0  0  0  0  0
  -20.7085   -6.5511   76.2711 H   0  0  0  0  0  0  0  0  0  0  0  0
  -24.0828   -3.0383   80.8270 C   0  0  0  0  0  0  0  0  0  0  0  0
  -23.1153   -3.5254   79.7612 C   0  0  0  0  0  0  0  0  0  0  0  0
  -24.9372   -7.9995   76.1470 C   0  0  0  0  0  0  0  0  0  0  0  0
  -25.5968   -7.2962   75.0889 C   0  0  0  0  0  0  0  0  0  0  0  0
  -25.0274   -7.1919   73.8254 C   0  0  0  0  0  0  0  0  0  0  0  0
  -25.7187   -6.5230   72.8185 C   0  0  0  0  0  0  0  0  0  0  0  0
  -26.9670   -5.9727   72.9829 C   0  0  0  0  0  0  0  0  0  0  0  0
  -27.7931   -5.0825   71.6029 Cl  0  0  0  0  0  0  0  0  0  0  0  0
  -27.5664   -6.0906   74.2282 C   0  0  0  0  0  0  0  0  0  0  0  0
  -26.8798   -6.7704   75.2839 C   0  0  0  0  0  0  0  0  0  0  0  0
 20 19  1  0  0  0
 21 19  2  0  0  0
 21 22  1  0  0  0
 19 18  1  0  0  0
 22 16  2  0  0  0
 18 17  2  0  0  0
 11 10  2  0  0  0
 16 17  1  0  0  0
 16 15  1  0  0  0
 15  6  1  0  0  0
 10  6  1  0  0  0
 10  5  1  0  0  0
  6  1  1  0  0  0
  5  3  1  0  0  0
  1  2  2  0  0  0
  1  8  1  0  0  0
  3  9  2  0  0  0
  3  2  1  0  0  0
  2  7  1  0  0  0
  8  4  2  0  0  0
  7  4  1  0  0  0
  7 14  1  0  0  0
 13 14  1  0  0  0
  5 12  1  0  0  0
M  END
> <minimizedAffinity>
-7.27420

$$$$
5EIS_5OU_A_201


 22 24  0  0  0  0  0  0  0  0999 V2000
  -24.8277   -7.1966   75.3177 C   0  0  0  0  0  0  0  0  0  0  0  0
  -25.5268   -6.9019   74.1560 C   0  0  0  0  0  0  0  0  0  0  0  0
  -26.8559   -6.7167   74.1998 C   0  0  0  0  0  0  0  0  0  0  0  0
  -23.3999   -7.1693   73.7155 C   0  0  0  0  0  0  0  0  0  0  0  0
  -27.4776   -6.7767   75.4765 N   0  0  0  0  0  0  0  0  0  0  0  0
  -25.4544   -7.2751   76.5151 N   0  0  0  0  0  0  0  0  0  0  0  0
  -24.6070   -6.9068   73.1681 N   0  0  0  0  0  0  0  0  0  0  0  0
  -23.5103   -7.3582   75.0225 N   0  0  0  0  0  0  0  0  0  0  0  0
  -27.6486   -6.4622   73.2431 O   0  0  0  0  0  0  0  0  0  0  0  0
  -26.7468   -7.0472   76.6206 C   0  0  0  0  0  0  0  0  0  0  0  0
  -27.3975   -7.0878   77.6476 O   0  0  0  0  0  0  0  0  0  0  0  0
  -28.4473   -6.6230   75.5485 H   0  0  0  0  0  0  0  0  0  0  0  0
  -23.5662   -6.4338   71.0222 C   0  0  0  0  0  0  0  0  0  0  0  0
  -24.8829   -6.6445   71.7508 C   0  0  0  0  0  0  0  0  0  0  0  0
  -24.6373   -7.5022   77.7176 C   0  0  0  0  0  0  0  0  0  0  0  0
  -24.0736   -6.2622   78.1580 C   0  0  0  0  0  0  0  0  0  0  0  0
  -24.8770   -5.2274   78.6219 C   0  0  0  0  0  0  0  0  0  0  0  0
  -24.2828   -4.0495   79.0676 C   0  0  0  0  0  0  0  0  0  0  0  0
  -22.9246   -3.8461   79.1100 C   0  0  0  0  0  0  0  0  0  0  0  0
  -22.2294   -2.2457   79.6886 Cl  0  0  0  0  0  0  0  0  0  0  0  0
  -22.1029   -4.8770   78.6789 C   0  0  0  0  0  0  0  0  0  0  0  0
  -22.6841   -6.0990   78.2129 C   0  0  0  0  0  0  0  0  0  0  0  0
 20 19  1  0  0  0
 21 19  2  0  0  0
 21 22  1  0  0  0
 19 18  1  0  0  0
 22 16  2  0  0  0
 18 17  2  0  0  0
 11 10  2  0  0  0
 16 17  1  0  0  0
 16 15  1  0  0  0
 15  6  1  0  0  0
 10  6  1  0  0  0
 10  5  1  0  0  0
  6  1  1  0  0  0
  5  3  1  0  0  0
  1  2  2  0  0  0
  1  8  1  0  0  0
  3  9  2  0  0  0
  3  2  1  0  0  0
  2  7  1  0  0  0
  8  4  2  0  0  0
  7  4  1  0  0  0
  7 14  1  0  0  0
 13 14  1  0  0  0
  5 12  1  0  0  0
M  END
> <minimizedAffinity>
-6.97675

$$$$
5EIS_5OU_A_201


 22 24  0  0  0  0  0  0  0  0999 V2000
  -23.7719   -6.1071   77.6309 C   0  0  0  0  0  0  0  0  0  0  0  0
  -23.4224   -5.1339   78.5560 C   0  0  0  0  0  0  0  0  0  0  0  0
  -24.3102   -4.7360   79.4813 C   0  0  0  0  0  0  0  0  0  0  0  0
  -21.7574   -5.5138   77.1873 C   0  0  0  0  0  0  0  0  0  0  0  0
  -25.5698   -5.3941   79.4971 N   0  0  0  0  0  0  0  0  0  0  0  0
  -24.9911   -6.6948   77.6548 N   0  0  0  0  0  0  0  0  0  0  0  0
  -22.1604   -4.7719   78.2423 N   0  0  0  0  0  0  0  0  0  0  0  0
  -22.7252   -6.3281   76.7916 N   0  0  0  0  0  0  0  0  0  0  0  0
  -24.1691   -3.8543   80.3818 O   0  0  0  0  0  0  0  0  0  0  0  0
  -25.8778   -6.3804   78.5758 C   0  0  0  0  0  0  0  0  0  0  0  0
  -26.9931   -6.8538   78.6843 O   0  0  0  0  0  0  0  0  0  0  0  0
  -26.2365   -5.1436   80.1767 H   0  0  0  0  0  0  0  0  0  0  0  0
  -19.8907   -4.0466   78.7266 C   0  0  0  0  0  0  0  0  0  0  0  0
  -21.3663   -3.7621   78.9518 C   0  0  0  0  0  0  0  0  0  0  0  0
  -25.2613   -7.7822   76.7009 C   0  0  0  0  0  0  0  0  0  0  0  0
  -25.7983   -7.2384   75.4904 C   0  0  0  0  0  0  0  0  0  0  0  0
  -27.0688   -6.6765   75.4516 C   0  0  0  0  0  0  0  0  0  0  0  0
  -27.5386   -6.1333   74.2586 C   0  0  0  0  0  0  0  0  0  0  0  0
  -26.8044   -6.0858   73.0980 C   0  0  0  0  0  0  0  0  0  0  0  0
  -27.5177   -5.3734   71.5607 Cl  0  0  0  0  0  0  0  0  0  0  0  0
  -25.5225   -6.6148   73.1221 C   0  0  0  0  0  0  0  0  0  0  0  0
  -25.0125   -7.1823   74.3328 C   0  0  0  0  0  0  0  0  0  0  0  0
 20 19  1  0  0  0
 21 19  2  0  0  0
 21 22  1  0  0  0
 19 18  1  0  0  0
 22 16  2  0  0  0
 18 17  2  0  0  0
 11 10  2  0  0  0
 16 17  1  0  0  0
 16 15  1  0  0  0
 15  6  1  0  0  0
 10  6  1  0  0  0
 10  5  1  0  0  0
  6  1  1  0  0  0
  5  3  1  0  0  0
  1  2  2  0  0  0
  1  8  1  0  0  0
  3  9  2  0  0  0
  3  2  1  0  0  0
  2  7  1  0  0  0
  8  4  2  0  0  0
  7  4  1  0  0  0
  7 14  1  0  0  0
 13 14  1  0  0  0
  5 12  1  0  0  0
M  END
> <minimizedAffinity>
-6.74945

$$$$
5EIS_5OU_A_201


 22 24  0  0  0  0  0  0  0  0999 V2000
  -25.5138   -6.8375   74.2709 C   0  0  0  0  0  0  0  0  0  0  0  0
  -25.7332   -6.4264   72.9640 C   0  0  0  0  0  0  0  0  0  0  0  0
  -24.7480   -6.5172   72.0562 C   0  0  0  0  0  0  0  0  0  0  0  0
  -27.5307   -6.1100   74.1716 C   0  0  0  0  0  0  0  0  0  0  0  0
  -23.5238   -7.0991   72.4836 N   0  0  0  0  0  0  0  0  0  0  0  0
  -24.3258   -7.3615   74.6535 N   0  0  0  0  0  0  0  0  0  0  0  0
  -27.0004   -5.9621   72.9377 N   0  0  0  0  0  0  0  0  0  0  0  0
  -26.6412   -6.6330   75.0032 N   0  0  0  0  0  0  0  0  0  0  0  0
  -24.7664   -6.1742   70.8355 O   0  0  0  0  0  0  0  0  0  0  0  0
  -23.3459   -7.5235   73.7892 C   0  0  0  0  0  0  0  0  0  0  0  0
  -22.2483   -7.9880   74.0329 O   0  0  0  0  0  0  0  0  0  0  0  0
  -22.7875   -7.2023   71.8382 H   0  0  0  0  0  0  0  0  0  0  0  0
  -28.9298   -6.2369   71.4838 C   0  0  0  0  0  0  0  0  0  0  0  0
  -27.6798   -5.4171   71.7566 C   0  0  0  0  0  0  0  0  0  0  0  0
  -24.1932   -7.8592   76.0319 C   0  0  0  0  0  0  0  0  0  0  0  0
  -23.8332   -6.7800   76.9009 C   0  0  0  0  0  0  0  0  0  0  0  0
  -24.7223   -6.2884   77.8493 C   0  0  0  0  0  0  0  0  0  0  0  0
  -24.3185   -5.2567   78.6929 C   0  0  0  0  0  0  0  0  0  0  0  0
  -23.0629   -4.6989   78.6728 C   0  0  0  0  0  0  0  0  0  0  0  0
  -22.6268   -3.3195   79.8071 Cl  0  0  0  0  0  0  0  0  0  0  0  0
  -22.1501   -5.1945   77.7536 C   0  0  0  0  0  0  0  0  0  0  0  0
  -22.5364   -6.2530   76.8713 C   0  0  0  0  0  0  0  0  0  0  0  0
 20 19  1  0  0  0
 21 19  2  0  0  0
 21 22  1  0  0  0
 19 18  1  0  0  0
 22 16  2  0  0  0
 18 17  2  0  0  0
 11 10  2  0  0  0
 16 17  1  0  0  0
 16 15  1  0  0  0
 15  6  1  0  0  0
 10  6  1  0  0  0
 10  5  1  0  0  0
  6  1  1  0  0  0
  5  3  1  0  0  0
  1  2  2  0  0  0
  1  8  1  0  0  0
  3  9  2  0  0  0
  3  2  1  0  0  0
  2  7  1  0  0  0
  8  4  2  0  0  0
  7  4  1  0  0  0
  7 14  1  0  0  0
 13 14  1  0  0  0
  5 12  1  0  0  0
M  END
> <minimizedAffinity>
-6.62923

$$$$
5EIS_5OU_A_201


 22 24  0  0  0  0  0  0  0  0999 V2000
  -23.5413   -6.3670   77.6218 C   0  0  0  0  0  0  0  0  0  0  0  0
  -23.3653   -5.2977   78.4882 C   0  0  0  0  0  0  0  0  0  0  0  0
  -24.4153   -4.7934   79.1560 C   0  0  0  0  0  0  0  0  0  0  0  0
  -21.4623   -5.8383   77.5523 C   0  0  0  0  0  0  0  0  0  0  0  0
  -25.6688   -5.4387   78.9767 N   0  0  0  0  0  0  0  0  0  0  0  0
  -24.7551   -6.9417   77.4512 N   0  0  0  0  0  0  0  0  0  0  0  0
  -22.0556   -4.9802   78.4109 N   0  0  0  0  0  0  0  0  0  0  0  0
  -22.3489   -6.6868   77.0520 N   0  0  0  0  0  0  0  0  0  0  0  0
  -24.4404   -3.8166   79.9644 O   0  0  0  0  0  0  0  0  0  0  0  0
  -25.8055   -6.5207   78.1242 C   0  0  0  0  0  0  0  0  0  0  0  0
  -26.9321   -6.9729   78.0453 O   0  0  0  0  0  0  0  0  0  0  0  0
  -26.4556   -5.1096   79.4685 H   0  0  0  0  0  0  0  0  0  0  0  0
  -19.9090   -3.9298   78.8596 C   0  0  0  0  0  0  0  0  0  0  0  0
  -21.3988   -3.9011   79.1580 C   0  0  0  0  0  0  0  0  0  0  0  0
  -24.8509   -8.1281   76.5860 C   0  0  0  0  0  0  0  0  0  0  0  0
  -24.7697   -7.7306   75.2132 C   0  0  0  0  0  0  0  0  0  0  0  0
  -23.7474   -8.1849   74.3885 C   0  0  0  0  0  0  0  0  0  0  0  0
  -23.7250   -7.7952   73.0518 C   0  0  0  0  0  0  0  0  0  0  0  0
  -24.6823   -6.9990   72.4707 C   0  0  0  0  0  0  0  0  0  0  0  0
  -24.5559   -6.5119   70.7026 Cl  0  0  0  0  0  0  0  0  0  0  0  0
  -25.7276   -6.5580   73.2687 C   0  0  0  0  0  0  0  0  0  0  0  0
  -25.7769   -6.9397   74.6471 C   0  0  0  0  0  0  0  0  0  0  0  0
 20 19  1  0  0  0
 21 19  2  0  0  0
 21 22  1  0  0  0
 19 18  1  0  0  0
 22 16  2  0  0  0
 18 17  2  0  0  0
 11 10  2  0  0  0
 16 17  1  0  0  0
 16 15  1  0  0  0
 15  6  1  0  0  0
 10  6  1  0  0  0
 10  5  1  0  0  0
  6  1  1  0  0  0
  5  3  1  0  0  0
  1  2  2  0  0  0
  1  8  1  0  0  0
  3  9  2  0  0  0
  3  2  1  0  0  0
  2  7  1  0  0  0
  8  4  2  0  0  0
  7  4  1  0  0  0
  7 14  1  0  0  0
 13 14  1  0  0  0
  5 12  1  0  0  0
M  END
> <minimizedAffinity>
-6.58458

$$$$
5EIS_5OU_A_201


 22 24  0  0  0  0  0  0  0  0999 V2000
  -23.6952   -7.7033   74.0496 C   0  0  0  0  0  0  0  0  0  0  0  0
  -23.6893   -7.2224   72.7481 C   0  0  0  0  0  0  0  0  0  0  0  0
  -24.7579   -6.5656   72.2691 C   0  0  0  0  0  0  0  0  0  0  0  0
  -21.8128   -8.2615   73.1826 C   0  0  0  0  0  0  0  0  0  0  0  0
  -25.8384   -6.3438   73.1653 N   0  0  0  0  0  0  0  0  0  0  0  0
  -24.7528   -7.5001   74.8698 N   0  0  0  0  0  0  0  0  0  0  0  0
  -22.5031   -7.6012   72.2270 N   0  0  0  0  0  0  0  0  0  0  0  0
  -22.5222   -8.3441   74.2990 N   0  0  0  0  0  0  0  0  0  0  0  0
  -24.9308   -6.0799   71.1105 O   0  0  0  0  0  0  0  0  0  0  0  0
  -25.8020   -6.8144   74.4667 C   0  0  0  0  0  0  0  0  0  0  0  0
  -26.7948   -6.5742   75.1273 O   0  0  0  0  0  0  0  0  0  0  0  0
  -26.6286   -5.8456   72.8544 H   0  0  0  0  0  0  0  0  0  0  0  0
  -21.2282   -8.4918   70.3580 C   0  0  0  0  0  0  0  0  0  0  0  0
  -22.0457   -7.3144   70.8623 C   0  0  0  0  0  0  0  0  0  0  0  0
  -24.6538   -7.9593   76.2643 C   0  0  0  0  0  0  0  0  0  0  0  0
  -24.2241   -6.8777   77.0979 C   0  0  0  0  0  0  0  0  0  0  0  0
  -22.9467   -6.3419   76.9854 C   0  0  0  0  0  0  0  0  0  0  0  0
  -22.5821   -5.2709   77.7973 C   0  0  0  0  0  0  0  0  0  0  0  0
  -23.4270   -4.6737   78.7015 C   0  0  0  0  0  0  0  0  0  0  0  0
  -22.8494   -3.2806   79.7526 Cl  0  0  0  0  0  0  0  0  0  0  0  0
  -24.7162   -5.1741   78.8094 C   0  0  0  0  0  0  0  0  0  0  0  0
  -25.1198   -6.2758   77.9900 C   0  0  0  0  0  0  0  0  0  0  0  0
 20 19  1  0  0  0
 21 19  2  0  0  0
 21 22  1  0  0  0
 19 18  1  0  0  0
 22 16  2  0  0  0
 18 17  2  0  0  0
 11 10  2  0  0  0
 16 17  1  0  0  0
 16 15  1  0  0  0
 15  6  1  0  0  0
 10  6  1  0  0  0
 10  5  1  0  0  0
  6  1  1  0  0  0
  5  3  1  0  0  0
  1  2  2  0  0  0
  1  8  1  0  0  0
  3  9  2  0  0  0
  3  2  1  0  0  0
  2  7  1  0  0  0
  8  4  2  0  0  0
  7  4  1  0  0  0
  7 14  1  0  0  0
 13 14  1  0  0  0
  5 12  1  0  0  0
M  END
> <minimizedAffinity>
-6.34334

$$$$
5EIS_5OU_A_201


 22 24  0  0  0  0  0  0  0  0999 V2000
  -24.5355   -7.0282   76.1100 C   0  0  0  0  0  0  0  0  0  0  0  0
  -24.2690   -6.4290   77.3326 C   0  0  0  0  0  0  0  0  0  0  0  0
  -25.2559   -6.2578   78.2268 C   0  0  0  0  0  0  0  0  0  0  0  0
  -22.4507   -6.5181   76.1180 C   0  0  0  0  0  0  0  0  0  0  0  0
  -26.5377   -6.7668   77.8837 N   0  0  0  0  0  0  0  0  0  0  0  0
  -25.7749   -7.4770   75.8018 N   0  0  0  0  0  0  0  0  0  0  0  0
  -22.9584   -6.1074   77.3009 N   0  0  0  0  0  0  0  0  0  0  0  0
  -23.3944   -7.0740   75.3719 N   0  0  0  0  0  0  0  0  0  0  0  0
  -25.1968   -5.7178   79.3728 O   0  0  0  0  0  0  0  0  0  0  0  0
  -26.7644   -7.3834   76.6652 C   0  0  0  0  0  0  0  0  0  0  0  0
  -27.9070   -7.7603   76.4854 O   0  0  0  0  0  0  0  0  0  0  0  0
  -27.2792   -6.6791   78.5253 H   0  0  0  0  0  0  0  0  0  0  0  0
  -22.2798   -3.9437   78.1784 C   0  0  0  0  0  0  0  0  0  0  0  0
  -22.2203   -5.4481   78.3845 C   0  0  0  0  0  0  0  0  0  0  0  0
  -25.9649   -8.1827   74.5245 C   0  0  0  0  0  0  0  0  0  0  0  0
  -26.6978   -7.3506   73.6191 C   0  0  0  0  0  0  0  0  0  0  0  0
  -26.2013   -6.1204   73.2050 C   0  0  0  0  0  0  0  0  0  0  0  0
  -26.9356   -5.3577   72.3004 C   0  0  0  0  0  0  0  0  0  0  0  0
  -28.1299   -5.7600   71.7528 C   0  0  0  0  0  0  0  0  0  0  0  0
  -29.0445   -4.6733   70.5858 Cl  0  0  0  0  0  0  0  0  0  0  0  0
  -28.6296   -6.9976   72.1300 C   0  0  0  0  0  0  0  0  0  0  0  0
  -27.8989   -7.8035   73.0600 C   0  0  0  0  0  0  0  0  0  0  0  0
 20 19  1  0  0  0
 21 19  2  0  0  0
 21 22  1  0  0  0
 19 18  1  0  0  0
 22 16  2  0  0  0
 18 17  2  0  0  0
 11 10  2  0  0  0
 16 17  1  0  0  0
 16 15  1  0  0  0
 15  6  1  0  0  0
 10  6  1  0  0  0
 10  5  1  0  0  0
  6  1  1  0  0  0
  5  3  1  0  0  0
  1  2  2  0  0  0
  1  8  1  0  0  0
  3  9  2  0  0  0
  3  2  1  0  0  0
  2  7  1  0  0  0
  8  4  2  0  0  0
  7  4  1  0  0  0
  7 14  1  0  0  0
 13 14  1  0  0  0
  5 12  1  0  0  0
M  END
> <minimizedAffinity>
-6.24104

$$$$
5EIS_5OU_A_201


 22 24  0  0  0  0  0  0  0  0999 V2000
  -24.2762   -7.0954   77.0454 C   0  0  0  0  0  0  0  0  0  0  0  0
  -23.5800   -6.0764   77.6793 C   0  0  0  0  0  0  0  0  0  0  0  0
  -22.3031   -5.8270   77.3477 C   0  0  0  0  0  0  0  0  0  0  0  0
  -25.6105   -6.2230   78.4825 C   0  0  0  0  0  0  0  0  0  0  0  0
  -21.7421   -6.6033   76.2976 N   0  0  0  0  0  0  0  0  0  0  0  0
  -23.7036   -7.8364   76.0679 N   0  0  0  0  0  0  0  0  0  0  0  0
  -24.4380   -5.5593   78.5841 N   0  0  0  0  0  0  0  0  0  0  0  0
  -25.5335   -7.1693   77.5580 N   0  0  0  0  0  0  0  0  0  0  0  0
  -21.5179   -4.9571   77.8324 O   0  0  0  0  0  0  0  0  0  0  0  0
  -22.4727   -7.5958   75.6672 C   0  0  0  0  0  0  0  0  0  0  0  0
  -21.8743   -8.1993   74.7969 O   0  0  0  0  0  0  0  0  0  0  0  0
  -20.8154   -6.4318   76.0130 H   0  0  0  0  0  0  0  0  0  0  0  0
  -24.5253   -3.1413   78.8248 C   0  0  0  0  0  0  0  0  0  0  0  0
  -24.1411   -4.4490   79.4967 C   0  0  0  0  0  0  0  0  0  0  0  0
  -24.5291   -8.8400   75.3775 C   0  0  0  0  0  0  0  0  0  0  0  0
  -24.7460   -8.4348   74.0217 C   0  0  0  0  0  0  0  0  0  0  0  0
  -25.1487   -7.1418   73.7095 C   0  0  0  0  0  0  0  0  0  0  0  0
  -25.3193   -6.7840   72.3746 C   0  0  0  0  0  0  0  0  0  0  0  0
  -25.0823   -7.6311   71.3190 C   0  0  0  0  0  0  0  0  0  0  0  0
  -25.3617   -7.0797   69.5877 Cl  0  0  0  0  0  0  0  0  0  0  0  0
  -24.6515   -8.9177   71.6068 C   0  0  0  0  0  0  0  0  0  0  0  0
  -24.4692   -9.3159   72.9694 C   0  0  0  0  0  0  0  0  0  0  0  0
 20 19  1  0  0  0
 21 19  2  0  0  0
 21 22  1  0  0  0
 19 18  1  0  0  0
 22 16  2  0  0  0
 18 17  2  0  0  0
 11 10  2  0  0  0
 16 17  1  0  0  0
 16 15  1  0  0  0
 15  6  1  0  0  0
 10  6  1  0  0  0
 10  5  1  0  0  0
  6  1  1  0  0  0
  5  3  1  0  0  0
  1  2  2  0  0  0
  1  8  1  0  0  0
  3  9  2  0  0  0
  3  2  1  0  0  0
  2  7  1  0  0  0
  8  4  2  0  0  0
  7  4  1  0  0  0
  7 14  1  0  0  0
 13 14  1  0  0  0
  5 12  1  0  0  0
M  END
> <minimizedAffinity>
-6.02375

$$$$
5EIS_5OU_A_201


 22 24  0  0  0  0  0  0  0  0999 V2000
  -23.1457   -6.8176   76.5668 C   0  0  0  0  0  0  0  0  0  0  0  0
  -24.1092   -6.4192   77.4822 C   0  0  0  0  0  0  0  0  0  0  0  0
  -25.2924   -7.0520   77.5314 C   0  0  0  0  0  0  0  0  0  0  0  0
  -22.3288   -5.1585   77.6562 C   0  0  0  0  0  0  0  0  0  0  0  0
  -25.4720   -8.1604   76.6600 N   0  0  0  0  0  0  0  0  0  0  0  0
  -23.3588   -7.8601   75.7300 N   0  0  0  0  0  0  0  0  0  0  0  0
  -23.5731   -5.3688   78.1389 N   0  0  0  0  0  0  0  0  0  0  0  0
  -22.0493   -6.0230   76.6915 N   0  0  0  0  0  0  0  0  0  0  0  0
  -26.2848   -6.8112   78.2833 O   0  0  0  0  0  0  0  0  0  0  0  0
  -24.4799   -8.5488   75.7761 C   0  0  0  0  0  0  0  0  0  0  0  0
  -24.7626   -9.5007   75.0734 O   0  0  0  0  0  0  0  0  0  0  0  0
  -26.3188   -8.6619   76.6856 H   0  0  0  0  0  0  0  0  0  0  0  0
  -24.2484   -3.1390   78.8350 C   0  0  0  0  0  0  0  0  0  0  0  0
  -24.2322   -4.6117   79.2095 C   0  0  0  0  0  0  0  0  0  0  0  0
  -22.2597   -8.2841   74.8481 C   0  0  0  0  0  0  0  0  0  0  0  0
  -22.5350   -7.8740   73.5045 C   0  0  0  0  0  0  0  0  0  0  0  0
  -23.7111   -7.2092   73.1783 C   0  0  0  0  0  0  0  0  0  0  0  0
  -23.9232   -6.8033   71.8632 C   0  0  0  0  0  0  0  0  0  0  0  0
  -23.0161   -6.9917   70.8485 C   0  0  0  0  0  0  0  0  0  0  0  0
  -23.3939   -6.4465   69.1340 Cl  0  0  0  0  0  0  0  0  0  0  0  0
  -21.8227   -7.6272   71.1581 C   0  0  0  0  0  0  0  0  0  0  0  0
  -21.5767   -8.0583   72.5004 C   0  0  0  0  0  0  0  0  0  0  0  0
 20 19  1  0  0  0
 21 19  2  0  0  0
 21 22  1  0  0  0
 19 18  1  0  0  0
 22 16  2  0  0  0
 18 17  2  0  0  0
 11 10  2  0  0  0
 16 17  1  0  0  0
 16 15  1  0  0  0
 15  6  1  0  0  0
 10  6  1  0  0  0
 10  5  1  0  0  0
  6  1  1  0  0  0
  5  3  1  0  0  0
  1  2  2  0  0  0
  1  8  1  0  0  0
  3  9  2  0  0  0
  3  2  1  0  0  0
  2  7  1  0  0  0
  8  4  2  0  0  0
  7  4  1  0  0  0
  7 14  1  0  0  0
 13 14  1  0  0  0
  5 12  1  0  0  0
M  END
> <minimizedAffinity>
-5.85126

$$$$
