5EIS_5OU_A_201
  RCSB PDB12061717283D
Coordinates from PDB:5EIS:A:201 Model:1 without hydrogens
 21 23  0  0  0  0            999 V2000
  -24.3850   -6.8270   77.2430   C 0  0  0  0  0  0  0  0  0  0  0  0
  -23.5160   -5.9160   77.8260   C 0  0  0  0  0  0  0  0  0  0  0  0
  -22.2810   -5.7500   77.3260   C 0  0  0  0  0  0  0  0  0  0  0  0
  -25.4180   -5.9510   78.9080   C 0  0  0  0  0  0  0  0  0  0  0  0
  -21.9470   -6.4940   76.1620   N 0  0  0  0  0  0  0  0  0  0  0  0
  -24.0260   -7.5420   76.1510   N 0  0  0  0  0  0  0  0  0  0  0  0
  -23.8360   -3.0070   79.1690   C 0  0  0  0  0  0  0  0  0  0  0  0
  -23.6640   -4.3800   79.7970   C 0  0  0  0  0  0  0  0  0  0  0  0
  -24.1870   -5.3950   78.8750   N 0  0  0  0  0  0  0  0  0  0  0  0
  -25.5590   -6.8330   77.9290   N 0  0  0  0  0  0  0  0  0  0  0  0
  -21.3590   -4.9840   77.7400   O 0  0  0  0  0  0  0  0  0  0  0  0
  -22.8470   -7.3760   75.5890   C 0  0  0  0  0  0  0  0  0  0  0  0
  -22.4350   -7.9640   74.6070   O 0  0  0  0  0  0  0  0  0  0  0  0
  -25.0290   -8.4230   75.5320   C 0  0  0  0  0  0  0  0  0  0  0  0
  -25.8260   -7.6720   74.6100   C 0  0  0  0  0  0  0  0  0  0  0  0
  -26.9960   -7.0400   75.0140   C 0  0  0  0  0  0  0  0  0  0  0  0
  -27.7240   -6.2960   74.0890   C 0  0  0  0  0  0  0  0  0  0  0  0
  -27.3410   -6.1140   72.7820   C 0  0  0  0  0  0  0  0  0  0  0  0
  -28.3810   -5.1370   71.6230  Cl 0  0  0  0  0  0  0  0  0  0  0  0
  -26.1610   -6.7120   72.3650   C 0  0  0  0  0  0  0  0  0  0  0  0
  -25.3920   -7.4850   73.2920   C 0  0  0  0  0  0  0  0  0  0  0  0
 19 18  1  0  0  0  0
 20 18  2  0  0  0  0
 20 21  1  0  0  0  0
 18 17  1  0  0  0  0
 21 15  2  0  0  0  0
 17 16  2  0  0  0  0
 13 12  2  0  0  0  0
 15 16  1  0  0  0  0
 15 14  1  0  0  0  0
 14  6  1  0  0  0  0
 12  6  1  0  0  0  0
 12  5  1  0  0  0  0
  6  1  1  0  0  0  0
  5  3  1  0  0  0  0
  1  2  2  0  0  0  0
  1 10  1  0  0  0  0
  3 11  2  0  0  0  0
  3  2  1  0  0  0  0
  2  9  1  0  0  0  0
 10  4  2  0  0  0  0
  9  4  1  0  0  0  0
  9  8  1  0  0  0  0
  7  8  1  0  0  0  0
A    1
C4
A    2
C5
A    3
C6
A    4
C8
A    5
N1
A    6
N3
A    7
CAU
A    8
CAT
A    9
N7
A   10
N9
A   11
O6
A   12
C2
A   13
O2
A   14
CAI
A   15
CAJ
A   16
CAK
A   17
CAL
A   18
CAM
A   19
CL
A   20
CAN
A   21
CAO
M  END
>  <InstanceId>
5EIS_5OU_A_201

>  <ChemCompId>
5OU

>  <PdbId>
5EIS

>  <ChainId>
A

>  <ResidueNumber>
201

>  <InsertionCode>


>  <Model>
1

>  <AltIds>


>  <MissingHeavyAtoms>
0

>  <ObservedFormula>
C14 N4 O2 Cl

>  <Name>
3-[(4-chlorophenyl)methyl]-7-ethyl-purine-2,6-dione

>  <SystematicName>
3-[(4-chlorophenyl)methyl]-7-ethyl-purine-2,6-dione

>  <Synonyms>


>  <Type>
NON-POLYMER

>  <Formula>
C14 H13 Cl N4 O2

>  <MolecularWeight>
304.732

>  <ModifiedDate>
2016-01-15

>  <Parent>


>  <OneLetterCode>


>  <SubcomponentList>


>  <AmbiguousFlag>
N

>  <InChI>
InChI=1S/C14H13ClN4O2/c1-2-18-8-16-12-11(18)13(20)17-14(21)19(12)7-9-3-5-10(15)6-4-9/h3-6,8H,2,7H2,1H3,(H,17,20,21)

>  <InChIKey>
ZUHFEYWVQFKDLX-UHFFFAOYSA-N

>  <SMILES>
CCn1cnc2c1C(=O)NC(=O)N2Cc3ccc(cc3)Cl

$$$$
