3UPK_UD1_A_427


 48 50  0  0  0  0  0  0  0  0999 V2000
   85.1662    1.7676  129.6165 P   0  0  0  0  0  0  0  0  0  0  0  0
   86.5703    1.8860  129.9711 O   0  0  0  0  0  0  0  0  0  0  0  0
   84.1838    1.7661  130.7188 O   0  0  0  0  0  0  0  0  0  0  0  0
   84.4290    1.0898  131.3695 H   0  0  0  0  0  0  0  0  0  0  0  0
   84.9142    0.5025  128.6603 O   0  0  0  0  0  0  0  0  0  0  0  0
   85.8213   -0.6134  128.6547 C   0  0  0  0  0  0  0  0  0  0  0  0
   85.5734   -2.1371  125.6062 C   0  0  0  0  0  0  0  0  0  0  0  0
   86.8928   -2.6088  126.2612 C   0  0  0  0  0  0  0  0  0  0  0  0
   87.3481   -3.7595  125.5882 O   0  0  0  0  0  0  0  0  0  0  0  0
   86.3846   -2.9456  127.6794 C   0  0  0  0  0  0  0  0  0  0  0  0
   85.2800   -1.8567  127.8780 C   0  0  0  0  0  0  0  0  0  0  0  0
   84.8523   -1.4398  126.5814 O   0  0  0  0  0  0  0  0  0  0  0  0
   85.7146   -4.2295  127.7550 O   0  0  0  0  0  0  0  0  0  0  0  0
   86.6432   -4.4257  125.5737 H   0  0  0  0  0  0  0  0  0  0  0  0
   84.9763   -4.2464  127.1261 H   0  0  0  0  0  0  0  0  0  0  0  0
   85.8754   -1.2440  124.4317 N   0  0  0  0  0  0  0  0  0  0  0  0
   84.8507   -1.0910  123.3884 C   0  0  0  0  0  0  0  0  0  0  0  0
   85.2218   -0.2361  122.3100 N   0  0  0  0  0  0  0  0  0  0  0  0
   86.4983    0.4745  122.1693 C   0  0  0  0  0  0  0  0  0  0  0  0
   87.5057    0.2886  123.2527 C   0  0  0  0  0  0  0  0  0  0  0  0
   87.1649   -0.5379  124.3051 C   0  0  0  0  0  0  0  0  0  0  0  0
   83.7431   -1.6384  123.3962 O   0  0  0  0  0  0  0  0  0  0  0  0
   86.6876    1.1782  121.1863 O   0  0  0  0  0  0  0  0  0  0  0  0
   84.5598   -0.1105  121.5922 H   0  0  0  0  0  0  0  0  0  0  0  0
   84.6811    2.8848  128.6312 O   0  0  0  0  0  0  0  0  0  0  0  0
   83.3407    3.7252  128.4464 P   0  0  0  0  0  0  0  0  0  0  0  0
   83.4414    4.8285  129.3631 O   0  0  0  0  0  0  0  0  0  0  0  0
   82.2286    2.8405  128.6970 O   0  0  0  0  0  0  0  0  0  0  0  0
   82.2293    2.1263  128.0407 H   0  0  0  0  0  0  0  0  0  0  0  0
   83.2496    4.4166  127.0136 O   0  0  0  0  0  0  0  0  0  0  0  0
   84.2180    5.3066  126.4949 C   0  0  0  0  0  0  0  0  0  0  0  0
   83.3456    6.5325  126.0117 C   0  0  0  0  0  0  0  0  0  0  0  0
   82.4403    6.1285  124.8004 C   0  0  0  0  0  0  0  0  0  0  0  0
   83.3757    5.6824  123.6562 C   0  0  0  0  0  0  0  0  0  0  0  0
   84.2317    4.4015  124.1553 C   0  0  0  0  0  0  0  0  0  0  0  0
   81.6886    7.2729  124.3988 O   0  0  0  0  0  0  0  0  0  0  0  0
   82.6551    5.2909  122.5342 O   0  0  0  0  0  0  0  0  0  0  0  0
   85.0128    4.8035  125.3882 O   0  0  0  0  0  0  0  0  0  0  0  0
   82.2954    7.9930  124.1663 H   0  0  0  0  0  0  0  0  0  0  0  0
   82.0838    4.5409  122.7624 H   0  0  0  0  0  0  0  0  0  0  0  0
   82.8580    7.9863  128.0211 C   0  0  0  0  0  0  0  0  0  0  0  0
   81.9001    8.3038  129.1524 C   0  0  0  0  0  0  0  0  0  0  0  0
   82.5183    6.9850  127.1858 N   0  0  0  0  0  0  0  0  0  0  0  0
   83.8968    8.6143  127.8670 O   0  0  0  0  0  0  0  0  0  0  0  0
   81.6694    6.5162  127.3551 H   0  0  0  0  0  0  0  0  0  0  0  0
   85.2180    3.8917  123.0901 C   0  0  0  0  0  0  0  0  0  0  0  0
   84.5016    3.0318  122.2100 O   0  0  0  0  0  0  0  0  0  0  0  0
   84.1248    2.2940  122.7145 H   0  0  0  0  0  0  0  0  0  0  0  0
 31 32  1  0  0  0
 31 30  1  0  0  0
 31 38  1  0  0  0
 32 33  1  0  0  0
 32 43  1  0  0  0
 33 34  1  0  0  0
 33 36  1  0  0  0
 34 35  1  0  0  0
 34 37  1  0  0  0
 35 46  1  0  0  0
 35 38  1  0  0  0
 46 47  1  0  0  0
 41 42  1  0  0  0
 41 43  1  0  0  0
 41 44  2  0  0  0
 30 26  1  0  0  0
 16 17  1  0  0  0
 16 21  1  0  0  0
 16  7  1  0  0  0
 17 18  1  0  0  0
 17 22  2  0  0  0
 18 19  1  0  0  0
 19 20  1  0  0  0
 19 23  2  0  0  0
 20 21  2  0  0  0
  7  8  1  0  0  0
  7 12  1  0  0  0
  8  9  1  0  0  0
  8 10  1  0  0  0
 10 11  1  0  0  0
 10 13  1  0  0  0
 11 12  1  0  0  0
 11  6  1  0  0  0
  6  5  1  0  0  0
  5  1  1  0  0  0
  1  2  2  0  0  0
  1  3  1  0  0  0
  1 25  1  0  0  0
 25 26  1  0  0  0
 26 27  2  0  0  0
 26 28  1  0  0  0
 43 45  1  0  0  0
 36 39  1  0  0  0
 37 40  1  0  0  0
 47 48  1  0  0  0
 18 24  1  0  0  0
  9 14  1  0  0  0
 13 15  1  0  0  0
  3  4  1  0  0  0
 28 29  1  0  0  0
M  END
> <minimizedAffinity>
-10.32092

$$$$
3UPK_UD1_A_427


 48 50  0  0  0  0  0  0  0  0999 V2000
   83.7449   -1.9829  120.7733 P   0  0  0  0  0  0  0  0  0  0  0  0
   84.6804   -2.1416  119.6728 O   0  0  0  0  0  0  0  0  0  0  0  0
   82.8699   -3.1284  121.0930 O   0  0  0  0  0  0  0  0  0  0  0  0
   82.4065   -3.4152  120.2906 H   0  0  0  0  0  0  0  0  0  0  0  0
   82.8605   -0.6545  120.5957 O   0  0  0  0  0  0  0  0  0  0  0  0
   81.9903   -0.4908  119.4625 C   0  0  0  0  0  0  0  0  0  0  0  0
   84.0545    2.2069  119.0910 C   0  0  0  0  0  0  0  0  0  0  0  0
   84.7128    1.0087  118.3676 C   0  0  0  0  0  0  0  0  0  0  0  0
   85.7108    1.4941  117.5001 O   0  0  0  0  0  0  0  0  0  0  0  0
   83.4978    0.4649  117.5858 C   0  0  0  0  0  0  0  0  0  0  0  0
   82.3317    0.7571  118.5858 C   0  0  0  0  0  0  0  0  0  0  0  0
   82.7568    1.8185  119.4405 O   0  0  0  0  0  0  0  0  0  0  0  0
   83.2080    1.2224  116.3837 O   0  0  0  0  0  0  0  0  0  0  0  0
   85.3290    2.1625  116.9098 H   0  0  0  0  0  0  0  0  0  0  0  0
   83.0632    2.1532  116.6150 H   0  0  0  0  0  0  0  0  0  0  0  0
   84.8495    2.5629  120.3196 N   0  0  0  0  0  0  0  0  0  0  0  0
   84.8013    3.9498  120.8057 C   0  0  0  0  0  0  0  0  0  0  0  0
   85.5885    4.2016  121.9668 N   0  0  0  0  0  0  0  0  0  0  0  0
   86.4099    3.2197  122.6846 C   0  0  0  0  0  0  0  0  0  0  0  0
   86.4267    1.8262  122.1544 C   0  0  0  0  0  0  0  0  0  0  0  0
   85.6715    1.5634  121.0286 C   0  0  0  0  0  0  0  0  0  0  0  0
   84.1495    4.8615  120.2856 O   0  0  0  0  0  0  0  0  0  0  0  0
   87.0411    3.5730  123.6717 O   0  0  0  0  0  0  0  0  0  0  0  0
   85.5807    5.1204  122.3204 H   0  0  0  0  0  0  0  0  0  0  0  0
   84.4394   -1.6024  122.1251 O   0  0  0  0  0  0  0  0  0  0  0  0
   83.9349   -1.2041  123.5824 P   0  0  0  0  0  0  0  0  0  0  0  0
   82.8071   -2.0544  123.8517 O   0  0  0  0  0  0  0  0  0  0  0  0
   83.6301    0.2064  123.5722 O   0  0  0  0  0  0  0  0  0  0  0  0
   84.4375    0.7103  123.3847 H   0  0  0  0  0  0  0  0  0  0  0  0
   84.9888   -1.5846  124.7154 O   0  0  0  0  0  0  0  0  0  0  0  0
   86.0229   -0.7300  125.1617 C   0  0  0  0  0  0  0  0  0  0  0  0
   86.9829   -1.7160  125.9388 C   0  0  0  0  0  0  0  0  0  0  0  0
   86.2903   -2.2641  127.2310 C   0  0  0  0  0  0  0  0  0  0  0  0
   85.9661   -1.0507  128.1287 C   0  0  0  0  0  0  0  0  0  0  0  0
   84.9504   -0.0726  127.3321 C   0  0  0  0  0  0  0  0  0  0  0  0
   87.2042   -3.1341  127.8971 O   0  0  0  0  0  0  0  0  0  0  0  0
   85.3336   -1.4417  129.3027 O   0  0  0  0  0  0  0  0  0  0  0  0
   85.6156    0.3524  126.0403 O   0  0  0  0  0  0  0  0  0  0  0  0
   88.0179   -2.6493  128.1065 H   0  0  0  0  0  0  0  0  0  0  0  0
   84.4984   -1.8856  129.0877 H   0  0  0  0  0  0  0  0  0  0  0  0
   88.5288   -2.9603  124.3733 C   0  0  0  0  0  0  0  0  0  0  0  0
   88.7096   -4.1517  123.4535 C   0  0  0  0  0  0  0  0  0  0  0  0
   87.3395   -2.8328  124.9937 N   0  0  0  0  0  0  0  0  0  0  0  0
   89.4257   -2.1470  124.5508 O   0  0  0  0  0  0  0  0  0  0  0  0
   86.6553   -3.5183  124.8167 H   0  0  0  0  0  0  0  0  0  0  0  0
   84.5821    1.1867  128.1358 C   0  0  0  0  0  0  0  0  0  0  0  0
   85.6365    1.4373  129.0592 O   0  0  0  0  0  0  0  0  0  0  0  0
   85.7423    0.6712  129.6448 H   0  0  0  0  0  0  0  0  0  0  0  0
 31 32  1  0  0  0
 31 30  1  0  0  0
 31 38  1  0  0  0
 32 33  1  0  0  0
 32 43  1  0  0  0
 33 34  1  0  0  0
 33 36  1  0  0  0
 34 35  1  0  0  0
 34 37  1  0  0  0
 35 46  1  0  0  0
 35 38  1  0  0  0
 46 47  1  0  0  0
 41 42  1  0  0  0
 41 43  1  0  0  0
 41 44  2  0  0  0
 30 26  1  0  0  0
 16 17  1  0  0  0
 16 21  1  0  0  0
 16  7  1  0  0  0
 17 18  1  0  0  0
 17 22  2  0  0  0
 18 19  1  0  0  0
 19 20  1  0  0  0
 19 23  2  0  0  0
 20 21  2  0  0  0
  7  8  1  0  0  0
  7 12  1  0  0  0
  8  9  1  0  0  0
  8 10  1  0  0  0
 10 11  1  0  0  0
 10 13  1  0  0  0
 11 12  1  0  0  0
 11  6  1  0  0  0
  6  5  1  0  0  0
  5  1  1  0  0  0
  1  2  2  0  0  0
  1  3  1  0  0  0
  1 25  1  0  0  0
 25 26  1  0  0  0
 26 27  2  0  0  0
 26 28  1  0  0  0
 43 45  1  0  0  0
 36 39  1  0  0  0
 37 40  1  0  0  0
 47 48  1  0  0  0
 18 24  1  0  0  0
  9 14  1  0  0  0
 13 15  1  0  0  0
  3  4  1  0  0  0
 28 29  1  0  0  0
M  END
> <minimizedAffinity>
-10.25292

$$$$
3UPK_UD1_A_427


 48 50  0  0  0  0  0  0  0  0999 V2000
   84.9393    2.0025  127.8514 P   0  0  0  0  0  0  0  0  0  0  0  0
   85.1104    3.1245  128.7587 O   0  0  0  0  0  0  0  0  0  0  0  0
   83.5588    1.5661  127.5618 O   0  0  0  0  0  0  0  0  0  0  0  0
   83.0891    1.4051  128.3951 H   0  0  0  0  0  0  0  0  0  0  0  0
   85.8234    0.7438  128.3125 O   0  0  0  0  0  0  0  0  0  0  0  0
   85.3277   -0.1922  129.2851 C   0  0  0  0  0  0  0  0  0  0  0  0
   85.4116   -2.1723  126.5015 C   0  0  0  0  0  0  0  0  0  0  0  0
   86.7002   -2.4465  127.3119 C   0  0  0  0  0  0  0  0  0  0  0  0
   87.2738   -3.6509  126.8597 O   0  0  0  0  0  0  0  0  0  0  0  0
   86.1017   -2.5999  128.7266 C   0  0  0  0  0  0  0  0  0  0  0  0
   84.9232   -1.5733  128.6759 C   0  0  0  0  0  0  0  0  0  0  0  0
   84.5761   -1.3879  127.3037 O   0  0  0  0  0  0  0  0  0  0  0  0
   85.5038   -3.9012  128.9546 O   0  0  0  0  0  0  0  0  0  0  0  0
   86.6124   -4.3593  126.9003 H   0  0  0  0  0  0  0  0  0  0  0  0
   84.8200   -4.0645  128.2863 H   0  0  0  0  0  0  0  0  0  0  0  0
   85.7533   -1.4480  125.2261 N   0  0  0  0  0  0  0  0  0  0  0  0
   84.7307   -1.3677  124.1725 C   0  0  0  0  0  0  0  0  0  0  0  0
   85.1399   -0.6733  122.9971 N   0  0  0  0  0  0  0  0  0  0  0  0
   86.4523   -0.0567  122.7693 C   0  0  0  0  0  0  0  0  0  0  0  0
   87.4560   -0.1636  123.8667 C   0  0  0  0  0  0  0  0  0  0  0  0
   87.0784   -0.8348  125.0128 C   0  0  0  0  0  0  0  0  0  0  0  0
   83.5950   -1.8482  124.2482 O   0  0  0  0  0  0  0  0  0  0  0  0
   86.6724    0.5098  121.7072 O   0  0  0  0  0  0  0  0  0  0  0  0
   84.4805   -0.6003  122.2697 H   0  0  0  0  0  0  0  0  0  0  0  0
   85.6030    2.2330  126.4511 O   0  0  0  0  0  0  0  0  0  0  0  0
   85.1566    2.9276  125.0891 P   0  0  0  0  0  0  0  0  0  0  0  0
   84.1862    2.0452  124.4998 O   0  0  0  0  0  0  0  0  0  0  0  0
   86.3410    3.1313  124.2903 O   0  0  0  0  0  0  0  0  0  0  0  0
   86.9432    3.7348  124.7530 H   0  0  0  0  0  0  0  0  0  0  0  0
   84.3536    4.2824  125.3325 O   0  0  0  0  0  0  0  0  0  0  0  0
   82.9437    4.3866  125.3199 C   0  0  0  0  0  0  0  0  0  0  0  0
   82.7043    5.8498  124.7730 C   0  0  0  0  0  0  0  0  0  0  0  0
   83.2053    6.9177  125.8019 C   0  0  0  0  0  0  0  0  0  0  0  0
   82.3972    6.7179  127.1019 C   0  0  0  0  0  0  0  0  0  0  0  0
   82.6863    5.2287  127.6689 C   0  0  0  0  0  0  0  0  0  0  0  0
   82.9522    8.2147  125.2639 O   0  0  0  0  0  0  0  0  0  0  0  0
   82.7845    7.6208  128.0849 O   0  0  0  0  0  0  0  0  0  0  0  0
   82.2852    4.2293  126.6049 O   0  0  0  0  0  0  0  0  0  0  0  0
   82.0040    8.3105  125.0833 H   0  0  0  0  0  0  0  0  0  0  0  0
   83.7226    7.4891  128.2933 H   0  0  0  0  0  0  0  0  0  0  0  0
   82.8723    5.8072  122.2513 C   0  0  0  0  0  0  0  0  0  0  0  0
   83.7694    5.9594  121.0387 C   0  0  0  0  0  0  0  0  0  0  0  0
   83.4390    5.9651  123.4635 N   0  0  0  0  0  0  0  0  0  0  0  0
   81.6803    5.5550  122.1378 O   0  0  0  0  0  0  0  0  0  0  0  0
   84.4013    6.1704  123.4954 H   0  0  0  0  0  0  0  0  0  0  0  0
   81.9044    4.9191  128.9574 C   0  0  0  0  0  0  0  0  0  0  0  0
   82.0933    3.5408  129.2603 O   0  0  0  0  0  0  0  0  0  0  0  0
   81.7718    3.0004  128.5218 H   0  0  0  0  0  0  0  0  0  0  0  0
 31 32  1  0  0  0
 31 30  1  0  0  0
 31 38  1  0  0  0
 32 33  1  0  0  0
 32 43  1  0  0  0
 33 34  1  0  0  0
 33 36  1  0  0  0
 34 35  1  0  0  0
 34 37  1  0  0  0
 35 46  1  0  0  0
 35 38  1  0  0  0
 46 47  1  0  0  0
 41 42  1  0  0  0
 41 43  1  0  0  0
 41 44  2  0  0  0
 30 26  1  0  0  0
 16 17  1  0  0  0
 16 21  1  0  0  0
 16  7  1  0  0  0
 17 18  1  0  0  0
 17 22  2  0  0  0
 18 19  1  0  0  0
 19 20  1  0  0  0
 19 23  2  0  0  0
 20 21  2  0  0  0
  7  8  1  0  0  0
  7 12  1  0  0  0
  8  9  1  0  0  0
  8 10  1  0  0  0
 10 11  1  0  0  0
 10 13  1  0  0  0
 11 12  1  0  0  0
 11  6  1  0  0  0
  6  5  1  0  0  0
  5  1  1  0  0  0
  1  2  2  0  0  0
  1  3  1  0  0  0
  1 25  1  0  0  0
 25 26  1  0  0  0
 26 27  2  0  0  0
 26 28  1  0  0  0
 43 45  1  0  0  0
 36 39  1  0  0  0
 37 40  1  0  0  0
 47 48  1  0  0  0
 18 24  1  0  0  0
  9 14  1  0  0  0
 13 15  1  0  0  0
  3  4  1  0  0  0
 28 29  1  0  0  0
M  END
> <minimizedAffinity>
-10.24466

$$$$
3UPK_UD1_A_427


 48 50  0  0  0  0  0  0  0  0999 V2000
   85.7705    5.0178  122.1387 P   0  0  0  0  0  0  0  0  0  0  0  0
   86.3149    6.3642  122.0930 O   0  0  0  0  0  0  0  0  0  0  0  0
   86.4951    4.0180  122.9483 O   0  0  0  0  0  0  0  0  0  0  0  0
   87.4273    3.9996  122.6810 H   0  0  0  0  0  0  0  0  0  0  0  0
   85.5193    4.4433  120.6604 O   0  0  0  0  0  0  0  0  0  0  0  0
   84.3542    3.6553  120.3607 C   0  0  0  0  0  0  0  0  0  0  0  0
   83.3179    0.7340  118.9226 C   0  0  0  0  0  0  0  0  0  0  0  0
   84.2340    1.4578  117.9081 C   0  0  0  0  0  0  0  0  0  0  0  0
   84.6376    0.5362  116.9222 O   0  0  0  0  0  0  0  0  0  0  0  0
   85.4065    1.8475  118.8335 C   0  0  0  0  0  0  0  0  0  0  0  0
   84.6578    2.1335  120.1762 C   0  0  0  0  0  0  0  0  0  0  0  0
   83.4228    1.4185  120.1381 O   0  0  0  0  0  0  0  0  0  0  0  0
   86.3155    0.7484  119.0957 O   0  0  0  0  0  0  0  0  0  0  0  0
   85.0382   -0.2379  117.3478 H   0  0  0  0  0  0  0  0  0  0  0  0
   85.8231    0.0062  119.4798 H   0  0  0  0  0  0  0  0  0  0  0  0
   81.8953    0.7477  118.4285 N   0  0  0  0  0  0  0  0  0  0  0  0
   81.0021   -0.3456  118.8395 C   0  0  0  0  0  0  0  0  0  0  0  0
   79.6775   -0.2596  118.3204 N   0  0  0  0  0  0  0  0  0  0  0  0
   79.1595    0.7963  117.4423 C   0  0  0  0  0  0  0  0  0  0  0  0
   80.1024    1.8837  117.0531 C   0  0  0  0  0  0  0  0  0  0  0  0
   81.3910    1.8164  117.5448 C   0  0  0  0  0  0  0  0  0  0  0  0
   81.3240   -1.2874  119.5716 O   0  0  0  0  0  0  0  0  0  0  0  0
   77.9960    0.7462  117.0665 O   0  0  0  0  0  0  0  0  0  0  0  0
   79.0514   -0.9756  118.5746 H   0  0  0  0  0  0  0  0  0  0  0  0
   84.2893    4.9668  122.6463 O   0  0  0  0  0  0  0  0  0  0  0  0
   83.2126    6.0483  123.1026 P   0  0  0  0  0  0  0  0  0  0  0  0
   81.9403    5.5431  122.6629 O   0  0  0  0  0  0  0  0  0  0  0  0
   83.5862    7.3142  122.5193 O   0  0  0  0  0  0  0  0  0  0  0  0
   84.4512    7.5863  122.8638 H   0  0  0  0  0  0  0  0  0  0  0  0
   83.0710    6.1336  124.6875 O   0  0  0  0  0  0  0  0  0  0  0  0
   84.1631    6.1972  125.5832 C   0  0  0  0  0  0  0  0  0  0  0  0
   83.8409    5.0425  126.6128 C   0  0  0  0  0  0  0  0  0  0  0  0
   82.5703    5.3893  127.4586 C   0  0  0  0  0  0  0  0  0  0  0  0
   82.8724    6.6929  128.2285 C   0  0  0  0  0  0  0  0  0  0  0  0
   83.1601    7.8731  127.1575 C   0  0  0  0  0  0  0  0  0  0  0  0
   82.3359    4.3228  128.3771 O   0  0  0  0  0  0  0  0  0  0  0  0
   81.7886    7.0881  129.0034 O   0  0  0  0  0  0  0  0  0  0  0  0
   84.3292    7.4541  126.2917 O   0  0  0  0  0  0  0  0  0  0  0  0
   83.1171    4.2028  128.9394 H   0  0  0  0  0  0  0  0  0  0  0  0
   81.0233    7.2506  128.4301 H   0  0  0  0  0  0  0  0  0  0  0  0
   84.6317    2.9393  125.4552 C   0  0  0  0  0  0  0  0  0  0  0  0
   84.2435    1.7103  124.6570 C   0  0  0  0  0  0  0  0  0  0  0  0
   83.6419    3.7774  125.8205 N   0  0  0  0  0  0  0  0  0  0  0  0
   85.7953    3.1627  125.7606 O   0  0  0  0  0  0  0  0  0  0  0  0
   82.7238    3.5464  125.5504 H   0  0  0  0  0  0  0  0  0  0  0  0
   83.4977    9.2166  127.8272 C   0  0  0  0  0  0  0  0  0  0  0  0
   82.2769    9.8020  128.2677 O   0  0  0  0  0  0  0  0  0  0  0  0
   81.6880    9.9320  127.5080 H   0  0  0  0  0  0  0  0  0  0  0  0
 31 32  1  0  0  0
 31 30  1  0  0  0
 31 38  1  0  0  0
 32 33  1  0  0  0
 32 43  1  0  0  0
 33 34  1  0  0  0
 33 36  1  0  0  0
 34 35  1  0  0  0
 34 37  1  0  0  0
 35 46  1  0  0  0
 35 38  1  0  0  0
 46 47  1  0  0  0
 41 42  1  0  0  0
 41 43  1  0  0  0
 41 44  2  0  0  0
 30 26  1  0  0  0
 16 17  1  0  0  0
 16 21  1  0  0  0
 16  7  1  0  0  0
 17 18  1  0  0  0
 17 22  2  0  0  0
 18 19  1  0  0  0
 19 20  1  0  0  0
 19 23  2  0  0  0
 20 21  2  0  0  0
  7  8  1  0  0  0
  7 12  1  0  0  0
  8  9  1  0  0  0
  8 10  1  0  0  0
 10 11  1  0  0  0
 10 13  1  0  0  0
 11 12  1  0  0  0
 11  6  1  0  0  0
  6  5  1  0  0  0
  5  1  1  0  0  0
  1  2  2  0  0  0
  1  3  1  0  0  0
  1 25  1  0  0  0
 25 26  1  0  0  0
 26 27  2  0  0  0
 26 28  1  0  0  0
 43 45  1  0  0  0
 36 39  1  0  0  0
 37 40  1  0  0  0
 47 48  1  0  0  0
 18 24  1  0  0  0
  9 14  1  0  0  0
 13 15  1  0  0  0
  3  4  1  0  0  0
 28 29  1  0  0  0
M  END
> <minimizedAffinity>
-10.23436

$$$$
3UPK_UD1_A_427


 48 50  0  0  0  0  0  0  0  0999 V2000
   85.0722    3.8930  120.5094 P   0  0  0  0  0  0  0  0  0  0  0  0
   86.2239    4.7609  120.6867 O   0  0  0  0  0  0  0  0  0  0  0  0
   83.8401    4.4996  119.9673 O   0  0  0  0  0  0  0  0  0  0  0  0
   83.6025    5.2770  120.4966 H   0  0  0  0  0  0  0  0  0  0  0  0
   84.7366    3.0916  121.8598 O   0  0  0  0  0  0  0  0  0  0  0  0
   84.9438    3.6943  123.1490 C   0  0  0  0  0  0  0  0  0  0  0  0
   83.2208    5.3087  125.6191 C   0  0  0  0  0  0  0  0  0  0  0  0
   84.5933    6.0064  125.4707 C   0  0  0  0  0  0  0  0  0  0  0  0
   84.5343    7.2642  126.1020 O   0  0  0  0  0  0  0  0  0  0  0  0
   84.6604    6.1458  123.9348 C   0  0  0  0  0  0  0  0  0  0  0  0
   83.9327    4.8405  123.4744 C   0  0  0  0  0  0  0  0  0  0  0  0
   83.0890    4.4203  124.5465 O   0  0  0  0  0  0  0  0  0  0  0  0
   83.8752    7.2548  123.4281 O   0  0  0  0  0  0  0  0  0  0  0  0
   83.7844    7.7682  125.7492 H   0  0  0  0  0  0  0  0  0  0  0  0
   82.9530    7.1540  123.7115 H   0  0  0  0  0  0  0  0  0  0  0  0
   83.1615    4.5689  126.9295 N   0  0  0  0  0  0  0  0  0  0  0  0
   82.7946    5.3191  128.1397 C   0  0  0  0  0  0  0  0  0  0  0  0
   82.7712    4.5450  129.3362 N   0  0  0  0  0  0  0  0  0  0  0  0
   83.0731    3.1129  129.4459 C   0  0  0  0  0  0  0  0  0  0  0  0
   83.4395    2.3948  128.1916 C   0  0  0  0  0  0  0  0  0  0  0  0
   83.4696    3.1288  127.0224 C   0  0  0  0  0  0  0  0  0  0  0  0
   82.5220    6.5238  128.1721 O   0  0  0  0  0  0  0  0  0  0  0  0
   83.0168    2.5704  130.5413 O   0  0  0  0  0  0  0  0  0  0  0  0
   82.5299    5.0150  130.1669 H   0  0  0  0  0  0  0  0  0  0  0  0
   85.3644    2.6580  119.5908 O   0  0  0  0  0  0  0  0  0  0  0  0
   84.5586    1.8707  118.4648 P   0  0  0  0  0  0  0  0  0  0  0  0
   85.5538    1.3080  117.5928 O   0  0  0  0  0  0  0  0  0  0  0  0
   83.6662    2.8077  117.8260 O   0  0  0  0  0  0  0  0  0  0  0  0
   83.0279    3.1409  118.4760 H   0  0  0  0  0  0  0  0  0  0  0  0
   83.7867    0.6027  119.0441 O   0  0  0  0  0  0  0  0  0  0  0  0
   83.0513    0.6002  120.2517 C   0  0  0  0  0  0  0  0  0  0  0  0
   83.9165   -0.3336  121.1881 C   0  0  0  0  0  0  0  0  0  0  0  0
   83.8988   -1.8108  120.6709 C   0  0  0  0  0  0  0  0  0  0  0  0
   82.4303   -2.2864  120.6884 C   0  0  0  0  0  0  0  0  0  0  0  0
   81.5678   -1.3441  119.6931 C   0  0  0  0  0  0  0  0  0  0  0  0
   84.6811   -2.6081  121.5587 O   0  0  0  0  0  0  0  0  0  0  0  0
   82.3139   -3.5933  120.2303 O   0  0  0  0  0  0  0  0  0  0  0  0
   81.6948    0.0883  120.1664 O   0  0  0  0  0  0  0  0  0  0  0  0
   84.3209   -2.5401  122.4568 H   0  0  0  0  0  0  0  0  0  0  0  0
   82.6336   -3.6451  119.3160 H   0  0  0  0  0  0  0  0  0  0  0  0
   86.1259    0.2203  122.2839 C   0  0  0  0  0  0  0  0  0  0  0  0
   87.5057    0.8256  122.1177 C   0  0  0  0  0  0  0  0  0  0  0  0
   85.3158    0.2226  121.2072 N   0  0  0  0  0  0  0  0  0  0  0  0
   85.7601   -0.2557  123.3502 O   0  0  0  0  0  0  0  0  0  0  0  0
   85.6632    0.6156  120.3741 H   0  0  0  0  0  0  0  0  0  0  0  0
   80.0767   -1.7221  119.6571 C   0  0  0  0  0  0  0  0  0  0  0  0
   79.7970   -2.4997  120.8164 O   0  0  0  0  0  0  0  0  0  0  0  0
   80.3556   -3.2928  120.8163 H   0  0  0  0  0  0  0  0  0  0  0  0
 31 32  1  0  0  0
 31 30  1  0  0  0
 31 38  1  0  0  0
 32 33  1  0  0  0
 32 43  1  0  0  0
 33 34  1  0  0  0
 33 36  1  0  0  0
 34 35  1  0  0  0
 34 37  1  0  0  0
 35 46  1  0  0  0
 35 38  1  0  0  0
 46 47  1  0  0  0
 41 42  1  0  0  0
 41 43  1  0  0  0
 41 44  2  0  0  0
 30 26  1  0  0  0
 16 17  1  0  0  0
 16 21  1  0  0  0
 16  7  1  0  0  0
 17 18  1  0  0  0
 17 22  2  0  0  0
 18 19  1  0  0  0
 19 20  1  0  0  0
 19 23  2  0  0  0
 20 21  2  0  0  0
  7  8  1  0  0  0
  7 12  1  0  0  0
  8  9  1  0  0  0
  8 10  1  0  0  0
 10 11  1  0  0  0
 10 13  1  0  0  0
 11 12  1  0  0  0
 11  6  1  0  0  0
  6  5  1  0  0  0
  5  1  1  0  0  0
  1  2  2  0  0  0
  1  3  1  0  0  0
  1 25  1  0  0  0
 25 26  1  0  0  0
 26 27  2  0  0  0
 26 28  1  0  0  0
 43 45  1  0  0  0
 36 39  1  0  0  0
 37 40  1  0  0  0
 47 48  1  0  0  0
 18 24  1  0  0  0
  9 14  1  0  0  0
 13 15  1  0  0  0
  3  4  1  0  0  0
 28 29  1  0  0  0
M  END
> <minimizedAffinity>
-10.17641

$$$$
3UPK_UD1_A_427


 48 50  0  0  0  0  0  0  0  0999 V2000
   84.3849    4.8197  122.2677 P   0  0  0  0  0  0  0  0  0  0  0  0
   82.9963    5.2113  122.0960 O   0  0  0  0  0  0  0  0  0  0  0  0
   85.2893    5.7879  122.9195 O   0  0  0  0  0  0  0  0  0  0  0  0
   85.2301    6.6426  122.4646 H   0  0  0  0  0  0  0  0  0  0  0  0
   85.0241    4.3259  120.8799 O   0  0  0  0  0  0  0  0  0  0  0  0
   84.2248    3.6442  119.8980 C   0  0  0  0  0  0  0  0  0  0  0  0
   82.9695    0.6444  118.8483 C   0  0  0  0  0  0  0  0  0  0  0  0
   83.8876    1.1872  117.7281 C   0  0  0  0  0  0  0  0  0  0  0  0
   84.2007    0.1338  116.8469 O   0  0  0  0  0  0  0  0  0  0  0  0
   85.1140    1.6092  118.5653 C   0  0  0  0  0  0  0  0  0  0  0  0
   84.4331    2.0954  119.8864 C   0  0  0  0  0  0  0  0  0  0  0  0
   83.1585    1.4582  119.9703 O   0  0  0  0  0  0  0  0  0  0  0  0
   85.9672    0.4943  118.9287 O   0  0  0  0  0  0  0  0  0  0  0  0
   84.5715   -0.6086  117.3492 H   0  0  0  0  0  0  0  0  0  0  0  0
   85.4474   -0.1663  119.4127 H   0  0  0  0  0  0  0  0  0  0  0  0
   81.5327    0.6879  118.3988 N   0  0  0  0  0  0  0  0  0  0  0  0
   80.6586   -0.4437  118.7416 C   0  0  0  0  0  0  0  0  0  0  0  0
   79.3187   -0.3252  118.2705 N   0  0  0  0  0  0  0  0  0  0  0  0
   78.7685    0.7968  117.5006 C   0  0  0  0  0  0  0  0  0  0  0  0
   79.6930    1.9211  117.1776 C   0  0  0  0  0  0  0  0  0  0  0  0
   80.9960    1.8233  117.6240 C   0  0  0  0  0  0  0  0  0  0  0  0
   81.0077   -1.4413  119.3814 O   0  0  0  0  0  0  0  0  0  0  0  0
   77.5946    0.7690  117.1559 O   0  0  0  0  0  0  0  0  0  0  0  0
   78.7046   -1.0653  118.4812 H   0  0  0  0  0  0  0  0  0  0  0  0
   84.5564    3.4865  123.0725 O   0  0  0  0  0  0  0  0  0  0  0  0
   85.7871    2.5585  123.4737 P   0  0  0  0  0  0  0  0  0  0  0  0
   86.1900    2.9887  124.7853 O   0  0  0  0  0  0  0  0  0  0  0  0
   86.8012    2.7092  122.4583 O   0  0  0  0  0  0  0  0  0  0  0  0
   86.4550    2.3990  121.6069 H   0  0  0  0  0  0  0  0  0  0  0  0
   85.3598    1.0369  123.6773 O   0  0  0  0  0  0  0  0  0  0  0  0
   85.8428   -0.0381  122.8962 C   0  0  0  0  0  0  0  0  0  0  0  0
   85.0686   -1.2806  123.4913 C   0  0  0  0  0  0  0  0  0  0  0  0
   85.5299   -1.5736  124.9581 C   0  0  0  0  0  0  0  0  0  0  0  0
   87.0410   -1.8858  124.9110 C   0  0  0  0  0  0  0  0  0  0  0  0
   87.8214   -0.5879  124.3371 C   0  0  0  0  0  0  0  0  0  0  0  0
   84.8112   -2.7091  125.4377 O   0  0  0  0  0  0  0  0  0  0  0  0
   87.5453   -2.1486  126.1790 O   0  0  0  0  0  0  0  0  0  0  0  0
   87.2743   -0.2751  122.9606 O   0  0  0  0  0  0  0  0  0  0  0  0
   84.9757   -3.4661  124.8539 H   0  0  0  0  0  0  0  0  0  0  0  0
   87.4186   -1.3711  126.7450 H   0  0  0  0  0  0  0  0  0  0  0  0
   82.7231   -1.5366  122.5846 C   0  0  0  0  0  0  0  0  0  0  0  0
   81.2767   -1.0907  122.6692 C   0  0  0  0  0  0  0  0  0  0  0  0
   83.5979   -0.9625  123.4337 N   0  0  0  0  0  0  0  0  0  0  0  0
   83.0850   -2.3862  121.7818 O   0  0  0  0  0  0  0  0  0  0  0  0
   83.2509   -0.2874  124.0607 H   0  0  0  0  0  0  0  0  0  0  0  0
   89.3405   -0.8059  124.2273 C   0  0  0  0  0  0  0  0  0  0  0  0
   89.5901   -2.2018  124.3557 O   0  0  0  0  0  0  0  0  0  0  0  0
   89.2566   -2.5124  125.2119 H   0  0  0  0  0  0  0  0  0  0  0  0
 31 32  1  0  0  0
 31 30  1  0  0  0
 31 38  1  0  0  0
 32 33  1  0  0  0
 32 43  1  0  0  0
 33 34  1  0  0  0
 33 36  1  0  0  0
 34 35  1  0  0  0
 34 37  1  0  0  0
 35 46  1  0  0  0
 35 38  1  0  0  0
 46 47  1  0  0  0
 41 42  1  0  0  0
 41 43  1  0  0  0
 41 44  2  0  0  0
 30 26  1  0  0  0
 16 17  1  0  0  0
 16 21  1  0  0  0
 16  7  1  0  0  0
 17 18  1  0  0  0
 17 22  2  0  0  0
 18 19  1  0  0  0
 19 20  1  0  0  0
 19 23  2  0  0  0
 20 21  2  0  0  0
  7  8  1  0  0  0
  7 12  1  0  0  0
  8  9  1  0  0  0
  8 10  1  0  0  0
 10 11  1  0  0  0
 10 13  1  0  0  0
 11 12  1  0  0  0
 11  6  1  0  0  0
  6  5  1  0  0  0
  5  1  1  0  0  0
  1  2  2  0  0  0
  1  3  1  0  0  0
  1 25  1  0  0  0
 25 26  1  0  0  0
 26 27  2  0  0  0
 26 28  1  0  0  0
 43 45  1  0  0  0
 36 39  1  0  0  0
 37 40  1  0  0  0
 47 48  1  0  0  0
 18 24  1  0  0  0
  9 14  1  0  0  0
 13 15  1  0  0  0
  3  4  1  0  0  0
 28 29  1  0  0  0
M  END
> <minimizedAffinity>
-10.15595

$$$$
3UPK_UD1_A_427


 48 50  0  0  0  0  0  0  0  0999 V2000
   85.9168    2.8175  123.1077 P   0  0  0  0  0  0  0  0  0  0  0  0
   87.1142    2.0464  122.8200 O   0  0  0  0  0  0  0  0  0  0  0  0
   84.6142    2.1523  122.9051 O   0  0  0  0  0  0  0  0  0  0  0  0
   84.5752    1.7842  122.0085 H   0  0  0  0  0  0  0  0  0  0  0  0
   85.9350    4.2262  122.3372 O   0  0  0  0  0  0  0  0  0  0  0  0
   85.2626    5.3755  122.8803 C   0  0  0  0  0  0  0  0  0  0  0  0
   82.1697    5.7740  124.2771 C   0  0  0  0  0  0  0  0  0  0  0  0
   82.6668    7.1691  123.8310 C   0  0  0  0  0  0  0  0  0  0  0  0
   81.5696    8.0517  123.7927 O   0  0  0  0  0  0  0  0  0  0  0  0
   83.1740    6.8337  122.4121 C   0  0  0  0  0  0  0  0  0  0  0  0
   83.7226    5.3835  122.6153 C   0  0  0  0  0  0  0  0  0  0  0  0
   83.0567    4.8294  123.7500 O   0  0  0  0  0  0  0  0  0  0  0  0
   82.1080    6.7367  121.4337 O   0  0  0  0  0  0  0  0  0  0  0  0
   80.8706    7.6746  123.2360 H   0  0  0  0  0  0  0  0  0  0  0  0
   81.4647    6.0702  121.7214 H   0  0  0  0  0  0  0  0  0  0  0  0
   82.1453    5.6959  125.7809 N   0  0  0  0  0  0  0  0  0  0  0  0
   83.3142    6.1872  126.5254 C   0  0  0  0  0  0  0  0  0  0  0  0
   83.2114    6.0679  127.9419 N   0  0  0  0  0  0  0  0  0  0  0  0
   82.0717    5.5143  128.6828 C   0  0  0  0  0  0  0  0  0  0  0  0
   80.9095    5.0293  127.8846 C   0  0  0  0  0  0  0  0  0  0  0  0
   80.9917    5.1348  126.5102 C   0  0  0  0  0  0  0  0  0  0  0  0
   84.3294    6.6707  126.0133 O   0  0  0  0  0  0  0  0  0  0  0  0
   82.1160    5.4691  129.9049 O   0  0  0  0  0  0  0  0  0  0  0  0
   83.9765    6.3867  128.4731 H   0  0  0  0  0  0  0  0  0  0  0  0
   85.8752    3.3715  124.5725 O   0  0  0  0  0  0  0  0  0  0  0  0
   85.1739    2.9242  125.9309 P   0  0  0  0  0  0  0  0  0  0  0  0
   83.7639    2.8919  125.6509 O   0  0  0  0  0  0  0  0  0  0  0  0
   85.5578    3.8657  126.9550 O   0  0  0  0  0  0  0  0  0  0  0  0
   86.5182    3.8281  127.0852 H   0  0  0  0  0  0  0  0  0  0  0  0
   85.5259    1.4223  126.3307 O   0  0  0  0  0  0  0  0  0  0  0  0
   84.5989    0.3550  126.3145 C   0  0  0  0  0  0  0  0  0  0  0  0
   85.2855   -0.7211  127.2462 C   0  0  0  0  0  0  0  0  0  0  0  0
   86.5920   -1.2761  126.5867 C   0  0  0  0  0  0  0  0  0  0  0  0
   86.1877   -1.9374  125.2516 C   0  0  0  0  0  0  0  0  0  0  0  0
   85.5234   -0.8119  124.2953 C   0  0  0  0  0  0  0  0  0  0  0  0
   87.1595   -2.2497  127.4619 O   0  0  0  0  0  0  0  0  0  0  0  0
   87.2928   -2.4521  124.5843 O   0  0  0  0  0  0  0  0  0  0  0  0
   84.3251   -0.2269  125.0121 O   0  0  0  0  0  0  0  0  0  0  0  0
   86.5136   -2.9552  127.6231 H   0  0  0  0  0  0  0  0  0  0  0  0
   87.9139   -1.7340  124.3858 H   0  0  0  0  0  0  0  0  0  0  0  0
   85.5074   -0.6605  129.7634 C   0  0  0  0  0  0  0  0  0  0  0  0
   85.8385    0.1721  130.9862 C   0  0  0  0  0  0  0  0  0  0  0  0
   85.5791   -0.0523  128.5631 N   0  0  0  0  0  0  0  0  0  0  0  0
   85.1911   -1.8388  129.8580 O   0  0  0  0  0  0  0  0  0  0  0  0
   85.8421    0.8963  128.5459 H   0  0  0  0  0  0  0  0  0  0  0  0
   85.0613   -1.3774  122.9410 C   0  0  0  0  0  0  0  0  0  0  0  0
   85.6413   -0.5784  121.9153 O   0  0  0  0  0  0  0  0  0  0  0  0
   85.3553    0.3423  122.0219 H   0  0  0  0  0  0  0  0  0  0  0  0
 31 32  1  0  0  0
 31 30  1  0  0  0
 31 38  1  0  0  0
 32 33  1  0  0  0
 32 43  1  0  0  0
 33 34  1  0  0  0
 33 36  1  0  0  0
 34 35  1  0  0  0
 34 37  1  0  0  0
 35 46  1  0  0  0
 35 38  1  0  0  0
 46 47  1  0  0  0
 41 42  1  0  0  0
 41 43  1  0  0  0
 41 44  2  0  0  0
 30 26  1  0  0  0
 16 17  1  0  0  0
 16 21  1  0  0  0
 16  7  1  0  0  0
 17 18  1  0  0  0
 17 22  2  0  0  0
 18 19  1  0  0  0
 19 20  1  0  0  0
 19 23  2  0  0  0
 20 21  2  0  0  0
  7  8  1  0  0  0
  7 12  1  0  0  0
  8  9  1  0  0  0
  8 10  1  0  0  0
 10 11  1  0  0  0
 10 13  1  0  0  0
 11 12  1  0  0  0
 11  6  1  0  0  0
  6  5  1  0  0  0
  5  1  1  0  0  0
  1  2  2  0  0  0
  1  3  1  0  0  0
  1 25  1  0  0  0
 25 26  1  0  0  0
 26 27  2  0  0  0
 26 28  1  0  0  0
 43 45  1  0  0  0
 36 39  1  0  0  0
 37 40  1  0  0  0
 47 48  1  0  0  0
 18 24  1  0  0  0
  9 14  1  0  0  0
 13 15  1  0  0  0
  3  4  1  0  0  0
 28 29  1  0  0  0
M  END
> <minimizedAffinity>
-10.12179

$$$$
3UPK_UD1_A_427


 48 50  0  0  0  0  0  0  0  0999 V2000
   84.4800    2.7762  127.7108 P   0  0  0  0  0  0  0  0  0  0  0  0
   85.1332    4.0714  127.7931 O   0  0  0  0  0  0  0  0  0  0  0  0
   83.1327    2.6548  128.3026 O   0  0  0  0  0  0  0  0  0  0  0  0
   83.1532    2.9682  129.2203 H   0  0  0  0  0  0  0  0  0  0  0  0
   85.4298    1.6107  128.2746 O   0  0  0  0  0  0  0  0  0  0  0  0
   85.0684    0.8651  129.4500 C   0  0  0  0  0  0  0  0  0  0  0  0
   85.1507   -1.6701  127.1604 C   0  0  0  0  0  0  0  0  0  0  0  0
   86.4370   -1.7662  128.0140 C   0  0  0  0  0  0  0  0  0  0  0  0
   87.0076   -3.0415  127.8342 O   0  0  0  0  0  0  0  0  0  0  0  0
   85.8357   -1.6085  129.4269 C   0  0  0  0  0  0  0  0  0  0  0  0
   84.6605   -0.6139  129.1528 C   0  0  0  0  0  0  0  0  0  0  0  0
   84.3163   -0.7286  127.7721 O   0  0  0  0  0  0  0  0  0  0  0  0
   85.2332   -2.8281  129.9295 O   0  0  0  0  0  0  0  0  0  0  0  0
   86.3438   -3.7225  128.0253 H   0  0  0  0  0  0  0  0  0  0  0  0
   84.5500   -3.1301  129.3107 H   0  0  0  0  0  0  0  0  0  0  0  0
   85.4968   -1.2396  125.7594 N   0  0  0  0  0  0  0  0  0  0  0  0
   84.5585   -1.5671  124.6756 C   0  0  0  0  0  0  0  0  0  0  0  0
   84.9674   -1.1310  123.3818 N   0  0  0  0  0  0  0  0  0  0  0  0
   86.2045   -0.4082  123.0635 C   0  0  0  0  0  0  0  0  0  0  0  0
   87.1242   -0.0983  124.1954 C   0  0  0  0  0  0  0  0  0  0  0  0
   86.7459   -0.5148  125.4564 C   0  0  0  0  0  0  0  0  0  0  0  0
   83.4906   -2.1714  124.8204 O   0  0  0  0  0  0  0  0  0  0  0  0
   86.4337   -0.0941  121.9032 O   0  0  0  0  0  0  0  0  0  0  0  0
   84.3633   -1.3335  122.6313 H   0  0  0  0  0  0  0  0  0  0  0  0
   84.3363    2.2484  126.2427 O   0  0  0  0  0  0  0  0  0  0  0  0
   84.5784    2.8608  124.7924 P   0  0  0  0  0  0  0  0  0  0  0  0
   84.1244    1.8604  123.8648 O   0  0  0  0  0  0  0  0  0  0  0  0
   85.9798    3.1865  124.6807 O   0  0  0  0  0  0  0  0  0  0  0  0
   86.2074    3.8646  125.3359 H   0  0  0  0  0  0  0  0  0  0  0  0
   83.6427    4.1169  124.4992 O   0  0  0  0  0  0  0  0  0  0  0  0
   83.9963    5.4569  124.7791 C   0  0  0  0  0  0  0  0  0  0  0  0
   82.6690    6.2475  124.4461 C   0  0  0  0  0  0  0  0  0  0  0  0
   82.3598    6.1955  122.9126 C   0  0  0  0  0  0  0  0  0  0  0  0
   83.5476    6.8573  122.1816 C   0  0  0  0  0  0  0  0  0  0  0  0
   84.8906    6.0108  122.5016 C   0  0  0  0  0  0  0  0  0  0  0  0
   81.1636    6.9342  122.6692 O   0  0  0  0  0  0  0  0  0  0  0  0
   83.3662    6.8464  120.8038 O   0  0  0  0  0  0  0  0  0  0  0  0
   85.0974    5.9973  124.0013 O   0  0  0  0  0  0  0  0  0  0  0  0
   81.2779    7.8461  122.9796 H   0  0  0  0  0  0  0  0  0  0  0  0
   83.2982    5.9297  120.4939 H   0  0  0  0  0  0  0  0  0  0  0  0
   81.3504    5.8353  126.5628 C   0  0  0  0  0  0  0  0  0  0  0  0
   80.1818    5.1163  127.2075 C   0  0  0  0  0  0  0  0  0  0  0  0
   81.5600    5.6206  125.2492 N   0  0  0  0  0  0  0  0  0  0  0  0
   82.0741    6.5843  127.2052 O   0  0  0  0  0  0  0  0  0  0  0  0
   80.9447    5.0109  124.7814 H   0  0  0  0  0  0  0  0  0  0  0  0
   86.1434    6.6058  121.8354 C   0  0  0  0  0  0  0  0  0  0  0  0
   86.3481    5.9211  120.6041 O   0  0  0  0  0  0  0  0  0  0  0  0
   86.4643    4.9736  120.7764 H   0  0  0  0  0  0  0  0  0  0  0  0
 31 32  1  0  0  0
 31 30  1  0  0  0
 31 38  1  0  0  0
 32 33  1  0  0  0
 32 43  1  0  0  0
 33 34  1  0  0  0
 33 36  1  0  0  0
 34 35  1  0  0  0
 34 37  1  0  0  0
 35 46  1  0  0  0
 35 38  1  0  0  0
 46 47  1  0  0  0
 41 42  1  0  0  0
 41 43  1  0  0  0
 41 44  2  0  0  0
 30 26  1  0  0  0
 16 17  1  0  0  0
 16 21  1  0  0  0
 16  7  1  0  0  0
 17 18  1  0  0  0
 17 22  2  0  0  0
 18 19  1  0  0  0
 19 20  1  0  0  0
 19 23  2  0  0  0
 20 21  2  0  0  0
  7  8  1  0  0  0
  7 12  1  0  0  0
  8  9  1  0  0  0
  8 10  1  0  0  0
 10 11  1  0  0  0
 10 13  1  0  0  0
 11 12  1  0  0  0
 11  6  1  0  0  0
  6  5  1  0  0  0
  5  1  1  0  0  0
  1  2  2  0  0  0
  1  3  1  0  0  0
  1 25  1  0  0  0
 25 26  1  0  0  0
 26 27  2  0  0  0
 26 28  1  0  0  0
 43 45  1  0  0  0
 36 39  1  0  0  0
 37 40  1  0  0  0
 47 48  1  0  0  0
 18 24  1  0  0  0
  9 14  1  0  0  0
 13 15  1  0  0  0
  3  4  1  0  0  0
 28 29  1  0  0  0
M  END
> <minimizedAffinity>
-10.04969

$$$$
3UPK_UD1_A_427


 48 50  0  0  0  0  0  0  0  0999 V2000
   84.8924    3.0807  120.5441 P   0  0  0  0  0  0  0  0  0  0  0  0
   83.8524    3.4303  119.5916 O   0  0  0  0  0  0  0  0  0  0  0  0
   86.2890    3.3725  120.1642 O   0  0  0  0  0  0  0  0  0  0  0  0
   86.4765    2.9817  119.2965 H   0  0  0  0  0  0  0  0  0  0  0  0
   84.7626    1.5489  121.0082 O   0  0  0  0  0  0  0  0  0  0  0  0
   84.1366    0.5696  120.1614 C   0  0  0  0  0  0  0  0  0  0  0  0
   84.3279   -1.4299  122.9258 C   0  0  0  0  0  0  0  0  0  0  0  0
   82.8334   -1.2819  122.5558 C   0  0  0  0  0  0  0  0  0  0  0  0
   82.1004   -2.2890  123.2135 O   0  0  0  0  0  0  0  0  0  0  0  0
   82.9057   -1.5352  121.0347 C   0  0  0  0  0  0  0  0  0  0  0  0
   84.2885   -0.8964  120.6810 C   0  0  0  0  0  0  0  0  0  0  0  0
   85.0716   -0.8837  121.8745 O   0  0  0  0  0  0  0  0  0  0  0  0
   83.0036   -2.9416  120.6950 O   0  0  0  0  0  0  0  0  0  0  0  0
   82.4841   -3.1556  123.0067 H   0  0  0  0  0  0  0  0  0  0  0  0
   83.7793   -3.3266  121.1321 H   0  0  0  0  0  0  0  0  0  0  0  0
   84.6120   -0.6983  124.2112 N   0  0  0  0  0  0  0  0  0  0  0  0
   84.4429   -1.4225  125.4797 C   0  0  0  0  0  0  0  0  0  0  0  0
   84.7240   -0.6537  126.6464 N   0  0  0  0  0  0  0  0  0  0  0  0
   85.1528    0.7497  126.6751 C   0  0  0  0  0  0  0  0  0  0  0  0
   85.3109    1.4417  125.3639 C   0  0  0  0  0  0  0  0  0  0  0  0
   85.0410    0.7135  124.2221 C   0  0  0  0  0  0  0  0  0  0  0  0
   84.0860   -2.6010  125.5816 O   0  0  0  0  0  0  0  0  0  0  0  0
   85.3589    1.2918  127.7526 O   0  0  0  0  0  0  0  0  0  0  0  0
   84.6208   -1.1065  127.5145 H   0  0  0  0  0  0  0  0  0  0  0  0
   84.6964    3.7501  121.9469 O   0  0  0  0  0  0  0  0  0  0  0  0
   85.6453    4.4964  122.9860 P   0  0  0  0  0  0  0  0  0  0  0  0
   85.9790    5.7552  122.3765 O   0  0  0  0  0  0  0  0  0  0  0  0
   86.7771    3.6388  123.2427 O   0  0  0  0  0  0  0  0  0  0  0  0
   86.4717    2.8142  123.6521 H   0  0  0  0  0  0  0  0  0  0  0  0
   84.8810    4.9021  124.3240 O   0  0  0  0  0  0  0  0  0  0  0  0
   83.5027    4.6846  124.5521 C   0  0  0  0  0  0  0  0  0  0  0  0
   82.9207    6.1525  124.6138 C   0  0  0  0  0  0  0  0  0  0  0  0
   83.4514    6.9091  125.8771 C   0  0  0  0  0  0  0  0  0  0  0  0
   82.9816    6.1189  127.1173 C   0  0  0  0  0  0  0  0  0  0  0  0
   83.6200    4.6318  127.0574 C   0  0  0  0  0  0  0  0  0  0  0  0
   82.8847    8.2185  125.8887 O   0  0  0  0  0  0  0  0  0  0  0  0
   83.4194    6.7136  128.2946 O   0  0  0  0  0  0  0  0  0  0  0  0
   83.1671    3.9719  125.7724 O   0  0  0  0  0  0  0  0  0  0  0  0
   81.9170    8.1520  125.8929 H   0  0  0  0  0  0  0  0  0  0  0  0
   84.3891    6.7357  128.3044 H   0  0  0  0  0  0  0  0  0  0  0  0
   82.6147    6.8502  122.2037 C   0  0  0  0  0  0  0  0  0  0  0  0
   83.1857    7.6099  121.0227 C   0  0  0  0  0  0  0  0  0  0  0  0
   83.3312    6.8517  123.3449 N   0  0  0  0  0  0  0  0  0  0  0  0
   81.5447    6.2613  122.1290 O   0  0  0  0  0  0  0  0  0  0  0  0
   84.1834    7.3447  123.3494 H   0  0  0  0  0  0  0  0  0  0  0  0
   83.1907    3.7505  128.2433 C   0  0  0  0  0  0  0  0  0  0  0  0
   84.2300    3.7928  129.2155 O   0  0  0  0  0  0  0  0  0  0  0  0
   85.0544    3.4665  128.8219 H   0  0  0  0  0  0  0  0  0  0  0  0
 31 32  1  0  0  0
 31 30  1  0  0  0
 31 38  1  0  0  0
 32 33  1  0  0  0
 32 43  1  0  0  0
 33 34  1  0  0  0
 33 36  1  0  0  0
 34 35  1  0  0  0
 34 37  1  0  0  0
 35 46  1  0  0  0
 35 38  1  0  0  0
 46 47  1  0  0  0
 41 42  1  0  0  0
 41 43  1  0  0  0
 41 44  2  0  0  0
 30 26  1  0  0  0
 16 17  1  0  0  0
 16 21  1  0  0  0
 16  7  1  0  0  0
 17 18  1  0  0  0
 17 22  2  0  0  0
 18 19  1  0  0  0
 19 20  1  0  0  0
 19 23  2  0  0  0
 20 21  2  0  0  0
  7  8  1  0  0  0
  7 12  1  0  0  0
  8  9  1  0  0  0
  8 10  1  0  0  0
 10 11  1  0  0  0
 10 13  1  0  0  0
 11 12  1  0  0  0
 11  6  1  0  0  0
  6  5  1  0  0  0
  5  1  1  0  0  0
  1  2  2  0  0  0
  1  3  1  0  0  0
  1 25  1  0  0  0
 25 26  1  0  0  0
 26 27  2  0  0  0
 26 28  1  0  0  0
 43 45  1  0  0  0
 36 39  1  0  0  0
 37 40  1  0  0  0
 47 48  1  0  0  0
 18 24  1  0  0  0
  9 14  1  0  0  0
 13 15  1  0  0  0
  3  4  1  0  0  0
 28 29  1  0  0  0
M  END
> <minimizedAffinity>
-10.04326

$$$$
3UPK_UD1_A_427


 48 50  0  0  0  0  0  0  0  0999 V2000
   85.3638    1.0735  124.8074 P   0  0  0  0  0  0  0  0  0  0  0  0
   86.6001    0.3102  124.7909 O   0  0  0  0  0  0  0  0  0  0  0  0
   84.2160    0.4939  125.5332 O   0  0  0  0  0  0  0  0  0  0  0  0
   84.0551   -0.4085  125.2158 H   0  0  0  0  0  0  0  0  0  0  0  0
   84.9169    1.4858  123.3213 O   0  0  0  0  0  0  0  0  0  0  0  0
   85.8177    2.1844  122.4445 C   0  0  0  0  0  0  0  0  0  0  0  0
   85.3770   -0.2704  120.1087 C   0  0  0  0  0  0  0  0  0  0  0  0
   85.2133    1.0920  119.3949 C   0  0  0  0  0  0  0  0  0  0  0  0
   85.3188    0.8921  118.0045 O   0  0  0  0  0  0  0  0  0  0  0  0
   86.4425    1.8394  119.9549 C   0  0  0  0  0  0  0  0  0  0  0  0
   86.5240    1.2569  121.4038 C   0  0  0  0  0  0  0  0  0  0  0  0
   85.8654   -0.0096  121.3934 O   0  0  0  0  0  0  0  0  0  0  0  0
   87.6811    1.4744  119.2948 O   0  0  0  0  0  0  0  0  0  0  0  0
   86.1478    0.4290  117.8064 H   0  0  0  0  0  0  0  0  0  0  0  0
   87.8153    0.5164  119.3660 H   0  0  0  0  0  0  0  0  0  0  0  0
   84.0473   -0.9738  120.1806 N   0  0  0  0  0  0  0  0  0  0  0  0
   84.0372   -2.4404  120.2861 C   0  0  0  0  0  0  0  0  0  0  0  0
   82.7384   -3.0248  120.3400 N   0  0  0  0  0  0  0  0  0  0  0  0
   81.4620   -2.3012  120.3003 C   0  0  0  0  0  0  0  0  0  0  0  0
   81.5231   -0.8153  120.1934 C   0  0  0  0  0  0  0  0  0  0  0  0
   82.7730   -0.2310  120.1379 C   0  0  0  0  0  0  0  0  0  0  0  0
   85.0439   -3.1557  120.3259 O   0  0  0  0  0  0  0  0  0  0  0  0
   80.4141   -2.9308  120.3528 O   0  0  0  0  0  0  0  0  0  0  0  0
   82.6932   -4.0057  120.4104 H   0  0  0  0  0  0  0  0  0  0  0  0
   85.5363    2.5172  125.3909 O   0  0  0  0  0  0  0  0  0  0  0  0
   84.6080    3.5283  126.1989 P   0  0  0  0  0  0  0  0  0  0  0  0
   85.4962    4.2966  127.0286 O   0  0  0  0  0  0  0  0  0  0  0  0
   83.6367    2.7480  126.9268 O   0  0  0  0  0  0  0  0  0  0  0  0
   83.0783    2.2611  126.3007 H   0  0  0  0  0  0  0  0  0  0  0  0
   83.9233    4.6127  125.2531 O   0  0  0  0  0  0  0  0  0  0  0  0
   84.5522    5.8019  124.8182 C   0  0  0  0  0  0  0  0  0  0  0  0
   83.3803    6.8605  124.8753 C   0  0  0  0  0  0  0  0  0  0  0  0
   82.2851    6.5369  123.8049 C   0  0  0  0  0  0  0  0  0  0  0  0
   82.9639    6.5982  122.4198 C   0  0  0  0  0  0  0  0  0  0  0  0
   84.1342    5.4801  122.3656 C   0  0  0  0  0  0  0  0  0  0  0  0
   81.2632    7.5289  123.8923 O   0  0  0  0  0  0  0  0  0  0  0  0
   82.0647    6.3103  121.4000 O   0  0  0  0  0  0  0  0  0  0  0  0
   85.1172    5.7672  123.4806 O   0  0  0  0  0  0  0  0  0  0  0  0
   81.6515    8.4065  123.7515 H   0  0  0  0  0  0  0  0  0  0  0  0
   81.7143    5.4140  121.5214 H   0  0  0  0  0  0  0  0  0  0  0  0
   83.2251    7.6052  127.2858 C   0  0  0  0  0  0  0  0  0  0  0  0
   82.5344    7.4299  128.6238 C   0  0  0  0  0  0  0  0  0  0  0  0
   82.8106    6.8244  126.2689 N   0  0  0  0  0  0  0  0  0  0  0  0
   84.1208    8.4243  127.1305 O   0  0  0  0  0  0  0  0  0  0  0  0
   82.0840    6.1852  126.4496 H   0  0  0  0  0  0  0  0  0  0  0  0
   84.8929    5.4755  121.0271 C   0  0  0  0  0  0  0  0  0  0  0  0
   86.2823    5.5950  121.3141 O   0  0  0  0  0  0  0  0  0  0  0  0
   86.4424    6.4190  121.8002 H   0  0  0  0  0  0  0  0  0  0  0  0
 31 32  1  0  0  0
 31 30  1  0  0  0
 31 38  1  0  0  0
 32 33  1  0  0  0
 32 43  1  0  0  0
 33 34  1  0  0  0
 33 36  1  0  0  0
 34 35  1  0  0  0
 34 37  1  0  0  0
 35 46  1  0  0  0
 35 38  1  0  0  0
 46 47  1  0  0  0
 41 42  1  0  0  0
 41 43  1  0  0  0
 41 44  2  0  0  0
 30 26  1  0  0  0
 16 17  1  0  0  0
 16 21  1  0  0  0
 16  7  1  0  0  0
 17 18  1  0  0  0
 17 22  2  0  0  0
 18 19  1  0  0  0
 19 20  1  0  0  0
 19 23  2  0  0  0
 20 21  2  0  0  0
  7  8  1  0  0  0
  7 12  1  0  0  0
  8  9  1  0  0  0
  8 10  1  0  0  0
 10 11  1  0  0  0
 10 13  1  0  0  0
 11 12  1  0  0  0
 11  6  1  0  0  0
  6  5  1  0  0  0
  5  1  1  0  0  0
  1  2  2  0  0  0
  1  3  1  0  0  0
  1 25  1  0  0  0
 25 26  1  0  0  0
 26 27  2  0  0  0
 26 28  1  0  0  0
 43 45  1  0  0  0
 36 39  1  0  0  0
 37 40  1  0  0  0
 47 48  1  0  0  0
 18 24  1  0  0  0
  9 14  1  0  0  0
 13 15  1  0  0  0
  3  4  1  0  0  0
 28 29  1  0  0  0
M  END
> <minimizedAffinity>
-10.02384

$$$$
