3OK9_G52_A_401


 44 48  0  0  0  0  0  0  0  0999 V2000
   17.1193   24.9928   16.2304 C   0  0  0  0  0  0  0  0  0  0  0  0
   18.2802   25.8561   16.0518 N   0  0  0  0  0  0  0  0  0  0  0  0
   18.5794   26.5714   14.9707 C   0  0  0  0  0  0  0  0  0  0  0  0
   17.8408   26.5535   13.9681 O   0  0  0  0  0  0  0  0  0  0  0  0
   18.9069   25.9160   16.8087 H   0  0  0  0  0  0  0  0  0  0  0  0
   19.7133   27.3082   15.1123 O   0  0  0  0  0  0  0  0  0  0  0  0
   20.8633   26.7583   14.4781 C   0  0  0  0  0  0  0  0  0  0  0  0
   21.4547   27.8467   13.5978 C   0  0  0  0  0  0  0  0  0  0  0  0
   22.1857   28.7139   14.4769 O   0  0  0  0  0  0  0  0  0  0  0  0
   22.5283   27.9983   15.6374 C   0  0  0  0  0  0  0  0  0  0  0  0
   21.8641   28.5954   16.7671 O   0  0  0  0  0  0  0  0  0  0  0  0
   21.1725   27.6437   17.5321 C   0  0  0  0  0  0  0  0  0  0  0  0
   21.4653   26.2746   16.9204 C   0  0  0  0  0  0  0  0  0  0  0  0
   21.9831   26.5862   15.5291 C   0  0  0  0  0  0  0  0  0  0  0  0
   21.7615   27.6320   18.8606 O   0  0  0  0  0  0  0  0  0  0  0  0
   22.9985   26.8934   18.6744 C   0  0  0  0  0  0  0  0  0  0  0  0
   22.5234   25.6939   17.8488 C   0  0  0  0  0  0  0  0  0  0  0  0
   16.9360   24.6121   17.6965 C   0  0  0  0  0  0  0  0  0  0  0  0
   15.9811   25.4674   18.3277 O   0  0  0  0  0  0  0  0  0  0  0  0
   16.3196   26.3763   18.3401 H   0  0  0  0  0  0  0  0  0  0  0  0
   18.2198   24.5748   18.5109 C   0  0  0  0  0  0  0  0  0  0  0  0
   18.0870   23.6839   19.6598 N   0  0  0  0  0  0  0  0  0  0  0  0
   18.1103   22.0610   19.3757 S   0  0  0  0  0  0  0  0  0  0  0  0
   18.2552   21.3498   20.6806 O   0  0  0  0  0  0  0  0  0  0  0  0
   19.1606   21.8407   18.3524 O   0  0  0  0  0  0  0  0  0  0  0  0
   14.1011   20.6574   17.7230 C   0  0  0  0  0  0  0  0  0  0  0  0
   15.2873   20.1347   17.2126 C   0  0  0  0  0  0  0  0  0  0  0  0
   16.5229   20.5940   17.6533 C   0  0  0  0  0  0  0  0  0  0  0  0
   16.5823   21.5341   18.6799 C   0  0  0  0  0  0  0  0  0  0  0  0
   15.4018   22.1036   19.1153 C   0  0  0  0  0  0  0  0  0  0  0  0
   14.1548   21.7204   18.6259 C   0  0  0  0  0  0  0  0  0  0  0  0
   12.9245   20.1357   17.2699 O   0  0  0  0  0  0  0  0  0  0  0  0
   12.2121   19.4576   18.2807 C   0  0  0  0  0  0  0  0  0  0  0  0
   18.8171   24.0873   20.8502 C   0  0  0  0  0  0  0  0  0  0  0  0
   20.1822   24.7162   20.5866 C   0  0  0  0  0  0  0  0  0  0  0  0
   20.6016   25.7998   21.5757 C   0  0  0  0  0  0  0  0  0  0  0  0
   21.2484   23.6030   20.6039 C   0  0  0  0  0  0  0  0  0  0  0  0
   17.3351   23.7830   15.3429 C   0  0  0  0  0  0  0  0  0  0  0  0
   15.9641   22.0439   14.1045 C   0  0  0  0  0  0  0  0  0  0  0  0
   14.7695   21.4399   13.7031 C   0  0  0  0  0  0  0  0  0  0  0  0
   13.5832   21.9395   14.2359 C   0  0  0  0  0  0  0  0  0  0  0  0
   13.6066   23.0611   15.0529 C   0  0  0  0  0  0  0  0  0  0  0  0
   14.8066   23.6618   15.4352 C   0  0  0  0  0  0  0  0  0  0  0  0
   15.9879   23.1414   14.9526 C   0  0  0  0  0  0  0  0  0  0  0  0
 27 26  2  0  0  0
 32 26  1  0  0  0
 26 31  1  0  0  0
 27 28  1  0  0  0
 28 29  2  0  0  0
 29 30  1  0  0  0
 29 23  1  0  0  0
 31 30  2  0  0  0
 24 23  2  0  0  0
 23 25  2  0  0  0
 23 22  1  0  0  0
 22 21  1  0  0  0
 22 34  1  0  0  0
 34 35  1  0  0  0
 36 35  1  0  0  0
 35 37  1  0  0  0
 21 18  1  0  0  0
  1 18  1  0  0  0
 18 19  1  0  0  0
 38  1  1  0  0  0
  1  2  1  0  0  0
  2  3  1  0  0  0
  4  3  2  0  0  0
  3  6  1  0  0  0
  6  7  1  0  0  0
 14  7  1  0  0  0
  7  8  1  0  0  0
  9  8  1  0  0  0
 10  9  1  0  0  0
 14 10  1  0  0  0
 11 10  1  0  0  0
 12 11  1  0  0  0
 15 12  1  0  0  0
 13 12  1  0  0  0
 17 13  1  0  0  0
 13 14  1  0  0  0
 44 38  1  0  0  0
 40 39  2  0  0  0
 39 44  1  0  0  0
 41 40  1  0  0  0
 41 42  2  0  0  0
 42 43  1  0  0  0
 43 44  2  0  0  0
 32 33  1  0  0  0
 16 15  1  0  0  0
 17 16  1  0  0  0
 19 20  1  0  0  0
  2  5  1  0  0  0
M  END
> <minimizedAffinity>
-9.11734

$$$$
3OK9_G52_A_401


 44 48  0  0  0  0  0  0  0  0999 V2000
   14.8682   22.5569   16.7939 C   0  0  0  0  0  0  0  0  0  0  0  0
   13.9323   21.5352   17.2469 N   0  0  0  0  0  0  0  0  0  0  0  0
   14.2223   20.2753   17.5609 C   0  0  0  0  0  0  0  0  0  0  0  0
   15.3907   19.8507   17.4852 O   0  0  0  0  0  0  0  0  0  0  0  0
   12.9891   21.8052   17.3290 H   0  0  0  0  0  0  0  0  0  0  0  0
   13.1423   19.5661   17.9842 O   0  0  0  0  0  0  0  0  0  0  0  0
   13.4403   18.5203   18.9033 C   0  0  0  0  0  0  0  0  0  0  0  0
   13.0691   19.0210   20.2893 C   0  0  0  0  0  0  0  0  0  0  0  0
   11.6437   18.8886   20.3899 O   0  0  0  0  0  0  0  0  0  0  0  0
   11.2137   17.9122   19.4746 C   0  0  0  0  0  0  0  0  0  0  0  0
   10.3669   18.5356   18.4906 O   0  0  0  0  0  0  0  0  0  0  0  0
   10.7655   18.2228   17.1818 C   0  0  0  0  0  0  0  0  0  0  0  0
   11.9249   17.2335   17.2881 C   0  0  0  0  0  0  0  0  0  0  0  0
   12.4152   17.3792   18.7162 C   0  0  0  0  0  0  0  0  0  0  0  0
    9.6729   17.5051   16.5469 O   0  0  0  0  0  0  0  0  0  0  0  0
    9.7668   16.1733   17.1192 C   0  0  0  0  0  0  0  0  0  0  0  0
   11.2677   15.8899   17.0032 C   0  0  0  0  0  0  0  0  0  0  0  0
   15.0865   23.6190   17.8673 C   0  0  0  0  0  0  0  0  0  0  0  0
   13.8993   24.3880   18.0698 O   0  0  0  0  0  0  0  0  0  0  0  0
   13.6916   24.8812   17.2607 H   0  0  0  0  0  0  0  0  0  0  0  0
   16.2689   24.5427   17.6190 C   0  0  0  0  0  0  0  0  0  0  0  0
   17.5300   23.8764   17.9303 N   0  0  0  0  0  0  0  0  0  0  0  0
   18.6372   23.7305   16.7187 S   0  0  0  0  0  0  0  0  0  0  0  0
   17.9494   23.1979   15.5051 O   0  0  0  0  0  0  0  0  0  0  0  0
   19.7548   22.9342   17.2806 O   0  0  0  0  0  0  0  0  0  0  0  0
   20.3574   27.7532   15.4409 C   0  0  0  0  0  0  0  0  0  0  0  0
   20.7893   27.1536   16.6219 C   0  0  0  0  0  0  0  0  0  0  0  0
   20.2329   25.9600   17.0666 C   0  0  0  0  0  0  0  0  0  0  0  0
   19.2852   25.3069   16.2814 C   0  0  0  0  0  0  0  0  0  0  0  0
   18.8066   25.9540   15.1590 C   0  0  0  0  0  0  0  0  0  0  0  0
   19.2883   27.1926   14.7404 C   0  0  0  0  0  0  0  0  0  0  0  0
   20.9715   28.9063   15.0468 O   0  0  0  0  0  0  0  0  0  0  0  0
   22.3094   28.9806   15.4867 C   0  0  0  0  0  0  0  0  0  0  0  0
   18.1070   24.2049   19.2234 C   0  0  0  0  0  0  0  0  0  0  0  0
   18.0827   23.0728   20.2463 C   0  0  0  0  0  0  0  0  0  0  0  0
   17.5392   21.7429   19.7324 C   0  0  0  0  0  0  0  0  0  0  0  0
   19.5174   22.8451   20.7623 C   0  0  0  0  0  0  0  0  0  0  0  0
   14.2951   23.1372   15.5161 C   0  0  0  0  0  0  0  0  0  0  0  0
   12.2510   21.9246   14.6280 C   0  0  0  0  0  0  0  0  0  0  0  0
   11.6032   20.9318   13.8879 C   0  0  0  0  0  0  0  0  0  0  0  0
   12.3944   20.0790   13.1213 C   0  0  0  0  0  0  0  0  0  0  0  0
   13.7778   20.1681   13.1873 C   0  0  0  0  0  0  0  0  0  0  0  0
   14.4112   21.1569   13.9410 C   0  0  0  0  0  0  0  0  0  0  0  0
   13.6333   22.0367   14.6621 C   0  0  0  0  0  0  0  0  0  0  0  0
 27 26  2  0  0  0
 32 26  1  0  0  0
 26 31  1  0  0  0
 27 28  1  0  0  0
 28 29  2  0  0  0
 29 30  1  0  0  0
 29 23  1  0  0  0
 31 30  2  0  0  0
 24 23  2  0  0  0
 23 25  2  0  0  0
 23 22  1  0  0  0
 22 21  1  0  0  0
 22 34  1  0  0  0
 34 35  1  0  0  0
 36 35  1  0  0  0
 35 37  1  0  0  0
 21 18  1  0  0  0
  1 18  1  0  0  0
 18 19  1  0  0  0
 38  1  1  0  0  0
  1  2  1  0  0  0
  2  3  1  0  0  0
  4  3  2  0  0  0
  3  6  1  0  0  0
  6  7  1  0  0  0
 14  7  1  0  0  0
  7  8  1  0  0  0
  9  8  1  0  0  0
 10  9  1  0  0  0
 14 10  1  0  0  0
 11 10  1  0  0  0
 12 11  1  0  0  0
 15 12  1  0  0  0
 13 12  1  0  0  0
 17 13  1  0  0  0
 13 14  1  0  0  0
 44 38  1  0  0  0
 40 39  2  0  0  0
 39 44  1  0  0  0
 41 40  1  0  0  0
 41 42  2  0  0  0
 42 43  1  0  0  0
 43 44  2  0  0  0
 32 33  1  0  0  0
 16 15  1  0  0  0
 17 16  1  0  0  0
 19 20  1  0  0  0
  2  5  1  0  0  0
M  END
> <minimizedAffinity>
-8.97662

$$$$
3OK9_G52_A_401


 44 48  0  0  0  0  0  0  0  0999 V2000
   14.8443   22.0126   15.8682 C   0  0  0  0  0  0  0  0  0  0  0  0
   13.9909   21.3915   16.8736 N   0  0  0  0  0  0  0  0  0  0  0  0
   14.2799   20.3216   17.6097 C   0  0  0  0  0  0  0  0  0  0  0  0
   15.3717   19.7356   17.4842 O   0  0  0  0  0  0  0  0  0  0  0  0
   13.1106   21.8062   17.0233 H   0  0  0  0  0  0  0  0  0  0  0  0
   13.2964   19.9948   18.4898 O   0  0  0  0  0  0  0  0  0  0  0  0
   13.3794   18.6723   19.0107 C   0  0  0  0  0  0  0  0  0  0  0  0
   12.8523   18.7166   20.4353 C   0  0  0  0  0  0  0  0  0  0  0  0
   11.4213   18.7310   20.3280 O   0  0  0  0  0  0  0  0  0  0  0  0
   11.0544   18.1803   19.0877 C   0  0  0  0  0  0  0  0  0  0  0  0
   10.4071   19.1966   18.2991 O   0  0  0  0  0  0  0  0  0  0  0  0
   10.9645   19.2984   17.0151 C   0  0  0  0  0  0  0  0  0  0  0  0
   12.0185   18.1991   16.8929 C   0  0  0  0  0  0  0  0  0  0  0  0
   12.3085   17.7938   18.3256 C   0  0  0  0  0  0  0  0  0  0  0  0
    9.9232   18.9745   16.0545 O   0  0  0  0  0  0  0  0  0  0  0  0
    9.8330   17.5267   16.1304 C   0  0  0  0  0  0  0  0  0  0  0  0
   11.3092   17.1202   16.0858 C   0  0  0  0  0  0  0  0  0  0  0  0
   15.7928   23.0266   16.5008 C   0  0  0  0  0  0  0  0  0  0  0  0
   15.6617   24.3042   15.8744 O   0  0  0  0  0  0  0  0  0  0  0  0
   15.9383   24.2395   14.9469 H   0  0  0  0  0  0  0  0  0  0  0  0
   17.2539   22.6053   16.5231 C   0  0  0  0  0  0  0  0  0  0  0  0
   18.0195   23.4152   17.4661 N   0  0  0  0  0  0  0  0  0  0  0  0
   18.2989   22.7862   18.9632 S   0  0  0  0  0  0  0  0  0  0  0  0
   18.6441   21.3408   18.8170 O   0  0  0  0  0  0  0  0  0  0  0  0
   17.1092   23.1297   19.7790 O   0  0  0  0  0  0  0  0  0  0  0  0
   21.8574   24.9416   20.8250 C   0  0  0  0  0  0  0  0  0  0  0  0
   22.0552   23.7736   20.0919 C   0  0  0  0  0  0  0  0  0  0  0  0
   20.9810   23.0624   19.5701 C   0  0  0  0  0  0  0  0  0  0  0  0
   19.6889   23.5646   19.7103 C   0  0  0  0  0  0  0  0  0  0  0  0
   19.5012   24.6749   20.5099 C   0  0  0  0  0  0  0  0  0  0  0  0
   20.5562   25.3549   21.1150 C   0  0  0  0  0  0  0  0  0  0  0  0
   22.9589   25.6071   21.2782 O   0  0  0  0  0  0  0  0  0  0  0  0
   22.7110   26.3016   22.4805 C   0  0  0  0  0  0  0  0  0  0  0  0
   19.1547   24.1255   16.9008 C   0  0  0  0  0  0  0  0  0  0  0  0
   18.9847   25.6389   16.8041 C   0  0  0  0  0  0  0  0  0  0  0  0
   20.1627   26.4604   17.3195 C   0  0  0  0  0  0  0  0  0  0  0  0
   18.7392   26.0131   15.3289 C   0  0  0  0  0  0  0  0  0  0  0  0
   13.9224   22.6454   14.8447 C   0  0  0  0  0  0  0  0  0  0  0  0
   11.6648   21.7541   14.1055 C   0  0  0  0  0  0  0  0  0  0  0  0
   10.8187   20.8069   13.5225 C   0  0  0  0  0  0  0  0  0  0  0  0
   11.4084   19.6878   12.9387 C   0  0  0  0  0  0  0  0  0  0  0  0
   12.7792   19.4946   13.0358 C   0  0  0  0  0  0  0  0  0  0  0  0
   13.6105   20.4433   13.6323 C   0  0  0  0  0  0  0  0  0  0  0  0
   13.0394   21.5777   14.1672 C   0  0  0  0  0  0  0  0  0  0  0  0
 27 26  2  0  0  0
 32 26  1  0  0  0
 26 31  1  0  0  0
 27 28  1  0  0  0
 28 29  2  0  0  0
 29 30  1  0  0  0
 29 23  1  0  0  0
 31 30  2  0  0  0
 24 23  2  0  0  0
 23 25  2  0  0  0
 23 22  1  0  0  0
 22 21  1  0  0  0
 22 34  1  0  0  0
 34 35  1  0  0  0
 36 35  1  0  0  0
 35 37  1  0  0  0
 21 18  1  0  0  0
  1 18  1  0  0  0
 18 19  1  0  0  0
 38  1  1  0  0  0
  1  2  1  0  0  0
  2  3  1  0  0  0
  4  3  2  0  0  0
  3  6  1  0  0  0
  6  7  1  0  0  0
 14  7  1  0  0  0
  7  8  1  0  0  0
  9  8  1  0  0  0
 10  9  1  0  0  0
 14 10  1  0  0  0
 11 10  1  0  0  0
 12 11  1  0  0  0
 15 12  1  0  0  0
 13 12  1  0  0  0
 17 13  1  0  0  0
 13 14  1  0  0  0
 44 38  1  0  0  0
 40 39  2  0  0  0
 39 44  1  0  0  0
 41 40  1  0  0  0
 41 42  2  0  0  0
 42 43  1  0  0  0
 43 44  2  0  0  0
 32 33  1  0  0  0
 16 15  1  0  0  0
 17 16  1  0  0  0
 19 20  1  0  0  0
  2  5  1  0  0  0
M  END
> <minimizedAffinity>
-8.81547

$$$$
3OK9_G52_A_401


 44 48  0  0  0  0  0  0  0  0999 V2000
   20.1080   26.5330   16.0255 C   0  0  0  0  0  0  0  0  0  0  0  0
   20.7899   26.0430   17.2170 N   0  0  0  0  0  0  0  0  0  0  0  0
   21.0350   26.7285   18.3305 C   0  0  0  0  0  0  0  0  0  0  0  0
   20.6758   27.9158   18.4420 O   0  0  0  0  0  0  0  0  0  0  0  0
   21.1010   25.1091   17.1955 H   0  0  0  0  0  0  0  0  0  0  0  0
   21.6610   25.9920   19.2867 O   0  0  0  0  0  0  0  0  0  0  0  0
   22.8054   26.6136   19.8622 C   0  0  0  0  0  0  0  0  0  0  0  0
   22.5718   26.6842   21.3621 C   0  0  0  0  0  0  0  0  0  0  0  0
   22.8591   25.3732   21.8701 O   0  0  0  0  0  0  0  0  0  0  0  0
   23.7146   24.7156   20.9690 C   0  0  0  0  0  0  0  0  0  0  0  0
   23.0290   23.5722   20.4245 O   0  0  0  0  0  0  0  0  0  0  0  0
   23.0877   23.5441   19.0226 C   0  0  0  0  0  0  0  0  0  0  0  0
   23.9615   24.7183   18.5844 C   0  0  0  0  0  0  0  0  0  0  0  0
   23.9979   25.6331   19.7939 C   0  0  0  0  0  0  0  0  0  0  0  0
   23.7994   22.3380   18.6343 O   0  0  0  0  0  0  0  0  0  0  0  0
   25.1896   22.6679   18.8964 C   0  0  0  0  0  0  0  0  0  0  0  0
   25.3008   24.0634   18.2748 C   0  0  0  0  0  0  0  0  0  0  0  0
   18.8622   25.7055   15.7239 C   0  0  0  0  0  0  0  0  0  0  0  0
   18.1386   26.2595   14.6234 O   0  0  0  0  0  0  0  0  0  0  0  0
   17.8088   27.1396   14.8634 H   0  0  0  0  0  0  0  0  0  0  0  0
   17.9309   25.5002   16.9086 C   0  0  0  0  0  0  0  0  0  0  0  0
   17.8267   24.0859   17.2556 N   0  0  0  0  0  0  0  0  0  0  0  0
   16.9867   23.1070   16.2303 S   0  0  0  0  0  0  0  0  0  0  0  0
   17.9560   22.2395   15.4970 O   0  0  0  0  0  0  0  0  0  0  0  0
   16.1220   24.0040   15.4261 O   0  0  0  0  0  0  0  0  0  0  0  0
   14.3274   20.3543   18.7053 C   0  0  0  0  0  0  0  0  0  0  0  0
   14.9754   19.8651   17.5733 C   0  0  0  0  0  0  0  0  0  0  0  0
   15.7385   20.6999   16.7654 C   0  0  0  0  0  0  0  0  0  0  0  0
   15.9280   22.0302   17.1337 C   0  0  0  0  0  0  0  0  0  0  0  0
   15.2123   22.5204   18.2084 C   0  0  0  0  0  0  0  0  0  0  0  0
   14.3729   21.7216   18.9822 C   0  0  0  0  0  0  0  0  0  0  0  0
   13.6235   19.4716   19.4716 O   0  0  0  0  0  0  0  0  0  0  0  0
   13.5029   18.2061   18.8607 C   0  0  0  0  0  0  0  0  0  0  0  0
   19.0365   23.4838   17.7911 C   0  0  0  0  0  0  0  0  0  0  0  0
   18.9961   23.1760   19.2851 C   0  0  0  0  0  0  0  0  0  0  0  0
   17.9873   23.9897   20.0904 C   0  0  0  0  0  0  0  0  0  0  0  0
   18.6734   21.6801   19.4708 C   0  0  0  0  0  0  0  0  0  0  0  0
   21.1178   26.4881   14.8957 C   0  0  0  0  0  0  0  0  0  0  0  0
   22.2643   28.7133   15.3096 C   0  0  0  0  0  0  0  0  0  0  0  0
   23.3664   29.5239   15.5948 C   0  0  0  0  0  0  0  0  0  0  0  0
   24.5770   28.8926   15.8719 C   0  0  0  0  0  0  0  0  0  0  0  0
   24.6823   27.5131   15.7622 C   0  0  0  0  0  0  0  0  0  0  0  0
   23.5756   26.7172   15.4640 C   0  0  0  0  0  0  0  0  0  0  0  0
   22.3627   27.3314   15.2386 C   0  0  0  0  0  0  0  0  0  0  0  0
 27 26  2  0  0  0
 32 26  1  0  0  0
 26 31  1  0  0  0
 27 28  1  0  0  0
 28 29  2  0  0  0
 29 30  1  0  0  0
 29 23  1  0  0  0
 31 30  2  0  0  0
 24 23  2  0  0  0
 23 25  2  0  0  0
 23 22  1  0  0  0
 22 21  1  0  0  0
 22 34  1  0  0  0
 34 35  1  0  0  0
 36 35  1  0  0  0
 35 37  1  0  0  0
 21 18  1  0  0  0
  1 18  1  0  0  0
 18 19  1  0  0  0
 38  1  1  0  0  0
  1  2  1  0  0  0
  2  3  1  0  0  0
  4  3  2  0  0  0
  3  6  1  0  0  0
  6  7  1  0  0  0
 14  7  1  0  0  0
  7  8  1  0  0  0
  9  8  1  0  0  0
 10  9  1  0  0  0
 14 10  1  0  0  0
 11 10  1  0  0  0
 12 11  1  0  0  0
 15 12  1  0  0  0
 13 12  1  0  0  0
 17 13  1  0  0  0
 13 14  1  0  0  0
 44 38  1  0  0  0
 40 39  2  0  0  0
 39 44  1  0  0  0
 41 40  1  0  0  0
 41 42  2  0  0  0
 42 43  1  0  0  0
 43 44  2  0  0  0
 32 33  1  0  0  0
 16 15  1  0  0  0
 17 16  1  0  0  0
 19 20  1  0  0  0
  2  5  1  0  0  0
M  END
> <minimizedAffinity>
-8.76564

$$$$
3OK9_G52_A_401


 44 48  0  0  0  0  0  0  0  0999 V2000
   19.8369   26.3759   16.0801 C   0  0  0  0  0  0  0  0  0  0  0  0
   20.5502   25.9245   17.2685 N   0  0  0  0  0  0  0  0  0  0  0  0
   20.9325   26.6749   18.2985 C   0  0  0  0  0  0  0  0  0  0  0  0
   20.6925   27.8968   18.3227 O   0  0  0  0  0  0  0  0  0  0  0  0
   20.7718   24.9664   17.3135 H   0  0  0  0  0  0  0  0  0  0  0  0
   21.5517   25.9646   19.2786 O   0  0  0  0  0  0  0  0  0  0  0  0
   22.6756   26.6135   19.8642 C   0  0  0  0  0  0  0  0  0  0  0  0
   22.4296   26.6734   21.3626 C   0  0  0  0  0  0  0  0  0  0  0  0
   22.7468   25.3686   21.8687 O   0  0  0  0  0  0  0  0  0  0  0  0
   23.6253   24.7360   20.9719 C   0  0  0  0  0  0  0  0  0  0  0  0
   22.9732   23.5772   20.4190 O   0  0  0  0  0  0  0  0  0  0  0  0
   23.0426   23.5549   19.0175 C   0  0  0  0  0  0  0  0  0  0  0  0
   23.8890   24.7526   18.5892 C   0  0  0  0  0  0  0  0  0  0  0  0
   23.8933   25.6642   19.8016 C   0  0  0  0  0  0  0  0  0  0  0  0
   23.7879   22.3688   18.6308 O   0  0  0  0  0  0  0  0  0  0  0  0
   25.1672   22.7334   18.9038 C   0  0  0  0  0  0  0  0  0  0  0  0
   25.2469   24.1333   18.2872 C   0  0  0  0  0  0  0  0  0  0  0  0
   18.5794   25.5449   15.8433 C   0  0  0  0  0  0  0  0  0  0  0  0
   17.8239   26.0675   14.7488 O   0  0  0  0  0  0  0  0  0  0  0  0
   17.5048   26.9561   14.9713 H   0  0  0  0  0  0  0  0  0  0  0  0
   17.6847   25.3807   17.0621 C   0  0  0  0  0  0  0  0  0  0  0  0
   17.0052   24.0887   17.0443 N   0  0  0  0  0  0  0  0  0  0  0  0
   17.2797   23.0630   18.3043 S   0  0  0  0  0  0  0  0  0  0  0  0
   17.0516   23.8032   19.5810 O   0  0  0  0  0  0  0  0  0  0  0  0
   18.6265   22.4863   18.0754 O   0  0  0  0  0  0  0  0  0  0  0  0
   14.2933   19.6273   18.0769 C   0  0  0  0  0  0  0  0  0  0  0  0
   14.0259   20.7315   18.8831 C   0  0  0  0  0  0  0  0  0  0  0  0
   14.9495   21.7610   19.0207 C   0  0  0  0  0  0  0  0  0  0  0  0
   16.1287   21.7323   18.2791 C   0  0  0  0  0  0  0  0  0  0  0  0
   16.4174   20.5941   17.5520 C   0  0  0  0  0  0  0  0  0  0  0  0
   15.5441   19.5115   17.4686 C   0  0  0  0  0  0  0  0  0  0  0  0
   13.3275   18.6705   17.9610 O   0  0  0  0  0  0  0  0  0  0  0  0
   13.4139   17.6934   18.9745 C   0  0  0  0  0  0  0  0  0  0  0  0
   15.6237   24.1162   16.5931 C   0  0  0  0  0  0  0  0  0  0  0  0
   15.3894   23.5405   15.1996 C   0  0  0  0  0  0  0  0  0  0  0  0
   16.5272   22.6862   14.6484 C   0  0  0  0  0  0  0  0  0  0  0  0
   14.1085   22.6832   15.2303 C   0  0  0  0  0  0  0  0  0  0  0  0
   20.8140   26.2859   14.9247 C   0  0  0  0  0  0  0  0  0  0  0  0
   23.2750   26.6478   15.4246 C   0  0  0  0  0  0  0  0  0  0  0  0
   24.4041   27.4343   15.6686 C   0  0  0  0  0  0  0  0  0  0  0  0
   24.2586   28.8170   15.5794 C   0  0  0  0  0  0  0  0  0  0  0  0
   23.0059   29.3708   15.3557 C   0  0  0  0  0  0  0  0  0  0  0  0
   21.8845   28.5728   15.1263 C   0  0  0  0  0  0  0  0  0  0  0  0
   22.0310   27.2030   15.1625 C   0  0  0  0  0  0  0  0  0  0  0  0
 27 26  2  0  0  0
 32 26  1  0  0  0
 26 31  1  0  0  0
 27 28  1  0  0  0
 28 29  2  0  0  0
 29 30  1  0  0  0
 29 23  1  0  0  0
 31 30  2  0  0  0
 24 23  2  0  0  0
 23 25  2  0  0  0
 23 22  1  0  0  0
 22 21  1  0  0  0
 22 34  1  0  0  0
 34 35  1  0  0  0
 36 35  1  0  0  0
 35 37  1  0  0  0
 21 18  1  0  0  0
  1 18  1  0  0  0
 18 19  1  0  0  0
 38  1  1  0  0  0
  1  2  1  0  0  0
  2  3  1  0  0  0
  4  3  2  0  0  0
  3  6  1  0  0  0
  6  7  1  0  0  0
 14  7  1  0  0  0
  7  8  1  0  0  0
  9  8  1  0  0  0
 10  9  1  0  0  0
 14 10  1  0  0  0
 11 10  1  0  0  0
 12 11  1  0  0  0
 15 12  1  0  0  0
 13 12  1  0  0  0
 17 13  1  0  0  0
 13 14  1  0  0  0
 44 38  1  0  0  0
 40 39  2  0  0  0
 39 44  1  0  0  0
 41 40  1  0  0  0
 41 42  2  0  0  0
 42 43  1  0  0  0
 43 44  2  0  0  0
 32 33  1  0  0  0
 16 15  1  0  0  0
 17 16  1  0  0  0
 19 20  1  0  0  0
  2  5  1  0  0  0
M  END
> <minimizedAffinity>
-8.72651

$$$$
3OK9_G52_A_401


 44 48  0  0  0  0  0  0  0  0999 V2000
   18.3329   23.3633   18.3073 C   0  0  0  0  0  0  0  0  0  0  0  0
   18.7684   24.6282   17.7282 N   0  0  0  0  0  0  0  0  0  0  0  0
   19.2016   24.8257   16.4859 C   0  0  0  0  0  0  0  0  0  0  0  0
   19.2707   23.8823   15.6757 O   0  0  0  0  0  0  0  0  0  0  0  0
   18.7389   25.4169   18.3166 H   0  0  0  0  0  0  0  0  0  0  0  0
   19.5067   26.1247   16.2248 O   0  0  0  0  0  0  0  0  0  0  0  0
   20.3181   26.3251   15.0721 C   0  0  0  0  0  0  0  0  0  0  0  0
   19.8267   27.5917   14.3914 C   0  0  0  0  0  0  0  0  0  0  0  0
   20.3805   28.6841   15.1393 O   0  0  0  0  0  0  0  0  0  0  0  0
   21.5241   28.2326   15.8210 C   0  0  0  0  0  0  0  0  0  0  0  0
   21.2874   28.3207   17.2387 O   0  0  0  0  0  0  0  0  0  0  0  0
   21.5852   27.1169   17.8959 C   0  0  0  0  0  0  0  0  0  0  0  0
   22.1556   26.1612   16.8492 C   0  0  0  0  0  0  0  0  0  0  0  0
   21.7314   26.7595   15.5214 C   0  0  0  0  0  0  0  0  0  0  0  0
   22.6608   27.3816   18.8367 O   0  0  0  0  0  0  0  0  0  0  0  0
   23.8387   27.4557   17.9898 C   0  0  0  0  0  0  0  0  0  0  0  0
   23.6568   26.2257   17.0953 C   0  0  0  0  0  0  0  0  0  0  0  0
   16.8866   23.0544   17.9321 C   0  0  0  0  0  0  0  0  0  0  0  0
   16.0420   23.1012   19.0837 O   0  0  0  0  0  0  0  0  0  0  0  0
   16.3006   22.4008   19.7030 H   0  0  0  0  0  0  0  0  0  0  0  0
   16.6864   21.7405   17.1929 C   0  0  0  0  0  0  0  0  0  0  0  0
   15.3418   21.6538   16.6310 N   0  0  0  0  0  0  0  0  0  0  0  0
   15.1095   22.2424   15.1096 S   0  0  0  0  0  0  0  0  0  0  0  0
   16.2734   21.8472   14.2618 O   0  0  0  0  0  0  0  0  0  0  0  0
   14.8360   23.6910   15.2696 O   0  0  0  0  0  0  0  0  0  0  0  0
   11.3480   20.3505   13.3641 C   0  0  0  0  0  0  0  0  0  0  0  0
   12.5991   19.8109   13.0738 C   0  0  0  0  0  0  0  0  0  0  0  0
   13.7646   20.4080   13.5397 C   0  0  0  0  0  0  0  0  0  0  0  0
   13.6825   21.5175   14.3785 C   0  0  0  0  0  0  0  0  0  0  0  0
   12.4431   22.0901   14.5874 C   0  0  0  0  0  0  0  0  0  0  0  0
   11.2686   21.5585   14.0588 C   0  0  0  0  0  0  0  0  0  0  0  0
   10.2448   19.6931   12.9030 O   0  0  0  0  0  0  0  0  0  0  0  0
    9.1987   20.5741   12.5583 C   0  0  0  0  0  0  0  0  0  0  0  0
   14.6307   20.4154   16.9019 C   0  0  0  0  0  0  0  0  0  0  0  0
   13.4950   20.5326   17.9143 C   0  0  0  0  0  0  0  0  0  0  0  0
   12.1803   19.8806   17.4961 C   0  0  0  0  0  0  0  0  0  0  0  0
   13.9521   19.8972   19.2423 C   0  0  0  0  0  0  0  0  0  0  0  0
   18.5277   23.4801   19.8061 C   0  0  0  0  0  0  0  0  0  0  0  0
   21.0420   23.1993   19.6145 C   0  0  0  0  0  0  0  0  0  0  0  0
   22.3681   23.5322   19.9038 C   0  0  0  0  0  0  0  0  0  0  0  0
   22.5928   24.6531   20.7000 C   0  0  0  0  0  0  0  0  0  0  0  0
   21.5206   25.3365   21.2563 C   0  0  0  0  0  0  0  0  0  0  0  0
   20.2013   24.9848   20.9685 C   0  0  0  0  0  0  0  0  0  0  0  0
   19.9714   23.9076   20.1402 C   0  0  0  0  0  0  0  0  0  0  0  0
 27 26  2  0  0  0
 32 26  1  0  0  0
 26 31  1  0  0  0
 27 28  1  0  0  0
 28 29  2  0  0  0
 29 30  1  0  0  0
 29 23  1  0  0  0
 31 30  2  0  0  0
 24 23  2  0  0  0
 23 25  2  0  0  0
 23 22  1  0  0  0
 22 21  1  0  0  0
 22 34  1  0  0  0
 34 35  1  0  0  0
 36 35  1  0  0  0
 35 37  1  0  0  0
 21 18  1  0  0  0
  1 18  1  0  0  0
 18 19  1  0  0  0
 38  1  1  0  0  0
  1  2  1  0  0  0
  2  3  1  0  0  0
  4  3  2  0  0  0
  3  6  1  0  0  0
  6  7  1  0  0  0
 14  7  1  0  0  0
  7  8  1  0  0  0
  9  8  1  0  0  0
 10  9  1  0  0  0
 14 10  1  0  0  0
 11 10  1  0  0  0
 12 11  1  0  0  0
 15 12  1  0  0  0
 13 12  1  0  0  0
 17 13  1  0  0  0
 13 14  1  0  0  0
 44 38  1  0  0  0
 40 39  2  0  0  0
 39 44  1  0  0  0
 41 40  1  0  0  0
 41 42  2  0  0  0
 42 43  1  0  0  0
 43 44  2  0  0  0
 32 33  1  0  0  0
 16 15  1  0  0  0
 17 16  1  0  0  0
 19 20  1  0  0  0
  2  5  1  0  0  0
M  END
> <minimizedAffinity>
-8.61767

$$$$
3OK9_G52_A_401


 44 48  0  0  0  0  0  0  0  0999 V2000
   13.5512   21.3158   16.9709 C   0  0  0  0  0  0  0  0  0  0  0  0
   12.8644   21.0715   15.7086 N   0  0  0  0  0  0  0  0  0  0  0  0
   11.6461   20.5598   15.5531 C   0  0  0  0  0  0  0  0  0  0  0  0
   10.9604   20.2314   16.5396 O   0  0  0  0  0  0  0  0  0  0  0  0
   13.3519   21.3095   14.8871 H   0  0  0  0  0  0  0  0  0  0  0  0
   11.2596   20.4815   14.2519 O   0  0  0  0  0  0  0  0  0  0  0  0
    9.9444   19.9745   14.0514 C   0  0  0  0  0  0  0  0  0  0  0  0
    9.2671   20.8732   13.0303 C   0  0  0  0  0  0  0  0  0  0  0  0
    9.7674   20.4645   11.7489 O   0  0  0  0  0  0  0  0  0  0  0  0
   10.2249   19.1386   11.8432 C   0  0  0  0  0  0  0  0  0  0  0  0
   11.6449   19.1168   11.6043 O   0  0  0  0  0  0  0  0  0  0  0  0
   12.3353   18.4219   12.6093 C   0  0  0  0  0  0  0  0  0  0  0  0
   11.2874   17.8488   13.5622 C   0  0  0  0  0  0  0  0  0  0  0  0
   10.0318   18.6467   13.2657 C   0  0  0  0  0  0  0  0  0  0  0  0
   12.9898   17.2824   11.9888 O   0  0  0  0  0  0  0  0  0  0  0  0
   11.9043   16.3382   11.7881 C   0  0  0  0  0  0  0  0  0  0  0  0
   11.1942   16.3876   13.1444 C   0  0  0  0  0  0  0  0  0  0  0  0
   14.3890   22.5892   16.9049 C   0  0  0  0  0  0  0  0  0  0  0  0
   13.7051   23.6099   16.1754 O   0  0  0  0  0  0  0  0  0  0  0  0
   13.5939   23.3292   15.2536 H   0  0  0  0  0  0  0  0  0  0  0  0
   15.7914   22.4016   16.3473 C   0  0  0  0  0  0  0  0  0  0  0  0
   16.7884   23.0230   17.2139 N   0  0  0  0  0  0  0  0  0  0  0  0
   17.2158   22.2185   18.5870 S   0  0  0  0  0  0  0  0  0  0  0  0
   17.6551   20.8405   18.2159 O   0  0  0  0  0  0  0  0  0  0  0  0
   16.0632   22.3471   19.5110 O   0  0  0  0  0  0  0  0  0  0  0  0
   20.7396   24.3782   20.5088 C   0  0  0  0  0  0  0  0  0  0  0  0
   20.9555   23.2316   19.7475 C   0  0  0  0  0  0  0  0  0  0  0  0
   19.8926   22.5182   19.2061 C   0  0  0  0  0  0  0  0  0  0  0  0
   18.5932   22.9982   19.3559 C   0  0  0  0  0  0  0  0  0  0  0  0
   18.3881   24.0856   20.1823 C   0  0  0  0  0  0  0  0  0  0  0  0
   19.4321   24.7655   20.8062 C   0  0  0  0  0  0  0  0  0  0  0  0
   21.8307   25.0481   20.9806 O   0  0  0  0  0  0  0  0  0  0  0  0
   21.4784   26.1926   21.7257 C   0  0  0  0  0  0  0  0  0  0  0  0
   17.9020   23.6583   16.5289 C   0  0  0  0  0  0  0  0  0  0  0  0
   17.8845   25.1840   16.5481 C   0  0  0  0  0  0  0  0  0  0  0  0
   19.2005   25.8450   16.9472 C   0  0  0  0  0  0  0  0  0  0  0  0
   17.4922   25.6893   15.1456 C   0  0  0  0  0  0  0  0  0  0  0  0
   14.3914   20.0865   17.2551 C   0  0  0  0  0  0  0  0  0  0  0  0
   13.1849   17.9912   18.0244 C   0  0  0  0  0  0  0  0  0  0  0  0
   12.5648   17.1776   18.9765 C   0  0  0  0  0  0  0  0  0  0  0  0
   12.5741   17.6116   20.3002 C   0  0  0  0  0  0  0  0  0  0  0  0
   13.0962   18.8572   20.6194 C   0  0  0  0  0  0  0  0  0  0  0  0
   13.7012   19.6647   19.6556 C   0  0  0  0  0  0  0  0  0  0  0  0
   13.7412   19.2190   18.3521 C   0  0  0  0  0  0  0  0  0  0  0  0
 27 26  2  0  0  0
 32 26  1  0  0  0
 26 31  1  0  0  0
 27 28  1  0  0  0
 28 29  2  0  0  0
 29 30  1  0  0  0
 29 23  1  0  0  0
 31 30  2  0  0  0
 24 23  2  0  0  0
 23 25  2  0  0  0
 23 22  1  0  0  0
 22 21  1  0  0  0
 22 34  1  0  0  0
 34 35  1  0  0  0
 36 35  1  0  0  0
 35 37  1  0  0  0
 21 18  1  0  0  0
  1 18  1  0  0  0
 18 19  1  0  0  0
 38  1  1  0  0  0
  1  2  1  0  0  0
  2  3  1  0  0  0
  4  3  2  0  0  0
  3  6  1  0  0  0
  6  7  1  0  0  0
 14  7  1  0  0  0
  7  8  1  0  0  0
  9  8  1  0  0  0
 10  9  1  0  0  0
 14 10  1  0  0  0
 11 10  1  0  0  0
 12 11  1  0  0  0
 15 12  1  0  0  0
 13 12  1  0  0  0
 17 13  1  0  0  0
 13 14  1  0  0  0
 44 38  1  0  0  0
 40 39  2  0  0  0
 39 44  1  0  0  0
 41 40  1  0  0  0
 41 42  2  0  0  0
 42 43  1  0  0  0
 43 44  2  0  0  0
 32 33  1  0  0  0
 16 15  1  0  0  0
 17 16  1  0  0  0
 19 20  1  0  0  0
  2  5  1  0  0  0
M  END
> <minimizedAffinity>
-8.45749

$$$$
3OK9_G52_A_401


 44 48  0  0  0  0  0  0  0  0999 V2000
   19.0181   26.0173   16.6741 C   0  0  0  0  0  0  0  0  0  0  0  0
   19.7139   25.7454   17.9258 N   0  0  0  0  0  0  0  0  0  0  0  0
   20.4455   26.6044   18.6308 C   0  0  0  0  0  0  0  0  0  0  0  0
   20.5983   27.7792   18.2466 O   0  0  0  0  0  0  0  0  0  0  0  0
   19.6344   24.8328   18.2864 H   0  0  0  0  0  0  0  0  0  0  0  0
   20.9446   26.0691   19.7767 O   0  0  0  0  0  0  0  0  0  0  0  0
   22.0894   26.7376   20.2962 C   0  0  0  0  0  0  0  0  0  0  0  0
   21.9721   26.7181   21.8112 C   0  0  0  0  0  0  0  0  0  0  0  0
   22.3818   25.4060   22.2236 O   0  0  0  0  0  0  0  0  0  0  0  0
   23.2028   24.8532   21.2253 C   0  0  0  0  0  0  0  0  0  0  0  0
   22.5501   23.6943   20.6732 O   0  0  0  0  0  0  0  0  0  0  0  0
   22.4985   23.7394   19.2715 C   0  0  0  0  0  0  0  0  0  0  0  0
   23.2582   24.9903   18.8326 C   0  0  0  0  0  0  0  0  0  0  0  0
   23.3326   25.8446   20.0838 C   0  0  0  0  0  0  0  0  0  0  0  0
   23.2523   22.6049   18.7648 O   0  0  0  0  0  0  0  0  0  0  0  0
   24.6352   23.0148   18.9377 C   0  0  0  0  0  0  0  0  0  0  0  0
   24.6074   24.4436   18.3864 C   0  0  0  0  0  0  0  0  0  0  0  0
   17.6328   25.3779   16.6636 C   0  0  0  0  0  0  0  0  0  0  0  0
   16.8758   25.7874   17.8042 O   0  0  0  0  0  0  0  0  0  0  0  0
   17.3028   25.4586   18.6107 H   0  0  0  0  0  0  0  0  0  0  0  0
   17.6315   23.8609   16.5553 C   0  0  0  0  0  0  0  0  0  0  0  0
   17.2413   23.2446   17.8198 N   0  0  0  0  0  0  0  0  0  0  0  0
   15.6661   22.7950   17.9974 S   0  0  0  0  0  0  0  0  0  0  0  0
   14.8428   24.0197   18.2254 O   0  0  0  0  0  0  0  0  0  0  0  0
   15.6553   21.7531   19.0525 O   0  0  0  0  0  0  0  0  0  0  0  0
   14.1116   21.0139   14.1005 C   0  0  0  0  0  0  0  0  0  0  0  0
   13.4297   20.7838   15.2933 C   0  0  0  0  0  0  0  0  0  0  0  0
   13.9189   21.2604   16.5038 C   0  0  0  0  0  0  0  0  0  0  0  0
   15.0663   22.0507   16.5200 C   0  0  0  0  0  0  0  0  0  0  0  0
   15.7762   22.1985   15.3446 C   0  0  0  0  0  0  0  0  0  0  0  0
   15.3502   21.6564   14.1337 C   0  0  0  0  0  0  0  0  0  0  0  0
   13.5561   20.5464   12.9452 O   0  0  0  0  0  0  0  0  0  0  0  0
   12.8903   19.3165   13.1277 C   0  0  0  0  0  0  0  0  0  0  0  0
   18.1940   22.2956   18.3718 C   0  0  0  0  0  0  0  0  0  0  0  0
   18.9146   22.7651   19.6323 C   0  0  0  0  0  0  0  0  0  0  0  0
   18.1972   23.8537   20.4250 C   0  0  0  0  0  0  0  0  0  0  0  0
   19.1290   21.5509   20.5576 C   0  0  0  0  0  0  0  0  0  0  0  0
   19.9035   25.4939   15.5605 C   0  0  0  0  0  0  0  0  0  0  0  0
   22.1537   26.6658   15.5288 C   0  0  0  0  0  0  0  0  0  0  0  0
   23.0467   27.6582   15.1155 C   0  0  0  0  0  0  0  0  0  0  0  0
   22.6083   28.5572   14.1458 C   0  0  0  0  0  0  0  0  0  0  0  0
   21.2956   28.5103   13.6977 C   0  0  0  0  0  0  0  0  0  0  0  0
   20.4111   27.5211   14.1289 C   0  0  0  0  0  0  0  0  0  0  0  0
   20.8534   26.5968   15.0505 C   0  0  0  0  0  0  0  0  0  0  0  0
 27 26  2  0  0  0
 32 26  1  0  0  0
 26 31  1  0  0  0
 27 28  1  0  0  0
 28 29  2  0  0  0
 29 30  1  0  0  0
 29 23  1  0  0  0
 31 30  2  0  0  0
 24 23  2  0  0  0
 23 25  2  0  0  0
 23 22  1  0  0  0
 22 21  1  0  0  0
 22 34  1  0  0  0
 34 35  1  0  0  0
 36 35  1  0  0  0
 35 37  1  0  0  0
 21 18  1  0  0  0
  1 18  1  0  0  0
 18 19  1  0  0  0
 38  1  1  0  0  0
  1  2  1  0  0  0
  2  3  1  0  0  0
  4  3  2  0  0  0
  3  6  1  0  0  0
  6  7  1  0  0  0
 14  7  1  0  0  0
  7  8  1  0  0  0
  9  8  1  0  0  0
 10  9  1  0  0  0
 14 10  1  0  0  0
 11 10  1  0  0  0
 12 11  1  0  0  0
 15 12  1  0  0  0
 13 12  1  0  0  0
 17 13  1  0  0  0
 13 14  1  0  0  0
 44 38  1  0  0  0
 40 39  2  0  0  0
 39 44  1  0  0  0
 41 40  1  0  0  0
 41 42  2  0  0  0
 42 43  1  0  0  0
 43 44  2  0  0  0
 32 33  1  0  0  0
 16 15  1  0  0  0
 17 16  1  0  0  0
 19 20  1  0  0  0
  2  5  1  0  0  0
M  END
> <minimizedAffinity>
-8.34831

$$$$
3OK9_G52_A_401


 44 48  0  0  0  0  0  0  0  0999 V2000
   18.4658   24.5796   15.7275 C   0  0  0  0  0  0  0  0  0  0  0  0
   17.2259   23.8879   15.3977 N   0  0  0  0  0  0  0  0  0  0  0  0
   17.0385   22.5715   15.3521 C   0  0  0  0  0  0  0  0  0  0  0  0
   17.9701   21.7844   15.6044 O   0  0  0  0  0  0  0  0  0  0  0  0
   16.4474   24.4526   15.1871 H   0  0  0  0  0  0  0  0  0  0  0  0
   15.7606   22.2222   15.0462 O   0  0  0  0  0  0  0  0  0  0  0  0
   14.7671   23.1241   15.5222 C   0  0  0  0  0  0  0  0  0  0  0  0
   13.6500   23.1467   14.4922 C   0  0  0  0  0  0  0  0  0  0  0  0
   12.8767   21.9595   14.7202 O   0  0  0  0  0  0  0  0  0  0  0  0
   13.0760   21.5367   16.0460 C   0  0  0  0  0  0  0  0  0  0  0  0
   13.7219   20.2496   16.0331 O   0  0  0  0  0  0  0  0  0  0  0  0
   14.8563   20.2238   16.8590 C   0  0  0  0  0  0  0  0  0  0  0  0
   14.9352   21.5797   17.5589 C   0  0  0  0  0  0  0  0  0  0  0  0
   14.0443   22.4847   16.7291 C   0  0  0  0  0  0  0  0  0  0  0  0
   14.6215   19.2390   17.9016 O   0  0  0  0  0  0  0  0  0  0  0  0
   13.7154   19.9196   18.8103 C   0  0  0  0  0  0  0  0  0  0  0  0
   14.3849   21.2903   18.9488 C   0  0  0  0  0  0  0  0  0  0  0  0
   18.7315   24.5486   17.2296 C   0  0  0  0  0  0  0  0  0  0  0  0
   18.6261   25.8583   17.7911 O   0  0  0  0  0  0  0  0  0  0  0  0
   19.3200   26.4258   17.4206 H   0  0  0  0  0  0  0  0  0  0  0  0
   20.0550   23.9155   17.6301 C   0  0  0  0  0  0  0  0  0  0  0  0
   20.7096   24.6882   18.6816 N   0  0  0  0  0  0  0  0  0  0  0  0
   20.4198   24.2522   20.2440 S   0  0  0  0  0  0  0  0  0  0  0  0
   20.4334   22.7618   20.3342 O   0  0  0  0  0  0  0  0  0  0  0  0
   19.1744   24.9535   20.6392 O   0  0  0  0  0  0  0  0  0  0  0  0
   23.7540   25.8962   22.8812 C   0  0  0  0  0  0  0  0  0  0  0  0
   23.8964   24.6515   22.2719 C   0  0  0  0  0  0  0  0  0  0  0  0
   22.8681   24.0994   21.5171 C   0  0  0  0  0  0  0  0  0  0  0  0
   21.7050   24.8339   21.2958 C   0  0  0  0  0  0  0  0  0  0  0  0
   21.5444   26.0262   21.9741 C   0  0  0  0  0  0  0  0  0  0  0  0
   22.5277   26.5585   22.8056 C   0  0  0  0  0  0  0  0  0  0  0  0
   24.8164   26.3926   23.5789 O   0  0  0  0  0  0  0  0  0  0  0  0
   25.2045   25.5488   24.6403 C   0  0  0  0  0  0  0  0  0  0  0  0
   22.0899   25.0589   18.4165 C   0  0  0  0  0  0  0  0  0  0  0  0
   22.3115   26.5355   18.1019 C   0  0  0  0  0  0  0  0  0  0  0  0
   21.1913   27.4711   18.5470 C   0  0  0  0  0  0  0  0  0  0  0  0
   23.6216   26.9907   18.7750 C   0  0  0  0  0  0  0  0  0  0  0  0
   18.3320   25.9924   15.1944 C   0  0  0  0  0  0  0  0  0  0  0  0
   19.8766   27.9984   15.0282 C   0  0  0  0  0  0  0  0  0  0  0  0
   21.1069   28.6199   14.7977 C   0  0  0  0  0  0  0  0  0  0  0  0
   22.2062   27.8015   14.5475 C   0  0  0  0  0  0  0  0  0  0  0  0
   22.0389   26.4283   14.4357 C   0  0  0  0  0  0  0  0  0  0  0  0
   20.8014   25.8226   14.6561 C   0  0  0  0  0  0  0  0  0  0  0  0
   19.7193   26.6221   14.9544 C   0  0  0  0  0  0  0  0  0  0  0  0
 27 26  2  0  0  0
 32 26  1  0  0  0
 26 31  1  0  0  0
 27 28  1  0  0  0
 28 29  2  0  0  0
 29 30  1  0  0  0
 29 23  1  0  0  0
 31 30  2  0  0  0
 24 23  2  0  0  0
 23 25  2  0  0  0
 23 22  1  0  0  0
 22 21  1  0  0  0
 22 34  1  0  0  0
 34 35  1  0  0  0
 36 35  1  0  0  0
 35 37  1  0  0  0
 21 18  1  0  0  0
  1 18  1  0  0  0
 18 19  1  0  0  0
 38  1  1  0  0  0
  1  2  1  0  0  0
  2  3  1  0  0  0
  4  3  2  0  0  0
  3  6  1  0  0  0
  6  7  1  0  0  0
 14  7  1  0  0  0
  7  8  1  0  0  0
  9  8  1  0  0  0
 10  9  1  0  0  0
 14 10  1  0  0  0
 11 10  1  0  0  0
 12 11  1  0  0  0
 15 12  1  0  0  0
 13 12  1  0  0  0
 17 13  1  0  0  0
 13 14  1  0  0  0
 44 38  1  0  0  0
 40 39  2  0  0  0
 39 44  1  0  0  0
 41 40  1  0  0  0
 41 42  2  0  0  0
 42 43  1  0  0  0
 43 44  2  0  0  0
 32 33  1  0  0  0
 16 15  1  0  0  0
 17 16  1  0  0  0
 19 20  1  0  0  0
  2  5  1  0  0  0
M  END
> <minimizedAffinity>
-8.34595

$$$$
3OK9_G52_A_401


 44 48  0  0  0  0  0  0  0  0999 V2000
   19.3856   24.4119   19.1929 C   0  0  0  0  0  0  0  0  0  0  0  0
   19.7291   25.4591   18.2388 N   0  0  0  0  0  0  0  0  0  0  0  0
   19.8951   25.3149   16.9267 C   0  0  0  0  0  0  0  0  0  0  0  0
   19.7601   24.2020   16.3840 O   0  0  0  0  0  0  0  0  0  0  0  0
   19.8508   26.3657   18.6026 H   0  0  0  0  0  0  0  0  0  0  0  0
   20.1799   26.4825   16.2909 O   0  0  0  0  0  0  0  0  0  0  0  0
   20.4694   26.3491   14.9032 C   0  0  0  0  0  0  0  0  0  0  0  0
   19.5688   27.3222   14.1607 C   0  0  0  0  0  0  0  0  0  0  0  0
   20.1781   28.6137   14.3033 O   0  0  0  0  0  0  0  0  0  0  0  0
   21.5479   28.4415   14.5683 C   0  0  0  0  0  0  0  0  0  0  0  0
   21.8369   28.9541   15.8827 O   0  0  0  0  0  0  0  0  0  0  0  0
   22.5413   28.0257   16.6645 C   0  0  0  0  0  0  0  0  0  0  0  0
   22.8316   26.8168   15.7765 C   0  0  0  0  0  0  0  0  0  0  0  0
   21.8611   26.9576   14.6191 C   0  0  0  0  0  0  0  0  0  0  0  0
   23.8306   28.6113   16.9915 O   0  0  0  0  0  0  0  0  0  0  0  0
   24.5882   28.4673   15.7604 C   0  0  0  0  0  0  0  0  0  0  0  0
   24.2879   27.0146   15.3785 C   0  0  0  0  0  0  0  0  0  0  0  0
   17.8768   24.3338   19.4058 C   0  0  0  0  0  0  0  0  0  0  0  0
   17.5280   24.7521   20.7269 O   0  0  0  0  0  0  0  0  0  0  0  0
   17.9094   24.1364   21.3722 H   0  0  0  0  0  0  0  0  0  0  0  0
   17.2606   22.9752   19.1103 C   0  0  0  0  0  0  0  0  0  0  0  0
   16.9501   22.8372   17.6905 N   0  0  0  0  0  0  0  0  0  0  0  0
   16.7718   21.3126   17.0915 S   0  0  0  0  0  0  0  0  0  0  0  0
   17.6327   20.3846   17.8836 O   0  0  0  0  0  0  0  0  0  0  0  0
   17.0288   21.4136   15.6346 O   0  0  0  0  0  0  0  0  0  0  0  0
   12.5332   19.7450   17.6843 C   0  0  0  0  0  0  0  0  0  0  0  0
   12.9592   20.1420   16.4188 C   0  0  0  0  0  0  0  0  0  0  0  0
   14.2239   20.6847   16.2241 C   0  0  0  0  0  0  0  0  0  0  0  0
   15.1135   20.7599   17.2938 C   0  0  0  0  0  0  0  0  0  0  0  0
   14.6490   20.4426   18.5552 C   0  0  0  0  0  0  0  0  0  0  0  0
   13.3560   19.9780   18.7873 C   0  0  0  0  0  0  0  0  0  0  0  0
   11.2922   19.1888   17.7966 O   0  0  0  0  0  0  0  0  0  0  0  0
   10.3881   19.6930   16.8388 C   0  0  0  0  0  0  0  0  0  0  0  0
   15.9922   23.7958   17.1650 C   0  0  0  0  0  0  0  0  0  0  0  0
   16.0204   23.9704   15.6494 C   0  0  0  0  0  0  0  0  0  0  0  0
   14.6606   23.9014   14.9607 C   0  0  0  0  0  0  0  0  0  0  0  0
   16.6623   25.3334   15.3229 C   0  0  0  0  0  0  0  0  0  0  0  0
   20.1334   24.7265   20.4734 C   0  0  0  0  0  0  0  0  0  0  0  0
   22.0361   23.5416   19.2845 C   0  0  0  0  0  0  0  0  0  0  0  0
   23.3603   23.1161   19.1485 C   0  0  0  0  0  0  0  0  0  0  0  0
   24.2757   23.5389   20.1098 C   0  0  0  0  0  0  0  0  0  0  0  0
   23.8430   24.2703   21.2071 C   0  0  0  0  0  0  0  0  0  0  0  0
   22.5146   24.6774   21.3361 C   0  0  0  0  0  0  0  0  0  0  0  0
   21.6131   24.3058   20.3623 C   0  0  0  0  0  0  0  0  0  0  0  0
 27 26  2  0  0  0
 32 26  1  0  0  0
 26 31  1  0  0  0
 27 28  1  0  0  0
 28 29  2  0  0  0
 29 30  1  0  0  0
 29 23  1  0  0  0
 31 30  2  0  0  0
 24 23  2  0  0  0
 23 25  2  0  0  0
 23 22  1  0  0  0
 22 21  1  0  0  0
 22 34  1  0  0  0
 34 35  1  0  0  0
 36 35  1  0  0  0
 35 37  1  0  0  0
 21 18  1  0  0  0
  1 18  1  0  0  0
 18 19  1  0  0  0
 38  1  1  0  0  0
  1  2  1  0  0  0
  2  3  1  0  0  0
  4  3  2  0  0  0
  3  6  1  0  0  0
  6  7  1  0  0  0
 14  7  1  0  0  0
  7  8  1  0  0  0
  9  8  1  0  0  0
 10  9  1  0  0  0
 14 10  1  0  0  0
 11 10  1  0  0  0
 12 11  1  0  0  0
 15 12  1  0  0  0
 13 12  1  0  0  0
 17 13  1  0  0  0
 13 14  1  0  0  0
 44 38  1  0  0  0
 40 39  2  0  0  0
 39 44  1  0  0  0
 41 40  1  0  0  0
 41 42  2  0  0  0
 42 43  1  0  0  0
 43 44  2  0  0  0
 32 33  1  0  0  0
 16 15  1  0  0  0
 17 16  1  0  0  0
 19 20  1  0  0  0
  2  5  1  0  0  0
M  END
> <minimizedAffinity>
-8.32460

$$$$
