1F0U_RPR_A_501
  RCSB PDB12061702263D
Coordinates from PDB:1F0U:A:501 Model:1 without hydrogens
 34 36  0  0  0  0            999 V2000
   12.5050  -14.8710   23.4830   C 0  0  0  0  0  0  0  0  0  0  0  0
   12.9090  -13.6110   23.8810   C 0  0  0  0  0  0  0  0  0  0  0  0
   14.0530  -13.5150   24.6540   C 0  0  0  0  0  0  0  0  0  0  0  0
   14.7690  -14.6360   25.0460   C 0  0  0  0  0  0  0  0  0  0  0  0
   14.3500  -15.8940   24.6550   C 0  0  0  0  0  0  0  0  0  0  0  0
   13.2170  -16.0130   23.8570   C 0  0  0  0  0  0  0  0  0  0  0  0
   10.0850  -11.2180   22.9830   C 0  0  0  0  0  0  0  0  0  0  0  0
   10.7820  -10.0770   22.5860   C 0  0  0  0  0  0  0  0  0  0  0  0
   12.1730  -10.1120   22.6430   C 0  0  0  0  0  0  0  0  0  0  0  0
   12.8400  -11.2490   23.0750   C 0  0  0  0  0  0  0  0  0  0  0  0
   12.1550  -12.3870   23.4590   C 0  0  0  0  0  0  0  0  0  0  0  0
   10.7710  -12.3550   23.4140   C 0  0  0  0  0  0  0  0  0  0  0  0
   10.0600   -8.8680   22.1450   C 0  0  0  0  0  0  0  0  0  0  0  0
   10.7800   -8.0000   21.3880   N 0  0  0  0  0  0  0  0  0  0  0  0
   10.2840   -6.6780   21.0060   C 0  0  0  0  0  0  0  0  0  0  0  0
   10.7870   -6.3510   19.5940   C 0  0  0  0  0  0  0  0  0  0  0  0
   10.7310   -5.6350   22.0590   C 0  0  0  0  0  0  0  0  0  0  0  0
   10.0810   -4.2890   21.6970   C 0  0  0  0  0  0  0  0  0  0  0  0
    8.6550   -4.3630   21.6680   O 0  0  0  0  0  0  0  0  0  0  0  0
   12.2730   -5.5160   22.1310   C 0  0  0  0  0  0  0  0  0  0  0  0
   12.7840  -17.3630   23.3610   C 0  0  0  0  0  0  0  0  0  0  0  0
   13.2850  -17.6150   22.0060   N 0  0  0  0  0  0  0  0  0  0  0  0
   12.2570   -4.5180   24.4810   C 0  0  0  0  0  0  0  0  0  0  0  0
   12.8600   -3.7520   25.4860   C 0  0  0  0  0  0  0  0  0  0  0  0
   14.0610   -3.0960   25.2170   C 0  0  0  0  0  0  0  0  0  0  0  0
   14.6290   -3.1830   23.9560   C 0  0  0  0  0  0  0  0  0  0  0  0
   14.0180   -3.9360   22.9640   C 0  0  0  0  0  0  0  0  0  0  0  0
   12.8390   -4.6300   23.2170   C 0  0  0  0  0  0  0  0  0  0  0  0
   12.2420   -3.6320   26.8170   C 0  0  0  0  0  0  0  0  0  0  0  0
   12.9490   -3.2590   27.8790   N 0  0  0  0  0  0  0  0  0  0  0  0
   10.9350   -3.9120   26.9630   N 0  0  0  0  0  0  0  0  0  0  0  0
   10.6790   -3.2860   21.4430   O 0  0  0  0  0  0  0  0  0  0  0  0
    8.8920   -8.6520   22.4350   O 0  0  0  0  0  0  0  0  0  0  0  0
    7.9040   -3.2530   21.1650   C 0  0  0  0  0  0  0  0  0  0  0  0
  1  2  2  0  0  0  0
  1  6  1  0  0  0  0
  2  3  1  0  0  0  0
  2 11  1  0  0  0  0
  3  4  2  0  0  0  0
  4  5  1  0  0  0  0
  5  6  2  0  0  0  0
  6 21  1  0  0  0  0
  7  8  2  0  0  0  0
  7 12  1  0  0  0  0
  8  9  1  0  0  0  0
  8 13  1  0  0  0  0
  9 10  2  0  0  0  0
 10 11  1  0  0  0  0
 11 12  2  0  0  0  0
 13 14  1  0  0  0  0
 13 33  2  0  0  0  0
 14 15  1  0  0  0  0
 15 16  1  0  0  0  0
 15 17  1  0  0  0  0
 17 18  1  0  0  0  0
 17 20  1  0  0  0  0
 18 19  1  0  0  0  0
 18 32  2  0  0  0  0
 19 34  1  0  0  0  0
 20 28  1  0  0  0  0
 21 22  1  0  0  0  0
 23 24  2  0  0  0  0
 23 28  1  0  0  0  0
 24 25  1  0  0  0  0
 24 29  1  0  0  0  0
 25 26  2  0  0  0  0
 26 27  1  0  0  0  0
 27 28  2  0  0  0  0
 29 30  1  0  0  0  0
 29 31  2  0  0  0  0
A    1
C1
A    2
C2
A    3
C3
A    4
C4
A    5
C5
A    6
C6
A    7
C7
A    8
C8
A    9
C9
A   10
C10
A   11
C11
A   12
C12
A   13
C13
A   14
N14
A   15
C15
A   16
C16
A   17
C17
A   18
C18
A   19
O19
A   20
C20
A   21
C21
A   22
N22
A   23
C23
A   24
C24
A   25
C25
A   26
C26
A   27
C27
A   28
C28
A   29
C29
A   30
N30
A   31
N31
A   32
O32
A   33
O33
A   34
C34
M  END
>  <InstanceId>
1F0U_RPR_A_501

>  <ChemCompId>
RPR

>  <PdbId>
1F0U

>  <ChainId>
A

>  <ResidueNumber>
501

>  <InsertionCode>


>  <Model>
1

>  <AltIds>


>  <MissingHeavyAtoms>
0

>  <ObservedFormula>
C27 N4 O3

>  <Name>
3-[(3'-AMINOMETHYL-BIPHENYL-4-CARBONYL)-AMINO]-2-(3-CARBAMIMIDOYL-BENZYL)-BUTYRIC ACID METHYL ESTER

>  <SystematicName>
methyl (2R,3R)-3-[[4-[3-(aminomethyl)phenyl]phenyl]carbonylamino]-2-[(3-carbamimidoylphenyl)methyl]butanoate

>  <Synonyms>
RPR128515

>  <Type>
NON-POLYMER

>  <Formula>
C27 H30 N4 O3

>  <MolecularWeight>
458.552

>  <ModifiedDate>
2011-06-04

>  <Parent>


>  <OneLetterCode>


>  <SubcomponentList>


>  <AmbiguousFlag>
N

>  <InChI>
InChI=1S/C27H30N4O3/c1-17(24(27(33)34-2)15-18-5-3-8-23(13-18)25(29)30)31-26(32)21-11-9-20(10-12-21)22-7-4-6-19(14-22)16-28/h3-14,17,24H,15-16,28H2,1-2H3,(H3,29,30)(H,31,32)/t17-,24-/m1/s1

>  <InChIKey>
XFKVLKLCLYJKNF-MZNJEOGPSA-N

>  <SMILES>
C[C@H]([C@@H](Cc1cccc(c1)C(=N)N)C(=O)OC)NC(=O)c2ccc(cc2)c3cccc(c3)CN

$$$$
