1NHU_153_A_5001


 34 36  0  0  0  0  0  0  0  0999 V2000
    8.3049   36.1370   77.6381 N   0  0  0  0  0  0  0  0  0  0  0  0
    9.2466   35.1224   77.9763 C   0  0  0  0  0  0  0  0  0  0  0  0
   10.1262   35.2943   78.8045 O   0  0  0  0  0  0  0  0  0  0  0  0
    9.1976   33.7352   77.3432 C   0  0  0  0  0  0  0  0  0  0  0  0
    9.7729   33.5805   76.0515 C   0  0  0  0  0  0  0  0  0  0  0  0
    9.7642   32.3128   75.4246 C   0  0  0  0  0  0  0  0  0  0  0  0
    9.1785   31.2006   76.0906 C   0  0  0  0  0  0  0  0  0  0  0  0
    8.6068   31.3534   77.3803 C   0  0  0  0  0  0  0  0  0  0  0  0
    8.6119   32.6125   78.0137 C   0  0  0  0  0  0  0  0  0  0  0  0
    9.1615   29.6621   75.3300 Cl  0  0  0  0  0  0  0  0  0  0  0  0
    7.9128   32.7457   79.5913 Cl  0  0  0  0  0  0  0  0  0  0  0  0
    7.6514   36.2051   76.2443 C   0  0  0  0  0  0  0  0  0  0  0  0
    7.8265   37.5906   75.5117 C   0  0  0  0  0  0  0  0  0  0  0  0
    8.9867   38.0146   75.2689 O   0  0  0  0  0  0  0  0  0  0  0  0
    6.8074   38.2407   75.2086 O   0  0  0  0  0  0  0  0  0  0  0  0
    5.9576   37.8972   75.4030 H   0  0  0  0  0  0  0  0  0  0  0  0
    6.1361   35.7747   76.2533 C   0  0  0  0  0  0  0  0  0  0  0  0
    5.8197   34.2832   76.2173 C   0  0  0  0  0  0  0  0  0  0  0  0
    6.1543   33.5180   75.0441 C   0  0  0  0  0  0  0  0  0  0  0  0
    5.8704   32.1283   74.9656 C   0  0  0  0  0  0  0  0  0  0  0  0
    5.2409   31.4793   76.0659 C   0  0  0  0  0  0  0  0  0  0  0  0
    4.9024   32.2203   77.2360 C   0  0  0  0  0  0  0  0  0  0  0  0
    5.1909   33.6092   77.3095 C   0  0  0  0  0  0  0  0  0  0  0  0
    7.9333   37.2123   78.6716 C   0  0  0  0  0  0  0  0  0  0  0  0
    6.4275   37.3330   79.0711 C   0  0  0  0  0  0  0  0  0  0  0  0
    5.7558   36.2984   79.8072 C   0  0  0  0  0  0  0  0  0  0  0  0
    4.3838   36.3967   80.1742 C   0  0  0  0  0  0  0  0  0  0  0  0
    3.6109   37.5244   79.8314 C   0  0  0  0  0  0  0  0  0  0  0  0
    4.2495   38.5687   79.1085 C   0  0  0  0  0  0  0  0  0  0  0  0
    5.6432   38.4807   78.7285 C   0  0  0  0  0  0  0  0  0  0  0  0
    3.4681   39.8350   78.7039 C   0  0  0  0  0  0  0  0  0  0  0  0
    4.0068   40.3775   77.6009 F   0  0  0  0  0  0  0  0  0  0  0  0
    3.4912   40.7667   79.6807 F   0  0  0  0  0  0  0  0  0  0  0  0
    2.1828   39.5484   78.4463 F   0  0  0  0  0  0  0  0  0  0  0  0
  1 12  1  0  0  0
  1  2  1  0  0  0
  1 24  1  0  0  0
 12 13  1  0  0  0
 12 17  1  0  0  0
 13 14  2  0  0  0
 13 15  1  0  0  0
  2  3  2  0  0  0
  2  4  1  0  0  0
  4  5  2  0  0  0
  4  9  1  0  0  0
  5  6  1  0  0  0
  6  7  2  0  0  0
  7  8  1  0  0  0
  7 10  1  0  0  0
  8  9  2  0  0  0
  9 11  1  0  0  0
 17 18  1  0  0  0
 18 19  2  0  0  0
 18 23  1  0  0  0
 19 20  1  0  0  0
 20 21  2  0  0  0
 21 22  1  0  0  0
 22 23  2  0  0  0
 24 25  1  0  0  0
 25 26  2  0  0  0
 25 30  1  0  0  0
 26 27  1  0  0  0
 27 28  2  0  0  0
 28 29  1  0  0  0
 29 30  2  0  0  0
 29 31  1  0  0  0
 31 32  1  0  0  0
 31 33  1  0  0  0
 31 34  1  0  0  0
 15 16  1  0  0  0
M  END
> <minimizedAffinity>
-7.30875

$$$$
1NHU_153_A_5001


 34 36  0  0  0  0  0  0  0  0999 V2000
    8.1916   36.2695   77.6820 N   0  0  0  0  0  0  0  0  0  0  0  0
    9.1101   35.2610   78.0942 C   0  0  0  0  0  0  0  0  0  0  0  0
    9.9507   35.4533   78.9577 O   0  0  0  0  0  0  0  0  0  0  0  0
    9.0827   33.8558   77.5007 C   0  0  0  0  0  0  0  0  0  0  0  0
    9.7072   33.6627   76.2373 C   0  0  0  0  0  0  0  0  0  0  0  0
    9.7201   32.3771   75.6480 C   0  0  0  0  0  0  0  0  0  0  0  0
    9.1066   31.2856   76.3231 C   0  0  0  0  0  0  0  0  0  0  0  0
    8.4856   31.4768   77.5846 C   0  0  0  0  0  0  0  0  0  0  0  0
    8.4690   32.7540   78.1806 C   0  0  0  0  0  0  0  0  0  0  0  0
    9.1157   29.7254   75.6079 Cl  0  0  0  0  0  0  0  0  0  0  0  0
    7.7095   32.9343   79.7252 Cl  0  0  0  0  0  0  0  0  0  0  0  0
    7.6050   36.2992   76.2575 C   0  0  0  0  0  0  0  0  0  0  0  0
    7.8274   37.6597   75.4916 C   0  0  0  0  0  0  0  0  0  0  0  0
    9.0020   38.0548   75.2701 O   0  0  0  0  0  0  0  0  0  0  0  0
    6.8300   38.3197   75.1415 O   0  0  0  0  0  0  0  0  0  0  0  0
    5.9686   37.9979   75.3213 H   0  0  0  0  0  0  0  0  0  0  0  0
    6.0870   35.8813   76.2081 C   0  0  0  0  0  0  0  0  0  0  0  0
    5.7570   34.3929   76.2445 C   0  0  0  0  0  0  0  0  0  0  0  0
    6.1267   33.5597   75.1295 C   0  0  0  0  0  0  0  0  0  0  0  0
    5.8317   32.1701   75.1189 C   0  0  0  0  0  0  0  0  0  0  0  0
    5.1558   31.5896   76.2298 C   0  0  0  0  0  0  0  0  0  0  0  0
    4.7821   32.3984   77.3429 C   0  0  0  0  0  0  0  0  0  0  0  0
    5.0818   33.7869   77.3487 C   0  0  0  0  0  0  0  0  0  0  0  0
    7.7782   37.3768   78.6647 C   0  0  0  0  0  0  0  0  0  0  0  0
    6.2578   37.5055   79.0016 C   0  0  0  0  0  0  0  0  0  0  0  0
    5.4997   38.6707   78.6396 C   0  0  0  0  0  0  0  0  0  0  0  0
    4.1149   38.7997   78.9438 C   0  0  0  0  0  0  0  0  0  0  0  0
    3.4135   37.7810   79.6198 C   0  0  0  0  0  0  0  0  0  0  0  0
    4.1352   36.6119   79.9852 C   0  0  0  0  0  0  0  0  0  0  0  0
    5.5432   36.4688   79.6829 C   0  0  0  0  0  0  0  0  0  0  0  0
    3.4323   35.4540   80.7222 C   0  0  0  0  0  0  0  0  0  0  0  0
    2.2294   35.2205   80.1748 F   0  0  0  0  0  0  0  0  0  0  0  0
    3.2479   35.7360   82.0295 F   0  0  0  0  0  0  0  0  0  0  0  0
    4.1538   34.3250   80.6481 F   0  0  0  0  0  0  0  0  0  0  0  0
  1 12  1  0  0  0
  1  2  1  0  0  0
  1 24  1  0  0  0
 12 13  1  0  0  0
 12 17  1  0  0  0
 13 14  2  0  0  0
 13 15  1  0  0  0
  2  3  2  0  0  0
  2  4  1  0  0  0
  4  5  2  0  0  0
  4  9  1  0  0  0
  5  6  1  0  0  0
  6  7  2  0  0  0
  7  8  1  0  0  0
  7 10  1  0  0  0
  8  9  2  0  0  0
  9 11  1  0  0  0
 17 18  1  0  0  0
 18 19  2  0  0  0
 18 23  1  0  0  0
 19 20  1  0  0  0
 20 21  2  0  0  0
 21 22  1  0  0  0
 22 23  2  0  0  0
 24 25  1  0  0  0
 25 26  2  0  0  0
 25 30  1  0  0  0
 26 27  1  0  0  0
 27 28  2  0  0  0
 28 29  1  0  0  0
 29 30  2  0  0  0
 29 31  1  0  0  0
 31 32  1  0  0  0
 31 33  1  0  0  0
 31 34  1  0  0  0
 15 16  1  0  0  0
M  END
> <minimizedAffinity>
-7.14570

$$$$
1NHU_153_A_5001


 34 36  0  0  0  0  0  0  0  0999 V2000
    7.2487   33.7545   79.1365 N   0  0  0  0  0  0  0  0  0  0  0  0
    7.7415   35.0787   79.3220 C   0  0  0  0  0  0  0  0  0  0  0  0
    8.0579   35.5128   80.4177 O   0  0  0  0  0  0  0  0  0  0  0  0
    7.9360   36.0368   78.1507 C   0  0  0  0  0  0  0  0  0  0  0  0
    9.1303   35.9104   77.3884 C   0  0  0  0  0  0  0  0  0  0  0  0
    9.3545   36.7663   76.2850 C   0  0  0  0  0  0  0  0  0  0  0  0
    8.3837   37.7493   75.9461 C   0  0  0  0  0  0  0  0  0  0  0  0
    7.1909   37.8743   76.7044 C   0  0  0  0  0  0  0  0  0  0  0  0
    6.9578   37.0249   77.8049 C   0  0  0  0  0  0  0  0  0  0  0  0
    8.6556   38.7931   74.6111 Cl  0  0  0  0  0  0  0  0  0  0  0  0
    5.4829   37.2086   78.6915 Cl  0  0  0  0  0  0  0  0  0  0  0  0
    6.2848   33.4012   77.9874 C   0  0  0  0  0  0  0  0  0  0  0  0
    4.7626   33.6488   78.3170 C   0  0  0  0  0  0  0  0  0  0  0  0
    4.4366   34.0104   79.4779 O   0  0  0  0  0  0  0  0  0  0  0  0
    3.9176   33.4603   77.4206 O   0  0  0  0  0  0  0  0  0  0  0  0
    4.1928   33.1913   76.5663 H   0  0  0  0  0  0  0  0  0  0  0  0
    6.4978   31.9426   77.4318 C   0  0  0  0  0  0  0  0  0  0  0  0
    7.7375   31.6779   76.5841 C   0  0  0  0  0  0  0  0  0  0  0  0
    8.3274   32.7592   75.8379 C   0  0  0  0  0  0  0  0  0  0  0  0
    9.4777   32.5548   75.0297 C   0  0  0  0  0  0  0  0  0  0  0  0
   10.0577   31.2564   74.9535 C   0  0  0  0  0  0  0  0  0  0  0  0
    9.4880   30.1735   75.6853 C   0  0  0  0  0  0  0  0  0  0  0  0
    8.3391   30.3846   76.4935 C   0  0  0  0  0  0  0  0  0  0  0  0
    7.6632   32.6396   80.1100 C   0  0  0  0  0  0  0  0  0  0  0  0
    8.9754   31.8556   79.7858 C   0  0  0  0  0  0  0  0  0  0  0  0
    9.1556   30.4870   80.1829 C   0  0  0  0  0  0  0  0  0  0  0  0
   10.3477   29.7640   79.8950 C   0  0  0  0  0  0  0  0  0  0  0  0
   11.4184   30.3605   79.1991 C   0  0  0  0  0  0  0  0  0  0  0  0
   11.2672   31.7124   78.7864 C   0  0  0  0  0  0  0  0  0  0  0  0
   10.0610   32.4589   79.0736 C   0  0  0  0  0  0  0  0  0  0  0  0
   12.3948   32.4287   78.0160 C   0  0  0  0  0  0  0  0  0  0  0  0
   13.1043   33.2041   78.8506 F   0  0  0  0  0  0  0  0  0  0  0  0
   11.9043   33.2138   77.0332 F   0  0  0  0  0  0  0  0  0  0  0  0
   13.2311   31.5449   77.4505 F   0  0  0  0  0  0  0  0  0  0  0  0
  1 12  1  0  0  0
  1  2  1  0  0  0
  1 24  1  0  0  0
 12 13  1  0  0  0
 12 17  1  0  0  0
 13 14  2  0  0  0
 13 15  1  0  0  0
  2  3  2  0  0  0
  2  4  1  0  0  0
  4  5  2  0  0  0
  4  9  1  0  0  0
  5  6  1  0  0  0
  6  7  2  0  0  0
  7  8  1  0  0  0
  7 10  1  0  0  0
  8  9  2  0  0  0
  9 11  1  0  0  0
 17 18  1  0  0  0
 18 19  2  0  0  0
 18 23  1  0  0  0
 19 20  1  0  0  0
 20 21  2  0  0  0
 21 22  1  0  0  0
 22 23  2  0  0  0
 24 25  1  0  0  0
 25 26  2  0  0  0
 25 30  1  0  0  0
 26 27  1  0  0  0
 27 28  2  0  0  0
 28 29  1  0  0  0
 29 30  2  0  0  0
 29 31  1  0  0  0
 31 32  1  0  0  0
 31 33  1  0  0  0
 31 34  1  0  0  0
 15 16  1  0  0  0
M  END
> <minimizedAffinity>
-6.61665

$$$$
1NHU_153_A_5001


 34 36  0  0  0  0  0  0  0  0999 V2000
    7.4966   36.6041   78.0796 N   0  0  0  0  0  0  0  0  0  0  0  0
    8.4589   35.9396   78.8938 C   0  0  0  0  0  0  0  0  0  0  0  0
    8.8507   36.4002   79.9538 O   0  0  0  0  0  0  0  0  0  0  0  0
    9.0437   34.5849   78.5059 C   0  0  0  0  0  0  0  0  0  0  0  0
   10.0089   34.5594   77.4614 C   0  0  0  0  0  0  0  0  0  0  0  0
   10.5907   33.3309   77.0709 C   0  0  0  0  0  0  0  0  0  0  0  0
   10.2051   32.1282   77.7254 C   0  0  0  0  0  0  0  0  0  0  0  0
    9.2443   32.1531   78.7694 C   0  0  0  0  0  0  0  0  0  0  0  0
    8.6599   33.3727   79.1665 C   0  0  0  0  0  0  0  0  0  0  0  0
   10.9053   30.6351   77.2500 Cl  0  0  0  0  0  0  0  0  0  0  0  0
    7.5015   33.3530   80.4521 Cl  0  0  0  0  0  0  0  0  0  0  0  0
    7.4647   36.4231   76.5497 C   0  0  0  0  0  0  0  0  0  0  0  0
    7.4532   37.7739   75.7358 C   0  0  0  0  0  0  0  0  0  0  0  0
    8.5471   38.2878   75.3832 O   0  0  0  0  0  0  0  0  0  0  0  0
    6.3574   38.3089   75.4790 O   0  0  0  0  0  0  0  0  0  0  0  0
    5.5606   37.9007   75.7554 H   0  0  0  0  0  0  0  0  0  0  0  0
    6.3006   35.4787   76.0656 C   0  0  0  0  0  0  0  0  0  0  0  0
    6.5959   33.9871   75.9496 C   0  0  0  0  0  0  0  0  0  0  0  0
    5.9255   33.0636   76.8281 C   0  0  0  0  0  0  0  0  0  0  0  0
    6.1768   31.6671   76.7591 C   0  0  0  0  0  0  0  0  0  0  0  0
    7.1106   31.1703   75.8056 C   0  0  0  0  0  0  0  0  0  0  0  0
    7.7838   32.0692   74.9272 C   0  0  0  0  0  0  0  0  0  0  0  0
    7.5267   33.4643   74.9994 C   0  0  0  0  0  0  0  0  0  0  0  0
    6.4670   37.5458   78.7245 C   0  0  0  0  0  0  0  0  0  0  0  0
    5.1257   36.9129   79.2165 C   0  0  0  0  0  0  0  0  0  0  0  0
    4.0402   37.7216   79.6971 C   0  0  0  0  0  0  0  0  0  0  0  0
    2.8149   37.1556   80.1501 C   0  0  0  0  0  0  0  0  0  0  0  0
    2.6047   35.7619   80.1479 C   0  0  0  0  0  0  0  0  0  0  0  0
    3.6583   34.9351   79.6712 C   0  0  0  0  0  0  0  0  0  0  0  0
    4.9091   35.4978   79.2090 C   0  0  0  0  0  0  0  0  0  0  0  0
    3.4977   33.4019   79.6346 C   0  0  0  0  0  0  0  0  0  0  0  0
    2.6591   33.0020   80.6030 F   0  0  0  0  0  0  0  0  0  0  0  0
    4.6784   32.7739   79.8199 F   0  0  0  0  0  0  0  0  0  0  0  0
    3.0022   32.9957   78.4556 F   0  0  0  0  0  0  0  0  0  0  0  0
  1 12  1  0  0  0
  1  2  1  0  0  0
  1 24  1  0  0  0
 12 13  1  0  0  0
 12 17  1  0  0  0
 13 14  2  0  0  0
 13 15  1  0  0  0
  2  3  2  0  0  0
  2  4  1  0  0  0
  4  5  2  0  0  0
  4  9  1  0  0  0
  5  6  1  0  0  0
  6  7  2  0  0  0
  7  8  1  0  0  0
  7 10  1  0  0  0
  8  9  2  0  0  0
  9 11  1  0  0  0
 17 18  1  0  0  0
 18 19  2  0  0  0
 18 23  1  0  0  0
 19 20  1  0  0  0
 20 21  2  0  0  0
 21 22  1  0  0  0
 22 23  2  0  0  0
 24 25  1  0  0  0
 25 26  2  0  0  0
 25 30  1  0  0  0
 26 27  1  0  0  0
 27 28  2  0  0  0
 28 29  1  0  0  0
 29 30  2  0  0  0
 29 31  1  0  0  0
 31 32  1  0  0  0
 31 33  1  0  0  0
 31 34  1  0  0  0
 15 16  1  0  0  0
M  END
> <minimizedAffinity>
-6.61489

$$$$
1NHU_153_A_5001


 34 36  0  0  0  0  0  0  0  0999 V2000
    6.8940   35.2538   76.5685 N   0  0  0  0  0  0  0  0  0  0  0  0
    5.7595   34.6462   77.1802 C   0  0  0  0  0  0  0  0  0  0  0  0
    4.9654   33.9622   76.5550 O   0  0  0  0  0  0  0  0  0  0  0  0
    5.4780   34.7866   78.6731 C   0  0  0  0  0  0  0  0  0  0  0  0
    4.8567   35.9873   79.1156 C   0  0  0  0  0  0  0  0  0  0  0  0
    4.5633   36.1632   80.4879 C   0  0  0  0  0  0  0  0  0  0  0  0
    4.8932   35.1376   81.4168 C   0  0  0  0  0  0  0  0  0  0  0  0
    5.5105   33.9384   80.9759 C   0  0  0  0  0  0  0  0  0  0  0  0
    5.8055   33.7533   79.6101 C   0  0  0  0  0  0  0  0  0  0  0  0
    4.5435   35.3505   83.0836 Cl  0  0  0  0  0  0  0  0  0  0  0  0
    6.5482   32.2689   79.1198 Cl  0  0  0  0  0  0  0  0  0  0  0  0
    7.5050   36.5606   77.1100 C   0  0  0  0  0  0  0  0  0  0  0  0
    7.5419   37.7420   76.0659 C   0  0  0  0  0  0  0  0  0  0  0  0
    8.6518   38.1281   75.6145 O   0  0  0  0  0  0  0  0  0  0  0  0
    6.4680   38.2768   75.7288 O   0  0  0  0  0  0  0  0  0  0  0  0
    5.6582   37.9658   76.0830 H   0  0  0  0  0  0  0  0  0  0  0  0
    8.9259   36.3537   77.7578 C   0  0  0  0  0  0  0  0  0  0  0  0
    8.9958   35.6561   79.1121 C   0  0  0  0  0  0  0  0  0  0  0  0
    9.5771   34.3414   79.2006 C   0  0  0  0  0  0  0  0  0  0  0  0
    9.6553   33.6527   80.4407 C   0  0  0  0  0  0  0  0  0  0  0  0
    9.1475   34.2719   81.6183 C   0  0  0  0  0  0  0  0  0  0  0  0
    8.5688   35.5732   81.5505 C   0  0  0  0  0  0  0  0  0  0  0  0
    8.4955   36.2577   80.3081 C   0  0  0  0  0  0  0  0  0  0  0  0
    7.5272   34.6136   75.3228 C   0  0  0  0  0  0  0  0  0  0  0  0
    8.2182   33.2238   75.5033 C   0  0  0  0  0  0  0  0  0  0  0  0
    7.5537   31.9987   75.1558 C   0  0  0  0  0  0  0  0  0  0  0  0
    8.1727   30.7270   75.3185 C   0  0  0  0  0  0  0  0  0  0  0  0
    9.4798   30.6069   75.8318 C   0  0  0  0  0  0  0  0  0  0  0  0
   10.1664   31.8025   76.1785 C   0  0  0  0  0  0  0  0  0  0  0  0
    9.5481   33.1013   76.0190 C   0  0  0  0  0  0  0  0  0  0  0  0
   11.6012   31.7487   76.7410 C   0  0  0  0  0  0  0  0  0  0  0  0
   11.5780   31.3820   78.0317 F   0  0  0  0  0  0  0  0  0  0  0  0
   12.2123   32.9499   76.6597 F   0  0  0  0  0  0  0  0  0  0  0  0
   12.3522   30.8646   76.0665 F   0  0  0  0  0  0  0  0  0  0  0  0
  1 12  1  0  0  0
  1  2  1  0  0  0
  1 24  1  0  0  0
 12 13  1  0  0  0
 12 17  1  0  0  0
 13 14  2  0  0  0
 13 15  1  0  0  0
  2  3  2  0  0  0
  2  4  1  0  0  0
  4  5  2  0  0  0
  4  9  1  0  0  0
  5  6  1  0  0  0
  6  7  2  0  0  0
  7  8  1  0  0  0
  7 10  1  0  0  0
  8  9  2  0  0  0
  9 11  1  0  0  0
 17 18  1  0  0  0
 18 19  2  0  0  0
 18 23  1  0  0  0
 19 20  1  0  0  0
 20 21  2  0  0  0
 21 22  1  0  0  0
 22 23  2  0  0  0
 24 25  1  0  0  0
 25 26  2  0  0  0
 25 30  1  0  0  0
 26 27  1  0  0  0
 27 28  2  0  0  0
 28 29  1  0  0  0
 29 30  2  0  0  0
 29 31  1  0  0  0
 31 32  1  0  0  0
 31 33  1  0  0  0
 31 34  1  0  0  0
 15 16  1  0  0  0
M  END
> <minimizedAffinity>
-6.61458

$$$$
1NHU_153_A_5001


 34 36  0  0  0  0  0  0  0  0999 V2000
    5.9885   32.6868   77.1547 N   0  0  0  0  0  0  0  0  0  0  0  0
    6.4764   32.3019   75.8723 C   0  0  0  0  0  0  0  0  0  0  0  0
    5.8616   32.5271   74.8425 O   0  0  0  0  0  0  0  0  0  0  0  0
    7.8226   31.6054   75.6989 C   0  0  0  0  0  0  0  0  0  0  0  0
    8.9402   32.4117   75.3464 C   0  0  0  0  0  0  0  0  0  0  0  0
   10.2134   31.8175   75.1847 C   0  0  0  0  0  0  0  0  0  0  0  0
   10.3670   30.4161   75.3745 C   0  0  0  0  0  0  0  0  0  0  0  0
    9.2532   29.6114   75.7287 C   0  0  0  0  0  0  0  0  0  0  0  0
    7.9807   30.1947   75.8936 C   0  0  0  0  0  0  0  0  0  0  0  0
   11.9097   29.6913   75.1734 Cl  0  0  0  0  0  0  0  0  0  0  0  0
    6.6558   29.1734   76.3372 Cl  0  0  0  0  0  0  0  0  0  0  0  0
    6.3584   31.9066   78.4310 C   0  0  0  0  0  0  0  0  0  0  0  0
    5.1256   31.2820   79.1907 C   0  0  0  0  0  0  0  0  0  0  0  0
    4.4159   30.4218   78.6067 O   0  0  0  0  0  0  0  0  0  0  0  0
    4.8745   31.6726   80.3472 O   0  0  0  0  0  0  0  0  0  0  0  0
    5.4225   32.3144   80.7543 H   0  0  0  0  0  0  0  0  0  0  0  0
    7.2527   32.7401   79.4244 C   0  0  0  0  0  0  0  0  0  0  0  0
    8.6921   33.0310   79.0130 C   0  0  0  0  0  0  0  0  0  0  0  0
    9.0519   34.3606   78.5926 C   0  0  0  0  0  0  0  0  0  0  0  0
   10.3791   34.6731   78.1939 C   0  0  0  0  0  0  0  0  0  0  0  0
   11.3725   33.6528   78.2076 C   0  0  0  0  0  0  0  0  0  0  0  0
   11.0353   32.3306   78.6210 C   0  0  0  0  0  0  0  0  0  0  0  0
    9.7070   32.0248   79.0207 C   0  0  0  0  0  0  0  0  0  0  0  0
    5.0516   33.8982   77.2858 C   0  0  0  0  0  0  0  0  0  0  0  0
    5.7140   35.2976   77.4968 C   0  0  0  0  0  0  0  0  0  0  0  0
    5.5400   36.0402   78.7140 C   0  0  0  0  0  0  0  0  0  0  0  0
    6.1367   37.3168   78.9160 C   0  0  0  0  0  0  0  0  0  0  0  0
    6.9354   37.9195   77.9233 C   0  0  0  0  0  0  0  0  0  0  0  0
    7.1321   37.2058   76.7097 C   0  0  0  0  0  0  0  0  0  0  0  0
    6.5304   35.9077   76.4913 C   0  0  0  0  0  0  0  0  0  0  0  0
    7.9982   37.8005   75.5809 C   0  0  0  0  0  0  0  0  0  0  0  0
    7.5892   37.3348   74.3906 F   0  0  0  0  0  0  0  0  0  0  0  0
    9.3003   37.4764   75.7303 F   0  0  0  0  0  0  0  0  0  0  0  0
    7.9127   39.1394   75.5601 F   0  0  0  0  0  0  0  0  0  0  0  0
  1 12  1  0  0  0
  1  2  1  0  0  0
  1 24  1  0  0  0
 12 13  1  0  0  0
 12 17  1  0  0  0
 13 14  2  0  0  0
 13 15  1  0  0  0
  2  3  2  0  0  0
  2  4  1  0  0  0
  4  5  2  0  0  0
  4  9  1  0  0  0
  5  6  1  0  0  0
  6  7  2  0  0  0
  7  8  1  0  0  0
  7 10  1  0  0  0
  8  9  2  0  0  0
  9 11  1  0  0  0
 17 18  1  0  0  0
 18 19  2  0  0  0
 18 23  1  0  0  0
 19 20  1  0  0  0
 20 21  2  0  0  0
 21 22  1  0  0  0
 22 23  2  0  0  0
 24 25  1  0  0  0
 25 26  2  0  0  0
 25 30  1  0  0  0
 26 27  1  0  0  0
 27 28  2  0  0  0
 28 29  1  0  0  0
 29 30  2  0  0  0
 29 31  1  0  0  0
 31 32  1  0  0  0
 31 33  1  0  0  0
 31 34  1  0  0  0
 15 16  1  0  0  0
M  END
> <minimizedAffinity>
-6.52869

$$$$
1NHU_153_A_5001


 34 36  0  0  0  0  0  0  0  0999 V2000
    7.2084   33.2028   78.1844 N   0  0  0  0  0  0  0  0  0  0  0  0
    7.2739   34.5806   78.5418 C   0  0  0  0  0  0  0  0  0  0  0  0
    7.0234   34.9783   79.6680 O   0  0  0  0  0  0  0  0  0  0  0  0
    7.6941   35.6528   77.5411 C   0  0  0  0  0  0  0  0  0  0  0  0
    6.6748   36.2478   76.7471 C   0  0  0  0  0  0  0  0  0  0  0  0
    7.0091   37.2549   75.8122 C   0  0  0  0  0  0  0  0  0  0  0  0
    8.3639   37.6652   75.6716 C   0  0  0  0  0  0  0  0  0  0  0  0
    9.3810   37.0741   76.4651 C   0  0  0  0  0  0  0  0  0  0  0  0
    9.0575   36.0707   77.4006 C   0  0  0  0  0  0  0  0  0  0  0  0
    8.7734   38.8833   74.5339 Cl  0  0  0  0  0  0  0  0  0  0  0  0
   10.3313   35.3885   78.3530 Cl  0  0  0  0  0  0  0  0  0  0  0  0
    6.8856   32.7521   76.7467 C   0  0  0  0  0  0  0  0  0  0  0  0
    5.4503   33.1677   76.2424 C   0  0  0  0  0  0  0  0  0  0  0  0
    4.5407   33.3807   77.0862 O   0  0  0  0  0  0  0  0  0  0  0  0
    5.2490   33.2557   75.0157 O   0  0  0  0  0  0  0  0  0  0  0  0
    5.9474   33.0908   74.4133 H   0  0  0  0  0  0  0  0  0  0  0  0
    7.1260   31.2125   76.5156 C   0  0  0  0  0  0  0  0  0  0  0  0
    8.5030   30.7723   76.0299 C   0  0  0  0  0  0  0  0  0  0  0  0
    9.2763   31.6592   75.1996 C   0  0  0  0  0  0  0  0  0  0  0  0
   10.5600   31.2859   74.7190 C   0  0  0  0  0  0  0  0  0  0  0  0
   11.0919   30.0102   75.0621 C   0  0  0  0  0  0  0  0  0  0  0  0
   10.3412   29.1187   75.8833 C   0  0  0  0  0  0  0  0  0  0  0  0
    9.0592   29.4985   76.3626 C   0  0  0  0  0  0  0  0  0  0  0  0
    7.4439   32.1225   79.2522 C   0  0  0  0  0  0  0  0  0  0  0  0
    8.8755   31.5027   79.3418 C   0  0  0  0  0  0  0  0  0  0  0  0
    9.1303   30.2915   80.0708 C   0  0  0  0  0  0  0  0  0  0  0  0
   10.4308   29.7195   80.1611 C   0  0  0  0  0  0  0  0  0  0  0  0
   11.5416   30.3181   79.5331 C   0  0  0  0  0  0  0  0  0  0  0  0
   11.3200   31.5145   78.7979 C   0  0  0  0  0  0  0  0  0  0  0  0
   10.0032   32.1068   78.6992 C   0  0  0  0  0  0  0  0  0  0  0  0
   12.4870   32.2222   78.0801 C   0  0  0  0  0  0  0  0  0  0  0  0
   13.3444   31.3151   77.5872 F   0  0  0  0  0  0  0  0  0  0  0  0
   13.1706   33.0292   78.9193 F   0  0  0  0  0  0  0  0  0  0  0  0
   12.0429   32.9766   77.0631 F   0  0  0  0  0  0  0  0  0  0  0  0
  1 12  1  0  0  0
  1  2  1  0  0  0
  1 24  1  0  0  0
 12 13  1  0  0  0
 12 17  1  0  0  0
 13 14  2  0  0  0
 13 15  1  0  0  0
  2  3  2  0  0  0
  2  4  1  0  0  0
  4  5  2  0  0  0
  4  9  1  0  0  0
  5  6  1  0  0  0
  6  7  2  0  0  0
  7  8  1  0  0  0
  7 10  1  0  0  0
  8  9  2  0  0  0
  9 11  1  0  0  0
 17 18  1  0  0  0
 18 19  2  0  0  0
 18 23  1  0  0  0
 19 20  1  0  0  0
 20 21  2  0  0  0
 21 22  1  0  0  0
 22 23  2  0  0  0
 24 25  1  0  0  0
 25 26  2  0  0  0
 25 30  1  0  0  0
 26 27  1  0  0  0
 27 28  2  0  0  0
 28 29  1  0  0  0
 29 30  2  0  0  0
 29 31  1  0  0  0
 31 32  1  0  0  0
 31 33  1  0  0  0
 31 34  1  0  0  0
 15 16  1  0  0  0
M  END
> <minimizedAffinity>
-6.51646

$$$$
1NHU_153_A_5001


 34 36  0  0  0  0  0  0  0  0999 V2000
    9.9075   34.4693   78.7453 N   0  0  0  0  0  0  0  0  0  0  0  0
    9.1852   34.2918   79.9607 C   0  0  0  0  0  0  0  0  0  0  0  0
    9.2309   35.0995   80.8743 O   0  0  0  0  0  0  0  0  0  0  0  0
    8.2770   33.0873   80.1890 C   0  0  0  0  0  0  0  0  0  0  0  0
    6.9944   33.1041   79.5740 C   0  0  0  0  0  0  0  0  0  0  0  0
    6.1181   32.0072   79.7443 C   0  0  0  0  0  0  0  0  0  0  0  0
    6.5255   30.8944   80.5313 C   0  0  0  0  0  0  0  0  0  0  0  0
    7.8059   30.8757   81.1430 C   0  0  0  0  0  0  0  0  0  0  0  0
    8.6867   31.9635   80.9778 C   0  0  0  0  0  0  0  0  0  0  0  0
    5.4621   29.5643   80.7444 Cl  0  0  0  0  0  0  0  0  0  0  0  0
   10.2416   31.8888   81.7341 Cl  0  0  0  0  0  0  0  0  0  0  0  0
   10.3823   33.2707   77.9013 C   0  0  0  0  0  0  0  0  0  0  0  0
   11.9387   33.0206   77.9459 C   0  0  0  0  0  0  0  0  0  0  0  0
   12.5625   33.2221   79.0206 O   0  0  0  0  0  0  0  0  0  0  0  0
   12.5151   32.6470   76.9061 O   0  0  0  0  0  0  0  0  0  0  0  0
   12.0220   32.5058   76.1220 H   0  0  0  0  0  0  0  0  0  0  0  0
    9.8764   33.3287   76.4106 C   0  0  0  0  0  0  0  0  0  0  0  0
    8.4250   32.9490   76.1363 C   0  0  0  0  0  0  0  0  0  0  0  0
    7.4668   33.9839   75.8451 C   0  0  0  0  0  0  0  0  0  0  0  0
    6.1036   33.6751   75.5912 C   0  0  0  0  0  0  0  0  0  0  0  0
    5.6751   32.3175   75.6276 C   0  0  0  0  0  0  0  0  0  0  0  0
    6.6093   31.2792   75.9137 C   0  0  0  0  0  0  0  0  0  0  0  0
    7.9715   31.5939   76.1645 C   0  0  0  0  0  0  0  0  0  0  0  0
   10.2484   35.8863   78.2568 C   0  0  0  0  0  0  0  0  0  0  0  0
    9.1233   36.6804   77.5186 C   0  0  0  0  0  0  0  0  0  0  0  0
    9.2513   37.0684   76.1415 C   0  0  0  0  0  0  0  0  0  0  0  0
    8.2338   37.7941   75.4598 C   0  0  0  0  0  0  0  0  0  0  0  0
    7.0400   38.1698   76.1081 C   0  0  0  0  0  0  0  0  0  0  0  0
    6.8807   37.7941   77.4699 C   0  0  0  0  0  0  0  0  0  0  0  0
    7.9078   37.0572   78.1746 C   0  0  0  0  0  0  0  0  0  0  0  0
    5.5988   38.1660   78.2420 C   0  0  0  0  0  0  0  0  0  0  0  0
    5.0024   37.0578   78.7082 F   0  0  0  0  0  0  0  0  0  0  0  0
    4.7149   38.8152   77.4545 F   0  0  0  0  0  0  0  0  0  0  0  0
    5.8764   38.9639   79.2844 F   0  0  0  0  0  0  0  0  0  0  0  0
  1 12  1  0  0  0
  1  2  1  0  0  0
  1 24  1  0  0  0
 12 13  1  0  0  0
 12 17  1  0  0  0
 13 14  2  0  0  0
 13 15  1  0  0  0
  2  3  2  0  0  0
  2  4  1  0  0  0
  4  5  2  0  0  0
  4  9  1  0  0  0
  5  6  1  0  0  0
  6  7  2  0  0  0
  7  8  1  0  0  0
  7 10  1  0  0  0
  8  9  2  0  0  0
  9 11  1  0  0  0
 17 18  1  0  0  0
 18 19  2  0  0  0
 18 23  1  0  0  0
 19 20  1  0  0  0
 20 21  2  0  0  0
 21 22  1  0  0  0
 22 23  2  0  0  0
 24 25  1  0  0  0
 25 26  2  0  0  0
 25 30  1  0  0  0
 26 27  1  0  0  0
 27 28  2  0  0  0
 28 29  1  0  0  0
 29 30  2  0  0  0
 29 31  1  0  0  0
 31 32  1  0  0  0
 31 33  1  0  0  0
 31 34  1  0  0  0
 15 16  1  0  0  0
M  END
> <minimizedAffinity>
-6.41992

$$$$
1NHU_153_A_5001


 34 36  0  0  0  0  0  0  0  0999 V2000
    8.2778   35.9951   77.7656 N   0  0  0  0  0  0  0  0  0  0  0  0
    9.2298   34.9884   78.0984 C   0  0  0  0  0  0  0  0  0  0  0  0
   10.0742   35.1457   78.9653 O   0  0  0  0  0  0  0  0  0  0  0  0
    9.2364   33.6272   77.4094 C   0  0  0  0  0  0  0  0  0  0  0  0
    9.9093   33.5252   76.1602 C   0  0  0  0  0  0  0  0  0  0  0  0
    9.9550   32.2832   75.4852 C   0  0  0  0  0  0  0  0  0  0  0  0
    9.3260   31.1443   76.0602 C   0  0  0  0  0  0  0  0  0  0  0  0
    8.6568   31.2446   77.3075 C   0  0  0  0  0  0  0  0  0  0  0  0
    8.6071   32.4776   77.9885 C   0  0  0  0  0  0  0  0  0  0  0  0
    9.3750   29.6371   75.2406 Cl  0  0  0  0  0  0  0  0  0  0  0  0
    7.7890   32.5468   79.5120 Cl  0  0  0  0  0  0  0  0  0  0  0  0
    7.6745   36.1054   76.3520 C   0  0  0  0  0  0  0  0  0  0  0  0
    7.9253   37.4926   75.6450 C   0  0  0  0  0  0  0  0  0  0  0  0
    6.9395   38.1622   75.2391 O   0  0  0  0  0  0  0  0  0  0  0  0
    9.0989   37.8817   75.4892 O   0  0  0  0  0  0  0  0  0  0  0  0
    9.8111   37.3598   75.8030 H   0  0  0  0  0  0  0  0  0  0  0  0
    6.1448   35.7320   76.3048 C   0  0  0  0  0  0  0  0  0  0  0  0
    5.7718   34.2537   76.3370 C   0  0  0  0  0  0  0  0  0  0  0  0
    6.1289   33.4104   75.2255 C   0  0  0  0  0  0  0  0  0  0  0  0
    5.7942   32.0298   75.2112 C   0  0  0  0  0  0  0  0  0  0  0  0
    5.0903   31.4689   76.3148 C   0  0  0  0  0  0  0  0  0  0  0  0
    4.7286   32.2879   77.4244 C   0  0  0  0  0  0  0  0  0  0  0  0
    5.0680   33.6671   77.4340 C   0  0  0  0  0  0  0  0  0  0  0  0
    7.8436   37.0193   78.8263 C   0  0  0  0  0  0  0  0  0  0  0  0
    7.0789   36.4768   80.0763 C   0  0  0  0  0  0  0  0  0  0  0  0
    5.6803   36.1533   80.0248 C   0  0  0  0  0  0  0  0  0  0  0  0
    4.9731   35.6608   81.1580 C   0  0  0  0  0  0  0  0  0  0  0  0
    5.6165   35.4636   82.3964 C   0  0  0  0  0  0  0  0  0  0  0  0
    7.0028   35.7683   82.4771 C   0  0  0  0  0  0  0  0  0  0  0  0
    7.7330   36.2705   81.3329 C   0  0  0  0  0  0  0  0  0  0  0  0
    7.7739   35.5724   83.7980 C   0  0  0  0  0  0  0  0  0  0  0  0
    8.0368   36.7622   84.3603 F   0  0  0  0  0  0  0  0  0  0  0  0
    8.9483   34.9369   83.5984 F   0  0  0  0  0  0  0  0  0  0  0  0
    7.0610   34.8437   84.6706 F   0  0  0  0  0  0  0  0  0  0  0  0
  1 12  1  0  0  0
  1  2  1  0  0  0
  1 24  1  0  0  0
 12 13  1  0  0  0
 12 17  1  0  0  0
 13 14  2  0  0  0
 13 15  1  0  0  0
  2  3  2  0  0  0
  2  4  1  0  0  0
  4  5  2  0  0  0
  4  9  1  0  0  0
  5  6  1  0  0  0
  6  7  2  0  0  0
  7  8  1  0  0  0
  7 10  1  0  0  0
  8  9  2  0  0  0
  9 11  1  0  0  0
 17 18  1  0  0  0
 18 19  2  0  0  0
 18 23  1  0  0  0
 19 20  1  0  0  0
 20 21  2  0  0  0
 21 22  1  0  0  0
 22 23  2  0  0  0
 24 25  1  0  0  0
 25 26  2  0  0  0
 25 30  1  0  0  0
 26 27  1  0  0  0
 27 28  2  0  0  0
 28 29  1  0  0  0
 29 30  2  0  0  0
 29 31  1  0  0  0
 31 32  1  0  0  0
 31 33  1  0  0  0
 31 34  1  0  0  0
 15 16  1  0  0  0
M  END
> <minimizedAffinity>
-6.41492

$$$$
1NHU_153_A_5001


 34 36  0  0  0  0  0  0  0  0999 V2000
    6.3857   34.8412   78.3620 N   0  0  0  0  0  0  0  0  0  0  0  0
    7.1837   34.3137   79.4181 C   0  0  0  0  0  0  0  0  0  0  0  0
    6.7869   34.2497   80.5704 O   0  0  0  0  0  0  0  0  0  0  0  0
    8.5845   33.7624   79.1705 C   0  0  0  0  0  0  0  0  0  0  0  0
    8.7137   32.3605   78.9671 C   0  0  0  0  0  0  0  0  0  0  0  0
    9.9886   31.7996   78.7221 C   0  0  0  0  0  0  0  0  0  0  0  0
   11.1341   32.6422   78.6821 C   0  0  0  0  0  0  0  0  0  0  0  0
   11.0058   34.0411   78.8823 C   0  0  0  0  0  0  0  0  0  0  0  0
    9.7392   34.6096   79.1257 C   0  0  0  0  0  0  0  0  0  0  0  0
   12.6833   31.9637   78.3905 Cl  0  0  0  0  0  0  0  0  0  0  0  0
    9.6327   36.3220   79.3522 Cl  0  0  0  0  0  0  0  0  0  0  0  0
    7.0160   35.5110   77.1257 C   0  0  0  0  0  0  0  0  0  0  0  0
    6.5692   37.0062   76.8982 C   0  0  0  0  0  0  0  0  0  0  0  0
    6.6850   37.8321   77.8413 O   0  0  0  0  0  0  0  0  0  0  0  0
    6.0933   37.3272   75.7921 O   0  0  0  0  0  0  0  0  0  0  0  0
    6.0205   36.6886   75.1103 H   0  0  0  0  0  0  0  0  0  0  0  0
    6.8242   34.6722   75.8063 C   0  0  0  0  0  0  0  0  0  0  0  0
    7.8286   33.5618   75.5164 C   0  0  0  0  0  0  0  0  0  0  0  0
    9.2380   33.8548   75.5603 C   0  0  0  0  0  0  0  0  0  0  0  0
   10.2073   32.8522   75.2895 C   0  0  0  0  0  0  0  0  0  0  0  0
    9.7785   31.5333   74.9661 C   0  0  0  0  0  0  0  0  0  0  0  0
    8.3874   31.2242   74.9182 C   0  0  0  0  0  0  0  0  0  0  0  0
    7.4230   32.2303   75.1921 C   0  0  0  0  0  0  0  0  0  0  0  0
    4.8529   34.7668   78.4496 C   0  0  0  0  0  0  0  0  0  0  0  0
    4.1974   33.3512   78.3601 C   0  0  0  0  0  0  0  0  0  0  0  0
    3.2033   32.9180   79.3021 C   0  0  0  0  0  0  0  0  0  0  0  0
    2.6014   31.6298   79.2316 C   0  0  0  0  0  0  0  0  0  0  0  0
    2.9535   30.7088   78.2245 C   0  0  0  0  0  0  0  0  0  0  0  0
    3.9299   31.1112   77.2728 C   0  0  0  0  0  0  0  0  0  0  0  0
    4.5501   32.4174   77.3339 C   0  0  0  0  0  0  0  0  0  0  0  0
    4.3609   30.1583   76.1396 C   0  0  0  0  0  0  0  0  0  0  0  0
    3.4918   29.1410   76.0358 F   0  0  0  0  0  0  0  0  0  0  0  0
    5.5861   29.6383   76.3664 F   0  0  0  0  0  0  0  0  0  0  0  0
    4.4028   30.7971   74.9603 F   0  0  0  0  0  0  0  0  0  0  0  0
  1 12  1  0  0  0
  1  2  1  0  0  0
  1 24  1  0  0  0
 12 13  1  0  0  0
 12 17  1  0  0  0
 13 14  2  0  0  0
 13 15  1  0  0  0
  2  3  2  0  0  0
  2  4  1  0  0  0
  4  5  2  0  0  0
  4  9  1  0  0  0
  5  6  1  0  0  0
  6  7  2  0  0  0
  7  8  1  0  0  0
  7 10  1  0  0  0
  8  9  2  0  0  0
  9 11  1  0  0  0
 17 18  1  0  0  0
 18 19  2  0  0  0
 18 23  1  0  0  0
 19 20  1  0  0  0
 20 21  2  0  0  0
 21 22  1  0  0  0
 22 23  2  0  0  0
 24 25  1  0  0  0
 25 26  2  0  0  0
 25 30  1  0  0  0
 26 27  1  0  0  0
 27 28  2  0  0  0
 28 29  1  0  0  0
 29 30  2  0  0  0
 29 31  1  0  0  0
 31 32  1  0  0  0
 31 33  1  0  0  0
 31 34  1  0  0  0
 15 16  1  0  0  0
M  END
> <minimizedAffinity>
-6.35573

$$$$
