4Q1W_017_A_104
  RCSB PDB12061714203D
Coordinates from PDB:4Q1W:A:104 Model:1 without hydrogens
 38 41  0  0  0  0            999 V2000
   14.2590   34.7870   18.2090   N 0  0  0  0  0  0  0  0  0  0  0  0
   15.1400   34.1970   17.3640   C 0  0  0  0  0  0  0  0  0  0  0  0
   14.9820   32.8700   16.9910   C 0  0  0  0  0  0  0  0  0  0  0  0
   15.9240   32.2870   16.1360   C 0  0  0  0  0  0  0  0  0  0  0  0
   16.9950   33.0060   15.5930   C 0  0  0  0  0  0  0  0  0  0  0  0
   17.1280   34.3350   15.9760   C 0  0  0  0  0  0  0  0  0  0  0  0
   16.1980   34.9320   16.8310   C 0  0  0  0  0  0  0  0  0  0  0  0
   18.0600   32.2750   14.6010   S 0  0  0  0  0  0  0  0  0  0  0  0
   17.3870   31.1720   13.9760   O 0  0  0  0  0  0  0  0  0  0  0  0
   18.6040   33.2180   13.6670   O 0  0  0  0  0  0  0  0  0  0  0  0
   19.3420   31.6680   15.3930   N 0  0  0  0  0  0  0  0  0  0  0  0
   20.0120   32.6820   16.2370   C 0  0  0  0  0  0  0  0  0  0  0  0
   21.4950   32.3650   16.4410   C 0  0  0  0  0  0  0  0  0  0  0  0
   22.2420   32.2550   15.1130   C 0  0  0  0  0  0  0  0  0  0  0  0
   22.1990   33.4050   17.3040   C 0  0  0  0  0  0  0  0  0  0  0  0
   19.0370   30.4050   16.0980   C 0  0  0  0  0  0  0  0  0  0  0  0
   19.8980   29.2570   15.5840   C 0  0  0  0  0  0  0  0  0  0  0  0
   19.8550   28.1130   16.4620   O 0  0  0  0  0  0  0  0  0  0  0  0
   19.5350   28.8110   14.1650   C 0  0  0  0  0  0  0  0  0  0  0  0
   20.6350   28.0180   13.6820   N 0  0  0  0  0  0  0  0  0  0  0  0
   21.5240   28.3640   12.7420   C 0  0  0  0  0  0  0  0  0  0  0  0
   21.5990   29.4040   12.1170   O 0  0  0  0  0  0  0  0  0  0  0  0
   22.5190   27.3470   12.5310   O 0  0  0  0  0  0  0  0  0  0  0  0
   23.3850   27.4590   11.4050   C 0  0  0  0  0  0  0  0  0  0  0  0
   24.7090   26.9090   11.8940   C 0  0  0  0  0  0  0  0  0  0  0  0
   24.5310   25.4920   11.8200   O 0  0  0  0  0  0  0  0  0  0  0  0
   23.6640   25.1990   10.7230   C 0  0  0  0  0  0  0  0  0  0  0  0
   22.6440   24.2710   11.0720   O 0  0  0  0  0  0  0  0  0  0  0  0
   21.3520   24.8870   11.0620   C 0  0  0  0  0  0  0  0  0  0  0  0
   21.5020   26.1310   10.2020   C 0  0  0  0  0  0  0  0  0  0  0  0
   22.9800   26.4920   10.3150   C 0  0  0  0  0  0  0  0  0  0  0  0
   18.2580   27.9870   14.0430   C 0  0  0  0  0  0  0  0  0  0  0  0
   17.6940   28.6010   11.6430   C 0  0  0  0  0  0  0  0  0  0  0  0
   17.4880   28.2540   10.3010   C 0  0  0  0  0  0  0  0  0  0  0  0
   17.6250   26.9380    9.8970   C 0  0  0  0  0  0  0  0  0  0  0  0
   17.9630   25.9730   10.8150   C 0  0  0  0  0  0  0  0  0  0  0  0
   18.1480   26.3160   12.1490   C 0  0  0  0  0  0  0  0  0  0  0  0
   18.0230   27.6340   12.5780   C 0  0  0  0  0  0  0  0  0  0  0  0
  1  2  1  0  0  0  0
  2  3  2  0  0  0  0
  2  7  1  0  0  0  0
  3  4  1  0  0  0  0
  4  5  2  0  0  0  0
  5  6  1  0  0  0  0
  5  8  1  0  0  0  0
  6  7  2  0  0  0  0
  8  9  2  0  0  0  0
  8 10  2  0  0  0  0
  8 11  1  0  0  0  0
 11 12  1  0  0  0  0
 11 16  1  0  0  0  0
 12 13  1  0  0  0  0
 13 14  1  0  0  0  0
 13 15  1  0  0  0  0
 16 17  1  0  0  0  0
 17 18  1  0  0  0  0
 17 19  1  0  0  0  0
 19 20  1  0  0  0  0
 19 32  1  0  0  0  0
 20 21  1  0  0  0  0
 21 22  2  0  0  0  0
 21 23  1  0  0  0  0
 23 24  1  0  0  0  0
 24 25  1  0  0  0  0
 24 31  1  0  0  0  0
 25 26  1  0  0  0  0
 26 27  1  0  0  0  0
 27 28  1  0  0  0  0
 27 31  1  0  0  0  0
 28 29  1  0  0  0  0
 29 30  1  0  0  0  0
 30 31  1  0  0  0  0
 32 38  1  0  0  0  0
 33 34  2  0  0  0  0
 33 38  1  0  0  0  0
 34 35  1  0  0  0  0
 35 36  2  0  0  0  0
 36 37  1  0  0  0  0
 37 38  2  0  0  0  0
A    1
N1
A    2
C2
A    3
C3
A    4
C4
A    5
C5
A    6
C6
A    7
C7
A    8
S8
A    9
O9
A   10
O10
A   11
N11
A   12
C12
A   13
C13
A   14
C14
A   15
C15
A   16
C16
A   17
C17
A   18
O18
A   19
C19
A   20
N20
A   21
C21
A   22
O22
A   23
O23
A   24
C24
A   25
C25
A   26
O26
A   27
C27
A   28
O28
A   29
C29
A   30
C30
A   31
C31
A   32
C32
A   33
C33
A   34
C34
A   35
C35
A   36
C36
A   37
C37
A   38
C38
M  END
>  <InstanceId>
4Q1W_017_A_104

>  <ChemCompId>
017

>  <PdbId>
4Q1W

>  <ChainId>
A

>  <ResidueNumber>
104

>  <InsertionCode>


>  <Model>
1

>  <AltIds>


>  <MissingHeavyAtoms>
0

>  <ObservedFormula>
C27 N3 O7 S

>  <Name>
(3R,3AS,6AR)-HEXAHYDROFURO[2,3-B]FURAN-3-YL(1S,2R)-3-[[(4-AMINOPHENYL)SULFONYL](ISOBUTYL)AMINO]-1-BENZYL-2-HYDROXYPROPYLCARBAMATE

>  <SystematicName>
[(3R,3aS,6aR)-2,3,3a,4,5,6a-hexahydrofuro[2,3-b]furan-3-yl] N-[(2S,3R)-4-[(4-aminophenyl)sulfonyl-(2-methylpropyl)amino]-3-hydroxy-1-phenyl-butan-2-yl]carbamate

>  <Synonyms>
Darunavir, TMC114, UIC-94017

>  <Type>
NON-POLYMER

>  <Formula>
C27 H37 N3 O7 S

>  <MolecularWeight>
547.664

>  <ModifiedDate>
2011-06-04

>  <Parent>


>  <OneLetterCode>


>  <SubcomponentList>


>  <AmbiguousFlag>
N

>  <InChI>
InChI=1S/C27H37N3O7S/c1-18(2)15-30(38(33,34)21-10-8-20(28)9-11-21)16-24(31)23(14-19-6-4-3-5-7-19)29-27(32)37-25-17-36-26-22(25)12-13-35-26/h3-11,18,22-26,31H,12-17,28H2,1-2H3,(H,29,32)/t22-,23-,24+,25-,26+/m0/s1

>  <InChIKey>
CJBJHOAVZSMMDJ-HEXNFIEUSA-N

>  <SMILES>
CC(C)C[N@@](C[C@H]([C@H](Cc1ccccc1)NC(=O)O[C@H]2CO[C@@H]3[C@H]2CCO3)O)S(=O)(=O)c4ccc(cc4)N

$$$$
