1IZH_Q50_B_1001


 57 59  0  0  0  0  0  0  0  0999 V2000
   10.0304   25.2375    5.5642 N   0  0  0  0  0  0  0  0  0  0  0  0
   10.6362   24.0705    5.3954 C   0  0  0  0  0  0  0  0  0  0  0  0
   10.2925   23.0608    6.0263 O   0  0  0  0  0  0  0  0  0  0  0  0
   10.3470   26.0203    5.0579 H   0  0  0  0  0  0  0  0  0  0  0  0
   11.8175   24.0849    4.4472 C   0  0  0  0  0  0  0  0  0  0  0  0
   12.7212   22.9130    4.7633 C   0  0  0  0  0  0  0  0  0  0  0  0
   13.8270   23.4597    5.6598 C   0  0  0  0  0  0  0  0  0  0  0  0
   14.6656   24.2900    4.8433 O   0  0  0  0  0  0  0  0  0  0  0  0
   14.5561   22.2958    6.3602 C   0  0  0  0  0  0  0  0  0  0  0  0
   15.3675   21.5372    5.3979 N   0  0  0  0  0  0  0  0  0  0  0  0
   15.0737   20.3165    5.0249 C   0  0  0  0  0  0  0  0  0  0  0  0
   14.0771   19.7549    5.4657 O   0  0  0  0  0  0  0  0  0  0  0  0
   16.1676   21.9657    5.0165 H   0  0  0  0  0  0  0  0  0  0  0  0
   16.0105   19.7012    4.0712 O   0  0  0  0  0  0  0  0  0  0  0  0
   15.7474   18.7125    3.0886 C   0  0  0  0  0  0  0  0  0  0  0  0
   14.7430   19.2662    2.1035 C   0  0  0  0  0  0  0  0  0  0  0  0
   15.2635   17.4306    3.7591 C   0  0  0  0  0  0  0  0  0  0  0  0
   17.0710   18.4201    2.3777 C   0  0  0  0  0  0  0  0  0  0  0  0
   15.5443   22.7704    7.4203 C   0  0  0  0  0  0  0  0  0  0  0  0
   15.7372   21.7175    8.5114 C   0  0  0  0  0  0  0  0  0  0  0  0
   16.9135   21.0153    8.5622 C   0  0  0  0  0  0  0  0  0  0  0  0
   17.1300   20.0174    9.5098 C   0  0  0  0  0  0  0  0  0  0  0  0
   16.1361   19.7311   10.4452 C   0  0  0  0  0  0  0  0  0  0  0  0
   14.9643   20.4504   10.4059 C   0  0  0  0  0  0  0  0  0  0  0  0
   14.7366   21.4324    9.4423 C   0  0  0  0  0  0  0  0  0  0  0  0
   11.5413   24.0355    2.9723 C   0  0  0  0  0  0  0  0  0  0  0  0
   10.1617   23.5667    2.8036 C   0  0  0  0  0  0  0  0  0  0  0  0
    9.8704   22.2054    2.8477 C   0  0  0  0  0  0  0  0  0  0  0  0
    8.5287   21.8440    2.6968 C   0  0  0  0  0  0  0  0  0  0  0  0
    7.5506   22.8244    2.4986 C   0  0  0  0  0  0  0  0  0  0  0  0
    7.8671   24.1533    2.4884 C   0  0  0  0  0  0  0  0  0  0  0  0
    9.1900   24.5280    2.6383 C   0  0  0  0  0  0  0  0  0  0  0  0
    8.9193   25.3891    6.4709 C   0  0  0  0  0  0  0  0  0  0  0  0
    6.6410   26.0451    6.2091 N   0  0  0  0  0  0  0  0  0  0  0  0
    7.9191   26.4109    5.9829 C   0  0  0  0  0  0  0  0  0  0  0  0
    8.2583   27.4395    5.3779 O   0  0  0  0  0  0  0  0  0  0  0  0
    6.4693   25.1415    6.5600 H   0  0  0  0  0  0  0  0  0  0  0  0
    5.4833   26.9315    5.9571 C   0  0  0  0  0  0  0  0  0  0  0  0
    5.1595   29.0496    6.8111 O   0  0  0  0  0  0  0  0  0  0  0  0
    5.3756   27.9070    7.1051 C   0  0  0  0  0  0  0  0  0  0  0  0
    5.4739   27.4708    8.3816 N   0  0  0  0  0  0  0  0  0  0  0  0
    5.4032   28.1099    9.1271 H   0  0  0  0  0  0  0  0  0  0  0  0
    5.6163   26.5141    8.5653 H   0  0  0  0  0  0  0  0  0  0  0  0
    4.1688   26.1886    5.7607 C   0  0  0  0  0  0  0  0  0  0  0  0
    4.1345   25.2401    4.6110 C   0  0  0  0  0  0  0  0  0  0  0  0
    3.8996   23.9088    4.8800 C   0  0  0  0  0  0  0  0  0  0  0  0
    3.8258   22.9933    3.8468 C   0  0  0  0  0  0  0  0  0  0  0  0
    4.0570   23.4178    2.5563 C   0  0  0  0  0  0  0  0  0  0  0  0
    4.3183   24.7559    2.2834 C   0  0  0  0  0  0  0  0  0  0  0  0
    4.3642   25.6870    3.3001 C   0  0  0  0  0  0  0  0  0  0  0  0
    9.6780   25.8355    7.7255 C   0  0  0  0  0  0  0  0  0  0  0  0
    8.8672   25.9142    9.0312 C   0  0  0  0  0  0  0  0  0  0  0  0
    8.7726   27.3406    9.5084 C   0  0  0  0  0  0  0  0  0  0  0  0
    7.7794   27.7399   10.1043 O   0  0  0  0  0  0  0  0  0  0  0  0
    9.8116   28.1198    9.2323 N   0  0  0  0  0  0  0  0  0  0  0  0
   10.5878   27.7529    8.7506 H   0  0  0  0  0  0  0  0  0  0  0  0
    9.8057   29.0645    9.5092 H   0  0  0  0  0  0  0  0  0  0  0  0
 39 40  2  0  0  0
 40 41  1  0  0  0
 40 38  1  0  0  0
 38 44  1  0  0  0
 38 34  1  0  0  0
 44 45  1  0  0  0
 45 46  2  0  0  0
 45 50  1  0  0  0
 46 47  1  0  0  0
 47 48  2  0  0  0
 48 49  1  0  0  0
 49 50  2  0  0  0
 34 35  1  0  0  0
 35 36  2  0  0  0
 35 33  1  0  0  0
 33 51  1  0  0  0
 33  1  1  0  0  0
 51 52  1  0  0  0
 52 53  1  0  0  0
 53 54  2  0  0  0
 53 55  1  0  0  0
  1  2  1  0  0  0
  2  3  2  0  0  0
  2  5  1  0  0  0
  5 26  1  0  0  0
  5  6  1  0  0  0
 26 27  1  0  0  0
 27 28  2  0  0  0
 27 32  1  0  0  0
 28 29  1  0  0  0
 29 30  2  0  0  0
 30 31  1  0  0  0
 31 32  2  0  0  0
  6  7  1  0  0  0
  7  8  2  0  0  0
  7  9  1  0  0  0
  9 10  1  0  0  0
  9 19  1  0  0  0
 10 11  1  0  0  0
 11 12  2  0  0  0
 11 14  1  0  0  0
 14 15  1  0  0  0
 15 16  1  0  0  0
 15 17  1  0  0  0
 15 18  1  0  0  0
 19 20  1  0  0  0
 20 21  2  0  0  0
 20 25  1  0  0  0
 21 22  1  0  0  0
 22 23  2  0  0  0
 23 24  1  0  0  0
 24 25  2  0  0  0
 41 42  1  0  0  0
 41 43  1  0  0  0
 34 37  1  0  0  0
 55 56  1  0  0  0
 55 57  1  0  0  0
  1  4  1  0  0  0
 10 13  1  0  0  0
M  END
> <minimizedAffinity>
-10.11283

$$$$
1IZH_Q50_B_1001


 57 59  0  0  0  0  0  0  0  0999 V2000
   16.2886   20.7002    5.7667 N   0  0  0  0  0  0  0  0  0  0  0  0
   15.1105   21.1021    6.2225 C   0  0  0  0  0  0  0  0  0  0  0  0
   14.1538   20.3221    6.3324 O   0  0  0  0  0  0  0  0  0  0  0  0
   17.0173   21.3560    5.6759 H   0  0  0  0  0  0  0  0  0  0  0  0
   15.0006   22.5842    6.5160 C   0  0  0  0  0  0  0  0  0  0  0  0
   13.5459   22.9959    6.4515 C   0  0  0  0  0  0  0  0  0  0  0  0
   13.3190   23.5328    5.0424 C   0  0  0  0  0  0  0  0  0  0  0  0
   14.0793   24.7437    4.9206 O   0  0  0  0  0  0  0  0  0  0  0  0
   11.8080   23.6897    4.7793 C   0  0  0  0  0  0  0  0  0  0  0  0
   11.2724   24.8504    5.5045 N   0  0  0  0  0  0  0  0  0  0  0  0
   10.3447   24.7498    6.4235 C   0  0  0  0  0  0  0  0  0  0  0  0
    9.8895   23.6534    6.7296 O   0  0  0  0  0  0  0  0  0  0  0  0
   11.6269   25.7434    5.2899 H   0  0  0  0  0  0  0  0  0  0  0  0
    9.9110   26.0188    7.0295 O   0  0  0  0  0  0  0  0  0  0  0  0
    9.6807   26.3101    8.3986 C   0  0  0  0  0  0  0  0  0  0  0  0
   10.9578   26.0569    9.1672 C   0  0  0  0  0  0  0  0  0  0  0  0
    8.5117   25.4782    8.9165 C   0  0  0  0  0  0  0  0  0  0  0  0
    9.3016   27.7903    8.4870 C   0  0  0  0  0  0  0  0  0  0  0  0
   11.4888   23.9603    3.3129 C   0  0  0  0  0  0  0  0  0  0  0  0
   10.0100   23.7172    3.0119 C   0  0  0  0  0  0  0  0  0  0  0  0
    9.5124   22.4424    3.0918 C   0  0  0  0  0  0  0  0  0  0  0  0
    8.1828   22.1553    2.7911 C   0  0  0  0  0  0  0  0  0  0  0  0
    7.3252   23.1885    2.4151 C   0  0  0  0  0  0  0  0  0  0  0  0
    7.8206   24.4704    2.3550 C   0  0  0  0  0  0  0  0  0  0  0  0
    9.1575   24.7553    2.6316 C   0  0  0  0  0  0  0  0  0  0  0  0
   15.5374   23.0878    7.8246 C   0  0  0  0  0  0  0  0  0  0  0  0
   15.7516   21.9195    8.6853 C   0  0  0  0  0  0  0  0  0  0  0  0
   16.9909   21.2847    8.7150 C   0  0  0  0  0  0  0  0  0  0  0  0
   17.1168   20.1906    9.5755 C   0  0  0  0  0  0  0  0  0  0  0  0
   16.0284   19.7689   10.3466 C   0  0  0  0  0  0  0  0  0  0  0  0
   14.8342   20.4317   10.3143 C   0  0  0  0  0  0  0  0  0  0  0  0
   14.6936   21.5176    9.4694 C   0  0  0  0  0  0  0  0  0  0  0  0
   16.5296   19.3263    5.4005 C   0  0  0  0  0  0  0  0  0  0  0  0
   17.6078   17.5004    6.4929 N   0  0  0  0  0  0  0  0  0  0  0  0
   17.7682   18.7679    6.0613 C   0  0  0  0  0  0  0  0  0  0  0  0
   18.7919   19.4458    6.2395 O   0  0  0  0  0  0  0  0  0  0  0  0
   16.7102   17.0994    6.4398 H   0  0  0  0  0  0  0  0  0  0  0  0
   18.7107   16.6812    7.0422 C   0  0  0  0  0  0  0  0  0  0  0  0
   20.6071   15.9204    5.9721 O   0  0  0  0  0  0  0  0  0  0  0  0
   19.4131   16.0006    5.8913 C   0  0  0  0  0  0  0  0  0  0  0  0
   18.6977   15.4799    4.8683 N   0  0  0  0  0  0  0  0  0  0  0  0
   19.1595   15.0370    4.1200 H   0  0  0  0  0  0  0  0  0  0  0  0
   17.7153   15.5436    4.8720 H   0  0  0  0  0  0  0  0  0  0  0  0
   18.2628   15.6576    8.0767 C   0  0  0  0  0  0  0  0  0  0  0  0
   18.1251   16.1722    9.4692 C   0  0  0  0  0  0  0  0  0  0  0  0
   19.1479   16.9451    9.9752 C   0  0  0  0  0  0  0  0  0  0  0  0
   19.0551   17.4736   11.2493 C   0  0  0  0  0  0  0  0  0  0  0  0
   17.9610   17.1616   12.0270 C   0  0  0  0  0  0  0  0  0  0  0  0
   16.9383   16.3622   11.5287 C   0  0  0  0  0  0  0  0  0  0  0  0
   17.0016   15.8531   10.2483 C   0  0  0  0  0  0  0  0  0  0  0  0
   16.6750   19.4924    3.8839 C   0  0  0  0  0  0  0  0  0  0  0  0
   16.1794   18.3258    3.0110 C   0  0  0  0  0  0  0  0  0  0  0  0
   17.3434   17.5093    2.5112 C   0  0  0  0  0  0  0  0  0  0  0  0
   18.4922   17.7908    2.8306 O   0  0  0  0  0  0  0  0  0  0  0  0
   17.0444   16.4949    1.7084 N   0  0  0  0  0  0  0  0  0  0  0  0
   16.1050   16.3080    1.4804 H   0  0  0  0  0  0  0  0  0  0  0  0
   17.7619   15.9297    1.3412 H   0  0  0  0  0  0  0  0  0  0  0  0
 39 40  2  0  0  0
 40 41  1  0  0  0
 40 38  1  0  0  0
 38 44  1  0  0  0
 38 34  1  0  0  0
 44 45  1  0  0  0
 45 46  2  0  0  0
 45 50  1  0  0  0
 46 47  1  0  0  0
 47 48  2  0  0  0
 48 49  1  0  0  0
 49 50  2  0  0  0
 34 35  1  0  0  0
 35 36  2  0  0  0
 35 33  1  0  0  0
 33 51  1  0  0  0
 33  1  1  0  0  0
 51 52  1  0  0  0
 52 53  1  0  0  0
 53 54  2  0  0  0
 53 55  1  0  0  0
  1  2  1  0  0  0
  2  3  2  0  0  0
  2  5  1  0  0  0
  5 26  1  0  0  0
  5  6  1  0  0  0
 26 27  1  0  0  0
 27 28  2  0  0  0
 27 32  1  0  0  0
 28 29  1  0  0  0
 29 30  2  0  0  0
 30 31  1  0  0  0
 31 32  2  0  0  0
  6  7  1  0  0  0
  7  8  2  0  0  0
  7  9  1  0  0  0
  9 10  1  0  0  0
  9 19  1  0  0  0
 10 11  1  0  0  0
 11 12  2  0  0  0
 11 14  1  0  0  0
 14 15  1  0  0  0
 15 16  1  0  0  0
 15 17  1  0  0  0
 15 18  1  0  0  0
 19 20  1  0  0  0
 20 21  2  0  0  0
 20 25  1  0  0  0
 21 22  1  0  0  0
 22 23  2  0  0  0
 23 24  1  0  0  0
 24 25  2  0  0  0
 41 42  1  0  0  0
 41 43  1  0  0  0
 34 37  1  0  0  0
 55 56  1  0  0  0
 55 57  1  0  0  0
  1  4  1  0  0  0
 10 13  1  0  0  0
M  END
> <minimizedAffinity>
-9.96625

$$$$
1IZH_Q50_B_1001


 57 59  0  0  0  0  0  0  0  0999 V2000
   15.4324   20.3318    7.0930 N   0  0  0  0  0  0  0  0  0  0  0  0
   15.0167   21.4741    6.5642 C   0  0  0  0  0  0  0  0  0  0  0  0
   15.5396   22.5578    6.8608 O   0  0  0  0  0  0  0  0  0  0  0  0
   14.9770   19.4947    6.8459 H   0  0  0  0  0  0  0  0  0  0  0  0
   13.8167   21.3643    5.6462 C   0  0  0  0  0  0  0  0  0  0  0  0
   12.7825   22.3896    6.0573 C   0  0  0  0  0  0  0  0  0  0  0  0
   12.6989   23.3913    4.9105 C   0  0  0  0  0  0  0  0  0  0  0  0
   13.5074   24.5204    5.2718 O   0  0  0  0  0  0  0  0  0  0  0  0
   11.2232   23.7227    4.6118 C   0  0  0  0  0  0  0  0  0  0  0  0
   10.7933   24.9067    5.3690 N   0  0  0  0  0  0  0  0  0  0  0  0
   10.0286   24.8346    6.4299 C   0  0  0  0  0  0  0  0  0  0  0  0
    9.6470   23.7472    6.8480 O   0  0  0  0  0  0  0  0  0  0  0  0
   11.0937   25.7937    5.0653 H   0  0  0  0  0  0  0  0  0  0  0  0
    9.6782   26.1229    7.0488 O   0  0  0  0  0  0  0  0  0  0  0  0
    9.5265   26.4286    8.4256 C   0  0  0  0  0  0  0  0  0  0  0  0
    8.4090   25.5797    8.9882 C   0  0  0  0  0  0  0  0  0  0  0  0
    9.2709   27.9223    8.6004 C   0  0  0  0  0  0  0  0  0  0  0  0
   10.8477   26.0771    9.1137 C   0  0  0  0  0  0  0  0  0  0  0  0
   10.9829   24.0822    3.1495 C   0  0  0  0  0  0  0  0  0  0  0  0
    9.4915   24.0810    2.8147 C   0  0  0  0  0  0  0  0  0  0  0  0
    8.7466   22.9625    3.0853 C   0  0  0  0  0  0  0  0  0  0  0  0
    7.3924   22.8899    2.7664 C   0  0  0  0  0  0  0  0  0  0  0  0
    6.7671   23.9855    2.1722 C   0  0  0  0  0  0  0  0  0  0  0  0
    7.5109   25.1147    1.9197 C   0  0  0  0  0  0  0  0  0  0  0  0
    8.8721   25.1795    2.2157 C   0  0  0  0  0  0  0  0  0  0  0  0
   14.0367   21.5359    4.1710 C   0  0  0  0  0  0  0  0  0  0  0  0
   14.4217   20.2266    3.6334 C   0  0  0  0  0  0  0  0  0  0  0  0
   14.5358   19.1248    4.4778 C   0  0  0  0  0  0  0  0  0  0  0  0
   14.8890   17.9103    3.8831 C   0  0  0  0  0  0  0  0  0  0  0  0
   15.1237   17.8396    2.5058 C   0  0  0  0  0  0  0  0  0  0  0  0
   14.9758   18.9342    1.7017 C   0  0  0  0  0  0  0  0  0  0  0  0
   14.6249   20.1433    2.2742 C   0  0  0  0  0  0  0  0  0  0  0  0
   16.5351   20.2847    8.0213 C   0  0  0  0  0  0  0  0  0  0  0  0
   17.6850   18.2178    7.7128 N   0  0  0  0  0  0  0  0  0  0  0  0
   17.7241   19.5416    7.4586 C   0  0  0  0  0  0  0  0  0  0  0  0
   18.6611   20.1191    6.8862 O   0  0  0  0  0  0  0  0  0  0  0  0
   16.9756   17.8769    8.3043 H   0  0  0  0  0  0  0  0  0  0  0  0
   18.6528   17.2511    7.1488 C   0  0  0  0  0  0  0  0  0  0  0  0
   17.6491   15.8808    5.5882 O   0  0  0  0  0  0  0  0  0  0  0  0
   18.2254   16.9220    5.7380 C   0  0  0  0  0  0  0  0  0  0  0  0
   18.4540   17.7996    4.7345 N   0  0  0  0  0  0  0  0  0  0  0  0
   18.1738   17.5812    3.8163 H   0  0  0  0  0  0  0  0  0  0  0  0
   18.9004   18.6567    4.9222 H   0  0  0  0  0  0  0  0  0  0  0  0
   18.8058   15.9796    7.9723 C   0  0  0  0  0  0  0  0  0  0  0  0
   18.4682   16.1086    9.4187 C   0  0  0  0  0  0  0  0  0  0  0  0
   17.2439   15.6359    9.8399 C   0  0  0  0  0  0  0  0  0  0  0  0
   16.8953   15.7021   11.1760 C   0  0  0  0  0  0  0  0  0  0  0  0
   17.7574   16.3063   12.0652 C   0  0  0  0  0  0  0  0  0  0  0  0
   18.9832   16.8062   11.6400 C   0  0  0  0  0  0  0  0  0  0  0  0
   19.3589   16.7195   10.3156 C   0  0  0  0  0  0  0  0  0  0  0  0
   15.8553   19.5496    9.1816 C   0  0  0  0  0  0  0  0  0  0  0  0
   15.7646   20.3055   10.5192 C   0  0  0  0  0  0  0  0  0  0  0  0
   14.5535   21.2022   10.5374 C   0  0  0  0  0  0  0  0  0  0  0  0
   13.7840   21.2393    9.5847 O   0  0  0  0  0  0  0  0  0  0  0  0
   14.3898   21.9420   11.6277 N   0  0  0  0  0  0  0  0  0  0  0  0
   15.0356   21.8773   12.3680 H   0  0  0  0  0  0  0  0  0  0  0  0
   13.6227   22.5553   11.6959 H   0  0  0  0  0  0  0  0  0  0  0  0
 39 40  2  0  0  0
 40 41  1  0  0  0
 40 38  1  0  0  0
 38 44  1  0  0  0
 38 34  1  0  0  0
 44 45  1  0  0  0
 45 46  2  0  0  0
 45 50  1  0  0  0
 46 47  1  0  0  0
 47 48  2  0  0  0
 48 49  1  0  0  0
 49 50  2  0  0  0
 34 35  1  0  0  0
 35 36  2  0  0  0
 35 33  1  0  0  0
 33 51  1  0  0  0
 33  1  1  0  0  0
 51 52  1  0  0  0
 52 53  1  0  0  0
 53 54  2  0  0  0
 53 55  1  0  0  0
  1  2  1  0  0  0
  2  3  2  0  0  0
  2  5  1  0  0  0
  5 26  1  0  0  0
  5  6  1  0  0  0
 26 27  1  0  0  0
 27 28  2  0  0  0
 27 32  1  0  0  0
 28 29  1  0  0  0
 29 30  2  0  0  0
 30 31  1  0  0  0
 31 32  2  0  0  0
  6  7  1  0  0  0
  7  8  2  0  0  0
  7  9  1  0  0  0
  9 10  1  0  0  0
  9 19  1  0  0  0
 10 11  1  0  0  0
 11 12  2  0  0  0
 11 14  1  0  0  0
 14 15  1  0  0  0
 15 16  1  0  0  0
 15 17  1  0  0  0
 15 18  1  0  0  0
 19 20  1  0  0  0
 20 21  2  0  0  0
 20 25  1  0  0  0
 21 22  1  0  0  0
 22 23  2  0  0  0
 23 24  1  0  0  0
 24 25  2  0  0  0
 41 42  1  0  0  0
 41 43  1  0  0  0
 34 37  1  0  0  0
 55 56  1  0  0  0
 55 57  1  0  0  0
  1  4  1  0  0  0
 10 13  1  0  0  0
M  END
> <minimizedAffinity>
-9.95719

$$$$
1IZH_Q50_B_1001


 57 59  0  0  0  0  0  0  0  0999 V2000
   15.5353   20.0776    7.3633 N   0  0  0  0  0  0  0  0  0  0  0  0
   15.1797   21.2704    6.9072 C   0  0  0  0  0  0  0  0  0  0  0  0
   15.6914   22.3127    7.3402 O   0  0  0  0  0  0  0  0  0  0  0  0
   15.0900   19.2752    7.0069 H   0  0  0  0  0  0  0  0  0  0  0  0
   14.0569   21.2668    5.8901 C   0  0  0  0  0  0  0  0  0  0  0  0
   13.0328   22.3109    6.2785 C   0  0  0  0  0  0  0  0  0  0  0  0
   12.9794   23.3036    5.1222 C   0  0  0  0  0  0  0  0  0  0  0  0
   13.7875   24.4306    5.4911 O   0  0  0  0  0  0  0  0  0  0  0  0
   11.5123   23.6418    4.7903 C   0  0  0  0  0  0  0  0  0  0  0  0
   11.0757   24.8368    5.5260 N   0  0  0  0  0  0  0  0  0  0  0  0
   10.1737   24.7988    6.4749 C   0  0  0  0  0  0  0  0  0  0  0  0
    9.6597   23.7348    6.8013 O   0  0  0  0  0  0  0  0  0  0  0  0
   11.4792   25.7046    5.2952 H   0  0  0  0  0  0  0  0  0  0  0  0
    9.8417   26.0950    7.0875 O   0  0  0  0  0  0  0  0  0  0  0  0
    9.6453   26.3986    8.4592 C   0  0  0  0  0  0  0  0  0  0  0  0
   10.9325   26.1243    9.2033 C   0  0  0  0  0  0  0  0  0  0  0  0
    8.4708   25.5932    9.0058 C   0  0  0  0  0  0  0  0  0  0  0  0
    9.2976   27.8866    8.5463 C   0  0  0  0  0  0  0  0  0  0  0  0
   11.3040   23.9871    3.3196 C   0  0  0  0  0  0  0  0  0  0  0  0
    9.8380   23.8345    2.9151 C   0  0  0  0  0  0  0  0  0  0  0  0
    9.1653   24.9203    2.4175 C   0  0  0  0  0  0  0  0  0  0  0  0
    7.8183   24.8504    2.0691 C   0  0  0  0  0  0  0  0  0  0  0  0
    7.1339   23.6438    2.2109 C   0  0  0  0  0  0  0  0  0  0  0  0
    7.8153   22.5496    2.6912 C   0  0  0  0  0  0  0  0  0  0  0  0
    9.1570   22.6248    3.0638 C   0  0  0  0  0  0  0  0  0  0  0  0
   14.4055   21.5139    4.4509 C   0  0  0  0  0  0  0  0  0  0  0  0
   14.5714   20.2037    3.8125 C   0  0  0  0  0  0  0  0  0  0  0  0
   14.5813   19.0422    4.5811 C   0  0  0  0  0  0  0  0  0  0  0  0
   14.7256   17.8340    3.8935 C   0  0  0  0  0  0  0  0  0  0  0  0
   14.8651   17.8252    2.5016 C   0  0  0  0  0  0  0  0  0  0  0  0
   14.8232   18.9814    1.7750 C   0  0  0  0  0  0  0  0  0  0  0  0
   14.6791   20.1856    2.4400 C   0  0  0  0  0  0  0  0  0  0  0  0
   16.5580   19.9262    8.3687 C   0  0  0  0  0  0  0  0  0  0  0  0
   17.5399   18.5505    6.6856 N   0  0  0  0  0  0  0  0  0  0  0  0
   17.5759   18.8744    7.9941 C   0  0  0  0  0  0  0  0  0  0  0  0
   18.3106   18.3294    8.8322 O   0  0  0  0  0  0  0  0  0  0  0  0
   16.8200   18.9289    6.1307 H   0  0  0  0  0  0  0  0  0  0  0  0
   18.5262   17.6558    6.0404 C   0  0  0  0  0  0  0  0  0  0  0  0
   18.1468   18.8905    4.1295 O   0  0  0  0  0  0  0  0  0  0  0  0
   18.3774   17.7887    4.5433 C   0  0  0  0  0  0  0  0  0  0  0  0
   18.5502   16.7120    3.7431 N   0  0  0  0  0  0  0  0  0  0  0  0
   18.4523   16.8028    2.7677 H   0  0  0  0  0  0  0  0  0  0  0  0
   18.7739   15.8375    4.1361 H   0  0  0  0  0  0  0  0  0  0  0  0
   18.4058   16.1980    6.4632 C   0  0  0  0  0  0  0  0  0  0  0  0
   19.6565   15.5770    6.9854 C   0  0  0  0  0  0  0  0  0  0  0  0
   20.5525   15.0649    6.0718 C   0  0  0  0  0  0  0  0  0  0  0  0
   21.7421   14.5073    6.5021 C   0  0  0  0  0  0  0  0  0  0  0  0
   21.9871   14.4103    7.8547 C   0  0  0  0  0  0  0  0  0  0  0  0
   21.0746   14.9040    8.7804 C   0  0  0  0  0  0  0  0  0  0  0  0
   19.8975   15.4913    8.3659 C   0  0  0  0  0  0  0  0  0  0  0  0
   15.6816   19.5237    9.5599 C   0  0  0  0  0  0  0  0  0  0  0  0
   15.7125   20.4542   10.7853 C   0  0  0  0  0  0  0  0  0  0  0  0
   14.5127   21.3663   10.7855 C   0  0  0  0  0  0  0  0  0  0  0  0
   13.7252   21.3698    9.8469 O   0  0  0  0  0  0  0  0  0  0  0  0
   14.3793   22.1571   11.8437 N   0  0  0  0  0  0  0  0  0  0  0  0
   15.0387   22.1179   12.5737 H   0  0  0  0  0  0  0  0  0  0  0  0
   13.6211   22.7826   11.8983 H   0  0  0  0  0  0  0  0  0  0  0  0
 39 40  2  0  0  0
 40 41  1  0  0  0
 40 38  1  0  0  0
 38 44  1  0  0  0
 38 34  1  0  0  0
 44 45  1  0  0  0
 45 46  2  0  0  0
 45 50  1  0  0  0
 46 47  1  0  0  0
 47 48  2  0  0  0
 48 49  1  0  0  0
 49 50  2  0  0  0
 34 35  1  0  0  0
 35 36  2  0  0  0
 35 33  1  0  0  0
 33 51  1  0  0  0
 33  1  1  0  0  0
 51 52  1  0  0  0
 52 53  1  0  0  0
 53 54  2  0  0  0
 53 55  1  0  0  0
  1  2  1  0  0  0
  2  3  2  0  0  0
  2  5  1  0  0  0
  5 26  1  0  0  0
  5  6  1  0  0  0
 26 27  1  0  0  0
 27 28  2  0  0  0
 27 32  1  0  0  0
 28 29  1  0  0  0
 29 30  2  0  0  0
 30 31  1  0  0  0
 31 32  2  0  0  0
  6  7  1  0  0  0
  7  8  2  0  0  0
  7  9  1  0  0  0
  9 10  1  0  0  0
  9 19  1  0  0  0
 10 11  1  0  0  0
 11 12  2  0  0  0
 11 14  1  0  0  0
 14 15  1  0  0  0
 15 16  1  0  0  0
 15 17  1  0  0  0
 15 18  1  0  0  0
 19 20  1  0  0  0
 20 21  2  0  0  0
 20 25  1  0  0  0
 21 22  1  0  0  0
 22 23  2  0  0  0
 23 24  1  0  0  0
 24 25  2  0  0  0
 41 42  1  0  0  0
 41 43  1  0  0  0
 34 37  1  0  0  0
 55 56  1  0  0  0
 55 57  1  0  0  0
  1  4  1  0  0  0
 10 13  1  0  0  0
M  END
> <minimizedAffinity>
-9.88538

$$$$
1IZH_Q50_B_1001


 57 59  0  0  0  0  0  0  0  0999 V2000
   15.8964   19.5672    5.5155 N   0  0  0  0  0  0  0  0  0  0  0  0
   17.1253   19.5463    6.0123 C   0  0  0  0  0  0  0  0  0  0  0  0
   18.1237   19.5056    5.2794 O   0  0  0  0  0  0  0  0  0  0  0  0
   15.1294   19.5794    6.1326 H   0  0  0  0  0  0  0  0  0  0  0  0
   17.2122   19.4926    7.5237 C   0  0  0  0  0  0  0  0  0  0  0  0
   18.3314   18.5557    7.9230 C   0  0  0  0  0  0  0  0  0  0  0  0
   17.9540   18.0036    9.2935 C   0  0  0  0  0  0  0  0  0  0  0  0
   18.8329   18.6087   10.2529 O   0  0  0  0  0  0  0  0  0  0  0  0
   17.9913   16.4626    9.2652 C   0  0  0  0  0  0  0  0  0  0  0  0
   19.0453   15.9853    8.3590 N   0  0  0  0  0  0  0  0  0  0  0  0
   18.9195   14.9076    7.6253 C   0  0  0  0  0  0  0  0  0  0  0  0
   17.8850   14.2506    7.6585 O   0  0  0  0  0  0  0  0  0  0  0  0
   19.8834   16.4986    8.3008 H   0  0  0  0  0  0  0  0  0  0  0  0
   20.0846   14.5661    6.7936 O   0  0  0  0  0  0  0  0  0  0  0  0
   20.1988   14.5943    5.3800 C   0  0  0  0  0  0  0  0  0  0  0  0
   19.4844   15.8222    4.8625 C   0  0  0  0  0  0  0  0  0  0  0  0
   19.6438   13.3023    4.7888 C   0  0  0  0  0  0  0  0  0  0  0  0
   21.6909   14.6791    5.0499 C   0  0  0  0  0  0  0  0  0  0  0  0
   18.3335   15.8551   10.6214 C   0  0  0  0  0  0  0  0  0  0  0  0
   17.0829   15.6766   11.4819 C   0  0  0  0  0  0  0  0  0  0  0  0
   17.2203   15.2768   12.7859 C   0  0  0  0  0  0  0  0  0  0  0  0
   16.1149   15.0604   13.6056 C   0  0  0  0  0  0  0  0  0  0  0  0
   14.8327   15.2704   13.0992 C   0  0  0  0  0  0  0  0  0  0  0  0
   14.6969   15.6911   11.7966 C   0  0  0  0  0  0  0  0  0  0  0  0
   15.8017   15.8840   10.9677 C   0  0  0  0  0  0  0  0  0  0  0  0
   17.4363   20.7786    8.2654 C   0  0  0  0  0  0  0  0  0  0  0  0
   16.1544   21.1638    8.8654 C   0  0  0  0  0  0  0  0  0  0  0  0
   15.2779   21.9994    8.1773 C   0  0  0  0  0  0  0  0  0  0  0  0
   14.0699   22.3029    8.8114 C   0  0  0  0  0  0  0  0  0  0  0  0
   13.7895   21.7883   10.0816 C   0  0  0  0  0  0  0  0  0  0  0  0
   14.6598   20.9485   10.7171 C   0  0  0  0  0  0  0  0  0  0  0  0
   15.8590   20.6366   10.1025 C   0  0  0  0  0  0  0  0  0  0  0  0
   15.6551   19.5727    4.0937 C   0  0  0  0  0  0  0  0  0  0  0  0
   14.1017   21.2601    4.7488 N   0  0  0  0  0  0  0  0  0  0  0  0
   14.6077   20.5863    3.6960 C   0  0  0  0  0  0  0  0  0  0  0  0
   14.2195   20.7193    2.5252 O   0  0  0  0  0  0  0  0  0  0  0  0
   14.3656   20.9776    5.6543 H   0  0  0  0  0  0  0  0  0  0  0  0
   13.1703   22.4018    4.6138 C   0  0  0  0  0  0  0  0  0  0  0  0
   13.1489   24.1769    6.0866 O   0  0  0  0  0  0  0  0  0  0  0  0
   13.8064   23.6103    5.2588 C   0  0  0  0  0  0  0  0  0  0  0  0
   15.0675   23.9732    4.9308 N   0  0  0  0  0  0  0  0  0  0  0  0
   15.4785   24.7616    5.3535 H   0  0  0  0  0  0  0  0  0  0  0  0
   15.5743   23.4490    4.2693 H   0  0  0  0  0  0  0  0  0  0  0  0
   11.7900   22.1449    5.2029 C   0  0  0  0  0  0  0  0  0  0  0  0
   10.6410   22.5497    4.3433 C   0  0  0  0  0  0  0  0  0  0  0  0
    9.9815   23.7187    4.6568 C   0  0  0  0  0  0  0  0  0  0  0  0
    8.9301   24.1555    3.8726 C   0  0  0  0  0  0  0  0  0  0  0  0
    8.5096   23.3741    2.8182 C   0  0  0  0  0  0  0  0  0  0  0  0
    9.1571   22.1820    2.5134 C   0  0  0  0  0  0  0  0  0  0  0  0
   10.2276   21.7482    3.2673 C   0  0  0  0  0  0  0  0  0  0  0  0
   15.1942   18.1224    3.9117 C   0  0  0  0  0  0  0  0  0  0  0  0
   16.1539   17.1819    3.1614 C   0  0  0  0  0  0  0  0  0  0  0  0
   17.0862   17.9730    2.2802 C   0  0  0  0  0  0  0  0  0  0  0  0
   18.2918   17.9920    2.4972 O   0  0  0  0  0  0  0  0  0  0  0  0
   16.5207   18.6431    1.2832 N   0  0  0  0  0  0  0  0  0  0  0  0
   15.5465   18.5966    1.1490 H   0  0  0  0  0  0  0  0  0  0  0  0
   17.0755   19.1866    0.6782 H   0  0  0  0  0  0  0  0  0  0  0  0
 39 40  2  0  0  0
 40 41  1  0  0  0
 40 38  1  0  0  0
 38 44  1  0  0  0
 38 34  1  0  0  0
 44 45  1  0  0  0
 45 46  2  0  0  0
 45 50  1  0  0  0
 46 47  1  0  0  0
 47 48  2  0  0  0
 48 49  1  0  0  0
 49 50  2  0  0  0
 34 35  1  0  0  0
 35 36  2  0  0  0
 35 33  1  0  0  0
 33 51  1  0  0  0
 33  1  1  0  0  0
 51 52  1  0  0  0
 52 53  1  0  0  0
 53 54  2  0  0  0
 53 55  1  0  0  0
  1  2  1  0  0  0
  2  3  2  0  0  0
  2  5  1  0  0  0
  5 26  1  0  0  0
  5  6  1  0  0  0
 26 27  1  0  0  0
 27 28  2  0  0  0
 27 32  1  0  0  0
 28 29  1  0  0  0
 29 30  2  0  0  0
 30 31  1  0  0  0
 31 32  2  0  0  0
  6  7  1  0  0  0
  7  8  2  0  0  0
  7  9  1  0  0  0
  9 10  1  0  0  0
  9 19  1  0  0  0
 10 11  1  0  0  0
 11 12  2  0  0  0
 11 14  1  0  0  0
 14 15  1  0  0  0
 15 16  1  0  0  0
 15 17  1  0  0  0
 15 18  1  0  0  0
 19 20  1  0  0  0
 20 21  2  0  0  0
 20 25  1  0  0  0
 21 22  1  0  0  0
 22 23  2  0  0  0
 23 24  1  0  0  0
 24 25  2  0  0  0
 41 42  1  0  0  0
 41 43  1  0  0  0
 34 37  1  0  0  0
 55 56  1  0  0  0
 55 57  1  0  0  0
  1  4  1  0  0  0
 10 13  1  0  0  0
M  END
> <minimizedAffinity>
-9.83089

$$$$
1IZH_Q50_B_1001


 57 59  0  0  0  0  0  0  0  0999 V2000
   16.4800   20.6128    5.9113 N   0  0  0  0  0  0  0  0  0  0  0  0
   15.3121   21.0371    6.3732 C   0  0  0  0  0  0  0  0  0  0  0  0
   14.3198   20.2959    6.4149 O   0  0  0  0  0  0  0  0  0  0  0  0
   17.2386   21.2393    5.8766 H   0  0  0  0  0  0  0  0  0  0  0  0
   15.2623   22.5001    6.7631 C   0  0  0  0  0  0  0  0  0  0  0  0
   13.8180   22.9206    6.9269 C   0  0  0  0  0  0  0  0  0  0  0  0
   13.4156   23.5781    5.6111 C   0  0  0  0  0  0  0  0  0  0  0  0
   14.6063   24.1266    5.0277 O   0  0  0  0  0  0  0  0  0  0  0  0
   12.2884   24.6000    5.8601 C   0  0  0  0  0  0  0  0  0  0  0  0
   11.4236   24.7176    4.6776 N   0  0  0  0  0  0  0  0  0  0  0  0
   10.7121   23.7205    4.2138 C   0  0  0  0  0  0  0  0  0  0  0  0
   10.7315   22.6300    4.7735 O   0  0  0  0  0  0  0  0  0  0  0  0
   11.3771   25.5845    4.2134 H   0  0  0  0  0  0  0  0  0  0  0  0
    9.9218   24.0119    3.0071 O   0  0  0  0  0  0  0  0  0  0  0  0
    8.5257   24.2391    2.8997 C   0  0  0  0  0  0  0  0  0  0  0  0
    8.0177   24.7575    4.2260 C   0  0  0  0  0  0  0  0  0  0  0  0
    7.8232   22.9566    2.4653 C   0  0  0  0  0  0  0  0  0  0  0  0
    8.3234   25.2971    1.8123 C   0  0  0  0  0  0  0  0  0  0  0  0
   11.3539   24.1847    6.9914 C   0  0  0  0  0  0  0  0  0  0  0  0
   10.7420   25.4031    7.6823 C   0  0  0  0  0  0  0  0  0  0  0  0
   11.2850   25.8464    8.8604 C   0  0  0  0  0  0  0  0  0  0  0  0
   10.7456   26.9272    9.5542 C   0  0  0  0  0  0  0  0  0  0  0  0
    9.6351   27.5917    9.0348 C   0  0  0  0  0  0  0  0  0  0  0  0
    9.1036   27.1588    7.8422 C   0  0  0  0  0  0  0  0  0  0  0  0
    9.6273   26.0614    7.1594 C   0  0  0  0  0  0  0  0  0  0  0  0
   15.9829   22.9248    8.0098 C   0  0  0  0  0  0  0  0  0  0  0  0
   16.2049   21.7194    8.8158 C   0  0  0  0  0  0  0  0  0  0  0  0
   17.4540   21.1034    8.8317 C   0  0  0  0  0  0  0  0  0  0  0  0
   17.5866   19.9708    9.6398 C   0  0  0  0  0  0  0  0  0  0  0  0
   16.4953   19.4950   10.3745 C   0  0  0  0  0  0  0  0  0  0  0  0
   15.2909   20.1398   10.3579 C   0  0  0  0  0  0  0  0  0  0  0  0
   15.1435   21.2633    9.5648 C   0  0  0  0  0  0  0  0  0  0  0  0
   16.6669   19.2565    5.4584 C   0  0  0  0  0  0  0  0  0  0  0  0
   17.7812   17.3353    6.3283 N   0  0  0  0  0  0  0  0  0  0  0  0
   17.9290   18.6380    6.0128 C   0  0  0  0  0  0  0  0  0  0  0  0
   18.9615   19.2960    6.2130 O   0  0  0  0  0  0  0  0  0  0  0  0
   16.8808   16.9410    6.2737 H   0  0  0  0  0  0  0  0  0  0  0  0
   18.9023   16.4677    6.7525 C   0  0  0  0  0  0  0  0  0  0  0  0
   20.7189   15.7895    5.5035 O   0  0  0  0  0  0  0  0  0  0  0  0
   19.5216   15.8571    5.5177 C   0  0  0  0  0  0  0  0  0  0  0  0
   18.7354   15.3798    4.5259 N   0  0  0  0  0  0  0  0  0  0  0  0
   19.1430   14.9826    3.7226 H   0  0  0  0  0  0  0  0  0  0  0  0
   17.7555   15.4296    4.6073 H   0  0  0  0  0  0  0  0  0  0  0  0
   18.5020   15.3828    7.7431 C   0  0  0  0  0  0  0  0  0  0  0  0
   18.3742   15.8254    9.1610 C   0  0  0  0  0  0  0  0  0  0  0  0
   19.4412   16.4880    9.7285 C   0  0  0  0  0  0  0  0  0  0  0  0
   19.3617   16.9478   11.0298 C   0  0  0  0  0  0  0  0  0  0  0  0
   18.2313   16.6756   11.7697 C   0  0  0  0  0  0  0  0  0  0  0  0
   17.1623   15.9863   11.2083 C   0  0  0  0  0  0  0  0  0  0  0  0
   17.2139   15.5483    9.9013 C   0  0  0  0  0  0  0  0  0  0  0  0
   16.7266   19.5025    3.9468 C   0  0  0  0  0  0  0  0  0  0  0  0
   16.1803   18.3829    3.0431 C   0  0  0  0  0  0  0  0  0  0  0  0
   17.3107   17.5586    2.4826 C   0  0  0  0  0  0  0  0  0  0  0  0
   18.4768   17.8340    2.7382 O   0  0  0  0  0  0  0  0  0  0  0  0
   16.9626   16.5444    1.6996 N   0  0  0  0  0  0  0  0  0  0  0  0
   16.0112   16.3624    1.5235 H   0  0  0  0  0  0  0  0  0  0  0  0
   17.6558   15.9742    1.2952 H   0  0  0  0  0  0  0  0  0  0  0  0
 39 40  2  0  0  0
 40 41  1  0  0  0
 40 38  1  0  0  0
 38 44  1  0  0  0
 38 34  1  0  0  0
 44 45  1  0  0  0
 45 46  2  0  0  0
 45 50  1  0  0  0
 46 47  1  0  0  0
 47 48  2  0  0  0
 48 49  1  0  0  0
 49 50  2  0  0  0
 34 35  1  0  0  0
 35 36  2  0  0  0
 35 33  1  0  0  0
 33 51  1  0  0  0
 33  1  1  0  0  0
 51 52  1  0  0  0
 52 53  1  0  0  0
 53 54  2  0  0  0
 53 55  1  0  0  0
  1  2  1  0  0  0
  2  3  2  0  0  0
  2  5  1  0  0  0
  5 26  1  0  0  0
  5  6  1  0  0  0
 26 27  1  0  0  0
 27 28  2  0  0  0
 27 32  1  0  0  0
 28 29  1  0  0  0
 29 30  2  0  0  0
 30 31  1  0  0  0
 31 32  2  0  0  0
  6  7  1  0  0  0
  7  8  2  0  0  0
  7  9  1  0  0  0
  9 10  1  0  0  0
  9 19  1  0  0  0
 10 11  1  0  0  0
 11 12  2  0  0  0
 11 14  1  0  0  0
 14 15  1  0  0  0
 15 16  1  0  0  0
 15 17  1  0  0  0
 15 18  1  0  0  0
 19 20  1  0  0  0
 20 21  2  0  0  0
 20 25  1  0  0  0
 21 22  1  0  0  0
 22 23  2  0  0  0
 23 24  1  0  0  0
 24 25  2  0  0  0
 41 42  1  0  0  0
 41 43  1  0  0  0
 34 37  1  0  0  0
 55 56  1  0  0  0
 55 57  1  0  0  0
  1  4  1  0  0  0
 10 13  1  0  0  0
M  END
> <minimizedAffinity>
-9.64921

$$$$
1IZH_Q50_B_1001


 57 59  0  0  0  0  0  0  0  0999 V2000
   13.7101   20.6138    4.6178 N   0  0  0  0  0  0  0  0  0  0  0  0
   13.0089   21.1291    5.6178 C   0  0  0  0  0  0  0  0  0  0  0  0
   13.0439   20.6423    6.7569 O   0  0  0  0  0  0  0  0  0  0  0  0
   13.6390   21.0186    3.7231 H   0  0  0  0  0  0  0  0  0  0  0  0
   12.1104   22.2913    5.2477 C   0  0  0  0  0  0  0  0  0  0  0  0
   12.2172   23.3596    6.3141 C   0  0  0  0  0  0  0  0  0  0  0  0
   11.7803   24.6631    5.6541 C   0  0  0  0  0  0  0  0  0  0  0  0
   12.8527   25.6027    5.8163 O   0  0  0  0  0  0  0  0  0  0  0  0
   10.4286   25.1184    6.2393 C   0  0  0  0  0  0  0  0  0  0  0  0
    9.3156   24.4233    5.5774 N   0  0  0  0  0  0  0  0  0  0  0  0
    8.3917   25.0496    4.8922 C   0  0  0  0  0  0  0  0  0  0  0  0
    8.4324   26.2680    4.7631 O   0  0  0  0  0  0  0  0  0  0  0  0
    9.2623   23.4432    5.6524 H   0  0  0  0  0  0  0  0  0  0  0  0
    7.3396   24.1962    4.3172 O   0  0  0  0  0  0  0  0  0  0  0  0
    6.1130   24.5873    3.7216 C   0  0  0  0  0  0  0  0  0  0  0  0
    6.4028   25.1657    2.3552 C   0  0  0  0  0  0  0  0  0  0  0  0
    5.3855   25.5722    4.6313 C   0  0  0  0  0  0  0  0  0  0  0  0
    5.2559   23.3266    3.5851 C   0  0  0  0  0  0  0  0  0  0  0  0
   10.2808   24.7784    7.7186 C   0  0  0  0  0  0  0  0  0  0  0  0
    9.4253   25.8164    8.4446 C   0  0  0  0  0  0  0  0  0  0  0  0
    8.0692   25.6302    8.5201 C   0  0  0  0  0  0  0  0  0  0  0  0
    7.2356   26.5616    9.1349 C   0  0  0  0  0  0  0  0  0  0  0  0
    7.7889   27.7072    9.7061 C   0  0  0  0  0  0  0  0  0  0  0  0
    9.1519   27.8828    9.6476 C   0  0  0  0  0  0  0  0  0  0  0  0
    9.9848   26.9635    9.0105 C   0  0  0  0  0  0  0  0  0  0  0  0
   12.3390   22.9699    3.9281 C   0  0  0  0  0  0  0  0  0  0  0  0
   11.0875   22.8767    3.1686 C   0  0  0  0  0  0  0  0  0  0  0  0
   10.7366   23.8763    2.2644 C   0  0  0  0  0  0  0  0  0  0  0  0
    9.5374   23.7020    1.5681 C   0  0  0  0  0  0  0  0  0  0  0  0
    8.7428   22.5743    1.8002 C   0  0  0  0  0  0  0  0  0  0  0  0
    9.1304   21.5984    2.6742 C   0  0  0  0  0  0  0  0  0  0  0  0
   10.3154   21.7546    3.3700 C   0  0  0  0  0  0  0  0  0  0  0  0
   14.5744   19.4751    4.8076 C   0  0  0  0  0  0  0  0  0  0  0  0
   16.3276   19.2775    6.4129 N   0  0  0  0  0  0  0  0  0  0  0  0
   15.9576   19.8775    5.2633 C   0  0  0  0  0  0  0  0  0  0  0  0
   16.6364   20.7255    4.6640 O   0  0  0  0  0  0  0  0  0  0  0  0
   15.6600   18.7357    6.8925 H   0  0  0  0  0  0  0  0  0  0  0  0
   17.6849   19.3914    6.9910 C   0  0  0  0  0  0  0  0  0  0  0  0
   18.5376   17.3516    7.6485 O   0  0  0  0  0  0  0  0  0  0  0  0
   18.4242   18.1026    6.7202 C   0  0  0  0  0  0  0  0  0  0  0  0
   18.8755   17.8243    5.4759 N   0  0  0  0  0  0  0  0  0  0  0  0
   19.3570   16.9831    5.3035 H   0  0  0  0  0  0  0  0  0  0  0  0
   18.7225   18.4631    4.7425 H   0  0  0  0  0  0  0  0  0  0  0  0
   17.6965   19.7128    8.4793 C   0  0  0  0  0  0  0  0  0  0  0  0
   16.4983   20.4404    8.9870 C   0  0  0  0  0  0  0  0  0  0  0  0
   16.2518   21.7023    8.4905 C   0  0  0  0  0  0  0  0  0  0  0  0
   15.1364   22.4065    8.9043 C   0  0  0  0  0  0  0  0  0  0  0  0
   14.3159   21.8588    9.8665 C   0  0  0  0  0  0  0  0  0  0  0  0
   14.5748   20.5960   10.3876 C   0  0  0  0  0  0  0  0  0  0  0  0
   15.6662   19.8677    9.9620 C   0  0  0  0  0  0  0  0  0  0  0  0
   14.5481   18.9003    3.3871 C   0  0  0  0  0  0  0  0  0  0  0  0
   15.5530   17.7762    3.0785 C   0  0  0  0  0  0  0  0  0  0  0  0
   16.6740   18.2932    2.2139 C   0  0  0  0  0  0  0  0  0  0  0  0
   17.8409   18.2013    2.5757 O   0  0  0  0  0  0  0  0  0  0  0  0
   16.3155   18.8544    1.0653 N   0  0  0  0  0  0  0  0  0  0  0  0
   15.3639   18.9049    0.8179 H   0  0  0  0  0  0  0  0  0  0  0  0
   17.0013   19.2200    0.4609 H   0  0  0  0  0  0  0  0  0  0  0  0
 39 40  2  0  0  0
 40 41  1  0  0  0
 40 38  1  0  0  0
 38 44  1  0  0  0
 38 34  1  0  0  0
 44 45  1  0  0  0
 45 46  2  0  0  0
 45 50  1  0  0  0
 46 47  1  0  0  0
 47 48  2  0  0  0
 48 49  1  0  0  0
 49 50  2  0  0  0
 34 35  1  0  0  0
 35 36  2  0  0  0
 35 33  1  0  0  0
 33 51  1  0  0  0
 33  1  1  0  0  0
 51 52  1  0  0  0
 52 53  1  0  0  0
 53 54  2  0  0  0
 53 55  1  0  0  0
  1  2  1  0  0  0
  2  3  2  0  0  0
  2  5  1  0  0  0
  5 26  1  0  0  0
  5  6  1  0  0  0
 26 27  1  0  0  0
 27 28  2  0  0  0
 27 32  1  0  0  0
 28 29  1  0  0  0
 29 30  2  0  0  0
 30 31  1  0  0  0
 31 32  2  0  0  0
  6  7  1  0  0  0
  7  8  2  0  0  0
  7  9  1  0  0  0
  9 10  1  0  0  0
  9 19  1  0  0  0
 10 11  1  0  0  0
 11 12  2  0  0  0
 11 14  1  0  0  0
 14 15  1  0  0  0
 15 16  1  0  0  0
 15 17  1  0  0  0
 15 18  1  0  0  0
 19 20  1  0  0  0
 20 21  2  0  0  0
 20 25  1  0  0  0
 21 22  1  0  0  0
 22 23  2  0  0  0
 23 24  1  0  0  0
 24 25  2  0  0  0
 41 42  1  0  0  0
 41 43  1  0  0  0
 34 37  1  0  0  0
 55 56  1  0  0  0
 55 57  1  0  0  0
  1  4  1  0  0  0
 10 13  1  0  0  0
M  END
> <minimizedAffinity>
-9.18097

$$$$
1IZH_Q50_B_1001


 57 59  0  0  0  0  0  0  0  0999 V2000
   18.6217   15.9037    7.4462 N   0  0  0  0  0  0  0  0  0  0  0  0
   19.4474   15.7422    8.4706 C   0  0  0  0  0  0  0  0  0  0  0  0
   20.6724   15.8839    8.3487 O   0  0  0  0  0  0  0  0  0  0  0  0
   17.6567   15.7624    7.5806 H   0  0  0  0  0  0  0  0  0  0  0  0
   18.7961   15.2963    9.7636 C   0  0  0  0  0  0  0  0  0  0  0  0
   17.2947   15.4364    9.6365 C   0  0  0  0  0  0  0  0  0  0  0  0
   16.8495   16.3083   10.8057 C   0  0  0  0  0  0  0  0  0  0  0  0
   15.4224   16.1941   10.9027 O   0  0  0  0  0  0  0  0  0  0  0  0
   17.3708   17.7466   10.6141 C   0  0  0  0  0  0  0  0  0  0  0  0
   16.3539   18.5851    9.9640 N   0  0  0  0  0  0  0  0  0  0  0  0
   16.6517   19.5316    9.1090 C   0  0  0  0  0  0  0  0  0  0  0  0
   17.8189   19.7465    8.8017 O   0  0  0  0  0  0  0  0  0  0  0  0
   15.4065   18.4285   10.1810 H   0  0  0  0  0  0  0  0  0  0  0  0
   15.5077   20.2871    8.5742 O   0  0  0  0  0  0  0  0  0  0  0  0
   14.9552   21.5049    9.0473 C   0  0  0  0  0  0  0  0  0  0  0  0
   14.7175   21.3812   10.5352 C   0  0  0  0  0  0  0  0  0  0  0  0
   13.6798   21.8301    8.2763 C   0  0  0  0  0  0  0  0  0  0  0  0
   15.9842   22.6040    8.7715 C   0  0  0  0  0  0  0  0  0  0  0  0
   17.6724   18.4464   11.9350 C   0  0  0  0  0  0  0  0  0  0  0  0
   19.1095   18.1866   12.3862 C   0  0  0  0  0  0  0  0  0  0  0  0
   20.0516   17.8423   11.4517 C   0  0  0  0  0  0  0  0  0  0  0  0
   21.3671   17.5562   11.8095 C   0  0  0  0  0  0  0  0  0  0  0  0
   21.7477   17.6367   13.1486 C   0  0  0  0  0  0  0  0  0  0  0  0
   20.8064   18.0020   14.0828 C   0  0  0  0  0  0  0  0  0  0  0  0
   19.4832   18.2644   13.7291 C   0  0  0  0  0  0  0  0  0  0  0  0
   19.0632   13.8996   10.2452 C   0  0  0  0  0  0  0  0  0  0  0  0
   19.7958   14.0087   11.5113 C   0  0  0  0  0  0  0  0  0  0  0  0
   21.1751   13.8175   11.5453 C   0  0  0  0  0  0  0  0  0  0  0  0
   21.7991   13.9576   12.7880 C   0  0  0  0  0  0  0  0  0  0  0  0
   21.0458   14.2617   13.9269 C   0  0  0  0  0  0  0  0  0  0  0  0
   19.6977   14.4704   13.8535 C   0  0  0  0  0  0  0  0  0  0  0  0
   19.0649   14.3375   12.6308 C   0  0  0  0  0  0  0  0  0  0  0  0
   19.1017   16.2813    6.1397 C   0  0  0  0  0  0  0  0  0  0  0  0
   17.3580   17.2668    4.8444 N   0  0  0  0  0  0  0  0  0  0  0  0
   18.4274   17.5304    5.6225 C   0  0  0  0  0  0  0  0  0  0  0  0
   18.8695   18.6678    5.8460 O   0  0  0  0  0  0  0  0  0  0  0  0
   17.1761   16.3298    4.6030 H   0  0  0  0  0  0  0  0  0  0  0  0
   16.4439   18.3127    4.3345 C   0  0  0  0  0  0  0  0  0  0  0  0
   17.9464   18.5607    2.6020 O   0  0  0  0  0  0  0  0  0  0  0  0
   16.7808   18.5699    2.8849 C   0  0  0  0  0  0  0  0  0  0  0  0
   15.7940   18.7477    1.9771 N   0  0  0  0  0  0  0  0  0  0  0  0
   16.0179   18.9152    1.0331 H   0  0  0  0  0  0  0  0  0  0  0  0
   14.8519   18.7096    2.2603 H   0  0  0  0  0  0  0  0  0  0  0  0
   16.4842   19.6092    5.1318 C   0  0  0  0  0  0  0  0  0  0  0  0
   15.2749   20.4729    5.0120 C   0  0  0  0  0  0  0  0  0  0  0  0
   15.4626   21.8343    4.9062 C   0  0  0  0  0  0  0  0  0  0  0  0
   14.3761   22.6766    4.7603 C   0  0  0  0  0  0  0  0  0  0  0  0
   13.1055   22.1441    4.7904 C   0  0  0  0  0  0  0  0  0  0  0  0
   12.9111   20.7736    4.9213 C   0  0  0  0  0  0  0  0  0  0  0  0
   13.9860   19.9168    5.0363 C   0  0  0  0  0  0  0  0  0  0  0  0
   18.7206   15.0194    5.3578 C   0  0  0  0  0  0  0  0  0  0  0  0
   19.7300   13.8580    5.3871 C   0  0  0  0  0  0  0  0  0  0  0  0
   19.2547   12.7692    6.3145 C   0  0  0  0  0  0  0  0  0  0  0  0
   18.2348   12.9096    6.9787 O   0  0  0  0  0  0  0  0  0  0  0  0
   20.0087   11.6777    6.3700 N   0  0  0  0  0  0  0  0  0  0  0  0
   20.8201   11.6113    5.8164 H   0  0  0  0  0  0  0  0  0  0  0  0
   19.7563   10.9348    6.9646 H   0  0  0  0  0  0  0  0  0  0  0  0
 39 40  2  0  0  0
 40 41  1  0  0  0
 40 38  1  0  0  0
 38 44  1  0  0  0
 38 34  1  0  0  0
 44 45  1  0  0  0
 45 46  2  0  0  0
 45 50  1  0  0  0
 46 47  1  0  0  0
 47 48  2  0  0  0
 48 49  1  0  0  0
 49 50  2  0  0  0
 34 35  1  0  0  0
 35 36  2  0  0  0
 35 33  1  0  0  0
 33 51  1  0  0  0
 33  1  1  0  0  0
 51 52  1  0  0  0
 52 53  1  0  0  0
 53 54  2  0  0  0
 53 55  1  0  0  0
  1  2  1  0  0  0
  2  3  2  0  0  0
  2  5  1  0  0  0
  5 26  1  0  0  0
  5  6  1  0  0  0
 26 27  1  0  0  0
 27 28  2  0  0  0
 27 32  1  0  0  0
 28 29  1  0  0  0
 29 30  2  0  0  0
 30 31  1  0  0  0
 31 32  2  0  0  0
  6  7  1  0  0  0
  7  8  2  0  0  0
  7  9  1  0  0  0
  9 10  1  0  0  0
  9 19  1  0  0  0
 10 11  1  0  0  0
 11 12  2  0  0  0
 11 14  1  0  0  0
 14 15  1  0  0  0
 15 16  1  0  0  0
 15 17  1  0  0  0
 15 18  1  0  0  0
 19 20  1  0  0  0
 20 21  2  0  0  0
 20 25  1  0  0  0
 21 22  1  0  0  0
 22 23  2  0  0  0
 23 24  1  0  0  0
 24 25  2  0  0  0
 41 42  1  0  0  0
 41 43  1  0  0  0
 34 37  1  0  0  0
 55 56  1  0  0  0
 55 57  1  0  0  0
  1  4  1  0  0  0
 10 13  1  0  0  0
M  END
> <minimizedAffinity>
-8.76484

$$$$
1IZH_Q50_B_1001


 57 59  0  0  0  0  0  0  0  0999 V2000
   13.5496   23.0117    6.6503 N   0  0  0  0  0  0  0  0  0  0  0  0
   13.4212   23.7423    5.5516 C   0  0  0  0  0  0  0  0  0  0  0  0
   14.4071   24.1432    4.9168 O   0  0  0  0  0  0  0  0  0  0  0  0
   12.7413   22.7299    7.1365 H   0  0  0  0  0  0  0  0  0  0  0  0
   11.9996   24.1141    5.1833 C   0  0  0  0  0  0  0  0  0  0  0  0
   11.5470   25.2661    6.0539 C   0  0  0  0  0  0  0  0  0  0  0  0
   10.0781   25.0068    6.3709 C   0  0  0  0  0  0  0  0  0  0  0  0
    9.9168   23.5877    6.5104 O   0  0  0  0  0  0  0  0  0  0  0  0
    9.1877   25.6551    5.2921 C   0  0  0  0  0  0  0  0  0  0  0  0
    7.9337   24.9051    5.1343 N   0  0  0  0  0  0  0  0  0  0  0  0
    7.0952   25.1184    4.1510 C   0  0  0  0  0  0  0  0  0  0  0  0
    7.3409   25.9630    3.2971 O   0  0  0  0  0  0  0  0  0  0  0  0
    7.7142   24.2112    5.7973 H   0  0  0  0  0  0  0  0  0  0  0  0
    5.8785   24.2908    4.1632 O   0  0  0  0  0  0  0  0  0  0  0  0
    4.5282   24.7080    4.2854 C   0  0  0  0  0  0  0  0  0  0  0  0
    4.0466   25.1858    2.9343 C   0  0  0  0  0  0  0  0  0  0  0  0
    4.4129   25.7833    5.3612 C   0  0  0  0  0  0  0  0  0  0  0  0
    3.7175   23.4876    4.7283 C   0  0  0  0  0  0  0  0  0  0  0  0
    8.7559   27.0717    5.6558 C   0  0  0  0  0  0  0  0  0  0  0  0
    8.4355   27.1898    7.1456 C   0  0  0  0  0  0  0  0  0  0  0  0
    9.4222   27.5827    8.0124 C   0  0  0  0  0  0  0  0  0  0  0  0
    9.1989   27.6704    9.3847 C   0  0  0  0  0  0  0  0  0  0  0  0
    7.9370   27.3691    9.8958 C   0  0  0  0  0  0  0  0  0  0  0  0
    6.9421   26.9946    9.0228 C   0  0  0  0  0  0  0  0  0  0  0  0
    7.1712   26.8824    7.6518 C   0  0  0  0  0  0  0  0  0  0  0  0
   11.7166   24.5060    3.7619 C   0  0  0  0  0  0  0  0  0  0  0  0
   10.7859   23.5133    3.2141 C   0  0  0  0  0  0  0  0  0  0  0  0
   10.7800   22.2090    3.7027 C   0  0  0  0  0  0  0  0  0  0  0  0
    9.8499   21.3307    3.1398 C   0  0  0  0  0  0  0  0  0  0  0  0
    8.9895   21.7664    2.1265 C   0  0  0  0  0  0  0  0  0  0  0  0
    9.0027   23.0608    1.6896 C   0  0  0  0  0  0  0  0  0  0  0  0
    9.9158   23.9434    2.2377 C   0  0  0  0  0  0  0  0  0  0  0  0
   14.8439   22.6195    7.1511 C   0  0  0  0  0  0  0  0  0  0  0  0
   16.4955   20.9055    6.9965 N   0  0  0  0  0  0  0  0  0  0  0  0
   15.2011   21.2035    6.7636 C   0  0  0  0  0  0  0  0  0  0  0  0
   14.3898   20.4350    6.2248 O   0  0  0  0  0  0  0  0  0  0  0  0
   17.0963   21.6295    7.2865 H   0  0  0  0  0  0  0  0  0  0  0  0
   17.0597   19.5467    6.8388 C   0  0  0  0  0  0  0  0  0  0  0  0
   18.0892   20.0281    8.8460 O   0  0  0  0  0  0  0  0  0  0  0  0
   17.6832   19.1379    8.1523 C   0  0  0  0  0  0  0  0  0  0  0  0
   17.7191   17.8348    8.5132 N   0  0  0  0  0  0  0  0  0  0  0  0
   18.1264   17.5725    9.3703 H   0  0  0  0  0  0  0  0  0  0  0  0
   17.3379   17.1487    7.9189 H   0  0  0  0  0  0  0  0  0  0  0  0
   18.0699   19.4258    5.7060 C   0  0  0  0  0  0  0  0  0  0  0  0
   17.6238   18.6212    4.5329 C   0  0  0  0  0  0  0  0  0  0  0  0
   16.5703   19.1011    3.7848 C   0  0  0  0  0  0  0  0  0  0  0  0
   16.1387   18.4097    2.6681 C   0  0  0  0  0  0  0  0  0  0  0  0
   16.7299   17.2050    2.3549 C   0  0  0  0  0  0  0  0  0  0  0  0
   17.7771   16.7056    3.1212 C   0  0  0  0  0  0  0  0  0  0  0  0
   18.2398   17.3991    4.2201 C   0  0  0  0  0  0  0  0  0  0  0  0
   14.5945   22.7915    8.6535 C   0  0  0  0  0  0  0  0  0  0  0  0
   13.8317   21.6575    9.3610 C   0  0  0  0  0  0  0  0  0  0  0  0
   14.6060   21.1670   10.5574 C   0  0  0  0  0  0  0  0  0  0  0  0
   14.5823   21.7818   11.6169 O   0  0  0  0  0  0  0  0  0  0  0  0
   15.3100   20.0550   10.3827 N   0  0  0  0  0  0  0  0  0  0  0  0
   15.2973   19.5961    9.5118 H   0  0  0  0  0  0  0  0  0  0  0  0
   15.8447   19.6893   11.1240 H   0  0  0  0  0  0  0  0  0  0  0  0
 39 40  2  0  0  0
 40 41  1  0  0  0
 40 38  1  0  0  0
 38 44  1  0  0  0
 38 34  1  0  0  0
 44 45  1  0  0  0
 45 46  2  0  0  0
 45 50  1  0  0  0
 46 47  1  0  0  0
 47 48  2  0  0  0
 48 49  1  0  0  0
 49 50  2  0  0  0
 34 35  1  0  0  0
 35 36  2  0  0  0
 35 33  1  0  0  0
 33 51  1  0  0  0
 33  1  1  0  0  0
 51 52  1  0  0  0
 52 53  1  0  0  0
 53 54  2  0  0  0
 53 55  1  0  0  0
  1  2  1  0  0  0
  2  3  2  0  0  0
  2  5  1  0  0  0
  5 26  1  0  0  0
  5  6  1  0  0  0
 26 27  1  0  0  0
 27 28  2  0  0  0
 27 32  1  0  0  0
 28 29  1  0  0  0
 29 30  2  0  0  0
 30 31  1  0  0  0
 31 32  2  0  0  0
  6  7  1  0  0  0
  7  8  2  0  0  0
  7  9  1  0  0  0
  9 10  1  0  0  0
  9 19  1  0  0  0
 10 11  1  0  0  0
 11 12  2  0  0  0
 11 14  1  0  0  0
 14 15  1  0  0  0
 15 16  1  0  0  0
 15 17  1  0  0  0
 15 18  1  0  0  0
 19 20  1  0  0  0
 20 21  2  0  0  0
 20 25  1  0  0  0
 21 22  1  0  0  0
 22 23  2  0  0  0
 23 24  1  0  0  0
 24 25  2  0  0  0
 41 42  1  0  0  0
 41 43  1  0  0  0
 34 37  1  0  0  0
 55 56  1  0  0  0
 55 57  1  0  0  0
  1  4  1  0  0  0
 10 13  1  0  0  0
M  END
> <minimizedAffinity>
-8.76321

$$$$
1IZH_Q50_B_1001


 57 59  0  0  0  0  0  0  0  0999 V2000
   12.3144   23.2110    4.6060 N   0  0  0  0  0  0  0  0  0  0  0  0
   13.2377   23.8142    5.3416 C   0  0  0  0  0  0  0  0  0  0  0  0
   13.2666   25.0465    5.4690 O   0  0  0  0  0  0  0  0  0  0  0  0
   12.3384   22.2311    4.5144 H   0  0  0  0  0  0  0  0  0  0  0  0
   14.2890   22.9011    5.9383 C   0  0  0  0  0  0  0  0  0  0  0  0
   15.1130   22.2976    4.8218 C   0  0  0  0  0  0  0  0  0  0  0  0
   15.0361   20.7860    5.0070 C   0  0  0  0  0  0  0  0  0  0  0  0
   13.8835   20.5145    5.8174 O   0  0  0  0  0  0  0  0  0  0  0  0
   16.3673   20.2608    5.5808 C   0  0  0  0  0  0  0  0  0  0  0  0
   16.1565   19.6384    6.8954 N   0  0  0  0  0  0  0  0  0  0  0  0
   17.0735   19.6212    7.8304 C   0  0  0  0  0  0  0  0  0  0  0  0
   18.1629   20.1508    7.6422 O   0  0  0  0  0  0  0  0  0  0  0  0
   15.2872   19.2154    7.0814 H   0  0  0  0  0  0  0  0  0  0  0  0
   16.6973   18.9336    9.0760 O   0  0  0  0  0  0  0  0  0  0  0  0
   17.4224   17.9485    9.7942 C   0  0  0  0  0  0  0  0  0  0  0  0
   18.3499   18.6438   10.7648 C   0  0  0  0  0  0  0  0  0  0  0  0
   18.1680   17.0408    8.8210 C   0  0  0  0  0  0  0  0  0  0  0  0
   16.4002   17.1052   10.5602 C   0  0  0  0  0  0  0  0  0  0  0  0
   16.9894   19.1651    4.7218 C   0  0  0  0  0  0  0  0  0  0  0  0
   16.0364   18.7202    3.6126 C   0  0  0  0  0  0  0  0  0  0  0  0
   16.0941   19.3422    2.3924 C   0  0  0  0  0  0  0  0  0  0  0  0
   15.2248   19.0055    1.3573 C   0  0  0  0  0  0  0  0  0  0  0  0
   14.2801   17.9987    1.5537 C   0  0  0  0  0  0  0  0  0  0  0  0
   14.2367   17.3613    2.7719 C   0  0  0  0  0  0  0  0  0  0  0  0
   15.0898   17.7146    3.8171 C   0  0  0  0  0  0  0  0  0  0  0  0
   15.2568   23.4869    6.9253 C   0  0  0  0  0  0  0  0  0  0  0  0
   15.0846   22.7596    8.1874 C   0  0  0  0  0  0  0  0  0  0  0  0
   13.8704   22.1462    8.4864 C   0  0  0  0  0  0  0  0  0  0  0  0
   13.7954   21.4582    9.7006 C   0  0  0  0  0  0  0  0  0  0  0  0
   14.8991   21.4173   10.5593 C   0  0  0  0  0  0  0  0  0  0  0  0
   16.0847   22.0066   10.2225 C   0  0  0  0  0  0  0  0  0  0  0  0
   16.1763   22.6900    9.0234 C   0  0  0  0  0  0  0  0  0  0  0  0
   11.2757   23.9545    3.9367 C   0  0  0  0  0  0  0  0  0  0  0  0
    9.3288   25.2539    4.3957 N   0  0  0  0  0  0  0  0  0  0  0  0
   10.1068   24.2494    4.8474 C   0  0  0  0  0  0  0  0  0  0  0  0
    9.9390   23.6629    5.9277 O   0  0  0  0  0  0  0  0  0  0  0  0
    9.6291   25.7574    3.6048 H   0  0  0  0  0  0  0  0  0  0  0  0
    8.0470   25.6386    5.0270 C   0  0  0  0  0  0  0  0  0  0  0  0
    7.2433   25.8759    2.8780 O   0  0  0  0  0  0  0  0  0  0  0  0
    6.9558   25.5266    3.9888 C   0  0  0  0  0  0  0  0  0  0  0  0
    5.7502   25.0105    4.3202 N   0  0  0  0  0  0  0  0  0  0  0  0
    5.0416   24.9393    3.6406 H   0  0  0  0  0  0  0  0  0  0  0  0
    5.5814   24.7062    5.2412 H   0  0  0  0  0  0  0  0  0  0  0  0
    8.0570   27.0300    5.6453 C   0  0  0  0  0  0  0  0  0  0  0  0
    8.2793   27.0747    7.1188 C   0  0  0  0  0  0  0  0  0  0  0  0
    9.4994   26.6513    7.6001 C   0  0  0  0  0  0  0  0  0  0  0  0
    9.7681   26.7028    8.9553 C   0  0  0  0  0  0  0  0  0  0  0  0
    8.7787   27.1177    9.8202 C   0  0  0  0  0  0  0  0  0  0  0  0
    7.5380   27.5228    9.3405 C   0  0  0  0  0  0  0  0  0  0  0  0
    7.2653   27.5068    7.9885 C   0  0  0  0  0  0  0  0  0  0  0  0
   10.9371   22.9621    2.8188 C   0  0  0  0  0  0  0  0  0  0  0  0
    9.9299   21.8508    3.1640 C   0  0  0  0  0  0  0  0  0  0  0  0
    8.8080   21.8245    2.1580 C   0  0  0  0  0  0  0  0  0  0  0  0
    8.8633   21.0980    1.1730 O   0  0  0  0  0  0  0  0  0  0  0  0
    7.7850   22.6351    2.4015 N   0  0  0  0  0  0  0  0  0  0  0  0
    7.7860   23.2006    3.2074 H   0  0  0  0  0  0  0  0  0  0  0  0
    7.0254   22.6707    1.7762 H   0  0  0  0  0  0  0  0  0  0  0  0
 39 40  2  0  0  0
 40 41  1  0  0  0
 40 38  1  0  0  0
 38 44  1  0  0  0
 38 34  1  0  0  0
 44 45  1  0  0  0
 45 46  2  0  0  0
 45 50  1  0  0  0
 46 47  1  0  0  0
 47 48  2  0  0  0
 48 49  1  0  0  0
 49 50  2  0  0  0
 34 35  1  0  0  0
 35 36  2  0  0  0
 35 33  1  0  0  0
 33 51  1  0  0  0
 33  1  1  0  0  0
 51 52  1  0  0  0
 52 53  1  0  0  0
 53 54  2  0  0  0
 53 55  1  0  0  0
  1  2  1  0  0  0
  2  3  2  0  0  0
  2  5  1  0  0  0
  5 26  1  0  0  0
  5  6  1  0  0  0
 26 27  1  0  0  0
 27 28  2  0  0  0
 27 32  1  0  0  0
 28 29  1  0  0  0
 29 30  2  0  0  0
 30 31  1  0  0  0
 31 32  2  0  0  0
  6  7  1  0  0  0
  7  8  2  0  0  0
  7  9  1  0  0  0
  9 10  1  0  0  0
  9 19  1  0  0  0
 10 11  1  0  0  0
 11 12  2  0  0  0
 11 14  1  0  0  0
 14 15  1  0  0  0
 15 16  1  0  0  0
 15 17  1  0  0  0
 15 18  1  0  0  0
 19 20  1  0  0  0
 20 21  2  0  0  0
 20 25  1  0  0  0
 21 22  1  0  0  0
 22 23  2  0  0  0
 23 24  1  0  0  0
 24 25  2  0  0  0
 41 42  1  0  0  0
 41 43  1  0  0  0
 34 37  1  0  0  0
 55 56  1  0  0  0
 55 57  1  0  0  0
  1  4  1  0  0  0
 10 13  1  0  0  0
M  END
> <minimizedAffinity>
-8.75813

$$$$
