1IZH_Q50_B_1001
  RCSB PDB12061702533D
Coordinates from PDB:1IZH:B:1001 Model:1 without hydrogens
 50 52  0  0  0  0            999 V2000
   17.7390   14.9760    5.8160   O 0  0  0  0  0  0  0  0  0  0  0  0
   18.7310   15.4960    5.3870   C 0  0  0  0  0  0  0  0  0  0  0  0
   19.5420   14.9160    4.4730   N 0  0  0  0  0  0  0  0  0  0  0  0
   19.0200   16.8930    5.8830   C 0  0  0  0  0  0  0  0  0  0  0  0
   19.6640   16.8490    7.2620   C 0  0  0  0  0  0  0  0  0  0  0  0
   18.8460   16.2080    8.3310   C 0  0  0  0  0  0  0  0  0  0  0  0
   17.9980   17.0110    9.0630   C 0  0  0  0  0  0  0  0  0  0  0  0
   17.1940   16.4610   10.0440   C 0  0  0  0  0  0  0  0  0  0  0  0
   17.3020   15.1160   10.3240   C 0  0  0  0  0  0  0  0  0  0  0  0
   18.1740   14.3070    9.6040   C 0  0  0  0  0  0  0  0  0  0  0  0
   18.9600   14.8350    8.6010   C 0  0  0  0  0  0  0  0  0  0  0  0
   17.7630   17.6720    5.8330   N 0  0  0  0  0  0  0  0  0  0  0  0
   17.7050   18.9640    5.4510   C 0  0  0  0  0  0  0  0  0  0  0  0
   18.6960   19.6900    5.2780   O 0  0  0  0  0  0  0  0  0  0  0  0
   16.2900   19.4800    5.3320   C 0  0  0  0  0  0  0  0  0  0  0  0
   15.7940   19.5590    3.8840   C 0  0  0  0  0  0  0  0  0  0  0  0
   15.6970   18.2300    3.1140   C 0  0  0  0  0  0  0  0  0  0  0  0
   17.0490   17.8280    2.5830   C 0  0  0  0  0  0  0  0  0  0  0  0
   17.7960   18.6550    2.0740   O 0  0  0  0  0  0  0  0  0  0  0  0
   17.3610   16.5420    2.6910   N 0  0  0  0  0  0  0  0  0  0  0  0
   16.1850   20.8720    5.6940   N 0  0  0  0  0  0  0  0  0  0  0  0
   15.0460   21.3940    6.1270   C 0  0  0  0  0  0  0  0  0  0  0  0
   14.0120   20.7170    6.2180   O 0  0  0  0  0  0  0  0  0  0  0  0
   15.0840   22.8800    6.4190   C 0  0  0  0  0  0  0  0  0  0  0  0
   15.6510   23.3280    7.7350   C 0  0  0  0  0  0  0  0  0  0  0  0
   15.5260   22.2030    8.6680   C 0  0  0  0  0  0  0  0  0  0  0  0
   14.3090   21.9370    9.2910   C 0  0  0  0  0  0  0  0  0  0  0  0
   14.2700   20.8360   10.1510   C 0  0  0  0  0  0  0  0  0  0  0  0
   15.4180   20.0660   10.3660   C 0  0  0  0  0  0  0  0  0  0  0  0
   16.5890   20.3380    9.7170   C 0  0  0  0  0  0  0  0  0  0  0  0
   16.6440   21.4230    8.8610   C 0  0  0  0  0  0  0  0  0  0  0  0
   13.6800   23.4380    6.3340   C 0  0  0  0  0  0  0  0  0  0  0  0
   13.4230   23.7170    4.8570   C 0  0  0  0  0  0  0  0  0  0  0  0
   14.0780   24.9530    4.5370   O 0  0  0  0  0  0  0  0  0  0  0  0
   11.9070   23.6980    4.5770   C 0  0  0  0  0  0  0  0  0  0  0  0
   11.2360   24.8030    5.2760   N 0  0  0  0  0  0  0  0  0  0  0  0
   10.7190   24.6790    6.4730   C 0  0  0  0  0  0  0  0  0  0  0  0
   10.7920   23.6130    7.0740   O 0  0  0  0  0  0  0  0  0  0  0  0
   10.0650   25.8830    7.0100   O 0  0  0  0  0  0  0  0  0  0  0  0
    9.5900   26.1170    8.3260   C 0  0  0  0  0  0  0  0  0  0  0  0
   10.7050   25.8170    9.3020   C 0  0  0  0  0  0  0  0  0  0  0  0
    8.3440   25.2760    8.5850   C 0  0  0  0  0  0  0  0  0  0  0  0
    9.2050   27.5960    8.4100   C 0  0  0  0  0  0  0  0  0  0  0  0
   11.5760   23.9060    3.1030   C 0  0  0  0  0  0  0  0  0  0  0  0
   10.0660   23.8980    2.8660   C 0  0  0  0  0  0  0  0  0  0  0  0
    9.4310   25.0740    2.5610   C 0  0  0  0  0  0  0  0  0  0  0  0
    8.0520   25.1340    2.3730   C 0  0  0  0  0  0  0  0  0  0  0  0
    7.2930   23.9690    2.4790   C 0  0  0  0  0  0  0  0  0  0  0  0
    7.9340   22.7860    2.7650   C 0  0  0  0  0  0  0  0  0  0  0  0
    9.3110   22.7290    2.9780   C 0  0  0  0  0  0  0  0  0  0  0  0
  1  2  2  0  0  0  0
  2  3  1  0  0  0  0
  2  4  1  0  0  0  0
  4  5  1  0  0  0  0
  4 12  1  0  0  0  0
  5  6  1  0  0  0  0
  6  7  2  0  0  0  0
  6 11  1  0  0  0  0
  7  8  1  0  0  0  0
  8  9  2  0  0  0  0
  9 10  1  0  0  0  0
 10 11  2  0  0  0  0
 12 13  1  0  0  0  0
 13 14  2  0  0  0  0
 13 15  1  0  0  0  0
 15 16  1  0  0  0  0
 15 21  1  0  0  0  0
 16 17  1  0  0  0  0
 17 18  1  0  0  0  0
 18 19  2  0  0  0  0
 18 20  1  0  0  0  0
 21 22  1  0  0  0  0
 22 23  2  0  0  0  0
 22 24  1  0  0  0  0
 24 25  1  0  0  0  0
 24 32  1  0  0  0  0
 25 26  1  0  0  0  0
 26 27  2  0  0  0  0
 26 31  1  0  0  0  0
 27 28  1  0  0  0  0
 28 29  2  0  0  0  0
 29 30  1  0  0  0  0
 30 31  2  0  0  0  0
 32 33  1  0  0  0  0
 33 34  2  0  0  0  0
 33 35  1  0  0  0  0
 35 36  1  0  0  0  0
 35 44  1  0  0  0  0
 36 37  1  0  0  0  0
 37 38  2  0  0  0  0
 37 39  1  0  0  0  0
 39 40  1  0  0  0  0
 40 41  1  0  0  0  0
 40 42  1  0  0  0  0
 40 43  1  0  0  0  0
 44 45  1  0  0  0  0
 45 46  2  0  0  0  0
 45 50  1  0  0  0  0
 46 47  1  0  0  0  0
 47 48  2  0  0  0  0
 48 49  1  0  0  0  0
 49 50  2  0  0  0  0
A    1
O49
A    2
C48
A    3
N50
A    4
C40
A    5
C41
A    6
C42
A    7
C43
A    8
C44
A    9
C45
A   10
C46
A   11
C47
A   12
N39
A   13
C37
A   14
O38
A   15
C31
A   16
C32
A   17
C33
A   18
C34
A   19
O35
A   20
N36
A   21
N30
A   22
C28
A   23
O29
A   24
C20
A   25
C21
A   26
C22
A   27
C23
A   28
C24
A   29
C25
A   30
C26
A   31
C27
A   32
C19
A   33
C17
A   34
O18
A   35
C9
A   36
N8
A   37
C6
A   38
O7
A   39
O5
A   40
C1
A   41
C4
A   42
C3
A   43
C2
A   44
C10
A   45
C11
A   46
C12
A   47
C13
A   48
C14
A   49
C15
A   50
C16
M  END
>  <InstanceId>
1IZH_Q50_B_1001

>  <ChemCompId>
Q50

>  <PdbId>
1IZH

>  <ChainId>
B

>  <ResidueNumber>
1001

>  <InsertionCode>


>  <Model>
1

>  <AltIds>


>  <MissingHeavyAtoms>
0

>  <ObservedFormula>
C38 N5 O7

>  <Name>
{(1S)-1-BENZYL-4-[3-CARBAMOYL-1-(1-CARBAMOYL-2-PHENYL-ETHYLCARBAMOYL)-(S)-PROPYLCARBAMOYL]-2-OXO-5-PHENYL-PENTYL}-CARBAMIC ACID TERT-BUTYL ESTER

>  <SystematicName>
tert-butyl N-[(2S,5R)-6-[[(2S)-5-amino-1-[[(2S)-1-amino-1-oxo-3-phenyl-propan-2-yl]amino]-1,5-dioxo-pentan-2-yl]amino]-3,6-dioxo-1-phenyl-5-(phenylmethyl)hexan-2-yl]carbamate

>  <Synonyms>


>  <Type>
NON-POLYMER

>  <Formula>
C38 H47 N5 O7

>  <MolecularWeight>
685.809

>  <ModifiedDate>
2011-06-04

>  <Parent>


>  <OneLetterCode>


>  <SubcomponentList>


>  <AmbiguousFlag>
N

>  <InChI>
InChI=1S/C38H47N5O7/c1-38(2,3)50-37(49)43-30(22-26-15-9-5-10-16-26)32(44)24-28(21-25-13-7-4-8-14-25)35(47)41-29(19-20-33(39)45)36(48)42-31(34(40)46)23-27-17-11-6-12-18-27/h4-18,28-31H,19-24H2,1-3H3,(H2,39,45)(H2,40,46)(H,41,47)(H,42,48)(H,43,49)/t28-,29+,30+,31+/m1/s1

>  <InChIKey>
DDOOHEYBNHOFCV-BHSUFKTOSA-N

>  <SMILES>
CC(C)(C)OC(=O)N[C@@H](Cc1ccccc1)C(=O)C[C@@H](Cc2ccccc2)C(=O)N[C@@H](CCC(=O)N)C(=O)N[C@@H](Cc3ccccc3)C(=O)N

$$$$
