3MXE_K54_A_200


 49 53  0  0  0  0  0  0  0  0999 V2000
   19.6669   29.1720   13.8935 C   0  0  0  0  0  0  0  0  0  0  0  0
   20.6482   28.2598   13.3120 N   0  0  0  0  0  0  0  0  0  0  0  0
   21.5245   28.6776   12.3864 C   0  0  0  0  0  0  0  0  0  0  0  0
   21.6516   29.8327   12.0146 O   0  0  0  0  0  0  0  0  0  0  0  0
   20.6668   27.3201   13.6049 H   0  0  0  0  0  0  0  0  0  0  0  0
   22.3138   26.0892   10.0606 N   0  0  0  0  0  0  0  0  0  0  0  0
   22.0847   27.5261   10.2704 C   0  0  0  0  0  0  0  0  0  0  0  0
   22.1870   25.4017   11.2764 C   0  0  0  0  0  0  0  0  0  0  0  0
   22.1249   24.1898   11.4093 O   0  0  0  0  0  0  0  0  0  0  0  0
   22.1805   26.3575   12.3601 O   0  0  0  0  0  0  0  0  0  0  0  0
   22.4116   27.6511   11.7754 C   0  0  0  0  0  0  0  0  0  0  0  0
   21.9926   23.7673    6.5974 C   0  0  0  0  0  0  0  0  0  0  0  0
   23.2321   24.1558    7.0989 C   0  0  0  0  0  0  0  0  0  0  0  0
   23.3159   24.9368    8.2577 C   0  0  0  0  0  0  0  0  0  0  0  0
   22.1504   25.3174    8.8979 C   0  0  0  0  0  0  0  0  0  0  0  0
   20.9070   24.9305    8.4036 C   0  0  0  0  0  0  0  0  0  0  0  0
   20.8210   24.1535    7.2420 C   0  0  0  0  0  0  0  0  0  0  0  0
   25.5755   25.0530    7.9491 F   0  0  0  0  0  0  0  0  0  0  0  0
   24.6864   26.6891    9.0160 F   0  0  0  0  0  0  0  0  0  0  0  0
   24.8716   24.7249    9.9445 F   0  0  0  0  0  0  0  0  0  0  0  0
   24.6369   25.3737    8.8177 C   0  0  0  0  0  0  0  0  0  0  0  0
   20.0585   29.5275   15.3206 C   0  0  0  0  0  0  0  0  0  0  0  0
   20.0181   28.3560   16.1474 O   0  0  0  0  0  0  0  0  0  0  0  0
   19.1141   28.0048   16.1665 H   0  0  0  0  0  0  0  0  0  0  0  0
   19.1537   30.6253   15.8992 C   0  0  0  0  0  0  0  0  0  0  0  0
   19.4631   31.9148   15.2293 N   0  0  0  0  0  0  0  0  0  0  0  0
   18.1668   32.6751   14.6200 S   0  0  0  0  0  0  0  0  0  0  0  0
   17.3406   31.6704   14.0035 O   0  0  0  0  0  0  0  0  0  0  0  0
   18.6770   33.5976   13.6589 O   0  0  0  0  0  0  0  0  0  0  0  0
   16.0017   36.7539   18.9660 C   0  0  0  0  0  0  0  0  0  0  0  0
   15.3420   35.5911   18.8037 N   0  0  0  0  0  0  0  0  0  0  0  0
   17.3915   36.9799   17.9601 S   0  0  0  0  0  0  0  0  0  0  0  0
   15.8903   34.8105   17.8332 C   0  0  0  0  0  0  0  0  0  0  0  0
   17.0095   35.4400   17.2937 C   0  0  0  0  0  0  0  0  0  0  0  0
   17.7352   34.7775   16.2733 C   0  0  0  0  0  0  0  0  0  0  0  0
   17.3550   33.4948   15.7807 C   0  0  0  0  0  0  0  0  0  0  0  0
   16.2215   32.9092   16.3349 C   0  0  0  0  0  0  0  0  0  0  0  0
   15.5075   33.5616   17.3493 C   0  0  0  0  0  0  0  0  0  0  0  0
   20.3411   32.8113   16.0140 C   0  0  0  0  0  0  0  0  0  0  0  0
   21.8196   32.5878   15.6851 C   0  0  0  0  0  0  0  0  0  0  0  0
   22.0779   32.6537   14.1784 C   0  0  0  0  0  0  0  0  0  0  0  0
   22.6808   33.6367   16.3874 C   0  0  0  0  0  0  0  0  0  0  0  0
   18.3315   28.4089   13.7822 C   0  0  0  0  0  0  0  0  0  0  0  0
   18.2773   26.7061   11.9158 C   0  0  0  0  0  0  0  0  0  0  0  0
   18.0436   26.3590   10.5870 C   0  0  0  0  0  0  0  0  0  0  0  0
   17.6007   27.3050    9.6745 C   0  0  0  0  0  0  0  0  0  0  0  0
   17.3861   28.6111   10.0970 C   0  0  0  0  0  0  0  0  0  0  0  0
   17.6157   28.9641   11.4299 C   0  0  0  0  0  0  0  0  0  0  0  0
   18.0606   28.0171   12.3394 C   0  0  0  0  0  0  0  0  0  0  0  0
 30 31  2  0  0  0
 30 32  1  0  0  0
 18 21  1  0  0  0
 31 33  1  0  0  0
 32 34  1  0  0  0
 33 34  2  0  0  0
 33 38  1  0  0  0
 19 21  1  0  0  0
 34 35  1  0  0  0
 20 21  1  0  0  0
 35 36  2  0  0  0
 36 37  1  0  0  0
 36 27  1  0  0  0
 37 38  2  0  0  0
 27 28  2  0  0  0
 27 29  2  0  0  0
 27 26  1  0  0  0
 26 39  1  0  0  0
 26 25  1  0  0  0
 39 40  1  0  0  0
 40 41  1  0  0  0
 40 42  1  0  0  0
 25 22  1  0  0  0
 22 23  1  0  0  0
 22  1  1  0  0  0
  1  2  1  0  0  0
  1 43  1  0  0  0
  2  3  1  0  0  0
  3  4  2  0  0  0
  3 11  1  0  0  0
  6  7  1  0  0  0
  6  8  1  0  0  0
  6 15  1  0  0  0
  7 11  1  0  0  0
  8  9  2  0  0  0
  8 10  1  0  0  0
 10 11  1  0  0  0
 43 49  1  0  0  0
 44 45  2  0  0  0
 44 49  1  0  0  0
 45 46  1  0  0  0
 46 47  2  0  0  0
 47 48  1  0  0  0
 48 49  2  0  0  0
 12 13  2  0  0  0
 12 17  1  0  0  0
 13 14  1  0  0  0
 14 15  2  0  0  0
 14 21  1  0  0  0
 15 16  1  0  0  0
 16 17  2  0  0  0
 23 24  1  0  0  0
  2  5  1  0  0  0
M  END
> <minimizedAffinity>
-10.31700

$$$$
3MXE_K54_A_200


 49 53  0  0  0  0  0  0  0  0999 V2000
   19.2515   29.8616   13.4351 C   0  0  0  0  0  0  0  0  0  0  0  0
   20.4009   28.9926   13.1967 N   0  0  0  0  0  0  0  0  0  0  0  0
   21.3281   29.3008   12.2778 C   0  0  0  0  0  0  0  0  0  0  0  0
   21.3591   30.3381   11.6360 O   0  0  0  0  0  0  0  0  0  0  0  0
   20.4970   28.1647   13.7206 H   0  0  0  0  0  0  0  0  0  0  0  0
   22.9451   26.7143   10.4266 N   0  0  0  0  0  0  0  0  0  0  0  0
   22.6129   28.1439   10.5091 C   0  0  0  0  0  0  0  0  0  0  0  0
   22.4327   26.0384   11.5436 C   0  0  0  0  0  0  0  0  0  0  0  0
   22.3673   24.8269   11.6782 O   0  0  0  0  0  0  0  0  0  0  0  0
   22.0266   27.0074   12.5355 O   0  0  0  0  0  0  0  0  0  0  0  0
   22.4024   28.3012   12.0318 C   0  0  0  0  0  0  0  0  0  0  0  0
   23.9012   24.3454    7.1156 C   0  0  0  0  0  0  0  0  0  0  0  0
   24.8892   24.8513    7.9561 C   0  0  0  0  0  0  0  0  0  0  0  0
   24.5466   25.6458    9.0567 C   0  0  0  0  0  0  0  0  0  0  0  0
   23.2127   25.9214    9.2978 C   0  0  0  0  0  0  0  0  0  0  0  0
   22.2187   25.4168    8.4628 C   0  0  0  0  0  0  0  0  0  0  0  0
   22.5598   24.6261    7.3588 C   0  0  0  0  0  0  0  0  0  0  0  0
   26.7714   25.9996    9.4297 F   0  0  0  0  0  0  0  0  0  0  0  0
   25.4421   27.5182   10.1594 F   0  0  0  0  0  0  0  0  0  0  0  0
   25.5457   25.5693   11.1318 F   0  0  0  0  0  0  0  0  0  0  0  0
   25.5898   26.2080    9.9760 C   0  0  0  0  0  0  0  0  0  0  0  0
   19.4461   30.6525   14.7208 C   0  0  0  0  0  0  0  0  0  0  0  0
   18.3530   30.4093   15.6173 O   0  0  0  0  0  0  0  0  0  0  0  0
   17.5261   30.7080   15.2074 H   0  0  0  0  0  0  0  0  0  0  0  0
   19.5901   32.1562   14.4441 C   0  0  0  0  0  0  0  0  0  0  0  0
   19.7951   32.8708   15.7305 N   0  0  0  0  0  0  0  0  0  0  0  0
   21.3281   33.3243   16.0020 S   0  0  0  0  0  0  0  0  0  0  0  0
   21.9263   33.5772   14.7173 O   0  0  0  0  0  0  0  0  0  0  0  0
   21.9462   32.2202   16.6609 O   0  0  0  0  0  0  0  0  0  0  0  0
   21.5886   39.1056   18.5945 C   0  0  0  0  0  0  0  0  0  0  0  0
   21.6508   38.0395   19.4149 N   0  0  0  0  0  0  0  0  0  0  0  0
   21.4611   38.7515   16.9055 S   0  0  0  0  0  0  0  0  0  0  0  0
   21.5677   36.8585   18.7441 C   0  0  0  0  0  0  0  0  0  0  0  0
   21.4637   37.0962   17.3758 C   0  0  0  0  0  0  0  0  0  0  0  0
   21.3821   35.9872   16.4982 C   0  0  0  0  0  0  0  0  0  0  0  0
   21.3985   34.6419   16.9701 C   0  0  0  0  0  0  0  0  0  0  0  0
   21.4863   34.4495   18.3449 C   0  0  0  0  0  0  0  0  0  0  0  0
   21.5739   35.5466   19.2126 C   0  0  0  0  0  0  0  0  0  0  0  0
   18.8197   33.9542   15.9854 C   0  0  0  0  0  0  0  0  0  0  0  0
   17.8771   33.6089   17.1413 C   0  0  0  0  0  0  0  0  0  0  0  0
   17.7858   34.7518   18.1546 C   0  0  0  0  0  0  0  0  0  0  0  0
   16.4790   33.2996   16.6078 C   0  0  0  0  0  0  0  0  0  0  0  0
   18.0502   28.8953   13.4701 C   0  0  0  0  0  0  0  0  0  0  0  0
   18.1534   26.8028   12.0570 C   0  0  0  0  0  0  0  0  0  0  0  0
   18.0389   26.1513   10.8310 C   0  0  0  0  0  0  0  0  0  0  0  0
   17.6873   26.8514    9.6863 C   0  0  0  0  0  0  0  0  0  0  0  0
   17.4446   28.2168    9.7703 C   0  0  0  0  0  0  0  0  0  0  0  0
   17.5548   28.8749   10.9986 C   0  0  0  0  0  0  0  0  0  0  0  0
   17.9086   28.1733   12.1407 C   0  0  0  0  0  0  0  0  0  0  0  0
 30 31  2  0  0  0
 30 32  1  0  0  0
 18 21  1  0  0  0
 31 33  1  0  0  0
 32 34  1  0  0  0
 33 34  2  0  0  0
 33 38  1  0  0  0
 19 21  1  0  0  0
 34 35  1  0  0  0
 20 21  1  0  0  0
 35 36  2  0  0  0
 36 37  1  0  0  0
 36 27  1  0  0  0
 37 38  2  0  0  0
 27 28  2  0  0  0
 27 29  2  0  0  0
 27 26  1  0  0  0
 26 39  1  0  0  0
 26 25  1  0  0  0
 39 40  1  0  0  0
 40 41  1  0  0  0
 40 42  1  0  0  0
 25 22  1  0  0  0
 22 23  1  0  0  0
 22  1  1  0  0  0
  1  2  1  0  0  0
  1 43  1  0  0  0
  2  3  1  0  0  0
  3  4  2  0  0  0
  3 11  1  0  0  0
  6  7  1  0  0  0
  6  8  1  0  0  0
  6 15  1  0  0  0
  7 11  1  0  0  0
  8  9  2  0  0  0
  8 10  1  0  0  0
 10 11  1  0  0  0
 43 49  1  0  0  0
 44 45  2  0  0  0
 44 49  1  0  0  0
 45 46  1  0  0  0
 46 47  2  0  0  0
 47 48  1  0  0  0
 48 49  2  0  0  0
 12 13  2  0  0  0
 12 17  1  0  0  0
 13 14  1  0  0  0
 14 15  2  0  0  0
 14 21  1  0  0  0
 15 16  1  0  0  0
 16 17  2  0  0  0
 23 24  1  0  0  0
  2  5  1  0  0  0
M  END
> <minimizedAffinity>
-10.12723

$$$$
3MXE_K54_A_200


 49 53  0  0  0  0  0  0  0  0999 V2000
   18.6930   30.1993   12.3048 C   0  0  0  0  0  0  0  0  0  0  0  0
   19.8160   29.2664   12.3447 N   0  0  0  0  0  0  0  0  0  0  0  0
   21.0509   29.6475   11.9854 C   0  0  0  0  0  0  0  0  0  0  0  0
   21.3727   30.7863   11.6882 O   0  0  0  0  0  0  0  0  0  0  0  0
   19.6638   28.3400   12.6410 H   0  0  0  0  0  0  0  0  0  0  0  0
   22.8061   26.8976   10.5400 N   0  0  0  0  0  0  0  0  0  0  0  0
   22.5263   28.3400   10.4918 C   0  0  0  0  0  0  0  0  0  0  0  0
   22.1105   26.3104   11.6068 C   0  0  0  0  0  0  0  0  0  0  0  0
   21.9752   25.1125   11.7991 O   0  0  0  0  0  0  0  0  0  0  0  0
   21.6074   27.3524   12.4722 O   0  0  0  0  0  0  0  0  0  0  0  0
   22.1061   28.5989   11.9560 C   0  0  0  0  0  0  0  0  0  0  0  0
   24.1301   24.3050    7.5376 C   0  0  0  0  0  0  0  0  0  0  0  0
   25.0189   24.8910    8.4350 C   0  0  0  0  0  0  0  0  0  0  0  0
   24.5540   25.7593    9.4299 C   0  0  0  0  0  0  0  0  0  0  0  0
   23.1993   26.0274    9.5092 C   0  0  0  0  0  0  0  0  0  0  0  0
   22.3040   25.4430    8.6166 C   0  0  0  0  0  0  0  0  0  0  0  0
   22.7676   24.5781    7.6178 C   0  0  0  0  0  0  0  0  0  0  0  0
   26.7229   26.1964    9.9946 F   0  0  0  0  0  0  0  0  0  0  0  0
   25.2971   27.7233   10.4855 F   0  0  0  0  0  0  0  0  0  0  0  0
   25.3426   25.8458   11.5934 F   0  0  0  0  0  0  0  0  0  0  0  0
   25.4887   26.4083   10.4069 C   0  0  0  0  0  0  0  0  0  0  0  0
   18.5396   30.8975   13.6485 C   0  0  0  0  0  0  0  0  0  0  0  0
   17.1893   30.7716   14.1161 O   0  0  0  0  0  0  0  0  0  0  0  0
   16.5882   31.2017   13.4879 H   0  0  0  0  0  0  0  0  0  0  0  0
   18.9447   32.3766   13.5674 C   0  0  0  0  0  0  0  0  0  0  0  0
   19.5224   32.7955   14.8705 N   0  0  0  0  0  0  0  0  0  0  0  0
   18.4198   33.2264   15.9787 S   0  0  0  0  0  0  0  0  0  0  0  0
   18.0996   32.0447   16.7358 O   0  0  0  0  0  0  0  0  0  0  0  0
   17.2941   33.6979   15.2400 O   0  0  0  0  0  0  0  0  0  0  0  0
   21.3813   38.1483   18.6651 C   0  0  0  0  0  0  0  0  0  0  0  0
   20.4842   37.4680   19.4040 N   0  0  0  0  0  0  0  0  0  0  0  0
   21.6264   37.5683   17.0533 S   0  0  0  0  0  0  0  0  0  0  0  0
   19.9048   36.4484   18.7139 C   0  0  0  0  0  0  0  0  0  0  0  0
   20.4327   36.3864   17.4266 C   0  0  0  0  0  0  0  0  0  0  0  0
   19.9678   35.3753   16.5500 C   0  0  0  0  0  0  0  0  0  0  0  0
   18.9780   34.4266   16.9412 C   0  0  0  0  0  0  0  0  0  0  0  0
   18.4651   34.5347   18.2297 C   0  0  0  0  0  0  0  0  0  0  0  0
   18.9301   35.5308   19.0991 C   0  0  0  0  0  0  0  0  0  0  0  0
   20.5469   31.8713   15.4057 C   0  0  0  0  0  0  0  0  0  0  0  0
   21.9129   32.5507   15.5334 C   0  0  0  0  0  0  0  0  0  0  0  0
   22.4015   32.5655   16.9833 C   0  0  0  0  0  0  0  0  0  0  0  0
   22.9436   31.8309   14.6648 C   0  0  0  0  0  0  0  0  0  0  0  0
   17.4874   29.3204   11.9146 C   0  0  0  0  0  0  0  0  0  0  0  0
   18.3028   28.0472    9.8897 C   0  0  0  0  0  0  0  0  0  0  0  0
   18.7147   26.8670    9.2747 C   0  0  0  0  0  0  0  0  0  0  0  0
   18.7808   25.6805    9.9900 C   0  0  0  0  0  0  0  0  0  0  0  0
   18.4344   25.6758   11.3355 C   0  0  0  0  0  0  0  0  0  0  0  0
   18.0237   26.8578   11.9585 C   0  0  0  0  0  0  0  0  0  0  0  0
   17.9563   28.0419   11.2407 C   0  0  0  0  0  0  0  0  0  0  0  0
 30 31  2  0  0  0
 30 32  1  0  0  0
 18 21  1  0  0  0
 31 33  1  0  0  0
 32 34  1  0  0  0
 33 34  2  0  0  0
 33 38  1  0  0  0
 19 21  1  0  0  0
 34 35  1  0  0  0
 20 21  1  0  0  0
 35 36  2  0  0  0
 36 37  1  0  0  0
 36 27  1  0  0  0
 37 38  2  0  0  0
 27 28  2  0  0  0
 27 29  2  0  0  0
 27 26  1  0  0  0
 26 39  1  0  0  0
 26 25  1  0  0  0
 39 40  1  0  0  0
 40 41  1  0  0  0
 40 42  1  0  0  0
 25 22  1  0  0  0
 22 23  1  0  0  0
 22  1  1  0  0  0
  1  2  1  0  0  0
  1 43  1  0  0  0
  2  3  1  0  0  0
  3  4  2  0  0  0
  3 11  1  0  0  0
  6  7  1  0  0  0
  6  8  1  0  0  0
  6 15  1  0  0  0
  7 11  1  0  0  0
  8  9  2  0  0  0
  8 10  1  0  0  0
 10 11  1  0  0  0
 43 49  1  0  0  0
 44 45  2  0  0  0
 44 49  1  0  0  0
 45 46  1  0  0  0
 46 47  2  0  0  0
 47 48  1  0  0  0
 48 49  2  0  0  0
 12 13  2  0  0  0
 12 17  1  0  0  0
 13 14  1  0  0  0
 14 15  2  0  0  0
 14 21  1  0  0  0
 15 16  1  0  0  0
 16 17  2  0  0  0
 23 24  1  0  0  0
  2  5  1  0  0  0
M  END
> <minimizedAffinity>
-10.04934

$$$$
3MXE_K54_A_200


 49 53  0  0  0  0  0  0  0  0999 V2000
   17.5421   32.2054   14.9046 C   0  0  0  0  0  0  0  0  0  0  0  0
   17.4960   30.9016   14.2480 N   0  0  0  0  0  0  0  0  0  0  0  0
   18.1208   30.6873   13.0807 C   0  0  0  0  0  0  0  0  0  0  0  0
   18.8387   31.4943   12.5131 O   0  0  0  0  0  0  0  0  0  0  0  0
   16.9966   30.1658   14.6705 H   0  0  0  0  0  0  0  0  0  0  0  0
   19.2429   27.6359   11.6104 N   0  0  0  0  0  0  0  0  0  0  0  0
   19.0857   28.4225   12.8423 C   0  0  0  0  0  0  0  0  0  0  0  0
   18.7368   28.3531   10.5166 C   0  0  0  0  0  0  0  0  0  0  0  0
   18.8916   28.0662    9.3402 O   0  0  0  0  0  0  0  0  0  0  0  0
   17.9639   29.4725   11.0037 O   0  0  0  0  0  0  0  0  0  0  0  0
   17.9262   29.3599   12.4371 C   0  0  0  0  0  0  0  0  0  0  0  0
   21.8737   24.5199   10.6841 C   0  0  0  0  0  0  0  0  0  0  0  0
   20.5124   24.2910   10.8664 C   0  0  0  0  0  0  0  0  0  0  0  0
   19.6505   25.3486   11.1801 C   0  0  0  0  0  0  0  0  0  0  0  0
   20.1697   26.6244   11.3066 C   0  0  0  0  0  0  0  0  0  0  0  0
   21.5299   26.8615   11.1232 C   0  0  0  0  0  0  0  0  0  0  0  0
   22.3943   25.8042   10.8142 C   0  0  0  0  0  0  0  0  0  0  0  0
   17.9845   23.8447   11.6009 F   0  0  0  0  0  0  0  0  0  0  0  0
   17.7181   25.8025   12.4386 F   0  0  0  0  0  0  0  0  0  0  0  0
   17.5284   25.4759   10.2910 F   0  0  0  0  0  0  0  0  0  0  0  0
   18.1810   25.1306   11.3867 C   0  0  0  0  0  0  0  0  0  0  0  0
   18.8369   32.3544   15.6905 C   0  0  0  0  0  0  0  0  0  0  0  0
   18.5804   32.2000   17.0934 O   0  0  0  0  0  0  0  0  0  0  0  0
   17.9721   32.8951   17.3893 H   0  0  0  0  0  0  0  0  0  0  0  0
   19.5152   33.7040   15.4135 C   0  0  0  0  0  0  0  0  0  0  0  0
   20.9830   33.5570   15.5907 N   0  0  0  0  0  0  0  0  0  0  0  0
   21.5649   34.2627   16.9297 S   0  0  0  0  0  0  0  0  0  0  0  0
   22.8933   34.7227   16.6200 O   0  0  0  0  0  0  0  0  0  0  0  0
   21.5815   33.2429   17.9271 O   0  0  0  0  0  0  0  0  0  0  0  0
   18.6627   39.7749   18.1152 C   0  0  0  0  0  0  0  0  0  0  0  0
   18.1995   38.6696   18.7295 N   0  0  0  0  0  0  0  0  0  0  0  0
   20.0271   39.5450   17.0760 S   0  0  0  0  0  0  0  0  0  0  0  0
   18.8911   37.5503   18.3821 C   0  0  0  0  0  0  0  0  0  0  0  0
   19.9116   37.8796   17.4934 C   0  0  0  0  0  0  0  0  0  0  0  0
   20.7610   36.8483   17.0226 C   0  0  0  0  0  0  0  0  0  0  0  0
   20.6018   35.4897   17.4247 C   0  0  0  0  0  0  0  0  0  0  0  0
   19.5598   35.2018   18.3000 C   0  0  0  0  0  0  0  0  0  0  0  0
   18.7236   36.2232   18.7711 C   0  0  0  0  0  0  0  0  0  0  0  0
   21.4819   32.1763   15.4034 C   0  0  0  0  0  0  0  0  0  0  0  0
   22.3053   32.0396   14.1199 C   0  0  0  0  0  0  0  0  0  0  0  0
   23.7686   32.4254   14.3455 C   0  0  0  0  0  0  0  0  0  0  0  0
   22.2399   30.6037   13.6015 C   0  0  0  0  0  0  0  0  0  0  0  0
   16.2722   32.2315   15.7790 C   0  0  0  0  0  0  0  0  0  0  0  0
   16.3569   34.7421   15.5032 C   0  0  0  0  0  0  0  0  0  0  0  0
   16.1193   36.0305   15.9768 C   0  0  0  0  0  0  0  0  0  0  0  0
   15.5330   36.2329   17.2174 C   0  0  0  0  0  0  0  0  0  0  0  0
   15.1777   35.1344   17.9905 C   0  0  0  0  0  0  0  0  0  0  0  0
   15.4107   33.8394   17.5187 C   0  0  0  0  0  0  0  0  0  0  0  0
   15.9990   33.6400   16.2793 C   0  0  0  0  0  0  0  0  0  0  0  0
 30 31  2  0  0  0
 30 32  1  0  0  0
 18 21  1  0  0  0
 31 33  1  0  0  0
 32 34  1  0  0  0
 33 34  2  0  0  0
 33 38  1  0  0  0
 19 21  1  0  0  0
 34 35  1  0  0  0
 20 21  1  0  0  0
 35 36  2  0  0  0
 36 37  1  0  0  0
 36 27  1  0  0  0
 37 38  2  0  0  0
 27 28  2  0  0  0
 27 29  2  0  0  0
 27 26  1  0  0  0
 26 39  1  0  0  0
 26 25  1  0  0  0
 39 40  1  0  0  0
 40 41  1  0  0  0
 40 42  1  0  0  0
 25 22  1  0  0  0
 22 23  1  0  0  0
 22  1  1  0  0  0
  1  2  1  0  0  0
  1 43  1  0  0  0
  2  3  1  0  0  0
  3  4  2  0  0  0
  3 11  1  0  0  0
  6  7  1  0  0  0
  6  8  1  0  0  0
  6 15  1  0  0  0
  7 11  1  0  0  0
  8  9  2  0  0  0
  8 10  1  0  0  0
 10 11  1  0  0  0
 43 49  1  0  0  0
 44 45  2  0  0  0
 44 49  1  0  0  0
 45 46  1  0  0  0
 46 47  2  0  0  0
 47 48  1  0  0  0
 48 49  2  0  0  0
 12 13  2  0  0  0
 12 17  1  0  0  0
 13 14  1  0  0  0
 14 15  2  0  0  0
 14 21  1  0  0  0
 15 16  1  0  0  0
 16 17  2  0  0  0
 23 24  1  0  0  0
  2  5  1  0  0  0
M  END
> <minimizedAffinity>
-10.04159

$$$$
3MXE_K54_A_200


 49 53  0  0  0  0  0  0  0  0999 V2000
   20.3541   28.9784   11.3889 C   0  0  0  0  0  0  0  0  0  0  0  0
   19.4088   29.6737   12.2585 N   0  0  0  0  0  0  0  0  0  0  0  0
   19.4054   31.0116   12.3545 C   0  0  0  0  0  0  0  0  0  0  0  0
   20.0978   31.7625   11.6872 O   0  0  0  0  0  0  0  0  0  0  0  0
   18.7617   29.1503   12.7843 H   0  0  0  0  0  0  0  0  0  0  0  0
   18.6152   32.9915   15.2159 N   0  0  0  0  0  0  0  0  0  0  0  0
   19.0532   32.9781   13.8127 C   0  0  0  0  0  0  0  0  0  0  0  0
   18.3889   31.6804   15.6594 C   0  0  0  0  0  0  0  0  0  0  0  0
   18.2085   31.3385   16.8173 O   0  0  0  0  0  0  0  0  0  0  0  0
   18.3635   30.7944   14.5182 O   0  0  0  0  0  0  0  0  0  0  0  0
   18.4793   31.6212   13.3469 C   0  0  0  0  0  0  0  0  0  0  0  0
   19.1578   35.8731   18.1976 C   0  0  0  0  0  0  0  0  0  0  0  0
   17.9444   35.7410   17.5276 C   0  0  0  0  0  0  0  0  0  0  0  0
   17.7863   34.7719   16.5297 C   0  0  0  0  0  0  0  0  0  0  0  0
   18.8522   33.9473   16.2182 C   0  0  0  0  0  0  0  0  0  0  0  0
   20.0682   34.0719   16.8858 C   0  0  0  0  0  0  0  0  0  0  0  0
   20.2298   35.0438   17.8807 C   0  0  0  0  0  0  0  0  0  0  0  0
   15.6708   35.5606   16.1880 F   0  0  0  0  0  0  0  0  0  0  0  0
   16.6518   34.7252   14.4719 F   0  0  0  0  0  0  0  0  0  0  0  0
   15.9570   33.4409   16.0912 F   0  0  0  0  0  0  0  0  0  0  0  0
   16.4925   34.6102   15.7885 C   0  0  0  0  0  0  0  0  0  0  0  0
   19.6295   27.9363   10.5490 C   0  0  0  0  0  0  0  0  0  0  0  0
   18.3267   28.4159   10.1878 O   0  0  0  0  0  0  0  0  0  0  0  0
   17.8034   28.5661   10.9905 H   0  0  0  0  0  0  0  0  0  0  0  0
   19.5228   26.5918   11.2834 C   0  0  0  0  0  0  0  0  0  0  0  0
   19.6371   25.4872   10.2964 N   0  0  0  0  0  0  0  0  0  0  0  0
   20.8595   24.4615   10.5853 S   0  0  0  0  0  0  0  0  0  0  0  0
   20.2829   23.1514   10.7376 O   0  0  0  0  0  0  0  0  0  0  0  0
   21.4641   24.9131   11.7959 O   0  0  0  0  0  0  0  0  0  0  0  0
   24.0744   24.7534    5.1272 C   0  0  0  0  0  0  0  0  0  0  0  0
   24.7664   24.5213    6.2589 N   0  0  0  0  0  0  0  0  0  0  0  0
   22.3627   24.9275    5.3116 S   0  0  0  0  0  0  0  0  0  0  0  0
   23.9707   24.4988    7.3625 C   0  0  0  0  0  0  0  0  0  0  0  0
   22.6430   24.7029    6.9945 C   0  0  0  0  0  0  0  0  0  0  0  0
   21.6500   24.6985    8.0048 C   0  0  0  0  0  0  0  0  0  0  0  0
   21.9663   24.4971    9.3803 C   0  0  0  0  0  0  0  0  0  0  0  0
   23.3061   24.3140    9.7063 C   0  0  0  0  0  0  0  0  0  0  0  0
   24.2877   24.3115    8.7059 C   0  0  0  0  0  0  0  0  0  0  0  0
   18.3607   24.7960   10.0080 C   0  0  0  0  0  0  0  0  0  0  0  0
   18.1426   24.6113    8.5039 C   0  0  0  0  0  0  0  0  0  0  0  0
   17.4341   23.2907    8.1953 C   0  0  0  0  0  0  0  0  0  0  0  0
   17.3138   25.7670    7.9450 C   0  0  0  0  0  0  0  0  0  0  0  0
   21.3943   28.3862   12.3611 C   0  0  0  0  0  0  0  0  0  0  0  0
   22.7891   28.2918   10.2560 C   0  0  0  0  0  0  0  0  0  0  0  0
   23.9696   27.9752    9.5874 C   0  0  0  0  0  0  0  0  0  0  0  0
   25.0459   27.4278   10.2699 C   0  0  0  0  0  0  0  0  0  0  0  0
   24.9408   27.1980   11.6361 C   0  0  0  0  0  0  0  0  0  0  0  0
   23.7598   27.5170   12.3126 C   0  0  0  0  0  0  0  0  0  0  0  0
   22.6848   28.0619   11.6277 C   0  0  0  0  0  0  0  0  0  0  0  0
 30 31  2  0  0  0
 30 32  1  0  0  0
 18 21  1  0  0  0
 31 33  1  0  0  0
 32 34  1  0  0  0
 33 34  2  0  0  0
 33 38  1  0  0  0
 19 21  1  0  0  0
 34 35  1  0  0  0
 20 21  1  0  0  0
 35 36  2  0  0  0
 36 37  1  0  0  0
 36 27  1  0  0  0
 37 38  2  0  0  0
 27 28  2  0  0  0
 27 29  2  0  0  0
 27 26  1  0  0  0
 26 39  1  0  0  0
 26 25  1  0  0  0
 39 40  1  0  0  0
 40 41  1  0  0  0
 40 42  1  0  0  0
 25 22  1  0  0  0
 22 23  1  0  0  0
 22  1  1  0  0  0
  1  2  1  0  0  0
  1 43  1  0  0  0
  2  3  1  0  0  0
  3  4  2  0  0  0
  3 11  1  0  0  0
  6  7  1  0  0  0
  6  8  1  0  0  0
  6 15  1  0  0  0
  7 11  1  0  0  0
  8  9  2  0  0  0
  8 10  1  0  0  0
 10 11  1  0  0  0
 43 49  1  0  0  0
 44 45  2  0  0  0
 44 49  1  0  0  0
 45 46  1  0  0  0
 46 47  2  0  0  0
 47 48  1  0  0  0
 48 49  2  0  0  0
 12 13  2  0  0  0
 12 17  1  0  0  0
 13 14  1  0  0  0
 14 15  2  0  0  0
 14 21  1  0  0  0
 15 16  1  0  0  0
 16 17  2  0  0  0
 23 24  1  0  0  0
  2  5  1  0  0  0
M  END
> <minimizedAffinity>
-9.99737

$$$$
3MXE_K54_A_200


 49 53  0  0  0  0  0  0  0  0999 V2000
   21.0812   31.9097   14.0691 C   0  0  0  0  0  0  0  0  0  0  0  0
   20.0603   32.2989   15.0383 N   0  0  0  0  0  0  0  0  0  0  0  0
   18.7955   32.5364   14.6599 C   0  0  0  0  0  0  0  0  0  0  0  0
   18.3601   32.3712   13.5322 O   0  0  0  0  0  0  0  0  0  0  0  0
   20.3051   32.3887   15.9876 H   0  0  0  0  0  0  0  0  0  0  0  0
   17.4029   35.0209   16.8093 N   0  0  0  0  0  0  0  0  0  0  0  0
   17.5375   34.5204   15.4337 C   0  0  0  0  0  0  0  0  0  0  0  0
   18.0992   34.1842   17.6935 C   0  0  0  0  0  0  0  0  0  0  0  0
   18.3450   34.4275   18.8642 O   0  0  0  0  0  0  0  0  0  0  0  0
   18.4499   32.9614   17.0081 O   0  0  0  0  0  0  0  0  0  0  0  0
   17.8545   33.0318   15.7006 C   0  0  0  0  0  0  0  0  0  0  0  0
   16.5030   38.8567   18.2112 C   0  0  0  0  0  0  0  0  0  0  0  0
   15.5198   37.8781   18.0915 C   0  0  0  0  0  0  0  0  0  0  0  0
   15.8429   36.6017   17.6159 C   0  0  0  0  0  0  0  0  0  0  0  0
   17.1524   36.3258   17.2663 C   0  0  0  0  0  0  0  0  0  0  0  0
   18.1418   37.2989   17.3857 C   0  0  0  0  0  0  0  0  0  0  0  0
   17.8197   38.5776   17.8565 C   0  0  0  0  0  0  0  0  0  0  0  0
   13.6167   36.0956   17.5665 F   0  0  0  0  0  0  0  0  0  0  0  0
   14.8783   34.9147   16.2939 F   0  0  0  0  0  0  0  0  0  0  0  0
   14.9314   34.6603   18.4589 F   0  0  0  0  0  0  0  0  0  0  0  0
   14.8038   35.5297   17.4722 C   0  0  0  0  0  0  0  0  0  0  0  0
   21.0256   30.4095   13.8184 C   0  0  0  0  0  0  0  0  0  0  0  0
   22.1354   29.7633   14.4576 O   0  0  0  0  0  0  0  0  0  0  0  0
   22.9646   30.0966   14.0805 H   0  0  0  0  0  0  0  0  0  0  0  0
   21.0074   30.0867   12.3172 C   0  0  0  0  0  0  0  0  0  0  0  0
   20.6039   28.6693   12.1285 N   0  0  0  0  0  0  0  0  0  0  0  0
   19.0233   28.4621   11.8316 S   0  0  0  0  0  0  0  0  0  0  0  0
   18.5827   29.6068   11.0781 O   0  0  0  0  0  0  0  0  0  0  0  0
   18.3950   28.4020   13.1109 O   0  0  0  0  0  0  0  0  0  0  0  0
   18.1830   23.7985    7.6176 C   0  0  0  0  0  0  0  0  0  0  0  0
   17.9696   23.5235    8.9185 N   0  0  0  0  0  0  0  0  0  0  0  0
   18.6507   25.4251    7.2570 S   0  0  0  0  0  0  0  0  0  0  0  0
   18.1988   24.5963    9.7237 C   0  0  0  0  0  0  0  0  0  0  0  0
   18.5724   25.6957    8.9546 C   0  0  0  0  0  0  0  0  0  0  0  0
   18.8408   26.9228    9.6096 C   0  0  0  0  0  0  0  0  0  0  0  0
   18.7453   27.0656   11.0249 C   0  0  0  0  0  0  0  0  0  0  0  0
   18.3858   25.9385   11.7566 C   0  0  0  0  0  0  0  0  0  0  0  0
   18.1135   24.7263   11.1080 C   0  0  0  0  0  0  0  0  0  0  0  0
   21.4695   27.9102   11.1986 C   0  0  0  0  0  0  0  0  0  0  0  0
   22.3330   26.8840   11.9370 C   0  0  0  0  0  0  0  0  0  0  0  0
   22.1566   25.4786   11.3583 C   0  0  0  0  0  0  0  0  0  0  0  0
   23.8071   27.2782   11.8550 C   0  0  0  0  0  0  0  0  0  0  0  0
   22.4030   32.3904   14.7014 C   0  0  0  0  0  0  0  0  0  0  0  0
   21.5852   34.6656   15.4365 C   0  0  0  0  0  0  0  0  0  0  0  0
   21.3565   35.6191   16.4260 C   0  0  0  0  0  0  0  0  0  0  0  0
   21.6712   35.3553   17.7509 C   0  0  0  0  0  0  0  0  0  0  0  0
   22.2172   34.1233   18.0893 C   0  0  0  0  0  0  0  0  0  0  0  0
   22.4456   33.1617   17.1008 C   0  0  0  0  0  0  0  0  0  0  0  0
   22.1322   33.4288   15.7771 C   0  0  0  0  0  0  0  0  0  0  0  0
 30 31  2  0  0  0
 30 32  1  0  0  0
 18 21  1  0  0  0
 31 33  1  0  0  0
 32 34  1  0  0  0
 33 34  2  0  0  0
 33 38  1  0  0  0
 19 21  1  0  0  0
 34 35  1  0  0  0
 20 21  1  0  0  0
 35 36  2  0  0  0
 36 37  1  0  0  0
 36 27  1  0  0  0
 37 38  2  0  0  0
 27 28  2  0  0  0
 27 29  2  0  0  0
 27 26  1  0  0  0
 26 39  1  0  0  0
 26 25  1  0  0  0
 39 40  1  0  0  0
 40 41  1  0  0  0
 40 42  1  0  0  0
 25 22  1  0  0  0
 22 23  1  0  0  0
 22  1  1  0  0  0
  1  2  1  0  0  0
  1 43  1  0  0  0
  2  3  1  0  0  0
  3  4  2  0  0  0
  3 11  1  0  0  0
  6  7  1  0  0  0
  6  8  1  0  0  0
  6 15  1  0  0  0
  7 11  1  0  0  0
  8  9  2  0  0  0
  8 10  1  0  0  0
 10 11  1  0  0  0
 43 49  1  0  0  0
 44 45  2  0  0  0
 44 49  1  0  0  0
 45 46  1  0  0  0
 46 47  2  0  0  0
 47 48  1  0  0  0
 48 49  2  0  0  0
 12 13  2  0  0  0
 12 17  1  0  0  0
 13 14  1  0  0  0
 14 15  2  0  0  0
 14 21  1  0  0  0
 15 16  1  0  0  0
 16 17  2  0  0  0
 23 24  1  0  0  0
  2  5  1  0  0  0
M  END
> <minimizedAffinity>
-9.74595

$$$$
3MXE_K54_A_200


 49 53  0  0  0  0  0  0  0  0999 V2000
   20.1098   28.0261   10.6463 C   0  0  0  0  0  0  0  0  0  0  0  0
   19.5761   28.8148   11.7536 N   0  0  0  0  0  0  0  0  0  0  0  0
   20.1588   29.9607   12.1367 C   0  0  0  0  0  0  0  0  0  0  0  0
   21.0997   30.4908   11.5689 O   0  0  0  0  0  0  0  0  0  0  0  0
   18.7732   28.4994   12.2280 H   0  0  0  0  0  0  0  0  0  0  0  0
   20.3991   31.8779   15.1364 N   0  0  0  0  0  0  0  0  0  0  0  0
   20.4655   31.8786   13.6678 C   0  0  0  0  0  0  0  0  0  0  0  0
   20.1072   30.5875   15.6017 C   0  0  0  0  0  0  0  0  0  0  0  0
   20.1756   30.2133   16.7617 O   0  0  0  0  0  0  0  0  0  0  0  0
   19.6716   29.7729   14.4907 O   0  0  0  0  0  0  0  0  0  0  0  0
   19.6067   30.6362   13.3420 C   0  0  0  0  0  0  0  0  0  0  0  0
   22.0748   34.5096   17.9211 C   0  0  0  0  0  0  0  0  0  0  0  0
   20.7405   34.6119   17.5369 C   0  0  0  0  0  0  0  0  0  0  0  0
   20.2014   33.7225   16.5997 C   0  0  0  0  0  0  0  0  0  0  0  0
   21.0126   32.7405   16.0604 C   0  0  0  0  0  0  0  0  0  0  0  0
   22.3476   32.6304   16.4417 C   0  0  0  0  0  0  0  0  0  0  0  0
   22.8899   33.5221   17.3752 C   0  0  0  0  0  0  0  0  0  0  0  0
   18.2271   34.8596   16.7531 F   0  0  0  0  0  0  0  0  0  0  0  0
   18.6553   33.9711   14.8471 F   0  0  0  0  0  0  0  0  0  0  0  0
   18.1222   32.7299   16.5588 F   0  0  0  0  0  0  0  0  0  0  0  0
   18.7690   33.8121   16.1639 C   0  0  0  0  0  0  0  0  0  0  0  0
   18.9955   27.6546    9.6784 C   0  0  0  0  0  0  0  0  0  0  0  0
   17.7504   28.2078   10.1272 O   0  0  0  0  0  0  0  0  0  0  0  0
   17.5258   27.8367   10.9948 H   0  0  0  0  0  0  0  0  0  0  0  0
   18.8774   26.1330    9.5081 C   0  0  0  0  0  0  0  0  0  0  0  0
   19.2813   25.7645    8.1266 N   0  0  0  0  0  0  0  0  0  0  0  0
   20.0263   24.3287    8.0125 S   0  0  0  0  0  0  0  0  0  0  0  0
   19.0878   23.4134    7.4177 O   0  0  0  0  0  0  0  0  0  0  0  0
   20.3490   23.9540    9.3507 O   0  0  0  0  0  0  0  0  0  0  0  0
   24.6530   24.0802    3.6832 C   0  0  0  0  0  0  0  0  0  0  0  0
   24.9320   24.6353    4.8780 N   0  0  0  0  0  0  0  0  0  0  0  0
   23.0420   23.4796    3.4878 S   0  0  0  0  0  0  0  0  0  0  0  0
   23.8573   24.6460    5.7127 C   0  0  0  0  0  0  0  0  0  0  0  0
   22.7653   24.0483    5.0882 C   0  0  0  0  0  0  0  0  0  0  0  0
   21.5465   23.9463    5.8028 C   0  0  0  0  0  0  0  0  0  0  0  0
   21.4022   24.4380    7.1333 C   0  0  0  0  0  0  0  0  0  0  0  0
   22.5123   25.0430    7.7134 C   0  0  0  0  0  0  0  0  0  0  0  0
   23.7202   25.1377    7.0088 C   0  0  0  0  0  0  0  0  0  0  0  0
   18.2165   25.9435    7.1146 C   0  0  0  0  0  0  0  0  0  0  0  0
   18.7600   26.5568    5.8213 C   0  0  0  0  0  0  0  0  0  0  0  0
   18.4534   25.6765    4.6080 C   0  0  0  0  0  0  0  0  0  0  0  0
   18.1560   27.9429    5.6001 C   0  0  0  0  0  0  0  0  0  0  0  0
   20.7729   26.8147   11.3325 C   0  0  0  0  0  0  0  0  0  0  0  0
   22.8437   27.7756   10.2486 C   0  0  0  0  0  0  0  0  0  0  0  0
   24.1981   27.7067    9.9298 C   0  0  0  0  0  0  0  0  0  0  0  0
   24.9702   26.6318   10.3448 C   0  0  0  0  0  0  0  0  0  0  0  0
   24.3815   25.6171   11.0893 C   0  0  0  0  0  0  0  0  0  0  0  0
   23.0237   25.6829   11.4149 C   0  0  0  0  0  0  0  0  0  0  0  0
   22.2537   26.7572   10.9969 C   0  0  0  0  0  0  0  0  0  0  0  0
 30 31  2  0  0  0
 30 32  1  0  0  0
 18 21  1  0  0  0
 31 33  1  0  0  0
 32 34  1  0  0  0
 33 34  2  0  0  0
 33 38  1  0  0  0
 19 21  1  0  0  0
 34 35  1  0  0  0
 20 21  1  0  0  0
 35 36  2  0  0  0
 36 37  1  0  0  0
 36 27  1  0  0  0
 37 38  2  0  0  0
 27 28  2  0  0  0
 27 29  2  0  0  0
 27 26  1  0  0  0
 26 39  1  0  0  0
 26 25  1  0  0  0
 39 40  1  0  0  0
 40 41  1  0  0  0
 40 42  1  0  0  0
 25 22  1  0  0  0
 22 23  1  0  0  0
 22  1  1  0  0  0
  1  2  1  0  0  0
  1 43  1  0  0  0
  2  3  1  0  0  0
  3  4  2  0  0  0
  3 11  1  0  0  0
  6  7  1  0  0  0
  6  8  1  0  0  0
  6 15  1  0  0  0
  7 11  1  0  0  0
  8  9  2  0  0  0
  8 10  1  0  0  0
 10 11  1  0  0  0
 43 49  1  0  0  0
 44 45  2  0  0  0
 44 49  1  0  0  0
 45 46  1  0  0  0
 46 47  2  0  0  0
 47 48  1  0  0  0
 48 49  2  0  0  0
 12 13  2  0  0  0
 12 17  1  0  0  0
 13 14  1  0  0  0
 14 15  2  0  0  0
 14 21  1  0  0  0
 15 16  1  0  0  0
 16 17  2  0  0  0
 23 24  1  0  0  0
  2  5  1  0  0  0
M  END
> <minimizedAffinity>
-9.68396

$$$$
3MXE_K54_A_200


 49 53  0  0  0  0  0  0  0  0999 V2000
   21.3488   29.7842   12.1134 C   0  0  0  0  0  0  0  0  0  0  0  0
   20.1522   30.2371   12.8178 N   0  0  0  0  0  0  0  0  0  0  0  0
   19.6094   31.4379   12.5673 C   0  0  0  0  0  0  0  0  0  0  0  0
   19.9851   32.2078   11.6986 O   0  0  0  0  0  0  0  0  0  0  0  0
   19.7360   29.6498   13.4894 H   0  0  0  0  0  0  0  0  0  0  0  0
   18.0988   33.0318   15.3797 N   0  0  0  0  0  0  0  0  0  0  0  0
   18.7836   33.2031   14.0902 C   0  0  0  0  0  0  0  0  0  0  0  0
   17.9412   31.6668   15.6604 C   0  0  0  0  0  0  0  0  0  0  0  0
   17.5918   31.1925   16.7296 O   0  0  0  0  0  0  0  0  0  0  0  0
   18.2215   30.9043   14.4655 O   0  0  0  0  0  0  0  0  0  0  0  0
   18.4568   31.8541   13.4113 C   0  0  0  0  0  0  0  0  0  0  0  0
   17.7666   35.6151   18.6515 C   0  0  0  0  0  0  0  0  0  0  0  0
   16.6782   35.3444   17.8266 C   0  0  0  0  0  0  0  0  0  0  0  0
   16.8131   34.4795   16.7341 C   0  0  0  0  0  0  0  0  0  0  0  0
   18.0429   33.8973   16.4852 C   0  0  0  0  0  0  0  0  0  0  0  0
   19.1356   34.1613   17.3075 C   0  0  0  0  0  0  0  0  0  0  0  0
   19.0038   35.0300   18.3977 C   0  0  0  0  0  0  0  0  0  0  0  0
   14.6314   34.9040   16.2106 F   0  0  0  0  0  0  0  0  0  0  0  0
   15.9285   34.4707   14.5566 F   0  0  0  0  0  0  0  0  0  0  0  0
   15.3335   32.8986   15.9456 F   0  0  0  0  0  0  0  0  0  0  0  0
   15.6593   34.1735   15.8261 C   0  0  0  0  0  0  0  0  0  0  0  0
   21.0441   28.5275   11.3107 C   0  0  0  0  0  0  0  0  0  0  0  0
   19.6693   28.5277   10.9010 O   0  0  0  0  0  0  0  0  0  0  0  0
   19.0983   28.5246   11.6851 H   0  0  0  0  0  0  0  0  0  0  0  0
   21.3675   27.2548   12.1069 C   0  0  0  0  0  0  0  0  0  0  0  0
   22.3444   26.4370   11.3425 N   0  0  0  0  0  0  0  0  0  0  0  0
   21.7808   24.9885   10.8799 S   0  0  0  0  0  0  0  0  0  0  0  0
   21.5228   24.2346   12.0787 O   0  0  0  0  0  0  0  0  0  0  0  0
   22.8222   24.3995   10.1030 O   0  0  0  0  0  0  0  0  0  0  0  0
   17.4449   25.7008    6.3077 C   0  0  0  0  0  0  0  0  0  0  0  0
   17.0139   25.5945    7.5791 N   0  0  0  0  0  0  0  0  0  0  0  0
   19.1601   25.6457    6.0852 S   0  0  0  0  0  0  0  0  0  0  0  0
   18.0339   25.4286    8.4644 C   0  0  0  0  0  0  0  0  0  0  0  0
   19.2531   25.4398    7.7911 C   0  0  0  0  0  0  0  0  0  0  0  0
   20.4452   25.2964    8.5429 C   0  0  0  0  0  0  0  0  0  0  0  0
   20.4357   25.1373    9.9597 C   0  0  0  0  0  0  0  0  0  0  0  0
   19.1961   25.1145   10.5904 C   0  0  0  0  0  0  0  0  0  0  0  0
   18.0170   25.2632    9.8474 C   0  0  0  0  0  0  0  0  0  0  0  0
   23.0235   27.1673   10.2490 C   0  0  0  0  0  0  0  0  0  0  0  0
   24.5216   27.3295   10.5197 C   0  0  0  0  0  0  0  0  0  0  0  0
   24.8703   27.0014   11.9730 C   0  0  0  0  0  0  0  0  0  0  0  0
   25.3269   26.4192    9.5935 C   0  0  0  0  0  0  0  0  0  0  0  0
   22.3882   29.5753   13.2332 C   0  0  0  0  0  0  0  0  0  0  0  0
   23.0671   31.8961   13.9673 C   0  0  0  0  0  0  0  0  0  0  0  0
   23.0380   32.9427   14.8863 C   0  0  0  0  0  0  0  0  0  0  0  0
   22.3020   32.8376   16.0573 C   0  0  0  0  0  0  0  0  0  0  0  0
   21.5851   31.6745   16.3095 C   0  0  0  0  0  0  0  0  0  0  0  0
   21.6081   30.6225   15.3892 C   0  0  0  0  0  0  0  0  0  0  0  0
   22.3464   30.7293   14.2207 C   0  0  0  0  0  0  0  0  0  0  0  0
 30 31  2  0  0  0
 30 32  1  0  0  0
 18 21  1  0  0  0
 31 33  1  0  0  0
 32 34  1  0  0  0
 33 34  2  0  0  0
 33 38  1  0  0  0
 19 21  1  0  0  0
 34 35  1  0  0  0
 20 21  1  0  0  0
 35 36  2  0  0  0
 36 37  1  0  0  0
 36 27  1  0  0  0
 37 38  2  0  0  0
 27 28  2  0  0  0
 27 29  2  0  0  0
 27 26  1  0  0  0
 26 39  1  0  0  0
 26 25  1  0  0  0
 39 40  1  0  0  0
 40 41  1  0  0  0
 40 42  1  0  0  0
 25 22  1  0  0  0
 22 23  1  0  0  0
 22  1  1  0  0  0
  1  2  1  0  0  0
  1 43  1  0  0  0
  2  3  1  0  0  0
  3  4  2  0  0  0
  3 11  1  0  0  0
  6  7  1  0  0  0
  6  8  1  0  0  0
  6 15  1  0  0  0
  7 11  1  0  0  0
  8  9  2  0  0  0
  8 10  1  0  0  0
 10 11  1  0  0  0
 43 49  1  0  0  0
 44 45  2  0  0  0
 44 49  1  0  0  0
 45 46  1  0  0  0
 46 47  2  0  0  0
 47 48  1  0  0  0
 48 49  2  0  0  0
 12 13  2  0  0  0
 12 17  1  0  0  0
 13 14  1  0  0  0
 14 15  2  0  0  0
 14 21  1  0  0  0
 15 16  1  0  0  0
 16 17  2  0  0  0
 23 24  1  0  0  0
  2  5  1  0  0  0
M  END
> <minimizedAffinity>
-9.61102

$$$$
3MXE_K54_A_200


 49 53  0  0  0  0  0  0  0  0999 V2000
   20.6736   25.4794   10.9726 C   0  0  0  0  0  0  0  0  0  0  0  0
   20.7498   26.7135   11.7500 N   0  0  0  0  0  0  0  0  0  0  0  0
   21.2064   27.8516   11.2067 C   0  0  0  0  0  0  0  0  0  0  0  0
   21.5070   27.9950   10.0329 O   0  0  0  0  0  0  0  0  0  0  0  0
   20.4603   26.7098   12.6910 H   0  0  0  0  0  0  0  0  0  0  0  0
   19.9657   30.4560   13.3066 N   0  0  0  0  0  0  0  0  0  0  0  0
   20.2043   29.0144   13.1461 C   0  0  0  0  0  0  0  0  0  0  0  0
   20.4139   31.1450   12.1702 C   0  0  0  0  0  0  0  0  0  0  0  0
   20.1864   32.3152   11.9077 O   0  0  0  0  0  0  0  0  0  0  0  0
   21.2265   30.2572   11.3706 O   0  0  0  0  0  0  0  0  0  0  0  0
   21.3480   29.0277   12.1071 C   0  0  0  0  0  0  0  0  0  0  0  0
   17.2502   32.5011   15.7422 C   0  0  0  0  0  0  0  0  0  0  0  0
   18.5998   32.4141   16.0732 C   0  0  0  0  0  0  0  0  0  0  0  0
   19.4906   31.7207   15.2452 C   0  0  0  0  0  0  0  0  0  0  0  0
   19.0116   31.1230   14.0934 C   0  0  0  0  0  0  0  0  0  0  0  0
   17.6633   31.2079   13.7545 C   0  0  0  0  0  0  0  0  0  0  0  0
   16.7699   31.8968   14.5839 C   0  0  0  0  0  0  0  0  0  0  0  0
   21.1292   32.0921   16.7915 F   0  0  0  0  0  0  0  0  0  0  0  0
   21.3667   30.3430   15.5709 F   0  0  0  0  0  0  0  0  0  0  0  0
   21.6510   32.3343   14.7290 F   0  0  0  0  0  0  0  0  0  0  0  0
   20.9483   31.6068   15.5791 C   0  0  0  0  0  0  0  0  0  0  0  0
   19.3294   24.8001   11.1920 C   0  0  0  0  0  0  0  0  0  0  0  0
   19.4010   23.9245   12.3260 O   0  0  0  0  0  0  0  0  0  0  0  0
   20.0595   23.2322   12.1590 H   0  0  0  0  0  0  0  0  0  0  0  0
   18.8749   24.0281    9.9447 C   0  0  0  0  0  0  0  0  0  0  0  0
   18.6926   24.9824    8.8207 N   0  0  0  0  0  0  0  0  0  0  0  0
   18.5178   24.2767    7.3712 S   0  0  0  0  0  0  0  0  0  0  0  0
   17.2792   24.7563    6.8160 O   0  0  0  0  0  0  0  0  0  0  0  0
   18.4699   22.8743    7.6282 O   0  0  0  0  0  0  0  0  0  0  0  0
   24.0780   24.6685    4.3476 C   0  0  0  0  0  0  0  0  0  0  0  0
   23.0780   25.4744    3.9426 N   0  0  0  0  0  0  0  0  0  0  0  0
   23.7133   23.6234    5.6777 S   0  0  0  0  0  0  0  0  0  0  0  0
   21.9338   25.2854    4.6545 C   0  0  0  0  0  0  0  0  0  0  0  0
   22.1370   24.3119    5.6297 C   0  0  0  0  0  0  0  0  0  0  0  0
   21.0631   23.9801    6.4919 C   0  0  0  0  0  0  0  0  0  0  0  0
   19.7858   24.6052    6.3903 C   0  0  0  0  0  0  0  0  0  0  0  0
   19.6207   25.5596    5.3919 C   0  0  0  0  0  0  0  0  0  0  0  0
   20.6852   25.8928    4.5432 C   0  0  0  0  0  0  0  0  0  0  0  0
   17.6833   26.0345    9.0751 C   0  0  0  0  0  0  0  0  0  0  0  0
   18.2727   27.4379    8.9104 C   0  0  0  0  0  0  0  0  0  0  0  0
   18.0503   27.9800    7.4969 C   0  0  0  0  0  0  0  0  0  0  0  0
   17.6424   28.3967    9.9196 C   0  0  0  0  0  0  0  0  0  0  0  0
   21.8803   24.6523   11.4603 C   0  0  0  0  0  0  0  0  0  0  0  0
   23.3328   24.9403    9.4125 C   0  0  0  0  0  0  0  0  0  0  0  0
   24.5136   25.3584    8.8029 C   0  0  0  0  0  0  0  0  0  0  0  0
   25.5231   25.9525    9.5457 C   0  0  0  0  0  0  0  0  0  0  0  0
   25.3476   26.1331   10.9121 C   0  0  0  0  0  0  0  0  0  0  0  0
   24.1633   25.7185   11.5284 C   0  0  0  0  0  0  0  0  0  0  0  0
   23.1569   25.1229   10.7840 C   0  0  0  0  0  0  0  0  0  0  0  0
 30 31  2  0  0  0
 30 32  1  0  0  0
 18 21  1  0  0  0
 31 33  1  0  0  0
 32 34  1  0  0  0
 33 34  2  0  0  0
 33 38  1  0  0  0
 19 21  1  0  0  0
 34 35  1  0  0  0
 20 21  1  0  0  0
 35 36  2  0  0  0
 36 37  1  0  0  0
 36 27  1  0  0  0
 37 38  2  0  0  0
 27 28  2  0  0  0
 27 29  2  0  0  0
 27 26  1  0  0  0
 26 39  1  0  0  0
 26 25  1  0  0  0
 39 40  1  0  0  0
 40 41  1  0  0  0
 40 42  1  0  0  0
 25 22  1  0  0  0
 22 23  1  0  0  0
 22  1  1  0  0  0
  1  2  1  0  0  0
  1 43  1  0  0  0
  2  3  1  0  0  0
  3  4  2  0  0  0
  3 11  1  0  0  0
  6  7  1  0  0  0
  6  8  1  0  0  0
  6 15  1  0  0  0
  7 11  1  0  0  0
  8  9  2  0  0  0
  8 10  1  0  0  0
 10 11  1  0  0  0
 43 49  1  0  0  0
 44 45  2  0  0  0
 44 49  1  0  0  0
 45 46  1  0  0  0
 46 47  2  0  0  0
 47 48  1  0  0  0
 48 49  2  0  0  0
 12 13  2  0  0  0
 12 17  1  0  0  0
 13 14  1  0  0  0
 14 15  2  0  0  0
 14 21  1  0  0  0
 15 16  1  0  0  0
 16 17  2  0  0  0
 23 24  1  0  0  0
  2  5  1  0  0  0
M  END
> <minimizedAffinity>
-9.50743

$$$$
3MXE_K54_A_200


 49 53  0  0  0  0  0  0  0  0999 V2000
   19.4823   31.2966   13.4878 C   0  0  0  0  0  0  0  0  0  0  0  0
   20.2532   32.0148   14.4992 N   0  0  0  0  0  0  0  0  0  0  0  0
   20.4855   31.4802   15.7073 C   0  0  0  0  0  0  0  0  0  0  0  0
   20.1713   30.3504   16.0443 O   0  0  0  0  0  0  0  0  0  0  0  0
   20.6092   32.9086   14.2903 H   0  0  0  0  0  0  0  0  0  0  0  0
   21.5486   34.5921   17.0922 N   0  0  0  0  0  0  0  0  0  0  0  0
   20.4285   33.6696   16.8564 C   0  0  0  0  0  0  0  0  0  0  0  0
   22.7331   34.0493   16.5733 C   0  0  0  0  0  0  0  0  0  0  0  0
   23.7905   34.6432   16.4337 O   0  0  0  0  0  0  0  0  0  0  0  0
   22.5166   32.6548   16.2632 O   0  0  0  0  0  0  0  0  0  0  0  0
   21.1867   32.3317   16.7059 C   0  0  0  0  0  0  0  0  0  0  0  0
   21.5601   38.7163   17.7843 C   0  0  0  0  0  0  0  0  0  0  0  0
   21.6957   37.8045   18.8278 C   0  0  0  0  0  0  0  0  0  0  0  0
   21.6849   36.4278   18.5735 C   0  0  0  0  0  0  0  0  0  0  0  0
   21.5377   35.9857   17.2712 C   0  0  0  0  0  0  0  0  0  0  0  0
   21.4041   36.8919   16.2219 C   0  0  0  0  0  0  0  0  0  0  0  0
   21.4097   38.2690   16.4748 C   0  0  0  0  0  0  0  0  0  0  0  0
   22.0355   36.0780   20.8026 F   0  0  0  0  0  0  0  0  0  0  0  0
   20.7252   34.6865   19.8268 F   0  0  0  0  0  0  0  0  0  0  0  0
   22.8710   34.6526   19.4407 F   0  0  0  0  0  0  0  0  0  0  0  0
   21.8242   35.4230   19.6782 C   0  0  0  0  0  0  0  0  0  0  0  0
   20.3883   30.8614   12.3449 C   0  0  0  0  0  0  0  0  0  0  0  0
   20.5309   31.9288   11.3973 O   0  0  0  0  0  0  0  0  0  0  0  0
   19.6632   32.1459   11.0219 H   0  0  0  0  0  0  0  0  0  0  0  0
   19.8597   29.5960   11.6537 C   0  0  0  0  0  0  0  0  0  0  0  0
   19.4973   28.5918   12.6870 N   0  0  0  0  0  0  0  0  0  0  0  0
   18.0641   27.8737   12.4422 S   0  0  0  0  0  0  0  0  0  0  0  0
   17.1495   28.8965   12.0069 O   0  0  0  0  0  0  0  0  0  0  0  0
   17.6833   27.3318   13.7057 O   0  0  0  0  0  0  0  0  0  0  0  0
   18.5712   24.1877    7.3072 C   0  0  0  0  0  0  0  0  0  0  0  0
   18.4135   23.5900    8.5035 N   0  0  0  0  0  0  0  0  0  0  0  0
   18.5977   25.9179    7.3257 S   0  0  0  0  0  0  0  0  0  0  0  0
   18.3347   24.4829    9.5273 C   0  0  0  0  0  0  0  0  0  0  0  0
   18.4180   25.7818    9.0317 C   0  0  0  0  0  0  0  0  0  0  0  0
   18.3389   26.8629    9.9436 C   0  0  0  0  0  0  0  0  0  0  0  0
   18.1819   26.6637   11.3466 C   0  0  0  0  0  0  0  0  0  0  0  0
   18.1201   25.3506   11.8012 C   0  0  0  0  0  0  0  0  0  0  0  0
   18.1915   24.2811   10.8982 C   0  0  0  0  0  0  0  0  0  0  0  0
   20.5769   27.6306   13.0045 C   0  0  0  0  0  0  0  0  0  0  0  0
   21.6366   27.5824   11.9006 C   0  0  0  0  0  0  0  0  0  0  0  0
   22.9997   28.0586   12.4069 C   0  0  0  0  0  0  0  0  0  0  0  0
   21.7719   26.1593   11.3607 C   0  0  0  0  0  0  0  0  0  0  0  0
   18.3848   32.2965   13.0709 C   0  0  0  0  0  0  0  0  0  0  0  0
   16.8688   31.6099   14.9725 C   0  0  0  0  0  0  0  0  0  0  0  0
   16.0367   31.9247   16.0445 C   0  0  0  0  0  0  0  0  0  0  0  0
   15.8142   33.2455   16.4051 C   0  0  0  0  0  0  0  0  0  0  0  0
   16.4336   34.2613   15.6876 C   0  0  0  0  0  0  0  0  0  0  0  0
   17.2723   33.9509   14.6132 C   0  0  0  0  0  0  0  0  0  0  0  0
   17.4911   32.6301   14.2535 C   0  0  0  0  0  0  0  0  0  0  0  0
 30 31  2  0  0  0
 30 32  1  0  0  0
 18 21  1  0  0  0
 31 33  1  0  0  0
 32 34  1  0  0  0
 33 34  2  0  0  0
 33 38  1  0  0  0
 19 21  1  0  0  0
 34 35  1  0  0  0
 20 21  1  0  0  0
 35 36  2  0  0  0
 36 37  1  0  0  0
 36 27  1  0  0  0
 37 38  2  0  0  0
 27 28  2  0  0  0
 27 29  2  0  0  0
 27 26  1  0  0  0
 26 39  1  0  0  0
 26 25  1  0  0  0
 39 40  1  0  0  0
 40 41  1  0  0  0
 40 42  1  0  0  0
 25 22  1  0  0  0
 22 23  1  0  0  0
 22  1  1  0  0  0
  1  2  1  0  0  0
  1 43  1  0  0  0
  2  3  1  0  0  0
  3  4  2  0  0  0
  3 11  1  0  0  0
  6  7  1  0  0  0
  6  8  1  0  0  0
  6 15  1  0  0  0
  7 11  1  0  0  0
  8  9  2  0  0  0
  8 10  1  0  0  0
 10 11  1  0  0  0
 43 49  1  0  0  0
 44 45  2  0  0  0
 44 49  1  0  0  0
 45 46  1  0  0  0
 46 47  2  0  0  0
 47 48  1  0  0  0
 48 49  2  0  0  0
 12 13  2  0  0  0
 12 17  1  0  0  0
 13 14  1  0  0  0
 14 15  2  0  0  0
 14 21  1  0  0  0
 15 16  1  0  0  0
 16 17  2  0  0  0
 23 24  1  0  0  0
  2  5  1  0  0  0
M  END
> <minimizedAffinity>
-9.28917

$$$$
