3MXE_K54_A_200
  RCSB PDB12061709493D
Coordinates from PDB:3MXE:A:200 Model:1 without hydrogens
 47 51  0  0  0  0            999 V2000
   15.4900   36.7590   18.3470   C 0  0  0  0  0  0  0  0  0  0  0  0
   24.5430   26.4890    8.9970   F 0  0  0  0  0  0  0  0  0  0  0  0
   15.0300   35.4960   18.4290   N 0  0  0  0  0  0  0  0  0  0  0  0
   16.7830   37.0200   17.2270   S 0  0  0  0  0  0  0  0  0  0  0  0
   15.6650   34.6520   17.5710   C 0  0  0  0  0  0  0  0  0  0  0  0
   24.7220   24.6580   10.1020   F 0  0  0  0  0  0  0  0  0  0  0  0
   16.6410   35.3450   16.8590   C 0  0  0  0  0  0  0  0  0  0  0  0
   25.4930   24.8100    8.0680   F 0  0  0  0  0  0  0  0  0  0  0  0
   17.4290   34.6350   15.9200   C 0  0  0  0  0  0  0  0  0  0  0  0
   17.2520   33.2410   15.6790   C 0  0  0  0  0  0  0  0  0  0  0  0
   16.2550   32.5910   16.3990   C 0  0  0  0  0  0  0  0  0  0  0  0
   15.4800   33.2920   17.3330   C 0  0  0  0  0  0  0  0  0  0  0  0
   18.1460   32.3670   14.6230   S 0  0  0  0  0  0  0  0  0  0  0  0
   17.3900   31.2780   14.0620   O 0  0  0  0  0  0  0  0  0  0  0  0
   18.6560   33.2300   13.6080   O 0  0  0  0  0  0  0  0  0  0  0  0
   19.4470   31.7200   15.3430   N 0  0  0  0  0  0  0  0  0  0  0  0
   20.2360   32.7120   16.1070   C 0  0  0  0  0  0  0  0  0  0  0  0
   21.7200   32.3390   16.1580   C 0  0  0  0  0  0  0  0  0  0  0  0
   22.3410   32.3060   14.7600   C 0  0  0  0  0  0  0  0  0  0  0  0
   22.4860   33.3390   17.0230   C 0  0  0  0  0  0  0  0  0  0  0  0
   19.1710   30.4610   16.0820   C 0  0  0  0  0  0  0  0  0  0  0  0
   20.0280   29.3320   15.4910   C 0  0  0  0  0  0  0  0  0  0  0  0
   19.9190   28.1470   16.2920   O 0  0  0  0  0  0  0  0  0  0  0  0
   19.6380   29.0260   14.0520   C 0  0  0  0  0  0  0  0  0  0  0  0
   20.6420   28.1690   13.4270   N 0  0  0  0  0  0  0  0  0  0  0  0
   21.3630   28.5920   12.3780   C 0  0  0  0  0  0  0  0  0  0  0  0
   21.3250   29.7190   11.9120   O 0  0  0  0  0  0  0  0  0  0  0  0
   22.2050   26.0160   10.0570   N 0  0  0  0  0  0  0  0  0  0  0  0
   21.8990   27.4400   10.2560   C 0  0  0  0  0  0  0  0  0  0  0  0
   22.1730   25.3430   11.2870   C 0  0  0  0  0  0  0  0  0  0  0  0
   22.1900   24.1320   11.4400   O 0  0  0  0  0  0  0  0  0  0  0  0
   22.1560   26.3150   12.3560   O 0  0  0  0  0  0  0  0  0  0  0  0
   22.2830   27.6100   11.7430   C 0  0  0  0  0  0  0  0  0  0  0  0
   18.3250   28.2290   13.9150   C 0  0  0  0  0  0  0  0  0  0  0  0
   18.2740   26.5180   12.0560   C 0  0  0  0  0  0  0  0  0  0  0  0
   18.0720   26.1710   10.7220   C 0  0  0  0  0  0  0  0  0  0  0  0
   17.6910   27.1260    9.7910   C 0  0  0  0  0  0  0  0  0  0  0  0
   17.5070   28.4410   10.2000   C 0  0  0  0  0  0  0  0  0  0  0  0
   17.7050   28.7940   11.5380   C 0  0  0  0  0  0  0  0  0  0  0  0
   18.0880   27.8380   12.4660   C 0  0  0  0  0  0  0  0  0  0  0  0
   21.8720   23.6040    6.6570   C 0  0  0  0  0  0  0  0  0  0  0  0
   23.1140   23.9600    7.1760   C 0  0  0  0  0  0  0  0  0  0  0  0
   23.2020   24.7720    8.3130   C 0  0  0  0  0  0  0  0  0  0  0  0
   22.0380   25.2160    8.9140   C 0  0  0  0  0  0  0  0  0  0  0  0
   20.7920   24.8620    8.4020   C 0  0  0  0  0  0  0  0  0  0  0  0
   20.7020   24.0540    7.2620   C 0  0  0  0  0  0  0  0  0  0  0  0
   24.5260   25.1750    8.8910   C 0  0  0  0  0  0  0  0  0  0  0  0
  1  3  2  0  0  0  0
  1  4  1  0  0  0  0
  2 47  1  0  0  0  0
  3  5  1  0  0  0  0
  4  7  1  0  0  0  0
  5  7  2  0  0  0  0
  5 12  1  0  0  0  0
  6 47  1  0  0  0  0
  7  9  1  0  0  0  0
  8 47  1  0  0  0  0
  9 10  2  0  0  0  0
 10 11  1  0  0  0  0
 10 13  1  0  0  0  0
 11 12  2  0  0  0  0
 13 14  2  0  0  0  0
 13 15  2  0  0  0  0
 13 16  1  0  0  0  0
 16 17  1  0  0  0  0
 16 21  1  0  0  0  0
 17 18  1  0  0  0  0
 18 19  1  0  0  0  0
 18 20  1  0  0  0  0
 21 22  1  0  0  0  0
 22 23  1  0  0  0  0
 22 24  1  0  0  0  0
 24 25  1  0  0  0  0
 24 34  1  0  0  0  0
 25 26  1  0  0  0  0
 26 27  2  0  0  0  0
 26 33  1  0  0  0  0
 28 29  1  0  0  0  0
 28 30  1  0  0  0  0
 28 44  1  0  0  0  0
 29 33  1  0  0  0  0
 30 31  2  0  0  0  0
 30 32  1  0  0  0  0
 32 33  1  0  0  0  0
 34 40  1  0  0  0  0
 35 36  2  0  0  0  0
 35 40  1  0  0  0  0
 36 37  1  0  0  0  0
 37 38  2  0  0  0  0
 38 39  1  0  0  0  0
 39 40  2  0  0  0  0
 41 42  2  0  0  0  0
 41 46  1  0  0  0  0
 42 43  1  0  0  0  0
 43 44  2  0  0  0  0
 43 47  1  0  0  0  0
 44 45  1  0  0  0  0
 45 46  2  0  0  0  0
A    1
C1
A    2
F1
A    3
N1
A    4
S1
A    5
C2
A    6
F2
A    7
C3
A    8
F3
A    9
C4
A   10
C5
A   11
C6
A   12
C7
A   13
S8
A   14
O9
A   15
O10
A   16
N11
A   17
C12
A   18
C13
A   19
C14
A   20
C15
A   21
C16
A   22
C17
A   23
O18
A   24
C19
A   25
N20
A   26
C21
A   27
O22
A   28
N24
A   29
C25
A   30
C26
A   31
O27
A   32
O28
A   33
C29
A   34
C32
A   35
C33
A   36
C34
A   37
C35
A   38
C36
A   39
C37
A   40
C38
A   41
C40
A   42
C41
A   43
C42
A   44
C43
A   45
C44
A   46
C45
A   47
C46
M  END
>  <InstanceId>
3MXE_K54_A_200

>  <ChemCompId>
K54

>  <PdbId>
3MXE

>  <ChainId>
A

>  <ResidueNumber>
200

>  <InsertionCode>


>  <Model>
1

>  <AltIds>


>  <MissingHeavyAtoms>
0

>  <ObservedFormula>
C32 N4 O6 S2 F3

>  <Name>
(5S)-N-{(1S,2R)-3-[(1,3-benzothiazol-6-ylsulfonyl)(2-methylpropyl)amino]-1-benzyl-2-hydroxypropyl}-2-oxo-3-[2-(trifluoromethyl)phenyl]-1,3-oxazolidine-5-carboxamide

>  <SystematicName>
(5S)-N-[(2S,3R)-4-[1,3-benzothiazol-6-ylsulfonyl(2-methylpropyl)amino]-3-hydroxy-1-phenyl-butan-2-yl]-2-oxo-3-[2-(trifluoromethyl)phenyl]-1,3-oxazolidine-5-carboxamide

>  <Synonyms>
(5S)-N-[(1S,2R)-3-[(6-Benzothiazolylsulfonyl)(2-methylpropyl)amino]-2-hydroxy-1-(phenylmethyl)propyl]-2-oxo-3-[2-(trifluoromethyl)phenyl]oxazolidine-5-carboxamide

>  <Type>
NON-POLYMER

>  <Formula>
C32 H33 F3 N4 O6 S2

>  <MolecularWeight>
690.753

>  <ModifiedDate>
2011-06-04

>  <Parent>


>  <OneLetterCode>


>  <SubcomponentList>


>  <AmbiguousFlag>
N

>  <InChI>
InChI=1S/C32H33F3N4O6S2/c1-20(2)16-38(47(43,44)22-12-13-24-29(15-22)46-19-36-24)17-27(40)25(14-21-8-4-3-5-9-21)37-30(41)28-18-39(31(42)45-28)26-11-7-6-10-23(26)32(33,34)35/h3-13,15,19-20,25,27-28,40H,14,16-18H2,1-2H3,(H,37,41)/t25-,27+,28-/m0/s1

>  <InChIKey>
NMADTNHSJGJGDP-ITHJLQSDSA-N

>  <SMILES>
CC(C)C[N@@](C[C@H]([C@H](Cc1ccccc1)NC(=O)[C@@H]2CN(C(=O)O2)c3ccccc3C(F)(F)F)O)S(=O)(=O)c4ccc5c(c4)scn5

$$$$
