4UJA_4L7_A_1351


 26 29  0  0  0  0  0  0  0  0999 V2000
  -24.5249    9.9406    2.0158 C   0  0  0  0  0  0  0  0  0  0  0  0
  -23.3077    8.9954    2.0685 C   0  0  0  0  0  0  0  0  0  0  0  0
  -24.9068    8.1697    3.5623 C   0  0  0  0  0  0  0  0  0  0  0  0
  -23.6922    7.8108    2.8143 N   0  0  0  0  0  0  0  0  0  0  0  0
  -25.1914    9.6768    3.4035 C   0  0  0  0  0  0  0  0  0  0  0  0
  -22.9479    7.5416    3.4577 H   0  0  0  0  0  0  0  0  0  0  0  0
  -31.4557   10.3661    5.0671 O   0  0  0  0  0  0  0  0  0  0  0  0
  -30.8954   10.2660    3.9795 C   0  0  0  0  0  0  0  0  0  0  0  0
  -31.5918   10.0673    2.8205 N   0  0  0  0  0  0  0  0  0  0  0  0
  -30.9947    9.8301    1.6270 C   0  0  0  0  0  0  0  0  0  0  0  0
  -29.6977    9.7525    1.4398 N   0  0  0  0  0  0  0  0  0  0  0  0
  -28.8934    9.9623    2.5705 C   0  0  0  0  0  0  0  0  0  0  0  0
  -27.5082    9.8559    2.4226 C   0  0  0  0  0  0  0  0  0  0  0  0
  -29.4359   10.2377    3.8309 C   0  0  0  0  0  0  0  0  0  0  0  0
  -28.5888   10.4413    4.9210 C   0  0  0  0  0  0  0  0  0  0  0  0
  -27.2213   10.3151    4.7601 C   0  0  0  0  0  0  0  0  0  0  0  0
  -26.6668   10.0030    3.5232 C   0  0  0  0  0  0  0  0  0  0  0  0
  -32.5753   10.0979    2.8540 H   0  0  0  0  0  0  0  0  0  0  0  0
  -24.1120   11.3813    1.7793 C   0  0  0  0  0  0  0  0  0  0  0  0
  -24.3007   12.2315    2.6313 O   0  0  0  0  0  0  0  0  0  0  0  0
  -21.8009   10.9662   -3.3988 Br  0  0  0  0  0  0  0  0  0  0  0  0
  -22.3215   12.7918   -1.2196 C   0  0  0  0  0  0  0  0  0  0  0  0
  -22.8843   12.8790    0.0779 C   0  0  0  0  0  0  0  0  0  0  0  0
  -23.4706   11.7050    0.5035 C   0  0  0  0  0  0  0  0  0  0  0  0
  -22.4840   11.5673   -1.7576 C   0  0  0  0  0  0  0  0  0  0  0  0
  -23.3467   10.4804   -0.7286 S   0  0  0  0  0  0  0  0  0  0  0  0
 21 25  1  0  0  0
 22 25  2  0  0  0
 22 23  1  0  0  0
 25 26  1  0  0  0
 23 24  2  0  0  0
 11 10  2  0  0  0
 11 12  1  0  0  0
 10  9  1  0  0  0
 24 26  1  0  0  0
 24 19  1  0  0  0
 13 12  2  0  0  0
 13 17  1  0  0  0
  9  8  1  0  0  0
 12 14  1  0  0  0
  2  1  1  0  0  0
  2  4  1  0  0  0
  1 19  1  0  0  0
  1  5  1  0  0  0
 19 20  2  0  0  0
  4  3  1  0  0  0
  3  5  1  0  0  0
 17  5  1  0  0  0
 17 16  2  0  0  0
 14  8  1  0  0  0
 14 15  2  0  0  0
  8  7  2  0  0  0
 16 15  1  0  0  0
  4  6  1  0  0  0
  9 18  1  0  0  0
M  END
> <minimizedAffinity>
-10.41314

$$$$
4UJA_4L7_A_1351


 26 29  0  0  0  0  0  0  0  0999 V2000
  -22.0964    8.4783    2.8984 C   0  0  0  0  0  0  0  0  0  0  0  0
  -22.0626    8.0826    4.3884 C   0  0  0  0  0  0  0  0  0  0  0  0
  -20.6504    6.6161    3.2373 C   0  0  0  0  0  0  0  0  0  0  0  0
  -20.9833    7.1299    4.5747 N   0  0  0  0  0  0  0  0  0  0  0  0
  -21.6681    7.1450    2.2067 C   0  0  0  0  0  0  0  0  0  0  0  0
  -21.2862    6.3674    5.1807 H   0  0  0  0  0  0  0  0  0  0  0  0
  -18.6824    8.8374   -3.3347 O   0  0  0  0  0  0  0  0  0  0  0  0
  -19.6983    8.1866   -3.1084 C   0  0  0  0  0  0  0  0  0  0  0  0
  -20.5708    7.8357   -4.1002 N   0  0  0  0  0  0  0  0  0  0  0  0
  -21.7584    7.2270   -3.8632 C   0  0  0  0  0  0  0  0  0  0  0  0
  -22.2159    6.9134   -2.6734 N   0  0  0  0  0  0  0  0  0  0  0  0
  -21.3809    7.2169   -1.5871 C   0  0  0  0  0  0  0  0  0  0  0  0
  -21.8434    6.9301   -0.3003 C   0  0  0  0  0  0  0  0  0  0  0  0
  -20.1298    7.8216   -1.7543 C   0  0  0  0  0  0  0  0  0  0  0  0
  -19.3387    8.0982   -0.6386 C   0  0  0  0  0  0  0  0  0  0  0  0
  -19.8195    7.8236    0.6285 C   0  0  0  0  0  0  0  0  0  0  0  0
  -21.0769    7.2591    0.8156 C   0  0  0  0  0  0  0  0  0  0  0  0
  -20.3246    8.0349   -5.0324 H   0  0  0  0  0  0  0  0  0  0  0  0
  -23.4610    8.9939    2.4812 C   0  0  0  0  0  0  0  0  0  0  0  0
  -24.4588    8.3124    2.6364 O   0  0  0  0  0  0  0  0  0  0  0  0
  -22.4831   13.5904   -0.7191 Br  0  0  0  0  0  0  0  0  0  0  0  0
  -24.0149   12.5936    1.5198 C   0  0  0  0  0  0  0  0  0  0  0  0
  -24.2370   11.4470    2.3222 C   0  0  0  0  0  0  0  0  0  0  0  0
  -23.5335   10.3370    1.9026 C   0  0  0  0  0  0  0  0  0  0  0  0
  -23.1550   12.3446    0.5129 C   0  0  0  0  0  0  0  0  0  0  0  0
  -22.6014   10.7084    0.4792 S   0  0  0  0  0  0  0  0  0  0  0  0
 21 25  1  0  0  0
 22 25  2  0  0  0
 22 23  1  0  0  0
 25 26  1  0  0  0
 23 24  2  0  0  0
 11 10  2  0  0  0
 11 12  1  0  0  0
 10  9  1  0  0  0
 24 26  1  0  0  0
 24 19  1  0  0  0
 13 12  2  0  0  0
 13 17  1  0  0  0
  9  8  1  0  0  0
 12 14  1  0  0  0
  2  1  1  0  0  0
  2  4  1  0  0  0
  1 19  1  0  0  0
  1  5  1  0  0  0
 19 20  2  0  0  0
  4  3  1  0  0  0
  3  5  1  0  0  0
 17  5  1  0  0  0
 17 16  2  0  0  0
 14  8  1  0  0  0
 14 15  2  0  0  0
  8  7  2  0  0  0
 16 15  1  0  0  0
  4  6  1  0  0  0
  9 18  1  0  0  0
M  END
> <minimizedAffinity>
-9.94143

$$$$
4UJA_4L7_A_1351


 26 29  0  0  0  0  0  0  0  0999 V2000
  -23.8472    9.6155    3.4318 C   0  0  0  0  0  0  0  0  0  0  0  0
  -24.3943    8.6860    4.5337 C   0  0  0  0  0  0  0  0  0  0  0  0
  -23.1346    7.3725    3.0647 C   0  0  0  0  0  0  0  0  0  0  0  0
  -23.7248    7.4038    4.4117 N   0  0  0  0  0  0  0  0  0  0  0  0
  -23.5931    8.6085    2.2651 C   0  0  0  0  0  0  0  0  0  0  0  0
  -24.3958    6.6433    4.5210 H   0  0  0  0  0  0  0  0  0  0  0  0
  -18.5434   10.8516   -1.1923 O   0  0  0  0  0  0  0  0  0  0  0  0
  -19.7460   10.7895   -1.4305 C   0  0  0  0  0  0  0  0  0  0  0  0
  -20.3074   11.4285   -2.5004 N   0  0  0  0  0  0  0  0  0  0  0  0
  -21.6445   11.4794   -2.7168 C   0  0  0  0  0  0  0  0  0  0  0  0
  -22.5515   10.9409   -1.9354 N   0  0  0  0  0  0  0  0  0  0  0  0
  -22.0719   10.2433   -0.8161 C   0  0  0  0  0  0  0  0  0  0  0  0
  -23.0045    9.6827    0.0602 C   0  0  0  0  0  0  0  0  0  0  0  0
  -20.7048   10.1253   -0.5404 C   0  0  0  0  0  0  0  0  0  0  0  0
  -20.2832    9.4170    0.5856 C   0  0  0  0  0  0  0  0  0  0  0  0
  -21.2203    8.8836    1.4512 C   0  0  0  0  0  0  0  0  0  0  0  0
  -22.5836    9.0251    1.2139 C   0  0  0  0  0  0  0  0  0  0  0  0
  -19.7114   11.8735   -3.1454 H   0  0  0  0  0  0  0  0  0  0  0  0
  -24.8196   10.7318    3.0995 C   0  0  0  0  0  0  0  0  0  0  0  0
  -24.4161   11.8452    2.8136 O   0  0  0  0  0  0  0  0  0  0  0  0
  -30.2132   10.0817    4.7765 Br  0  0  0  0  0  0  0  0  0  0  0  0
  -28.3764    9.5975    2.5984 C   0  0  0  0  0  0  0  0  0  0  0  0
  -27.0255    9.7484    2.1983 C   0  0  0  0  0  0  0  0  0  0  0  0
  -26.2496   10.4180    3.1218 C   0  0  0  0  0  0  0  0  0  0  0  0
  -28.6080   10.1466    3.8067 C   0  0  0  0  0  0  0  0  0  0  0  0
  -27.2095   10.8907    4.4958 S   0  0  0  0  0  0  0  0  0  0  0  0
 21 25  1  0  0  0
 22 25  2  0  0  0
 22 23  1  0  0  0
 25 26  1  0  0  0
 23 24  2  0  0  0
 11 10  2  0  0  0
 11 12  1  0  0  0
 10  9  1  0  0  0
 24 26  1  0  0  0
 24 19  1  0  0  0
 13 12  2  0  0  0
 13 17  1  0  0  0
  9  8  1  0  0  0
 12 14  1  0  0  0
  2  1  1  0  0  0
  2  4  1  0  0  0
  1 19  1  0  0  0
  1  5  1  0  0  0
 19 20  2  0  0  0
  4  3  1  0  0  0
  3  5  1  0  0  0
 17  5  1  0  0  0
 17 16  2  0  0  0
 14  8  1  0  0  0
 14 15  2  0  0  0
  8  7  2  0  0  0
 16 15  1  0  0  0
  4  6  1  0  0  0
  9 18  1  0  0  0
M  END
> <minimizedAffinity>
-9.53724

$$$$
4UJA_4L7_A_1351


 26 29  0  0  0  0  0  0  0  0999 V2000
  -20.3766    8.0283   -1.6839 C   0  0  0  0  0  0  0  0  0  0  0  0
  -19.8490    7.2560   -2.9098 C   0  0  0  0  0  0  0  0  0  0  0  0
  -21.5170    8.7140   -3.6594 C   0  0  0  0  0  0  0  0  0  0  0  0
  -20.3821    7.8896   -4.1021 N   0  0  0  0  0  0  0  0  0  0  0  0
  -21.7999    8.4542   -2.1661 C   0  0  0  0  0  0  0  0  0  0  0  0
  -20.6971    7.1828   -4.7667 H   0  0  0  0  0  0  0  0  0  0  0  0
  -23.3241   14.2316    0.4383 O   0  0  0  0  0  0  0  0  0  0  0  0
  -23.5818   13.0794    0.7744 C   0  0  0  0  0  0  0  0  0  0  0  0
  -24.1285   12.7841    1.9917 N   0  0  0  0  0  0  0  0  0  0  0  0
  -24.3081   11.5166    2.4370 C   0  0  0  0  0  0  0  0  0  0  0  0
  -23.9763   10.4343    1.7723 N   0  0  0  0  0  0  0  0  0  0  0  0
  -23.4228   10.6332    0.4982 C   0  0  0  0  0  0  0  0  0  0  0  0
  -23.0248    9.5092   -0.2301 C   0  0  0  0  0  0  0  0  0  0  0  0
  -23.2304   11.9107   -0.0402 C   0  0  0  0  0  0  0  0  0  0  0  0
  -22.6784   12.0503   -1.3142 C   0  0  0  0  0  0  0  0  0  0  0  0
  -22.2743   10.9280   -2.0136 C   0  0  0  0  0  0  0  0  0  0  0  0
  -22.4216    9.6529   -1.4776 C   0  0  0  0  0  0  0  0  0  0  0  0
  -24.4054   13.5284    2.5736 H   0  0  0  0  0  0  0  0  0  0  0  0
  -20.3662    7.1739   -0.4300 C   0  0  0  0  0  0  0  0  0  0  0  0
  -20.9442    6.1018   -0.4017 O   0  0  0  0  0  0  0  0  0  0  0  0
  -18.9092    8.6140    4.8737 Br  0  0  0  0  0  0  0  0  0  0  0  0
  -18.0750    8.7512    2.1100 C   0  0  0  0  0  0  0  0  0  0  0  0
  -18.4573    8.4031    0.7906 C   0  0  0  0  0  0  0  0  0  0  0  0
  -19.6287    7.6771    0.7305 C   0  0  0  0  0  0  0  0  0  0  0  0
  -18.9504    8.2919    3.0254 C   0  0  0  0  0  0  0  0  0  0  0  0
  -20.2557    7.3983    2.3311 S   0  0  0  0  0  0  0  0  0  0  0  0
 21 25  1  0  0  0
 22 25  2  0  0  0
 22 23  1  0  0  0
 25 26  1  0  0  0
 23 24  2  0  0  0
 11 10  2  0  0  0
 11 12  1  0  0  0
 10  9  1  0  0  0
 24 26  1  0  0  0
 24 19  1  0  0  0
 13 12  2  0  0  0
 13 17  1  0  0  0
  9  8  1  0  0  0
 12 14  1  0  0  0
  2  1  1  0  0  0
  2  4  1  0  0  0
  1 19  1  0  0  0
  1  5  1  0  0  0
 19 20  2  0  0  0
  4  3  1  0  0  0
  3  5  1  0  0  0
 17  5  1  0  0  0
 17 16  2  0  0  0
 14  8  1  0  0  0
 14 15  2  0  0  0
  8  7  2  0  0  0
 16 15  1  0  0  0
  4  6  1  0  0  0
  9 18  1  0  0  0
M  END
> <minimizedAffinity>
-9.41401

$$$$
4UJA_4L7_A_1351


 26 29  0  0  0  0  0  0  0  0999 V2000
  -23.5905    8.9512    3.7088 C   0  0  0  0  0  0  0  0  0  0  0  0
  -23.0554    8.8589    5.1520 C   0  0  0  0  0  0  0  0  0  0  0  0
  -21.2354    8.5944    3.7071 C   0  0  0  0  0  0  0  0  0  0  0  0
  -21.6056    8.9053    5.0963 N   0  0  0  0  0  0  0  0  0  0  0  0
  -22.4903    8.1794    2.9129 C   0  0  0  0  0  0  0  0  0  0  0  0
  -21.2056    8.2146    5.7313 H   0  0  0  0  0  0  0  0  0  0  0  0
  -23.0417   10.3440   -3.2104 O   0  0  0  0  0  0  0  0  0  0  0  0
  -22.6935    9.2633   -2.7438 C   0  0  0  0  0  0  0  0  0  0  0  0
  -22.5317    8.1541   -3.5257 N   0  0  0  0  0  0  0  0  0  0  0  0
  -22.2696    6.9230   -3.0227 C   0  0  0  0  0  0  0  0  0  0  0  0
  -22.1510    6.6447   -1.7453 N   0  0  0  0  0  0  0  0  0  0  0  0
  -22.2820    7.7252   -0.8595 C   0  0  0  0  0  0  0  0  0  0  0  0
  -22.1957    7.4679    0.5110 C   0  0  0  0  0  0  0  0  0  0  0  0
  -22.5272    9.0292   -1.3049 C   0  0  0  0  0  0  0  0  0  0  0  0
  -22.6456   10.0672   -0.3798 C   0  0  0  0  0  0  0  0  0  0  0  0
  -22.5747    9.7916    0.9733 C   0  0  0  0  0  0  0  0  0  0  0  0
  -22.3709    8.4955    1.4353 C   0  0  0  0  0  0  0  0  0  0  0  0
  -22.6093    8.2541   -4.5021 H   0  0  0  0  0  0  0  0  0  0  0  0
  -24.9849    8.3661    3.5843 C   0  0  0  0  0  0  0  0  0  0  0  0
  -25.1496    7.2291    3.1788 O   0  0  0  0  0  0  0  0  0  0  0  0
  -30.2147   10.1883    4.8708 Br  0  0  0  0  0  0  0  0  0  0  0  0
  -27.4756   11.0364    4.5086 C   0  0  0  0  0  0  0  0  0  0  0  0
  -26.1800   10.5740    4.1690 C   0  0  0  0  0  0  0  0  0  0  0  0
  -26.1147    9.2090    3.9803 C   0  0  0  0  0  0  0  0  0  0  0  0
  -28.3688   10.0297    4.5723 C   0  0  0  0  0  0  0  0  0  0  0  0
  -27.6735    8.4812    4.2509 S   0  0  0  0  0  0  0  0  0  0  0  0
 21 25  1  0  0  0
 22 25  2  0  0  0
 22 23  1  0  0  0
 25 26  1  0  0  0
 23 24  2  0  0  0
 11 10  2  0  0  0
 11 12  1  0  0  0
 10  9  1  0  0  0
 24 26  1  0  0  0
 24 19  1  0  0  0
 13 12  2  0  0  0
 13 17  1  0  0  0
  9  8  1  0  0  0
 12 14  1  0  0  0
  2  1  1  0  0  0
  2  4  1  0  0  0
  1 19  1  0  0  0
  1  5  1  0  0  0
 19 20  2  0  0  0
  4  3  1  0  0  0
  3  5  1  0  0  0
 17  5  1  0  0  0
 17 16  2  0  0  0
 14  8  1  0  0  0
 14 15  2  0  0  0
  8  7  2  0  0  0
 16 15  1  0  0  0
  4  6  1  0  0  0
  9 18  1  0  0  0
M  END
> <minimizedAffinity>
-9.31419

$$$$
4UJA_4L7_A_1351


 26 29  0  0  0  0  0  0  0  0999 V2000
  -23.9403    9.6366    3.4458 C   0  0  0  0  0  0  0  0  0  0  0  0
  -24.5506    8.5414    4.3433 C   0  0  0  0  0  0  0  0  0  0  0  0
  -23.1313    7.4878    2.8118 C   0  0  0  0  0  0  0  0  0  0  0  0
  -23.8346    7.3042    4.0906 N   0  0  0  0  0  0  0  0  0  0  0  0
  -23.5575    8.8229    2.1687 C   0  0  0  0  0  0  0  0  0  0  0  0
  -24.4890    6.5246    4.0249 H   0  0  0  0  0  0  0  0  0  0  0  0
  -19.7519   11.0371   -2.6375 O   0  0  0  0  0  0  0  0  0  0  0  0
  -19.4983   10.5063   -1.5602 C   0  0  0  0  0  0  0  0  0  0  0  0
  -18.2421   10.0703   -1.2443 N   0  0  0  0  0  0  0  0  0  0  0  0
  -17.9601    9.3719   -0.1174 C   0  0  0  0  0  0  0  0  0  0  0  0
  -18.8430    9.0240    0.7897 N   0  0  0  0  0  0  0  0  0  0  0  0
  -20.1631    9.4433    0.5645 C   0  0  0  0  0  0  0  0  0  0  0  0
  -21.1409    9.0663    1.4884 C   0  0  0  0  0  0  0  0  0  0  0  0
  -20.5266   10.1895   -0.5624 C   0  0  0  0  0  0  0  0  0  0  0  0
  -21.8542   10.5831   -0.7348 C   0  0  0  0  0  0  0  0  0  0  0  0
  -22.8117   10.1864    0.1804 C   0  0  0  0  0  0  0  0  0  0  0  0
  -22.4753    9.4113    1.2854 C   0  0  0  0  0  0  0  0  0  0  0  0
  -17.5060   10.2735   -1.8657 H   0  0  0  0  0  0  0  0  0  0  0  0
  -24.9144   10.7735    3.1994 C   0  0  0  0  0  0  0  0  0  0  0  0
  -24.5197   11.8598    2.8142 O   0  0  0  0  0  0  0  0  0  0  0  0
  -30.3983    9.4985    2.4075 Br  0  0  0  0  0  0  0  0  0  0  0  0
  -28.4716   10.3788    4.3736 C   0  0  0  0  0  0  0  0  0  0  0  0
  -27.1062   10.7115    4.5548 C   0  0  0  0  0  0  0  0  0  0  0  0
  -26.3370   10.5125    3.4270 C   0  0  0  0  0  0  0  0  0  0  0  0
  -28.7209    9.9372    3.1254 C   0  0  0  0  0  0  0  0  0  0  0  0
  -27.3109    9.8807    2.1288 S   0  0  0  0  0  0  0  0  0  0  0  0
 21 25  1  0  0  0
 22 25  2  0  0  0
 22 23  1  0  0  0
 25 26  1  0  0  0
 23 24  2  0  0  0
 11 10  2  0  0  0
 11 12  1  0  0  0
 10  9  1  0  0  0
 24 26  1  0  0  0
 24 19  1  0  0  0
 13 12  2  0  0  0
 13 17  1  0  0  0
  9  8  1  0  0  0
 12 14  1  0  0  0
  2  1  1  0  0  0
  2  4  1  0  0  0
  1 19  1  0  0  0
  1  5  1  0  0  0
 19 20  2  0  0  0
  4  3  1  0  0  0
  3  5  1  0  0  0
 17  5  1  0  0  0
 17 16  2  0  0  0
 14  8  1  0  0  0
 14 15  2  0  0  0
  8  7  2  0  0  0
 16 15  1  0  0  0
  4  6  1  0  0  0
  9 18  1  0  0  0
M  END
> <minimizedAffinity>
-9.04940

$$$$
4UJA_4L7_A_1351


 26 29  0  0  0  0  0  0  0  0999 V2000
  -20.5926    8.4097    2.8769 C   0  0  0  0  0  0  0  0  0  0  0  0
  -19.5014    8.4195    3.9663 C   0  0  0  0  0  0  0  0  0  0  0  0
  -18.4710    7.8652    1.9412 C   0  0  0  0  0  0  0  0  0  0  0  0
  -18.2100    8.3427    3.3077 N   0  0  0  0  0  0  0  0  0  0  0  0
  -19.9560    7.4755    1.7990 C   0  0  0  0  0  0  0  0  0  0  0  0
  -17.6010    7.6890    3.7999 H   0  0  0  0  0  0  0  0  0  0  0  0
  -22.5355    6.8613   -4.1553 O   0  0  0  0  0  0  0  0  0  0  0  0
  -21.5693    7.4902   -3.7338 C   0  0  0  0  0  0  0  0  0  0  0  0
  -20.6625    8.0750   -4.5727 N   0  0  0  0  0  0  0  0  0  0  0  0
  -19.5235    8.6675   -4.1382 C   0  0  0  0  0  0  0  0  0  0  0  0
  -19.1501    8.7435   -2.8819 N   0  0  0  0  0  0  0  0  0  0  0  0
  -20.0272    8.1867   -1.9385 C   0  0  0  0  0  0  0  0  0  0  0  0
  -19.6528    8.2164   -0.5928 C   0  0  0  0  0  0  0  0  0  0  0  0
  -21.2337    7.5811   -2.3082 C   0  0  0  0  0  0  0  0  0  0  0  0
  -22.0700    7.0461   -1.3277 C   0  0  0  0  0  0  0  0  0  0  0  0
  -21.6756    7.0687   -0.0026 C   0  0  0  0  0  0  0  0  0  0  0  0
  -20.4620    7.6313    0.3787 C   0  0  0  0  0  0  0  0  0  0  0  0
  -20.8456    8.0654   -5.5400 H   0  0  0  0  0  0  0  0  0  0  0  0
  -21.9267    7.9297    3.4174 C   0  0  0  0  0  0  0  0  0  0  0  0
  -22.0091    6.8811    4.0320 O   0  0  0  0  0  0  0  0  0  0  0  0
  -26.9122   10.5922    4.0357 Br  0  0  0  0  0  0  0  0  0  0  0  0
  -24.7274   10.1349    2.1998 C   0  0  0  0  0  0  0  0  0  0  0  0
  -23.4947    9.4521    2.0504 C   0  0  0  0  0  0  0  0  0  0  0  0
  -23.0991    8.7757    3.1857 C   0  0  0  0  0  0  0  0  0  0  0  0
  -25.2478    9.9704    3.4316 C   0  0  0  0  0  0  0  0  0  0  0  0
  -24.2559    9.0067    4.4669 S   0  0  0  0  0  0  0  0  0  0  0  0
 21 25  1  0  0  0
 22 25  2  0  0  0
 22 23  1  0  0  0
 25 26  1  0  0  0
 23 24  2  0  0  0
 11 10  2  0  0  0
 11 12  1  0  0  0
 10  9  1  0  0  0
 24 26  1  0  0  0
 24 19  1  0  0  0
 13 12  2  0  0  0
 13 17  1  0  0  0
  9  8  1  0  0  0
 12 14  1  0  0  0
  2  1  1  0  0  0
  2  4  1  0  0  0
  1 19  1  0  0  0
  1  5  1  0  0  0
 19 20  2  0  0  0
  4  3  1  0  0  0
  3  5  1  0  0  0
 17  5  1  0  0  0
 17 16  2  0  0  0
 14  8  1  0  0  0
 14 15  2  0  0  0
  8  7  2  0  0  0
 16 15  1  0  0  0
  4  6  1  0  0  0
  9 18  1  0  0  0
M  END
> <minimizedAffinity>
-9.04104

$$$$
4UJA_4L7_A_1351


 26 29  0  0  0  0  0  0  0  0999 V2000
  -21.6201    8.3918    3.0261 C   0  0  0  0  0  0  0  0  0  0  0  0
  -21.5891    7.9737    4.5099 C   0  0  0  0  0  0  0  0  0  0  0  0
  -19.5260    7.3965    3.5716 C   0  0  0  0  0  0  0  0  0  0  0  0
  -20.2221    7.6211    4.8478 N   0  0  0  0  0  0  0  0  0  0  0  0
  -20.5372    7.4504    2.4089 C   0  0  0  0  0  0  0  0  0  0  0  0
  -20.2058    6.7723    5.4131 H   0  0  0  0  0  0  0  0  0  0  0  0
  -18.0074   10.6430   -2.6795 O   0  0  0  0  0  0  0  0  0  0  0  0
  -18.6380    9.5935   -2.5927 C   0  0  0  0  0  0  0  0  0  0  0  0
  -19.1333    8.9517   -3.6930 N   0  0  0  0  0  0  0  0  0  0  0  0
  -19.9360    7.8621   -3.6183 C   0  0  0  0  0  0  0  0  0  0  0  0
  -20.3394    7.3032   -2.5011 N   0  0  0  0  0  0  0  0  0  0  0  0
  -19.8670    7.8800   -1.3122 C   0  0  0  0  0  0  0  0  0  0  0  0
  -20.2984    7.3368   -0.0995 C   0  0  0  0  0  0  0  0  0  0  0  0
  -19.0146    8.9901   -1.3092 C   0  0  0  0  0  0  0  0  0  0  0  0
  -18.5724    9.5215   -0.0971 C   0  0  0  0  0  0  0  0  0  0  0  0
  -19.0232    8.9822    1.0936 C   0  0  0  0  0  0  0  0  0  0  0  0
  -19.9016    7.9038    1.1096 C   0  0  0  0  0  0  0  0  0  0  0  0
  -18.8954    9.2978   -4.5835 H   0  0  0  0  0  0  0  0  0  0  0  0
  -23.0045    8.2386    2.4243 C   0  0  0  0  0  0  0  0  0  0  0  0
  -23.2303    7.3783    1.5918 O   0  0  0  0  0  0  0  0  0  0  0  0
  -27.8458   10.2988    4.5791 Br  0  0  0  0  0  0  0  0  0  0  0  0
  -25.3643   11.0418    3.2974 C   0  0  0  0  0  0  0  0  0  0  0  0
  -24.1694   10.5154    2.7468 C   0  0  0  0  0  0  0  0  0  0  0  0
  -24.0534    9.1482    2.8893 C   0  0  0  0  0  0  0  0  0  0  0  0
  -26.1330   10.0799    3.8443 C   0  0  0  0  0  0  0  0  0  0  0  0
  -25.4308    8.5050    3.7391 S   0  0  0  0  0  0  0  0  0  0  0  0
 21 25  1  0  0  0
 22 25  2  0  0  0
 22 23  1  0  0  0
 25 26  1  0  0  0
 23 24  2  0  0  0
 11 10  2  0  0  0
 11 12  1  0  0  0
 10  9  1  0  0  0
 24 26  1  0  0  0
 24 19  1  0  0  0
 13 12  2  0  0  0
 13 17  1  0  0  0
  9  8  1  0  0  0
 12 14  1  0  0  0
  2  1  1  0  0  0
  2  4  1  0  0  0
  1 19  1  0  0  0
  1  5  1  0  0  0
 19 20  2  0  0  0
  4  3  1  0  0  0
  3  5  1  0  0  0
 17  5  1  0  0  0
 17 16  2  0  0  0
 14  8  1  0  0  0
 14 15  2  0  0  0
  8  7  2  0  0  0
 16 15  1  0  0  0
  4  6  1  0  0  0
  9 18  1  0  0  0
M  END
> <minimizedAffinity>
-8.97181

$$$$
4UJA_4L7_A_1351


 26 29  0  0  0  0  0  0  0  0999 V2000
  -22.3587    7.9480    0.9635 C   0  0  0  0  0  0  0  0  0  0  0  0
  -21.1187    7.0414    1.0979 C   0  0  0  0  0  0  0  0  0  0  0  0
  -22.0722    7.2514    3.2232 C   0  0  0  0  0  0  0  0  0  0  0  0
  -21.1426    6.4425    2.4200 N   0  0  0  0  0  0  0  0  0  0  0  0
  -22.5134    8.4913    2.4198 C   0  0  0  0  0  0  0  0  0  0  0  0
  -20.2102    6.4616    2.8332 H   0  0  0  0  0  0  0  0  0  0  0  0
  -27.7450   11.5056    4.8752 O   0  0  0  0  0  0  0  0  0  0  0  0
  -27.5299   10.3346    4.5766 C   0  0  0  0  0  0  0  0  0  0  0  0
  -28.3831    9.3273    4.9307 N   0  0  0  0  0  0  0  0  0  0  0  0
  -28.1103    8.0159    4.7234 C   0  0  0  0  0  0  0  0  0  0  0  0
  -27.0088    7.5566    4.1766 N   0  0  0  0  0  0  0  0  0  0  0  0
  -26.0748    8.5175    3.7599 C   0  0  0  0  0  0  0  0  0  0  0  0
  -24.8739    8.0710    3.2029 C   0  0  0  0  0  0  0  0  0  0  0  0
  -26.2969    9.8905    3.9166 C   0  0  0  0  0  0  0  0  0  0  0  0
  -25.3349   10.8027    3.4811 C   0  0  0  0  0  0  0  0  0  0  0  0
  -24.1449   10.3427    2.9480 C   0  0  0  0  0  0  0  0  0  0  0  0
  -23.8906    8.9811    2.8210 C   0  0  0  0  0  0  0  0  0  0  0  0
  -29.2378    9.5660    5.3573 H   0  0  0  0  0  0  0  0  0  0  0  0
  -22.1628    9.0210   -0.0913 C   0  0  0  0  0  0  0  0  0  0  0  0
  -22.7395   10.0908   -0.0064 O   0  0  0  0  0  0  0  0  0  0  0  0
  -17.9916    9.3944   -3.9368 Br  0  0  0  0  0  0  0  0  0  0  0  0
  -20.2478    7.7963   -3.0949 C   0  0  0  0  0  0  0  0  0  0  0  0
  -21.2944    7.7234   -2.1424 C   0  0  0  0  0  0  0  0  0  0  0  0
  -21.2506    8.7286   -1.1986 C   0  0  0  0  0  0  0  0  0  0  0  0
  -19.4317    8.8438   -2.8669 C   0  0  0  0  0  0  0  0  0  0  0  0
  -19.8803    9.7667   -1.4771 S   0  0  0  0  0  0  0  0  0  0  0  0
 21 25  1  0  0  0
 22 25  2  0  0  0
 22 23  1  0  0  0
 25 26  1  0  0  0
 23 24  2  0  0  0
 11 10  2  0  0  0
 11 12  1  0  0  0
 10  9  1  0  0  0
 24 26  1  0  0  0
 24 19  1  0  0  0
 13 12  2  0  0  0
 13 17  1  0  0  0
  9  8  1  0  0  0
 12 14  1  0  0  0
  2  1  1  0  0  0
  2  4  1  0  0  0
  1 19  1  0  0  0
  1  5  1  0  0  0
 19 20  2  0  0  0
  4  3  1  0  0  0
  3  5  1  0  0  0
 17  5  1  0  0  0
 17 16  2  0  0  0
 14  8  1  0  0  0
 14 15  2  0  0  0
  8  7  2  0  0  0
 16 15  1  0  0  0
  4  6  1  0  0  0
  9 18  1  0  0  0
M  END
> <minimizedAffinity>
-8.96203

$$$$
4UJA_4L7_A_1351


 26 29  0  0  0  0  0  0  0  0999 V2000
  -25.6691    9.5150    3.2605 C   0  0  0  0  0  0  0  0  0  0  0  0
  -25.7037    8.2166    4.0915 C   0  0  0  0  0  0  0  0  0  0  0  0
  -23.5997    8.3496    3.0787 C   0  0  0  0  0  0  0  0  0  0  0  0
  -24.3525    7.6901    4.1566 N   0  0  0  0  0  0  0  0  0  0  0  0
  -24.5582    9.1905    2.2116 C   0  0  0  0  0  0  0  0  0  0  0  0
  -24.3599    6.6799    4.0152 H   0  0  0  0  0  0  0  0  0  0  0  0
  -22.8361   14.7830   -0.6595 O   0  0  0  0  0  0  0  0  0  0  0  0
  -22.3854   13.6435   -0.7319 C   0  0  0  0  0  0  0  0  0  0  0  0
  -21.4681   13.2853   -1.6797 N   0  0  0  0  0  0  0  0  0  0  0  0
  -21.0475   12.0096   -1.8611 C   0  0  0  0  0  0  0  0  0  0  0  0
  -21.4681   10.9760   -1.1696 N   0  0  0  0  0  0  0  0  0  0  0  0
  -22.4006   11.2448   -0.1559 C   0  0  0  0  0  0  0  0  0  0  0  0
  -22.8996   10.1689    0.5826 C   0  0  0  0  0  0  0  0  0  0  0  0
  -22.8626   12.5393    0.1083 C   0  0  0  0  0  0  0  0  0  0  0  0
  -23.7883   12.7499    1.1310 C   0  0  0  0  0  0  0  0  0  0  0  0
  -24.2844   11.6716    1.8402 C   0  0  0  0  0  0  0  0  0  0  0  0
  -23.8660   10.3739    1.5649 C   0  0  0  0  0  0  0  0  0  0  0  0
  -21.0945   13.9882   -2.2590 H   0  0  0  0  0  0  0  0  0  0  0  0
  -27.0250    9.8392    2.6617 C   0  0  0  0  0  0  0  0  0  0  0  0
  -27.1765    9.8912    1.4540 O   0  0  0  0  0  0  0  0  0  0  0  0
  -32.2410   10.2400    4.8886 Br  0  0  0  0  0  0  0  0  0  0  0  0
  -29.4430   10.7497    5.4027 C   0  0  0  0  0  0  0  0  0  0  0  0
  -28.1497   10.6619    4.8304 C   0  0  0  0  0  0  0  0  0  0  0  0
  -28.1385   10.0714    3.5837 C   0  0  0  0  0  0  0  0  0  0  0  0
  -30.3877   10.2321    4.5936 C   0  0  0  0  0  0  0  0  0  0  0  0
  -29.7482    9.5944    3.1209 S   0  0  0  0  0  0  0  0  0  0  0  0
 21 25  1  0  0  0
 22 25  2  0  0  0
 22 23  1  0  0  0
 25 26  1  0  0  0
 23 24  2  0  0  0
 11 10  2  0  0  0
 11 12  1  0  0  0
 10  9  1  0  0  0
 24 26  1  0  0  0
 24 19  1  0  0  0
 13 12  2  0  0  0
 13 17  1  0  0  0
  9  8  1  0  0  0
 12 14  1  0  0  0
  2  1  1  0  0  0
  2  4  1  0  0  0
  1 19  1  0  0  0
  1  5  1  0  0  0
 19 20  2  0  0  0
  4  3  1  0  0  0
  3  5  1  0  0  0
 17  5  1  0  0  0
 17 16  2  0  0  0
 14  8  1  0  0  0
 14 15  2  0  0  0
  8  7  2  0  0  0
 16 15  1  0  0  0
  4  6  1  0  0  0
  9 18  1  0  0  0
M  END
> <minimizedAffinity>
-8.95472

$$$$
