4N9C_2ZM_A_601


 13 14  0  0  0  0  0  0  0  0999 V2000
   10.3902    7.8203   39.6522 C   0  0  0  0  0  0  0  0  0  0  0  0
    9.1951    7.1875   39.3592 C   0  0  0  0  0  0  0  0  0  0  0  0
    8.8053    6.0714   40.0612 C   0  0  0  0  0  0  0  0  0  0  0  0
    9.6146    5.5732   41.0720 C   0  0  0  0  0  0  0  0  0  0  0  0
    9.5164    4.5013   41.9461 N   0  0  0  0  0  0  0  0  0  0  0  0
   10.6306    4.5165   42.7288 C   0  0  0  0  0  0  0  0  0  0  0  0
   11.3980    5.5138   42.3984 N   0  0  0  0  0  0  0  0  0  0  0  0
   10.8292    6.2127   41.3766 C   0  0  0  0  0  0  0  0  0  0  0  0
   11.2095    7.3446   40.6512 C   0  0  0  0  0  0  0  0  0  0  0  0
    8.7789    3.8508   41.9922 H   0  0  0  0  0  0  0  0  0  0  0  0
   11.6254    9.7846   39.3374 O   0  0  0  0  0  0  0  0  0  0  0  0
   10.7992    9.0148   38.8780 N   0  0  0  0  0  0  0  0  0  0  0  0
   10.3288    9.2141   37.7739 O   0  0  0  0  0  0  0  0  0  0  0  0
  6  5  1  0  0  0
  6  7  2  0  0  0
  5  4  1  0  0  0
  7  8  1  0  0  0
  4  8  2  0  0  0
  4  3  1  0  0  0
  8  9  1  0  0  0
  3  2  2  0  0  0
  9  1  2  0  0  0
  2  1  1  0  0  0
  1 12  1  0  0  0
 12 13  2  0  0  0
 12 11  1  0  0  0
  5 10  1  0  0  0
M  CHG 1  11  -1
M  CHG 1  12   1
M  END
> <minimizedAffinity>
-6.29655

$$$$
4N9C_2ZM_A_601


 13 14  0  0  0  0  0  0  0  0999 V2000
    9.5806    7.0113   39.9700 C   0  0  0  0  0  0  0  0  0  0  0  0
   10.7354    7.5729   40.4854 C   0  0  0  0  0  0  0  0  0  0  0  0
   11.4570    6.9191   41.4561 C   0  0  0  0  0  0  0  0  0  0  0  0
   11.0265    5.6864   41.9247 C   0  0  0  0  0  0  0  0  0  0  0  0
   11.5091    4.7904   42.8665 N   0  0  0  0  0  0  0  0  0  0  0  0
   10.6519    3.7326   42.8925 C   0  0  0  0  0  0  0  0  0  0  0  0
    9.6862    3.9161   42.0402 N   0  0  0  0  0  0  0  0  0  0  0  0
    9.8551    5.1088   41.4038 C   0  0  0  0  0  0  0  0  0  0  0  0
    9.1340    5.7889   40.4191 C   0  0  0  0  0  0  0  0  0  0  0  0
   12.3200    4.8987   43.4141 H   0  0  0  0  0  0  0  0  0  0  0  0
    7.5913    7.7109   38.9518 O   0  0  0  0  0  0  0  0  0  0  0  0
    8.8101    7.7352   38.9328 N   0  0  0  0  0  0  0  0  0  0  0  0
    9.3932    8.3734   38.0769 O   0  0  0  0  0  0  0  0  0  0  0  0
  6  5  1  0  0  0
  6  7  2  0  0  0
  5  4  1  0  0  0
  7  8  1  0  0  0
  4  8  2  0  0  0
  4  3  1  0  0  0
  8  9  1  0  0  0
  3  2  2  0  0  0
  9  1  2  0  0  0
  2  1  1  0  0  0
  1 12  1  0  0  0
 12 13  2  0  0  0
 12 11  1  0  0  0
  5 10  1  0  0  0
M  CHG 1  11  -1
M  CHG 1  12   1
M  END
> <minimizedAffinity>
-6.27533

$$$$
4N9C_2ZM_A_601


 13 14  0  0  0  0  0  0  0  0999 V2000
   10.5861    6.2829   41.3352 C   0  0  0  0  0  0  0  0  0  0  0  0
    9.3849    5.8001   40.8468 C   0  0  0  0  0  0  0  0  0  0  0  0
    8.7898    6.3846   39.7538 C   0  0  0  0  0  0  0  0  0  0  0  0
    9.3960    7.4674   39.1335 C   0  0  0  0  0  0  0  0  0  0  0  0
    9.0714    8.2604   38.0433 N   0  0  0  0  0  0  0  0  0  0  0  0
   10.0658    9.1803   37.9040 C   0  0  0  0  0  0  0  0  0  0  0  0
   10.9689    9.0082   38.8244 N   0  0  0  0  0  0  0  0  0  0  0  0
   10.6178    7.9617   39.6231 C   0  0  0  0  0  0  0  0  0  0  0  0
   11.2067    7.3559   40.7358 C   0  0  0  0  0  0  0  0  0  0  0  0
    8.2714    8.1744   37.4760 H   0  0  0  0  0  0  0  0  0  0  0  0
   10.7571    4.6018   42.9563 O   0  0  0  0  0  0  0  0  0  0  0  0
   11.2070    5.6476   42.5202 N   0  0  0  0  0  0  0  0  0  0  0  0
   12.1803    6.1569   43.0431 O   0  0  0  0  0  0  0  0  0  0  0  0
  6  5  1  0  0  0
  6  7  2  0  0  0
  5  4  1  0  0  0
  7  8  1  0  0  0
  4  8  2  0  0  0
  4  3  1  0  0  0
  8  9  1  0  0  0
  3  2  2  0  0  0
  9  1  2  0  0  0
  2  1  1  0  0  0
  1 12  1  0  0  0
 12 13  2  0  0  0
 12 11  1  0  0  0
  5 10  1  0  0  0
M  CHG 1  11  -1
M  CHG 1  12   1
M  END
> <minimizedAffinity>
-6.19738

$$$$
4N9C_2ZM_A_601


 13 14  0  0  0  0  0  0  0  0999 V2000
   10.8622    6.6216   40.9467 C   0  0  0  0  0  0  0  0  0  0  0  0
   11.5646    6.9849   42.0822 C   0  0  0  0  0  0  0  0  0  0  0  0
   11.8470    6.0560   43.0558 C   0  0  0  0  0  0  0  0  0  0  0  0
   11.4257    4.7432   42.9015 C   0  0  0  0  0  0  0  0  0  0  0  0
   11.5447    3.5954   43.6702 N   0  0  0  0  0  0  0  0  0  0  0  0
   10.9259    2.5900   42.9914 C   0  0  0  0  0  0  0  0  0  0  0  0
   10.4402    3.0375   41.8705 N   0  0  0  0  0  0  0  0  0  0  0  0
   10.7135    4.3667   41.7491 C   0  0  0  0  0  0  0  0  0  0  0  0
   10.4343    5.3248   40.7713 C   0  0  0  0  0  0  0  0  0  0  0  0
   11.9929    3.5211   44.5436 H   0  0  0  0  0  0  0  0  0  0  0  0
    9.5458    7.5379   39.2406 O   0  0  0  0  0  0  0  0  0  0  0  0
   10.5574    7.6381   39.9137 N   0  0  0  0  0  0  0  0  0  0  0  0
   11.3038    8.5854   39.7540 O   0  0  0  0  0  0  0  0  0  0  0  0
  6  5  1  0  0  0
  6  7  2  0  0  0
  5  4  1  0  0  0
  7  8  1  0  0  0
  4  8  2  0  0  0
  4  3  1  0  0  0
  8  9  1  0  0  0
  3  2  2  0  0  0
  9  1  2  0  0  0
  2  1  1  0  0  0
  1 12  1  0  0  0
 12 13  2  0  0  0
 12 11  1  0  0  0
  5 10  1  0  0  0
M  CHG 1  11  -1
M  CHG 1  12   1
M  END
> <minimizedAffinity>
-6.13049

$$$$
4N9C_2ZM_A_601


 13 14  0  0  0  0  0  0  0  0999 V2000
   10.6523    4.9629   42.2368 C   0  0  0  0  0  0  0  0  0  0  0  0
   11.5732    5.9905   42.3392 C   0  0  0  0  0  0  0  0  0  0  0  0
   11.5090    7.0727   41.4935 C   0  0  0  0  0  0  0  0  0  0  0  0
   10.5143    7.1378   40.5286 C   0  0  0  0  0  0  0  0  0  0  0  0
   10.1780    8.0616   39.5508 N   0  0  0  0  0  0  0  0  0  0  0  0
    9.0843    7.5783   38.8991 C   0  0  0  0  0  0  0  0  0  0  0  0
    8.7301    6.4330   39.4045 N   0  0  0  0  0  0  0  0  0  0  0  0
    9.5739    6.0982   40.4205 C   0  0  0  0  0  0  0  0  0  0  0  0
    9.6559    5.0056   41.2875 C   0  0  0  0  0  0  0  0  0  0  0  0
   10.6430    8.9087   39.3628 H   0  0  0  0  0  0  0  0  0  0  0  0
   11.3618    2.8058   42.8084 O   0  0  0  0  0  0  0  0  0  0  0  0
   10.7435    3.7997   43.1490 N   0  0  0  0  0  0  0  0  0  0  0  0
   10.2220    3.8461   44.2472 O   0  0  0  0  0  0  0  0  0  0  0  0
  6  5  1  0  0  0
  6  7  2  0  0  0
  5  4  1  0  0  0
  7  8  1  0  0  0
  4  8  2  0  0  0
  4  3  1  0  0  0
  8  9  1  0  0  0
  3  2  2  0  0  0
  9  1  2  0  0  0
  2  1  1  0  0  0
  1 12  1  0  0  0
 12 13  2  0  0  0
 12 11  1  0  0  0
  5 10  1  0  0  0
M  CHG 1  11  -1
M  CHG 1  12   1
M  END
> <minimizedAffinity>
-5.71099

$$$$
4N9C_2ZM_A_601


 13 14  0  0  0  0  0  0  0  0999 V2000
    9.9964    5.0770   41.8405 C   0  0  0  0  0  0  0  0  0  0  0  0
   11.1093    5.8831   42.0029 C   0  0  0  0  0  0  0  0  0  0  0  0
   11.3095    6.9703   41.1854 C   0  0  0  0  0  0  0  0  0  0  0  0
   10.3903    7.2641   40.1887 C   0  0  0  0  0  0  0  0  0  0  0  0
   10.2964    8.2571   39.2255 N   0  0  0  0  0  0  0  0  0  0  0  0
    9.1519    8.0302   38.5233 C   0  0  0  0  0  0  0  0  0  0  0  0
    8.5434    6.9769   38.9846 N   0  0  0  0  0  0  0  0  0  0  0  0
    9.2560    6.4506   40.0197 C   0  0  0  0  0  0  0  0  0  0  0  0
    9.0703    5.3491   40.8588 C   0  0  0  0  0  0  0  0  0  0  0  0
   10.9374    8.9894   39.0770 H   0  0  0  0  0  0  0  0  0  0  0  0
    8.7525    3.2856   42.6930 O   0  0  0  0  0  0  0  0  0  0  0  0
    9.8029    3.9037   42.7232 N   0  0  0  0  0  0  0  0  0  0  0  0
   10.7009    3.5426   43.4603 O   0  0  0  0  0  0  0  0  0  0  0  0
  6  5  1  0  0  0
  6  7  2  0  0  0
  5  4  1  0  0  0
  7  8  1  0  0  0
  4  8  2  0  0  0
  4  3  1  0  0  0
  8  9  1  0  0  0
  3  2  2  0  0  0
  9  1  2  0  0  0
  2  1  1  0  0  0
  1 12  1  0  0  0
 12 13  2  0  0  0
 12 11  1  0  0  0
  5 10  1  0  0  0
M  CHG 1  11  -1
M  CHG 1  12   1
M  END
> <minimizedAffinity>
-5.70951

$$$$
4N9C_2ZM_A_601


 13 14  0  0  0  0  0  0  0  0999 V2000
   11.3729    4.1638   43.0087 C   0  0  0  0  0  0  0  0  0  0  0  0
   12.0480    5.3184   43.3636 C   0  0  0  0  0  0  0  0  0  0  0  0
   11.8581    6.4833   42.6584 C   0  0  0  0  0  0  0  0  0  0  0  0
   10.9834    6.5046   41.5818 C   0  0  0  0  0  0  0  0  0  0  0  0
   10.5756    7.4847   40.6897 N   0  0  0  0  0  0  0  0  0  0  0  0
    9.6819    6.9084   39.8391 C   0  0  0  0  0  0  0  0  0  0  0  0
    9.5151    5.6549   40.1446 N   0  0  0  0  0  0  0  0  0  0  0  0
   10.2924    5.3357   41.2171 C   0  0  0  0  0  0  0  0  0  0  0  0
   10.4994    4.1609   41.9444 C   0  0  0  0  0  0  0  0  0  0  0  0
   10.8760    8.4221   40.6743 H   0  0  0  0  0  0  0  0  0  0  0  0
   10.9008    1.9380   43.5620 O   0  0  0  0  0  0  0  0  0  0  0  0
   11.5983    2.9154   43.7729 N   0  0  0  0  0  0  0  0  0  0  0  0
   12.4948    2.8583   44.5932 O   0  0  0  0  0  0  0  0  0  0  0  0
  6  5  1  0  0  0
  6  7  2  0  0  0
  5  4  1  0  0  0
  7  8  1  0  0  0
  4  8  2  0  0  0
  4  3  1  0  0  0
  8  9  1  0  0  0
  3  2  2  0  0  0
  9  1  2  0  0  0
  2  1  1  0  0  0
  1 12  1  0  0  0
 12 13  2  0  0  0
 12 11  1  0  0  0
  5 10  1  0  0  0
M  CHG 1  11  -1
M  CHG 1  12   1
M  END
> <minimizedAffinity>
-5.67555

$$$$
4N9C_2ZM_A_601


 13 14  0  0  0  0  0  0  0  0999 V2000
   10.9667    4.9939   42.6211 C   0  0  0  0  0  0  0  0  0  0  0  0
    9.8058    4.2684   42.4194 C   0  0  0  0  0  0  0  0  0  0  0  0
    8.9125    4.6376   41.4417 C   0  0  0  0  0  0  0  0  0  0  0  0
    9.1741    5.7459   40.6493 C   0  0  0  0  0  0  0  0  0  0  0  0
    8.5028    6.3663   39.6067 N   0  0  0  0  0  0  0  0  0  0  0  0
    9.2616    7.4264   39.2132 C   0  0  0  0  0  0  0  0  0  0  0  0
   10.3412    7.4986   39.9355 N   0  0  0  0  0  0  0  0  0  0  0  0
   10.3529    6.4863   40.8473 C   0  0  0  0  0  0  0  0  0  0  0  0
   11.2481    6.0970   41.8469 C   0  0  0  0  0  0  0  0  0  0  0  0
    7.6390    6.0916   39.2225 H   0  0  0  0  0  0  0  0  0  0  0  0
   11.5520    3.8157   44.5583 O   0  0  0  0  0  0  0  0  0  0  0  0
   11.9121    4.5880   43.6864 N   0  0  0  0  0  0  0  0  0  0  0  0
   13.0544    5.0062   43.6772 O   0  0  0  0  0  0  0  0  0  0  0  0
  6  5  1  0  0  0
  6  7  2  0  0  0
  5  4  1  0  0  0
  7  8  1  0  0  0
  4  8  2  0  0  0
  4  3  1  0  0  0
  8  9  1  0  0  0
  3  2  2  0  0  0
  9  1  2  0  0  0
  2  1  1  0  0  0
  1 12  1  0  0  0
 12 13  2  0  0  0
 12 11  1  0  0  0
  5 10  1  0  0  0
M  CHG 1  11  -1
M  CHG 1  12   1
M  END
> <minimizedAffinity>
-5.54315

$$$$
4N9C_2ZM_A_601


 13 14  0  0  0  0  0  0  0  0999 V2000
   10.8681    5.9993   41.7372 C   0  0  0  0  0  0  0  0  0  0  0  0
    9.9914    4.9393   41.5876 C   0  0  0  0  0  0  0  0  0  0  0  0
   10.1135    3.8161   42.3711 C   0  0  0  0  0  0  0  0  0  0  0  0
   11.1228    3.7417   43.3200 C   0  0  0  0  0  0  0  0  0  0  0  0
   11.5086    2.7832   44.2447 N   0  0  0  0  0  0  0  0  0  0  0  0
   12.5843    3.2806   44.9155 C   0  0  0  0  0  0  0  0  0  0  0  0
   12.8820    4.4662   44.4705 N   0  0  0  0  0  0  0  0  0  0  0  0
   12.0158    4.8161   43.4789 C   0  0  0  0  0  0  0  0  0  0  0  0
   11.8772    5.9486   42.6725 C   0  0  0  0  0  0  0  0  0  0  0  0
   11.0842    1.9067   44.3892 H   0  0  0  0  0  0  0  0  0  0  0  0
   11.7219    7.7833   40.4835 O   0  0  0  0  0  0  0  0  0  0  0  0
   10.7282    7.1967   40.8768 N   0  0  0  0  0  0  0  0  0  0  0  0
    9.6228    7.5798   40.5432 O   0  0  0  0  0  0  0  0  0  0  0  0
  6  5  1  0  0  0
  6  7  2  0  0  0
  5  4  1  0  0  0
  7  8  1  0  0  0
  4  8  2  0  0  0
  4  3  1  0  0  0
  8  9  1  0  0  0
  3  2  2  0  0  0
  9  1  2  0  0  0
  2  1  1  0  0  0
  1 12  1  0  0  0
 12 13  2  0  0  0
 12 11  1  0  0  0
  5 10  1  0  0  0
M  CHG 1  11  -1
M  CHG 1  12   1
M  END
> <minimizedAffinity>
-5.42610

$$$$
4N9C_2ZM_A_601


 13 14  0  0  0  0  0  0  0  0999 V2000
   11.1252    3.0232   43.4235 C   0  0  0  0  0  0  0  0  0  0  0  0
   11.9050    4.0973   43.0326 C   0  0  0  0  0  0  0  0  0  0  0  0
   12.8783    4.5941   43.8670 C   0  0  0  0  0  0  0  0  0  0  0  0
   13.0827    4.0161   45.1115 C   0  0  0  0  0  0  0  0  0  0  0  0
   13.9554    4.2662   46.1596 N   0  0  0  0  0  0  0  0  0  0  0  0
   13.6864    3.3539   47.1342 C   0  0  0  0  0  0  0  0  0  0  0  0
   12.7184    2.5693   46.7601 N   0  0  0  0  0  0  0  0  0  0  0  0
   12.2954    2.9229   45.5142 C   0  0  0  0  0  0  0  0  0  0  0  0
   11.3100    2.4329   44.6535 C   0  0  0  0  0  0  0  0  0  0  0  0
   14.6414    4.9715   46.1929 H   0  0  0  0  0  0  0  0  0  0  0  0
    9.0943    3.1911   42.2699 O   0  0  0  0  0  0  0  0  0  0  0  0
   10.0740    2.5085   42.5160 N   0  0  0  0  0  0  0  0  0  0  0  0
   10.2003    1.4152   41.9976 O   0  0  0  0  0  0  0  0  0  0  0  0
  6  5  1  0  0  0
  6  7  2  0  0  0
  5  4  1  0  0  0
  7  8  1  0  0  0
  4  8  2  0  0  0
  4  3  1  0  0  0
  8  9  1  0  0  0
  3  2  2  0  0  0
  9  1  2  0  0  0
  2  1  1  0  0  0
  1 12  1  0  0  0
 12 13  2  0  0  0
 12 11  1  0  0  0
  5 10  1  0  0  0
M  CHG 1  11  -1
M  CHG 1  12   1
M  END
> <minimizedAffinity>
-5.41658

$$$$
