3S0B_FNA_A_120


 18 20  0  0  0  0  0  0  0  0999 V2000
  -10.0498   -9.1007   10.5472 C   0  0  0  0  0  0  0  0  0  0  0  0
  -10.7868  -10.0776   11.1636 C   0  0  0  0  0  0  0  0  0  0  0  0
   -8.9952   -8.3634   11.3258 C   0  0  0  0  0  0  0  0  0  0  0  0
  -10.6688  -10.4145   12.6313 C   0  0  0  0  0  0  0  0  0  0  0  0
   -9.1204   -8.4102   12.7756 C   0  0  0  0  0  0  0  0  0  0  0  0
   -9.6481   -9.6106   13.3733 C   0  0  0  0  0  0  0  0  0  0  0  0
  -11.8952  -10.5728    9.1036 C   0  0  0  0  0  0  0  0  0  0  0  0
  -11.7368  -10.8280   10.4002 C   0  0  0  0  0  0  0  0  0  0  0  0
  -10.1866   -8.8873    9.1820 C   0  0  0  0  0  0  0  0  0  0  0  0
  -11.0918   -9.6043    8.4641 C   0  0  0  0  0  0  0  0  0  0  0  0
   -8.4745   -7.1364   10.7415 N   0  0  0  0  0  0  0  0  0  0  0  0
   -9.0460   -6.7090   10.0633 H   0  0  0  0  0  0  0  0  0  0  0  0
   -5.7876   -4.5655   11.2098 C   0  0  0  0  0  0  0  0  0  0  0  0
   -7.0401   -5.1148   10.8865 C   0  0  0  0  0  0  0  0  0  0  0  0
   -4.7351   -5.4350   11.6808 C   0  0  0  0  0  0  0  0  0  0  0  0
   -7.2265   -6.4632   11.0275 C   0  0  0  0  0  0  0  0  0  0  0  0
   -4.9431   -6.7351   11.7976 C   0  0  0  0  0  0  0  0  0  0  0  0
   -6.2268   -7.2990   11.4687 C   0  0  0  0  0  0  0  0  0  0  0  0
 13 15  1  0  0  0
 11 16  1  0  0  0
 14 13  2  0  0  0
 16 18  2  0  0  0
 16 14  1  0  0  0
 17 15  2  0  0  0
 18 17  1  0  0  0
  1  9  1  0  0  0
  2  1  2  0  0  0
  2  8  1  0  0  0
  3 11  1  0  0  0
  3  1  1  0  0  0
  4  2  1  0  0  0
  5  3  2  0  0  0
  6  5  1  0  0  0
  6  4  2  0  0  0
  7 10  1  0  0  0
  8  7  2  0  0  0
  9 10  2  0  0  0
 11 12  1  0  0  0
M  END
> <minimizedAffinity>
-10.05310

$$$$
3S0B_FNA_A_120


 18 20  0  0  0  0  0  0  0  0999 V2000
   -9.8289   -8.1786   11.1708 C   0  0  0  0  0  0  0  0  0  0  0  0
  -10.3507   -9.3603   10.7140 C   0  0  0  0  0  0  0  0  0  0  0  0
   -9.4921   -7.0877   10.1917 C   0  0  0  0  0  0  0  0  0  0  0  0
  -10.5357   -9.6832    9.2501 C   0  0  0  0  0  0  0  0  0  0  0  0
   -9.3181   -7.5023    8.8069 C   0  0  0  0  0  0  0  0  0  0  0  0
  -10.1291   -8.5876    8.3159 C   0  0  0  0  0  0  0  0  0  0  0  0
  -10.5929  -10.1471   12.9590 C   0  0  0  0  0  0  0  0  0  0  0  0
  -10.7396  -10.3667   11.6544 C   0  0  0  0  0  0  0  0  0  0  0  0
   -9.7368   -7.9438   12.5362 C   0  0  0  0  0  0  0  0  0  0  0  0
  -10.1081   -8.9054   13.4230 C   0  0  0  0  0  0  0  0  0  0  0  0
   -8.6526   -6.0002   10.6719 N   0  0  0  0  0  0  0  0  0  0  0  0
   -9.0936   -5.1241   10.7562 H   0  0  0  0  0  0  0  0  0  0  0  0
   -5.2101   -7.1128   11.6515 C   0  0  0  0  0  0  0  0  0  0  0  0
   -6.5731   -7.1930   11.3187 C   0  0  0  0  0  0  0  0  0  0  0  0
   -4.5675   -5.8202   11.6914 C   0  0  0  0  0  0  0  0  0  0  0  0
   -7.2545   -6.0391   11.0414 C   0  0  0  0  0  0  0  0  0  0  0  0
   -5.2549   -4.7225   11.4275 C   0  0  0  0  0  0  0  0  0  0  0  0
   -6.6513   -4.8035   11.0843 C   0  0  0  0  0  0  0  0  0  0  0  0
 13 15  1  0  0  0
 11 16  1  0  0  0
 14 13  2  0  0  0
 16 18  2  0  0  0
 16 14  1  0  0  0
 17 15  2  0  0  0
 18 17  1  0  0  0
  1  9  1  0  0  0
  2  1  2  0  0  0
  2  8  1  0  0  0
  3 11  1  0  0  0
  3  1  1  0  0  0
  4  2  1  0  0  0
  5  3  2  0  0  0
  6  5  1  0  0  0
  6  4  2  0  0  0
  7 10  1  0  0  0
  8  7  2  0  0  0
  9 10  2  0  0  0
 11 12  1  0  0  0
M  END
> <minimizedAffinity>
-9.24001

$$$$
3S0B_FNA_A_120


 18 20  0  0  0  0  0  0  0  0999 V2000
   -9.7973   -8.0678   11.1910 C   0  0  0  0  0  0  0  0  0  0  0  0
  -10.2790   -9.2549   10.7048 C   0  0  0  0  0  0  0  0  0  0  0  0
   -9.4652   -6.9543   10.2362 C   0  0  0  0  0  0  0  0  0  0  0  0
  -10.4223   -9.5597    9.2324 C   0  0  0  0  0  0  0  0  0  0  0  0
   -9.2492   -7.3432    8.8499 C   0  0  0  0  0  0  0  0  0  0  0  0
  -10.0216   -8.4403    8.3241 C   0  0  0  0  0  0  0  0  0  0  0  0
  -10.5533  -10.0816   12.9317 C   0  0  0  0  0  0  0  0  0  0  0  0
  -10.6644  -10.2847   11.6210 C   0  0  0  0  0  0  0  0  0  0  0  0
   -9.7425   -7.8518   12.5615 C   0  0  0  0  0  0  0  0  0  0  0  0
  -10.1102   -8.8356   13.4251 C   0  0  0  0  0  0  0  0  0  0  0  0
   -8.6642   -5.8541   10.7518 N   0  0  0  0  0  0  0  0  0  0  0  0
   -9.1469   -5.0110   10.9114 H   0  0  0  0  0  0  0  0  0  0  0  0
   -5.1292   -4.8012   11.4180 C   0  0  0  0  0  0  0  0  0  0  0  0
   -6.4917   -4.6998   11.0891 C   0  0  0  0  0  0  0  0  0  0  0  0
   -4.5690   -6.0984   11.7161 C   0  0  0  0  0  0  0  0  0  0  0  0
   -7.2509   -5.8380   11.0604 C   0  0  0  0  0  0  0  0  0  0  0  0
   -5.3261   -7.1809   11.6709 C   0  0  0  0  0  0  0  0  0  0  0  0
   -6.7231   -7.0782   11.3361 C   0  0  0  0  0  0  0  0  0  0  0  0
 13 15  1  0  0  0
 11 16  1  0  0  0
 14 13  2  0  0  0
 16 18  2  0  0  0
 16 14  1  0  0  0
 17 15  2  0  0  0
 18 17  1  0  0  0
  1  9  1  0  0  0
  2  1  2  0  0  0
  2  8  1  0  0  0
  3 11  1  0  0  0
  3  1  1  0  0  0
  4  2  1  0  0  0
  5  3  2  0  0  0
  6  5  1  0  0  0
  6  4  2  0  0  0
  7 10  1  0  0  0
  8  7  2  0  0  0
  9 10  2  0  0  0
 11 12  1  0  0  0
M  END
> <minimizedAffinity>
-8.93208

$$$$
3S0B_FNA_A_120


 18 20  0  0  0  0  0  0  0  0999 V2000
   -7.0275   -6.5959   11.0733 C   0  0  0  0  0  0  0  0  0  0  0  0
   -6.8706   -5.2953   10.6717 C   0  0  0  0  0  0  0  0  0  0  0  0
   -8.2534   -7.3598   10.6541 C   0  0  0  0  0  0  0  0  0  0  0  0
   -7.9109   -4.5299    9.8885 C   0  0  0  0  0  0  0  0  0  0  0  0
   -9.3943   -6.5584   10.2345 C   0  0  0  0  0  0  0  0  0  0  0  0
   -9.1370   -5.3172    9.5491 C   0  0  0  0  0  0  0  0  0  0  0  0
   -4.7168   -5.2119   11.7068 C   0  0  0  0  0  0  0  0  0  0  0  0
   -5.6685   -4.5959   11.0095 C   0  0  0  0  0  0  0  0  0  0  0  0
   -6.0007   -7.2407   11.7498 C   0  0  0  0  0  0  0  0  0  0  0  0
   -4.8620   -6.5688   12.0672 C   0  0  0  0  0  0  0  0  0  0  0  0
   -8.5349   -8.6020   11.3581 N   0  0  0  0  0  0  0  0  0  0  0  0
   -7.8477   -8.8963   11.9987 H   0  0  0  0  0  0  0  0  0  0  0  0
  -11.4693  -10.8208   12.0757 C   0  0  0  0  0  0  0  0  0  0  0  0
  -10.3426  -10.0139   12.3091 C   0  0  0  0  0  0  0  0  0  0  0  0
  -11.9102  -11.0430   10.7185 C   0  0  0  0  0  0  0  0  0  0  0  0
   -9.6931   -9.4605   11.2392 C   0  0  0  0  0  0  0  0  0  0  0  0
  -11.2561  -10.5021    9.7052 C   0  0  0  0  0  0  0  0  0  0  0  0
  -10.1026   -9.6733    9.9431 C   0  0  0  0  0  0  0  0  0  0  0  0
 13 15  1  0  0  0
 11 16  1  0  0  0
 14 13  2  0  0  0
 16 18  2  0  0  0
 16 14  1  0  0  0
 17 15  2  0  0  0
 18 17  1  0  0  0
  1  9  1  0  0  0
  2  1  2  0  0  0
  2  8  1  0  0  0
  3 11  1  0  0  0
  3  1  1  0  0  0
  4  2  1  0  0  0
  5  3  2  0  0  0
  6  5  1  0  0  0
  6  4  2  0  0  0
  7 10  1  0  0  0
  8  7  2  0  0  0
  9 10  2  0  0  0
 11 12  1  0  0  0
M  END
> <minimizedAffinity>
-7.87815

$$$$
3S0B_FNA_A_120


 18 20  0  0  0  0  0  0  0  0999 V2000
   -9.9886   -9.4142   10.6470 C   0  0  0  0  0  0  0  0  0  0  0  0
  -10.8310  -10.2581   11.3220 C   0  0  0  0  0  0  0  0  0  0  0  0
   -8.8328   -8.7819   11.3724 C   0  0  0  0  0  0  0  0  0  0  0  0
  -10.7264  -10.5371   12.8027 C   0  0  0  0  0  0  0  0  0  0  0  0
   -8.9328   -8.7432   12.8245 C   0  0  0  0  0  0  0  0  0  0  0  0
   -9.5965   -9.8363   13.4888 C   0  0  0  0  0  0  0  0  0  0  0  0
  -12.0359  -10.7047    9.3054 C   0  0  0  0  0  0  0  0  0  0  0  0
  -11.8844  -10.9161   10.6108 C   0  0  0  0  0  0  0  0  0  0  0  0
  -10.1254   -9.2503    9.2750 C   0  0  0  0  0  0  0  0  0  0  0  0
  -11.1292   -9.8788    8.6069 C   0  0  0  0  0  0  0  0  0  0  0  0
   -8.1724   -7.6610   10.7202 N   0  0  0  0  0  0  0  0  0  0  0  0
   -7.2107   -7.7747   10.5431 H   0  0  0  0  0  0  0  0  0  0  0  0
   -9.6377   -4.2121   10.6376 C   0  0  0  0  0  0  0  0  0  0  0  0
   -9.1047   -5.4022   11.1614 C   0  0  0  0  0  0  0  0  0  0  0  0
   -9.7909   -4.0757    9.2081 C   0  0  0  0  0  0  0  0  0  0  0  0
   -8.7453   -6.4014   10.2982 C   0  0  0  0  0  0  0  0  0  0  0  0
   -9.4431   -5.0626    8.4004 C   0  0  0  0  0  0  0  0  0  0  0  0
   -8.8948   -6.2819    8.9358 C   0  0  0  0  0  0  0  0  0  0  0  0
 13 15  1  0  0  0
 11 16  1  0  0  0
 14 13  2  0  0  0
 16 18  2  0  0  0
 16 14  1  0  0  0
 17 15  2  0  0  0
 18 17  1  0  0  0
  1  9  1  0  0  0
  2  1  2  0  0  0
  2  8  1  0  0  0
  3 11  1  0  0  0
  3  1  1  0  0  0
  4  2  1  0  0  0
  5  3  2  0  0  0
  6  5  1  0  0  0
  6  4  2  0  0  0
  7 10  1  0  0  0
  8  7  2  0  0  0
  9 10  2  0  0  0
 11 12  1  0  0  0
M  END
> <minimizedAffinity>
-7.66527

$$$$
