3S0B_FNA_A_120
  RCSB PDB12061710393D
Coordinates from PDB:3S0B:A:120 Model:1 without hydrogens
 17 19  0  0  0  0            999 V2000
   -5.4150   -7.2970   11.5030   C 0  0  0  0  0  0  0  0  0  0  0  0
   -8.6620   -6.3100    9.9120   N 0  0  0  0  0  0  0  0  0  0  0  0
   -6.6980   -7.4250   10.9440   C 0  0  0  0  0  0  0  0  0  0  0  0
   -4.8190   -5.9860   11.6110   C 0  0  0  0  0  0  0  0  0  0  0  0
   -7.3480   -6.2990   10.5170   C 0  0  0  0  0  0  0  0  0  0  0  0
   -5.4760   -4.9160   11.1980   C 0  0  0  0  0  0  0  0  0  0  0  0
   -6.7900   -5.0460   10.6230   C 0  0  0  0  0  0  0  0  0  0  0  0
   -9.7590   -8.3120   10.9920   C 0  0  0  0  0  0  0  0  0  0  0  0
  -10.3750   -9.5280   10.8530   C 0  0  0  0  0  0  0  0  0  0  0  0
   -9.5930   -7.4220    9.7910   C 0  0  0  0  0  0  0  0  0  0  0  0
  -10.8340  -10.0870    9.5270   C 0  0  0  0  0  0  0  0  0  0  0  0
   -9.6860   -8.0750    8.4930   C 0  0  0  0  0  0  0  0  0  0  0  0
  -10.5910   -9.1880    8.3560   C 0  0  0  0  0  0  0  0  0  0  0  0
  -10.2080   -9.9070   13.2080   C 0  0  0  0  0  0  0  0  0  0  0  0
  -10.5980  -10.3390   12.0110   C 0  0  0  0  0  0  0  0  0  0  0  0
   -9.4110   -7.8520   12.2550   C 0  0  0  0  0  0  0  0  0  0  0  0
   -9.6260   -8.6290   13.3500   C 0  0  0  0  0  0  0  0  0  0  0  0
  1  4  1  0  0  0  0
  2  5  1  0  0  0  0
  3  1  2  0  0  0  0
  5  7  2  0  0  0  0
  5  3  1  0  0  0  0
  6  4  2  0  0  0  0
  7  6  1  0  0  0  0
  8 16  1  0  0  0  0
  9  8  2  0  0  0  0
  9 15  1  0  0  0  0
 10  2  1  0  0  0  0
 10  8  1  0  0  0  0
 11  9  1  0  0  0  0
 12 10  2  0  0  0  0
 13 12  1  0  0  0  0
 13 11  2  0  0  0  0
 14 17  1  0  0  0  0
 15 14  2  0  0  0  0
 16 17  2  0  0  0  0
A    1
C1
A    2
N1
A    3
C2
A    4
C3
A    5
C4
A    6
C5
A    7
C6
A    8
C7
A    9
C8
A   10
C9
A   11
C10
A   12
C11
A   13
C12
A   14
C13
A   15
C14
A   16
C15
A   17
C16
M  END
>  <InstanceId>
3S0B_FNA_A_120

>  <ChemCompId>
FNA

>  <PdbId>
3S0B

>  <ChainId>
A

>  <ResidueNumber>
120

>  <InsertionCode>


>  <Model>
1

>  <AltIds>


>  <MissingHeavyAtoms>
0

>  <ObservedFormula>
C16 N

>  <Name>
N-phenylnaphthalen-1-amine

>  <SystematicName>
N-phenylnaphthalen-1-amine

>  <Synonyms>


>  <Type>
NON-POLYMER

>  <Formula>
C16 H13 N

>  <MolecularWeight>
219.281

>  <ModifiedDate>
2011-11-25

>  <Parent>


>  <OneLetterCode>


>  <SubcomponentList>


>  <AmbiguousFlag>
N

>  <InChI>
InChI=1S/C16H13N/c1-2-9-14(10-3-1)17-16-12-6-8-13-7-4-5-11-15(13)16/h1-12,17H

>  <InChIKey>
XQVWYOYUZDUNRW-UHFFFAOYSA-N

>  <SMILES>
c1ccc(cc1)Nc2cccc3c2cccc3

$$$$
