1C5P_BAM_A_246
  RCSB PDB12061702083D
Coordinates from PDB:1C5P:A:246 Model:1 without hydrogens
  9  9  0  0  0  0            999 V2000
   45.5430   19.2870   52.9170   C 0  0  0  0  0  0  0  0  0  0  0  0
   45.6420   20.6680   53.1640   C 0  0  0  0  0  0  0  0  0  0  0  0
   45.2920   21.6160   52.2010   C 0  0  0  0  0  0  0  0  0  0  0  0
   44.8250   21.1990   50.9620   C 0  0  0  0  0  0  0  0  0  0  0  0
   44.7100   19.8370   50.6840   C 0  0  0  0  0  0  0  0  0  0  0  0
   45.0610   18.8980   51.6450   C 0  0  0  0  0  0  0  0  0  0  0  0
   45.9020   18.3560   53.8920   C 0  0  0  0  0  0  0  0  0  0  0  0
   46.7420   18.6980   54.8210   N 0  0  0  0  0  0  0  0  0  0  0  0
   45.4030   17.1580   53.8400   N 0  3  0  0  0  0  0  0  0  0  0  0
  1  2  2  0  0  0  0
  1  6  1  0  0  0  0
  1  7  1  0  0  0  0
  2  3  1  0  0  0  0
  3  4  2  0  0  0  0
  4  5  1  0  0  0  0
  5  6  2  0  0  0  0
  7  8  1  0  0  0  0
  7  9  2  0  0  0  0
M  CHG  1   9   1
A    1
C1
A    2
C2
A    3
C3
A    4
C4
A    5
C5
A    6
C6
A    7
C
A    8
N1
A    9
N2
M  END
>  <InstanceId>
1C5P_BAM_A_246

>  <ChemCompId>
BAM

>  <PdbId>
1C5P

>  <ChainId>
A

>  <ResidueNumber>
246

>  <InsertionCode>


>  <Model>
1

>  <AltIds>


>  <MissingHeavyAtoms>
0

>  <ObservedFormula>
C7 N2

>  <Name>
BENZAMIDINE

>  <SystematicName>
(amino-phenyl-methylidene)azanium

>  <Synonyms>


>  <Type>
NON-POLYMER

>  <Formula>
C7 H9 N2

>  <MolecularWeight>
121.16

>  <ModifiedDate>
2011-06-04

>  <Parent>


>  <OneLetterCode>


>  <SubcomponentList>


>  <AmbiguousFlag>
N

>  <InChI>
InChI=1S/C7H8N2/c8-7(9)6-4-2-1-3-5-6/h1-5H,(H3,8,9)/p+1

>  <InChIKey>
PXXJHWLDUBFPOL-UHFFFAOYSA-O

>  <SMILES>
c1ccc(cc1)C(=[NH2+])N

$$$$
