4FNN_STE_B_201
  RCSB PDB12061712343D
Coordinates from PDB:4FNN:B:201 Model:1 without hydrogens
 20 19  0  0  0  0            999 V2000
  -33.8530  -17.8050  -40.6870   C 0  0  0  0  0  0  0  0  0  0  0  0
  -32.7480  -17.3260  -40.4740   O 0  0  0  0  0  0  0  0  0  0  0  0
  -34.8020  -17.1250  -41.0400   O 0  0  0  0  0  0  0  0  0  0  0  0
  -34.0480  -19.2700  -40.5170   C 0  0  0  0  0  0  0  0  0  0  0  0
  -35.4510  -19.6600  -40.9610   C 0  0  0  0  0  0  0  0  0  0  0  0
  -35.4700  -21.1260  -41.3850   C 0  0  0  0  0  0  0  0  0  0  0  0
  -36.8830  -21.6700  -41.4480   C 0  0  0  0  0  0  0  0  0  0  0  0
  -36.9550  -22.8010  -42.4450   C 0  0  0  0  0  0  0  0  0  0  0  0
  -36.6960  -24.1870  -41.8900   C 0  0  0  0  0  0  0  0  0  0  0  0
  -36.0670  -25.0990  -42.9420   C 0  0  0  0  0  0  0  0  0  0  0  0
  -34.9600  -24.3950  -43.6920   C 0  0  0  0  0  0  0  0  0  0  0  0
  -34.7730  -22.9810  -43.1480   C 0  0  0  0  0  0  0  0  0  0  0  0
  -33.2900  -22.6060  -43.0260   C 0  0  0  0  0  0  0  0  0  0  0  0
  -32.4330  -23.7190  -42.4420   C 0  0  0  0  0  0  0  0  0  0  0  0
  -32.2140  -23.5880  -40.9290   C 0  0  0  0  0  0  0  0  0  0  0  0
  -33.4960  -23.6100  -40.0910   C 0  0  0  0  0  0  0  0  0  0  0  0
  -33.5180  -24.8330  -39.1690   C 0  0  0  0  0  0  0  0  0  0  0  0
  -34.9270  -25.2540  -38.7350   C 0  0  0  0  0  0  0  0  0  0  0  0
  -35.0990  -26.7610  -38.6400   C 0  0  0  0  0  0  0  0  0  0  0  0
  -36.4420  -27.2610  -39.1240   C 0  0  0  0  0  0  0  0  0  0  0  0
  1  2  2  0  0  0  0
  1  3  1  0  0  0  0
  1  4  1  0  0  0  0
  4  5  1  0  0  0  0
  5  6  1  0  0  0  0
  6  7  1  0  0  0  0
  7  8  1  0  0  0  0
  8  9  1  0  0  0  0
  9 10  1  0  0  0  0
 10 11  1  0  0  0  0
 11 12  1  0  0  0  0
 12 13  1  0  0  0  0
 13 14  1  0  0  0  0
 14 15  1  0  0  0  0
 15 16  1  0  0  0  0
 16 17  1  0  0  0  0
 17 18  1  0  0  0  0
 18 19  1  0  0  0  0
 19 20  1  0  0  0  0
A    1
C1
A    2
O1
A    3
O2
A    4
C2
A    5
C3
A    6
C4
A    7
C5
A    8
C6
A    9
C7
A   10
C8
A   11
C9
A   12
C10
A   13
C11
A   14
C12
A   15
C13
A   16
C14
A   17
C15
A   18
C16
A   19
C17
A   20
C18
M  END
>  <InstanceId>
4FNN_STE_B_201

>  <ChemCompId>
STE

>  <PdbId>
4FNN

>  <ChainId>
B

>  <ResidueNumber>
201

>  <InsertionCode>


>  <Model>
1

>  <AltIds>


>  <MissingHeavyAtoms>
0

>  <ObservedFormula>
C18 O2

>  <Name>
STEARIC ACID

>  <SystematicName>
octadecanoic acid

>  <Synonyms>


>  <Type>
NON-POLYMER

>  <Formula>
C18 H36 O2

>  <MolecularWeight>
284.477

>  <ModifiedDate>
2011-06-04

>  <Parent>


>  <OneLetterCode>


>  <SubcomponentList>


>  <AmbiguousFlag>
N

>  <InChI>
InChI=1S/C18H36O2/c1-2-3-4-5-6-7-8-9-10-11-12-13-14-15-16-17-18(19)20/h2-17H2,1H3,(H,19,20)

>  <InChIKey>
QIQXTHQIDYTFRH-UHFFFAOYSA-N

>  <SMILES>
CCCCCCCCCCCCCCCCCC(=O)O

$$$$
