4W9C_3JG_C_301
  RCSB PDB12061715553D
Coordinates from PDB:4W9C:C:301 Model:1 without hydrogens
 28 30  0  0  0  0            999 V2000
   13.6520   52.6960   95.7110   C 0  0  0  0  0  0  0  0  0  0  0  0
   13.0840   52.6570   94.2900   C 0  0  0  0  0  0  0  0  0  0  0  0
   11.6390   52.0960   94.3970   C 0  0  0  0  0  0  0  0  0  0  0  0
   13.9430   51.7560   93.3800   C 0  0  0  0  0  0  0  0  0  0  0  0
   13.0760   54.0850   93.7930   C 0  0  0  0  0  0  0  0  0  0  0  0
   12.5740   54.1120   92.3080   C 0  0  0  0  0  0  0  0  0  0  0  0
   11.3700   53.9510   92.0850   O 0  0  0  0  0  0  0  0  0  0  0  0
   13.4740   54.3850   91.3150   N 0  0  0  0  0  0  0  0  0  0  0  0
   14.9390   54.6780   91.3810   C 0  0  0  0  0  0  0  0  0  0  0  0
   15.2070   55.5800   90.1760   C 0  0  0  0  0  0  0  0  0  0  0  0
   14.8570   56.9400   90.4830   O 0  0  0  0  0  0  0  0  0  0  0  0
   14.2860   55.0130   89.1150   C 0  0  0  0  0  0  0  0  0  0  0  0
   13.0250   54.5340   89.8790   C 0  0  0  0  0  0  0  0  0  0  0  0
   12.5530   53.3490   89.2950   C 0  0  0  0  0  0  0  0  0  0  0  0
   13.0450   52.2780   89.6230   O 0  0  0  0  0  0  0  0  0  0  0  0
   11.5950   53.4750   88.3310   N 0  0  0  0  0  0  0  0  0  0  0  0
   11.0660   52.3140   87.5990   C 0  0  0  0  0  0  0  0  0  0  0  0
   11.8410   52.0940   86.4170   C 0  0  0  0  0  0  0  0  0  0  0  0
   11.5780   50.9640   85.6260   C 0  0  0  0  0  0  0  0  0  0  0  0
   12.3200   50.6930   84.4690   C 0  0  0  0  0  0  0  0  0  0  0  0
   12.8780   52.9410   86.0090   C 0  0  0  0  0  0  0  0  0  0  0  0
   13.6170   52.6730   84.8580   C 0  0  0  0  0  0  0  0  0  0  0  0
   13.3470   51.5580   84.0760   C 0  0  0  0  0  0  0  0  0  0  0  0
   14.0830   51.3450   82.9780   C 0  0  0  0  0  0  0  0  0  0  0  0
   15.4220   51.6000   82.8790   O 0  0  0  0  0  0  0  0  0  0  0  0
   15.7930   51.2640   81.6300   C 0  0  0  0  0  0  0  0  0  0  0  0
   14.7070   50.8220   80.9890   N 0  0  0  0  0  0  0  0  0  0  0  0
   13.6510   50.8710   81.8150   C 0  0  0  0  0  0  0  0  0  0  0  0
 27 26  2  0  0  0  0
 27 28  1  0  0  0  0
 26 25  1  0  0  0  0
 28 24  2  0  0  0  0
 25 24  1  0  0  0  0
 24 23  1  0  0  0  0
 23 20  2  0  0  0  0
 23 22  1  0  0  0  0
 20 19  1  0  0  0  0
 22 21  2  0  0  0  0
 19 18  2  0  0  0  0
 21 18  1  0  0  0  0
 18 17  1  0  0  0  0
 17 16  1  0  0  0  0
 16 14  1  0  0  0  0
 12 13  1  0  0  0  0
 12 10  1  0  0  0  0
 14 15  2  0  0  0  0
 14 13  1  0  0  0  0
 13  8  1  0  0  0  0
 10 11  1  0  0  0  0
 10  9  1  0  0  0  0
  8  9  1  0  0  0  0
  8  6  1  0  0  0  0
  7  6  2  0  0  0  0
  6  5  1  0  0  0  0
  4  2  1  0  0  0  0
  5  2  1  0  0  0  0
  2  3  1  0  0  0  0
  2  1  1  0  0  0  0
A    1
CAA
A    2
CBB
A    3
CAB
A    4
CAC
A    5
CAN
A    6
CAT
A    7
OAD
A    8
N
A    9
CD2
A   10
CG
A   11
OD1
A   12
CB
A   13
CA
A   14
C
A   15
O
A   16
NAR
A   17
CAM
A   18
CAV
A   19
CAH
A   20
CAJ
A   21
CAG
A   22
CAI
A   23
CAW
A   24
CAX
A   25
OAS
A   26
CAK
A   27
NAQ
A   28
CAL
M  END
>  <InstanceId>
4W9C_3JG_C_301

>  <ChemCompId>
3JG

>  <PdbId>
4W9C

>  <ChainId>
C

>  <ResidueNumber>
301

>  <InsertionCode>


>  <Model>
1

>  <AltIds>


>  <MissingHeavyAtoms>
0

>  <ObservedFormula>
C21 N3 O4

>  <Name>
(4R)-1-(3,3-dimethylbutanoyl)-4-hydroxy-N-[4-(1,3-oxazol-5-yl)benzyl]-L-prolinamide

>  <SystematicName>
(2S,4R)-1-(3,3-dimethylbutanoyl)-N-[[4-(1,3-oxazol-5-yl)phenyl]methyl]-4-oxidanyl-pyrrolidine-2-carboxamide

>  <Synonyms>


>  <Type>
NON-POLYMER

>  <Formula>
C21 H27 N3 O4

>  <MolecularWeight>
385.457

>  <ModifiedDate>
2014-09-05

>  <Parent>


>  <OneLetterCode>


>  <SubcomponentList>


>  <AmbiguousFlag>
N

>  <InChI>
InChI=1S/C21H27N3O4/c1-21(2,3)9-19(26)24-12-16(25)8-17(24)20(27)23-10-14-4-6-15(7-5-14)18-11-22-13-28-18/h4-7,11,13,16-17,25H,8-10,12H2,1-3H3,(H,23,27)/t16-,17+/m1/s1

>  <InChIKey>
AWAYHHGNFTVEIB-SJORKVTESA-N

>  <SMILES>
CC(C)(C)CC(=O)N1C[C@@H](C[C@H]1C(=O)NCc2ccc(cc2)c3cnco3)O

$$$$
