3AAQ_ARU_A_1
  RCSB PDB12061707503D
Coordinates from PDB:3AAQ:A:1 Model:1 without hydrogens
 37 39  0  0  0  0            999 V2000
   35.3140   25.8890   32.6230   N 0  0  0  0  0  0  0  0  0  0  0  0
   34.0220   25.7170   32.6470   C 0  0  0  0  0  0  0  0  0  0  0  0
   33.1840   26.6220   32.2680   N 0  0  0  0  0  0  0  0  0  0  0  0
   33.6440   27.7830   31.8360   C 0  0  0  0  0  0  0  0  0  0  0  0
   34.9900   28.0300   31.8010   C 0  0  0  0  0  0  0  0  0  0  0  0
   35.8430   27.0340   32.2190   C 0  0  0  0  0  0  0  0  0  0  0  0
   37.1500   27.1810   32.2020   N 0  0  0  0  0  0  0  0  0  0  0  0
   35.1490   29.2470   31.3380   N 0  0  0  0  0  0  0  0  0  0  0  0
   33.9480   29.7430   31.1090   C 0  0  0  0  0  0  0  0  0  0  0  0
   33.0320   28.8490   31.4130   N 0  0  0  0  0  0  0  0  0  0  0  0
   31.6010   28.9560   31.2930   C 0  0  0  0  0  0  0  0  0  0  0  0
   30.9810   30.3220   31.4030   C 0  0  0  0  0  0  0  0  0  0  0  0
   30.8570   30.7030   32.7310   O 0  0  0  0  0  0  0  0  0  0  0  0
   29.6330   30.1110   30.7420   C 0  0  0  0  0  0  0  0  0  0  0  0
   28.6010   29.8920   31.6860   O 0  0  0  0  0  0  0  0  0  0  0  0
   29.8520   28.8270   29.9770   C 0  0  0  0  0  0  0  0  0  0  0  0
   31.2570   28.6560   29.9660   O 0  0  0  0  0  0  0  0  0  0  0  0
   29.2850   29.1790   28.6680   C 0  0  0  0  0  0  0  0  0  0  0  0
   30.2360   29.8450   28.0060   O 0  0  0  0  0  0  0  0  0  0  0  0
   37.7680   28.7510   30.4740   C 0  0  0  0  0  0  0  0  0  0  0  0
   37.7410   28.4930   31.9600   C 0  0  0  0  0  0  0  0  0  0  0  0
   38.0140   26.0220   32.3780   C 0  0  0  0  0  0  0  0  0  0  0  0
   39.3240   26.4220   33.0400   C 0  0  0  0  0  0  0  0  0  0  0  0
   27.4530   35.8250   25.7750   O 0  0  0  0  0  0  0  0  0  0  0  0
   27.7700   33.7750   29.5010  Br 0  0  0  0  0  0  0  0  0  0  0  0
   28.0770   32.8980   25.4370   O 0  0  0  0  0  0  0  0  0  0  0  0
   31.0640   31.5270   26.5360   O 0  0  0  0  0  0  0  0  0  0  0  0
   27.7730   36.8310   27.8070   O 0  0  0  0  0  0  0  0  0  0  0  0
   27.2550   35.7550   27.1390   P 0  0  0  0  0  0  0  0  0  0  0  0
   28.1780   34.2130   27.7110   C 0  0  0  0  0  0  0  0  0  0  0  0
   27.7120   32.6580   26.7770   P 0  0  0  0  0  0  0  0  0  0  0  0
   28.5940   31.6460   27.5230   O 0  0  0  0  0  0  0  0  0  0  0  0
   29.8700   30.8620   26.9250   P 0  0  0  0  0  0  0  0  0  0  0  0
   25.9190   35.4960   27.4740   O 0  0  0  0  0  0  0  0  0  0  0  0
   30.0770   34.6190   27.5150  Br 0  0  0  0  0  0  0  0  0  0  0  0
   26.3620   32.3520   26.9140   O 0  0  0  0  0  0  0  0  0  0  0  0
   29.2110   29.9860   25.8300   O 0  0  0  0  0  0  0  0  0  0  0  0
  1  2  2  0  0  0  0
  1  6  1  0  0  0  0
  2  3  1  0  0  0  0
  3  4  2  0  0  0  0
  4  5  1  0  0  0  0
  4 10  1  0  0  0  0
  5  6  2  0  0  0  0
  5  8  1  0  0  0  0
  6  7  1  0  0  0  0
  7 21  1  0  0  0  0
  7 22  1  0  0  0  0
  8  9  2  0  0  0  0
  9 10  1  0  0  0  0
 10 11  1  0  0  0  0
 11 12  1  0  0  0  0
 11 17  1  0  0  0  0
 12 13  1  0  0  0  0
 12 14  1  0  0  0  0
 14 15  1  0  0  0  0
 14 16  1  0  0  0  0
 16 17  1  0  0  0  0
 16 18  1  0  0  0  0
 18 19  1  0  0  0  0
 19 33  1  0  0  0  0
 20 21  1  0  0  0  0
 22 23  1  0  0  0  0
 24 29  1  0  0  0  0
 25 30  1  0  0  0  0
 26 31  1  0  0  0  0
 27 33  2  0  0  0  0
 28 29  2  0  0  0  0
 29 30  1  0  0  0  0
 29 34  1  0  0  0  0
 30 31  1  0  0  0  0
 30 35  1  0  0  0  0
 31 32  1  0  0  0  0
 31 36  2  0  0  0  0
 32 33  1  0  0  0  0
 33 37  1  0  0  0  0
A    1
N1
A    2
C2
A    3
N3
A    4
C4
A    5
C5
A    6
C6
A    7
N6
A    8
N7
A    9
C8
A   10
N9
A   11
C1'
A   12
C2'
A   13
O2'
A   14
C3'
A   15
O3'
A   16
C4'
A   17
O4'
A   18
C5'
A   19
O5'
A   20
CAA
A   21
CAB
A   22
CAD
A   23
CAE
A   24
OAF
A   25
BRAG
A   26
OAH
A   27
OAI
A   28
OAJ
A   29
PAK
A   30
CAL
A   31
PAM
A   32
OAN
A   33
PAO
A   34
OAV
A   35
BRAW
A   36
OAX
A   37
OAY
M  END
>  <InstanceId>
3AAQ_ARU_A_1

>  <ChemCompId>
ARU

>  <PdbId>
3AAQ

>  <ChainId>
A

>  <ResidueNumber>
1

>  <InsertionCode>


>  <Model>
1

>  <AltIds>


>  <MissingHeavyAtoms>
0

>  <ObservedFormula>
C15 N5 O12 Br2 P3

>  <Name>
5'-O-[(R)-{[(R)-[dibromo(phosphono)methyl](hydroxy)phosphoryl]oxy}(hydroxy)phosphoryl]-N,N-diethyladenosine

>  <SystematicName>
[dibromo-[[[(2R,3S,4R,5R)-5-[6-(diethylamino)purin-9-yl]-3,4-dihydroxy-oxolan-2-yl]methoxy-hydroxy-phosphoryl]oxy-hydroxy-phosphoryl]methyl]phosphonic acid

>  <Synonyms>
ARL 67156

>  <Type>
NON-POLYMER

>  <Formula>
C15 H24 Br2 N5 O12 P3

>  <MolecularWeight>
719.107

>  <ModifiedDate>
2011-06-04

>  <Parent>


>  <OneLetterCode>


>  <SubcomponentList>


>  <AmbiguousFlag>
N

>  <InChI>
InChI=1S/C15H24Br2N5O12P3/c1-3-21(4-2)12-9-13(19-6-18-12)22(7-20-9)14-11(24)10(23)8(33-14)5-32-37(30,31)34-36(28,29)15(16,17)35(25,26)27/h6-8,10-11,14,23-24H,3-5H2,1-2H3,(H,28,29)(H,30,31)(H2,25,26,27)/t8-,10-,11-,14-/m1/s1

>  <InChIKey>
ILXFKEOLRYLPJG-IDTAVKCVSA-N

>  <SMILES>
CCN(CC)c1c2c(ncn1)n(cn2)[C@H]3[C@@H]([C@@H]([C@H](O3)CO[P@@](=O)(O)O[P@@](=O)(C(P(=O)(O)O)(Br)Br)O)O)O

$$$$
