5T9Z_78R_A_300
  RCSB PDB12061719333D
Coordinates from PDB:5T9Z:A:300 Model:1 without hydrogens
 46 49  0  0  0  0            999 V2000
   15.6530   -5.7010   14.8880   N 0  0  0  0  0  0  0  0  0  0  0  0
   14.9180   -5.5680   13.6760   N 0  0  0  0  0  0  0  0  0  0  0  0
   17.5830   -4.5940   13.8270   C 0  0  0  0  0  0  0  0  0  0  0  0
   15.2140   -4.3800   12.8950   C 0  0  0  0  0  0  0  0  0  0  0  0
   17.0950   -5.7900   14.6410   C 0  0  0  0  0  0  0  0  0  0  0  0
   16.7210   -4.4800   12.5420   C 0  0  0  0  0  0  0  0  0  0  0  0
   10.4400  -10.7280   16.1020   C 0  0  0  0  0  0  0  0  0  0  0  0
   10.2780  -11.5730   17.3790   C 0  0  0  0  0  0  0  0  0  0  0  0
    8.8210  -12.0370   17.4510   C 0  0  0  0  0  0  0  0  0  0  0  0
   10.7420  -10.8110   18.6340   C 0  0  0  0  0  0  0  0  0  0  0  0
   12.1770  -10.3000   18.3860   C 0  0  0  0  0  0  0  0  0  0  0  0
   13.0640  -10.7270   19.5230   C 0  0  0  0  0  0  0  0  0  0  0  0
   17.7340   -5.7590   16.0040   C 0  0  0  0  0  0  0  0  0  0  0  0
   19.1410   -6.8610   17.4700   C 0  0  0  0  0  0  0  0  0  0  0  0
   18.2520   -7.3150   18.6030   C 0  0  0  0  0  0  0  0  0  0  0  0
   17.1150   -8.0690   18.3570   C 0  0  0  0  0  0  0  0  0  0  0  0
   16.2840   -8.5470   19.3430   C 0  0  0  0  0  0  0  0  0  0  0  0
   16.5730   -8.1810   20.6500   C 0  0  0  0  0  0  0  0  0  0  0  0
   17.6960   -7.4020   20.9120   C 0  0  0  0  0  0  0  0  0  0  0  0
   18.5750   -6.9420   19.9290   C 0  0  0  0  0  0  0  0  0  0  0  0
   15.0970   -9.3350   18.9300   C 0  0  0  0  0  0  0  0  0  0  0  0
   14.2490   -9.8540   19.8140   C 0  0  0  0  0  0  0  0  0  0  0  0
    9.8540   -9.0330   20.1140   C 0  0  0  0  0  0  0  0  0  0  0  0
   10.9160  -11.1960   15.0800   O 0  0  0  0  0  0  0  0  0  0  0  0
   17.6350   -4.9350   16.8500   O 0  0  0  0  0  0  0  0  0  0  0  0
    9.8440   -9.7050   18.8640   O 0  0  0  0  0  0  0  0  0  0  0  0
   18.5080   -6.8440   16.1620   O 0  0  0  0  0  0  0  0  0  0  0  0
   10.0780   -9.3770   16.2180   N 0  0  0  0  0  0  0  0  0  0  0  0
   10.2560   -8.5170   15.0340   C 0  0  0  0  0  0  0  0  0  0  0  0
   11.6520   -7.8390   15.1110   C 0  0  0  0  0  0  0  0  0  0  0  0
   11.8980   -7.0350   16.0260   O 0  0  0  0  0  0  0  0  0  0  0  0
    9.1200   -7.5080   14.8820   C 0  0  0  0  0  0  0  0  0  0  0  0
    9.3480   -6.6460   13.6290   C 0  0  0  0  0  0  0  0  0  0  0  0
    7.7380   -8.1670   14.7910   C 0  0  0  0  0  0  0  0  0  0  0  0
   12.5260   -8.2620   14.1770   N 0  0  0  0  0  0  0  0  0  0  0  0
   13.8780   -7.7630   14.2160   C 0  0  0  0  0  0  0  0  0  0  0  0
   14.8470   -8.8110   13.6410   C 0  0  0  0  0  0  0  0  0  0  0  0
   15.1340   -9.9870   14.5760   C 0  0  0  0  0  0  0  0  0  0  0  0
   14.1530  -10.9730   14.8370   C 0  0  0  0  0  0  0  0  0  0  0  0
   14.4680  -12.0580   15.6680   C 0  0  0  0  0  0  0  0  0  0  0  0
   16.3980  -10.1000   15.1690   C 0  0  0  0  0  0  0  0  0  0  0  0
   16.6560  -11.1990   15.9970   C 0  0  0  0  0  0  0  0  0  0  0  0
   15.6910  -12.1590   16.2930   C 0  0  0  0  0  0  0  0  0  0  0  0
   17.8880  -11.3200   16.5890   O 0  0  0  0  0  0  0  0  0  0  0  0
   14.0190   -6.5240   13.3240   C 0  0  0  0  0  0  0  0  0  0  0  0
   13.3910   -6.3970   12.2610   O 0  0  0  0  0  0  0  0  0  0  0  0
 46 45  2  0  0  0  0
  6  4  1  0  0  0  0
  6  3  1  0  0  0  0
  4  2  1  0  0  0  0
 45  2  1  0  0  0  0
 45 36  1  0  0  0  0
 33 32  1  0  0  0  0
 37 36  1  0  0  0  0
 37 38  1  0  0  0  0
  2  1  1  0  0  0  0
  3  5  1  0  0  0  0
 35 36  1  0  0  0  0
 35 30  1  0  0  0  0
 38 39  2  0  0  0  0
 38 41  1  0  0  0  0
  5  1  1  0  0  0  0
  5 13  1  0  0  0  0
 34 32  1  0  0  0  0
 39 40  1  0  0  0  0
 32 29  1  0  0  0  0
 29 30  1  0  0  0  0
 29 28  1  0  0  0  0
 24  7  2  0  0  0  0
 30 31  2  0  0  0  0
 41 42  2  0  0  0  0
 40 43  2  0  0  0  0
 42 43  1  0  0  0  0
 42 44  1  0  0  0  0
 13 27  1  0  0  0  0
 13 25  2  0  0  0  0
  7 28  1  0  0  0  0
  7  8  1  0  0  0  0
 27 14  1  0  0  0  0
  8  9  1  0  0  0  0
  8 10  1  0  0  0  0
 14 15  1  0  0  0  0
 16 15  2  0  0  0  0
 16 17  1  0  0  0  0
 11 10  1  0  0  0  0
 11 12  1  0  0  0  0
 15 20  1  0  0  0  0
 10 26  1  0  0  0  0
 26 23  1  0  0  0  0
 21 17  1  0  0  0  0
 21 22  2  0  0  0  0
 17 18  2  0  0  0  0
 12 22  1  0  0  0  0
 20 19  2  0  0  0  0
 18 19  1  0  0  0  0
A    1
N2
A    2
N1
A    3
C5
A    4
C7
A    5
C8
A    6
C6
A    7
C23
A    8
C24
A    9
C25
A   10
C26
A   11
C27
A   12
C28
A   13
C29
A   14
C30
A   15
C31
A   16
C32
A   17
C33
A   18
C34
A   19
C35
A   20
C36
A   21
C37
A   22
C38
A   23
C39
A   24
O44
A   25
O45
A   26
O46
A   27
O47
A   28
N4
A   29
C19
A   30
C18
A   31
O43
A   32
C20
A   33
C21
A   34
C22
A   35
N3
A   36
C10
A   37
C11
A   38
C12
A   39
C17
A   40
C16
A   41
C13
A   42
C14
A   43
C15
A   44
O42
A   45
C9
A   46
O41
M  END
>  <InstanceId>
5T9Z_78R_A_300

>  <ChemCompId>
78R

>  <PdbId>
5T9Z

>  <ChainId>
A

>  <ResidueNumber>
300

>  <InsertionCode>


>  <Model>
1

>  <AltIds>


>  <MissingHeavyAtoms>
0

>  <ObservedFormula>
C35 N4 O7

>  <Name>
11-[(3-hydroxyphenyl)methyl]-18-methoxy-17-methyl-14-(propan-2-yl)-3-oxa-9,12,15,28-tetraazatricyclo[21.3.1.1~5,9~]octacosa-1(27),21,23,25-tetraene-4,10,13,16-tetrone

>  <SystematicName>
(5~{S},11~{S},14~{S},17~{R},18~{R},21~{E})-11-[(3-hydroxyphenyl)methyl]-18-methoxy-17-methyl-14-propan-2-yl-3-oxa-9,12,15,28-tetrazatricyclo[21.3.1.1^{5,9}]octacosa-1(27),21,23,25-tetraene-4,10,13,16-tetrone

>  <Synonyms>


>  <Type>
peptide-like

>  <Formula>
C35 H46 N4 O7

>  <MolecularWeight>
634.762

>  <ModifiedDate>
2017-01-20

>  <Parent>


>  <OneLetterCode>


>  <SubcomponentList>
78Q VAL MTY

>  <AmbiguousFlag>
N

>  <InChI>
InChI=1S/C35H46N4O7/c1-22(2)31-33(42)36-29(20-25-12-8-14-27(40)19-25)34(43)39-17-9-15-28(38-39)35(44)46-21-26-13-7-11-24(18-26)10-5-6-16-30(45-4)23(3)32(41)37-31/h5,7-8,10-14,18-19,22-23,28-31,38,40H,6,9,15-17,20-21H2,1-4H3,(H,36,42)(H,37,41)/b10-5+/t23-,28+,29+,30-,31+/m1/s1

>  <InChIKey>
FLZFOCXCNGEIHF-HEPDUKFXSA-N

>  <SMILES>
C[C@@H]1[C@@H](CC/C=C/c2cccc(c2)COC(=O)[C@@H]3CCCN(N3)C(=O)[C@@H](NC(=O)[C@@H](NC1=O)C(C)C)Cc4cccc(c4)O)OC

$$$$
