5T9Z_78R_A_300


 50 53  0  0  0  0  0  0  0  0999 V2000
   15.7514   -5.9632   14.8389 N   0  0  0  0  0  0  0  0  0  0  0  0
   15.0008   -5.9103   13.6304 N   0  0  0  0  0  0  0  0  0  0  0  0
   17.7082   -5.0481   13.6516 C   0  0  0  0  0  0  0  0  0  0  0  0
   15.3341   -4.8146   12.7374 C   0  0  0  0  0  0  0  0  0  0  0  0
   17.1833   -6.1400   14.5809 C   0  0  0  0  0  0  0  0  0  0  0  0
   16.8285   -5.0151   12.3740 C   0  0  0  0  0  0  0  0  0  0  0  0
   10.3466  -10.6144   16.5923 C   0  0  0  0  0  0  0  0  0  0  0  0
   10.1712  -11.3289   17.9449 C   0  0  0  0  0  0  0  0  0  0  0  0
    8.6969  -11.7178   18.0808 C   0  0  0  0  0  0  0  0  0  0  0  0
   10.6911  -10.4754   19.1164 C   0  0  0  0  0  0  0  0  0  0  0  0
   12.1423  -10.0551   18.8013 C   0  0  0  0  0  0  0  0  0  0  0  0
   13.0305  -10.4143   19.9605 C   0  0  0  0  0  0  0  0  0  0  0  0
   17.8480   -6.0114   15.9258 C   0  0  0  0  0  0  0  0  0  0  0  0
   19.2321   -7.0350   17.4685 C   0  0  0  0  0  0  0  0  0  0  0  0
   18.3450   -7.3410   18.6515 C   0  0  0  0  0  0  0  0  0  0  0  0
   17.1718   -8.0623   18.4934 C   0  0  0  0  0  0  0  0  0  0  0  0
   16.3389   -8.4085   19.5315 C   0  0  0  0  0  0  0  0  0  0  0  0
   16.6676   -7.9361   20.7942 C   0  0  0  0  0  0  0  0  0  0  0  0
   17.8282   -7.1878   20.9662 C   0  0  0  0  0  0  0  0  0  0  0  0
   18.7083   -6.8614   19.9320 C   0  0  0  0  0  0  0  0  0  0  0  0
   15.1112   -9.1769   19.2110 C   0  0  0  0  0  0  0  0  0  0  0  0
   14.2577   -9.5726   20.1517 C   0  0  0  0  0  0  0  0  0  0  0  0
   10.7828  -11.1964   15.6119 O   0  0  0  0  0  0  0  0  0  0  0  0
   17.8007   -5.1087   16.6923 O   0  0  0  0  0  0  0  0  0  0  0  0
   18.5765   -7.1109   16.1737 O   0  0  0  0  0  0  0  0  0  0  0  0
   10.0462   -9.2435   16.5863 N   0  0  0  0  0  0  0  0  0  0  0  0
   10.2399   -8.5062   15.3246 C   0  0  0  0  0  0  0  0  0  0  0  0
   11.6654   -7.8879   15.3179 C   0  0  0  0  0  0  0  0  0  0  0  0
   11.9631   -7.0143   16.1500 O   0  0  0  0  0  0  0  0  0  0  0  0
   12.5028   -8.4350   14.4154 N   0  0  0  0  0  0  0  0  0  0  0  0
   13.8758   -7.9962   14.3883 C   0  0  0  0  0  0  0  0  0  0  0  0
   14.0545   -6.8531   13.3822 C   0  0  0  0  0  0  0  0  0  0  0  0
   13.4133   -6.7972   12.3210 O   0  0  0  0  0  0  0  0  0  0  0  0
   15.4178   -6.7462   15.4011 H   0  0  0  0  0  0  0  0  0  0  0  0
    9.7178   -8.7902   17.3962 H   0  0  0  0  0  0  0  0  0  0  0  0
   12.1831   -9.1214   13.7862 H   0  0  0  0  0  0  0  0  0  0  0  0
    9.1466   -7.4653   15.0949 C   0  0  0  0  0  0  0  0  0  0  0  0
    9.3430   -6.7911   13.7267 C   0  0  0  0  0  0  0  0  0  0  0  0
    7.7317   -8.0534   15.1641 C   0  0  0  0  0  0  0  0  0  0  0  0
    9.6339   -8.7409   20.5356 C   0  0  0  0  0  0  0  0  0  0  0  0
    9.8467   -9.3133   19.2545 O   0  0  0  0  0  0  0  0  0  0  0  0
   14.7873   -9.1359   13.9002 C   0  0  0  0  0  0  0  0  0  0  0  0
   15.3239  -10.0372   15.0135 C   0  0  0  0  0  0  0  0  0  0  0  0
   14.4720  -10.9239   15.7141 C   0  0  0  0  0  0  0  0  0  0  0  0
   15.0095  -11.7635   16.7006 C   0  0  0  0  0  0  0  0  0  0  0  0
   16.6875   -9.9978   15.3315 C   0  0  0  0  0  0  0  0  0  0  0  0
   17.1695  -10.8516   16.3308 C   0  0  0  0  0  0  0  0  0  0  0  0
   16.3391  -11.7043   17.0546 C   0  0  0  0  0  0  0  0  0  0  0  0
   18.5020  -10.8202   16.6567 O   0  0  0  0  0  0  0  0  0  0  0  0
   19.0858  -10.2567   16.1879 H   0  0  0  0  0  0  0  0  0  0  0  0
 33 32  2  0  0  0
  6  4  1  0  0  0
  6  3  1  0  0  0
  4  2  1  0  0  0
 32  2  1  0  0  0
 32 31  1  0  0  0
 38 37  1  0  0  0
 42 31  1  0  0  0
 42 43  1  0  0  0
  2  1  1  0  0  0
  3  5  1  0  0  0
 30 31  1  0  0  0
 30 28  1  0  0  0
 43 44  2  0  0  0
 43 46  1  0  0  0
  5  1  1  0  0  0
  5 13  1  0  0  0
 39 37  1  0  0  0
 44 45  1  0  0  0
 37 27  1  0  0  0
 27 28  1  0  0  0
 27 26  1  0  0  0
 23  7  2  0  0  0
 28 29  2  0  0  0
 46 47  2  0  0  0
 45 48  2  0  0  0
 47 48  1  0  0  0
 47 49  1  0  0  0
 13 25  1  0  0  0
 13 24  2  0  0  0
  7 26  1  0  0  0
  7  8  1  0  0  0
 25 14  1  0  0  0
  8  9  1  0  0  0
  8 10  1  0  0  0
 14 15  1  0  0  0
 16 15  2  0  0  0
 16 17  1  0  0  0
 11 10  1  0  0  0
 11 12  1  0  0  0
 15 20  1  0  0  0
 10 41  1  0  0  0
 41 40  1  0  0  0
 21 17  1  0  0  0
 21 22  2  0  0  0
 17 18  2  0  0  0
 12 22  1  0  0  0
 20 19  2  0  0  0
 18 19  1  0  0  0
  1 34  1  0  0  0
 26 35  1  0  0  0
 30 36  1  0  0  0
 49 50  1  0  0  0
M  END
> <minimizedAffinity>
-9.27837

$$$$
5T9Z_78R_A_300


 50 53  0  0  0  0  0  0  0  0999 V2000
   15.7311   -5.9539   14.8400 N   0  0  0  0  0  0  0  0  0  0  0  0
   14.9804   -5.8910   13.6320 N   0  0  0  0  0  0  0  0  0  0  0  0
   17.6891   -5.0333   13.6590 C   0  0  0  0  0  0  0  0  0  0  0  0
   15.3153   -4.7894   12.7469 C   0  0  0  0  0  0  0  0  0  0  0  0
   17.1627   -6.1310   14.5805 C   0  0  0  0  0  0  0  0  0  0  0  0
   16.8093   -4.9896   12.3818 C   0  0  0  0  0  0  0  0  0  0  0  0
   10.3192  -10.6091   16.5605 C   0  0  0  0  0  0  0  0  0  0  0  0
   10.1430  -11.3331   17.9080 C   0  0  0  0  0  0  0  0  0  0  0  0
    8.6680  -11.7206   18.0413 C   0  0  0  0  0  0  0  0  0  0  0  0
   10.6644  -10.4889   19.0855 C   0  0  0  0  0  0  0  0  0  0  0  0
   12.1162  -10.0687   18.7732 C   0  0  0  0  0  0  0  0  0  0  0  0
   13.0040  -10.4377   19.9297 C   0  0  0  0  0  0  0  0  0  0  0  0
   17.8278   -6.0133   15.9261 C   0  0  0  0  0  0  0  0  0  0  0  0
   19.2105   -7.0502   17.4611 C   0  0  0  0  0  0  0  0  0  0  0  0
   18.3232   -7.3634   18.6420 C   0  0  0  0  0  0  0  0  0  0  0  0
   17.1488   -8.0817   18.4789 C   0  0  0  0  0  0  0  0  0  0  0  0
   16.3155   -8.4341   19.5146 C   0  0  0  0  0  0  0  0  0  0  0  0
   16.6452   -7.9714   20.7807 C   0  0  0  0  0  0  0  0  0  0  0  0
   17.8070   -7.2261   20.9578 C   0  0  0  0  0  0  0  0  0  0  0  0
   18.6874   -6.8936   19.9259 C   0  0  0  0  0  0  0  0  0  0  0  0
   15.0865   -9.1982   19.1888 C   0  0  0  0  0  0  0  0  0  0  0  0
   14.2325   -9.5993   20.1267 C   0  0  0  0  0  0  0  0  0  0  0  0
   10.7544  -11.1847   15.5759 O   0  0  0  0  0  0  0  0  0  0  0  0
   17.7820   -5.1161   16.6991 O   0  0  0  0  0  0  0  0  0  0  0  0
   18.5546   -7.1157   16.1660 O   0  0  0  0  0  0  0  0  0  0  0  0
   10.0210   -9.2377   16.5646 N   0  0  0  0  0  0  0  0  0  0  0  0
   10.2157   -8.4916   15.3082 C   0  0  0  0  0  0  0  0  0  0  0  0
   11.6422   -7.8755   15.3058 C   0  0  0  0  0  0  0  0  0  0  0  0
   11.9414   -7.0084   16.1441 O   0  0  0  0  0  0  0  0  0  0  0  0
   12.4785   -8.4174   14.3991 N   0  0  0  0  0  0  0  0  0  0  0  0
   13.8522   -7.9806   14.3749 C   0  0  0  0  0  0  0  0  0  0  0  0
   14.0326   -6.8306   13.3772 C   0  0  0  0  0  0  0  0  0  0  0  0
   13.3912   -6.7659   12.3165 O   0  0  0  0  0  0  0  0  0  0  0  0
   15.3963   -6.7404   15.3966 H   0  0  0  0  0  0  0  0  0  0  0  0
    9.6934   -8.7898   17.3778 H   0  0  0  0  0  0  0  0  0  0  0  0
   12.1576   -9.0987   13.7650 H   0  0  0  0  0  0  0  0  0  0  0  0
    9.1239   -7.4473   15.0862 C   0  0  0  0  0  0  0  0  0  0  0  0
    9.3225   -6.7621   13.7239 C   0  0  0  0  0  0  0  0  0  0  0  0
    7.7082   -8.0341   15.1493 C   0  0  0  0  0  0  0  0  0  0  0  0
    9.6846   -8.7072   20.5018 C   0  0  0  0  0  0  0  0  0  0  0  0
    9.8219   -9.3265   19.2322 O   0  0  0  0  0  0  0  0  0  0  0  0
   14.7619   -9.1182   13.8785 C   0  0  0  0  0  0  0  0  0  0  0  0
   14.4354  -10.4915   14.4676 C   0  0  0  0  0  0  0  0  0  0  0  0
   14.5773  -10.7485   15.8519 C   0  0  0  0  0  0  0  0  0  0  0  0
   14.2290  -12.0085   16.3600 C   0  0  0  0  0  0  0  0  0  0  0  0
   13.9687  -11.5073   13.6234 C   0  0  0  0  0  0  0  0  0  0  0  0
   13.6437  -12.7491   14.1823 C   0  0  0  0  0  0  0  0  0  0  0  0
   13.8113  -13.0300   15.5363 C   0  0  0  0  0  0  0  0  0  0  0  0
   13.1904  -13.7552   13.3668 O   0  0  0  0  0  0  0  0  0  0  0  0
   13.0677  -13.5970   12.4514 H   0  0  0  0  0  0  0  0  0  0  0  0
 33 32  2  0  0  0
  6  4  1  0  0  0
  6  3  1  0  0  0
  4  2  1  0  0  0
 32  2  1  0  0  0
 32 31  1  0  0  0
 38 37  1  0  0  0
 42 31  1  0  0  0
 42 43  1  0  0  0
  2  1  1  0  0  0
  3  5  1  0  0  0
 30 31  1  0  0  0
 30 28  1  0  0  0
 43 44  2  0  0  0
 43 46  1  0  0  0
  5  1  1  0  0  0
  5 13  1  0  0  0
 39 37  1  0  0  0
 44 45  1  0  0  0
 37 27  1  0  0  0
 27 28  1  0  0  0
 27 26  1  0  0  0
 23  7  2  0  0  0
 28 29  2  0  0  0
 46 47  2  0  0  0
 45 48  2  0  0  0
 47 48  1  0  0  0
 47 49  1  0  0  0
 13 25  1  0  0  0
 13 24  2  0  0  0
  7 26  1  0  0  0
  7  8  1  0  0  0
 25 14  1  0  0  0
  8  9  1  0  0  0
  8 10  1  0  0  0
 14 15  1  0  0  0
 16 15  2  0  0  0
 16 17  1  0  0  0
 11 10  1  0  0  0
 11 12  1  0  0  0
 15 20  1  0  0  0
 10 41  1  0  0  0
 41 40  1  0  0  0
 21 17  1  0  0  0
 21 22  2  0  0  0
 17 18  2  0  0  0
 12 22  1  0  0  0
 20 19  2  0  0  0
 18 19  1  0  0  0
  1 34  1  0  0  0
 26 35  1  0  0  0
 30 36  1  0  0  0
 49 50  1  0  0  0
M  END
> <minimizedAffinity>
-9.06120

$$$$
5T9Z_78R_A_300


 50 53  0  0  0  0  0  0  0  0999 V2000
   16.4408   -6.7705   14.3882 N   0  0  0  0  0  0  0  0  0  0  0  0
   15.3902   -6.3302   13.5342 N   0  0  0  0  0  0  0  0  0  0  0  0
   18.0607   -5.4979   13.0344 C   0  0  0  0  0  0  0  0  0  0  0  0
   15.5558   -4.9988   12.9783 C   0  0  0  0  0  0  0  0  0  0  0  0
   17.7224   -6.8393   13.6804 C   0  0  0  0  0  0  0  0  0  0  0  0
   16.8657   -5.0549   12.1496 C   0  0  0  0  0  0  0  0  0  0  0  0
   11.3540  -11.7894   16.0777 C   0  0  0  0  0  0  0  0  0  0  0  0
   11.5013  -12.9104   17.1230 C   0  0  0  0  0  0  0  0  0  0  0  0
   10.0954  -13.3359   17.5537 C   0  0  0  0  0  0  0  0  0  0  0  0
   12.4005  -12.4845   18.2982 C   0  0  0  0  0  0  0  0  0  0  0  0
   13.7370  -11.9706   17.7224 C   0  0  0  0  0  0  0  0  0  0  0  0
   14.8785  -12.6827   18.3946 C   0  0  0  0  0  0  0  0  0  0  0  0
   18.7449   -7.1538   14.7400 C   0  0  0  0  0  0  0  0  0  0  0  0
   20.4092   -8.6147   15.4025 C   0  0  0  0  0  0  0  0  0  0  0  0
   19.8646   -9.3008   16.6324 C   0  0  0  0  0  0  0  0  0  0  0  0
   18.6352   -9.9409   16.6044 C   0  0  0  0  0  0  0  0  0  0  0  0
   18.0983  -10.6168   17.6750 C   0  0  0  0  0  0  0  0  0  0  0  0
   18.8068  -10.5826   18.8678 C   0  0  0  0  0  0  0  0  0  0  0  0
   20.0303   -9.9217   18.9205 C   0  0  0  0  0  0  0  0  0  0  0  0
   20.6117   -9.2654   17.8334 C   0  0  0  0  0  0  0  0  0  0  0  0
   16.7674  -11.2485   17.5016 C   0  0  0  0  0  0  0  0  0  0  0  0
   16.1792  -11.9392   18.4747 C   0  0  0  0  0  0  0  0  0  0  0  0
   11.4462  -12.0128   14.8811 O   0  0  0  0  0  0  0  0  0  0  0  0
   18.9930   -6.5537   15.7314 O   0  0  0  0  0  0  0  0  0  0  0  0
   19.4142   -8.2670   14.4021 O   0  0  0  0  0  0  0  0  0  0  0  0
   11.1855  -10.4955   16.5946 N   0  0  0  0  0  0  0  0  0  0  0  0
   11.0831   -9.3827   15.6333 C   0  0  0  0  0  0  0  0  0  0  0  0
   12.4986   -8.7834   15.4061 C   0  0  0  0  0  0  0  0  0  0  0  0
   13.0924   -8.2291   16.3465 O   0  0  0  0  0  0  0  0  0  0  0  0
   12.9992   -8.9956   14.1734 N   0  0  0  0  0  0  0  0  0  0  0  0
   14.3430   -8.5597   13.8862 C   0  0  0  0  0  0  0  0  0  0  0  0
   14.3333   -7.1478   13.2885 C   0  0  0  0  0  0  0  0  0  0  0  0
   13.4287   -6.7521   12.5364 O   0  0  0  0  0  0  0  0  0  0  0  0
   16.2101   -7.6978   14.7450 H   0  0  0  0  0  0  0  0  0  0  0  0
   11.1375  -10.3367   17.5651 H   0  0  0  0  0  0  0  0  0  0  0  0
   12.4575   -9.4400   13.4818 H   0  0  0  0  0  0  0  0  0  0  0  0
   10.0649   -8.3343   16.0758 C   0  0  0  0  0  0  0  0  0  0  0  0
    9.9527   -7.2299   15.0115 C   0  0  0  0  0  0  0  0  0  0  0  0
    8.6720   -8.9208   16.3367 C   0  0  0  0  0  0  0  0  0  0  0  0
   11.6267  -11.5308   20.4504 C   0  0  0  0  0  0  0  0  0  0  0  0
   11.7338  -11.4402   19.0381 O   0  0  0  0  0  0  0  0  0  0  0  0
   14.9782   -9.4671   12.8180 C   0  0  0  0  0  0  0  0  0  0  0  0
   14.7600  -10.9634   13.0487 C   0  0  0  0  0  0  0  0  0  0  0  0
   15.1874  -11.5916   14.2426 C   0  0  0  0  0  0  0  0  0  0  0  0
   14.9327  -12.9574   14.4340 C   0  0  0  0  0  0  0  0  0  0  0  0
   14.1075  -11.7213   12.0678 C   0  0  0  0  0  0  0  0  0  0  0  0
   13.8867  -13.0828   12.3071 C   0  0  0  0  0  0  0  0  0  0  0  0
   14.3323  -13.7244   13.4605 C   0  0  0  0  0  0  0  0  0  0  0  0
   13.2535  -13.8389   11.3530 O   0  0  0  0  0  0  0  0  0  0  0  0
   12.9424  -13.4360   10.5663 H   0  0  0  0  0  0  0  0  0  0  0  0
 33 32  2  0  0  0
  6  4  1  0  0  0
  6  3  1  0  0  0
  4  2  1  0  0  0
 32  2  1  0  0  0
 32 31  1  0  0  0
 38 37  1  0  0  0
 42 31  1  0  0  0
 42 43  1  0  0  0
  2  1  1  0  0  0
  3  5  1  0  0  0
 30 31  1  0  0  0
 30 28  1  0  0  0
 43 44  2  0  0  0
 43 46  1  0  0  0
  5  1  1  0  0  0
  5 13  1  0  0  0
 39 37  1  0  0  0
 44 45  1  0  0  0
 37 27  1  0  0  0
 27 28  1  0  0  0
 27 26  1  0  0  0
 23  7  2  0  0  0
 28 29  2  0  0  0
 46 47  2  0  0  0
 45 48  2  0  0  0
 47 48  1  0  0  0
 47 49  1  0  0  0
 13 25  1  0  0  0
 13 24  2  0  0  0
  7 26  1  0  0  0
  7  8  1  0  0  0
 25 14  1  0  0  0
  8  9  1  0  0  0
  8 10  1  0  0  0
 14 15  1  0  0  0
 16 15  2  0  0  0
 16 17  1  0  0  0
 11 10  1  0  0  0
 11 12  1  0  0  0
 15 20  1  0  0  0
 10 41  1  0  0  0
 41 40  1  0  0  0
 21 17  1  0  0  0
 21 22  2  0  0  0
 17 18  2  0  0  0
 12 22  1  0  0  0
 20 19  2  0  0  0
 18 19  1  0  0  0
  1 34  1  0  0  0
 26 35  1  0  0  0
 30 36  1  0  0  0
 49 50  1  0  0  0
M  END
> <minimizedAffinity>
-6.63576

$$$$
5T9Z_78R_A_300


 50 53  0  0  0  0  0  0  0  0999 V2000
   14.4009   -9.1580   16.7439 N   0  0  0  0  0  0  0  0  0  0  0  0
   14.2395  -10.2637   17.6261 N   0  0  0  0  0  0  0  0  0  0  0  0
   11.9686   -8.7631   16.8105 C   0  0  0  0  0  0  0  0  0  0  0  0
   13.1713  -10.1322   18.6010 C   0  0  0  0  0  0  0  0  0  0  0  0
   13.2033   -8.9350   15.9289 C   0  0  0  0  0  0  0  0  0  0  0  0
   11.8695   -9.9766   17.7722 C   0  0  0  0  0  0  0  0  0  0  0  0
   20.7603  -12.6109   15.4968 C   0  0  0  0  0  0  0  0  0  0  0  0
   21.8832  -12.1283   14.5603 C   0  0  0  0  0  0  0  0  0  0  0  0
   23.1866  -12.7915   15.0125 C   0  0  0  0  0  0  0  0  0  0  0  0
   21.9636  -10.5916   14.5052 C   0  0  0  0  0  0  0  0  0  0  0  0
   20.5630  -10.0467   14.1541 C   0  0  0  0  0  0  0  0  0  0  0  0
   20.6696   -9.1096   12.9826 C   0  0  0  0  0  0  0  0  0  0  0  0
   13.4642   -7.6539   15.1819 C   0  0  0  0  0  0  0  0  0  0  0  0
   13.5932   -6.6597   13.0991 C   0  0  0  0  0  0  0  0  0  0  0  0
   15.0512   -6.3107   12.9189 C   0  0  0  0  0  0  0  0  0  0  0  0
   16.0366   -7.2753   13.0617 C   0  0  0  0  0  0  0  0  0  0  0  0
   17.3776   -7.0349   12.8740 C   0  0  0  0  0  0  0  0  0  0  0  0
   17.7565   -5.7284   12.5996 C   0  0  0  0  0  0  0  0  0  0  0  0
   16.7819   -4.7424   12.4790 C   0  0  0  0  0  0  0  0  0  0  0  0
   15.4125   -4.9748   12.6248 C   0  0  0  0  0  0  0  0  0  0  0  0
   18.3201   -8.1637   13.0692 C   0  0  0  0  0  0  0  0  0  0  0  0
   19.6316   -8.0302   12.8901 C   0  0  0  0  0  0  0  0  0  0  0  0
   19.9956  -13.5055   15.1726 O   0  0  0  0  0  0  0  0  0  0  0  0
   13.7227   -6.5823   15.6169 O   0  0  0  0  0  0  0  0  0  0  0  0
   13.3416   -7.8701   13.8630 O   0  0  0  0  0  0  0  0  0  0  0  0
   20.6308  -11.9055   16.7032 N   0  0  0  0  0  0  0  0  0  0  0  0
   19.5421  -12.3026   17.6144 C   0  0  0  0  0  0  0  0  0  0  0  0
   18.2933  -11.4273   17.3164 C   0  0  0  0  0  0  0  0  0  0  0  0
   18.3358  -10.2021   17.5191 O   0  0  0  0  0  0  0  0  0  0  0  0
   17.2606  -12.1014   16.7738 N   0  0  0  0  0  0  0  0  0  0  0  0
   16.0860  -11.3667   16.3751 C   0  0  0  0  0  0  0  0  0  0  0  0
   15.0559  -11.3436   17.5104 C   0  0  0  0  0  0  0  0  0  0  0  0
   14.8982  -12.3024   18.2826 O   0  0  0  0  0  0  0  0  0  0  0  0
   15.1917   -9.3407   16.1262 H   0  0  0  0  0  0  0  0  0  0  0  0
   21.2453  -11.1714   16.9329 H   0  0  0  0  0  0  0  0  0  0  0  0
   17.3072  -13.0772   16.6520 H   0  0  0  0  0  0  0  0  0  0  0  0
   19.9684  -12.2392   19.0793 C   0  0  0  0  0  0  0  0  0  0  0  0
   19.5038  -13.5066   19.8163 C   0  0  0  0  0  0  0  0  0  0  0  0
   21.4836  -12.0834   19.2589 C   0  0  0  0  0  0  0  0  0  0  0  0
   22.3450   -8.7115   16.0737 C   0  0  0  0  0  0  0  0  0  0  0  0
   22.3879  -10.1024   15.7949 O   0  0  0  0  0  0  0  0  0  0  0  0
   15.3967  -12.0696   15.1924 C   0  0  0  0  0  0  0  0  0  0  0  0
   15.8398  -11.5719   13.8157 C   0  0  0  0  0  0  0  0  0  0  0  0
   17.1672  -11.7563   13.3612 C   0  0  0  0  0  0  0  0  0  0  0  0
   17.5242  -11.3220   12.0763 C   0  0  0  0  0  0  0  0  0  0  0  0
   14.9086  -10.9395   12.9819 C   0  0  0  0  0  0  0  0  0  0  0  0
   15.3209  -10.5180   11.7121 C   0  0  0  0  0  0  0  0  0  0  0  0
   16.6319  -10.6593   11.2631 C   0  0  0  0  0  0  0  0  0  0  0  0
   14.4210   -9.8922   10.8866 O   0  0  0  0  0  0  0  0  0  0  0  0
   13.5317   -9.7821   11.1607 H   0  0  0  0  0  0  0  0  0  0  0  0
 33 32  2  0  0  0
  6  4  1  0  0  0
  6  3  1  0  0  0
  4  2  1  0  0  0
 32  2  1  0  0  0
 32 31  1  0  0  0
 38 37  1  0  0  0
 42 31  1  0  0  0
 42 43  1  0  0  0
  2  1  1  0  0  0
  3  5  1  0  0  0
 30 31  1  0  0  0
 30 28  1  0  0  0
 43 44  2  0  0  0
 43 46  1  0  0  0
  5  1  1  0  0  0
  5 13  1  0  0  0
 39 37  1  0  0  0
 44 45  1  0  0  0
 37 27  1  0  0  0
 27 28  1  0  0  0
 27 26  1  0  0  0
 23  7  2  0  0  0
 28 29  2  0  0  0
 46 47  2  0  0  0
 45 48  2  0  0  0
 47 48  1  0  0  0
 47 49  1  0  0  0
 13 25  1  0  0  0
 13 24  2  0  0  0
  7 26  1  0  0  0
  7  8  1  0  0  0
 25 14  1  0  0  0
  8  9  1  0  0  0
  8 10  1  0  0  0
 14 15  1  0  0  0
 16 15  2  0  0  0
 16 17  1  0  0  0
 11 10  1  0  0  0
 11 12  1  0  0  0
 15 20  1  0  0  0
 10 41  1  0  0  0
 41 40  1  0  0  0
 21 17  1  0  0  0
 21 22  2  0  0  0
 17 18  2  0  0  0
 12 22  1  0  0  0
 20 19  2  0  0  0
 18 19  1  0  0  0
  1 34  1  0  0  0
 26 35  1  0  0  0
 30 36  1  0  0  0
 49 50  1  0  0  0
M  END
> <minimizedAffinity>
-6.62072

$$$$
5T9Z_78R_A_300


 50 53  0  0  0  0  0  0  0  0999 V2000
   15.7311   -7.1327   13.0335 N   0  0  0  0  0  0  0  0  0  0  0  0
   17.0298   -6.6873   12.6570 N   0  0  0  0  0  0  0  0  0  0  0  0
   14.9849   -4.7889   13.1939 C   0  0  0  0  0  0  0  0  0  0  0  0
   17.0667   -5.4637   11.8757 C   0  0  0  0  0  0  0  0  0  0  0  0
   15.0452   -6.1518   13.8794 C   0  0  0  0  0  0  0  0  0  0  0  0
   16.4210   -4.3773   12.7749 C   0  0  0  0  0  0  0  0  0  0  0  0
   19.5488  -13.2335   14.4915 C   0  0  0  0  0  0  0  0  0  0  0  0
   18.9668  -14.5643   15.0027 C   0  0  0  0  0  0  0  0  0  0  0  0
   19.9521  -15.6771   14.6360 C   0  0  0  0  0  0  0  0  0  0  0  0
   17.5414  -14.8081   14.4738 C   0  0  0  0  0  0  0  0  0  0  0  0
   16.6842  -13.5685   14.8061 C   0  0  0  0  0  0  0  0  0  0  0  0
   15.4325  -14.0017   15.5185 C   0  0  0  0  0  0  0  0  0  0  0  0
   13.6476   -6.6847   14.0522 C   0  0  0  0  0  0  0  0  0  0  0  0
   12.0329   -7.3286   15.5757 C   0  0  0  0  0  0  0  0  0  0  0  0
   11.8907   -8.8206   15.3921 C   0  0  0  0  0  0  0  0  0  0  0  0
   12.9949   -9.6553   15.4683 C   0  0  0  0  0  0  0  0  0  0  0  0
   12.9310  -11.0239   15.3493 C   0  0  0  0  0  0  0  0  0  0  0  0
   11.6923  -11.5794   15.0615 C   0  0  0  0  0  0  0  0  0  0  0  0
   10.5778  -10.7529   14.9553 C   0  0  0  0  0  0  0  0  0  0  0  0
   10.6151   -9.3658   15.1141 C   0  0  0  0  0  0  0  0  0  0  0  0
   14.1978  -11.7898   15.4447 C   0  0  0  0  0  0  0  0  0  0  0  0
   14.2308  -13.1171   15.3616 C   0  0  0  0  0  0  0  0  0  0  0  0
   20.1365  -12.4637   15.2344 O   0  0  0  0  0  0  0  0  0  0  0  0
   12.8503   -6.9569   13.2187 O   0  0  0  0  0  0  0  0  0  0  0  0
   13.3725   -6.8084   15.3600 O   0  0  0  0  0  0  0  0  0  0  0  0
   19.2912  -12.9359   13.1444 N   0  0  0  0  0  0  0  0  0  0  0  0
   19.7910  -11.6521   12.6197 C   0  0  0  0  0  0  0  0  0  0  0  0
   18.6721  -10.5829   12.7585 C   0  0  0  0  0  0  0  0  0  0  0  0
   17.6169  -10.7067   12.1140 O   0  0  0  0  0  0  0  0  0  0  0  0
   18.9363   -9.6179   13.6607 N   0  0  0  0  0  0  0  0  0  0  0  0
   17.9248   -8.6272   13.9326 C   0  0  0  0  0  0  0  0  0  0  0  0
   18.1234   -7.3977   13.0384 C   0  0  0  0  0  0  0  0  0  0  0  0
   19.2492   -6.9926   12.7080 O   0  0  0  0  0  0  0  0  0  0  0  0
   15.8186   -8.0091   13.5480 H   0  0  0  0  0  0  0  0  0  0  0  0
   18.7942  -13.5623   12.5700 H   0  0  0  0  0  0  0  0  0  0  0  0
   19.8036   -9.5897   14.1256 H   0  0  0  0  0  0  0  0  0  0  0  0
   20.3080  -11.7796   11.1886 C   0  0  0  0  0  0  0  0  0  0  0  0
   20.8841  -10.4340   10.7169 C   0  0  0  0  0  0  0  0  0  0  0  0
   21.3797  -12.8654   11.0305 C   0  0  0  0  0  0  0  0  0  0  0  0
   16.6258  -15.8121   12.4017 C   0  0  0  0  0  0  0  0  0  0  0  0
   17.6043  -15.0116   13.0465 O   0  0  0  0  0  0  0  0  0  0  0  0
   18.0523   -8.1224   15.3806 C   0  0  0  0  0  0  0  0  0  0  0  0
   17.2730   -8.9452   16.4079 C   0  0  0  0  0  0  0  0  0  0  0  0
   17.6971  -10.2421   16.7831 C   0  0  0  0  0  0  0  0  0  0  0  0
   16.9786  -10.9487   17.7586 C   0  0  0  0  0  0  0  0  0  0  0  0
   16.1296   -8.3962   17.0024 C   0  0  0  0  0  0  0  0  0  0  0  0
   15.4453   -9.1487   17.9644 C   0  0  0  0  0  0  0  0  0  0  0  0
   15.8280  -10.4403   18.3191 C   0  0  0  0  0  0  0  0  0  0  0  0
   14.3205   -8.6260   18.5513 O   0  0  0  0  0  0  0  0  0  0  0  0
   14.0376   -7.7597   18.3331 H   0  0  0  0  0  0  0  0  0  0  0  0
 33 32  2  0  0  0
  6  4  1  0  0  0
  6  3  1  0  0  0
  4  2  1  0  0  0
 32  2  1  0  0  0
 32 31  1  0  0  0
 38 37  1  0  0  0
 42 31  1  0  0  0
 42 43  1  0  0  0
  2  1  1  0  0  0
  3  5  1  0  0  0
 30 31  1  0  0  0
 30 28  1  0  0  0
 43 44  2  0  0  0
 43 46  1  0  0  0
  5  1  1  0  0  0
  5 13  1  0  0  0
 39 37  1  0  0  0
 44 45  1  0  0  0
 37 27  1  0  0  0
 27 28  1  0  0  0
 27 26  1  0  0  0
 23  7  2  0  0  0
 28 29  2  0  0  0
 46 47  2  0  0  0
 45 48  2  0  0  0
 47 48  1  0  0  0
 47 49  1  0  0  0
 13 25  1  0  0  0
 13 24  2  0  0  0
  7 26  1  0  0  0
  7  8  1  0  0  0
 25 14  1  0  0  0
  8  9  1  0  0  0
  8 10  1  0  0  0
 14 15  1  0  0  0
 16 15  2  0  0  0
 16 17  1  0  0  0
 11 10  1  0  0  0
 11 12  1  0  0  0
 15 20  1  0  0  0
 10 41  1  0  0  0
 41 40  1  0  0  0
 21 17  1  0  0  0
 21 22  2  0  0  0
 17 18  2  0  0  0
 12 22  1  0  0  0
 20 19  2  0  0  0
 18 19  1  0  0  0
  1 34  1  0  0  0
 26 35  1  0  0  0
 30 36  1  0  0  0
 49 50  1  0  0  0
M  END
> <minimizedAffinity>
-6.59490

$$$$
5T9Z_78R_A_300


 50 53  0  0  0  0  0  0  0  0999 V2000
   16.2382   -9.8260   17.9861 N   0  0  0  0  0  0  0  0  0  0  0  0
   14.9308  -10.3844   17.9110 N   0  0  0  0  0  0  0  0  0  0  0  0
   15.6858   -8.8543   20.1831 C   0  0  0  0  0  0  0  0  0  0  0  0
   14.3521  -10.7886   19.1801 C   0  0  0  0  0  0  0  0  0  0  0  0
   16.2596   -8.6013   18.7910 C   0  0  0  0  0  0  0  0  0  0  0  0
   14.2811   -9.4961   20.0345 C   0  0  0  0  0  0  0  0  0  0  0  0
   15.8987  -11.0887   10.7604 C   0  0  0  0  0  0  0  0  0  0  0  0
   17.0238  -10.8262    9.7424 C   0  0  0  0  0  0  0  0  0  0  0  0
   16.7692  -11.7173    8.5240 C   0  0  0  0  0  0  0  0  0  0  0  0
   18.4183  -11.0221   10.3651 C   0  0  0  0  0  0  0  0  0  0  0  0
   18.5020  -10.1610   11.6432 C   0  0  0  0  0  0  0  0  0  0  0  0
   19.7333   -9.2993   11.5866 C   0  0  0  0  0  0  0  0  0  0  0  0
   17.7140   -8.2307   18.9115 C   0  0  0  0  0  0  0  0  0  0  0  0
   19.2920   -6.5804   18.5511 C   0  0  0  0  0  0  0  0  0  0  0  0
   20.1813   -7.1183   17.4557 C   0  0  0  0  0  0  0  0  0  0  0  0
   19.6455   -7.5530   16.2533 C   0  0  0  0  0  0  0  0  0  0  0  0
   20.3997   -8.0174   15.2013 C   0  0  0  0  0  0  0  0  0  0  0  0
   21.7694   -8.1209   15.3985 C   0  0  0  0  0  0  0  0  0  0  0  0
   22.3209   -7.7137   16.6096 C   0  0  0  0  0  0  0  0  0  0  0  0
   21.5767   -7.2006   17.6743 C   0  0  0  0  0  0  0  0  0  0  0  0
   19.6878   -8.4569   13.9763 C   0  0  0  0  0  0  0  0  0  0  0  0
   20.3349   -8.9013   12.9022 C   0  0  0  0  0  0  0  0  0  0  0  0
   14.9406  -10.3395   10.8641 O   0  0  0  0  0  0  0  0  0  0  0  0
   18.6098   -8.8763   19.3419 O   0  0  0  0  0  0  0  0  0  0  0  0
   17.8976   -6.9798   18.4613 O   0  0  0  0  0  0  0  0  0  0  0  0
   16.0890  -12.1942   11.6039 N   0  0  0  0  0  0  0  0  0  0  0  0
   15.0594  -12.4611   12.6246 C   0  0  0  0  0  0  0  0  0  0  0  0
   15.4709  -11.7595   13.9486 C   0  0  0  0  0  0  0  0  0  0  0  0
   16.4970  -12.1242   14.5472 O   0  0  0  0  0  0  0  0  0  0  0  0
   14.6786  -10.7276   14.2987 N   0  0  0  0  0  0  0  0  0  0  0  0
   15.0255   -9.9509   15.4627 C   0  0  0  0  0  0  0  0  0  0  0  0
   14.3147  -10.4994   16.7055 C   0  0  0  0  0  0  0  0  0  0  0  0
   13.1722  -10.9820   16.6574 O   0  0  0  0  0  0  0  0  0  0  0  0
   16.5588   -9.6072   17.0428 H   0  0  0  0  0  0  0  0  0  0  0  0
   16.8821  -12.7710   11.5171 H   0  0  0  0  0  0  0  0  0  0  0  0
   13.8779  -10.5081   13.7696 H   0  0  0  0  0  0  0  0  0  0  0  0
   14.8052  -13.9558   12.8057 C   0  0  0  0  0  0  0  0  0  0  0  0
   13.3089  -14.2597   12.6217 C   0  0  0  0  0  0  0  0  0  0  0  0
   15.6151  -14.8257   11.8362 C   0  0  0  0  0  0  0  0  0  0  0  0
   19.8239  -13.0626   10.3960 C   0  0  0  0  0  0  0  0  0  0  0  0
   18.5924  -12.4187   10.6840 O   0  0  0  0  0  0  0  0  0  0  0  0
   14.5343   -8.5018   15.2991 C   0  0  0  0  0  0  0  0  0  0  0  0
   15.5630   -7.5511   14.6848 C   0  0  0  0  0  0  0  0  0  0  0  0
   15.9620   -7.6761   13.3328 C   0  0  0  0  0  0  0  0  0  0  0  0
   16.8773   -6.7597   12.7950 C   0  0  0  0  0  0  0  0  0  0  0  0
   16.1052   -6.5257   15.4702 C   0  0  0  0  0  0  0  0  0  0  0  0
   17.0215   -5.6438   14.8849 C   0  0  0  0  0  0  0  0  0  0  0  0
   17.4520   -5.7742   13.5665 C   0  0  0  0  0  0  0  0  0  0  0  0
   17.5648   -4.6378   15.6435 O   0  0  0  0  0  0  0  0  0  0  0  0
   17.2954   -4.5247   16.5338 H   0  0  0  0  0  0  0  0  0  0  0  0
 33 32  2  0  0  0
  6  4  1  0  0  0
  6  3  1  0  0  0
  4  2  1  0  0  0
 32  2  1  0  0  0
 32 31  1  0  0  0
 38 37  1  0  0  0
 42 31  1  0  0  0
 42 43  1  0  0  0
  2  1  1  0  0  0
  3  5  1  0  0  0
 30 31  1  0  0  0
 30 28  1  0  0  0
 43 44  2  0  0  0
 43 46  1  0  0  0
  5  1  1  0  0  0
  5 13  1  0  0  0
 39 37  1  0  0  0
 44 45  1  0  0  0
 37 27  1  0  0  0
 27 28  1  0  0  0
 27 26  1  0  0  0
 23  7  2  0  0  0
 28 29  2  0  0  0
 46 47  2  0  0  0
 45 48  2  0  0  0
 47 48  1  0  0  0
 47 49  1  0  0  0
 13 25  1  0  0  0
 13 24  2  0  0  0
  7 26  1  0  0  0
  7  8  1  0  0  0
 25 14  1  0  0  0
  8  9  1  0  0  0
  8 10  1  0  0  0
 14 15  1  0  0  0
 16 15  2  0  0  0
 16 17  1  0  0  0
 11 10  1  0  0  0
 11 12  1  0  0  0
 15 20  1  0  0  0
 10 41  1  0  0  0
 41 40  1  0  0  0
 21 17  1  0  0  0
 21 22  2  0  0  0
 17 18  2  0  0  0
 12 22  1  0  0  0
 20 19  2  0  0  0
 18 19  1  0  0  0
  1 34  1  0  0  0
 26 35  1  0  0  0
 30 36  1  0  0  0
 49 50  1  0  0  0
M  END
> <minimizedAffinity>
-6.57920

$$$$
5T9Z_78R_A_300


 50 53  0  0  0  0  0  0  0  0999 V2000
   13.5143  -11.3973   18.0799 N   0  0  0  0  0  0  0  0  0  0  0  0
   12.5872  -11.7237   17.0500 N   0  0  0  0  0  0  0  0  0  0  0  0
   12.0672  -12.5255   19.7259 C   0  0  0  0  0  0  0  0  0  0  0  0
   11.8862  -12.9842   17.2192 C   0  0  0  0  0  0  0  0  0  0  0  0
   12.8541  -11.2632   19.3816 C   0  0  0  0  0  0  0  0  0  0  0  0
   11.1052  -12.8492   18.5524 C   0  0  0  0  0  0  0  0  0  0  0  0
   15.6328   -6.5443   12.9927 C   0  0  0  0  0  0  0  0  0  0  0  0
   16.8040   -5.5528   13.1205 C   0  0  0  0  0  0  0  0  0  0  0  0
   17.2427   -5.1625   11.7068 C   0  0  0  0  0  0  0  0  0  0  0  0
   17.9461   -6.1218   13.9823 C   0  0  0  0  0  0  0  0  0  0  0  0
   17.3513   -6.5824   15.3299 C   0  0  0  0  0  0  0  0  0  0  0  0
   18.1317   -5.9662   16.4582 C   0  0  0  0  0  0  0  0  0  0  0  0
   13.9701  -11.0850   20.3765 C   0  0  0  0  0  0  0  0  0  0  0  0
   14.8413   -9.7304   22.0345 C   0  0  0  0  0  0  0  0  0  0  0  0
   16.1269   -9.1837   21.4615 C   0  0  0  0  0  0  0  0  0  0  0  0
   16.1397   -8.5296   20.2392 C   0  0  0  0  0  0  0  0  0  0  0  0
   17.2662   -7.9748   19.6784 C   0  0  0  0  0  0  0  0  0  0  0  0
   18.4658   -8.1545   20.3525 C   0  0  0  0  0  0  0  0  0  0  0  0
   18.4749   -8.8320   21.5681 C   0  0  0  0  0  0  0  0  0  0  0  0
   17.3355   -9.3660   22.1740 C   0  0  0  0  0  0  0  0  0  0  0  0
   17.1308   -7.3112   18.3587 C   0  0  0  0  0  0  0  0  0  0  0  0
   18.1607   -6.7298   17.7495 C   0  0  0  0  0  0  0  0  0  0  0  0
   14.4730   -6.1860   13.1207 O   0  0  0  0  0  0  0  0  0  0  0  0
   14.8921  -11.7981   20.5910 O   0  0  0  0  0  0  0  0  0  0  0  0
   13.7810   -9.9487   21.0650 O   0  0  0  0  0  0  0  0  0  0  0  0
   15.9925   -7.8868   12.7981 N   0  0  0  0  0  0  0  0  0  0  0  0
   14.9068   -8.8804   12.7129 C   0  0  0  0  0  0  0  0  0  0  0  0
   14.6504   -9.4669   14.1288 C   0  0  0  0  0  0  0  0  0  0  0  0
   15.5364  -10.1327   14.6907 O   0  0  0  0  0  0  0  0  0  0  0  0
   13.4644   -9.1204   14.6659 N   0  0  0  0  0  0  0  0  0  0  0  0
   13.1653   -9.5368   16.0133 C   0  0  0  0  0  0  0  0  0  0  0  0
   12.4088  -10.8704   16.0078 C   0  0  0  0  0  0  0  0  0  0  0  0
   11.5920  -11.1660   15.1213 O   0  0  0  0  0  0  0  0  0  0  0  0
   13.9692  -10.5144   17.8475 H   0  0  0  0  0  0  0  0  0  0  0  0
   16.9365   -8.1556   12.7212 H   0  0  0  0  0  0  0  0  0  0  0  0
   12.8142   -8.5929   14.1480 H   0  0  0  0  0  0  0  0  0  0  0  0
   15.1979   -9.9603   11.6732 C   0  0  0  0  0  0  0  0  0  0  0  0
   16.7108  -10.2274   11.6036 C   0  0  0  0  0  0  0  0  0  0  0  0
   14.4695  -11.2800   11.9562 C   0  0  0  0  0  0  0  0  0  0  0  0
   19.7930   -7.7521   13.7147 C   0  0  0  0  0  0  0  0  0  0  0  0
   18.5425   -7.2360   13.2855 O   0  0  0  0  0  0  0  0  0  0  0  0
   12.2265   -8.5204   16.6866 C   0  0  0  0  0  0  0  0  0  0  0  0
   11.0984   -8.0103   15.7884 C   0  0  0  0  0  0  0  0  0  0  0  0
   11.3746   -7.3217   14.5833 C   0  0  0  0  0  0  0  0  0  0  0  0
   10.3132   -6.9054   13.7665 C   0  0  0  0  0  0  0  0  0  0  0  0
    9.7676   -8.2467   16.1563 C   0  0  0  0  0  0  0  0  0  0  0  0
    8.7467   -7.8019   15.3080 C   0  0  0  0  0  0  0  0  0  0  0  0
    8.9998   -7.0915   14.1367 C   0  0  0  0  0  0  0  0  0  0  0  0
    7.4382   -8.0217   15.6581 O   0  0  0  0  0  0  0  0  0  0  0  0
    7.2360   -8.4963   16.4403 H   0  0  0  0  0  0  0  0  0  0  0  0
 33 32  2  0  0  0
  6  4  1  0  0  0
  6  3  1  0  0  0
  4  2  1  0  0  0
 32  2  1  0  0  0
 32 31  1  0  0  0
 38 37  1  0  0  0
 42 31  1  0  0  0
 42 43  1  0  0  0
  2  1  1  0  0  0
  3  5  1  0  0  0
 30 31  1  0  0  0
 30 28  1  0  0  0
 43 44  2  0  0  0
 43 46  1  0  0  0
  5  1  1  0  0  0
  5 13  1  0  0  0
 39 37  1  0  0  0
 44 45  1  0  0  0
 37 27  1  0  0  0
 27 28  1  0  0  0
 27 26  1  0  0  0
 23  7  2  0  0  0
 28 29  2  0  0  0
 46 47  2  0  0  0
 45 48  2  0  0  0
 47 48  1  0  0  0
 47 49  1  0  0  0
 13 25  1  0  0  0
 13 24  2  0  0  0
  7 26  1  0  0  0
  7  8  1  0  0  0
 25 14  1  0  0  0
  8  9  1  0  0  0
  8 10  1  0  0  0
 14 15  1  0  0  0
 16 15  2  0  0  0
 16 17  1  0  0  0
 11 10  1  0  0  0
 11 12  1  0  0  0
 15 20  1  0  0  0
 10 41  1  0  0  0
 41 40  1  0  0  0
 21 17  1  0  0  0
 21 22  2  0  0  0
 17 18  2  0  0  0
 12 22  1  0  0  0
 20 19  2  0  0  0
 18 19  1  0  0  0
  1 34  1  0  0  0
 26 35  1  0  0  0
 30 36  1  0  0  0
 49 50  1  0  0  0
M  END
> <minimizedAffinity>
-6.41171

$$$$
5T9Z_78R_A_300


 50 53  0  0  0  0  0  0  0  0999 V2000
   16.3264   -9.8179   18.5312 N   0  0  0  0  0  0  0  0  0  0  0  0
   15.0151  -10.3542   18.3903 N   0  0  0  0  0  0  0  0  0  0  0  0
   15.7114   -8.9226   20.7439 C   0  0  0  0  0  0  0  0  0  0  0  0
   14.3878  -10.7980   19.6225 C   0  0  0  0  0  0  0  0  0  0  0  0
   16.3361   -8.6251   19.3829 C   0  0  0  0  0  0  0  0  0  0  0  0
   14.3044   -9.5380   20.5232 C   0  0  0  0  0  0  0  0  0  0  0  0
   16.2196  -10.7998   11.2549 C   0  0  0  0  0  0  0  0  0  0  0  0
   17.3823  -10.5151   10.2865 C   0  0  0  0  0  0  0  0  0  0  0  0
   17.1583  -11.3554    9.0267 C   0  0  0  0  0  0  0  0  0  0  0  0
   18.7520  -10.7545   10.9482 C   0  0  0  0  0  0  0  0  0  0  0  0
   18.8028   -9.9440   12.2605 C   0  0  0  0  0  0  0  0  0  0  0  0
   20.0465   -9.0985   12.2790 C   0  0  0  0  0  0  0  0  0  0  0  0
   17.7902   -8.2803   19.5668 C   0  0  0  0  0  0  0  0  0  0  0  0
   19.4011   -6.6405   19.3240 C   0  0  0  0  0  0  0  0  0  0  0  0
   20.3205   -7.1490   18.2395 C   0  0  0  0  0  0  0  0  0  0  0  0
   19.8208   -7.5300   17.0038 C   0  0  0  0  0  0  0  0  0  0  0  0
   20.6047   -7.9648   15.9608 C   0  0  0  0  0  0  0  0  0  0  0  0
   21.9653   -8.0954   16.2003 C   0  0  0  0  0  0  0  0  0  0  0  0
   22.4800   -7.7426   17.4442 C   0  0  0  0  0  0  0  0  0  0  0  0
   21.7064   -7.2597   18.5019 C   0  0  0  0  0  0  0  0  0  0  0  0
   19.9298   -8.3471   14.6964 C   0  0  0  0  0  0  0  0  0  0  0  0
   20.6075   -8.7596   13.6285 C   0  0  0  0  0  0  0  0  0  0  0  0
   15.2683  -10.0414   11.3547 O   0  0  0  0  0  0  0  0  0  0  0  0
   18.6621   -8.9547   20.0022 O   0  0  0  0  0  0  0  0  0  0  0  0
   18.0055   -7.0160   19.1716 O   0  0  0  0  0  0  0  0  0  0  0  0
   16.3662  -11.9392   12.0612 N   0  0  0  0  0  0  0  0  0  0  0  0
   15.2986  -12.2299   13.0353 C   0  0  0  0  0  0  0  0  0  0  0  0
   15.6734  -11.5852   14.3985 C   0  0  0  0  0  0  0  0  0  0  0  0
   16.6734  -11.9871   15.0171 O   0  0  0  0  0  0  0  0  0  0  0  0
   14.8831  -10.5560   14.7610 N   0  0  0  0  0  0  0  0  0  0  0  0
   15.1998   -9.8293   15.9651 C   0  0  0  0  0  0  0  0  0  0  0  0
   14.4395  -10.4143   17.1611 C   0  0  0  0  0  0  0  0  0  0  0  0
   13.2931  -10.8783   17.0557 O   0  0  0  0  0  0  0  0  0  0  0  0
   16.6821   -9.5680   17.6085 H   0  0  0  0  0  0  0  0  0  0  0  0
   17.1541  -12.5237   11.9791 H   0  0  0  0  0  0  0  0  0  0  0  0
   14.1040  -10.3050   14.2139 H   0  0  0  0  0  0  0  0  0  0  0  0
   15.0188  -13.7266   13.1500 C   0  0  0  0  0  0  0  0  0  0  0  0
   13.6646  -14.0585   12.5011 C   0  0  0  0  0  0  0  0  0  0  0  0
   16.1078  -14.5935   12.5057 C   0  0  0  0  0  0  0  0  0  0  0  0
   20.1008  -12.8318   10.8738 C   0  0  0  0  0  0  0  0  0  0  0  0
   18.8966  -12.1646   11.2187 O   0  0  0  0  0  0  0  0  0  0  0  0
   14.7336   -8.3681   15.8409 C   0  0  0  0  0  0  0  0  0  0  0  0
   15.7570   -7.4303   15.1985 C   0  0  0  0  0  0  0  0  0  0  0  0
   16.4227   -6.4395   15.9588 C   0  0  0  0  0  0  0  0  0  0  0  0
   17.3844   -5.6258   15.3424 C   0  0  0  0  0  0  0  0  0  0  0  0
   16.0548   -7.5683   13.8368 C   0  0  0  0  0  0  0  0  0  0  0  0
   17.0171   -6.7238   13.2704 C   0  0  0  0  0  0  0  0  0  0  0  0
   17.6554   -5.7201   13.9955 C   0  0  0  0  0  0  0  0  0  0  0  0
   17.3153   -6.8439   11.9364 O   0  0  0  0  0  0  0  0  0  0  0  0
   16.9022   -7.5093   11.4221 H   0  0  0  0  0  0  0  0  0  0  0  0
 33 32  2  0  0  0
  6  4  1  0  0  0
  6  3  1  0  0  0
  4  2  1  0  0  0
 32  2  1  0  0  0
 32 31  1  0  0  0
 38 37  1  0  0  0
 42 31  1  0  0  0
 42 43  1  0  0  0
  2  1  1  0  0  0
  3  5  1  0  0  0
 30 31  1  0  0  0
 30 28  1  0  0  0
 43 44  2  0  0  0
 43 46  1  0  0  0
  5  1  1  0  0  0
  5 13  1  0  0  0
 39 37  1  0  0  0
 44 45  1  0  0  0
 37 27  1  0  0  0
 27 28  1  0  0  0
 27 26  1  0  0  0
 23  7  2  0  0  0
 28 29  2  0  0  0
 46 47  2  0  0  0
 45 48  2  0  0  0
 47 48  1  0  0  0
 47 49  1  0  0  0
 13 25  1  0  0  0
 13 24  2  0  0  0
  7 26  1  0  0  0
  7  8  1  0  0  0
 25 14  1  0  0  0
  8  9  1  0  0  0
  8 10  1  0  0  0
 14 15  1  0  0  0
 16 15  2  0  0  0
 16 17  1  0  0  0
 11 10  1  0  0  0
 11 12  1  0  0  0
 15 20  1  0  0  0
 10 41  1  0  0  0
 41 40  1  0  0  0
 21 17  1  0  0  0
 21 22  2  0  0  0
 17 18  2  0  0  0
 12 22  1  0  0  0
 20 19  2  0  0  0
 18 19  1  0  0  0
  1 34  1  0  0  0
 26 35  1  0  0  0
 30 36  1  0  0  0
 49 50  1  0  0  0
M  END
> <minimizedAffinity>
-6.40783

$$$$
5T9Z_78R_A_300


 50 53  0  0  0  0  0  0  0  0999 V2000
   20.0461   -8.4302   17.7207 N   0  0  0  0  0  0  0  0  0  0  0  0
   19.5130   -7.8553   18.9091 N   0  0  0  0  0  0  0  0  0  0  0  0
   22.2311   -7.4020   18.2158 C   0  0  0  0  0  0  0  0  0  0  0  0
   20.4468   -7.7312   20.0143 C   0  0  0  0  0  0  0  0  0  0  0  0
   21.1398   -7.6238   17.1713 C   0  0  0  0  0  0  0  0  0  0  0  0
   21.5835   -6.8118   19.4963 C   0  0  0  0  0  0  0  0  0  0  0  0
   12.8858   -8.9169   16.1674 C   0  0  0  0  0  0  0  0  0  0  0  0
   12.2757   -9.5413   14.8990 C   0  0  0  0  0  0  0  0  0  0  0  0
   10.8342   -9.9423   15.2221 C   0  0  0  0  0  0  0  0  0  0  0  0
   13.1309  -10.7045   14.3637 C   0  0  0  0  0  0  0  0  0  0  0  0
   14.5794  -10.2002   14.1921 C   0  0  0  0  0  0  0  0  0  0  0  0
   15.0557  -10.5100   12.7996 C   0  0  0  0  0  0  0  0  0  0  0  0
   21.6979   -8.4350   16.0322 C   0  0  0  0  0  0  0  0  0  0  0  0
   22.1912   -8.4541   13.7740 C   0  0  0  0  0  0  0  0  0  0  0  0
   21.2320   -9.4516   13.1697 C   0  0  0  0  0  0  0  0  0  0  0  0
   19.8652   -9.3359   13.3704 C   0  0  0  0  0  0  0  0  0  0  0  0
   18.9348  -10.1852   12.8187 C   0  0  0  0  0  0  0  0  0  0  0  0
   19.4134  -11.2597   12.0824 C   0  0  0  0  0  0  0  0  0  0  0  0
   20.7843  -11.4058   11.8935 C   0  0  0  0  0  0  0  0  0  0  0  0
   21.7423  -10.5307   12.4103 C   0  0  0  0  0  0  0  0  0  0  0  0
   17.5041   -9.9438   13.1273 C   0  0  0  0  0  0  0  0  0  0  0  0
   16.5334  -10.7008   12.6228 C   0  0  0  0  0  0  0  0  0  0  0  0
   12.9634   -7.7073   16.3126 O   0  0  0  0  0  0  0  0  0  0  0  0
   22.1318   -9.5377   16.0509 O   0  0  0  0  0  0  0  0  0  0  0  0
   21.6679   -7.7068   14.9052 O   0  0  0  0  0  0  0  0  0  0  0  0
   13.4107   -9.8256   17.0993 N   0  0  0  0  0  0  0  0  0  0  0  0
   14.0446   -9.2739   18.3105 C   0  0  0  0  0  0  0  0  0  0  0  0
   15.5691   -9.1188   18.0533 C   0  0  0  0  0  0  0  0  0  0  0  0
   16.2681  -10.1278   17.8596 O   0  0  0  0  0  0  0  0  0  0  0  0
   15.9936   -7.8417   17.9906 N   0  0  0  0  0  0  0  0  0  0  0  0
   17.3746   -7.5852   17.6659 C   0  0  0  0  0  0  0  0  0  0  0  0
   18.2128   -7.4626   18.9438 C   0  0  0  0  0  0  0  0  0  0  0  0
   17.7648   -6.9570   19.9850 O   0  0  0  0  0  0  0  0  0  0  0  0
   19.3037   -8.4983   17.0247 H   0  0  0  0  0  0  0  0  0  0  0  0
   13.3574  -10.7972   16.9494 H   0  0  0  0  0  0  0  0  0  0  0  0
   15.3724   -7.0977   18.1632 H   0  0  0  0  0  0  0  0  0  0  0  0
   13.7398  -10.1122   19.5499 C   0  0  0  0  0  0  0  0  0  0  0  0
   14.5276   -9.5723   20.7553 C   0  0  0  0  0  0  0  0  0  0  0  0
   12.2473  -10.1451   19.9020 C   0  0  0  0  0  0  0  0  0  0  0  0
   12.9812  -13.1294   14.8513 C   0  0  0  0  0  0  0  0  0  0  0  0
   13.0827  -11.7909   15.3123 O   0  0  0  0  0  0  0  0  0  0  0  0
   17.5071   -6.2341   16.9415 C   0  0  0  0  0  0  0  0  0  0  0  0
   17.2554   -6.2975   15.4342 C   0  0  0  0  0  0  0  0  0  0  0  0
   18.3147   -6.1533   14.5069 C   0  0  0  0  0  0  0  0  0  0  0  0
   18.0497   -6.2582   13.1336 C   0  0  0  0  0  0  0  0  0  0  0  0
   15.9551   -6.5220   14.9641 C   0  0  0  0  0  0  0  0  0  0  0  0
   15.7457   -6.6094   13.5826 C   0  0  0  0  0  0  0  0  0  0  0  0
   16.7704   -6.4343   12.6553 C   0  0  0  0  0  0  0  0  0  0  0  0
   14.4764   -6.8237   13.1074 O   0  0  0  0  0  0  0  0  0  0  0  0
   13.7662   -6.9450   13.7064 H   0  0  0  0  0  0  0  0  0  0  0  0
 33 32  2  0  0  0
  6  4  1  0  0  0
  6  3  1  0  0  0
  4  2  1  0  0  0
 32  2  1  0  0  0
 32 31  1  0  0  0
 38 37  1  0  0  0
 42 31  1  0  0  0
 42 43  1  0  0  0
  2  1  1  0  0  0
  3  5  1  0  0  0
 30 31  1  0  0  0
 30 28  1  0  0  0
 43 44  2  0  0  0
 43 46  1  0  0  0
  5  1  1  0  0  0
  5 13  1  0  0  0
 39 37  1  0  0  0
 44 45  1  0  0  0
 37 27  1  0  0  0
 27 28  1  0  0  0
 27 26  1  0  0  0
 23  7  2  0  0  0
 28 29  2  0  0  0
 46 47  2  0  0  0
 45 48  2  0  0  0
 47 48  1  0  0  0
 47 49  1  0  0  0
 13 25  1  0  0  0
 13 24  2  0  0  0
  7 26  1  0  0  0
  7  8  1  0  0  0
 25 14  1  0  0  0
  8  9  1  0  0  0
  8 10  1  0  0  0
 14 15  1  0  0  0
 16 15  2  0  0  0
 16 17  1  0  0  0
 11 10  1  0  0  0
 11 12  1  0  0  0
 15 20  1  0  0  0
 10 41  1  0  0  0
 41 40  1  0  0  0
 21 17  1  0  0  0
 21 22  2  0  0  0
 17 18  2  0  0  0
 12 22  1  0  0  0
 20 19  2  0  0  0
 18 19  1  0  0  0
  1 34  1  0  0  0
 26 35  1  0  0  0
 30 36  1  0  0  0
 49 50  1  0  0  0
M  END
> <minimizedAffinity>
-6.40765

$$$$
5T9Z_78R_A_300


 50 53  0  0  0  0  0  0  0  0999 V2000
   12.9224   -8.3949   17.4145 N   0  0  0  0  0  0  0  0  0  0  0  0
   12.2898   -9.1296   18.4570 N   0  0  0  0  0  0  0  0  0  0  0  0
   10.8754   -8.5825   16.0542 C   0  0  0  0  0  0  0  0  0  0  0  0
   10.8585   -8.9211   18.5863 C   0  0  0  0  0  0  0  0  0  0  0  0
   12.3917   -8.7562   16.0969 C   0  0  0  0  0  0  0  0  0  0  0  0
   10.2493   -9.3729   17.2334 C   0  0  0  0  0  0  0  0  0  0  0  0
   18.8724  -10.4750   21.1816 C   0  0  0  0  0  0  0  0  0  0  0  0
   20.3289  -10.0998   20.8516 C   0  0  0  0  0  0  0  0  0  0  0  0
   21.1502  -10.2395   22.1359 C   0  0  0  0  0  0  0  0  0  0  0  0
   20.4303   -8.7050   20.2072 C   0  0  0  0  0  0  0  0  0  0  0  0
   19.4714   -8.6603   18.9987 C   0  0  0  0  0  0  0  0  0  0  0  0
   20.2211   -8.1921   17.7819 C   0  0  0  0  0  0  0  0  0  0  0  0
   13.0310   -7.7920   15.1333 C   0  0  0  0  0  0  0  0  0  0  0  0
   14.3122   -7.5838   13.2206 C   0  0  0  0  0  0  0  0  0  0  0  0
   15.6198   -6.9884   13.6853 C   0  0  0  0  0  0  0  0  0  0  0  0
   16.3515   -7.5837   14.7011 C   0  0  0  0  0  0  0  0  0  0  0  0
   17.5662   -7.1169   15.1458 C   0  0  0  0  0  0  0  0  0  0  0  0
   18.0371   -5.9376   14.5862 C   0  0  0  0  0  0  0  0  0  0  0  0
   17.3018   -5.3125   13.5836 C   0  0  0  0  0  0  0  0  0  0  0  0
   16.0872   -5.7933   13.0895 C   0  0  0  0  0  0  0  0  0  0  0  0
   18.2326   -7.8532   16.2478 C   0  0  0  0  0  0  0  0  0  0  0  0
   19.4178   -7.4873   16.7287 C   0  0  0  0  0  0  0  0  0  0  0  0
   18.4205  -11.5789   20.9222 O   0  0  0  0  0  0  0  0  0  0  0  0
   13.0026   -6.6073   15.1424 O   0  0  0  0  0  0  0  0  0  0  0  0
   13.6713   -8.4758   14.1721 O   0  0  0  0  0  0  0  0  0  0  0  0
   18.0883   -9.4452   21.7242 N   0  0  0  0  0  0  0  0  0  0  0  0
   16.6746   -9.7436   22.0168 C   0  0  0  0  0  0  0  0  0  0  0  0
   15.8122   -9.3449   20.7873 C   0  0  0  0  0  0  0  0  0  0  0  0
   15.7363   -8.1521   20.4473 O   0  0  0  0  0  0  0  0  0  0  0  0
   15.2621  -10.3873   20.1345 N   0  0  0  0  0  0  0  0  0  0  0  0
   14.5175  -10.1339   18.9264 C   0  0  0  0  0  0  0  0  0  0  0  0
   13.0271   -9.9591   19.2409 C   0  0  0  0  0  0  0  0  0  0  0  0
   12.4598  -10.5979   20.1412 O   0  0  0  0  0  0  0  0  0  0  0  0
   13.9233   -8.5905   17.4327 H   0  0  0  0  0  0  0  0  0  0  0  0
   18.4689   -8.5551   21.9032 H   0  0  0  0  0  0  0  0  0  0  0  0
   15.3667  -11.3047   20.4762 H   0  0  0  0  0  0  0  0  0  0  0  0
   16.2028   -9.0767   23.3069 C   0  0  0  0  0  0  0  0  0  0  0  0
   15.5075  -10.1107   24.2082 C   0  0  0  0  0  0  0  0  0  0  0  0
   17.3409   -8.4133   24.0925 C   0  0  0  0  0  0  0  0  0  0  0  0
   20.8549   -6.5524   21.3589 C   0  0  0  0  0  0  0  0  0  0  0  0
   20.0564   -7.7130   21.1863 O   0  0  0  0  0  0  0  0  0  0  0  0
   14.6115  -11.3449   17.9815 C   0  0  0  0  0  0  0  0  0  0  0  0
   15.7717  -11.2821   16.9868 C   0  0  0  0  0  0  0  0  0  0  0  0
   17.1134  -11.4205   17.4150 C   0  0  0  0  0  0  0  0  0  0  0  0
   18.1469  -11.3980   16.4672 C   0  0  0  0  0  0  0  0  0  0  0  0
   15.4990  -11.1041   15.6244 C   0  0  0  0  0  0  0  0  0  0  0  0
   16.5694  -11.0808   14.7223 C   0  0  0  0  0  0  0  0  0  0  0  0
   17.8976  -11.1795   15.1305 C   0  0  0  0  0  0  0  0  0  0  0  0
   16.3179  -10.9018   13.3853 O   0  0  0  0  0  0  0  0  0  0  0  0
   15.4348  -10.8319   13.0800 H   0  0  0  0  0  0  0  0  0  0  0  0
 33 32  2  0  0  0
  6  4  1  0  0  0
  6  3  1  0  0  0
  4  2  1  0  0  0
 32  2  1  0  0  0
 32 31  1  0  0  0
 38 37  1  0  0  0
 42 31  1  0  0  0
 42 43  1  0  0  0
  2  1  1  0  0  0
  3  5  1  0  0  0
 30 31  1  0  0  0
 30 28  1  0  0  0
 43 44  2  0  0  0
 43 46  1  0  0  0
  5  1  1  0  0  0
  5 13  1  0  0  0
 39 37  1  0  0  0
 44 45  1  0  0  0
 37 27  1  0  0  0
 27 28  1  0  0  0
 27 26  1  0  0  0
 23  7  2  0  0  0
 28 29  2  0  0  0
 46 47  2  0  0  0
 45 48  2  0  0  0
 47 48  1  0  0  0
 47 49  1  0  0  0
 13 25  1  0  0  0
 13 24  2  0  0  0
  7 26  1  0  0  0
  7  8  1  0  0  0
 25 14  1  0  0  0
  8  9  1  0  0  0
  8 10  1  0  0  0
 14 15  1  0  0  0
 16 15  2  0  0  0
 16 17  1  0  0  0
 11 10  1  0  0  0
 11 12  1  0  0  0
 15 20  1  0  0  0
 10 41  1  0  0  0
 41 40  1  0  0  0
 21 17  1  0  0  0
 21 22  2  0  0  0
 17 18  2  0  0  0
 12 22  1  0  0  0
 20 19  2  0  0  0
 18 19  1  0  0  0
  1 34  1  0  0  0
 26 35  1  0  0  0
 30 36  1  0  0  0
 49 50  1  0  0  0
M  END
> <minimizedAffinity>
-6.33415

$$$$
