1AMW_ADP_A_300


 34 36  0  0  0  0  0  0  0  0999 V2000
   15.1841   -4.2663   -7.2130 C   0  0  0  0  0  0  0  0  0  0  0  0
   15.5730   -4.3979   -5.8287 O   0  0  0  0  0  0  0  0  0  0  0  0
   13.6660   -4.1781   -7.2322 C   0  0  0  0  0  0  0  0  0  0  0  0
   13.0641   -4.7930   -8.3734 O   0  0  0  0  0  0  0  0  0  0  0  0
   13.2483   -4.8477   -5.9552 C   0  0  0  0  0  0  0  0  0  0  0  0
   13.0323   -6.2510   -6.1216 O   0  0  0  0  0  0  0  0  0  0  0  0
   14.3951   -4.5460   -5.0164 C   0  0  0  0  0  0  0  0  0  0  0  0
   13.3038   -5.7326   -8.3986 H   0  0  0  0  0  0  0  0  0  0  0  0
   13.8428   -6.6653   -6.4567 H   0  0  0  0  0  0  0  0  0  0  0  0
   14.0883   -3.3797   -4.1165 N   0  0  0  0  0  0  0  0  0  0  0  0
   14.5439   -2.1192   -4.2032 C   0  0  0  0  0  0  0  0  0  0  0  0
   14.0210   -1.3998   -3.1934 N   0  0  0  0  0  0  0  0  0  0  0  0
   13.2478   -2.1937   -2.4710 C   0  0  0  0  0  0  0  0  0  0  0  0
   12.4402   -2.0647   -1.3205 C   0  0  0  0  0  0  0  0  0  0  0  0
   12.3359   -0.8825   -0.6822 N   0  0  0  0  0  0  0  0  0  0  0  0
   11.7506   -3.1514   -0.8380 N   0  0  0  0  0  0  0  0  0  0  0  0
   11.8168   -4.3629   -1.4366 C   0  0  0  0  0  0  0  0  0  0  0  0
   12.5794   -4.4956   -2.5400 N   0  0  0  0  0  0  0  0  0  0  0  0
   13.2931   -3.4655   -3.0749 C   0  0  0  0  0  0  0  0  0  0  0  0
   12.8249   -0.0969   -1.0181 H   0  0  0  0  0  0  0  0  0  0  0  0
   11.7706   -0.8045    0.1200 H   0  0  0  0  0  0  0  0  0  0  0  0
   15.9848   -3.1231   -7.8701 C   0  0  0  0  0  0  0  0  0  0  0  0
   17.3565   -3.1951   -7.5517 O   0  0  0  0  0  0  0  0  0  0  0  0
   18.0556   -1.8997   -6.8962 P   0  0  0  0  0  0  0  0  0  0  0  0
   17.1303   -0.7463   -6.8224 O   0  0  0  0  0  0  0  0  0  0  0  0
   19.3181   -1.5513   -7.5985 O   0  0  0  0  0  0  0  0  0  0  0  0
   19.7145   -0.7699   -7.1824 H   0  0  0  0  0  0  0  0  0  0  0  0
   18.3531   -2.3976   -5.4653 O   0  0  0  0  0  0  0  0  0  0  0  0
   19.2337   -3.5800   -4.9963 P   0  0  0  0  0  0  0  0  0  0  0  0
   19.5855   -3.4366   -3.5135 O   0  0  0  0  0  0  0  0  0  0  0  0
   18.2460   -4.8767   -5.2838 O   0  0  0  0  0  0  0  0  0  0  0  0
   20.4833   -3.6259   -5.8543 O   0  0  0  0  0  0  0  0  0  0  0  0
   18.7002   -5.6932   -5.0231 H   0  0  0  0  0  0  0  0  0  0  0  0
   21.0442   -4.3642   -5.5694 H   0  0  0  0  0  0  0  0  0  0  0  0
 29 30  2  0  0  0
 29 31  1  0  0  0
 29 32  1  0  0  0
 29 28  1  0  0  0
 24 25  2  0  0  0
 24 26  1  0  0  0
 24 28  1  0  0  0
 24 23  1  0  0  0
 23 22  1  0  0  0
 22  1  1  0  0  0
  1  2  1  0  0  0
  1  3  1  0  0  0
  2  7  1  0  0  0
  3  4  1  0  0  0
  3  5  1  0  0  0
  5  6  1  0  0  0
  5  7  1  0  0  0
  7 10  1  0  0  0
 10 11  1  0  0  0
 10 19  1  0  0  0
 11 12  2  0  0  0
 12 13  1  0  0  0
 13 14  1  0  0  0
 13 19  2  0  0  0
 14 15  1  0  0  0
 14 16  2  0  0  0
 16 17  1  0  0  0
 17 18  2  0  0  0
 18 19  1  0  0  0
 31 33  1  0  0  0
 32 34  1  0  0  0
 26 27  1  0  0  0
  4  8  1  0  0  0
  6  9  1  0  0  0
 15 20  1  0  0  0
 15 21  1  0  0  0
M  END
> <minimizedAffinity>
-8.03743

$$$$
1AMW_ADP_A_300


 34 36  0  0  0  0  0  0  0  0999 V2000
   15.1804   -2.3706   -5.4203 C   0  0  0  0  0  0  0  0  0  0  0  0
   16.3302   -2.1590   -4.5729 O   0  0  0  0  0  0  0  0  0  0  0  0
   15.7153   -2.7272   -6.7986 C   0  0  0  0  0  0  0  0  0  0  0  0
   14.9123   -2.2398   -7.8759 O   0  0  0  0  0  0  0  0  0  0  0  0
   17.0926   -2.1306   -6.8179 C   0  0  0  0  0  0  0  0  0  0  0  0
   17.0982   -0.7896   -7.3133 O   0  0  0  0  0  0  0  0  0  0  0  0
   17.5255   -2.2150   -5.3713 C   0  0  0  0  0  0  0  0  0  0  0  0
   14.8549   -1.2728   -7.8246 H   0  0  0  0  0  0  0  0  0  0  0  0
   16.5132   -0.2410   -6.7677 H   0  0  0  0  0  0  0  0  0  0  0  0
   18.4065   -3.4087   -5.1205 N   0  0  0  0  0  0  0  0  0  0  0  0
   19.2725   -3.9957   -5.9627 C   0  0  0  0  0  0  0  0  0  0  0  0
   19.8509   -5.0351   -5.3335 N   0  0  0  0  0  0  0  0  0  0  0  0
   19.3550   -5.1113   -4.1095 C   0  0  0  0  0  0  0  0  0  0  0  0
   19.5345   -5.9430   -2.9832 C   0  0  0  0  0  0  0  0  0  0  0  0
   20.4037   -6.9721   -3.0193 N   0  0  0  0  0  0  0  0  0  0  0  0
   18.8181   -5.7093   -1.8336 N   0  0  0  0  0  0  0  0  0  0  0  0
   17.9316   -4.6917   -1.7386 C   0  0  0  0  0  0  0  0  0  0  0  0
   17.7576   -3.8871   -2.8058 N   0  0  0  0  0  0  0  0  0  0  0  0
   18.4292   -4.0578   -3.9790 C   0  0  0  0  0  0  0  0  0  0  0  0
   20.9226   -7.1497   -3.8369 H   0  0  0  0  0  0  0  0  0  0  0  0
   20.5199   -7.5464   -2.2281 H   0  0  0  0  0  0  0  0  0  0  0  0
   14.2106   -3.3594   -4.7411 C   0  0  0  0  0  0  0  0  0  0  0  0
   13.3358   -2.7050   -3.8497 O   0  0  0  0  0  0  0  0  0  0  0  0
   13.6470   -2.7973   -2.2714 P   0  0  0  0  0  0  0  0  0  0  0  0
   12.8514   -1.8233   -1.4901 O   0  0  0  0  0  0  0  0  0  0  0  0
   15.1019   -2.6687   -1.9973 O   0  0  0  0  0  0  0  0  0  0  0  0
   15.2574   -2.7279   -1.0417 H   0  0  0  0  0  0  0  0  0  0  0  0
   13.1591   -4.2245   -1.9412 O   0  0  0  0  0  0  0  0  0  0  0  0
   11.7239   -4.7399   -1.6808 P   0  0  0  0  0  0  0  0  0  0  0  0
   11.7224   -6.2579   -1.4841 O   0  0  0  0  0  0  0  0  0  0  0  0
   11.3150   -3.9281   -0.2975 O   0  0  0  0  0  0  0  0  0  0  0  0
   10.8434   -4.3374   -2.8482 O   0  0  0  0  0  0  0  0  0  0  0  0
   10.4157   -4.1755   -0.0312 H   0  0  0  0  0  0  0  0  0  0  0  0
    9.9397   -4.6554   -2.6963 H   0  0  0  0  0  0  0  0  0  0  0  0
 29 30  2  0  0  0
 29 31  1  0  0  0
 29 32  1  0  0  0
 29 28  1  0  0  0
 24 25  2  0  0  0
 24 26  1  0  0  0
 24 28  1  0  0  0
 24 23  1  0  0  0
 23 22  1  0  0  0
 22  1  1  0  0  0
  1  2  1  0  0  0
  1  3  1  0  0  0
  2  7  1  0  0  0
  3  4  1  0  0  0
  3  5  1  0  0  0
  5  6  1  0  0  0
  5  7  1  0  0  0
  7 10  1  0  0  0
 10 11  1  0  0  0
 10 19  1  0  0  0
 11 12  2  0  0  0
 12 13  1  0  0  0
 13 14  1  0  0  0
 13 19  2  0  0  0
 14 15  1  0  0  0
 14 16  2  0  0  0
 16 17  1  0  0  0
 17 18  2  0  0  0
 18 19  1  0  0  0
 31 33  1  0  0  0
 32 34  1  0  0  0
 26 27  1  0  0  0
  4  8  1  0  0  0
  6  9  1  0  0  0
 15 20  1  0  0  0
 15 21  1  0  0  0
M  END
> <minimizedAffinity>
-8.02179

$$$$
1AMW_ADP_A_300


 34 36  0  0  0  0  0  0  0  0999 V2000
   12.5879   -3.5320   -3.2855 C   0  0  0  0  0  0  0  0  0  0  0  0
   13.8374   -3.8650   -2.6432 O   0  0  0  0  0  0  0  0  0  0  0  0
   12.7145   -2.0943   -3.7649 C   0  0  0  0  0  0  0  0  0  0  0  0
   11.4938   -1.3533   -3.7041 O   0  0  0  0  0  0  0  0  0  0  0  0
   13.7670   -1.5059   -2.8708 C   0  0  0  0  0  0  0  0  0  0  0  0
   13.2130   -0.9192   -1.6907 O   0  0  0  0  0  0  0  0  0  0  0  0
   14.6600   -2.6875   -2.5651 C   0  0  0  0  0  0  0  0  0  0  0  0
   11.1750   -1.3302   -2.7883 H   0  0  0  0  0  0  0  0  0  0  0  0
   12.7084   -1.5889   -1.2030 H   0  0  0  0  0  0  0  0  0  0  0  0
   15.8841   -2.7037   -3.4401 N   0  0  0  0  0  0  0  0  0  0  0  0
   16.1034   -2.0237   -4.5774 C   0  0  0  0  0  0  0  0  0  0  0  0
   17.3292   -2.3341   -5.0375 N   0  0  0  0  0  0  0  0  0  0  0  0
   17.8797   -3.2041   -4.2070 C   0  0  0  0  0  0  0  0  0  0  0  0
   19.1049   -3.8994   -4.1183 C   0  0  0  0  0  0  0  0  0  0  0  0
   20.0581   -3.7362   -5.0568 N   0  0  0  0  0  0  0  0  0  0  0  0
   19.3364   -4.7554   -3.0681 N   0  0  0  0  0  0  0  0  0  0  0  0
   18.4170   -4.9593   -2.0967 C   0  0  0  0  0  0  0  0  0  0  0  0
   17.2464   -4.2951   -2.1676 N   0  0  0  0  0  0  0  0  0  0  0  0
   16.9445   -3.4332   -3.1788 C   0  0  0  0  0  0  0  0  0  0  0  0
   19.9041   -3.1259   -5.8138 H   0  0  0  0  0  0  0  0  0  0  0  0
   20.9084   -4.2272   -4.9854 H   0  0  0  0  0  0  0  0  0  0  0  0
   12.2351   -4.6146   -4.3262 C   0  0  0  0  0  0  0  0  0  0  0  0
   12.3361   -4.1252   -5.6447 O   0  0  0  0  0  0  0  0  0  0  0  0
   13.2974   -4.9059   -6.6757 P   0  0  0  0  0  0  0  0  0  0  0  0
   12.5714   -5.3451   -7.8889 O   0  0  0  0  0  0  0  0  0  0  0  0
   13.9998   -6.0354   -6.0128 O   0  0  0  0  0  0  0  0  0  0  0  0
   14.5693   -6.4846   -6.6569 H   0  0  0  0  0  0  0  0  0  0  0  0
   14.3011   -3.7988   -7.0640 O   0  0  0  0  0  0  0  0  0  0  0  0
   15.5522   -3.8765   -7.9708 P   0  0  0  0  0  0  0  0  0  0  0  0
   16.0931   -2.4754   -8.2663 O   0  0  0  0  0  0  0  0  0  0  0  0
   16.5929   -4.7673   -7.0418 O   0  0  0  0  0  0  0  0  0  0  0  0
   15.1813   -4.6020   -9.2499 O   0  0  0  0  0  0  0  0  0  0  0  0
   17.4306   -4.8844   -7.5164 H   0  0  0  0  0  0  0  0  0  0  0  0
   15.9586   -4.6571   -9.8274 H   0  0  0  0  0  0  0  0  0  0  0  0
 29 30  2  0  0  0
 29 31  1  0  0  0
 29 32  1  0  0  0
 29 28  1  0  0  0
 24 25  2  0  0  0
 24 26  1  0  0  0
 24 28  1  0  0  0
 24 23  1  0  0  0
 23 22  1  0  0  0
 22  1  1  0  0  0
  1  2  1  0  0  0
  1  3  1  0  0  0
  2  7  1  0  0  0
  3  4  1  0  0  0
  3  5  1  0  0  0
  5  6  1  0  0  0
  5  7  1  0  0  0
  7 10  1  0  0  0
 10 11  1  0  0  0
 10 19  1  0  0  0
 11 12  2  0  0  0
 12 13  1  0  0  0
 13 14  1  0  0  0
 13 19  2  0  0  0
 14 15  1  0  0  0
 14 16  2  0  0  0
 16 17  1  0  0  0
 17 18  2  0  0  0
 18 19  1  0  0  0
 31 33  1  0  0  0
 32 34  1  0  0  0
 26 27  1  0  0  0
  4  8  1  0  0  0
  6  9  1  0  0  0
 15 20  1  0  0  0
 15 21  1  0  0  0
M  END
> <minimizedAffinity>
-7.90389

$$$$
1AMW_ADP_A_300


 34 36  0  0  0  0  0  0  0  0999 V2000
   13.0066   -1.7516   -5.6897 C   0  0  0  0  0  0  0  0  0  0  0  0
   14.2924   -1.4887   -6.2918 O   0  0  0  0  0  0  0  0  0  0  0  0
   12.7934   -3.2559   -5.7581 C   0  0  0  0  0  0  0  0  0  0  0  0
   11.4311   -3.6398   -5.9568 O   0  0  0  0  0  0  0  0  0  0  0  0
   13.6662   -3.6938   -6.8982 C   0  0  0  0  0  0  0  0  0  0  0  0
   12.9759   -3.6770   -8.1499 O   0  0  0  0  0  0  0  0  0  0  0  0
   14.8109   -2.7064   -6.8554 C   0  0  0  0  0  0  0  0  0  0  0  0
   11.1058   -3.2593   -6.7877 H   0  0  0  0  0  0  0  0  0  0  0  0
   12.6395   -2.7836   -8.3217 H   0  0  0  0  0  0  0  0  0  0  0  0
   16.0133   -3.2752   -6.1518 N   0  0  0  0  0  0  0  0  0  0  0  0
   16.0546   -4.2562   -5.2355 C   0  0  0  0  0  0  0  0  0  0  0  0
   17.3339   -4.4488   -4.8653 N   0  0  0  0  0  0  0  0  0  0  0  0
   18.0951   -3.5978   -5.5332 C   0  0  0  0  0  0  0  0  0  0  0  0
   19.4721   -3.2956   -5.6047 C   0  0  0  0  0  0  0  0  0  0  0  0
   20.3637   -3.9661   -4.8489 N   0  0  0  0  0  0  0  0  0  0  0  0
   19.9172   -2.3074   -6.4501 N   0  0  0  0  0  0  0  0  0  0  0  0
   19.0690   -1.6010   -7.2325 C   0  0  0  0  0  0  0  0  0  0  0  0
   17.7529   -1.8861   -7.1774 N   0  0  0  0  0  0  0  0  0  0  0  0
   17.2375   -2.8490   -6.3627 C   0  0  0  0  0  0  0  0  0  0  0  0
   20.0573   -4.6760   -4.2395 H   0  0  0  0  0  0  0  0  0  0  0  0
   21.3216   -3.7460   -4.9061 H   0  0  0  0  0  0  0  0  0  0  0  0
   12.9324   -1.0712   -4.3073 C   0  0  0  0  0  0  0  0  0  0  0  0
   12.4534   -1.9519   -3.3159 O   0  0  0  0  0  0  0  0  0  0  0  0
   13.4734   -2.4292   -2.1633 P   0  0  0  0  0  0  0  0  0  0  0  0
   13.2150   -1.7469   -0.8751 O   0  0  0  0  0  0  0  0  0  0  0  0
   14.8875   -2.2787   -2.5946 O   0  0  0  0  0  0  0  0  0  0  0  0
   15.4759   -2.5731   -1.8819 H   0  0  0  0  0  0  0  0  0  0  0  0
   13.1074   -3.9226   -2.0232 O   0  0  0  0  0  0  0  0  0  0  0  0
   11.7354   -4.5787   -1.7391 P   0  0  0  0  0  0  0  0  0  0  0  0
   11.9085   -6.0532   -1.3666 O   0  0  0  0  0  0  0  0  0  0  0  0
   11.1794   -3.6726   -0.4704 O   0  0  0  0  0  0  0  0  0  0  0  0
   10.8584   -4.4226   -2.9665 O   0  0  0  0  0  0  0  0  0  0  0  0
   10.3067   -3.9977   -0.1989 H   0  0  0  0  0  0  0  0  0  0  0  0
    9.9942   -4.8306   -2.8004 H   0  0  0  0  0  0  0  0  0  0  0  0
 29 30  2  0  0  0
 29 31  1  0  0  0
 29 32  1  0  0  0
 29 28  1  0  0  0
 24 25  2  0  0  0
 24 26  1  0  0  0
 24 28  1  0  0  0
 24 23  1  0  0  0
 23 22  1  0  0  0
 22  1  1  0  0  0
  1  2  1  0  0  0
  1  3  1  0  0  0
  2  7  1  0  0  0
  3  4  1  0  0  0
  3  5  1  0  0  0
  5  6  1  0  0  0
  5  7  1  0  0  0
  7 10  1  0  0  0
 10 11  1  0  0  0
 10 19  1  0  0  0
 11 12  2  0  0  0
 12 13  1  0  0  0
 13 14  1  0  0  0
 13 19  2  0  0  0
 14 15  1  0  0  0
 14 16  2  0  0  0
 16 17  1  0  0  0
 17 18  2  0  0  0
 18 19  1  0  0  0
 31 33  1  0  0  0
 32 34  1  0  0  0
 26 27  1  0  0  0
  4  8  1  0  0  0
  6  9  1  0  0  0
 15 20  1  0  0  0
 15 21  1  0  0  0
M  END
> <minimizedAffinity>
-7.83744

$$$$
1AMW_ADP_A_300


 34 36  0  0  0  0  0  0  0  0999 V2000
   13.3011   -2.0762   -4.7987 C   0  0  0  0  0  0  0  0  0  0  0  0
   11.9967   -2.6936   -4.7493 O   0  0  0  0  0  0  0  0  0  0  0  0
   13.7312   -1.8518   -3.3574 C   0  0  0  0  0  0  0  0  0  0  0  0
   14.5066   -0.6671   -3.1617 O   0  0  0  0  0  0  0  0  0  0  0  0
   12.4378   -1.8013   -2.5972 C   0  0  0  0  0  0  0  0  0  0  0  0
   11.9129   -0.4749   -2.5032 O   0  0  0  0  0  0  0  0  0  0  0  0
   11.5375   -2.7253   -3.3865 C   0  0  0  0  0  0  0  0  0  0  0  0
   13.9904    0.1064   -3.4377 H   0  0  0  0  0  0  0  0  0  0  0  0
   11.7813   -0.1154   -3.3944 H   0  0  0  0  0  0  0  0  0  0  0  0
   11.4634   -4.0953   -2.7686 N   0  0  0  0  0  0  0  0  0  0  0  0
   12.0293   -4.5263   -1.6293 C   0  0  0  0  0  0  0  0  0  0  0  0
   11.7104   -5.8213   -1.4508 N   0  0  0  0  0  0  0  0  0  0  0  0
   10.9565   -6.2101   -2.4658 C   0  0  0  0  0  0  0  0  0  0  0  0
   10.3146   -7.4020   -2.8655 C   0  0  0  0  0  0  0  0  0  0  0  0
   10.4095   -8.5188   -2.1175 N   0  0  0  0  0  0  0  0  0  0  0  0
    9.5840   -7.4336   -4.0294 N   0  0  0  0  0  0  0  0  0  0  0  0
    9.4534   -6.3440   -4.8208 C   0  0  0  0  0  0  0  0  0  0  0  0
   10.0564   -5.1987   -4.4450 N   0  0  0  0  0  0  0  0  0  0  0  0
   10.7986   -5.0916   -3.3073 C   0  0  0  0  0  0  0  0  0  0  0  0
   10.9299   -8.5087   -1.2818 H   0  0  0  0  0  0  0  0  0  0  0  0
    9.9586   -9.3447   -2.4067 H   0  0  0  0  0  0  0  0  0  0  0  0
   14.2308   -2.9009   -5.7125 C   0  0  0  0  0  0  0  0  0  0  0  0
   15.3530   -3.3897   -5.0125 O   0  0  0  0  0  0  0  0  0  0  0  0
   16.7652   -3.4531   -5.7859 P   0  0  0  0  0  0  0  0  0  0  0  0
   17.0949   -2.1702   -6.4472 O   0  0  0  0  0  0  0  0  0  0  0  0
   16.8113   -4.5934   -6.7377 O   0  0  0  0  0  0  0  0  0  0  0  0
   17.6710   -4.6052   -7.1868 H   0  0  0  0  0  0  0  0  0  0  0  0
   17.7490   -3.6839   -4.6184 O   0  0  0  0  0  0  0  0  0  0  0  0
   19.2862   -3.8556   -4.6442 P   0  0  0  0  0  0  0  0  0  0  0  0
   19.8601   -3.7986   -3.2263 O   0  0  0  0  0  0  0  0  0  0  0  0
   19.4512   -5.3542   -5.3275 O   0  0  0  0  0  0  0  0  0  0  0  0
   19.8820   -2.7710   -5.5208 O   0  0  0  0  0  0  0  0  0  0  0  0
   20.3930   -5.5760   -5.3970 H   0  0  0  0  0  0  0  0  0  0  0  0
   20.8468   -2.8683   -5.5449 H   0  0  0  0  0  0  0  0  0  0  0  0
 29 30  2  0  0  0
 29 31  1  0  0  0
 29 32  1  0  0  0
 29 28  1  0  0  0
 24 25  2  0  0  0
 24 26  1  0  0  0
 24 28  1  0  0  0
 24 23  1  0  0  0
 23 22  1  0  0  0
 22  1  1  0  0  0
  1  2  1  0  0  0
  1  3  1  0  0  0
  2  7  1  0  0  0
  3  4  1  0  0  0
  3  5  1  0  0  0
  5  6  1  0  0  0
  5  7  1  0  0  0
  7 10  1  0  0  0
 10 11  1  0  0  0
 10 19  1  0  0  0
 11 12  2  0  0  0
 12 13  1  0  0  0
 13 14  1  0  0  0
 13 19  2  0  0  0
 14 15  1  0  0  0
 14 16  2  0  0  0
 16 17  1  0  0  0
 17 18  2  0  0  0
 18 19  1  0  0  0
 31 33  1  0  0  0
 32 34  1  0  0  0
 26 27  1  0  0  0
  4  8  1  0  0  0
  6  9  1  0  0  0
 15 20  1  0  0  0
 15 21  1  0  0  0
M  END
> <minimizedAffinity>
-7.77872

$$$$
1AMW_ADP_A_300


 34 36  0  0  0  0  0  0  0  0999 V2000
   14.8180   -2.1508   -7.3172 C   0  0  0  0  0  0  0  0  0  0  0  0
   15.3862   -1.9845   -6.0002 O   0  0  0  0  0  0  0  0  0  0  0  0
   15.8668   -1.6690   -8.3076 C   0  0  0  0  0  0  0  0  0  0  0  0
   15.3213   -1.0373   -9.4679 O   0  0  0  0  0  0  0  0  0  0  0  0
   16.7139   -0.7234   -7.5065 C   0  0  0  0  0  0  0  0  0  0  0  0
   16.2352    0.6222   -7.5684 O   0  0  0  0  0  0  0  0  0  0  0  0
   16.6457   -1.2983   -6.1094 C   0  0  0  0  0  0  0  0  0  0  0  0
   14.7953   -0.2677   -9.1999 H   0  0  0  0  0  0  0  0  0  0  0  0
   15.3198    0.6547   -7.2491 H   0  0  0  0  0  0  0  0  0  0  0  0
   17.8572   -2.1309   -5.7881 N   0  0  0  0  0  0  0  0  0  0  0  0
   18.9930   -2.2550   -6.4942 C   0  0  0  0  0  0  0  0  0  0  0  0
   19.8139   -3.1028   -5.8477 N   0  0  0  0  0  0  0  0  0  0  0  0
   19.2059   -3.5167   -4.7482 C   0  0  0  0  0  0  0  0  0  0  0  0
   19.5106   -4.3806   -3.6743 C   0  0  0  0  0  0  0  0  0  0  0  0
   20.6931   -5.0250   -3.6239 N   0  0  0  0  0  0  0  0  0  0  0  0
   18.5970   -4.5742   -2.6657 N   0  0  0  0  0  0  0  0  0  0  0  0
   17.3942   -3.9547   -2.6628 C   0  0  0  0  0  0  0  0  0  0  0  0
   17.0957   -3.1220   -3.6797 N   0  0  0  0  0  0  0  0  0  0  0  0
   17.9485   -2.8826   -4.7151 C   0  0  0  0  0  0  0  0  0  0  0  0
   21.3557   -4.8946   -4.3402 H   0  0  0  0  0  0  0  0  0  0  0  0
   20.8943   -5.6261   -2.8706 H   0  0  0  0  0  0  0  0  0  0  0  0
   14.2809   -3.5885   -7.4725 C   0  0  0  0  0  0  0  0  0  0  0  0
   13.0370   -3.7544   -6.8295 O   0  0  0  0  0  0  0  0  0  0  0  0
   12.6584   -5.2167   -6.2684 P   0  0  0  0  0  0  0  0  0  0  0  0
   13.8533   -6.0750   -6.1026 O   0  0  0  0  0  0  0  0  0  0  0  0
   11.6221   -5.8688   -7.1105 O   0  0  0  0  0  0  0  0  0  0  0  0
   11.4157   -6.7448   -6.7487 H   0  0  0  0  0  0  0  0  0  0  0  0
   12.0868   -4.8766   -4.8750 O   0  0  0  0  0  0  0  0  0  0  0  0
   12.7301   -4.0843   -3.7123 P   0  0  0  0  0  0  0  0  0  0  0  0
   12.1089   -2.6899   -3.6001 O   0  0  0  0  0  0  0  0  0  0  0  0
   12.3697   -5.0380   -2.4083 O   0  0  0  0  0  0  0  0  0  0  0  0
   14.2256   -4.0009   -3.9497 O   0  0  0  0  0  0  0  0  0  0  0  0
   12.7300   -4.6344   -1.6032 H   0  0  0  0  0  0  0  0  0  0  0  0
   14.6407   -3.5057   -3.2262 H   0  0  0  0  0  0  0  0  0  0  0  0
 29 30  2  0  0  0
 29 31  1  0  0  0
 29 32  1  0  0  0
 29 28  1  0  0  0
 24 25  2  0  0  0
 24 26  1  0  0  0
 24 28  1  0  0  0
 24 23  1  0  0  0
 23 22  1  0  0  0
 22  1  1  0  0  0
  1  2  1  0  0  0
  1  3  1  0  0  0
  2  7  1  0  0  0
  3  4  1  0  0  0
  3  5  1  0  0  0
  5  6  1  0  0  0
  5  7  1  0  0  0
  7 10  1  0  0  0
 10 11  1  0  0  0
 10 19  1  0  0  0
 11 12  2  0  0  0
 12 13  1  0  0  0
 13 14  1  0  0  0
 13 19  2  0  0  0
 14 15  1  0  0  0
 14 16  2  0  0  0
 16 17  1  0  0  0
 17 18  2  0  0  0
 18 19  1  0  0  0
 31 33  1  0  0  0
 32 34  1  0  0  0
 26 27  1  0  0  0
  4  8  1  0  0  0
  6  9  1  0  0  0
 15 20  1  0  0  0
 15 21  1  0  0  0
M  END
> <minimizedAffinity>
-7.64744

$$$$
1AMW_ADP_A_300


 34 36  0  0  0  0  0  0  0  0999 V2000
   12.7949   -1.7289   -6.3109 C   0  0  0  0  0  0  0  0  0  0  0  0
   13.9866   -1.1352   -5.7521 O   0  0  0  0  0  0  0  0  0  0  0  0
   13.2524   -2.6561   -7.4262 C   0  0  0  0  0  0  0  0  0  0  0  0
   12.3495   -2.7218   -8.5322 O   0  0  0  0  0  0  0  0  0  0  0  0
   14.5882   -2.1036   -7.8312 C   0  0  0  0  0  0  0  0  0  0  0  0
   14.4814   -1.1288   -8.8714 O   0  0  0  0  0  0  0  0  0  0  0  0
   15.1247   -1.5195   -6.5436 C   0  0  0  0  0  0  0  0  0  0  0  0
   12.2398   -1.8365   -8.9131 H   0  0  0  0  0  0  0  0  0  0  0  0
   13.9048   -0.4056   -8.5788 H   0  0  0  0  0  0  0  0  0  0  0  0
   16.0888   -2.4545   -5.8650 N   0  0  0  0  0  0  0  0  0  0  0  0
   15.8212   -3.4241   -4.9751 C   0  0  0  0  0  0  0  0  0  0  0  0
   16.9760   -4.0168   -4.6206 N   0  0  0  0  0  0  0  0  0  0  0  0
   17.9653   -3.4282   -5.2722 C   0  0  0  0  0  0  0  0  0  0  0  0
   19.3678   -3.5695   -5.3470 C   0  0  0  0  0  0  0  0  0  0  0  0
   20.0050   -4.5054   -4.6163 N   0  0  0  0  0  0  0  0  0  0  0  0
   20.0997   -2.7470   -6.1699 N   0  0  0  0  0  0  0  0  0  0  0  0
   19.5152   -1.7897   -6.9265 C   0  0  0  0  0  0  0  0  0  0  0  0
   18.1758   -1.6508   -6.8681 N   0  0  0  0  0  0  0  0  0  0  0  0
   17.3850   -2.4265   -6.0747 C   0  0  0  0  0  0  0  0  0  0  0  0
   19.4918   -5.1005   -4.0233 H   0  0  0  0  0  0  0  0  0  0  0  0
   20.9837   -4.5941   -4.6756 H   0  0  0  0  0  0  0  0  0  0  0  0
   11.9337   -2.3266   -5.1791 C   0  0  0  0  0  0  0  0  0  0  0  0
   11.8011   -3.7246   -5.3054 O   0  0  0  0  0  0  0  0  0  0  0  0
   10.5509   -4.4397   -4.5829 P   0  0  0  0  0  0  0  0  0  0  0  0
    9.8564   -5.3878   -5.4832 O   0  0  0  0  0  0  0  0  0  0  0  0
    9.6151   -3.4407   -4.0042 O   0  0  0  0  0  0  0  0  0  0  0  0
    8.8751   -3.9002   -3.5774 H   0  0  0  0  0  0  0  0  0  0  0  0
   11.2534   -5.2350   -3.4612 O   0  0  0  0  0  0  0  0  0  0  0  0
   11.8278   -4.7395   -2.1129 P   0  0  0  0  0  0  0  0  0  0  0  0
   11.9759   -5.9024   -1.1288 O   0  0  0  0  0  0  0  0  0  0  0  0
   13.2910   -4.1172   -2.5729 O   0  0  0  0  0  0  0  0  0  0  0  0
   10.9111   -3.6659   -1.5590 O   0  0  0  0  0  0  0  0  0  0  0  0
   13.7533   -3.7689   -1.7945 H   0  0  0  0  0  0  0  0  0  0  0  0
   11.2613   -3.3469   -0.7125 H   0  0  0  0  0  0  0  0  0  0  0  0
 29 30  2  0  0  0
 29 31  1  0  0  0
 29 32  1  0  0  0
 29 28  1  0  0  0
 24 25  2  0  0  0
 24 26  1  0  0  0
 24 28  1  0  0  0
 24 23  1  0  0  0
 23 22  1  0  0  0
 22  1  1  0  0  0
  1  2  1  0  0  0
  1  3  1  0  0  0
  2  7  1  0  0  0
  3  4  1  0  0  0
  3  5  1  0  0  0
  5  6  1  0  0  0
  5  7  1  0  0  0
  7 10  1  0  0  0
 10 11  1  0  0  0
 10 19  1  0  0  0
 11 12  2  0  0  0
 12 13  1  0  0  0
 13 14  1  0  0  0
 13 19  2  0  0  0
 14 15  1  0  0  0
 14 16  2  0  0  0
 16 17  1  0  0  0
 17 18  2  0  0  0
 18 19  1  0  0  0
 31 33  1  0  0  0
 32 34  1  0  0  0
 26 27  1  0  0  0
  4  8  1  0  0  0
  6  9  1  0  0  0
 15 20  1  0  0  0
 15 21  1  0  0  0
M  END
> <minimizedAffinity>
-7.57764

$$$$
1AMW_ADP_A_300


 34 36  0  0  0  0  0  0  0  0999 V2000
   12.8289   -2.8217   -5.6562 C   0  0  0  0  0  0  0  0  0  0  0  0
   13.7909   -2.1468   -4.8171 O   0  0  0  0  0  0  0  0  0  0  0  0
   13.5337   -3.1246   -6.9693 C   0  0  0  0  0  0  0  0  0  0  0  0
   12.6812   -3.0538   -8.1144 O   0  0  0  0  0  0  0  0  0  0  0  0
   14.6349   -2.1065   -7.0325 C   0  0  0  0  0  0  0  0  0  0  0  0
   14.2267   -0.9030   -7.6872 O   0  0  0  0  0  0  0  0  0  0  0  0
   14.9833   -1.8844   -5.5777 C   0  0  0  0  0  0  0  0  0  0  0  0
   12.3045   -2.1626   -8.1824 H   0  0  0  0  0  0  0  0  0  0  0  0
   13.4615   -0.5269   -7.2247 H   0  0  0  0  0  0  0  0  0  0  0  0
   16.1925   -2.6792   -5.1652 N   0  0  0  0  0  0  0  0  0  0  0  0
   16.2715   -3.6608   -4.2519 C   0  0  0  0  0  0  0  0  0  0  0  0
   17.5431   -4.0970   -4.1945 N   0  0  0  0  0  0  0  0  0  0  0  0
   18.2642   -3.3982   -5.0556 C   0  0  0  0  0  0  0  0  0  0  0  0
   19.6139   -3.3620   -5.4674 C   0  0  0  0  0  0  0  0  0  0  0  0
   20.5211   -4.1983   -4.9257 N   0  0  0  0  0  0  0  0  0  0  0  0
   20.0165   -2.4666   -6.4294 N   0  0  0  0  0  0  0  0  0  0  0  0
   19.1509   -1.6029   -7.0085 C   0  0  0  0  0  0  0  0  0  0  0  0
   17.8583   -1.6337   -6.6279 N   0  0  0  0  0  0  0  0  0  0  0  0
   17.3861   -2.4907   -5.6797 C   0  0  0  0  0  0  0  0  0  0  0  0
   20.2450   -4.8442   -4.2359 H   0  0  0  0  0  0  0  0  0  0  0  0
   21.4600   -4.1634   -5.2197 H   0  0  0  0  0  0  0  0  0  0  0  0
   12.2014   -3.9992   -4.8820 C   0  0  0  0  0  0  0  0  0  0  0  0
   12.8581   -4.2279   -3.6554 O   0  0  0  0  0  0  0  0  0  0  0  0
   11.9745   -4.2363   -2.3079 P   0  0  0  0  0  0  0  0  0  0  0  0
   12.1276   -5.4992   -1.5507 O   0  0  0  0  0  0  0  0  0  0  0  0
   10.5480   -3.9325   -2.5932 O   0  0  0  0  0  0  0  0  0  0  0  0
   10.0430   -3.9448   -1.7652 H   0  0  0  0  0  0  0  0  0  0  0  0
   12.6213   -3.0872   -1.5047 O   0  0  0  0  0  0  0  0  0  0  0  0
   11.9649   -1.8420   -0.8629 P   0  0  0  0  0  0  0  0  0  0  0  0
   12.9018   -1.2087    0.1687 O   0  0  0  0  0  0  0  0  0  0  0  0
   11.7278   -0.8648   -2.1776 O   0  0  0  0  0  0  0  0  0  0  0  0
   10.6515   -2.2572   -0.2287 O   0  0  0  0  0  0  0  0  0  0  0  0
   11.3125   -0.0355   -1.8934 H   0  0  0  0  0  0  0  0  0  0  0  0
   10.2299   -1.4838    0.1777 H   0  0  0  0  0  0  0  0  0  0  0  0
 29 30  2  0  0  0
 29 31  1  0  0  0
 29 32  1  0  0  0
 29 28  1  0  0  0
 24 25  2  0  0  0
 24 26  1  0  0  0
 24 28  1  0  0  0
 24 23  1  0  0  0
 23 22  1  0  0  0
 22  1  1  0  0  0
  1  2  1  0  0  0
  1  3  1  0  0  0
  2  7  1  0  0  0
  3  4  1  0  0  0
  3  5  1  0  0  0
  5  6  1  0  0  0
  5  7  1  0  0  0
  7 10  1  0  0  0
 10 11  1  0  0  0
 10 19  1  0  0  0
 11 12  2  0  0  0
 12 13  1  0  0  0
 13 14  1  0  0  0
 13 19  2  0  0  0
 14 15  1  0  0  0
 14 16  2  0  0  0
 16 17  1  0  0  0
 17 18  2  0  0  0
 18 19  1  0  0  0
 31 33  1  0  0  0
 32 34  1  0  0  0
 26 27  1  0  0  0
  4  8  1  0  0  0
  6  9  1  0  0  0
 15 20  1  0  0  0
 15 21  1  0  0  0
M  END
> <minimizedAffinity>
-7.56361

$$$$
1AMW_ADP_A_300


 34 36  0  0  0  0  0  0  0  0999 V2000
   16.9358   -3.9583   -3.5231 C   0  0  0  0  0  0  0  0  0  0  0  0
   16.3050   -4.1786   -4.8032 O   0  0  0  0  0  0  0  0  0  0  0  0
   18.3171   -3.3907   -3.8106 C   0  0  0  0  0  0  0  0  0  0  0  0
   19.3191   -3.8047   -2.8792 O   0  0  0  0  0  0  0  0  0  0  0  0
   18.6213   -3.8655   -5.2018 C   0  0  0  0  0  0  0  0  0  0  0  0
   19.2888   -5.1297   -5.2118 O   0  0  0  0  0  0  0  0  0  0  0  0
   17.2570   -3.9263   -5.8516 C   0  0  0  0  0  0  0  0  0  0  0  0
   19.3912   -4.7720   -2.8904 H   0  0  0  0  0  0  0  0  0  0  0  0
   18.7417   -5.7878   -4.7553 H   0  0  0  0  0  0  0  0  0  0  0  0
   16.9807   -2.7048   -6.6857 N   0  0  0  0  0  0  0  0  0  0  0  0
   17.8426   -1.7526   -7.0783 C   0  0  0  0  0  0  0  0  0  0  0  0
   17.1757   -0.8396   -7.8079 N   0  0  0  0  0  0  0  0  0  0  0  0
   15.9056   -1.2035   -7.8736 C   0  0  0  0  0  0  0  0  0  0  0  0
   14.7268   -0.7005   -8.4650 C   0  0  0  0  0  0  0  0  0  0  0  0
   14.7481    0.4437   -9.1765 N   0  0  0  0  0  0  0  0  0  0  0  0
   13.5396   -1.3775   -8.3176 N   0  0  0  0  0  0  0  0  0  0  0  0
   13.4572   -2.5306   -7.6148 C   0  0  0  0  0  0  0  0  0  0  0  0
   14.5782   -3.0236   -7.0518 N   0  0  0  0  0  0  0  0  0  0  0  0
   15.7895   -2.4078   -7.1523 C   0  0  0  0  0  0  0  0  0  0  0  0
   15.5922    0.9376   -9.2892 H   0  0  0  0  0  0  0  0  0  0  0  0
   13.9195    0.7857   -9.5835 H   0  0  0  0  0  0  0  0  0  0  0  0
   15.9926   -3.1441   -2.6136 C   0  0  0  0  0  0  0  0  0  0  0  0
   15.0873   -2.3649   -3.3627 O   0  0  0  0  0  0  0  0  0  0  0  0
   13.5345   -2.3767   -2.9326 P   0  0  0  0  0  0  0  0  0  0  0  0
   12.6432   -2.0155   -4.0582 O   0  0  0  0  0  0  0  0  0  0  0  0
   13.2953   -1.5206   -1.7416 O   0  0  0  0  0  0  0  0  0  0  0  0
   12.3544   -1.5479   -1.5075 H   0  0  0  0  0  0  0  0  0  0  0  0
   13.3208   -3.8646   -2.5800 O   0  0  0  0  0  0  0  0  0  0  0  0
   12.0035   -4.6561   -2.4024 P   0  0  0  0  0  0  0  0  0  0  0  0
   12.0744   -5.5521   -1.1634 O   0  0  0  0  0  0  0  0  0  0  0  0
   10.8939   -3.4395   -2.2337 O   0  0  0  0  0  0  0  0  0  0  0  0
   11.7540   -5.4726   -3.6558 O   0  0  0  0  0  0  0  0  0  0  0  0
   10.0107   -3.8219   -2.1131 H   0  0  0  0  0  0  0  0  0  0  0  0
   10.9296   -5.9740   -3.5564 H   0  0  0  0  0  0  0  0  0  0  0  0
 29 30  2  0  0  0
 29 31  1  0  0  0
 29 32  1  0  0  0
 29 28  1  0  0  0
 24 25  2  0  0  0
 24 26  1  0  0  0
 24 28  1  0  0  0
 24 23  1  0  0  0
 23 22  1  0  0  0
 22  1  1  0  0  0
  1  2  1  0  0  0
  1  3  1  0  0  0
  2  7  1  0  0  0
  3  4  1  0  0  0
  3  5  1  0  0  0
  5  6  1  0  0  0
  5  7  1  0  0  0
  7 10  1  0  0  0
 10 11  1  0  0  0
 10 19  1  0  0  0
 11 12  2  0  0  0
 12 13  1  0  0  0
 13 14  1  0  0  0
 13 19  2  0  0  0
 14 15  1  0  0  0
 14 16  2  0  0  0
 16 17  1  0  0  0
 17 18  2  0  0  0
 18 19  1  0  0  0
 31 33  1  0  0  0
 32 34  1  0  0  0
 26 27  1  0  0  0
  4  8  1  0  0  0
  6  9  1  0  0  0
 15 20  1  0  0  0
 15 21  1  0  0  0
M  END
> <minimizedAffinity>
-7.43241

$$$$
1AMW_ADP_A_300


 34 36  0  0  0  0  0  0  0  0999 V2000
   13.6094   -1.7303   -6.0520 C   0  0  0  0  0  0  0  0  0  0  0  0
   14.7442   -1.0683   -5.4529 O   0  0  0  0  0  0  0  0  0  0  0  0
   13.8899   -1.8094   -7.5446 C   0  0  0  0  0  0  0  0  0  0  0  0
   12.7229   -1.6881   -8.3609 O   0  0  0  0  0  0  0  0  0  0  0  0
   14.8591   -0.6899   -7.7908 C   0  0  0  0  0  0  0  0  0  0  0  0
   14.2021    0.5368   -8.1183 O   0  0  0  0  0  0  0  0  0  0  0  0
   15.6268   -0.6060   -6.4905 C   0  0  0  0  0  0  0  0  0  0  0  0
   12.2944   -0.8353   -8.1877 H   0  0  0  0  0  0  0  0  0  0  0  0
   13.5974    0.7814   -7.4004 H   0  0  0  0  0  0  0  0  0  0  0  0
   16.9467   -1.3236   -6.5737 N   0  0  0  0  0  0  0  0  0  0  0  0
   17.8084   -1.3645   -7.6031 C   0  0  0  0  0  0  0  0  0  0  0  0
   18.8631   -2.1239   -7.2545 N   0  0  0  0  0  0  0  0  0  0  0  0
   18.6719   -2.5646   -6.0220 C   0  0  0  0  0  0  0  0  0  0  0  0
   19.3749   -3.3754   -5.1050 C   0  0  0  0  0  0  0  0  0  0  0  0
   20.5654   -3.9139   -5.4347 N   0  0  0  0  0  0  0  0  0  0  0  0
   18.8467   -3.6250   -3.8609 N   0  0  0  0  0  0  0  0  0  0  0  0
   17.6560   -3.1119   -3.4741 C   0  0  0  0  0  0  0  0  0  0  0  0
   16.9795   -2.3305   -4.3393 N   0  0  0  0  0  0  0  0  0  0  0  0
   17.4379   -2.0410   -5.5894 C   0  0  0  0  0  0  0  0  0  0  0  0
   20.9542   -3.7424   -6.3228 H   0  0  0  0  0  0  0  0  0  0  0  0
   21.0463   -4.4788   -4.7876 H   0  0  0  0  0  0  0  0  0  0  0  0
   13.3185   -3.0445   -5.2986 C   0  0  0  0  0  0  0  0  0  0  0  0
   14.0985   -3.1610   -4.1297 O   0  0  0  0  0  0  0  0  0  0  0  0
   13.3658   -2.9915   -2.7047 P   0  0  0  0  0  0  0  0  0  0  0  0
   12.1378   -2.1706   -2.8052 O   0  0  0  0  0  0  0  0  0  0  0  0
   14.2989   -2.4660   -1.6744 O   0  0  0  0  0  0  0  0  0  0  0  0
   13.8303   -2.3750   -0.8300 H   0  0  0  0  0  0  0  0  0  0  0  0
   12.9709   -4.4490   -2.3828 O   0  0  0  0  0  0  0  0  0  0  0  0
   11.6352   -5.0118   -1.8419 P   0  0  0  0  0  0  0  0  0  0  0  0
   11.7873   -6.4845   -1.4534 O   0  0  0  0  0  0  0  0  0  0  0  0
   11.3625   -4.0419   -0.5286 O   0  0  0  0  0  0  0  0  0  0  0  0
   10.5667   -4.8322   -2.9030 O   0  0  0  0  0  0  0  0  0  0  0  0
   10.5341   -4.3055   -0.0984 H   0  0  0  0  0  0  0  0  0  0  0  0
    9.7234   -5.1818   -2.5751 H   0  0  0  0  0  0  0  0  0  0  0  0
 29 30  2  0  0  0
 29 31  1  0  0  0
 29 32  1  0  0  0
 29 28  1  0  0  0
 24 25  2  0  0  0
 24 26  1  0  0  0
 24 28  1  0  0  0
 24 23  1  0  0  0
 23 22  1  0  0  0
 22  1  1  0  0  0
  1  2  1  0  0  0
  1  3  1  0  0  0
  2  7  1  0  0  0
  3  4  1  0  0  0
  3  5  1  0  0  0
  5  6  1  0  0  0
  5  7  1  0  0  0
  7 10  1  0  0  0
 10 11  1  0  0  0
 10 19  1  0  0  0
 11 12  2  0  0  0
 12 13  1  0  0  0
 13 14  1  0  0  0
 13 19  2  0  0  0
 14 15  1  0  0  0
 14 16  2  0  0  0
 16 17  1  0  0  0
 17 18  2  0  0  0
 18 19  1  0  0  0
 31 33  1  0  0  0
 32 34  1  0  0  0
 26 27  1  0  0  0
  4  8  1  0  0  0
  6  9  1  0  0  0
 15 20  1  0  0  0
 15 21  1  0  0  0
M  END
> <minimizedAffinity>
-7.41148

$$$$
