1AMW_ADP_A_300
  RCSB PDB12061702003D
Coordinates from PDB:1AMW:A:300 Model:1 without hydrogens
 27 29  0  0  0  0            999 V2000
   10.5090   -4.8700   -3.7360   P 0  0  0  0  0  0  0  0  0  0  0  0
    9.7050   -4.2170   -4.8630   O 0  0  0  0  0  0  0  0  0  0  0  0
   11.8930   -5.5900   -4.2890   O 0  0  0  0  0  0  0  0  0  0  0  0
    9.6530   -5.8370   -2.9410   O 0  0  0  0  0  0  0  0  0  0  0  0
   11.8240   -3.9720   -1.4370   P 0  0  0  0  0  0  0  0  0  0  0  0
   10.9340   -3.5680   -0.3250   O 0  0  0  0  0  0  0  0  0  0  0  0
   12.2960   -5.3730   -1.2860   O 0  0  0  0  0  0  0  0  0  0  0  0
   11.0700   -3.7970   -2.7730   O 0  0  0  0  0  0  0  0  0  0  0  0
   13.0580   -2.9530   -1.6250   O 0  0  0  0  0  0  0  0  0  0  0  0
   12.7730   -1.5790   -1.7630   C 0  0  0  0  0  0  0  0  0  0  0  0
   13.2040   -1.0410   -3.1430   C 0  0  0  0  0  0  0  0  0  0  0  0
   14.5870   -0.6290   -3.0930   O 0  0  0  0  0  0  0  0  0  0  0  0
   13.0680   -1.9640   -4.3440   C 0  0  0  0  0  0  0  0  0  0  0  0
   11.8090   -1.8630   -5.0130   O 0  0  0  0  0  0  0  0  0  0  0  0
   14.2060   -1.5650   -5.2380   C 0  0  0  0  0  0  0  0  0  0  0  0
   13.8390   -0.5360   -6.1600   O 0  0  0  0  0  0  0  0  0  0  0  0
   15.2700   -1.1150   -4.2620   C 0  0  0  0  0  0  0  0  0  0  0  0
   16.2860   -2.1950   -4.0060   N 0  0  0  0  0  0  0  0  0  0  0  0
   16.3210   -3.0830   -2.9990   C 0  0  0  0  0  0  0  0  0  0  0  0
   17.4040   -3.8670   -3.1510   N 0  0  0  0  0  0  0  0  0  0  0  0
   18.0520   -3.4790   -4.2370   C 0  0  0  0  0  0  0  0  0  0  0  0
   19.2190   -3.8720   -4.9270   C 0  0  0  0  0  0  0  0  0  0  0  0
   19.9740   -4.8930   -4.4760   N 0  0  0  0  0  0  0  0  0  0  0  0
   19.5980   -3.2110   -6.0710   N 0  0  0  0  0  0  0  0  0  0  0  0
   18.8800   -2.1790   -6.5710   C 0  0  0  0  0  0  0  0  0  0  0  0
   17.7600   -1.8000   -5.9240   N 0  0  0  0  0  0  0  0  0  0  0  0
   17.3230   -2.4050   -4.7840   C 0  0  0  0  0  0  0  0  0  0  0  0
  1  2  2  0  0  0  0
  1  3  1  0  0  0  0
  1  4  1  0  0  0  0
  1  8  1  0  0  0  0
  5  6  2  0  0  0  0
  5  7  1  0  0  0  0
  5  8  1  0  0  0  0
  5  9  1  0  0  0  0
  9 10  1  0  0  0  0
 10 11  1  0  0  0  0
 11 12  1  0  0  0  0
 11 13  1  0  0  0  0
 12 17  1  0  0  0  0
 13 14  1  0  0  0  0
 13 15  1  0  0  0  0
 15 16  1  0  0  0  0
 15 17  1  0  0  0  0
 17 18  1  0  0  0  0
 18 19  1  0  0  0  0
 18 27  1  0  0  0  0
 19 20  2  0  0  0  0
 20 21  1  0  0  0  0
 21 22  1  0  0  0  0
 21 27  2  0  0  0  0
 22 23  1  0  0  0  0
 22 24  2  0  0  0  0
 24 25  1  0  0  0  0
 25 26  2  0  0  0  0
 26 27  1  0  0  0  0
A    1
PB
A    2
O1B
A    3
O2B
A    4
O3B
A    5
PA
A    6
O1A
A    7
O2A
A    8
O3A
A    9
O5'
A   10
C5'
A   11
C4'
A   12
O4'
A   13
C3'
A   14
O3'
A   15
C2'
A   16
O2'
A   17
C1'
A   18
N9
A   19
C8
A   20
N7
A   21
C5
A   22
C6
A   23
N6
A   24
N1
A   25
C2
A   26
N3
A   27
C4
M  END
>  <InstanceId>
1AMW_ADP_A_300

>  <ChemCompId>
ADP

>  <PdbId>
1AMW

>  <ChainId>
A

>  <ResidueNumber>
300

>  <InsertionCode>


>  <Model>
1

>  <AltIds>


>  <MissingHeavyAtoms>
0

>  <ObservedFormula>
C10 N5 O10 P2

>  <Name>
ADENOSINE-5'-DIPHOSPHATE

>  <SystematicName>
[(2R,3S,4R,5R)-5-(6-aminopurin-9-yl)-3,4-dihydroxy-oxolan-2-yl]methyl phosphono hydrogen phosphate

>  <Synonyms>


>  <Type>
NON-POLYMER

>  <Formula>
C10 H15 N5 O10 P2

>  <MolecularWeight>
427.201

>  <ModifiedDate>
2011-06-04

>  <Parent>
A

>  <OneLetterCode>


>  <SubcomponentList>


>  <AmbiguousFlag>
N

>  <InChI>
InChI=1S/C10H15N5O10P2/c11-8-5-9(13-2-12-8)15(3-14-5)10-7(17)6(16)4(24-10)1-23-27(21,22)25-26(18,19)20/h2-4,6-7,10,16-17H,1H2,(H,21,22)(H2,11,12,13)(H2,18,19,20)/t4-,6-,7-,10-/m1/s1

>  <InChIKey>
XTWYTFMLZFPYCI-KQYNXXCUSA-N

>  <SMILES>
c1nc(c2c(n1)n(cn2)[C@H]3[C@@H]([C@@H]([C@H](O3)CO[P@](=O)(O)OP(=O)(O)O)O)O)N

$$$$
