2F34_UBA_A_801


 28 29  0  0  0  0  0  0  0  0999 V2000
   -1.7125   -5.0696   16.1205 N   0  0  0  0  0  0  0  0  0  0  0  0
   -2.5537   -4.6547   15.0517 C   0  0  0  0  0  0  0  0  0  0  0  0
   -2.9480   -5.5130   14.2545 O   0  0  0  0  0  0  0  0  0  0  0  0
   -2.8949   -3.3112   14.9327 N   0  0  0  0  0  0  0  0  0  0  0  0
   -2.4121   -2.3729   15.8327 C   0  0  0  0  0  0  0  0  0  0  0  0
   -2.7597   -1.1977   15.7053 O   0  0  0  0  0  0  0  0  0  0  0  0
   -1.5399   -2.8220   16.9465 C   0  0  0  0  0  0  0  0  0  0  0  0
   -0.9947   -1.8108   17.9403 C   0  0  0  0  0  0  0  0  0  0  0  0
   -1.2377   -4.1733   16.9996 C   0  0  0  0  0  0  0  0  0  0  0  0
   -1.4259   -6.4954   16.2072 C   0  0  0  0  0  0  0  0  0  0  0  0
   -0.0017   -6.6926   15.6053 C   0  0  0  0  0  0  0  0  0  0  0  0
    0.1074   -6.2765   14.2138 N   0  0  0  0  0  0  0  0  0  0  0  0
   -0.5097   -6.8495   13.6382 H   0  0  0  0  0  0  0  0  0  0  0  0
    1.0706   -6.3923   13.8988 H   0  0  0  0  0  0  0  0  0  0  0  0
   -0.5025   -9.0416   15.8753 O   0  0  0  0  0  0  0  0  0  0  0  0
    0.3831   -8.1339   15.7229 C   0  0  0  0  0  0  0  0  0  0  0  0
    1.5937   -8.4403   15.6624 O   0  0  0  0  0  0  0  0  0  0  0  0
    2.2411   -7.7722   15.5506 H   0  0  0  0  0  0  0  0  0  0  0  0
   -3.7940   -2.8145   13.9052 C   0  0  0  0  0  0  0  0  0  0  0  0
   -5.1933   -3.1552   14.2482 C   0  0  0  0  0  0  0  0  0  0  0  0
   -5.9585   -2.8000   15.3728 C   0  0  0  0  0  0  0  0  0  0  0  0
   -7.2697   -3.3121   15.4046 C   0  0  0  0  0  0  0  0  0  0  0  0
   -7.5077   -4.2733   13.9735 S   0  0  0  0  0  0  0  0  0  0  0  0
   -5.9424   -4.0241   13.3368 C   0  0  0  0  0  0  0  0  0  0  0  0
   -5.5155   -4.6080   12.0567 C   0  0  0  0  0  0  0  0  0  0  0  0
   -4.8789   -5.6968   12.0510 O   0  0  0  0  0  0  0  0  0  0  0  0
   -5.8549   -3.9451   11.0486 O   0  0  0  0  0  0  0  0  0  0  0  0
   -4.6693   -6.1212   12.8597 H   0  0  0  0  0  0  0  0  0  0  0  0
 15 16  2  0  0  0
 16 17  1  0  0  0
 16 11  1  0  0  0
 11 12  1  0  0  0
 11 10  1  0  0  0
 10  1  1  0  0  0
  1  2  1  0  0  0
  1  9  1  0  0  0
  2  3  2  0  0  0
  2  4  1  0  0  0
  4  5  1  0  0  0
  4 19  1  0  0  0
  5  6  2  0  0  0
  5  7  1  0  0  0
  7  8  1  0  0  0
  7  9  2  0  0  0
 19 20  1  0  0  0
 20 21  1  0  0  0
 20 24  2  0  0  0
 21 22  2  0  0  0
 22 23  1  0  0  0
 23 24  1  0  0  0
 24 25  1  0  0  0
 25 26  1  0  0  0
 25 27  2  0  0  0
 17 18  1  0  0  0
 12 13  1  0  0  0
 12 14  1  0  0  0
 26 28  1  0  0  0
M  END
> <minimizedAffinity>
-7.84587

$$$$
2F34_UBA_A_801


 28 29  0  0  0  0  0  0  0  0999 V2000
   -5.6182   -3.5276   14.6236 N   0  0  0  0  0  0  0  0  0  0  0  0
   -4.3599   -4.1763   14.7579 C   0  0  0  0  0  0  0  0  0  0  0  0
   -4.3008   -5.3873   14.5177 O   0  0  0  0  0  0  0  0  0  0  0  0
   -3.2505   -3.4390   15.1594 N   0  0  0  0  0  0  0  0  0  0  0  0
   -3.3614   -2.0863   15.4446 C   0  0  0  0  0  0  0  0  0  0  0  0
   -2.3485   -1.4661   15.7723 O   0  0  0  0  0  0  0  0  0  0  0  0
   -4.6800   -1.4219   15.2941 C   0  0  0  0  0  0  0  0  0  0  0  0
   -4.8260    0.0574   15.6070 C   0  0  0  0  0  0  0  0  0  0  0  0
   -5.7412   -2.2190   14.8958 C   0  0  0  0  0  0  0  0  0  0  0  0
   -6.7288   -4.3506   14.1636 C   0  0  0  0  0  0  0  0  0  0  0  0
   -7.9070   -4.0859   15.1492 C   0  0  0  0  0  0  0  0  0  0  0  0
   -7.9433   -5.0065   16.2773 N   0  0  0  0  0  0  0  0  0  0  0  0
   -8.0863   -5.9570   15.9359 H   0  0  0  0  0  0  0  0  0  0  0  0
   -8.7089   -4.7503   16.9007 H   0  0  0  0  0  0  0  0  0  0  0  0
  -10.1364   -4.9462   14.7875 O   0  0  0  0  0  0  0  0  0  0  0  0
   -9.1993   -4.1700   14.3995 C   0  0  0  0  0  0  0  0  0  0  0  0
   -9.3526   -3.4583   13.3830 O   0  0  0  0  0  0  0  0  0  0  0  0
   -8.6633   -2.8898   13.1008 H   0  0  0  0  0  0  0  0  0  0  0  0
   -1.9197   -4.0122   15.2655 C   0  0  0  0  0  0  0  0  0  0  0  0
   -1.8221   -4.8446   16.4860 C   0  0  0  0  0  0  0  0  0  0  0  0
   -2.0862   -4.5143   17.8267 C   0  0  0  0  0  0  0  0  0  0  0  0
   -1.8723   -5.5447   18.7621 C   0  0  0  0  0  0  0  0  0  0  0  0
   -1.3104   -6.9476   17.8993 S   0  0  0  0  0  0  0  0  0  0  0  0
   -1.3475   -6.2244   16.3523 C   0  0  0  0  0  0  0  0  0  0  0  0
   -0.9708   -6.9584   15.1353 C   0  0  0  0  0  0  0  0  0  0  0  0
    0.0807   -6.6388   14.5163 O   0  0  0  0  0  0  0  0  0  0  0  0
   -1.7584   -7.8830   14.8259 O   0  0  0  0  0  0  0  0  0  0  0  0
    0.6087   -5.9291   14.8252 H   0  0  0  0  0  0  0  0  0  0  0  0
 15 16  2  0  0  0
 16 17  1  0  0  0
 16 11  1  0  0  0
 11 12  1  0  0  0
 11 10  1  0  0  0
 10  1  1  0  0  0
  1  2  1  0  0  0
  1  9  1  0  0  0
  2  3  2  0  0  0
  2  4  1  0  0  0
  4  5  1  0  0  0
  4 19  1  0  0  0
  5  6  2  0  0  0
  5  7  1  0  0  0
  7  8  1  0  0  0
  7  9  2  0  0  0
 19 20  1  0  0  0
 20 21  1  0  0  0
 20 24  2  0  0  0
 21 22  2  0  0  0
 22 23  1  0  0  0
 23 24  1  0  0  0
 24 25  1  0  0  0
 25 26  1  0  0  0
 25 27  2  0  0  0
 17 18  1  0  0  0
 12 13  1  0  0  0
 12 14  1  0  0  0
 26 28  1  0  0  0
M  END
> <minimizedAffinity>
-7.78955

$$$$
2F34_UBA_A_801


 28 29  0  0  0  0  0  0  0  0999 V2000
   -3.2903   -4.2135   14.7073 N   0  0  0  0  0  0  0  0  0  0  0  0
   -4.7117   -4.2390   14.6730 C   0  0  0  0  0  0  0  0  0  0  0  0
   -5.2616   -5.0891   13.9640 O   0  0  0  0  0  0  0  0  0  0  0  0
   -5.4299   -3.3121   15.4217 N   0  0  0  0  0  0  0  0  0  0  0  0
   -4.7769   -2.3566   16.1860 C   0  0  0  0  0  0  0  0  0  0  0  0
   -5.4516   -1.5711   16.8536 O   0  0  0  0  0  0  0  0  0  0  0  0
   -3.2930   -2.3463   16.2164 C   0  0  0  0  0  0  0  0  0  0  0  0
   -2.5568   -1.3049   17.0416 C   0  0  0  0  0  0  0  0  0  0  0  0
   -2.6441   -3.2950   15.4424 C   0  0  0  0  0  0  0  0  0  0  0  0
   -2.6022   -5.2355   13.9298 C   0  0  0  0  0  0  0  0  0  0  0  0
   -1.5256   -5.8521   14.8734 C   0  0  0  0  0  0  0  0  0  0  0  0
   -0.2233   -6.0198   14.2432 N   0  0  0  0  0  0  0  0  0  0  0  0
   -0.3042   -6.6731   13.4641 H   0  0  0  0  0  0  0  0  0  0  0  0
    0.4403   -6.3856   14.9261 H   0  0  0  0  0  0  0  0  0  0  0  0
   -1.4125   -8.2601   15.0471 O   0  0  0  0  0  0  0  0  0  0  0  0
   -2.0112   -7.1784   15.3676 C   0  0  0  0  0  0  0  0  0  0  0  0
   -3.0160   -7.2123   16.1110 O   0  0  0  0  0  0  0  0  0  0  0  0
   -3.4531   -6.4171   16.3445 H   0  0  0  0  0  0  0  0  0  0  0  0
   -6.8813   -3.3066   15.4868 C   0  0  0  0  0  0  0  0  0  0  0  0
   -7.3601   -4.4965   16.2263 C   0  0  0  0  0  0  0  0  0  0  0  0
   -6.9618   -5.0025   17.4760 C   0  0  0  0  0  0  0  0  0  0  0  0
   -7.6102   -6.1813   17.8913 C   0  0  0  0  0  0  0  0  0  0  0  0
   -8.7338   -6.6456   16.6462 S   0  0  0  0  0  0  0  0  0  0  0  0
   -8.3789   -5.3429   15.5999 C   0  0  0  0  0  0  0  0  0  0  0  0
   -9.0595   -5.1678   14.3083 C   0  0  0  0  0  0  0  0  0  0  0  0
   -8.4865   -5.5391   13.2478 O   0  0  0  0  0  0  0  0  0  0  0  0
  -10.2014   -4.6581   14.3919 O   0  0  0  0  0  0  0  0  0  0  0  0
   -7.6274   -5.9112   13.2850 H   0  0  0  0  0  0  0  0  0  0  0  0
 15 16  2  0  0  0
 16 17  1  0  0  0
 16 11  1  0  0  0
 11 12  1  0  0  0
 11 10  1  0  0  0
 10  1  1  0  0  0
  1  2  1  0  0  0
  1  9  1  0  0  0
  2  3  2  0  0  0
  2  4  1  0  0  0
  4  5  1  0  0  0
  4 19  1  0  0  0
  5  6  2  0  0  0
  5  7  1  0  0  0
  7  8  1  0  0  0
  7  9  2  0  0  0
 19 20  1  0  0  0
 20 21  1  0  0  0
 20 24  2  0  0  0
 21 22  2  0  0  0
 22 23  1  0  0  0
 23 24  1  0  0  0
 24 25  1  0  0  0
 25 26  1  0  0  0
 25 27  2  0  0  0
 17 18  1  0  0  0
 12 13  1  0  0  0
 12 14  1  0  0  0
 26 28  1  0  0  0
M  END
> <minimizedAffinity>
-7.39573

$$$$
2F34_UBA_A_801


 28 29  0  0  0  0  0  0  0  0999 V2000
   -5.6643   -3.5984   14.7584 N   0  0  0  0  0  0  0  0  0  0  0  0
   -4.7381   -4.3485   15.5341 C   0  0  0  0  0  0  0  0  0  0  0  0
   -4.7196   -5.5762   15.3919 O   0  0  0  0  0  0  0  0  0  0  0  0
   -3.8988   -3.6865   16.4246 N   0  0  0  0  0  0  0  0  0  0  0  0
   -3.9664   -2.3095   16.5750 C   0  0  0  0  0  0  0  0  0  0  0  0
   -3.1872   -1.7609   17.3561 O   0  0  0  0  0  0  0  0  0  0  0  0
   -4.9340   -1.5396   15.7541 C   0  0  0  0  0  0  0  0  0  0  0  0
   -5.0295   -0.0312   15.9068 C   0  0  0  0  0  0  0  0  0  0  0  0
   -5.7412   -2.2651   14.8926 C   0  0  0  0  0  0  0  0  0  0  0  0
   -6.4860   -4.3505   13.8194 C   0  0  0  0  0  0  0  0  0  0  0  0
   -7.6941   -4.8991   14.6374 C   0  0  0  0  0  0  0  0  0  0  0  0
   -7.7796   -6.3530   14.6496 N   0  0  0  0  0  0  0  0  0  0  0  0
   -7.9218   -6.6932   13.6986 H   0  0  0  0  0  0  0  0  0  0  0  0
   -8.5631   -6.6426   15.2350 H   0  0  0  0  0  0  0  0  0  0  0  0
  -10.0957   -4.8395   14.3721 O   0  0  0  0  0  0  0  0  0  0  0  0
   -8.9609   -4.3331   14.0769 C   0  0  0  0  0  0  0  0  0  0  0  0
   -8.8926   -3.3445   13.3145 O   0  0  0  0  0  0  0  0  0  0  0  0
   -8.0587   -2.9752   13.0998 H   0  0  0  0  0  0  0  0  0  0  0  0
   -2.8870   -4.3710   17.2110 C   0  0  0  0  0  0  0  0  0  0  0  0
   -1.6582   -4.5555   16.4059 C   0  0  0  0  0  0  0  0  0  0  0  0
   -0.8005   -3.5981   15.8367 C   0  0  0  0  0  0  0  0  0  0  0  0
    0.2854   -4.1120   15.1025 C   0  0  0  0  0  0  0  0  0  0  0  0
    0.1858   -5.8490   15.1377 S   0  0  0  0  0  0  0  0  0  0  0  0
   -1.2344   -5.9206   16.0841 C   0  0  0  0  0  0  0  0  0  0  0  0
   -1.8451   -7.1967   16.4849 C   0  0  0  0  0  0  0  0  0  0  0  0
   -2.7978   -7.6704   15.8076 O   0  0  0  0  0  0  0  0  0  0  0  0
   -1.3254   -7.7218   17.4973 O   0  0  0  0  0  0  0  0  0  0  0  0
   -3.1208   -7.2029   15.0625 H   0  0  0  0  0  0  0  0  0  0  0  0
 15 16  2  0  0  0
 16 17  1  0  0  0
 16 11  1  0  0  0
 11 12  1  0  0  0
 11 10  1  0  0  0
 10  1  1  0  0  0
  1  2  1  0  0  0
  1  9  1  0  0  0
  2  3  2  0  0  0
  2  4  1  0  0  0
  4  5  1  0  0  0
  4 19  1  0  0  0
  5  6  2  0  0  0
  5  7  1  0  0  0
  7  8  1  0  0  0
  7  9  2  0  0  0
 19 20  1  0  0  0
 20 21  1  0  0  0
 20 24  2  0  0  0
 21 22  2  0  0  0
 22 23  1  0  0  0
 23 24  1  0  0  0
 24 25  1  0  0  0
 25 26  1  0  0  0
 25 27  2  0  0  0
 17 18  1  0  0  0
 12 13  1  0  0  0
 12 14  1  0  0  0
 26 28  1  0  0  0
M  END
> <minimizedAffinity>
-7.05384

$$$$
2F34_UBA_A_801


 28 29  0  0  0  0  0  0  0  0999 V2000
   -7.1768   -4.4297   15.4529 N   0  0  0  0  0  0  0  0  0  0  0  0
   -5.9927   -5.2133   15.3759 C   0  0  0  0  0  0  0  0  0  0  0  0
   -6.1071   -6.4439   15.3904 O   0  0  0  0  0  0  0  0  0  0  0  0
   -4.7572   -4.5785   15.2971 N   0  0  0  0  0  0  0  0  0  0  0  0
   -4.6672   -3.1946   15.3089 C   0  0  0  0  0  0  0  0  0  0  0  0
   -3.5550   -2.6734   15.2116 O   0  0  0  0  0  0  0  0  0  0  0  0
   -5.9123   -2.3902   15.3837 C   0  0  0  0  0  0  0  0  0  0  0  0
   -5.8371   -0.8731   15.4042 C   0  0  0  0  0  0  0  0  0  0  0  0
   -7.1058   -3.0895   15.4651 C   0  0  0  0  0  0  0  0  0  0  0  0
   -8.4376   -5.1584   15.4952 C   0  0  0  0  0  0  0  0  0  0  0  0
   -8.9403   -5.2488   14.0225 C   0  0  0  0  0  0  0  0  0  0  0  0
  -10.1198   -4.4367   13.7568 N   0  0  0  0  0  0  0  0  0  0  0  0
  -10.8971   -4.7693   14.3274 H   0  0  0  0  0  0  0  0  0  0  0  0
  -10.3672   -4.5091   12.7699 H   0  0  0  0  0  0  0  0  0  0  0  0
  -10.1075   -6.9833   12.8099 O   0  0  0  0  0  0  0  0  0  0  0  0
   -9.2389   -6.6780   13.6951 C   0  0  0  0  0  0  0  0  0  0  0  0
   -8.6155   -7.5769   14.3007 O   0  0  0  0  0  0  0  0  0  0  0  0
   -7.9788   -7.3499   14.9495 H   0  0  0  0  0  0  0  0  0  0  0  0
   -3.5060   -5.3037   15.1581 C   0  0  0  0  0  0  0  0  0  0  0  0
   -2.9379   -5.5953   16.4938 C   0  0  0  0  0  0  0  0  0  0  0  0
   -3.3214   -5.1206   17.7603 C   0  0  0  0  0  0  0  0  0  0  0  0
   -2.5501   -5.5828   18.8439 C   0  0  0  0  0  0  0  0  0  0  0  0
   -1.3094   -6.6285   18.2150 S   0  0  0  0  0  0  0  0  0  0  0  0
   -1.7711   -6.4776   16.5774 C   0  0  0  0  0  0  0  0  0  0  0  0
   -1.0655   -7.1816   15.4966 C   0  0  0  0  0  0  0  0  0  0  0  0
   -1.5876   -8.2050   14.9759 O   0  0  0  0  0  0  0  0  0  0  0  0
    0.0286   -6.6637   15.1717 O   0  0  0  0  0  0  0  0  0  0  0  0
   -2.4134   -8.5196   15.2875 H   0  0  0  0  0  0  0  0  0  0  0  0
 15 16  2  0  0  0
 16 17  1  0  0  0
 16 11  1  0  0  0
 11 12  1  0  0  0
 11 10  1  0  0  0
 10  1  1  0  0  0
  1  2  1  0  0  0
  1  9  1  0  0  0
  2  3  2  0  0  0
  2  4  1  0  0  0
  4  5  1  0  0  0
  4 19  1  0  0  0
  5  6  2  0  0  0
  5  7  1  0  0  0
  7  8  1  0  0  0
  7  9  2  0  0  0
 19 20  1  0  0  0
 20 21  1  0  0  0
 20 24  2  0  0  0
 21 22  2  0  0  0
 22 23  1  0  0  0
 23 24  1  0  0  0
 24 25  1  0  0  0
 25 26  1  0  0  0
 25 27  2  0  0  0
 17 18  1  0  0  0
 12 13  1  0  0  0
 12 14  1  0  0  0
 26 28  1  0  0  0
M  END
> <minimizedAffinity>
-6.83483

$$$$
2F34_UBA_A_801


 28 29  0  0  0  0  0  0  0  0999 V2000
   -3.8556   -4.3062   14.5552 N   0  0  0  0  0  0  0  0  0  0  0  0
   -4.9448   -4.1232   15.4509 C   0  0  0  0  0  0  0  0  0  0  0  0
   -4.7098   -4.1399   16.6642 O   0  0  0  0  0  0  0  0  0  0  0  0
   -6.2263   -3.9425   14.9402 N   0  0  0  0  0  0  0  0  0  0  0  0
   -6.4545   -3.9549   13.5723 C   0  0  0  0  0  0  0  0  0  0  0  0
   -7.6009   -3.7658   13.1623 O   0  0  0  0  0  0  0  0  0  0  0  0
   -5.3068   -4.1411   12.6499 C   0  0  0  0  0  0  0  0  0  0  0  0
   -5.5344   -4.1644   11.1482 C   0  0  0  0  0  0  0  0  0  0  0  0
   -4.0606   -4.3203   13.2289 C   0  0  0  0  0  0  0  0  0  0  0  0
   -2.5364   -4.4521   15.1562 C   0  0  0  0  0  0  0  0  0  0  0  0
   -2.4539   -5.9181   15.6794 C   0  0  0  0  0  0  0  0  0  0  0  0
   -2.0565   -6.0182   17.0771 N   0  0  0  0  0  0  0  0  0  0  0  0
   -1.1169   -5.6382   17.1915 H   0  0  0  0  0  0  0  0  0  0  0  0
   -2.0647   -6.9971   17.3636 H   0  0  0  0  0  0  0  0  0  0  0  0
   -0.6491   -6.0828   14.0803 O   0  0  0  0  0  0  0  0  0  0  0  0
   -1.4867   -6.6849   14.8334 C   0  0  0  0  0  0  0  0  0  0  0  0
   -1.5057   -7.9342   14.8799 O   0  0  0  0  0  0  0  0  0  0  0  0
   -2.1213   -8.3732   15.4333 H   0  0  0  0  0  0  0  0  0  0  0  0
   -7.3826   -3.6923   15.7835 C   0  0  0  0  0  0  0  0  0  0  0  0
   -7.8277   -4.9525   16.4205 C   0  0  0  0  0  0  0  0  0  0  0  0
   -7.3370   -5.6079   17.5634 C   0  0  0  0  0  0  0  0  0  0  0  0
   -7.9787   -6.8163   17.8960 C   0  0  0  0  0  0  0  0  0  0  0  0
   -9.2174   -7.1128   16.7102 S   0  0  0  0  0  0  0  0  0  0  0  0
   -8.9190   -5.7026   15.7936 C   0  0  0  0  0  0  0  0  0  0  0  0
   -9.7033   -5.3662   14.5962 C   0  0  0  0  0  0  0  0  0  0  0  0
  -10.3130   -4.2634   14.5414 O   0  0  0  0  0  0  0  0  0  0  0  0
   -9.6756   -6.2407   13.6989 O   0  0  0  0  0  0  0  0  0  0  0  0
  -10.2753   -3.6707   15.2662 H   0  0  0  0  0  0  0  0  0  0  0  0
 15 16  2  0  0  0
 16 17  1  0  0  0
 16 11  1  0  0  0
 11 12  1  0  0  0
 11 10  1  0  0  0
 10  1  1  0  0  0
  1  2  1  0  0  0
  1  9  1  0  0  0
  2  3  2  0  0  0
  2  4  1  0  0  0
  4  5  1  0  0  0
  4 19  1  0  0  0
  5  6  2  0  0  0
  5  7  1  0  0  0
  7  8  1  0  0  0
  7  9  2  0  0  0
 19 20  1  0  0  0
 20 21  1  0  0  0
 20 24  2  0  0  0
 21 22  2  0  0  0
 22 23  1  0  0  0
 23 24  1  0  0  0
 24 25  1  0  0  0
 25 26  1  0  0  0
 25 27  2  0  0  0
 17 18  1  0  0  0
 12 13  1  0  0  0
 12 14  1  0  0  0
 26 28  1  0  0  0
M  END
> <minimizedAffinity>
-6.81533

$$$$
2F34_UBA_A_801


 28 29  0  0  0  0  0  0  0  0999 V2000
   -3.9512   -1.6771   15.4653 N   0  0  0  0  0  0  0  0  0  0  0  0
   -3.0458   -2.7736   15.4581 C   0  0  0  0  0  0  0  0  0  0  0  0
   -1.8647   -2.5551   15.7497 O   0  0  0  0  0  0  0  0  0  0  0  0
   -3.5097   -4.0404   15.1181 N   0  0  0  0  0  0  0  0  0  0  0  0
   -4.8375   -4.2418   14.7721 C   0  0  0  0  0  0  0  0  0  0  0  0
   -5.2116   -5.3844   14.5025 O   0  0  0  0  0  0  0  0  0  0  0  0
   -5.7718   -3.0887   14.7900 C   0  0  0  0  0  0  0  0  0  0  0  0
   -7.2290   -3.2850   14.4085 C   0  0  0  0  0  0  0  0  0  0  0  0
   -5.2392   -1.8563   15.1330 C   0  0  0  0  0  0  0  0  0  0  0  0
   -3.4071   -0.3866   15.8668 C   0  0  0  0  0  0  0  0  0  0  0  0
   -3.0774    0.3781   14.5492 C   0  0  0  0  0  0  0  0  0  0  0  0
   -2.5800   -0.4812   13.4836 N   0  0  0  0  0  0  0  0  0  0  0  0
   -1.7006   -0.9086   13.7740 H   0  0  0  0  0  0  0  0  0  0  0  0
   -2.4264    0.0746   12.6423 H   0  0  0  0  0  0  0  0  0  0  0  0
   -1.7620    1.7489   16.0432 O   0  0  0  0  0  0  0  0  0  0  0  0
   -2.0654    1.4410   14.8413 C   0  0  0  0  0  0  0  0  0  0  0  0
   -1.5111    2.0235   13.8839 O   0  0  0  0  0  0  0  0  0  0  0  0
   -1.7358    1.7955   13.0033 H   0  0  0  0  0  0  0  0  0  0  0  0
   -2.6643   -5.2217   15.1418 C   0  0  0  0  0  0  0  0  0  0  0  0
   -2.6862   -5.8338   16.4897 C   0  0  0  0  0  0  0  0  0  0  0  0
   -3.4414   -5.4899   17.6245 C   0  0  0  0  0  0  0  0  0  0  0  0
   -3.2079   -6.2713   18.7722 C   0  0  0  0  0  0  0  0  0  0  0  0
   -1.9896   -7.4511   18.3821 S   0  0  0  0  0  0  0  0  0  0  0  0
   -1.7780   -6.9508   16.7626 C   0  0  0  0  0  0  0  0  0  0  0  0
   -0.8308   -7.6148   15.8550 C   0  0  0  0  0  0  0  0  0  0  0  0
    0.3132   -7.1148   15.6753 O   0  0  0  0  0  0  0  0  0  0  0  0
   -1.2660   -8.6697   15.3369 O   0  0  0  0  0  0  0  0  0  0  0  0
    0.5496   -6.3182   16.1083 H   0  0  0  0  0  0  0  0  0  0  0  0
 15 16  2  0  0  0
 16 17  1  0  0  0
 16 11  1  0  0  0
 11 12  1  0  0  0
 11 10  1  0  0  0
 10  1  1  0  0  0
  1  2  1  0  0  0
  1  9  1  0  0  0
  2  3  2  0  0  0
  2  4  1  0  0  0
  4  5  1  0  0  0
  4 19  1  0  0  0
  5  6  2  0  0  0
  5  7  1  0  0  0
  7  8  1  0  0  0
  7  9  2  0  0  0
 19 20  1  0  0  0
 20 21  1  0  0  0
 20 24  2  0  0  0
 21 22  2  0  0  0
 22 23  1  0  0  0
 23 24  1  0  0  0
 24 25  1  0  0  0
 25 26  1  0  0  0
 25 27  2  0  0  0
 17 18  1  0  0  0
 12 13  1  0  0  0
 12 14  1  0  0  0
 26 28  1  0  0  0
M  END
> <minimizedAffinity>
-6.72867

$$$$
2F34_UBA_A_801


 28 29  0  0  0  0  0  0  0  0999 V2000
   -2.3765   -3.0047   16.6658 N   0  0  0  0  0  0  0  0  0  0  0  0
   -1.7725   -2.5176   17.8574 C   0  0  0  0  0  0  0  0  0  0  0  0
   -1.2453   -3.3359   18.6192 O   0  0  0  0  0  0  0  0  0  0  0  0
   -1.8014   -1.1536   18.1299 N   0  0  0  0  0  0  0  0  0  0  0  0
   -2.4248   -0.2687   17.2629 C   0  0  0  0  0  0  0  0  0  0  0  0
   -2.4050    0.9339   17.5300 O   0  0  0  0  0  0  0  0  0  0  0  0
   -3.0457   -0.7913   16.0202 C   0  0  0  0  0  0  0  0  0  0  0  0
   -3.7394    0.1589   15.0592 C   0  0  0  0  0  0  0  0  0  0  0  0
   -2.9834   -2.1606   15.8168 C   0  0  0  0  0  0  0  0  0  0  0  0
   -2.2770   -4.4380   16.4246 C   0  0  0  0  0  0  0  0  0  0  0  0
   -2.4832   -4.6392   14.8928 C   0  0  0  0  0  0  0  0  0  0  0  0
   -3.7109   -5.3471   14.5565 N   0  0  0  0  0  0  0  0  0  0  0  0
   -3.6797   -6.2877   14.9498 H   0  0  0  0  0  0  0  0  0  0  0  0
   -3.8029   -5.4054   13.5423 H   0  0  0  0  0  0  0  0  0  0  0  0
   -0.1156   -5.0201   14.5913 O   0  0  0  0  0  0  0  0  0  0  0  0
   -1.3123   -5.3865   14.3362 C   0  0  0  0  0  0  0  0  0  0  0  0
   -1.5239   -6.3874   13.6174 O   0  0  0  0  0  0  0  0  0  0  0  0
   -2.4029   -6.6538   13.4320 H   0  0  0  0  0  0  0  0  0  0  0  0
   -1.1590   -0.5689   19.2944 C   0  0  0  0  0  0  0  0  0  0  0  0
    0.0962    0.1072   18.8950 C   0  0  0  0  0  0  0  0  0  0  0  0
    1.1600   -0.3600   18.1035 C   0  0  0  0  0  0  0  0  0  0  0  0
    2.2302    0.5381   17.9287 C   0  0  0  0  0  0  0  0  0  0  0  0
    1.8617    1.9934   18.8089 S   0  0  0  0  0  0  0  0  0  0  0  0
    0.3497    1.4598   19.3979 C   0  0  0  0  0  0  0  0  0  0  0  0
   -0.5031    2.3054   20.2462 C   0  0  0  0  0  0  0  0  0  0  0  0
   -1.6972    2.5255   19.9048 O   0  0  0  0  0  0  0  0  0  0  0  0
    0.0600    2.7317   21.2816 O   0  0  0  0  0  0  0  0  0  0  0  0
   -2.0313    2.1621   19.1083 H   0  0  0  0  0  0  0  0  0  0  0  0
 15 16  2  0  0  0
 16 17  1  0  0  0
 16 11  1  0  0  0
 11 12  1  0  0  0
 11 10  1  0  0  0
 10  1  1  0  0  0
  1  2  1  0  0  0
  1  9  1  0  0  0
  2  3  2  0  0  0
  2  4  1  0  0  0
  4  5  1  0  0  0
  4 19  1  0  0  0
  5  6  2  0  0  0
  5  7  1  0  0  0
  7  8  1  0  0  0
  7  9  2  0  0  0
 19 20  1  0  0  0
 20 21  1  0  0  0
 20 24  2  0  0  0
 21 22  2  0  0  0
 22 23  1  0  0  0
 23 24  1  0  0  0
 24 25  1  0  0  0
 25 26  1  0  0  0
 25 27  2  0  0  0
 17 18  1  0  0  0
 12 13  1  0  0  0
 12 14  1  0  0  0
 26 28  1  0  0  0
M  END
> <minimizedAffinity>
-6.53721

$$$$
2F34_UBA_A_801


 28 29  0  0  0  0  0  0  0  0999 V2000
   -6.1914   -4.6463   15.9100 N   0  0  0  0  0  0  0  0  0  0  0  0
   -4.8142   -4.4136   16.1764 C   0  0  0  0  0  0  0  0  0  0  0  0
   -4.1290   -3.8948   15.2881 O   0  0  0  0  0  0  0  0  0  0  0  0
   -4.2853   -4.7810   17.4097 N   0  0  0  0  0  0  0  0  0  0  0  0
   -5.0803   -5.3841   18.3727 C   0  0  0  0  0  0  0  0  0  0  0  0
   -4.5773   -5.6702   19.4605 O   0  0  0  0  0  0  0  0  0  0  0  0
   -6.5174   -5.6151   18.0822 C   0  0  0  0  0  0  0  0  0  0  0  0
   -7.4055   -6.2799   19.1200 C   0  0  0  0  0  0  0  0  0  0  0  0
   -6.9736   -5.2289   16.8321 C   0  0  0  0  0  0  0  0  0  0  0  0
   -6.6873   -4.2033   14.6136 C   0  0  0  0  0  0  0  0  0  0  0  0
   -7.8658   -5.1556   14.2474 C   0  0  0  0  0  0  0  0  0  0  0  0
   -7.6181   -5.9618   13.0600 N   0  0  0  0  0  0  0  0  0  0  0  0
   -7.5049   -5.3504   12.2514 H   0  0  0  0  0  0  0  0  0  0  0  0
   -8.4074   -6.5889   12.9042 H   0  0  0  0  0  0  0  0  0  0  0  0
  -10.2100   -4.6784   14.5914 O   0  0  0  0  0  0  0  0  0  0  0  0
   -9.1056   -4.3428   14.0445 C   0  0  0  0  0  0  0  0  0  0  0  0
   -9.0430   -3.3176   13.3315 O   0  0  0  0  0  0  0  0  0  0  0  0
   -8.2315   -3.0739   12.9316 H   0  0  0  0  0  0  0  0  0  0  0  0
   -2.9043   -4.5264   17.7822 C   0  0  0  0  0  0  0  0  0  0  0  0
   -2.0101   -5.4927   17.1050 C   0  0  0  0  0  0  0  0  0  0  0  0
   -1.9572   -6.8942   17.2024 C   0  0  0  0  0  0  0  0  0  0  0  0
   -0.9613   -7.5220   16.4300 C   0  0  0  0  0  0  0  0  0  0  0  0
   -0.0772   -6.2855   15.5827 S   0  0  0  0  0  0  0  0  0  0  0  0
   -0.9727   -4.9732   16.2101 C   0  0  0  0  0  0  0  0  0  0  0  0
   -0.6906   -3.5806   15.8322 C   0  0  0  0  0  0  0  0  0  0  0  0
   -1.3903   -3.0233   14.9430 O   0  0  0  0  0  0  0  0  0  0  0  0
    0.2501   -3.0532   16.4708 O   0  0  0  0  0  0  0  0  0  0  0  0
   -2.0757   -3.5008   14.5184 H   0  0  0  0  0  0  0  0  0  0  0  0
 15 16  2  0  0  0
 16 17  1  0  0  0
 16 11  1  0  0  0
 11 12  1  0  0  0
 11 10  1  0  0  0
 10  1  1  0  0  0
  1  2  1  0  0  0
  1  9  1  0  0  0
  2  3  2  0  0  0
  2  4  1  0  0  0
  4  5  1  0  0  0
  4 19  1  0  0  0
  5  6  2  0  0  0
  5  7  1  0  0  0
  7  8  1  0  0  0
  7  9  2  0  0  0
 19 20  1  0  0  0
 20 21  1  0  0  0
 20 24  2  0  0  0
 21 22  2  0  0  0
 22 23  1  0  0  0
 23 24  1  0  0  0
 24 25  1  0  0  0
 25 26  1  0  0  0
 25 27  2  0  0  0
 17 18  1  0  0  0
 12 13  1  0  0  0
 12 14  1  0  0  0
 26 28  1  0  0  0
M  END
> <minimizedAffinity>
-6.49595

$$$$
2F34_UBA_A_801


 28 29  0  0  0  0  0  0  0  0999 V2000
   -4.2798   -4.2483   15.1100 N   0  0  0  0  0  0  0  0  0  0  0  0
   -4.0820   -3.0218   15.8019 C   0  0  0  0  0  0  0  0  0  0  0  0
   -5.0789   -2.3551   16.1012 O   0  0  0  0  0  0  0  0  0  0  0  0
   -2.7886   -2.6110   16.1081 N   0  0  0  0  0  0  0  0  0  0  0  0
   -1.6930   -3.3742   15.7333 C   0  0  0  0  0  0  0  0  0  0  0  0
   -0.5665   -2.9858   16.0470 O   0  0  0  0  0  0  0  0  0  0  0  0
   -1.9155   -4.6549   15.0170 C   0  0  0  0  0  0  0  0  0  0  0  0
   -0.7299   -5.5038   14.5913 C   0  0  0  0  0  0  0  0  0  0  0  0
   -3.2294   -4.9980   14.7409 C   0  0  0  0  0  0  0  0  0  0  0  0
   -5.6607   -4.6361   14.8546 C   0  0  0  0  0  0  0  0  0  0  0  0
   -5.9957   -4.1387   13.4159 C   0  0  0  0  0  0  0  0  0  0  0  0
   -7.2250   -3.3614   13.3378 N   0  0  0  0  0  0  0  0  0  0  0  0
   -8.0149   -3.9460   13.6113 H   0  0  0  0  0  0  0  0  0  0  0  0
   -7.3597   -3.0335   12.3814 H   0  0  0  0  0  0  0  0  0  0  0  0
   -5.1080   -5.6799   11.7795 O   0  0  0  0  0  0  0  0  0  0  0  0
   -6.0974   -5.3193   12.5022 C   0  0  0  0  0  0  0  0  0  0  0  0
   -7.1717   -5.9576   12.4611 O   0  0  0  0  0  0  0  0  0  0  0  0
   -7.8959   -5.6907   12.9925 H   0  0  0  0  0  0  0  0  0  0  0  0
   -2.5034   -1.4019   16.8616 C   0  0  0  0  0  0  0  0  0  0  0  0
   -2.3424   -1.7255   18.2974 C   0  0  0  0  0  0  0  0  0  0  0  0
   -3.1943   -2.4326   19.1638 C   0  0  0  0  0  0  0  0  0  0  0  0
   -2.7502   -2.5490   20.4949 C   0  0  0  0  0  0  0  0  0  0  0  0
   -1.2242   -1.7232   20.6280 S   0  0  0  0  0  0  0  0  0  0  0  0
   -1.1520   -1.2310   18.9939 C   0  0  0  0  0  0  0  0  0  0  0  0
   -0.0210   -0.4595   18.4575 C   0  0  0  0  0  0  0  0  0  0  0  0
    0.8353   -1.0340   17.7312 O   0  0  0  0  0  0  0  0  0  0  0  0
   -0.0266    0.7528   18.7753 O   0  0  0  0  0  0  0  0  0  0  0  0
    0.7556   -1.9495   17.5478 H   0  0  0  0  0  0  0  0  0  0  0  0
 15 16  2  0  0  0
 16 17  1  0  0  0
 16 11  1  0  0  0
 11 12  1  0  0  0
 11 10  1  0  0  0
 10  1  1  0  0  0
  1  2  1  0  0  0
  1  9  1  0  0  0
  2  3  2  0  0  0
  2  4  1  0  0  0
  4  5  1  0  0  0
  4 19  1  0  0  0
  5  6  2  0  0  0
  5  7  1  0  0  0
  7  8  1  0  0  0
  7  9  2  0  0  0
 19 20  1  0  0  0
 20 21  1  0  0  0
 20 24  2  0  0  0
 21 22  2  0  0  0
 22 23  1  0  0  0
 23 24  1  0  0  0
 24 25  1  0  0  0
 25 26  1  0  0  0
 25 27  2  0  0  0
 17 18  1  0  0  0
 12 13  1  0  0  0
 12 14  1  0  0  0
 26 28  1  0  0  0
M  END
> <minimizedAffinity>
-6.38062

$$$$
