4DDH_MS0_A_403


 16 17  0  0  0  0  0  0  0  0999 V2000
   14.4202   10.5831    1.3084 O   0  0  0  0  0  0  0  0  0  0  0  0
   14.3323   10.3475   -0.0765 C   0  0  0  0  0  0  0  0  0  0  0  0
   15.6105   10.3361   -0.5239 C   0  0  0  0  0  0  0  0  0  0  0  0
   16.4206   10.5441    0.5570 C   0  0  0  0  0  0  0  0  0  0  0  0
   15.6942   10.6640    1.6690 C   0  0  0  0  0  0  0  0  0  0  0  0
   15.8527   10.1590   -1.8442 C   0  0  0  0  0  0  0  0  0  0  0  0
   14.8059    9.9789   -2.7552 C   0  0  0  0  0  0  0  0  0  0  0  0
   13.4966    9.9801   -2.2843 C   0  0  0  0  0  0  0  0  0  0  0  0
   13.2573   10.1962   -0.9027 C   0  0  0  0  0  0  0  0  0  0  0  0
   12.4844    9.7813   -3.1804 O   0  0  0  0  0  0  0  0  0  0  0  0
   12.9015    9.1216   -4.4070 C   0  0  0  0  0  0  0  0  0  0  0  0
   17.9843   10.5027    0.6693 C   0  0  0  0  0  0  0  0  0  0  0  0
   18.7899   11.6515    0.2681 C   0  0  0  0  0  0  0  0  0  0  0  0
   18.1053   12.6562   -0.0130 O   0  0  0  0  0  0  0  0  0  0  0  0
   20.0374   11.5087    0.1453 O   0  0  0  0  0  0  0  0  0  0  0  0
   17.1782   12.6443    0.1227 H   0  0  0  0  0  0  0  0  0  0  0  0
  5  1  1  0  0  0
  2  1  1  0  0  0
  3  2  1  0  0  0
  2  9  2  0  0  0
  4  3  1  0  0  0
  6  3  2  0  0  0
 12  4  1  0  0  0
  4  5  2  0  0  0
 13 12  1  0  0  0
 15 13  2  0  0  0
 14 13  1  0  0  0
  6  7  1  0  0  0
  7  8  2  0  0  0
  8  9  1  0  0  0
  8 10  1  0  0  0
 10 11  1  0  0  0
 14 16  1  0  0  0
M  END
> <minimizedAffinity>
-7.30581

$$$$
4DDH_MS0_A_403


 16 17  0  0  0  0  0  0  0  0999 V2000
   16.1466   10.1038   -2.5963 O   0  0  0  0  0  0  0  0  0  0  0  0
   15.3110   10.1872   -1.4666 C   0  0  0  0  0  0  0  0  0  0  0  0
   14.0466   10.1001   -1.9442 C   0  0  0  0  0  0  0  0  0  0  0  0
   14.1341    9.9581   -3.3007 C   0  0  0  0  0  0  0  0  0  0  0  0
   15.4105    9.9320   -3.6863 C   0  0  0  0  0  0  0  0  0  0  0  0
   13.0030   10.1814   -1.0854 C   0  0  0  0  0  0  0  0  0  0  0  0
   13.2068   10.3456    0.2893 C   0  0  0  0  0  0  0  0  0  0  0  0
   14.5098   10.4220    0.7718 C   0  0  0  0  0  0  0  0  0  0  0  0
   15.5921   10.3648   -0.1437 C   0  0  0  0  0  0  0  0  0  0  0  0
   14.6961   10.5603    2.1183 O   0  0  0  0  0  0  0  0  0  0  0  0
   13.4864   10.8964    2.8514 C   0  0  0  0  0  0  0  0  0  0  0  0
   13.0121    9.6824   -4.3612 C   0  0  0  0  0  0  0  0  0  0  0  0
   12.4355    8.3496   -4.5050 C   0  0  0  0  0  0  0  0  0  0  0  0
   11.1886    8.3573   -4.5528 O   0  0  0  0  0  0  0  0  0  0  0  0
   13.2001    7.3467   -4.4661 O   0  0  0  0  0  0  0  0  0  0  0  0
   10.7258    9.1716   -4.5783 H   0  0  0  0  0  0  0  0  0  0  0  0
  5  1  1  0  0  0
  2  1  1  0  0  0
  3  2  1  0  0  0
  2  9  2  0  0  0
  4  3  1  0  0  0
  6  3  2  0  0  0
 12  4  1  0  0  0
  4  5  2  0  0  0
 13 12  1  0  0  0
 15 13  2  0  0  0
 14 13  1  0  0  0
  6  7  1  0  0  0
  7  8  2  0  0  0
  8  9  1  0  0  0
  8 10  1  0  0  0
 10 11  1  0  0  0
 14 16  1  0  0  0
M  END
> <minimizedAffinity>
-6.84322

$$$$
4DDH_MS0_A_403


 16 17  0  0  0  0  0  0  0  0999 V2000
   16.1713   10.0761   -0.3370 O   0  0  0  0  0  0  0  0  0  0  0  0
   15.1602   10.0468   -1.3157 C   0  0  0  0  0  0  0  0  0  0  0  0
   13.9922   10.0583   -0.6303 C   0  0  0  0  0  0  0  0  0  0  0  0
   14.3027   10.1054    0.6998 C   0  0  0  0  0  0  0  0  0  0  0  0
   15.6248   10.1454    0.8698 C   0  0  0  0  0  0  0  0  0  0  0  0
   12.8214   10.0048   -1.3082 C   0  0  0  0  0  0  0  0  0  0  0  0
   12.7954    9.9463   -2.7061 C   0  0  0  0  0  0  0  0  0  0  0  0
   14.0004    9.9471   -3.4020 C   0  0  0  0  0  0  0  0  0  0  0  0
   15.2194    9.9737   -2.6766 C   0  0  0  0  0  0  0  0  0  0  0  0
   13.9613    9.9119   -4.7674 O   0  0  0  0  0  0  0  0  0  0  0  0
   15.2483    9.6461   -5.3892 C   0  0  0  0  0  0  0  0  0  0  0  0
   13.3688   10.2677    1.9492 C   0  0  0  0  0  0  0  0  0  0  0  0
   12.4512    9.2010    2.3360 C   0  0  0  0  0  0  0  0  0  0  0  0
   11.6102    9.5613    3.1845 O   0  0  0  0  0  0  0  0  0  0  0  0
   12.6406    8.0391    1.8822 O   0  0  0  0  0  0  0  0  0  0  0  0
   11.5633   10.4600    3.4453 H   0  0  0  0  0  0  0  0  0  0  0  0
  5  1  1  0  0  0
  2  1  1  0  0  0
  3  2  1  0  0  0
  2  9  2  0  0  0
  4  3  1  0  0  0
  6  3  2  0  0  0
 12  4  1  0  0  0
  4  5  2  0  0  0
 13 12  1  0  0  0
 15 13  2  0  0  0
 14 13  1  0  0  0
  6  7  1  0  0  0
  7  8  2  0  0  0
  8  9  1  0  0  0
  8 10  1  0  0  0
 10 11  1  0  0  0
 14 16  1  0  0  0
M  END
> <minimizedAffinity>
-6.79159

$$$$
4DDH_MS0_A_403


 16 17  0  0  0  0  0  0  0  0999 V2000
   12.4257   10.1324   -1.7889 O   0  0  0  0  0  0  0  0  0  0  0  0
   13.6843   10.2041   -1.1627 C   0  0  0  0  0  0  0  0  0  0  0  0
   14.5665    9.7138   -2.0657 C   0  0  0  0  0  0  0  0  0  0  0  0
   13.8575    9.3782   -3.1849 C   0  0  0  0  0  0  0  0  0  0  0  0
   12.5647    9.6614   -3.0212 C   0  0  0  0  0  0  0  0  0  0  0  0
   15.8768    9.6249   -1.7364 C   0  0  0  0  0  0  0  0  0  0  0  0
   16.3384   10.0386   -0.4818 C   0  0  0  0  0  0  0  0  0  0  0  0
   15.4261   10.5521    0.4348 C   0  0  0  0  0  0  0  0  0  0  0  0
   14.0522   10.6115    0.0860 C   0  0  0  0  0  0  0  0  0  0  0  0
   15.8925   10.9730    1.6483 O   0  0  0  0  0  0  0  0  0  0  0  0
   16.0966    9.9001    2.6080 C   0  0  0  0  0  0  0  0  0  0  0  0
   14.3584    8.8886   -4.5881 C   0  0  0  0  0  0  0  0  0  0  0  0
   14.9940    9.8175   -5.5169 C   0  0  0  0  0  0  0  0  0  0  0  0
   16.1629    9.4944   -5.8105 O   0  0  0  0  0  0  0  0  0  0  0  0
   14.3780   10.8683   -5.8459 O   0  0  0  0  0  0  0  0  0  0  0  0
   16.5148    8.6812   -5.5057 H   0  0  0  0  0  0  0  0  0  0  0  0
  5  1  1  0  0  0
  2  1  1  0  0  0
  3  2  1  0  0  0
  2  9  2  0  0  0
  4  3  1  0  0  0
  6  3  2  0  0  0
 12  4  1  0  0  0
  4  5  2  0  0  0
 13 12  1  0  0  0
 15 13  2  0  0  0
 14 13  1  0  0  0
  6  7  1  0  0  0
  7  8  2  0  0  0
  8  9  1  0  0  0
  8 10  1  0  0  0
 10 11  1  0  0  0
 14 16  1  0  0  0
M  END
> <minimizedAffinity>
-6.73325

$$$$
4DDH_MS0_A_403


 16 17  0  0  0  0  0  0  0  0999 V2000
   13.0249   10.3682   -0.5057 O   0  0  0  0  0  0  0  0  0  0  0  0
   14.4233   10.4622   -0.3755 C   0  0  0  0  0  0  0  0  0  0  0  0
   14.9203   10.1992   -1.6076 C   0  0  0  0  0  0  0  0  0  0  0  0
   13.8560    9.9717   -2.4343 C   0  0  0  0  0  0  0  0  0  0  0  0
   12.7092   10.1042   -1.7667 C   0  0  0  0  0  0  0  0  0  0  0  0
   16.2610   10.1850   -1.7961 C   0  0  0  0  0  0  0  0  0  0  0  0
   17.1438   10.4456   -0.7420 C   0  0  0  0  0  0  0  0  0  0  0  0
   16.6234   10.7266    0.5175 C   0  0  0  0  0  0  0  0  0  0  0  0
   15.2173   10.7088    0.7060 C   0  0  0  0  0  0  0  0  0  0  0  0
   17.4950   11.0011    1.5334 O   0  0  0  0  0  0  0  0  0  0  0  0
   18.8531   11.2718    1.0905 C   0  0  0  0  0  0  0  0  0  0  0  0
   13.8129    9.7492   -3.9862 C   0  0  0  0  0  0  0  0  0  0  0  0
   13.0479    8.6463   -4.5588 C   0  0  0  0  0  0  0  0  0  0  0  0
   12.0249    9.0225   -5.1662 O   0  0  0  0  0  0  0  0  0  0  0  0
   13.4095    7.4622   -4.3157 O   0  0  0  0  0  0  0  0  0  0  0  0
   11.8612    9.9372   -5.2864 H   0  0  0  0  0  0  0  0  0  0  0  0
  5  1  1  0  0  0
  2  1  1  0  0  0
  3  2  1  0  0  0
  2  9  2  0  0  0
  4  3  1  0  0  0
  6  3  2  0  0  0
 12  4  1  0  0  0
  4  5  2  0  0  0
 13 12  1  0  0  0
 15 13  2  0  0  0
 14 13  1  0  0  0
  6  7  1  0  0  0
  7  8  2  0  0  0
  8  9  1  0  0  0
  8 10  1  0  0  0
 10 11  1  0  0  0
 14 16  1  0  0  0
M  END
> <minimizedAffinity>
-6.66073

$$$$
4DDH_MS0_A_403


 16 17  0  0  0  0  0  0  0  0999 V2000
   12.9439   11.0991   -0.4972 O   0  0  0  0  0  0  0  0  0  0  0  0
   13.3361   10.0048    0.2966 C   0  0  0  0  0  0  0  0  0  0  0  0
   13.8879    9.1142   -0.5615 C   0  0  0  0  0  0  0  0  0  0  0  0
   13.8345    9.6671   -1.8102 C   0  0  0  0  0  0  0  0  0  0  0  0
   13.2876   10.8824   -1.7599 C   0  0  0  0  0  0  0  0  0  0  0  0
   14.3392    7.9275   -0.0911 C   0  0  0  0  0  0  0  0  0  0  0  0
   14.2536    7.6070    1.2685 C   0  0  0  0  0  0  0  0  0  0  0  0
   13.6961    8.5336    2.1442 C   0  0  0  0  0  0  0  0  0  0  0  0
   13.2009    9.7604    1.6318 C   0  0  0  0  0  0  0  0  0  0  0  0
   13.6382    8.2180    3.4724 O   0  0  0  0  0  0  0  0  0  0  0  0
   14.0574    9.2947    4.3549 C   0  0  0  0  0  0  0  0  0  0  0  0
   14.4352    9.1576   -3.1663 C   0  0  0  0  0  0  0  0  0  0  0  0
   13.5640    8.6586   -4.2253 C   0  0  0  0  0  0  0  0  0  0  0  0
   13.5084    7.4128   -4.2682 O   0  0  0  0  0  0  0  0  0  0  0  0
   13.0501    9.4822   -5.0312 O   0  0  0  0  0  0  0  0  0  0  0  0
   13.9333    6.9018   -3.6076 H   0  0  0  0  0  0  0  0  0  0  0  0
  5  1  1  0  0  0
  2  1  1  0  0  0
  3  2  1  0  0  0
  2  9  2  0  0  0
  4  3  1  0  0  0
  6  3  2  0  0  0
 12  4  1  0  0  0
  4  5  2  0  0  0
 13 12  1  0  0  0
 15 13  2  0  0  0
 14 13  1  0  0  0
  6  7  1  0  0  0
  7  8  2  0  0  0
  8  9  1  0  0  0
  8 10  1  0  0  0
 10 11  1  0  0  0
 14 16  1  0  0  0
M  END
> <minimizedAffinity>
-6.54840

$$$$
4DDH_MS0_A_403


 16 17  0  0  0  0  0  0  0  0999 V2000
   18.0458   11.6112   -0.5812 O   0  0  0  0  0  0  0  0  0  0  0  0
   16.8816   10.8203   -0.5986 C   0  0  0  0  0  0  0  0  0  0  0  0
   16.5063   10.6997    0.6971 C   0  0  0  0  0  0  0  0  0  0  0  0
   17.4068   11.4025    1.4475 C   0  0  0  0  0  0  0  0  0  0  0  0
   18.3207   11.9765    0.6640 C   0  0  0  0  0  0  0  0  0  0  0  0
   15.4181    9.9569    1.0091 C   0  0  0  0  0  0  0  0  0  0  0  0
   14.6680    9.3176    0.0158 C   0  0  0  0  0  0  0  0  0  0  0  0
   15.0544    9.4573   -1.3137 C   0  0  0  0  0  0  0  0  0  0  0  0
   16.2139   10.2145   -1.6223 C   0  0  0  0  0  0  0  0  0  0  0  0
   14.3011    8.8463   -2.2761 O   0  0  0  0  0  0  0  0  0  0  0  0
   13.4013    9.7443   -2.9816 C   0  0  0  0  0  0  0  0  0  0  0  0
   17.4077   11.7258    2.9821 C   0  0  0  0  0  0  0  0  0  0  0  0
   16.4164   12.6324    3.5520 C   0  0  0  0  0  0  0  0  0  0  0  0
   16.7707   13.8285    3.5210 O   0  0  0  0  0  0  0  0  0  0  0  0
   15.3855   12.1468    4.0936 O   0  0  0  0  0  0  0  0  0  0  0  0
   17.5637   14.0710    3.0846 H   0  0  0  0  0  0  0  0  0  0  0  0
  5  1  1  0  0  0
  2  1  1  0  0  0
  3  2  1  0  0  0
  2  9  2  0  0  0
  4  3  1  0  0  0
  6  3  2  0  0  0
 12  4  1  0  0  0
  4  5  2  0  0  0
 13 12  1  0  0  0
 15 13  2  0  0  0
 14 13  1  0  0  0
  6  7  1  0  0  0
  7  8  2  0  0  0
  8  9  1  0  0  0
  8 10  1  0  0  0
 10 11  1  0  0  0
 14 16  1  0  0  0
M  END
> <minimizedAffinity>
-6.49513

$$$$
4DDH_MS0_A_403


 16 17  0  0  0  0  0  0  0  0999 V2000
   14.3202   10.5701    2.1410 O   0  0  0  0  0  0  0  0  0  0  0  0
   14.7647   10.4418    0.8116 C   0  0  0  0  0  0  0  0  0  0  0  0
   16.1172   10.4658    0.8780 C   0  0  0  0  0  0  0  0  0  0  0  0
   16.4566   10.5904    2.1960 C   0  0  0  0  0  0  0  0  0  0  0  0
   15.3633   10.6239    2.9588 C   0  0  0  0  0  0  0  0  0  0  0  0
   16.8416   10.3911   -0.2634 C   0  0  0  0  0  0  0  0  0  0  0  0
   16.2184   10.2809   -1.5115 C   0  0  0  0  0  0  0  0  0  0  0  0
   14.8285   10.2450   -1.5684 C   0  0  0  0  0  0  0  0  0  0  0  0
   14.0827   10.3539   -0.3665 C   0  0  0  0  0  0  0  0  0  0  0  0
   14.2323   10.1151   -2.7910 O   0  0  0  0  0  0  0  0  0  0  0  0
   12.7941    9.9111   -2.7291 C   0  0  0  0  0  0  0  0  0  0  0  0
   17.8648   10.5415    2.8847 C   0  0  0  0  0  0  0  0  0  0  0  0
   19.0842   10.5130    2.0836 C   0  0  0  0  0  0  0  0  0  0  0  0
   19.4333    9.3588    1.7629 O   0  0  0  0  0  0  0  0  0  0  0  0
   19.7068   11.5917    1.8818 O   0  0  0  0  0  0  0  0  0  0  0  0
   18.8827    8.6288    1.9679 H   0  0  0  0  0  0  0  0  0  0  0  0
  5  1  1  0  0  0
  2  1  1  0  0  0
  3  2  1  0  0  0
  2  9  2  0  0  0
  4  3  1  0  0  0
  6  3  2  0  0  0
 12  4  1  0  0  0
  4  5  2  0  0  0
 13 12  1  0  0  0
 15 13  2  0  0  0
 14 13  1  0  0  0
  6  7  1  0  0  0
  7  8  2  0  0  0
  8  9  1  0  0  0
  8 10  1  0  0  0
 10 11  1  0  0  0
 14 16  1  0  0  0
M  END
> <minimizedAffinity>
-6.40424

$$$$
4DDH_MS0_A_403


 16 17  0  0  0  0  0  0  0  0999 V2000
   16.4548   10.5272   -1.3783 O   0  0  0  0  0  0  0  0  0  0  0  0
   15.5158   10.4081   -0.3365 C   0  0  0  0  0  0  0  0  0  0  0  0
   14.4249    9.8328   -0.8962 C   0  0  0  0  0  0  0  0  0  0  0  0
   14.7144    9.6099   -2.2132 C   0  0  0  0  0  0  0  0  0  0  0  0
   15.9567   10.0065   -2.4920 C   0  0  0  0  0  0  0  0  0  0  0  0
   13.3247    9.6131   -0.1382 C   0  0  0  0  0  0  0  0  0  0  0  0
   13.2966    9.9623    1.2166 C   0  0  0  0  0  0  0  0  0  0  0  0
   14.4265   10.5419    1.7855 C   0  0  0  0  0  0  0  0  0  0  0  0
   15.5610   10.7927    0.9715 C   0  0  0  0  0  0  0  0  0  0  0  0
   14.3943   10.8581    3.1144 O   0  0  0  0  0  0  0  0  0  0  0  0
   15.5796   11.5560    3.5852 C   0  0  0  0  0  0  0  0  0  0  0  0
   13.8896    8.8575   -3.3147 C   0  0  0  0  0  0  0  0  0  0  0  0
   12.9182    9.5731   -4.1355 C   0  0  0  0  0  0  0  0  0  0  0  0
   11.8401    9.7870   -3.5449 O   0  0  0  0  0  0  0  0  0  0  0  0
   13.1970    9.8106   -5.3429 O   0  0  0  0  0  0  0  0  0  0  0  0
   11.7507    9.5667   -2.6385 H   0  0  0  0  0  0  0  0  0  0  0  0
  5  1  1  0  0  0
  2  1  1  0  0  0
  3  2  1  0  0  0
  2  9  2  0  0  0
  4  3  1  0  0  0
  6  3  2  0  0  0
 12  4  1  0  0  0
  4  5  2  0  0  0
 13 12  1  0  0  0
 15 13  2  0  0  0
 14 13  1  0  0  0
  6  7  1  0  0  0
  7  8  2  0  0  0
  8  9  1  0  0  0
  8 10  1  0  0  0
 10 11  1  0  0  0
 14 16  1  0  0  0
M  END
> <minimizedAffinity>
-6.39581

$$$$
4DDH_MS0_A_403


 16 17  0  0  0  0  0  0  0  0999 V2000
   13.1475   10.4895    1.0309 O   0  0  0  0  0  0  0  0  0  0  0  0
   13.7108   10.3066   -0.2460 C   0  0  0  0  0  0  0  0  0  0  0  0
   15.0516   10.3201   -0.0557 C   0  0  0  0  0  0  0  0  0  0  0  0
   15.2698   10.4915    1.2826 C   0  0  0  0  0  0  0  0  0  0  0  0
   14.1113   10.5643    1.9392 C   0  0  0  0  0  0  0  0  0  0  0  0
   15.8771   10.1952   -1.1216 C   0  0  0  0  0  0  0  0  0  0  0  0
   15.3700   10.0437   -2.4171 C   0  0  0  0  0  0  0  0  0  0  0  0
   13.9910   10.0190   -2.6011 C   0  0  0  0  0  0  0  0  0  0  0  0
   13.1391   10.1806   -1.4782 C   0  0  0  0  0  0  0  0  0  0  0  0
   13.5083    9.8485   -3.8680 O   0  0  0  0  0  0  0  0  0  0  0  0
   14.5362    9.5877   -4.8625 C   0  0  0  0  0  0  0  0  0  0  0  0
   16.6078   10.4552    2.0999 C   0  0  0  0  0  0  0  0  0  0  0  0
   17.1900   11.6842    2.6291 C   0  0  0  0  0  0  0  0  0  0  0  0
   17.2631   12.5968    1.7813 O   0  0  0  0  0  0  0  0  0  0  0  0
   17.6419   11.6872    3.8071 O   0  0  0  0  0  0  0  0  0  0  0  0
   16.8865   12.4782    0.9315 H   0  0  0  0  0  0  0  0  0  0  0  0
  5  1  1  0  0  0
  2  1  1  0  0  0
  3  2  1  0  0  0
  2  9  2  0  0  0
  4  3  1  0  0  0
  6  3  2  0  0  0
 12  4  1  0  0  0
  4  5  2  0  0  0
 13 12  1  0  0  0
 15 13  2  0  0  0
 14 13  1  0  0  0
  6  7  1  0  0  0
  7  8  2  0  0  0
  8  9  1  0  0  0
  8 10  1  0  0  0
 10 11  1  0  0  0
 14 16  1  0  0  0
M  END
> <minimizedAffinity>
-6.36940

$$$$
