4DDH_MS0_A_403
  RCSB PDB12061712113D
Coordinates from PDB:4DDH:A:403 Model:1 without hydrogens
 15 16  0  0  0  0            999 V2000
   13.7020   10.7090   -0.2550   O 0  0  0  0  0  0  0  0  0  0  0  0
   14.0050   10.4070   -1.5960   C 0  0  0  0  0  0  0  0  0  0  0  0
   15.3560   10.3320   -1.6540   C 0  0  0  0  0  0  0  0  0  0  0  0
   15.8300   10.5680   -0.3940   C 0  0  0  0  0  0  0  0  0  0  0  0
   14.8210   10.7670    0.4550   C 0  0  0  0  0  0  0  0  0  0  0  0
   17.2920   10.4820    0.1670   C 0  0  0  0  0  0  0  0  0  0  0  0
   18.3400   11.3560   -0.3500   C 0  0  0  0  0  0  0  0  0  0  0  0
   19.4430   10.7840   -0.4650   O 0  0  0  0  0  0  0  0  0  0  0  0
   18.0820   12.5780   -0.5290   O 0  0  0  0  0  0  0  0  0  0  0  0
   15.9590   10.0810   -2.8400   C 0  0  0  0  0  0  0  0  0  0  0  0
   15.2110    9.8890   -4.0070   C 0  0  0  0  0  0  0  0  0  0  0  0
   13.8230    9.9560   -3.9350   C 0  0  0  0  0  0  0  0  0  0  0  0
   13.2070   10.2490   -2.6910   C 0  0  0  0  0  0  0  0  0  0  0  0
   13.1030    9.7450   -5.0770   O 0  0  0  0  0  0  0  0  0  0  0  0
   11.6750    9.5860   -4.8550   C 0  0  0  0  0  0  0  0  0  0  0  0
  5  1  1  0  0  0  0
  2  1  1  0  0  0  0
  3  2  1  0  0  0  0
  2 13  2  0  0  0  0
  4  3  1  0  0  0  0
 10  3  2  0  0  0  0
  6  4  1  0  0  0  0
  4  5  2  0  0  0  0
  7  6  1  0  0  0  0
  9  7  2  0  0  0  0
  8  7  1  0  0  0  0
 10 11  1  0  0  0  0
 11 12  2  0  0  0  0
 12 13  1  0  0  0  0
 12 14  1  0  0  0  0
 14 15  1  0  0  0  0
A    1
O1
A    2
C2
A    3
C3
A    4
C4
A    5
C5
A    6
C7
A    7
C10
A    8
O11
A    9
O12
A   10
C14
A   11
C16
A   12
C18
A   13
C19
A   14
O21
A   15
C22
M  END
>  <InstanceId>
4DDH_MS0_A_403

>  <ChemCompId>
MS0

>  <PdbId>
4DDH

>  <ChainId>
A

>  <ResidueNumber>
403

>  <InsertionCode>


>  <Model>
1

>  <AltIds>


>  <MissingHeavyAtoms>
0

>  <ObservedFormula>
C11 O4

>  <Name>
(6-methoxy-1-benzofuran-3-yl)acetic acid

>  <SystematicName>
2-(6-methoxy-1-benzofuran-3-yl)ethanoic acid

>  <Synonyms>


>  <Type>
NON-POLYMER

>  <Formula>
C11 H10 O4

>  <MolecularWeight>
206.195

>  <ModifiedDate>
2011-06-04

>  <Parent>


>  <OneLetterCode>


>  <SubcomponentList>


>  <AmbiguousFlag>
N

>  <InChI>
InChI=1S/C11H10O4/c1-14-8-2-3-9-7(4-11(12)13)6-15-10(9)5-8/h2-3,5-6H,4H2,1H3,(H,12,13)

>  <InChIKey>
QCXJFLREQGIACT-UHFFFAOYSA-N

>  <SMILES>
COc1ccc2c(c1)occ2CC(=O)O

$$$$
