5TP0_BRN_A_306


 17 17  0  0  0  0  0  0  0  0999 V2000
    4.2821   -3.8869  -12.1447 C   0  0  0  0  0  0  0  0  0  0  0  0
    3.0397   -4.2534  -11.7727 C   0  0  0  0  0  0  0  0  0  0  0  0
    2.5368   -4.0705  -10.5232 C   0  0  0  0  0  0  0  0  0  0  0  0
    3.3792   -3.6420   -9.5039 C   0  0  0  0  0  0  0  0  0  0  0  0
    4.6756   -3.2980   -9.7958 C   0  0  0  0  0  0  0  0  0  0  0  0
    5.1275   -3.4068  -11.1324 C   0  0  0  0  0  0  0  0  0  0  0  0
    2.9248   -3.5497   -8.1195 C   0  0  0  0  0  0  0  0  0  0  0  0
    1.6230   -3.7443   -7.8040 N   0  0  0  0  0  0  0  0  0  0  0  0
    3.7673   -3.2999   -7.1759 N   0  0  0  0  0  0  0  0  0  0  0  0
    0.9679   -3.9360   -8.5135 H   0  0  0  0  0  0  0  0  0  0  0  0
    4.7175   -3.1560   -7.3896 H   0  0  0  0  0  0  0  0  0  0  0  0
    3.4604   -3.2530   -6.2416 H   0  0  0  0  0  0  0  0  0  0  0  0
    4.6578   -3.9944  -13.4259 N   0  0  0  0  0  0  0  0  0  0  0  0
    5.4398   -5.0356  -13.6051 N   0  0  0  0  0  0  0  0  0  0  0  0
    4.3841   -3.3746  -14.1401 H   0  0  0  0  0  0  0  0  0  0  0  0
    5.5741   -5.5169  -12.7159 H   0  0  0  0  0  0  0  0  0  0  0  0
    6.3428   -4.7250  -13.9634 H   0  0  0  0  0  0  0  0  0  0  0  0
  1  2  2  0  0  0
  1  6  1  0  0  0
  1 13  1  0  0  0
  2  3  1  0  0  0
  3  4  2  0  0  0
  4  5  1  0  0  0
  4  7  1  0  0  0
  5  6  2  0  0  0
  7  8  2  0  0  0
  7  9  1  0  0  0
 13 14  1  0  0  0
  8 10  1  0  0  0
  9 11  1  0  0  0
  9 12  1  0  0  0
 13 15  1  0  0  0
 14 16  1  0  0  0
 14 17  1  0  0  0
M  END
> <minimizedAffinity>
-7.06302

$$$$
5TP0_BRN_A_306


 17 17  0  0  0  0  0  0  0  0999 V2000
    3.7583   -3.5291   -9.0713 C   0  0  0  0  0  0  0  0  0  0  0  0
    4.9584   -3.4093   -9.6727 C   0  0  0  0  0  0  0  0  0  0  0  0
    5.1528   -3.5421  -11.0115 C   0  0  0  0  0  0  0  0  0  0  0  0
    4.1101   -3.9947  -11.8115 C   0  0  0  0  0  0  0  0  0  0  0  0
    2.8682   -4.1893  -11.2601 C   0  0  0  0  0  0  0  0  0  0  0  0
    2.6863   -3.9393   -9.8792 C   0  0  0  0  0  0  0  0  0  0  0  0
    4.2978   -4.2761  -13.2317 C   0  0  0  0  0  0  0  0  0  0  0  0
    5.3827   -4.9602  -13.6642 N   0  0  0  0  0  0  0  0  0  0  0  0
    3.4170   -3.8907  -14.0910 N   0  0  0  0  0  0  0  0  0  0  0  0
    6.0638   -5.2611  -13.0201 H   0  0  0  0  0  0  0  0  0  0  0  0
    2.6226   -3.3922  -13.7918 H   0  0  0  0  0  0  0  0  0  0  0  0
    3.5390   -4.0949  -15.0463 H   0  0  0  0  0  0  0  0  0  0  0  0
    3.6339   -3.2661   -7.7638 N   0  0  0  0  0  0  0  0  0  0  0  0
    2.4772   -3.6873   -7.3032 N   0  0  0  0  0  0  0  0  0  0  0  0
    4.3194   -2.8161   -7.2190 H   0  0  0  0  0  0  0  0  0  0  0  0
    1.9462   -4.1180   -8.0601 H   0  0  0  0  0  0  0  0  0  0  0  0
    1.9531   -2.8973   -6.9268 H   0  0  0  0  0  0  0  0  0  0  0  0
  1  2  2  0  0  0
  1  6  1  0  0  0
  1 13  1  0  0  0
  2  3  1  0  0  0
  3  4  2  0  0  0
  4  5  1  0  0  0
  4  7  1  0  0  0
  5  6  2  0  0  0
  7  8  2  0  0  0
  7  9  1  0  0  0
 13 14  1  0  0  0
  8 10  1  0  0  0
  9 11  1  0  0  0
  9 12  1  0  0  0
 13 15  1  0  0  0
 14 16  1  0  0  0
 14 17  1  0  0  0
M  END
> <minimizedAffinity>
-6.59672

$$$$
5TP0_BRN_A_306


 17 17  0  0  0  0  0  0  0  0999 V2000
    3.3757   -3.5765   -9.2458 C   0  0  0  0  0  0  0  0  0  0  0  0
    2.4722   -4.0544  -10.1242 C   0  0  0  0  0  0  0  0  0  0  0  0
    2.7687   -4.4016  -11.4045 C   0  0  0  0  0  0  0  0  0  0  0  0
    4.0235   -4.0999  -11.9209 C   0  0  0  0  0  0  0  0  0  0  0  0
    4.9832   -3.5630  -11.0992 C   0  0  0  0  0  0  0  0  0  0  0  0
    4.6611   -3.3129   -9.7441 C   0  0  0  0  0  0  0  0  0  0  0  0
    4.3538   -4.3345  -13.3235 C   0  0  0  0  0  0  0  0  0  0  0  0
    3.5697   -3.8422  -14.3108 N   0  0  0  0  0  0  0  0  0  0  0  0
    5.4126   -5.0001  -13.6377 N   0  0  0  0  0  0  0  0  0  0  0  0
    2.7581   -3.3320  -14.0866 H   0  0  0  0  0  0  0  0  0  0  0  0
    5.9929   -5.3644  -12.9307 H   0  0  0  0  0  0  0  0  0  0  0  0
    5.6406   -5.1439  -14.5845 H   0  0  0  0  0  0  0  0  0  0  0  0
    3.0264   -3.3709   -7.9692 N   0  0  0  0  0  0  0  0  0  0  0  0
    1.7389   -3.5670   -7.7922 N   0  0  0  0  0  0  0  0  0  0  0  0
    3.6524   -3.1074   -7.2564 H   0  0  0  0  0  0  0  0  0  0  0  0
    1.3102   -3.8314   -8.6792 H   0  0  0  0  0  0  0  0  0  0  0  0
    1.3082   -2.7084   -7.4491 H   0  0  0  0  0  0  0  0  0  0  0  0
  1  2  2  0  0  0
  1  6  1  0  0  0
  1 13  1  0  0  0
  2  3  1  0  0  0
  3  4  2  0  0  0
  4  5  1  0  0  0
  4  7  1  0  0  0
  5  6  2  0  0  0
  7  8  2  0  0  0
  7  9  1  0  0  0
 13 14  1  0  0  0
  8 10  1  0  0  0
  9 11  1  0  0  0
  9 12  1  0  0  0
 13 15  1  0  0  0
 14 16  1  0  0  0
 14 17  1  0  0  0
M  END
> <minimizedAffinity>
-6.52807

$$$$
5TP0_BRN_A_306


 17 17  0  0  0  0  0  0  0  0999 V2000
    4.6291   -3.6488   -8.6496 C   0  0  0  0  0  0  0  0  0  0  0  0
    3.3262   -3.7748   -8.3286 C   0  0  0  0  0  0  0  0  0  0  0  0
    2.3400   -4.0043   -9.2355 C   0  0  0  0  0  0  0  0  0  0  0  0
    2.6322   -3.9408  -10.5930 C   0  0  0  0  0  0  0  0  0  0  0  0
    3.9315   -3.7637  -10.9990 C   0  0  0  0  0  0  0  0  0  0  0  0
    4.9425   -3.6317  -10.0176 C   0  0  0  0  0  0  0  0  0  0  0  0
    1.5901   -4.0533  -11.6093 C   0  0  0  0  0  0  0  0  0  0  0  0
    1.5672   -3.2162  -12.6726 N   0  0  0  0  0  0  0  0  0  0  0  0
    0.6874   -4.9692  -11.5137 N   0  0  0  0  0  0  0  0  0  0  0  0
    2.2497   -2.5120  -12.7595 H   0  0  0  0  0  0  0  0  0  0  0  0
    0.6909   -5.5856  -10.7460 H   0  0  0  0  0  0  0  0  0  0  0  0
   -0.0053   -5.0520  -12.2083 H   0  0  0  0  0  0  0  0  0  0  0  0
    5.5507   -3.5426   -7.6835 N   0  0  0  0  0  0  0  0  0  0  0  0
    6.5089   -4.4281   -7.8426 N   0  0  0  0  0  0  0  0  0  0  0  0
    5.5152   -2.8868   -6.9501 H   0  0  0  0  0  0  0  0  0  0  0  0
    6.3185   -4.9897   -8.6725 H   0  0  0  0  0  0  0  0  0  0  0  0
    6.5505   -5.0349   -7.0237 H   0  0  0  0  0  0  0  0  0  0  0  0
  1  2  2  0  0  0
  1  6  1  0  0  0
  1 13  1  0  0  0
  2  3  1  0  0  0
  3  4  2  0  0  0
  4  5  1  0  0  0
  4  7  1  0  0  0
  5  6  2  0  0  0
  7  8  2  0  0  0
  7  9  1  0  0  0
 13 14  1  0  0  0
  8 10  1  0  0  0
  9 11  1  0  0  0
  9 12  1  0  0  0
 13 15  1  0  0  0
 14 16  1  0  0  0
 14 17  1  0  0  0
M  END
> <minimizedAffinity>
-6.40197

$$$$
5TP0_BRN_A_306


 17 17  0  0  0  0  0  0  0  0999 V2000
    4.3945   -3.6879   -8.8780 C   0  0  0  0  0  0  0  0  0  0  0  0
    5.3164   -3.6104   -9.8580 C   0  0  0  0  0  0  0  0  0  0  0  0
    5.0128   -3.4886  -11.1774 C   0  0  0  0  0  0  0  0  0  0  0  0
    3.6917   -3.6200  -11.5893 C   0  0  0  0  0  0  0  0  0  0  0  0
    2.6993   -3.7538  -10.6503 C   0  0  0  0  0  0  0  0  0  0  0  0
    3.0524   -3.7725   -9.2801 C   0  0  0  0  0  0  0  0  0  0  0  0
    3.3243   -3.6244  -13.0022 C   0  0  0  0  0  0  0  0  0  0  0  0
    2.0255   -3.5720  -13.3796 N   0  0  0  0  0  0  0  0  0  0  0  0
    4.2393   -3.6584  -13.9100 N   0  0  0  0  0  0  0  0  0  0  0  0
    1.3155   -3.5455  -12.6981 H   0  0  0  0  0  0  0  0  0  0  0  0
    5.1884   -3.6967  -13.6511 H   0  0  0  0  0  0  0  0  0  0  0  0
    3.9889   -3.6463  -14.8621 H   0  0  0  0  0  0  0  0  0  0  0  0
    4.7781   -3.6866   -7.5946 N   0  0  0  0  0  0  0  0  0  0  0  0
    6.0110   -4.1241   -7.4677 N   0  0  0  0  0  0  0  0  0  0  0  0
    4.2106   -3.3959   -6.8445 H   0  0  0  0  0  0  0  0  0  0  0  0
    6.3837   -4.3621   -8.3868 H   0  0  0  0  0  0  0  0  0  0  0  0
    6.0182   -4.9527   -6.8729 H   0  0  0  0  0  0  0  0  0  0  0  0
  1  2  2  0  0  0
  1  6  1  0  0  0
  1 13  1  0  0  0
  2  3  1  0  0  0
  3  4  2  0  0  0
  4  5  1  0  0  0
  4  7  1  0  0  0
  5  6  2  0  0  0
  7  8  2  0  0  0
  7  9  1  0  0  0
 13 14  1  0  0  0
  8 10  1  0  0  0
  9 11  1  0  0  0
  9 12  1  0  0  0
 13 15  1  0  0  0
 14 16  1  0  0  0
 14 17  1  0  0  0
M  END
> <minimizedAffinity>
-6.27719

$$$$
5TP0_BRN_A_306


 17 17  0  0  0  0  0  0  0  0999 V2000
    2.3038   -3.9577   -8.2739 C   0  0  0  0  0  0  0  0  0  0  0  0
    1.9544   -4.0432   -9.5727 C   0  0  0  0  0  0  0  0  0  0  0  0
    2.8349   -3.9438  -10.6034 C   0  0  0  0  0  0  0  0  0  0  0  0
    4.1468   -3.5627  -10.3467 C   0  0  0  0  0  0  0  0  0  0  0  0
    4.5653   -3.4059   -9.0488 C   0  0  0  0  0  0  0  0  0  0  0  0
    3.6387   -3.6204   -8.0010 C   0  0  0  0  0  0  0  0  0  0  0  0
    5.1006   -3.3177  -11.4246 C   0  0  0  0  0  0  0  0  0  0  0  0
    5.8232   -2.1738  -11.4624 N   0  0  0  0  0  0  0  0  0  0  0  0
    5.2795   -4.2022  -12.3456 N   0  0  0  0  0  0  0  0  0  0  0  0
    5.6978   -1.4891  -10.7663 H   0  0  0  0  0  0  0  0  0  0  0  0
    4.7613   -5.0392  -12.3315 H   0  0  0  0  0  0  0  0  0  0  0  0
    5.9342   -4.0406  -13.0628 H   0  0  0  0  0  0  0  0  0  0  0  0
    1.3935   -4.1850   -7.3179 N   0  0  0  0  0  0  0  0  0  0  0  0
    1.8354   -5.0579   -6.4401 N   0  0  0  0  0  0  0  0  0  0  0  0
    0.5090   -3.7546   -7.2780 H   0  0  0  0  0  0  0  0  0  0  0  0
    2.7756   -5.3557   -6.7005 H   0  0  0  0  0  0  0  0  0  0  0  0
    1.2148   -5.8672   -6.4233 H   0  0  0  0  0  0  0  0  0  0  0  0
  1  2  2  0  0  0
  1  6  1  0  0  0
  1 13  1  0  0  0
  2  3  1  0  0  0
  3  4  2  0  0  0
  4  5  1  0  0  0
  4  7  1  0  0  0
  5  6  2  0  0  0
  7  8  2  0  0  0
  7  9  1  0  0  0
 13 14  1  0  0  0
  8 10  1  0  0  0
  9 11  1  0  0  0
  9 12  1  0  0  0
 13 15  1  0  0  0
 14 16  1  0  0  0
 14 17  1  0  0  0
M  END
> <minimizedAffinity>
-6.14898

$$$$
5TP0_BRN_A_306


 17 17  0  0  0  0  0  0  0  0999 V2000
    3.0490   -3.7570  -12.3297 C   0  0  0  0  0  0  0  0  0  0  0  0
    2.1862   -3.9408  -11.3108 C   0  0  0  0  0  0  0  0  0  0  0  0
    2.5174   -3.7952  -10.0005 C   0  0  0  0  0  0  0  0  0  0  0  0
    3.8501   -3.6155   -9.6487 C   0  0  0  0  0  0  0  0  0  0  0  0
    4.7969   -3.4706  -10.6321 C   0  0  0  0  0  0  0  0  0  0  0  0
    4.3903   -3.5265  -11.9864 C   0  0  0  0  0  0  0  0  0  0  0  0
    4.2784   -3.5799   -8.2535 C   0  0  0  0  0  0  0  0  0  0  0  0
    5.5605   -3.8523   -7.9160 N   0  0  0  0  0  0  0  0  0  0  0  0
    3.4394   -3.2676   -7.3255 N   0  0  0  0  0  0  0  0  0  0  0  0
    6.2127   -4.0923   -8.6134 H   0  0  0  0  0  0  0  0  0  0  0  0
    2.5034   -3.0668   -7.5553 H   0  0  0  0  0  0  0  0  0  0  0  0
    3.7348   -3.2300   -6.3871 H   0  0  0  0  0  0  0  0  0  0  0  0
    2.6124   -3.8040  -13.5952 N   0  0  0  0  0  0  0  0  0  0  0  0
    1.3566   -4.1884  -13.6497 N   0  0  0  0  0  0  0  0  0  0  0  0
    3.1605   -3.5799  -14.3817 H   0  0  0  0  0  0  0  0  0  0  0  0
    1.0124   -4.3605  -12.7051 H   0  0  0  0  0  0  0  0  0  0  0  0
    1.2869   -5.0454  -14.1983 H   0  0  0  0  0  0  0  0  0  0  0  0
  1  2  2  0  0  0
  1  6  1  0  0  0
  1 13  1  0  0  0
  2  3  1  0  0  0
  3  4  2  0  0  0
  4  5  1  0  0  0
  4  7  1  0  0  0
  5  6  2  0  0  0
  7  8  2  0  0  0
  7  9  1  0  0  0
 13 14  1  0  0  0
  8 10  1  0  0  0
  9 11  1  0  0  0
  9 12  1  0  0  0
 13 15  1  0  0  0
 14 16  1  0  0  0
 14 17  1  0  0  0
M  END
> <minimizedAffinity>
-5.89516

$$$$
5TP0_BRN_A_306


 17 17  0  0  0  0  0  0  0  0999 V2000
    4.4812   -3.9922  -11.7078 C   0  0  0  0  0  0  0  0  0  0  0  0
    3.4124   -3.7775  -10.9153 C   0  0  0  0  0  0  0  0  0  0  0  0
    2.1752   -4.2865  -11.1558 C   0  0  0  0  0  0  0  0  0  0  0  0
    1.9222   -4.9248  -12.3644 C   0  0  0  0  0  0  0  0  0  0  0  0
    2.9516   -5.1358  -13.2477 C   0  0  0  0  0  0  0  0  0  0  0  0
    4.2474   -4.6786  -12.9095 C   0  0  0  0  0  0  0  0  0  0  0  0
    0.5830   -5.3781  -12.7283 C   0  0  0  0  0  0  0  0  0  0  0  0
   -0.3018   -5.7567  -11.7766 N   0  0  0  0  0  0  0  0  0  0  0  0
    0.2210   -5.4037  -13.9657 N   0  0  0  0  0  0  0  0  0  0  0  0
   -0.0402   -5.7426  -10.8276 H   0  0  0  0  0  0  0  0  0  0  0  0
    0.8535   -5.1312  -14.6693 H   0  0  0  0  0  0  0  0  0  0  0  0
   -0.6877   -5.6957  -14.2068 H   0  0  0  0  0  0  0  0  0  0  0  0
    5.6908   -3.5531  -11.3361 N   0  0  0  0  0  0  0  0  0  0  0  0
    5.7717   -2.2449  -11.4355 N   0  0  0  0  0  0  0  0  0  0  0  0
    6.4237   -4.1342  -11.0286 H   0  0  0  0  0  0  0  0  0  0  0  0
    4.8843   -1.8743  -11.7755 H   0  0  0  0  0  0  0  0  0  0  0  0
    6.5155   -1.9989  -12.0887 H   0  0  0  0  0  0  0  0  0  0  0  0
  1  2  2  0  0  0
  1  6  1  0  0  0
  1 13  1  0  0  0
  2  3  1  0  0  0
  3  4  2  0  0  0
  4  5  1  0  0  0
  4  7  1  0  0  0
  5  6  2  0  0  0
  7  8  2  0  0  0
  7  9  1  0  0  0
 13 14  1  0  0  0
  8 10  1  0  0  0
  9 11  1  0  0  0
  9 12  1  0  0  0
 13 15  1  0  0  0
 14 16  1  0  0  0
 14 17  1  0  0  0
M  END
> <minimizedAffinity>
-5.11291

$$$$
5TP0_BRN_A_306


 17 17  0  0  0  0  0  0  0  0999 V2000
    1.5327   -5.2399  -12.2200 C   0  0  0  0  0  0  0  0  0  0  0  0
    2.7342   -4.7929  -11.8043 C   0  0  0  0  0  0  0  0  0  0  0  0
    3.8562   -4.8074  -12.5716 C   0  0  0  0  0  0  0  0  0  0  0  0
    3.8390   -5.4686  -13.7942 C   0  0  0  0  0  0  0  0  0  0  0  0
    2.6615   -5.9960  -14.2629 C   0  0  0  0  0  0  0  0  0  0  0  0
    1.4930   -5.8670  -13.4751 C   0  0  0  0  0  0  0  0  0  0  0  0
    5.0462   -5.6245  -14.6003 C   0  0  0  0  0  0  0  0  0  0  0  0
    5.4595   -4.6348  -15.4260 N   0  0  0  0  0  0  0  0  0  0  0  0
    5.7454   -6.7048  -14.5186 N   0  0  0  0  0  0  0  0  0  0  0  0
    4.9363   -3.8041  -15.4991 H   0  0  0  0  0  0  0  0  0  0  0  0
    5.4576   -7.4335  -13.9224 H   0  0  0  0  0  0  0  0  0  0  0  0
    6.5671   -6.8009  -15.0523 H   0  0  0  0  0  0  0  0  0  0  0  0
    0.4525   -5.0803  -11.4442 N   0  0  0  0  0  0  0  0  0  0  0  0
   -0.5374   -5.8459  -11.8461 N   0  0  0  0  0  0  0  0  0  0  0  0
    0.4060   -4.4694  -10.6736 H   0  0  0  0  0  0  0  0  0  0  0  0
   -0.2422   -6.3836  -12.6611 H   0  0  0  0  0  0  0  0  0  0  0  0
   -1.3379   -5.2645  -12.0942 H   0  0  0  0  0  0  0  0  0  0  0  0
  1  2  2  0  0  0
  1  6  1  0  0  0
  1 13  1  0  0  0
  2  3  1  0  0  0
  3  4  2  0  0  0
  4  5  1  0  0  0
  4  7  1  0  0  0
  5  6  2  0  0  0
  7  8  2  0  0  0
  7  9  1  0  0  0
 13 14  1  0  0  0
  8 10  1  0  0  0
  9 11  1  0  0  0
  9 12  1  0  0  0
 13 15  1  0  0  0
 14 16  1  0  0  0
 14 17  1  0  0  0
M  END
> <minimizedAffinity>
-4.99297

$$$$
5TP0_BRN_A_306


 17 17  0  0  0  0  0  0  0  0999 V2000
    2.0604   -4.5413  -12.0617 C   0  0  0  0  0  0  0  0  0  0  0  0
    3.4064   -4.4761  -12.0413 C   0  0  0  0  0  0  0  0  0  0  0  0
    4.1637   -4.0935  -13.1033 C   0  0  0  0  0  0  0  0  0  0  0  0
    3.5615   -3.9181  -14.3438 C   0  0  0  0  0  0  0  0  0  0  0  0
    2.1970   -4.0189  -14.4550 C   0  0  0  0  0  0  0  0  0  0  0  0
    1.4371   -4.3184  -13.2994 C   0  0  0  0  0  0  0  0  0  0  0  0
    4.3427   -3.6317  -15.5434 C   0  0  0  0  0  0  0  0  0  0  0  0
    5.0669   -2.4924  -15.6419 N   0  0  0  0  0  0  0  0  0  0  0  0
    4.3665   -4.4751  -16.5184 N   0  0  0  0  0  0  0  0  0  0  0  0
    5.0588   -1.8388  -14.9057 H   0  0  0  0  0  0  0  0  0  0  0  0
    3.8450   -5.3082  -16.4614 H   0  0  0  0  0  0  0  0  0  0  0  0
    4.9061   -4.2860  -17.3199 H   0  0  0  0  0  0  0  0  0  0  0  0
    1.3848   -4.8130  -10.9375 N   0  0  0  0  0  0  0  0  0  0  0  0
    2.0331   -4.3817   -9.8786 N   0  0  0  0  0  0  0  0  0  0  0  0
    0.5161   -5.2754  -10.9081 H   0  0  0  0  0  0  0  0  0  0  0  0
    2.9044   -3.9389  -10.1704 H   0  0  0  0  0  0  0  0  0  0  0  0
    2.2409   -5.1683   -9.2634 H   0  0  0  0  0  0  0  0  0  0  0  0
  1  2  2  0  0  0
  1  6  1  0  0  0
  1 13  1  0  0  0
  2  3  1  0  0  0
  3  4  2  0  0  0
  4  5  1  0  0  0
  4  7  1  0  0  0
  5  6  2  0  0  0
  7  8  2  0  0  0
  7  9  1  0  0  0
 13 14  1  0  0  0
  8 10  1  0  0  0
  9 11  1  0  0  0
  9 12  1  0  0  0
 13 15  1  0  0  0
 14 16  1  0  0  0
 14 17  1  0  0  0
M  END
> <minimizedAffinity>
-4.79469

$$$$
