1O35_802_A_246


 25 27  0  0  0  0  0  0  0  0999 V2000
   44.0269   -3.0041   26.5055 C   0  0  0  0  0  0  0  0  0  0  0  0
   44.3071   -1.6100   26.4820 C   0  0  0  0  0  0  0  0  0  0  0  0
   44.0511   -0.8096   27.6001 C   0  0  0  0  0  0  0  0  0  0  0  0
   43.5222   -1.4007   28.7285 C   0  0  0  0  0  0  0  0  0  0  0  0
   43.1667   -2.7007   28.7568 C   0  0  0  0  0  0  0  0  0  0  0  0
   43.4186   -3.5436   27.6522 C   0  0  0  0  0  0  0  0  0  0  0  0
   43.1727   -0.8897   29.8690 N   0  0  0  0  0  0  0  0  0  0  0  0
   42.6798   -3.0425   29.9360 N   0  0  0  0  0  0  0  0  0  0  0  0
   42.6743   -1.8725   30.5697 C   0  0  0  0  0  0  0  0  0  0  0  0
   43.2648    0.0495   30.1494 H   0  0  0  0  0  0  0  0  0  0  0  0
   42.2057   -1.7036   31.8706 C   0  0  0  0  0  0  0  0  0  0  0  0
   42.6532   -2.5071   32.9241 C   0  0  0  0  0  0  0  0  0  0  0  0
   42.1435   -2.3173   34.2041 C   0  0  0  0  0  0  0  0  0  0  0  0
   42.5554   -3.0968   35.2655 F   0  0  0  0  0  0  0  0  0  0  0  0
   41.1841   -1.3467   34.4296 C   0  0  0  0  0  0  0  0  0  0  0  0
   40.7092   -0.5615   33.3766 C   0  0  0  0  0  0  0  0  0  0  0  0
   41.2270   -0.7355   32.1128 C   0  0  0  0  0  0  0  0  0  0  0  0
   40.7600    0.0459   31.0829 O   0  0  0  0  0  0  0  0  0  0  0  0
   44.2927   -3.7757   25.3627 C   0  0  0  0  0  0  0  0  0  0  0  0
   44.2751   -5.0752   25.4197 N   0  0  0  0  0  0  0  0  0  0  0  0
   44.6217   -3.2349   24.2114 N   0  0  0  0  0  0  0  0  0  0  0  0
   44.0349   -5.5279   26.2603 H   0  0  0  0  0  0  0  0  0  0  0  0
   44.5021   -5.6060   24.6223 H   0  0  0  0  0  0  0  0  0  0  0  0
   44.6495   -2.2553   24.1176 H   0  0  0  0  0  0  0  0  0  0  0  0
   44.8406   -3.8094   23.4424 H   0  0  0  0  0  0  0  0  0  0  0  0
  1  2  2  0  0  0
  1  6  1  0  0  0
  1 19  1  0  0  0
  2  3  1  0  0  0
  3  4  2  0  0  0
  4  5  1  0  0  0
  4  7  1  0  0  0
  5  6  2  0  0  0
  5  8  1  0  0  0
 19 20  1  0  0  0
 19 21  2  0  0  0
  7  9  1  0  0  0
  8  9  2  0  0  0
  9 11  1  0  0  0
 11 12  2  0  0  0
 11 17  1  0  0  0
 12 13  1  0  0  0
 13 14  1  0  0  0
 13 15  2  0  0  0
 15 16  1  0  0  0
 16 17  2  0  0  0
 17 18  1  0  0  0
 20 22  1  0  0  0
 20 23  1  0  0  0
 21 24  1  0  0  0
 21 25  1  0  0  0
  7 10  1  0  0  0
M  CHG 1  18  -1
M  CHG 1  21   1
M  END
> <minimizedAffinity>
-8.21941

$$$$
1O35_802_A_246


 25 27  0  0  0  0  0  0  0  0999 V2000
   44.0636   -2.5575   26.4996 C   0  0  0  0  0  0  0  0  0  0  0  0
   44.2490   -3.8227   27.1221 C   0  0  0  0  0  0  0  0  0  0  0  0
   44.0329   -3.9834   28.4947 C   0  0  0  0  0  0  0  0  0  0  0  0
   43.6340   -2.8889   29.2332 C   0  0  0  0  0  0  0  0  0  0  0  0
   43.5304   -1.6586   28.6922 C   0  0  0  0  0  0  0  0  0  0  0  0
   43.7302   -1.4576   27.3089 C   0  0  0  0  0  0  0  0  0  0  0  0
   43.3967   -2.7634   30.5028 N   0  0  0  0  0  0  0  0  0  0  0  0
   43.1396   -0.7691   29.5870 N   0  0  0  0  0  0  0  0  0  0  0  0
   43.1089   -1.5043   30.6956 C   0  0  0  0  0  0  0  0  0  0  0  0
   43.4275   -3.4741   31.1834 H   0  0  0  0  0  0  0  0  0  0  0  0
   42.7769   -0.9945   31.9487 C   0  0  0  0  0  0  0  0  0  0  0  0
   41.4735   -1.0657   32.4505 C   0  0  0  0  0  0  0  0  0  0  0  0
   41.1818   -0.5255   33.6985 C   0  0  0  0  0  0  0  0  0  0  0  0
   39.9056   -0.5699   34.2212 F   0  0  0  0  0  0  0  0  0  0  0  0
   42.1761    0.0950   34.4330 C   0  0  0  0  0  0  0  0  0  0  0  0
   43.4731    0.1980   33.9250 C   0  0  0  0  0  0  0  0  0  0  0  0
   43.7674   -0.3534   32.6982 C   0  0  0  0  0  0  0  0  0  0  0  0
   45.0478   -0.2546   32.2080 O   0  0  0  0  0  0  0  0  0  0  0  0
   44.2943   -2.4324   25.1201 C   0  0  0  0  0  0  0  0  0  0  0  0
   44.0814   -1.3030   24.5106 N   0  0  0  0  0  0  0  0  0  0  0  0
   44.6766   -3.4465   24.3773 N   0  0  0  0  0  0  0  0  0  0  0  0
   43.7934   -0.5135   25.0235 H   0  0  0  0  0  0  0  0  0  0  0  0
   44.2082   -1.2378   23.5365 H   0  0  0  0  0  0  0  0  0  0  0  0
   44.8504   -4.3224   24.7919 H   0  0  0  0  0  0  0  0  0  0  0  0
   44.7894   -3.3305   23.4062 H   0  0  0  0  0  0  0  0  0  0  0  0
  1  2  2  0  0  0
  1  6  1  0  0  0
  1 19  1  0  0  0
  2  3  1  0  0  0
  3  4  2  0  0  0
  4  5  1  0  0  0
  4  7  1  0  0  0
  5  6  2  0  0  0
  5  8  1  0  0  0
 19 20  1  0  0  0
 19 21  2  0  0  0
  7  9  1  0  0  0
  8  9  2  0  0  0
  9 11  1  0  0  0
 11 12  2  0  0  0
 11 17  1  0  0  0
 12 13  1  0  0  0
 13 14  1  0  0  0
 13 15  2  0  0  0
 15 16  1  0  0  0
 16 17  2  0  0  0
 17 18  1  0  0  0
 20 22  1  0  0  0
 20 23  1  0  0  0
 21 24  1  0  0  0
 21 25  1  0  0  0
  7 10  1  0  0  0
M  CHG 1  18  -1
M  CHG 1  21   1
M  END
> <minimizedAffinity>
-7.99368

$$$$
1O35_802_A_246


 25 27  0  0  0  0  0  0  0  0999 V2000
   44.0925   -2.5985   26.5836 C   0  0  0  0  0  0  0  0  0  0  0  0
   44.0701   -3.9366   27.0645 C   0  0  0  0  0  0  0  0  0  0  0  0
   43.8762   -4.2056   28.4234 C   0  0  0  0  0  0  0  0  0  0  0  0
   43.7052   -3.1453   29.2888 C   0  0  0  0  0  0  0  0  0  0  0  0
   43.8046   -1.8644   28.8811 C   0  0  0  0  0  0  0  0  0  0  0  0
   43.9892   -1.5519   27.5164 C   0  0  0  0  0  0  0  0  0  0  0  0
   43.5381   -3.1193   30.5754 N   0  0  0  0  0  0  0  0  0  0  0  0
   43.6102   -1.0230   29.8806 N   0  0  0  0  0  0  0  0  0  0  0  0
   43.4868   -1.8579   30.9094 C   0  0  0  0  0  0  0  0  0  0  0  0
   43.4648   -3.8942   31.1781 H   0  0  0  0  0  0  0  0  0  0  0  0
   43.2948   -1.4374   32.2234 C   0  0  0  0  0  0  0  0  0  0  0  0
   44.1459   -0.5087   32.8308 C   0  0  0  0  0  0  0  0  0  0  0  0
   43.9293   -0.1319   34.1519 C   0  0  0  0  0  0  0  0  0  0  0  0
   44.7536    0.7749   34.7859 F   0  0  0  0  0  0  0  0  0  0  0  0
   42.8839   -0.6879   34.8671 C   0  0  0  0  0  0  0  0  0  0  0  0
   42.0487   -1.6395   34.2774 C   0  0  0  0  0  0  0  0  0  0  0  0
   42.2505   -1.9988   32.9637 C   0  0  0  0  0  0  0  0  0  0  0  0
   41.4200   -2.9305   32.3879 O   0  0  0  0  0  0  0  0  0  0  0  0
   44.2941   -2.3661   25.2135 C   0  0  0  0  0  0  0  0  0  0  0  0
   44.1217   -1.1798   24.7084 N   0  0  0  0  0  0  0  0  0  0  0  0
   44.6072   -3.3294   24.3766 N   0  0  0  0  0  0  0  0  0  0  0  0
   43.8859   -0.4247   25.2945 H   0  0  0  0  0  0  0  0  0  0  0  0
   44.2268   -1.0370   23.7400 H   0  0  0  0  0  0  0  0  0  0  0  0
   44.7481   -4.2449   24.7102 H   0  0  0  0  0  0  0  0  0  0  0  0
   44.7009   -3.1357   23.4159 H   0  0  0  0  0  0  0  0  0  0  0  0
  1  2  2  0  0  0
  1  6  1  0  0  0
  1 19  1  0  0  0
  2  3  1  0  0  0
  3  4  2  0  0  0
  4  5  1  0  0  0
  4  7  1  0  0  0
  5  6  2  0  0  0
  5  8  1  0  0  0
 19 20  1  0  0  0
 19 21  2  0  0  0
  7  9  1  0  0  0
  8  9  2  0  0  0
  9 11  1  0  0  0
 11 12  2  0  0  0
 11 17  1  0  0  0
 12 13  1  0  0  0
 13 14  1  0  0  0
 13 15  2  0  0  0
 15 16  1  0  0  0
 16 17  2  0  0  0
 17 18  1  0  0  0
 20 22  1  0  0  0
 20 23  1  0  0  0
 21 24  1  0  0  0
 21 25  1  0  0  0
  7 10  1  0  0  0
M  CHG 1  18  -1
M  CHG 1  21   1
M  END
> <minimizedAffinity>
-7.93771

$$$$
1O35_802_A_246


 25 27  0  0  0  0  0  0  0  0999 V2000
   44.0945   -2.9431   26.4892 C   0  0  0  0  0  0  0  0  0  0  0  0
   44.7574   -1.6906   26.6084 C   0  0  0  0  0  0  0  0  0  0  0  0
   44.4609   -0.8216   27.6635 C   0  0  0  0  0  0  0  0  0  0  0  0
   43.5123   -1.2050   28.5885 C   0  0  0  0  0  0  0  0  0  0  0  0
   42.8056   -2.3456   28.4594 C   0  0  0  0  0  0  0  0  0  0  0  0
   43.0826   -3.2538   27.4142 C   0  0  0  0  0  0  0  0  0  0  0  0
   43.0411   -0.5853   29.6267 N   0  0  0  0  0  0  0  0  0  0  0  0
   41.9538   -2.5013   29.4568 N   0  0  0  0  0  0  0  0  0  0  0  0
   42.1192   -1.3636   30.1266 C   0  0  0  0  0  0  0  0  0  0  0  0
   43.3219    0.2942   29.9685 H   0  0  0  0  0  0  0  0  0  0  0  0
   41.3988   -1.0327   31.2720 C   0  0  0  0  0  0  0  0  0  0  0  0
   40.1833   -0.3445   31.2038 C   0  0  0  0  0  0  0  0  0  0  0  0
   39.5071   -0.0164   32.3739 C   0  0  0  0  0  0  0  0  0  0  0  0
   38.3102    0.6695   32.3451 F   0  0  0  0  0  0  0  0  0  0  0  0
   40.0451   -0.3561   33.6021 C   0  0  0  0  0  0  0  0  0  0  0  0
   41.2740   -1.0155   33.6795 C   0  0  0  0  0  0  0  0  0  0  0  0
   41.9349   -1.3579   32.5213 C   0  0  0  0  0  0  0  0  0  0  0  0
   43.1402   -2.0132   32.6052 O   0  0  0  0  0  0  0  0  0  0  0  0
   44.4147   -3.7881   25.4143 C   0  0  0  0  0  0  0  0  0  0  0  0
   44.6560   -3.2985   24.2334 N   0  0  0  0  0  0  0  0  0  0  0  0
   44.4317   -5.0967   25.5307 N   0  0  0  0  0  0  0  0  0  0  0  0
   44.6546   -2.3238   24.0950 H   0  0  0  0  0  0  0  0  0  0  0  0
   44.8401   -3.9027   23.4782 H   0  0  0  0  0  0  0  0  0  0  0  0
   44.2551   -5.5155   26.4040 H   0  0  0  0  0  0  0  0  0  0  0  0
   44.6211   -5.6584   24.7447 H   0  0  0  0  0  0  0  0  0  0  0  0
  1  2  2  0  0  0
  1  6  1  0  0  0
  1 19  1  0  0  0
  2  3  1  0  0  0
  3  4  2  0  0  0
  4  5  1  0  0  0
  4  7  1  0  0  0
  5  6  2  0  0  0
  5  8  1  0  0  0
 19 20  1  0  0  0
 19 21  2  0  0  0
  7  9  1  0  0  0
  8  9  2  0  0  0
  9 11  1  0  0  0
 11 12  2  0  0  0
 11 17  1  0  0  0
 12 13  1  0  0  0
 13 14  1  0  0  0
 13 15  2  0  0  0
 15 16  1  0  0  0
 16 17  2  0  0  0
 17 18  1  0  0  0
 20 22  1  0  0  0
 20 23  1  0  0  0
 21 24  1  0  0  0
 21 25  1  0  0  0
  7 10  1  0  0  0
M  CHG 1  18  -1
M  CHG 1  21   1
M  END
> <minimizedAffinity>
-7.88539

$$$$
1O35_802_A_246


 25 27  0  0  0  0  0  0  0  0999 V2000
   44.1614   -2.5182   26.5234 C   0  0  0  0  0  0  0  0  0  0  0  0
   44.2695   -1.3961   27.3903 C   0  0  0  0  0  0  0  0  0  0  0  0
   44.1164   -1.5425   28.7729 C   0  0  0  0  0  0  0  0  0  0  0  0
   43.8598   -2.7994   29.2797 C   0  0  0  0  0  0  0  0  0  0  0  0
   43.6679   -3.8684   28.4814 C   0  0  0  0  0  0  0  0  0  0  0  0
   43.8241   -3.7634   27.0819 C   0  0  0  0  0  0  0  0  0  0  0  0
   43.6528   -3.1966   30.4976 N   0  0  0  0  0  0  0  0  0  0  0  0
   43.4320   -4.9607   29.1856 N   0  0  0  0  0  0  0  0  0  0  0  0
   43.3986   -4.4754   30.4241 C   0  0  0  0  0  0  0  0  0  0  0  0
   43.6815   -2.6451   31.3126 H   0  0  0  0  0  0  0  0  0  0  0  0
   43.1421   -5.2548   31.5498 C   0  0  0  0  0  0  0  0  0  0  0  0
   43.7935   -6.4734   31.7652 C   0  0  0  0  0  0  0  0  0  0  0  0
   43.4920   -7.2295   32.8928 C   0  0  0  0  0  0  0  0  0  0  0  0
   44.1084   -8.4403   33.1332 F   0  0  0  0  0  0  0  0  0  0  0  0
   42.5380   -6.7836   33.7897 C   0  0  0  0  0  0  0  0  0  0  0  0
   41.8605   -5.5830   33.5652 C   0  0  0  0  0  0  0  0  0  0  0  0
   42.1719   -4.8243   32.4593 C   0  0  0  0  0  0  0  0  0  0  0  0
   41.5062   -3.6403   32.2488 O   0  0  0  0  0  0  0  0  0  0  0  0
   44.3164   -2.3328   25.1401 C   0  0  0  0  0  0  0  0  0  0  0  0
   44.1092   -1.1682   24.5986 N   0  0  0  0  0  0  0  0  0  0  0  0
   44.6186   -3.3210   24.3287 N   0  0  0  0  0  0  0  0  0  0  0  0
   43.8798   -0.3960   25.1645 H   0  0  0  0  0  0  0  0  0  0  0  0
   44.1818   -1.0591   23.6229 H   0  0  0  0  0  0  0  0  0  0  0  0
   44.7845   -4.2215   24.6902 H   0  0  0  0  0  0  0  0  0  0  0  0
   44.6792   -3.1609   23.3592 H   0  0  0  0  0  0  0  0  0  0  0  0
  1  2  2  0  0  0
  1  6  1  0  0  0
  1 19  1  0  0  0
  2  3  1  0  0  0
  3  4  2  0  0  0
  4  5  1  0  0  0
  4  7  1  0  0  0
  5  6  2  0  0  0
  5  8  1  0  0  0
 19 20  1  0  0  0
 19 21  2  0  0  0
  7  9  1  0  0  0
  8  9  2  0  0  0
  9 11  1  0  0  0
 11 12  2  0  0  0
 11 17  1  0  0  0
 12 13  1  0  0  0
 13 14  1  0  0  0
 13 15  2  0  0  0
 15 16  1  0  0  0
 16 17  2  0  0  0
 17 18  1  0  0  0
 20 22  1  0  0  0
 20 23  1  0  0  0
 21 24  1  0  0  0
 21 25  1  0  0  0
  7 10  1  0  0  0
M  CHG 1  18  -1
M  CHG 1  21   1
M  END
> <minimizedAffinity>
-7.28126

$$$$
1O35_802_A_246


 25 27  0  0  0  0  0  0  0  0999 V2000
   42.7558   -0.3682   33.5112 C   0  0  0  0  0  0  0  0  0  0  0  0
   41.4063   -0.3122   33.0660 C   0  0  0  0  0  0  0  0  0  0  0  0
   41.0723   -0.6492   31.7503 C   0  0  0  0  0  0  0  0  0  0  0  0
   42.0793   -1.0394   30.8922 C   0  0  0  0  0  0  0  0  0  0  0  0
   43.3771   -1.0228   31.2561 C   0  0  0  0  0  0  0  0  0  0  0  0
   43.7537   -0.6986   32.5779 C   0  0  0  0  0  0  0  0  0  0  0  0
   42.0437   -1.3715   29.6384 N   0  0  0  0  0  0  0  0  0  0  0  0
   44.1594   -1.4302   30.2728 N   0  0  0  0  0  0  0  0  0  0  0  0
   43.2812   -1.5965   29.2871 C   0  0  0  0  0  0  0  0  0  0  0  0
   41.2449   -1.4401   29.0670 H   0  0  0  0  0  0  0  0  0  0  0  0
   43.6344   -1.9979   28.0009 C   0  0  0  0  0  0  0  0  0  0  0  0
   43.8466   -1.0731   26.9735 C   0  0  0  0  0  0  0  0  0  0  0  0
   44.1781   -1.5190   25.6985 C   0  0  0  0  0  0  0  0  0  0  0  0
   44.3861   -0.6359   24.6589 F   0  0  0  0  0  0  0  0  0  0  0  0
   44.2810   -2.8749   25.4450 C   0  0  0  0  0  0  0  0  0  0  0  0
   44.0396   -3.8056   26.4581 C   0  0  0  0  0  0  0  0  0  0  0  0
   43.7304   -3.3649   27.7252 C   0  0  0  0  0  0  0  0  0  0  0  0
   43.5014   -4.2866   28.7189 O   0  0  0  0  0  0  0  0  0  0  0  0
   43.0547   -0.0182   34.8379 C   0  0  0  0  0  0  0  0  0  0  0  0
   42.8869    1.2018   35.2571 N   0  0  0  0  0  0  0  0  0  0  0  0
   43.5627   -0.8766   35.6931 N   0  0  0  0  0  0  0  0  0  0  0  0
   42.5095    1.8821   34.6537 H   0  0  0  0  0  0  0  0  0  0  0  0
   43.1373    1.4449   36.1777 H   0  0  0  0  0  0  0  0  0  0  0  0
   43.7089   -1.8121   35.4235 H   0  0  0  0  0  0  0  0  0  0  0  0
   43.7971   -0.5843   36.6035 H   0  0  0  0  0  0  0  0  0  0  0  0
  1  2  2  0  0  0
  1  6  1  0  0  0
  1 19  1  0  0  0
  2  3  1  0  0  0
  3  4  2  0  0  0
  4  5  1  0  0  0
  4  7  1  0  0  0
  5  6  2  0  0  0
  5  8  1  0  0  0
 19 20  1  0  0  0
 19 21  2  0  0  0
  7  9  1  0  0  0
  8  9  2  0  0  0
  9 11  1  0  0  0
 11 12  2  0  0  0
 11 17  1  0  0  0
 12 13  1  0  0  0
 13 14  1  0  0  0
 13 15  2  0  0  0
 15 16  1  0  0  0
 16 17  2  0  0  0
 17 18  1  0  0  0
 20 22  1  0  0  0
 20 23  1  0  0  0
 21 24  1  0  0  0
 21 25  1  0  0  0
  7 10  1  0  0  0
M  CHG 1  18  -1
M  CHG 1  21   1
M  END
> <minimizedAffinity>
-6.91351

$$$$
1O35_802_A_246


 25 27  0  0  0  0  0  0  0  0999 V2000
   42.4997   -0.8840   33.6116 C   0  0  0  0  0  0  0  0  0  0  0  0
   41.3045   -0.3473   33.0585 C   0  0  0  0  0  0  0  0  0  0  0  0
   41.0620   -0.4094   31.6824 C   0  0  0  0  0  0  0  0  0  0  0  0
   42.0059   -1.0042   30.8714 C   0  0  0  0  0  0  0  0  0  0  0  0
   43.1854   -1.4470   31.3504 C   0  0  0  0  0  0  0  0  0  0  0  0
   43.4633   -1.4114   32.7345 C   0  0  0  0  0  0  0  0  0  0  0  0
   42.0379   -1.1647   29.5841 N   0  0  0  0  0  0  0  0  0  0  0  0
   43.9290   -1.9717   30.3931 N   0  0  0  0  0  0  0  0  0  0  0  0
   43.1820   -1.7351   29.3177 C   0  0  0  0  0  0  0  0  0  0  0  0
   41.3403   -0.9082   28.9385 H   0  0  0  0  0  0  0  0  0  0  0  0
   43.5635   -2.0822   28.0237 C   0  0  0  0  0  0  0  0  0  0  0  0
   43.5137   -3.4047   27.5716 C   0  0  0  0  0  0  0  0  0  0  0  0
   43.9234   -3.7097   26.2780 C   0  0  0  0  0  0  0  0  0  0  0  0
   43.8963   -5.0042   25.8011 F   0  0  0  0  0  0  0  0  0  0  0  0
   44.3942   -2.7087   25.4475 C   0  0  0  0  0  0  0  0  0  0  0  0
   44.4765   -1.3907   25.9023 C   0  0  0  0  0  0  0  0  0  0  0  0
   44.0531   -1.0845   27.1761 C   0  0  0  0  0  0  0  0  0  0  0  0
   44.1303    0.2161   27.6142 O   0  0  0  0  0  0  0  0  0  0  0  0
   42.7115   -0.7996   34.9972 C   0  0  0  0  0  0  0  0  0  0  0  0
   41.7061   -0.7386   35.8205 N   0  0  0  0  0  0  0  0  0  0  0  0
   43.9143   -0.7229   35.5203 N   0  0  0  0  0  0  0  0  0  0  0  0
   40.7849   -0.7917   35.4772 H   0  0  0  0  0  0  0  0  0  0  0  0
   41.8664   -0.6394   36.7868 H   0  0  0  0  0  0  0  0  0  0  0  0
   44.7076   -0.7643   34.9387 H   0  0  0  0  0  0  0  0  0  0  0  0
   44.0224   -0.6241   36.4938 H   0  0  0  0  0  0  0  0  0  0  0  0
  1  2  2  0  0  0
  1  6  1  0  0  0
  1 19  1  0  0  0
  2  3  1  0  0  0
  3  4  2  0  0  0
  4  5  1  0  0  0
  4  7  1  0  0  0
  5  6  2  0  0  0
  5  8  1  0  0  0
 19 20  1  0  0  0
 19 21  2  0  0  0
  7  9  1  0  0  0
  8  9  2  0  0  0
  9 11  1  0  0  0
 11 12  2  0  0  0
 11 17  1  0  0  0
 12 13  1  0  0  0
 13 14  1  0  0  0
 13 15  2  0  0  0
 15 16  1  0  0  0
 16 17  2  0  0  0
 17 18  1  0  0  0
 20 22  1  0  0  0
 20 23  1  0  0  0
 21 24  1  0  0  0
 21 25  1  0  0  0
  7 10  1  0  0  0
M  CHG 1  18  -1
M  CHG 1  21   1
M  END
> <minimizedAffinity>
-6.90496

$$$$
1O35_802_A_246


 25 27  0  0  0  0  0  0  0  0999 V2000
   43.6220   -2.9823   27.3372 C   0  0  0  0  0  0  0  0  0  0  0  0
   42.9738   -4.1501   27.8257 C   0  0  0  0  0  0  0  0  0  0  0  0
   42.2082   -4.1073   28.9955 C   0  0  0  0  0  0  0  0  0  0  0  0
   42.0928   -2.9075   29.6660 C   0  0  0  0  0  0  0  0  0  0  0  0
   42.7611   -1.8029   29.2783 C   0  0  0  0  0  0  0  0  0  0  0  0
   43.5355   -1.8031   28.0975 C   0  0  0  0  0  0  0  0  0  0  0  0
   41.4764   -2.6077   30.7679 N   0  0  0  0  0  0  0  0  0  0  0  0
   42.5020   -0.7787   30.0712 N   0  0  0  0  0  0  0  0  0  0  0  0
   41.7307   -1.3470   30.9946 C   0  0  0  0  0  0  0  0  0  0  0  0
   40.9277   -3.2093   31.3212 H   0  0  0  0  0  0  0  0  0  0  0  0
   41.2149   -0.6640   32.0936 C   0  0  0  0  0  0  0  0  0  0  0  0
   41.9883   -0.4079   33.2303 C   0  0  0  0  0  0  0  0  0  0  0  0
   41.4268    0.2598   34.3134 C   0  0  0  0  0  0  0  0  0  0  0  0
   42.1572    0.5219   35.4543 F   0  0  0  0  0  0  0  0  0  0  0  0
   40.1017    0.6544   34.2713 C   0  0  0  0  0  0  0  0  0  0  0  0
   39.3141    0.3744   33.1523 C   0  0  0  0  0  0  0  0  0  0  0  0
   39.8741   -0.2694   32.0719 C   0  0  0  0  0  0  0  0  0  0  0  0
   39.0947   -0.5351   30.9712 O   0  0  0  0  0  0  0  0  0  0  0  0
   44.3862   -3.0638   26.1619 C   0  0  0  0  0  0  0  0  0  0  0  0
   45.0559   -2.0346   25.7323 N   0  0  0  0  0  0  0  0  0  0  0  0
   44.4186   -4.1471   25.4192 N   0  0  0  0  0  0  0  0  0  0  0  0
   45.0628   -1.1993   26.2534 H   0  0  0  0  0  0  0  0  0  0  0  0
   45.5559   -2.0910   24.8861 H   0  0  0  0  0  0  0  0  0  0  0  0
   43.9277   -4.9524   25.7016 H   0  0  0  0  0  0  0  0  0  0  0  0
   44.9338   -4.1535   24.5803 H   0  0  0  0  0  0  0  0  0  0  0  0
  1  2  2  0  0  0
  1  6  1  0  0  0
  1 19  1  0  0  0
  2  3  1  0  0  0
  3  4  2  0  0  0
  4  5  1  0  0  0
  4  7  1  0  0  0
  5  6  2  0  0  0
  5  8  1  0  0  0
 19 20  1  0  0  0
 19 21  2  0  0  0
  7  9  1  0  0  0
  8  9  2  0  0  0
  9 11  1  0  0  0
 11 12  2  0  0  0
 11 17  1  0  0  0
 12 13  1  0  0  0
 13 14  1  0  0  0
 13 15  2  0  0  0
 15 16  1  0  0  0
 16 17  2  0  0  0
 17 18  1  0  0  0
 20 22  1  0  0  0
 20 23  1  0  0  0
 21 24  1  0  0  0
 21 25  1  0  0  0
  7 10  1  0  0  0
M  CHG 1  18  -1
M  CHG 1  21   1
M  END
> <minimizedAffinity>
-6.82536

$$$$
1O35_802_A_246


 25 27  0  0  0  0  0  0  0  0999 V2000
   43.7236    1.6946   34.8809 C   0  0  0  0  0  0  0  0  0  0  0  0
   42.4143    1.1892   35.1103 C   0  0  0  0  0  0  0  0  0  0  0  0
   41.8924    0.1655   34.3128 C   0  0  0  0  0  0  0  0  0  0  0  0
   42.6750   -0.3460   33.2987 C   0  0  0  0  0  0  0  0  0  0  0  0
   43.8856    0.1659   33.0002 C   0  0  0  0  0  0  0  0  0  0  0  0
   44.4513    1.1923   33.7880 C   0  0  0  0  0  0  0  0  0  0  0  0
   42.4248   -1.2620   32.4143 N   0  0  0  0  0  0  0  0  0  0  0  0
   44.4469   -0.4776   31.9924 N   0  0  0  0  0  0  0  0  0  0  0  0
   43.4807   -1.3253   31.6484 C   0  0  0  0  0  0  0  0  0  0  0  0
   41.6044   -1.8007   32.3363 H   0  0  0  0  0  0  0  0  0  0  0  0
   43.5840   -2.2207   30.5864 C   0  0  0  0  0  0  0  0  0  0  0  0
   43.7975   -1.7852   29.2747 C   0  0  0  0  0  0  0  0  0  0  0  0
   43.8741   -2.7128   28.2413 C   0  0  0  0  0  0  0  0  0  0  0  0
   44.0750   -2.3189   26.9343 F   0  0  0  0  0  0  0  0  0  0  0  0
   43.7228   -4.0613   28.5097 C   0  0  0  0  0  0  0  0  0  0  0  0
   43.4780   -4.5015   29.8125 C   0  0  0  0  0  0  0  0  0  0  0  0
   43.4212   -3.5858   30.8390 C   0  0  0  0  0  0  0  0  0  0  0  0
   43.1872   -4.0272   32.1196 O   0  0  0  0  0  0  0  0  0  0  0  0
   44.2130    2.7259   35.6987 C   0  0  0  0  0  0  0  0  0  0  0  0
   45.3687    2.6166   36.2858 N   0  0  0  0  0  0  0  0  0  0  0  0
   43.5166    3.8106   35.9532 N   0  0  0  0  0  0  0  0  0  0  0  0
   45.9282    1.8221   36.1273 H   0  0  0  0  0  0  0  0  0  0  0  0
   45.6839    3.3283   36.8886 H   0  0  0  0  0  0  0  0  0  0  0  0
   42.6356    3.9398   35.5332 H   0  0  0  0  0  0  0  0  0  0  0  0
   43.8757    4.4941   36.5640 H   0  0  0  0  0  0  0  0  0  0  0  0
  1  2  2  0  0  0
  1  6  1  0  0  0
  1 19  1  0  0  0
  2  3  1  0  0  0
  3  4  2  0  0  0
  4  5  1  0  0  0
  4  7  1  0  0  0
  5  6  2  0  0  0
  5  8  1  0  0  0
 19 20  1  0  0  0
 19 21  2  0  0  0
  7  9  1  0  0  0
  8  9  2  0  0  0
  9 11  1  0  0  0
 11 12  2  0  0  0
 11 17  1  0  0  0
 12 13  1  0  0  0
 13 14  1  0  0  0
 13 15  2  0  0  0
 15 16  1  0  0  0
 16 17  2  0  0  0
 17 18  1  0  0  0
 20 22  1  0  0  0
 20 23  1  0  0  0
 21 24  1  0  0  0
 21 25  1  0  0  0
  7 10  1  0  0  0
M  CHG 1  18  -1
M  CHG 1  21   1
M  END
> <minimizedAffinity>
-6.67295

$$$$
1O35_802_A_246


 25 27  0  0  0  0  0  0  0  0999 V2000
   42.9726   -6.9016   32.2907 C   0  0  0  0  0  0  0  0  0  0  0  0
   41.6038   -6.7783   31.9250 C   0  0  0  0  0  0  0  0  0  0  0  0
   41.2207   -5.9725   30.8478 C   0  0  0  0  0  0  0  0  0  0  0  0
   42.1987   -5.3001   30.1452 C   0  0  0  0  0  0  0  0  0  0  0  0
   43.4944   -5.3275   30.5159 C   0  0  0  0  0  0  0  0  0  0  0  0
   43.9222   -6.1370   31.5910 C   0  0  0  0  0  0  0  0  0  0  0  0
   42.1112   -4.4823   29.1414 N   0  0  0  0  0  0  0  0  0  0  0  0
   44.2450   -4.6082   29.7011 N   0  0  0  0  0  0  0  0  0  0  0  0
   43.3288   -4.0804   28.8934 C   0  0  0  0  0  0  0  0  0  0  0  0
   41.2922   -4.2182   28.6633 H   0  0  0  0  0  0  0  0  0  0  0  0
   43.6310   -3.1985   27.8584 C   0  0  0  0  0  0  0  0  0  0  0  0
   43.9325   -3.6513   26.5701 C   0  0  0  0  0  0  0  0  0  0  0  0
   44.2485   -2.7366   25.5712 C   0  0  0  0  0  0  0  0  0  0  0  0
   44.5595   -3.1477   24.2913 F   0  0  0  0  0  0  0  0  0  0  0  0
   44.2802   -1.3837   25.8573 C   0  0  0  0  0  0  0  0  0  0  0  0
   44.0112   -0.9259   27.1492 C   0  0  0  0  0  0  0  0  0  0  0  0
   43.6794   -1.8290   28.1340 C   0  0  0  0  0  0  0  0  0  0  0  0
   43.4087   -1.3704   29.4012 O   0  0  0  0  0  0  0  0  0  0  0  0
   43.3198   -7.7160   33.3807 C   0  0  0  0  0  0  0  0  0  0  0  0
   42.5284   -7.8248   34.4075 N   0  0  0  0  0  0  0  0  0  0  0  0
   44.4665   -8.3544   33.4431 N   0  0  0  0  0  0  0  0  0  0  0  0
   41.6578   -7.3652   34.4088 H   0  0  0  0  0  0  0  0  0  0  0  0
   42.8001   -8.3668   35.1831 H   0  0  0  0  0  0  0  0  0  0  0  0
   45.0999   -8.3032   32.6911 H   0  0  0  0  0  0  0  0  0  0  0  0
   44.6923   -8.8839   34.2417 H   0  0  0  0  0  0  0  0  0  0  0  0
  1  2  2  0  0  0
  1  6  1  0  0  0
  1 19  1  0  0  0
  2  3  1  0  0  0
  3  4  2  0  0  0
  4  5  1  0  0  0
  4  7  1  0  0  0
  5  6  2  0  0  0
  5  8  1  0  0  0
 19 20  1  0  0  0
 19 21  2  0  0  0
  7  9  1  0  0  0
  8  9  2  0  0  0
  9 11  1  0  0  0
 11 12  2  0  0  0
 11 17  1  0  0  0
 12 13  1  0  0  0
 13 14  1  0  0  0
 13 15  2  0  0  0
 15 16  1  0  0  0
 16 17  2  0  0  0
 17 18  1  0  0  0
 20 22  1  0  0  0
 20 23  1  0  0  0
 21 24  1  0  0  0
 21 25  1  0  0  0
  7 10  1  0  0  0
M  CHG 1  18  -1
M  CHG 1  21   1
M  END
> <minimizedAffinity>
-6.49739

$$$$
