2HS1_017_A_201
  RCSB PDB12061705503D
Coordinates from PDB:2HS1:A:201 Model:1 without hydrogens
 38 41  0  0  0  0            999 V2000
   -1.2940    8.2620   29.8300   N 0  0  0  0  0  0  0  0  0  0  0  0
   -0.8280    8.5490   31.1020   C 0  0  0  0  0  0  0  0  0  0  0  0
    0.4250    8.0880   31.4730   C 0  0  0  0  0  0  0  0  0  0  0  0
    0.9200    8.3460   32.7100   C 0  0  0  0  0  0  0  0  0  0  0  0
    0.1980    9.0660   33.6280   C 0  0  0  0  0  0  0  0  0  0  0  0
   -1.0480    9.5490   33.3140   C 0  0  0  0  0  0  0  0  0  0  0  0
   -1.5610    9.2870   32.0450   C 0  0  0  0  0  0  0  0  0  0  0  0
    0.7890    9.2590   35.2520   S 0  0  0  0  0  0  0  0  0  0  0  0
    2.2310    9.0680   35.1950   O 0  0  0  0  0  0  0  0  0  0  0  0
    0.2870   10.4610   35.7810   O 0  0  0  0  0  0  0  0  0  0  0  0
    0.1740    8.0660   36.2430   N 0  0  0  0  0  0  0  0  0  0  0  0
   -1.2910    8.0190   36.3910   C 0  0  0  0  0  0  0  0  0  0  0  0
   -1.7500    7.6730   37.7900   C 0  0  0  0  0  0  0  0  0  0  0  0
   -1.2450    8.6560   38.8220   C 0  0  0  0  0  0  0  0  0  0  0  0
   -3.2530    7.5460   37.8520   C 0  0  0  0  0  0  0  0  0  0  0  0
    0.8050    6.7340   36.2310   C 0  0  0  0  0  0  0  0  0  0  0  0
    1.4980    6.4280   37.5590   C 0  0  0  0  0  0  0  0  0  0  0  0
    1.8620    5.0460   37.5910   O 0  0  0  0  0  0  0  0  0  0  0  0
    2.7360    7.2970   37.8680   C 0  0  0  0  0  0  0  0  0  0  0  0
    3.1030    7.0790   39.2530   N 0  0  0  0  0  0  0  0  0  0  0  0
    2.9370    8.0290   40.2010   C 0  0  0  0  0  0  0  0  0  0  0  0
    2.5280    9.2000   40.0720   O 0  0  0  0  0  0  0  0  0  0  0  0
    3.3030    7.5090   41.3910   O 0  0  0  0  0  0  0  0  0  0  0  0
    3.4220    8.4640   42.5090   C 0  0  0  0  0  0  0  0  0  0  0  0
    2.9760    7.6430   43.7780   C 0  0  0  0  0  0  0  0  0  0  0  0
    4.0980    6.7860   44.0650   O 0  0  0  0  0  0  0  0  0  0  0  0
    5.2850    7.5520   43.7520   C 0  0  0  0  0  0  0  0  0  0  0  0
    6.1250    6.7300   43.0080   O 0  0  0  0  0  0  0  0  0  0  0  0
    6.2670    7.2060   41.6490   C 0  0  0  0  0  0  0  0  0  0  0  0
    5.8740    8.6700   41.7000   C 0  0  0  0  0  0  0  0  0  0  0  0
    4.8810    8.7320   42.8400   C 0  0  0  0  0  0  0  0  0  0  0  0
    3.9560    7.0470   36.9580   C 0  0  0  0  0  0  0  0  0  0  0  0
    6.2390    7.3670   37.9690   C 0  0  0  0  0  0  0  0  0  0  0  0
    7.3210    8.1750   38.3500   C 0  0  0  0  0  0  0  0  0  0  0  0
    7.2620    9.5160   38.1280   C 0  0  0  0  0  0  0  0  0  0  0  0
    6.1490   10.0800   37.5210   C 0  0  0  0  0  0  0  0  0  0  0  0
    5.0910    9.3160   37.1470   C 0  0  0  0  0  0  0  0  0  0  0  0
    5.1240    7.9490   37.3620   C 0  0  0  0  0  0  0  0  0  0  0  0
  1  2  1  0  0  0  0
  2  3  2  0  0  0  0
  2  7  1  0  0  0  0
  3  4  1  0  0  0  0
  4  5  2  0  0  0  0
  5  6  1  0  0  0  0
  5  8  1  0  0  0  0
  6  7  2  0  0  0  0
  8  9  2  0  0  0  0
  8 10  2  0  0  0  0
  8 11  1  0  0  0  0
 11 12  1  0  0  0  0
 11 16  1  0  0  0  0
 12 13  1  0  0  0  0
 13 14  1  0  0  0  0
 13 15  1  0  0  0  0
 16 17  1  0  0  0  0
 17 18  1  0  0  0  0
 17 19  1  0  0  0  0
 19 20  1  0  0  0  0
 19 32  1  0  0  0  0
 20 21  1  0  0  0  0
 21 22  2  0  0  0  0
 21 23  1  0  0  0  0
 23 24  1  0  0  0  0
 24 25  1  0  0  0  0
 24 31  1  0  0  0  0
 25 26  1  0  0  0  0
 26 27  1  0  0  0  0
 27 28  1  0  0  0  0
 27 31  1  0  0  0  0
 28 29  1  0  0  0  0
 29 30  1  0  0  0  0
 30 31  1  0  0  0  0
 32 38  1  0  0  0  0
 33 34  2  0  0  0  0
 33 38  1  0  0  0  0
 34 35  1  0  0  0  0
 35 36  2  0  0  0  0
 36 37  1  0  0  0  0
 37 38  2  0  0  0  0
A    1
N1
A    2
C2
A    3
C3
A    4
C4
A    5
C5
A    6
C6
A    7
C7
A    8
S8
A    9
O9
A   10
O10
A   11
N11
A   12
C12
A   13
C13
A   14
C14
A   15
C15
A   16
C16
A   17
C17
A   18
O18
A   19
C19
A   20
N20
A   21
C21
A   22
O22
A   23
O23
A   24
C24
A   25
C25
A   26
O26
A   27
C27
A   28
O28
A   29
C29
A   30
C30
A   31
C31
A   32
C32
A   33
C33
A   34
C34
A   35
C35
A   36
C36
A   37
C37
A   38
C38
M  END
>  <InstanceId>
2HS1_017_A_201

>  <ChemCompId>
017

>  <PdbId>
2HS1

>  <ChainId>
A

>  <ResidueNumber>
201

>  <InsertionCode>


>  <Model>
1

>  <AltIds>


>  <MissingHeavyAtoms>
0

>  <ObservedFormula>
C27 N3 O7 S

>  <Name>
(3R,3AS,6AR)-HEXAHYDROFURO[2,3-B]FURAN-3-YL(1S,2R)-3-[[(4-AMINOPHENYL)SULFONYL](ISOBUTYL)AMINO]-1-BENZYL-2-HYDROXYPROPYLCARBAMATE

>  <SystematicName>
[(3R,3aS,6aR)-2,3,3a,4,5,6a-hexahydrofuro[2,3-b]furan-3-yl] N-[(2S,3R)-4-[(4-aminophenyl)sulfonyl-(2-methylpropyl)amino]-3-hydroxy-1-phenyl-butan-2-yl]carbamate

>  <Synonyms>
Darunavir, TMC114, UIC-94017

>  <Type>
NON-POLYMER

>  <Formula>
C27 H37 N3 O7 S

>  <MolecularWeight>
547.664

>  <ModifiedDate>
2011-06-04

>  <Parent>


>  <OneLetterCode>


>  <SubcomponentList>


>  <AmbiguousFlag>
N

>  <InChI>
InChI=1S/C27H37N3O7S/c1-18(2)15-30(38(33,34)21-10-8-20(28)9-11-21)16-24(31)23(14-19-6-4-3-5-7-19)29-27(32)37-25-17-36-26-22(25)12-13-35-26/h3-11,18,22-26,31H,12-17,28H2,1-2H3,(H,29,32)/t22-,23-,24+,25-,26+/m0/s1

>  <InChIKey>
CJBJHOAVZSMMDJ-HEXNFIEUSA-N

>  <SMILES>
CC(C)C[N@@](C[C@H]([C@H](Cc1ccccc1)NC(=O)O[C@H]2CO[C@@H]3[C@H]2CCO3)O)S(=O)(=O)c4ccc(cc4)N

$$$$
