5HZ9_5M8_A_204
  RCSB PDB12061718053D
Coordinates from PDB:5HZ9:A:204 Model:1 without hydrogens
 21 23  0  0  0  0            999 V2000
  -14.7580   48.4690  -40.6700   C 0  0  0  0  0  0  0  0  0  0  0  0
  -13.0990   48.3380  -39.0390   C 0  0  0  0  0  0  0  0  0  0  0  0
  -14.9900   50.4310  -42.1980   C 0  0  0  0  0  0  0  0  0  0  0  0
  -11.4290   50.1240  -38.6920   C 0  0  0  0  0  0  0  0  0  0  0  0
  -13.1000   52.7840  -40.1210   C 0  0  0  0  0  0  0  0  0  0  0  0
  -12.6330   54.0470  -40.4860   C 0  0  0  0  0  0  0  0  0  0  0  0
  -11.7840   54.1880  -41.5960   C 0  0  0  0  0  0  0  0  0  0  0  0
  -14.2870   49.7740  -41.0830   C 0  0  0  0  0  0  0  0  0  0  0  0
  -13.1960   50.3370  -40.4690   C 0  0  0  0  0  0  0  0  0  0  0  0
  -12.5630   49.6200  -39.3920   C 0  0  0  0  0  0  0  0  0  0  0  0
  -14.1850   47.7830  -39.6850   N 0  0  0  0  0  0  0  0  0  0  0  0
  -12.7040   51.6560  -40.8700   C 0  0  0  0  0  0  0  0  0  0  0  0
  -14.7530   50.3020  -43.4040   O 0  0  0  0  0  0  0  0  0  0  0  0
  -12.4810   47.5980  -37.9820   C 0  0  0  0  0  0  0  0  0  0  0  0
  -10.8600   49.3790  -37.6780   C 0  0  0  0  0  0  0  0  0  0  0  0
  -16.0360   51.2550  -41.8660   O 0  0  0  0  0  0  0  0  0  0  0  0
  -11.3880   48.1090  -37.3220   C 0  0  0  0  0  0  0  0  0  0  0  0
   -9.5040   49.9440  -36.8200  Cl 0  0  0  0  0  0  0  0  0  0  0  0
  -15.9480   47.9150  -41.4000   C 0  0  0  0  0  0  0  0  0  0  0  0
  -11.8540   51.7980  -41.9830   C 0  0  0  0  0  0  0  0  0  0  0  0
  -11.3910   53.0680  -42.3400   C 0  0  0  0  0  0  0  0  0  0  0  0
 13  3  2  0  0  0  0
 16  3  1  0  0  0  0
  3  8  1  0  0  0  0
 19  1  1  0  0  0  0
 21  7  2  0  0  0  0
 21 20  1  0  0  0  0
  8  1  2  0  0  0  0
  8  9  1  0  0  0  0
  7  6  1  0  0  0  0
 20 12  2  0  0  0  0
  1 11  1  0  0  0  0
  6  5  2  0  0  0  0
 12  5  1  0  0  0  0
 12  9  1  0  0  0  0
  9 10  2  0  0  0  0
 11  2  2  0  0  0  0
 10  2  1  0  0  0  0
 10  4  1  0  0  0  0
  2 14  1  0  0  0  0
  4 15  2  0  0  0  0
 14 17  2  0  0  0  0
 15 17  1  0  0  0  0
 15 18  1  0  0  0  0
A    1
C5
A    2
C6
A    3
C7
A    4
C8
A    5
C17
A    6
C20
A    7
C21
A    8
C1
A    9
C2
A   10
C3
A   11
N4
A   12
C9
A   13
O10
A   14
C11
A   15
C12
A   16
O13
A   17
C14
A   18
CL1
A   19
C16
A   20
C18
A   21
C19
M  END
>  <InstanceId>
5HZ9_5M8_A_204

>  <ChemCompId>
5M8

>  <PdbId>
5HZ9

>  <ChainId>
A

>  <ResidueNumber>
204

>  <InsertionCode>


>  <Model>
1

>  <AltIds>


>  <MissingHeavyAtoms>
0

>  <ObservedFormula>
C17 N O2 Cl

>  <Name>
6-chloranyl-2-methyl-4-phenyl-quinoline-3-carboxylic acid

>  <SystematicName>
6-chloranyl-2-methyl-4-phenyl-quinoline-3-carboxylic acid

>  <Synonyms>


>  <Type>
NON-POLYMER

>  <Formula>
C17 H12 Cl N O2

>  <MolecularWeight>
297.736

>  <ModifiedDate>
2016-03-04

>  <Parent>


>  <OneLetterCode>


>  <SubcomponentList>


>  <AmbiguousFlag>
N

>  <InChI>
InChI=1S/C17H12ClNO2/c1-10-15(17(20)21)16(11-5-3-2-4-6-11)13-9-12(18)7-8-14(13)19-10/h2-9H,1H3,(H,20,21)

>  <InChIKey>
DTGFDMHLQGULMA-UHFFFAOYSA-N

>  <SMILES>
Cc1c(c(c2cc(ccc2n1)Cl)c3ccccc3)C(=O)O

$$$$
