2UY4_AZM_A_1311
  RCSB PDB12061707003D
Coordinates from PDB:2UY4:A:1311 Model:1 without hydrogens
 13 13  0  0  0  0            999 V2000
   38.1430   20.2690   22.3930   C 0  0  0  0  0  0  0  0  0  0  0  0
   38.2450   20.9340   24.6690   C 0  0  0  0  0  0  0  0  0  0  0  0
   38.7520   22.7650   26.0550   C 0  0  0  0  0  0  0  0  0  0  0  0
   38.8830   23.1260   27.5120   C 0  0  0  0  0  0  0  0  0  0  0  0
   36.5850   20.1440   20.2020   N 0  0  0  0  0  0  0  0  0  0  0  0
   37.9070   19.6430   24.4510   N 0  0  0  0  0  0  0  0  0  0  0  0
   37.8560   19.2870   23.2430   N 0  0  0  0  0  0  0  0  0  0  0  0
   38.3900   21.5060   25.8640   N 0  0  0  0  0  0  0  0  0  0  0  0
   38.7910   18.8180   20.2920   O 0  0  0  0  0  0  0  0  0  0  0  0
   38.8970   21.2590   20.0970   O 0  0  0  0  0  0  0  0  0  0  0  0
   38.9690   23.6020   25.1840   O 0  0  0  0  0  0  0  0  0  0  0  0
   38.1430   20.1190   20.6910   S 0  0  0  0  0  0  0  0  0  0  0  0
   38.5130   21.7020   23.2090   S 0  0  0  0  0  0  0  0  0  0  0  0
  1  7  2  0  0  0  0
  1 12  1  0  0  0  0
  1 13  1  0  0  0  0
  2  6  2  0  0  0  0
  2  8  1  0  0  0  0
  2 13  1  0  0  0  0
  3  4  1  0  0  0  0
  3  8  1  0  0  0  0
  3 11  2  0  0  0  0
  5 12  1  0  0  0  0
  6  7  1  0  0  0  0
  9 12  2  0  0  0  0
 10 12  2  0  0  0  0
A    1
C1
A    2
C2
A    3
C3
A    4
C4
A    5
N1
A    6
N2
A    7
N3
A    8
N4
A    9
O1
A   10
O2
A   11
O3
A   12
S1
A   13
S2
M  END
>  <InstanceId>
2UY4_AZM_A_1311

>  <ChemCompId>
AZM

>  <PdbId>
2UY4

>  <ChainId>
A

>  <ResidueNumber>
1311

>  <InsertionCode>


>  <Model>
1

>  <AltIds>


>  <MissingHeavyAtoms>
0

>  <ObservedFormula>
C4 N4 O3 S2

>  <Name>
5-ACETAMIDO-1,3,4-THIADIAZOLE-2-SULFONAMIDE

>  <SystematicName>
N-(5-sulfamoyl-1,3,4-thiadiazol-2-yl)ethanamide

>  <Synonyms>


>  <Type>
NON-POLYMER

>  <Formula>
C4 H6 N4 O3 S2

>  <MolecularWeight>
222.245

>  <ModifiedDate>
2011-06-04

>  <Parent>


>  <OneLetterCode>


>  <SubcomponentList>


>  <AmbiguousFlag>
N

>  <InChI>
InChI=1S/C4H6N4O3S2/c1-2(9)6-3-7-8-4(12-3)13(5,10)11/h1H3,(H2,5,10,11)(H,6,7,9)

>  <InChIKey>
BZKPWHYZMXOIDC-UHFFFAOYSA-N

>  <SMILES>
CC(=O)Nc1nnc(s1)S(=O)(=O)N

$$$$
