2UY4_AZM_A_1311


 16 16  0  0  0  0  0  0  0  0999 V2000
   37.7290   21.0990   23.7542 C   0  0  0  0  0  0  0  0  0  0  0  0
   37.9814   19.2167   22.3308 C   0  0  0  0  0  0  0  0  0  0  0  0
   37.8191   18.9397   23.6444 N   0  0  0  0  0  0  0  0  0  0  0  0
   37.6811   19.9380   24.4013 N   0  0  0  0  0  0  0  0  0  0  0  0
   37.9409   20.8705   22.0931 S   0  0  0  0  0  0  0  0  0  0  0  0
   36.1042   23.2079   24.1497 N   0  0  0  0  0  0  0  0  0  0  0  0
   38.6464   23.5616   23.9378 O   0  0  0  0  0  0  0  0  0  0  0  0
   37.7761   22.4907   25.9635 O   0  0  0  0  0  0  0  0  0  0  0  0
   37.5947   22.6346   24.4913 S   0  0  0  0  0  0  0  0  0  0  0  0
   35.9985   23.2996   23.1393 H   0  0  0  0  0  0  0  0  0  0  0  0
   35.9821   24.1205   24.5885 H   0  0  0  0  0  0  0  0  0  0  0  0
   39.0940   17.4331   21.2766 C   0  0  0  0  0  0  0  0  0  0  0  0
   39.0107   16.5691   20.0449 C   0  0  0  0  0  0  0  0  0  0  0  0
   38.1094   18.3142   21.3585 N   0  0  0  0  0  0  0  0  0  0  0  0
   40.0055   17.2803   22.0840 O   0  0  0  0  0  0  0  0  0  0  0  0
   37.4239   18.3021   20.6519 H   0  0  0  0  0  0  0  0  0  0  0  0
  1  4  2  0  0  0
  1  9  1  0  0  0
  1  5  1  0  0  0
  2  3  2  0  0  0
  2 14  1  0  0  0
  2  5  1  0  0  0
 12 13  1  0  0  0
 12 14  1  0  0  0
 12 15  2  0  0  0
  6  9  1  0  0  0
  3  4  1  0  0  0
  7  9  2  0  0  0
  8  9  2  0  0  0
  6 10  1  0  0  0
  6 11  1  0  0  0
 14 16  1  0  0  0
M  END
> <minimizedAffinity>
-5.64677

$$$$
2UY4_AZM_A_1311


 16 16  0  0  0  0  0  0  0  0999 V2000
   38.1793   21.6683   22.6678 C   0  0  0  0  0  0  0  0  0  0  0  0
   38.2087   22.4924   24.8932 C   0  0  0  0  0  0  0  0  0  0  0  0
   38.3569   23.4223   23.9227 N   0  0  0  0  0  0  0  0  0  0  0  0
   38.3378   22.9869   22.7400 N   0  0  0  0  0  0  0  0  0  0  0  0
   38.0291   20.9804   24.2042 S   0  0  0  0  0  0  0  0  0  0  0  0
   36.6189   20.9005   20.6137 N   0  0  0  0  0  0  0  0  0  0  0  0
   38.4519   19.3230   21.4994 O   0  0  0  0  0  0  0  0  0  0  0  0
   39.1274   21.3260   20.2586 O   0  0  0  0  0  0  0  0  0  0  0  0
   38.1310   20.7682   21.2162 S   0  0  0  0  0  0  0  0  0  0  0  0
   35.9518   20.5144   21.2816 H   0  0  0  0  0  0  0  0  0  0  0  0
   36.5568   20.3862   19.7351 H   0  0  0  0  0  0  0  0  0  0  0  0
   39.1512   23.2844   26.8970 C   0  0  0  0  0  0  0  0  0  0  0  0
   38.8428   23.3995   28.3674 C   0  0  0  0  0  0  0  0  0  0  0  0
   38.1652   22.7387   26.2023 N   0  0  0  0  0  0  0  0  0  0  0  0
   40.2249   23.6798   26.4530 O   0  0  0  0  0  0  0  0  0  0  0  0
   37.3424   22.4980   26.6864 H   0  0  0  0  0  0  0  0  0  0  0  0
  1  4  2  0  0  0
  1  9  1  0  0  0
  1  5  1  0  0  0
  2  3  2  0  0  0
  2 14  1  0  0  0
  2  5  1  0  0  0
 12 13  1  0  0  0
 12 14  1  0  0  0
 12 15  2  0  0  0
  6  9  1  0  0  0
  3  4  1  0  0  0
  7  9  2  0  0  0
  8  9  2  0  0  0
  6 10  1  0  0  0
  6 11  1  0  0  0
 14 16  1  0  0  0
M  END
> <minimizedAffinity>
-5.61930

$$$$
2UY4_AZM_A_1311


 16 16  0  0  0  0  0  0  0  0999 V2000
   38.0645   22.0698   22.5442 C   0  0  0  0  0  0  0  0  0  0  0  0
   38.4774   21.1315   20.4037 C   0  0  0  0  0  0  0  0  0  0  0  0
   38.6742   22.4654   20.5059 N   0  0  0  0  0  0  0  0  0  0  0  0
   38.4591   22.9649   21.6429 N   0  0  0  0  0  0  0  0  0  0  0  0
   37.9945   20.5169   21.8810 S   0  0  0  0  0  0  0  0  0  0  0  0
   36.1990   23.1262   24.1714 N   0  0  0  0  0  0  0  0  0  0  0  0
   38.6977   23.3709   24.7455 O   0  0  0  0  0  0  0  0  0  0  0  0
   37.6561   21.1624   24.9588 O   0  0  0  0  0  0  0  0  0  0  0  0
   37.6745   22.4261   24.1691 S   0  0  0  0  0  0  0  0  0  0  0  0
   36.2309   23.9882   23.6270 H   0  0  0  0  0  0  0  0  0  0  0  0
   35.9254   23.3397   25.1305 H   0  0  0  0  0  0  0  0  0  0  0  0
   39.8627   20.1843   18.7561 C   0  0  0  0  0  0  0  0  0  0  0  0
   39.7846   19.3610   17.4966 C   0  0  0  0  0  0  0  0  0  0  0  0
   38.6788   20.4001   19.3079 N   0  0  0  0  0  0  0  0  0  0  0  0
   40.9462   20.5795   19.1758 O   0  0  0  0  0  0  0  0  0  0  0  0
   37.8923   19.9919   18.8788 H   0  0  0  0  0  0  0  0  0  0  0  0
  1  4  2  0  0  0
  1  9  1  0  0  0
  1  5  1  0  0  0
  2  3  2  0  0  0
  2 14  1  0  0  0
  2  5  1  0  0  0
 12 13  1  0  0  0
 12 14  1  0  0  0
 12 15  2  0  0  0
  6  9  1  0  0  0
  3  4  1  0  0  0
  7  9  2  0  0  0
  8  9  2  0  0  0
  6 10  1  0  0  0
  6 11  1  0  0  0
 14 16  1  0  0  0
M  END
> <minimizedAffinity>
-5.54686

$$$$
2UY4_AZM_A_1311


 16 16  0  0  0  0  0  0  0  0999 V2000
   36.7832   23.0393   21.3134 C   0  0  0  0  0  0  0  0  0  0  0  0
   37.4331   23.3132   23.5795 C   0  0  0  0  0  0  0  0  0  0  0  0
   36.1278   23.0250   23.3757 N   0  0  0  0  0  0  0  0  0  0  0  0
   35.7815   22.8755   22.1730 N   0  0  0  0  0  0  0  0  0  0  0  0
   38.2325   23.3800   22.1132 S   0  0  0  0  0  0  0  0  0  0  0  0
   37.8774   23.7711   18.9659 N   0  0  0  0  0  0  0  0  0  0  0  0
   35.3239   23.5052   19.1702 O   0  0  0  0  0  0  0  0  0  0  0  0
   36.7199   21.4909   19.2113 O   0  0  0  0  0  0  0  0  0  0  0  0
   36.6414   22.9234   19.6146 S   0  0  0  0  0  0  0  0  0  0  0  0
   37.8073   24.7475   19.2523 H   0  0  0  0  0  0  0  0  0  0  0  0
   37.8338   23.7112   17.9486 H   0  0  0  0  0  0  0  0  0  0  0  0
   38.5096   22.4927   25.5027 C   0  0  0  0  0  0  0  0  0  0  0  0
   39.0629   22.9643   26.8224 C   0  0  0  0  0  0  0  0  0  0  0  0
   38.0145   23.4761   24.7676 N   0  0  0  0  0  0  0  0  0  0  0  0
   38.5492   21.3040   25.1997 O   0  0  0  0  0  0  0  0  0  0  0  0
   38.0803   24.3917   25.1235 H   0  0  0  0  0  0  0  0  0  0  0  0
  1  4  2  0  0  0
  1  9  1  0  0  0
  1  5  1  0  0  0
  2  3  2  0  0  0
  2 14  1  0  0  0
  2  5  1  0  0  0
 12 13  1  0  0  0
 12 14  1  0  0  0
 12 15  2  0  0  0
  6  9  1  0  0  0
  3  4  1  0  0  0
  7  9  2  0  0  0
  8  9  2  0  0  0
  6 10  1  0  0  0
  6 11  1  0  0  0
 14 16  1  0  0  0
M  END
> <minimizedAffinity>
-5.45595

$$$$
2UY4_AZM_A_1311


 16 16  0  0  0  0  0  0  0  0999 V2000
   37.9361   21.2400   23.0464 C   0  0  0  0  0  0  0  0  0  0  0  0
   37.8958   18.8780   22.8181 C   0  0  0  0  0  0  0  0  0  0  0  0
   37.9527   19.3425   24.0867 N   0  0  0  0  0  0  0  0  0  0  0  0
   37.9704   20.5967   24.2101 N   0  0  0  0  0  0  0  0  0  0  0  0
   37.8564   20.1612   21.7479 S   0  0  0  0  0  0  0  0  0  0  0  0
   36.4171   23.4510   22.8285 N   0  0  0  0  0  0  0  0  0  0  0  0
   38.6676   23.3059   21.5848 O   0  0  0  0  0  0  0  0  0  0  0  0
   38.6889   23.5415   24.0244 O   0  0  0  0  0  0  0  0  0  0  0  0
   37.9673   22.9390   22.8680 S   0  0  0  0  0  0  0  0  0  0  0  0
   35.9398   23.0290   22.0319 H   0  0  0  0  0  0  0  0  0  0  0  0
   36.3967   24.4668   22.7380 H   0  0  0  0  0  0  0  0  0  0  0  0
   38.8406   16.9091   21.9456 C   0  0  0  0  0  0  0  0  0  0  0  0
   38.4703   15.4907   21.5970 C   0  0  0  0  0  0  0  0  0  0  0  0
   37.8340   17.5944   22.4648 N   0  0  0  0  0  0  0  0  0  0  0  0
   39.9791   17.3223   21.7468 O   0  0  0  0  0  0  0  0  0  0  0  0
   36.9802   17.1230   22.5992 H   0  0  0  0  0  0  0  0  0  0  0  0
  1  4  2  0  0  0
  1  9  1  0  0  0
  1  5  1  0  0  0
  2  3  2  0  0  0
  2 14  1  0  0  0
  2  5  1  0  0  0
 12 13  1  0  0  0
 12 14  1  0  0  0
 12 15  2  0  0  0
  6  9  1  0  0  0
  3  4  1  0  0  0
  7  9  2  0  0  0
  8  9  2  0  0  0
  6 10  1  0  0  0
  6 11  1  0  0  0
 14 16  1  0  0  0
M  END
> <minimizedAffinity>
-5.16917

$$$$
2UY4_AZM_A_1311


 16 16  0  0  0  0  0  0  0  0999 V2000
   38.0539   21.3789   22.8621 C   0  0  0  0  0  0  0  0  0  0  0  0
   38.3953   19.6683   21.2526 C   0  0  0  0  0  0  0  0  0  0  0  0
   38.6134   20.9308   20.8203 N   0  0  0  0  0  0  0  0  0  0  0  0
   38.4363   21.8403   21.6747 N   0  0  0  0  0  0  0  0  0  0  0  0
   37.9442   19.6924   22.8617 S   0  0  0  0  0  0  0  0  0  0  0  0
   36.1912   22.9171   24.0487 N   0  0  0  0  0  0  0  0  0  0  0  0
   38.6883   23.4991   24.2910 O   0  0  0  0  0  0  0  0  0  0  0  0
   37.8254   21.5248   25.4596 O   0  0  0  0  0  0  0  0  0  0  0  0
   37.7132   22.3517   24.2248 S   0  0  0  0  0  0  0  0  0  0  0  0
   36.1336   23.4797   23.1998 H   0  0  0  0  0  0  0  0  0  0  0  0
   35.9467   23.4920   24.8549 H   0  0  0  0  0  0  0  0  0  0  0  0
   39.3175   17.5374   20.8793 C   0  0  0  0  0  0  0  0  0  0  0  0
   39.3500   16.4440   19.8432 C   0  0  0  0  0  0  0  0  0  0  0  0
   38.5566   18.5620   20.5273 N   0  0  0  0  0  0  0  0  0  0  0  0
   39.9515   17.4245   21.9241 O   0  0  0  0  0  0  0  0  0  0  0  0
   38.0764   18.5024   19.6699 H   0  0  0  0  0  0  0  0  0  0  0  0
  1  4  2  0  0  0
  1  9  1  0  0  0
  1  5  1  0  0  0
  2  3  2  0  0  0
  2 14  1  0  0  0
  2  5  1  0  0  0
 12 13  1  0  0  0
 12 14  1  0  0  0
 12 15  2  0  0  0
  6  9  1  0  0  0
  3  4  1  0  0  0
  7  9  2  0  0  0
  8  9  2  0  0  0
  6 10  1  0  0  0
  6 11  1  0  0  0
 14 16  1  0  0  0
M  END
> <minimizedAffinity>
-4.97332

$$$$
2UY4_AZM_A_1311


 16 16  0  0  0  0  0  0  0  0999 V2000
   37.6825   20.8955   23.4264 C   0  0  0  0  0  0  0  0  0  0  0  0
   37.9192   18.7786   22.3798 C   0  0  0  0  0  0  0  0  0  0  0  0
   37.8432   18.7589   23.7297 N   0  0  0  0  0  0  0  0  0  0  0  0
   37.7136   19.8819   24.2871 N   0  0  0  0  0  0  0  0  0  0  0  0
   37.8060   20.3530   21.8305 S   0  0  0  0  0  0  0  0  0  0  0  0
   37.7551   22.6384   25.4759 N   0  0  0  0  0  0  0  0  0  0  0  0
   36.1657   23.0484   23.4913 O   0  0  0  0  0  0  0  0  0  0  0  0
   38.5751   23.3334   23.1426 O   0  0  0  0  0  0  0  0  0  0  0  0
   37.5364   22.5416   23.8604 S   0  0  0  0  0  0  0  0  0  0  0  0
   37.0363   22.0914   25.9497 H   0  0  0  0  0  0  0  0  0  0  0  0
   37.6899   23.6129   25.7701 H   0  0  0  0  0  0  0  0  0  0  0  0
   39.1596   17.2527   21.0900 C   0  0  0  0  0  0  0  0  0  0  0  0
   38.9706   16.0543   20.1963 C   0  0  0  0  0  0  0  0  0  0  0  0
   38.0229   17.7073   21.5938 N   0  0  0  0  0  0  0  0  0  0  0  0
   40.2812   17.7083   21.2919 O   0  0  0  0  0  0  0  0  0  0  0  0
   37.1965   17.2201   21.3723 H   0  0  0  0  0  0  0  0  0  0  0  0
  1  4  2  0  0  0
  1  9  1  0  0  0
  1  5  1  0  0  0
  2  3  2  0  0  0
  2 14  1  0  0  0
  2  5  1  0  0  0
 12 13  1  0  0  0
 12 14  1  0  0  0
 12 15  2  0  0  0
  6  9  1  0  0  0
  3  4  1  0  0  0
  7  9  2  0  0  0
  8  9  2  0  0  0
  6 10  1  0  0  0
  6 11  1  0  0  0
 14 16  1  0  0  0
M  END
> <minimizedAffinity>
-4.95365

$$$$
2UY4_AZM_A_1311


 16 16  0  0  0  0  0  0  0  0999 V2000
   38.0586   21.5041   21.8272 C   0  0  0  0  0  0  0  0  0  0  0  0
   38.0838   19.2271   22.4962 C   0  0  0  0  0  0  0  0  0  0  0  0
   38.2464   20.1307   23.4890 N   0  0  0  0  0  0  0  0  0  0  0  0
   38.2295   21.3406   23.1361 N   0  0  0  0  0  0  0  0  0  0  0  0
   37.8933   20.0193   21.0370 S   0  0  0  0  0  0  0  0  0  0  0  0
   38.9597   22.8950   19.7066 N   0  0  0  0  0  0  0  0  0  0  0  0
   38.5283   24.0935   21.9449 O   0  0  0  0  0  0  0  0  0  0  0  0
   36.6039   23.3188   20.6394 O   0  0  0  0  0  0  0  0  0  0  0  0
   38.0096   23.0143   21.0295 S   0  0  0  0  0  0  0  0  0  0  0  0
   39.9163   22.6866   19.9927 H   0  0  0  0  0  0  0  0  0  0  0  0
   38.9423   23.7771   19.1949 H   0  0  0  0  0  0  0  0  0  0  0  0
   38.9264   17.0572   22.1614 C   0  0  0  0  0  0  0  0  0  0  0  0
   38.5928   15.6169   22.4523 C   0  0  0  0  0  0  0  0  0  0  0  0
   38.0355   17.9044   22.6524 N   0  0  0  0  0  0  0  0  0  0  0  0
   39.9392   17.3470   21.5317 O   0  0  0  0  0  0  0  0  0  0  0  0
   37.2850   17.5314   23.1689 H   0  0  0  0  0  0  0  0  0  0  0  0
  1  4  2  0  0  0
  1  9  1  0  0  0
  1  5  1  0  0  0
  2  3  2  0  0  0
  2 14  1  0  0  0
  2  5  1  0  0  0
 12 13  1  0  0  0
 12 14  1  0  0  0
 12 15  2  0  0  0
  6  9  1  0  0  0
  3  4  1  0  0  0
  7  9  2  0  0  0
  8  9  2  0  0  0
  6 10  1  0  0  0
  6 11  1  0  0  0
 14 16  1  0  0  0
M  END
> <minimizedAffinity>
-4.91330

$$$$
2UY4_AZM_A_1311


 16 16  0  0  0  0  0  0  0  0999 V2000
   35.3606   22.6550   21.1384 C   0  0  0  0  0  0  0  0  0  0  0  0
   36.2587   22.7328   23.3339 C   0  0  0  0  0  0  0  0  0  0  0  0
   35.2009   23.5435   23.1051 N   0  0  0  0  0  0  0  0  0  0  0  0
   34.7202   23.5008   21.9408 N   0  0  0  0  0  0  0  0  0  0  0  0
   36.6227   21.8742   21.9470 S   0  0  0  0  0  0  0  0  0  0  0  0
   33.4063   21.9146   19.4426 N   0  0  0  0  0  0  0  0  0  0  0  0
   35.8545   21.2955   18.9367 O   0  0  0  0  0  0  0  0  0  0  0  0
   35.1702   23.6398   18.7272 O   0  0  0  0  0  0  0  0  0  0  0  0
   34.9707   22.3799   19.4978 S   0  0  0  0  0  0  0  0  0  0  0  0
   33.2891   21.0522   19.9745 H   0  0  0  0  0  0  0  0  0  0  0  0
   33.1328   21.7557   18.4729 H   0  0  0  0  0  0  0  0  0  0  0  0
   38.1170   23.0402   24.7420 C   0  0  0  0  0  0  0  0  0  0  0  0
   38.6001   22.7031   26.1288 C   0  0  0  0  0  0  0  0  0  0  0  0
   36.8937   22.5970   24.4978 N   0  0  0  0  0  0  0  0  0  0  0  0
   38.8335   23.6683   23.9684 O   0  0  0  0  0  0  0  0  0  0  0  0
   36.4200   22.1350   25.2267 H   0  0  0  0  0  0  0  0  0  0  0  0
  1  4  2  0  0  0
  1  9  1  0  0  0
  1  5  1  0  0  0
  2  3  2  0  0  0
  2 14  1  0  0  0
  2  5  1  0  0  0
 12 13  1  0  0  0
 12 14  1  0  0  0
 12 15  2  0  0  0
  6  9  1  0  0  0
  3  4  1  0  0  0
  7  9  2  0  0  0
  8  9  2  0  0  0
  6 10  1  0  0  0
  6 11  1  0  0  0
 14 16  1  0  0  0
M  END
> <minimizedAffinity>
-4.86810

$$$$
2UY4_AZM_A_1311


 16 16  0  0  0  0  0  0  0  0999 V2000
   37.6674   22.4603   22.0888 C   0  0  0  0  0  0  0  0  0  0  0  0
   36.9056   22.4952   19.8413 C   0  0  0  0  0  0  0  0  0  0  0  0
   38.2097   22.1815   20.0125 N   0  0  0  0  0  0  0  0  0  0  0  0
   38.6152   22.1588   21.2057 N   0  0  0  0  0  0  0  0  0  0  0  0
   36.1892   22.7627   21.3274 S   0  0  0  0  0  0  0  0  0  0  0  0
   36.4332   22.7965   24.4568 N   0  0  0  0  0  0  0  0  0  0  0  0
   38.8331   23.6678   24.1192 O   0  0  0  0  0  0  0  0  0  0  0  0
   38.4727   21.2473   24.2569 O   0  0  0  0  0  0  0  0  0  0  0  0
   37.8967   22.5365   23.7803 S   0  0  0  0  0  0  0  0  0  0  0  0
   36.0551   23.6818   24.1195 H   0  0  0  0  0  0  0  0  0  0  0  0
   36.5293   22.8325   25.4716 H   0  0  0  0  0  0  0  0  0  0  0  0
   36.0920   23.6413   17.9559 C   0  0  0  0  0  0  0  0  0  0  0  0
   35.2907   23.4060   16.7017 C   0  0  0  0  0  0  0  0  0  0  0  0
   36.2667   22.5421   18.6726 N   0  0  0  0  0  0  0  0  0  0  0  0
   36.5142   24.7621   18.2241 O   0  0  0  0  0  0  0  0  0  0  0  0
   35.8990   21.7007   18.3176 H   0  0  0  0  0  0  0  0  0  0  0  0
  1  4  2  0  0  0
  1  9  1  0  0  0
  1  5  1  0  0  0
  2  3  2  0  0  0
  2 14  1  0  0  0
  2  5  1  0  0  0
 12 13  1  0  0  0
 12 14  1  0  0  0
 12 15  2  0  0  0
  6  9  1  0  0  0
  3  4  1  0  0  0
  7  9  2  0  0  0
  8  9  2  0  0  0
  6 10  1  0  0  0
  6 11  1  0  0  0
 14 16  1  0  0  0
M  END
> <minimizedAffinity>
-4.71891

$$$$
