5NK8_90Z_A_1001


 41 44  0  0  0  0  0  0  0  0999 V2000
  121.0906   14.3512   47.3320 C   0  0  0  0  0  0  0  0  0  0  0  0
  122.2649   14.7252   46.6957 C   0  0  0  0  0  0  0  0  0  0  0  0
  119.9919   14.2554   46.5421 C   0  0  0  0  0  0  0  0  0  0  0  0
  120.0393   14.5464   45.1993 C   0  0  0  0  0  0  0  0  0  0  0  0
  121.2209   14.9288   44.6126 C   0  0  0  0  0  0  0  0  0  0  0  0
  122.3611   15.0157   45.3461 C   0  0  0  0  0  0  0  0  0  0  0  0
  121.6738   14.9747   49.5175 N   0  0  0  0  0  0  0  0  0  0  0  0
  121.0070   14.1184   48.7250 C   0  0  0  0  0  0  0  0  0  0  0  0
  120.4945   13.1310   49.1792 O   0  0  0  0  0  0  0  0  0  0  0  0
  122.1287   15.7367   49.0913 H   0  0  0  0  0  0  0  0  0  0  0  0
  121.8688   16.1679   51.6525 C   0  0  0  0  0  0  0  0  0  0  0  0
  121.9841   16.0903   53.1343 C   0  0  0  0  0  0  0  0  0  0  0  0
  120.5974   15.9025   53.6708 C   0  0  0  0  0  0  0  0  0  0  0  0
  122.4683   17.4558   53.6320 C   0  0  0  0  0  0  0  0  0  0  0  0
  122.6848   14.9268   53.6736 N   0  0  0  0  0  0  0  0  0  0  0  0
  123.5046   15.1813   54.5983 O   0  0  0  0  0  0  0  0  0  0  0  0
  123.0401   13.8106   52.7606 C   0  0  0  0  0  0  0  0  0  0  0  0
  121.9898   12.7751   53.0261 C   0  0  0  0  0  0  0  0  0  0  0  0
  124.4053   13.1865   53.0386 C   0  0  0  0  0  0  0  0  0  0  0  0
  122.9712   14.1318   51.3240 C   0  0  0  0  0  0  0  0  0  0  0  0
  121.7685   14.8487   50.9779 C   0  0  0  0  0  0  0  0  0  0  0  0
  123.9221   14.3578   54.8959 H   0  0  0  0  0  0  0  0  0  0  0  0
  123.5237   15.3989   44.8212 N   0  0  0  0  0  0  0  0  0  0  0  0
  123.5196   15.5736   43.8523 H   0  0  0  0  0  0  0  0  0  0  0  0
  124.6876   15.5758   45.4353 C   0  0  0  0  0  0  0  0  0  0  0  0
  125.0375   16.3505   46.9053 S   0  0  0  0  0  0  0  0  0  0  0  0
  125.8507   15.1614   44.9551 N   0  0  0  0  0  0  0  0  0  0  0  0
  126.9052   15.4406   45.7213 C   0  0  0  0  0  0  0  0  0  0  0  0
  126.6455   16.1271   46.8369 C   0  0  0  0  0  0  0  0  0  0  0  0
  127.5110   16.5233   47.7987 C   0  0  0  0  0  0  0  0  0  0  0  0
  128.6288   16.1262   47.6876 O   0  0  0  0  0  0  0  0  0  0  0  0
  127.1265   17.3676   48.7817 N   0  0  0  0  0  0  0  0  0  0  0  0
  126.1978   17.6930   48.8091 H   0  0  0  0  0  0  0  0  0  0  0  0
  127.9904   17.7632   49.7120 C   0  0  0  0  0  0  0  0  0  0  0  0
  128.1511   16.9784   50.8304 C   0  0  0  0  0  0  0  0  0  0  0  0
  127.3620   15.5830   51.0009 Cl  0  0  0  0  0  0  0  0  0  0  0  0
  129.0356   17.3337   51.8379 C   0  0  0  0  0  0  0  0  0  0  0  0
  129.7563   18.5032   51.7321 C   0  0  0  0  0  0  0  0  0  0  0  0
  129.5774   19.2764   50.5972 C   0  0  0  0  0  0  0  0  0  0  0  0
  128.7059   18.9586   49.5775 C   0  0  0  0  0  0  0  0  0  0  0  0
  128.5853   19.8266   48.4767 C   0  0  0  0  0  0  0  0  0  0  0  0
 18 17  1  0  0  0
 13 12  1  0  0  0
 19 17  1  0  0  0
 16 15  1  0  0  0
 17 15  1  0  0  0
 17 20  1  0  0  0
 15 12  1  0  0  0
  9  8  2  0  0  0
 12 14  1  0  0  0
 12 11  1  0  0  0
 20 21  1  0  0  0
 21 11  1  0  0  0
 21  7  1  0  0  0
  8  7  1  0  0  0
  8  1  1  0  0  0
  2  1  2  0  0  0
  2  6  1  0  0  0
  1  3  1  0  0  0
 23  6  1  0  0  0
 23 25  1  0  0  0
  6  5  2  0  0  0
 27 25  2  0  0  0
 27 28  1  0  0  0
 25 26  1  0  0  0
  3  4  2  0  0  0
 28 29  2  0  0  0
  5  4  1  0  0  0
 26 29  1  0  0  0
 29 30  1  0  0  0
 32 30  1  0  0  0
 32 34  1  0  0  0
 30 31  2  0  0  0
 41 40  1  0  0  0
 34 40  2  0  0  0
 34 35  1  0  0  0
 40 39  1  0  0  0
 36 35  1  0  0  0
 35 37  2  0  0  0
 39 38  2  0  0  0
 37 38  1  0  0  0
 16 22  1  0  0  0
  7 10  1  0  0  0
 23 24  1  0  0  0
 32 33  1  0  0  0
M  END
> <minimizedAffinity>
-10.35286

$$$$
5NK8_90Z_A_1001


 41 44  0  0  0  0  0  0  0  0999 V2000
  119.8446   14.3109   44.3393 C   0  0  0  0  0  0  0  0  0  0  0  0
  121.1531   14.6741   44.0566 C   0  0  0  0  0  0  0  0  0  0  0  0
  119.5255   14.2171   45.6544 C   0  0  0  0  0  0  0  0  0  0  0  0
  120.4566   14.4364   46.6417 C   0  0  0  0  0  0  0  0  0  0  0  0
  121.7465   14.7787   46.3166 C   0  0  0  0  0  0  0  0  0  0  0  0
  122.1193   14.9155   45.0174 C   0  0  0  0  0  0  0  0  0  0  0  0
  118.3235   12.7945   43.3947 N   0  0  0  0  0  0  0  0  0  0  0  0
  118.8924   14.0106   43.3369 C   0  0  0  0  0  0  0  0  0  0  0  0
  118.7019   14.7353   42.3975 O   0  0  0  0  0  0  0  0  0  0  0  0
  118.5577   12.2129   44.1537 H   0  0  0  0  0  0  0  0  0  0  0  0
  115.9625   12.5261   42.7835 C   0  0  0  0  0  0  0  0  0  0  0  0
  114.9630   12.0027   41.8130 C   0  0  0  0  0  0  0  0  0  0  0  0
  114.8590   13.0096   40.7078 C   0  0  0  0  0  0  0  0  0  0  0  0
  113.6031   11.9794   42.5178 C   0  0  0  0  0  0  0  0  0  0  0  0
  115.3307   10.7869   41.0903 N   0  0  0  0  0  0  0  0  0  0  0  0
  114.4177    9.9198   41.0093 O   0  0  0  0  0  0  0  0  0  0  0  0
  116.7219   10.2777   41.1947 C   0  0  0  0  0  0  0  0  0  0  0  0
  117.3706   10.7276   39.9208 C   0  0  0  0  0  0  0  0  0  0  0  0
  116.8263    8.7565   41.2709 C   0  0  0  0  0  0  0  0  0  0  0  0
  117.5135   10.8437   42.3014 C   0  0  0  0  0  0  0  0  0  0  0  0
  117.3752   12.2759   42.4001 C   0  0  0  0  0  0  0  0  0  0  0  0
  114.7451    9.1507   40.5172 H   0  0  0  0  0  0  0  0  0  0  0  0
  123.3628   15.2289   44.6577 N   0  0  0  0  0  0  0  0  0  0  0  0
  123.5440   15.2205   43.6900 H   0  0  0  0  0  0  0  0  0  0  0  0
  124.3899   15.5512   45.4351 C   0  0  0  0  0  0  0  0  0  0  0  0
  124.4201   16.4049   46.9027 S   0  0  0  0  0  0  0  0  0  0  0  0
  125.6510   15.2521   45.1607 N   0  0  0  0  0  0  0  0  0  0  0  0
  126.5359   15.6688   46.0663 C   0  0  0  0  0  0  0  0  0  0  0  0
  126.0329   16.3571   47.0942 C   0  0  0  0  0  0  0  0  0  0  0  0
  126.6891   16.8753   48.1582 C   0  0  0  0  0  0  0  0  0  0  0  0
  126.0200   17.1181   49.1136 O   0  0  0  0  0  0  0  0  0  0  0  0
  128.0304   17.0415   48.1403 N   0  0  0  0  0  0  0  0  0  0  0  0
  128.5415   16.7939   47.3362 H   0  0  0  0  0  0  0  0  0  0  0  0
  128.6663   17.5363   49.1982 C   0  0  0  0  0  0  0  0  0  0  0  0
  129.1492   16.6577   50.1402 C   0  0  0  0  0  0  0  0  0  0  0  0
  129.0061   15.0625   49.9560 Cl  0  0  0  0  0  0  0  0  0  0  0  0
  129.8214   17.1080   51.2666 C   0  0  0  0  0  0  0  0  0  0  0  0
  129.9959   18.4607   51.4619 C   0  0  0  0  0  0  0  0  0  0  0  0
  129.5010   19.3253   50.5000 C   0  0  0  0  0  0  0  0  0  0  0  0
  128.8250   18.9162   49.3704 C   0  0  0  0  0  0  0  0  0  0  0  0
  128.3447   19.8811   48.4659 C   0  0  0  0  0  0  0  0  0  0  0  0
 18 17  1  0  0  0
 13 12  1  0  0  0
 19 17  1  0  0  0
 16 15  1  0  0  0
 17 15  1  0  0  0
 17 20  1  0  0  0
 15 12  1  0  0  0
  9  8  2  0  0  0
 12 14  1  0  0  0
 12 11  1  0  0  0
 20 21  1  0  0  0
 21 11  1  0  0  0
 21  7  1  0  0  0
  8  7  1  0  0  0
  8  1  1  0  0  0
  2  1  2  0  0  0
  2  6  1  0  0  0
  1  3  1  0  0  0
 23  6  1  0  0  0
 23 25  1  0  0  0
  6  5  2  0  0  0
 27 25  2  0  0  0
 27 28  1  0  0  0
 25 26  1  0  0  0
  3  4  2  0  0  0
 28 29  2  0  0  0
  5  4  1  0  0  0
 26 29  1  0  0  0
 29 30  1  0  0  0
 32 30  1  0  0  0
 32 34  1  0  0  0
 30 31  2  0  0  0
 41 40  1  0  0  0
 34 40  2  0  0  0
 34 35  1  0  0  0
 40 39  1  0  0  0
 36 35  1  0  0  0
 35 37  2  0  0  0
 39 38  2  0  0  0
 37 38  1  0  0  0
 16 22  1  0  0  0
  7 10  1  0  0  0
 23 24  1  0  0  0
 32 33  1  0  0  0
M  END
> <minimizedAffinity>
-10.10928

$$$$
5NK8_90Z_A_1001


 41 44  0  0  0  0  0  0  0  0999 V2000
  119.7425   14.5337   44.2358 C   0  0  0  0  0  0  0  0  0  0  0  0
  121.0554   14.8921   43.9683 C   0  0  0  0  0  0  0  0  0  0  0  0
  119.4461   14.2935   45.5376 C   0  0  0  0  0  0  0  0  0  0  0  0
  120.4023   14.3690   46.5225 C   0  0  0  0  0  0  0  0  0  0  0  0
  121.6953   14.7122   46.2107 C   0  0  0  0  0  0  0  0  0  0  0  0
  122.0467   14.9917   44.9286 C   0  0  0  0  0  0  0  0  0  0  0  0
  118.5723   15.4307   42.4105 N   0  0  0  0  0  0  0  0  0  0  0  0
  118.7625   14.3803   43.2269 C   0  0  0  0  0  0  0  0  0  0  0  0
  118.0327   13.4268   43.1833 O   0  0  0  0  0  0  0  0  0  0  0  0
  119.1576   16.2140   42.5250 H   0  0  0  0  0  0  0  0  0  0  0  0
  117.8650   16.4976   40.3174 C   0  0  0  0  0  0  0  0  0  0  0  0
  116.8463   16.6032   39.2375 C   0  0  0  0  0  0  0  0  0  0  0  0
  117.1212   15.4938   38.2682 C   0  0  0  0  0  0  0  0  0  0  0  0
  117.1005   17.9156   38.4894 C   0  0  0  0  0  0  0  0  0  0  0  0
  115.4604   16.3428   39.6209 N   0  0  0  0  0  0  0  0  0  0  0  0
  114.6179   17.1596   39.1574 O   0  0  0  0  0  0  0  0  0  0  0  0
  115.1760   15.7903   40.9698 C   0  0  0  0  0  0  0  0  0  0  0  0
  114.9404   14.3310   40.7231 C   0  0  0  0  0  0  0  0  0  0  0  0
  113.9280   16.3690   41.6316 C   0  0  0  0  0  0  0  0  0  0  0  0
  116.2877   15.8876   41.9325 C   0  0  0  0  0  0  0  0  0  0  0  0
  117.5487   15.4871   41.3586 C   0  0  0  0  0  0  0  0  0  0  0  0
  113.7294   16.9140   39.4594 H   0  0  0  0  0  0  0  0  0  0  0  0
  123.2918   15.3116   44.5802 N   0  0  0  0  0  0  0  0  0  0  0  0
  123.4673   15.3590   43.6126 H   0  0  0  0  0  0  0  0  0  0  0  0
  124.3272   15.5749   45.3688 C   0  0  0  0  0  0  0  0  0  0  0  0
  124.3839   16.3903   46.8572 S   0  0  0  0  0  0  0  0  0  0  0  0
  125.5771   15.2343   45.0912 N   0  0  0  0  0  0  0  0  0  0  0  0
  126.4734   15.5942   46.0099 C   0  0  0  0  0  0  0  0  0  0  0  0
  125.9928   16.2758   47.0529 C   0  0  0  0  0  0  0  0  0  0  0  0
  126.6639   16.7420   48.1315 C   0  0  0  0  0  0  0  0  0  0  0  0
  126.0328   16.8295   49.1382 O   0  0  0  0  0  0  0  0  0  0  0  0
  127.9836   17.0263   48.0658 N   0  0  0  0  0  0  0  0  0  0  0  0
  128.4666   16.9051   47.2165 H   0  0  0  0  0  0  0  0  0  0  0  0
  128.6361   17.4680   49.1370 C   0  0  0  0  0  0  0  0  0  0  0  0
  128.7133   18.8263   49.3409 C   0  0  0  0  0  0  0  0  0  0  0  0
  127.9899   19.8698   48.3476 Cl  0  0  0  0  0  0  0  0  0  0  0  0
  129.3789   19.3527   50.4379 C   0  0  0  0  0  0  0  0  0  0  0  0
  129.9932   18.5056   51.3344 C   0  0  0  0  0  0  0  0  0  0  0  0
  129.9018   17.1425   51.1077 C   0  0  0  0  0  0  0  0  0  0  0  0
  129.2530   16.5824   50.0281 C   0  0  0  0  0  0  0  0  0  0  0  0
  129.2381   15.1831   49.8815 C   0  0  0  0  0  0  0  0  0  0  0  0
 18 17  1  0  0  0
 13 12  1  0  0  0
 19 17  1  0  0  0
 16 15  1  0  0  0
 17 15  1  0  0  0
 17 20  1  0  0  0
 15 12  1  0  0  0
  9  8  2  0  0  0
 12 14  1  0  0  0
 12 11  1  0  0  0
 20 21  1  0  0  0
 21 11  1  0  0  0
 21  7  1  0  0  0
  8  7  1  0  0  0
  8  1  1  0  0  0
  2  1  2  0  0  0
  2  6  1  0  0  0
  1  3  1  0  0  0
 23  6  1  0  0  0
 23 25  1  0  0  0
  6  5  2  0  0  0
 27 25  2  0  0  0
 27 28  1  0  0  0
 25 26  1  0  0  0
  3  4  2  0  0  0
 28 29  2  0  0  0
  5  4  1  0  0  0
 26 29  1  0  0  0
 29 30  1  0  0  0
 32 30  1  0  0  0
 32 34  1  0  0  0
 30 31  2  0  0  0
 41 40  1  0  0  0
 34 40  2  0  0  0
 34 35  1  0  0  0
 40 39  1  0  0  0
 36 35  1  0  0  0
 35 37  2  0  0  0
 39 38  2  0  0  0
 37 38  1  0  0  0
 16 22  1  0  0  0
  7 10  1  0  0  0
 23 24  1  0  0  0
 32 33  1  0  0  0
M  END
> <minimizedAffinity>
-9.34377

$$$$
5NK8_90Z_A_1001


 41 44  0  0  0  0  0  0  0  0999 V2000
  119.7219   14.7240   44.2184 C   0  0  0  0  0  0  0  0  0  0  0  0
  121.0444   15.0472   43.9532 C   0  0  0  0  0  0  0  0  0  0  0  0
  119.4332   14.4149   45.5074 C   0  0  0  0  0  0  0  0  0  0  0  0
  120.4044   14.3918   46.4801 C   0  0  0  0  0  0  0  0  0  0  0  0
  121.7058   14.7033   46.1702 C   0  0  0  0  0  0  0  0  0  0  0  0
  122.0513   15.0483   44.9025 C   0  0  0  0  0  0  0  0  0  0  0  0
  117.4627   14.4720   43.6370 N   0  0  0  0  0  0  0  0  0  0  0  0
  118.7236   14.6718   43.2172 C   0  0  0  0  0  0  0  0  0  0  0  0
  118.9918   14.6583   42.0460 O   0  0  0  0  0  0  0  0  0  0  0  0
  117.3022   14.4308   44.6075 H   0  0  0  0  0  0  0  0  0  0  0  0
  115.0727   14.9151   43.3035 C   0  0  0  0  0  0  0  0  0  0  0  0
  113.8705   14.7620   42.4397 C   0  0  0  0  0  0  0  0  0  0  0  0
  113.9428   15.8359   41.3968 C   0  0  0  0  0  0  0  0  0  0  0  0
  112.6409   15.0660   43.3012 C   0  0  0  0  0  0  0  0  0  0  0  0
  113.8003   13.5480   41.6293 N   0  0  0  0  0  0  0  0  0  0  0  0
  112.6753   12.9768   41.6234 O   0  0  0  0  0  0  0  0  0  0  0  0
  114.9924   12.6662   41.5450 C   0  0  0  0  0  0  0  0  0  0  0  0
  115.6063   13.0098   40.2217 C   0  0  0  0  0  0  0  0  0  0  0  0
  114.6675   11.1746   41.5463 C   0  0  0  0  0  0  0  0  0  0  0  0
  116.0227   12.9079   42.5706 C   0  0  0  0  0  0  0  0  0  0  0  0
  116.3082   14.3110   42.7433 C   0  0  0  0  0  0  0  0  0  0  0  0
  112.7176   12.1850   41.0647 H   0  0  0  0  0  0  0  0  0  0  0  0
  123.3035   15.3408   44.5552 N   0  0  0  0  0  0  0  0  0  0  0  0
  123.4784   15.3950   43.5879 H   0  0  0  0  0  0  0  0  0  0  0  0
  124.3465   15.5688   45.3447 C   0  0  0  0  0  0  0  0  0  0  0  0
  124.4274   16.3707   46.8393 S   0  0  0  0  0  0  0  0  0  0  0  0
  125.5861   15.1953   45.0632 N   0  0  0  0  0  0  0  0  0  0  0  0
  126.4930   15.5227   45.9836 C   0  0  0  0  0  0  0  0  0  0  0  0
  126.0327   16.2094   47.0324 C   0  0  0  0  0  0  0  0  0  0  0  0
  126.7175   16.6482   48.1139 C   0  0  0  0  0  0  0  0  0  0  0  0
  126.1355   16.5997   49.1523 O   0  0  0  0  0  0  0  0  0  0  0  0
  128.0026   17.0542   48.0113 N   0  0  0  0  0  0  0  0  0  0  0  0
  128.4485   17.0436   47.1336 H   0  0  0  0  0  0  0  0  0  0  0  0
  128.6707   17.4676   49.0842 C   0  0  0  0  0  0  0  0  0  0  0  0
  128.7031   18.8160   49.3542 C   0  0  0  0  0  0  0  0  0  0  0  0
  127.9110   19.8784   48.4360 Cl  0  0  0  0  0  0  0  0  0  0  0  0
  129.3819   19.3132   50.4567 C   0  0  0  0  0  0  0  0  0  0  0  0
  130.0547   18.4475   51.2912 C   0  0  0  0  0  0  0  0  0  0  0  0
  130.0076   17.0946   50.9987 C   0  0  0  0  0  0  0  0  0  0  0  0
  129.3474   16.5637   49.9113 C   0  0  0  0  0  0  0  0  0  0  0  0
  129.3805   15.1738   49.6946 C   0  0  0  0  0  0  0  0  0  0  0  0
 18 17  1  0  0  0
 13 12  1  0  0  0
 19 17  1  0  0  0
 16 15  1  0  0  0
 17 15  1  0  0  0
 17 20  1  0  0  0
 15 12  1  0  0  0
  9  8  2  0  0  0
 12 14  1  0  0  0
 12 11  1  0  0  0
 20 21  1  0  0  0
 21 11  1  0  0  0
 21  7  1  0  0  0
  8  7  1  0  0  0
  8  1  1  0  0  0
  2  1  2  0  0  0
  2  6  1  0  0  0
  1  3  1  0  0  0
 23  6  1  0  0  0
 23 25  1  0  0  0
  6  5  2  0  0  0
 27 25  2  0  0  0
 27 28  1  0  0  0
 25 26  1  0  0  0
  3  4  2  0  0  0
 28 29  2  0  0  0
  5  4  1  0  0  0
 26 29  1  0  0  0
 29 30  1  0  0  0
 32 30  1  0  0  0
 32 34  1  0  0  0
 30 31  2  0  0  0
 41 40  1  0  0  0
 34 40  2  0  0  0
 34 35  1  0  0  0
 40 39  1  0  0  0
 36 35  1  0  0  0
 35 37  2  0  0  0
 39 38  2  0  0  0
 37 38  1  0  0  0
 16 22  1  0  0  0
  7 10  1  0  0  0
 23 24  1  0  0  0
 32 33  1  0  0  0
M  END
> <minimizedAffinity>
-9.07970

$$$$
5NK8_90Z_A_1001


 41 44  0  0  0  0  0  0  0  0999 V2000
  119.3799   14.2341   44.6703 C   0  0  0  0  0  0  0  0  0  0  0  0
  120.6569   14.6376   44.3093 C   0  0  0  0  0  0  0  0  0  0  0  0
  119.1552   14.0949   46.0008 C   0  0  0  0  0  0  0  0  0  0  0  0
  120.1475   14.3090   46.9279 C   0  0  0  0  0  0  0  0  0  0  0  0
  121.4036   14.6924   46.5251 C   0  0  0  0  0  0  0  0  0  0  0  0
  121.6818   14.8754   45.2081 C   0  0  0  0  0  0  0  0  0  0  0  0
  118.7242   13.9766   42.4321 N   0  0  0  0  0  0  0  0  0  0  0  0
  118.3674   13.9391   43.7272 C   0  0  0  0  0  0  0  0  0  0  0  0
  117.2163   13.8052   44.0449 O   0  0  0  0  0  0  0  0  0  0  0  0
  119.6701   14.1494   42.2206 H   0  0  0  0  0  0  0  0  0  0  0  0
  117.6540   12.3448   40.9451 C   0  0  0  0  0  0  0  0  0  0  0  0
  116.7350   12.0938   39.8016 C   0  0  0  0  0  0  0  0  0  0  0  0
  115.3407   12.1089   40.3508 C   0  0  0  0  0  0  0  0  0  0  0  0
  116.9970   10.6694   39.3025 C   0  0  0  0  0  0  0  0  0  0  0  0
  116.6742   13.1312   38.7742 N   0  0  0  0  0  0  0  0  0  0  0  0
  116.6956   12.7056   37.5867 O   0  0  0  0  0  0  0  0  0  0  0  0
  117.3408   14.4346   39.0239 C   0  0  0  0  0  0  0  0  0  0  0  0
  116.2192   15.3477   39.4166 C   0  0  0  0  0  0  0  0  0  0  0  0
  118.0312   15.0281   37.7984 C   0  0  0  0  0  0  0  0  0  0  0  0
  118.3068   14.4398   40.1369 C   0  0  0  0  0  0  0  0  0  0  0  0
  117.7960   13.7769   41.3114 C   0  0  0  0  0  0  0  0  0  0  0  0
  116.6519   13.4559   36.9735 H   0  0  0  0  0  0  0  0  0  0  0  0
  122.8899   15.2298   44.7732 N   0  0  0  0  0  0  0  0  0  0  0  0
  122.9945   15.2843   43.7958 H   0  0  0  0  0  0  0  0  0  0  0  0
  123.9714   15.5190   45.4872 C   0  0  0  0  0  0  0  0  0  0  0  0
  124.1074   16.2709   47.0037 S   0  0  0  0  0  0  0  0  0  0  0  0
  125.2106   15.2648   45.0933 N   0  0  0  0  0  0  0  0  0  0  0  0
  126.1595   15.6365   45.9527 C   0  0  0  0  0  0  0  0  0  0  0  0
  125.7309   16.2427   47.0627 C   0  0  0  0  0  0  0  0  0  0  0  0
  126.4631   16.7003   48.1047 C   0  0  0  0  0  0  0  0  0  0  0  0
  125.8930   16.7728   49.1483 O   0  0  0  0  0  0  0  0  0  0  0  0
  127.7752   16.9925   47.9635 N   0  0  0  0  0  0  0  0  0  0  0  0
  128.2070   16.8837   47.0855 H   0  0  0  0  0  0  0  0  0  0  0  0
  128.4885   17.4256   48.9989 C   0  0  0  0  0  0  0  0  0  0  0  0
  128.5263   18.7783   49.2462 C   0  0  0  0  0  0  0  0  0  0  0  0
  127.6886   19.8227   48.3481 Cl  0  0  0  0  0  0  0  0  0  0  0  0
  129.2512   19.2955   50.3094 C   0  0  0  0  0  0  0  0  0  0  0  0
  129.9649   18.4459   51.1262 C   0  0  0  0  0  0  0  0  0  0  0  0
  129.9115   17.0885   50.8571 C   0  0  0  0  0  0  0  0  0  0  0  0
  129.2060   16.5377   49.8088 C   0  0  0  0  0  0  0  0  0  0  0  0
  129.2362   15.1448   49.6124 C   0  0  0  0  0  0  0  0  0  0  0  0
 18 17  1  0  0  0
 13 12  1  0  0  0
 19 17  1  0  0  0
 16 15  1  0  0  0
 17 15  1  0  0  0
 17 20  1  0  0  0
 15 12  1  0  0  0
  9  8  2  0  0  0
 12 14  1  0  0  0
 12 11  1  0  0  0
 20 21  1  0  0  0
 21 11  1  0  0  0
 21  7  1  0  0  0
  8  7  1  0  0  0
  8  1  1  0  0  0
  2  1  2  0  0  0
  2  6  1  0  0  0
  1  3  1  0  0  0
 23  6  1  0  0  0
 23 25  1  0  0  0
  6  5  2  0  0  0
 27 25  2  0  0  0
 27 28  1  0  0  0
 25 26  1  0  0  0
  3  4  2  0  0  0
 28 29  2  0  0  0
  5  4  1  0  0  0
 26 29  1  0  0  0
 29 30  1  0  0  0
 32 30  1  0  0  0
 32 34  1  0  0  0
 30 31  2  0  0  0
 41 40  1  0  0  0
 34 40  2  0  0  0
 34 35  1  0  0  0
 40 39  1  0  0  0
 36 35  1  0  0  0
 35 37  2  0  0  0
 39 38  2  0  0  0
 37 38  1  0  0  0
 16 22  1  0  0  0
  7 10  1  0  0  0
 23 24  1  0  0  0
 32 33  1  0  0  0
M  END
> <minimizedAffinity>
-9.04780

$$$$
5NK8_90Z_A_1001


 41 44  0  0  0  0  0  0  0  0999 V2000
  119.0148   13.6986   47.0685 C   0  0  0  0  0  0  0  0  0  0  0  0
  119.7904   14.7713   47.4828 C   0  0  0  0  0  0  0  0  0  0  0  0
  118.9034   12.6718   47.9480 C   0  0  0  0  0  0  0  0  0  0  0  0
  119.5508   12.6852   49.1607 C   0  0  0  0  0  0  0  0  0  0  0  0
  120.3225   13.7617   49.5244 C   0  0  0  0  0  0  0  0  0  0  0  0
  120.4497   14.8323   48.6979 C   0  0  0  0  0  0  0  0  0  0  0  0
  117.7199   12.5115   45.5130 N   0  0  0  0  0  0  0  0  0  0  0  0
  118.4005   13.6353   45.7956 C   0  0  0  0  0  0  0  0  0  0  0  0
  118.5910   14.4684   44.9509 O   0  0  0  0  0  0  0  0  0  0  0  0
  117.6421   11.8309   46.2200 H   0  0  0  0  0  0  0  0  0  0  0  0
  115.6112   12.4143   44.2624 C   0  0  0  0  0  0  0  0  0  0  0  0
  114.9202   12.1254   42.9763 C   0  0  0  0  0  0  0  0  0  0  0  0
  115.0630   13.3472   42.1202 C   0  0  0  0  0  0  0  0  0  0  0  0
  113.4265   11.9711   43.2790 C   0  0  0  0  0  0  0  0  0  0  0  0
  115.5139   11.0877   42.1360 N   0  0  0  0  0  0  0  0  0  0  0  0
  114.6909   10.2712   41.6380 O   0  0  0  0  0  0  0  0  0  0  0  0
  116.8511   10.5480   42.4915 C   0  0  0  0  0  0  0  0  0  0  0  0
  117.7876   11.2512   41.5563 C   0  0  0  0  0  0  0  0  0  0  0  0
  116.9970    9.0445   42.2703 C   0  0  0  0  0  0  0  0  0  0  0  0
  117.3045   10.8522   43.8603 C   0  0  0  0  0  0  0  0  0  0  0  0
  117.0844   12.2318   44.2186 C   0  0  0  0  0  0  0  0  0  0  0  0
  115.1669    9.6209   41.0983 H   0  0  0  0  0  0  0  0  0  0  0  0
  121.2012   15.8886   49.0036 N   0  0  0  0  0  0  0  0  0  0  0  0
  120.7152   16.6805   49.3291 H   0  0  0  0  0  0  0  0  0  0  0  0
  122.5210   16.0120   48.9263 C   0  0  0  0  0  0  0  0  0  0  0  0
  123.6117   16.7477   50.0001 S   0  0  0  0  0  0  0  0  0  0  0  0
  123.2505   15.5637   47.9152 N   0  0  0  0  0  0  0  0  0  0  0  0
  124.5595   15.7907   48.0242 C   0  0  0  0  0  0  0  0  0  0  0  0
  124.9420   16.4668   49.1105 C   0  0  0  0  0  0  0  0  0  0  0  0
  126.1954   16.8141   49.4842 C   0  0  0  0  0  0  0  0  0  0  0  0
  127.0717   16.1202   49.0720 O   0  0  0  0  0  0  0  0  0  0  0  0
  126.4229   17.9195   50.2281 N   0  0  0  0  0  0  0  0  0  0  0  0
  125.6649   18.4780   50.5157 H   0  0  0  0  0  0  0  0  0  0  0  0
  127.6606   18.2600   50.5753 C   0  0  0  0  0  0  0  0  0  0  0  0
  128.1642   17.7738   51.7595 C   0  0  0  0  0  0  0  0  0  0  0  0
  127.3107   16.7707   52.6893 Cl  0  0  0  0  0  0  0  0  0  0  0  0
  129.4472   18.0907   52.1801 C   0  0  0  0  0  0  0  0  0  0  0  0
  130.2312   18.9230   51.4113 C   0  0  0  0  0  0  0  0  0  0  0  0
  129.7024   19.3998   50.2235 C   0  0  0  0  0  0  0  0  0  0  0  0
  128.4316   19.1104   49.7745 C   0  0  0  0  0  0  0  0  0  0  0  0
  127.9851   19.6656   48.5611 C   0  0  0  0  0  0  0  0  0  0  0  0
 18 17  1  0  0  0
 13 12  1  0  0  0
 19 17  1  0  0  0
 16 15  1  0  0  0
 17 15  1  0  0  0
 17 20  1  0  0  0
 15 12  1  0  0  0
  9  8  2  0  0  0
 12 14  1  0  0  0
 12 11  1  0  0  0
 20 21  1  0  0  0
 21 11  1  0  0  0
 21  7  1  0  0  0
  8  7  1  0  0  0
  8  1  1  0  0  0
  2  1  2  0  0  0
  2  6  1  0  0  0
  1  3  1  0  0  0
 23  6  1  0  0  0
 23 25  1  0  0  0
  6  5  2  0  0  0
 27 25  2  0  0  0
 27 28  1  0  0  0
 25 26  1  0  0  0
  3  4  2  0  0  0
 28 29  2  0  0  0
  5  4  1  0  0  0
 26 29  1  0  0  0
 29 30  1  0  0  0
 32 30  1  0  0  0
 32 34  1  0  0  0
 30 31  2  0  0  0
 41 40  1  0  0  0
 34 40  2  0  0  0
 34 35  1  0  0  0
 40 39  1  0  0  0
 36 35  1  0  0  0
 35 37  2  0  0  0
 39 38  2  0  0  0
 37 38  1  0  0  0
 16 22  1  0  0  0
  7 10  1  0  0  0
 23 24  1  0  0  0
 32 33  1  0  0  0
M  END
> <minimizedAffinity>
-8.81318

$$$$
5NK8_90Z_A_1001


 41 44  0  0  0  0  0  0  0  0999 V2000
  118.6314   14.3100   47.0905 C   0  0  0  0  0  0  0  0  0  0  0  0
  119.4968   15.0740   47.8594 C   0  0  0  0  0  0  0  0  0  0  0  0
  118.4946   13.0127   47.4628 C   0  0  0  0  0  0  0  0  0  0  0  0
  119.2002   12.4851   48.5180 C   0  0  0  0  0  0  0  0  0  0  0  0
  120.0595   13.2742   49.2431 C   0  0  0  0  0  0  0  0  0  0  0  0
  120.2177   14.5880   48.9360 C   0  0  0  0  0  0  0  0  0  0  0  0
  118.6694   14.9217   44.8256 N   0  0  0  0  0  0  0  0  0  0  0  0
  117.9525   14.8166   45.9574 C   0  0  0  0  0  0  0  0  0  0  0  0
  116.8411   15.2682   46.0262 O   0  0  0  0  0  0  0  0  0  0  0  0
  119.5968   14.5914   44.8364 H   0  0  0  0  0  0  0  0  0  0  0  0
  118.3043   14.5656   42.4257 C   0  0  0  0  0  0  0  0  0  0  0  0
  117.8170   15.1117   41.1298 C   0  0  0  0  0  0  0  0  0  0  0  0
  116.3294   14.9310   41.1117 C   0  0  0  0  0  0  0  0  0  0  0  0
  118.3823   14.2272   40.0141 C   0  0  0  0  0  0  0  0  0  0  0  0
  117.9560   16.5535   40.9364 N   0  0  0  0  0  0  0  0  0  0  0  0
  118.3907   16.8987   39.8034 O   0  0  0  0  0  0  0  0  0  0  0  0
  118.3585   17.4010   42.0877 C   0  0  0  0  0  0  0  0  0  0  0  0
  117.0730   18.0122   42.5567 C   0  0  0  0  0  0  0  0  0  0  0  0
  119.3191   18.5310   41.7260 C   0  0  0  0  0  0  0  0  0  0  0  0
  118.9279   16.6697   43.2335 C   0  0  0  0  0  0  0  0  0  0  0  0
  118.1605   15.4968   43.5735 C   0  0  0  0  0  0  0  0  0  0  0  0
  118.4515   17.8659   39.7613 H   0  0  0  0  0  0  0  0  0  0  0  0
  121.0527   15.3843   49.6015 N   0  0  0  0  0  0  0  0  0  0  0  0
  120.6588   15.8892   50.3492 H   0  0  0  0  0  0  0  0  0  0  0  0
  122.3476   15.5852   49.3872 C   0  0  0  0  0  0  0  0  0  0  0  0
  123.4806   16.4604   50.3005 S   0  0  0  0  0  0  0  0  0  0  0  0
  123.0081   15.1154   48.3392 N   0  0  0  0  0  0  0  0  0  0  0  0
  124.3026   15.4316   48.3045 C   0  0  0  0  0  0  0  0  0  0  0  0
  124.7377   16.2036   49.3035 C   0  0  0  0  0  0  0  0  0  0  0  0
  125.9934   16.6543   49.5298 C   0  0  0  0  0  0  0  0  0  0  0  0
  126.8549   16.1350   48.8914 O   0  0  0  0  0  0  0  0  0  0  0  0
  126.2275   17.6741   50.3854 N   0  0  0  0  0  0  0  0  0  0  0  0
  125.4751   18.0912   50.8641 H   0  0  0  0  0  0  0  0  0  0  0  0
  127.4642   18.1195   50.5871 C   0  0  0  0  0  0  0  0  0  0  0  0
  128.1510   17.6646   51.6888 C   0  0  0  0  0  0  0  0  0  0  0  0
  127.5102   16.5766   52.6910 Cl  0  0  0  0  0  0  0  0  0  0  0  0
  129.4436   18.0896   51.9570 C   0  0  0  0  0  0  0  0  0  0  0  0
  130.0507   18.9992   51.1188 C   0  0  0  0  0  0  0  0  0  0  0  0
  129.3392   19.4425   50.0165 C   0  0  0  0  0  0  0  0  0  0  0  0
  128.0528   19.0464   49.7191 C   0  0  0  0  0  0  0  0  0  0  0  0
  127.4127   19.5755   48.5833 C   0  0  0  0  0  0  0  0  0  0  0  0
 18 17  1  0  0  0
 13 12  1  0  0  0
 19 17  1  0  0  0
 16 15  1  0  0  0
 17 15  1  0  0  0
 17 20  1  0  0  0
 15 12  1  0  0  0
  9  8  2  0  0  0
 12 14  1  0  0  0
 12 11  1  0  0  0
 20 21  1  0  0  0
 21 11  1  0  0  0
 21  7  1  0  0  0
  8  7  1  0  0  0
  8  1  1  0  0  0
  2  1  2  0  0  0
  2  6  1  0  0  0
  1  3  1  0  0  0
 23  6  1  0  0  0
 23 25  1  0  0  0
  6  5  2  0  0  0
 27 25  2  0  0  0
 27 28  1  0  0  0
 25 26  1  0  0  0
  3  4  2  0  0  0
 28 29  2  0  0  0
  5  4  1  0  0  0
 26 29  1  0  0  0
 29 30  1  0  0  0
 32 30  1  0  0  0
 32 34  1  0  0  0
 30 31  2  0  0  0
 41 40  1  0  0  0
 34 40  2  0  0  0
 34 35  1  0  0  0
 40 39  1  0  0  0
 36 35  1  0  0  0
 35 37  2  0  0  0
 39 38  2  0  0  0
 37 38  1  0  0  0
 16 22  1  0  0  0
  7 10  1  0  0  0
 23 24  1  0  0  0
 32 33  1  0  0  0
M  END
> <minimizedAffinity>
-8.62860

$$$$
5NK8_90Z_A_1001


 41 44  0  0  0  0  0  0  0  0999 V2000
  119.2129   14.6107   45.2394 C   0  0  0  0  0  0  0  0  0  0  0  0
  120.0942   14.4641   46.3004 C   0  0  0  0  0  0  0  0  0  0  0  0
  119.7739   14.8867   44.0355 C   0  0  0  0  0  0  0  0  0  0  0  0
  121.1318   15.0443   43.8898 C   0  0  0  0  0  0  0  0  0  0  0  0
  121.9673   14.9062   44.9713 C   0  0  0  0  0  0  0  0  0  0  0  0
  121.4672   14.6024   46.1973 C   0  0  0  0  0  0  0  0  0  0  0  0
  117.3210   13.3482   45.8157 N   0  0  0  0  0  0  0  0  0  0  0  0
  117.8082   14.5239   45.3841 C   0  0  0  0  0  0  0  0  0  0  0  0
  117.0710   15.3945   45.0067 O   0  0  0  0  0  0  0  0  0  0  0  0
  117.9654   12.6440   46.0567 H   0  0  0  0  0  0  0  0  0  0  0  0
  115.6443   11.8609   46.8139 C   0  0  0  0  0  0  0  0  0  0  0  0
  114.2077   11.5037   46.9678 C   0  0  0  0  0  0  0  0  0  0  0  0
  113.6433   12.4089   48.0205 C   0  0  0  0  0  0  0  0  0  0  0  0
  114.1433   10.0801   47.5296 C   0  0  0  0  0  0  0  0  0  0  0  0
  113.3410   11.7807   45.8243 N   0  0  0  0  0  0  0  0  0  0  0  0
  112.5337   10.8560   45.5326 O   0  0  0  0  0  0  0  0  0  0  0  0
  113.8742   12.5781   44.6905 C   0  0  0  0  0  0  0  0  0  0  0  0
  113.3119   13.9492   44.9136 C   0  0  0  0  0  0  0  0  0  0  0  0
  113.4173   12.0937   43.3167 C   0  0  0  0  0  0  0  0  0  0  0  0
  115.3410   12.7169   44.6589 C   0  0  0  0  0  0  0  0  0  0  0  0
  115.8903   13.0446   45.9515 C   0  0  0  0  0  0  0  0  0  0  0  0
  112.0007   11.1217   44.7670 H   0  0  0  0  0  0  0  0  0  0  0  0
  122.2393   14.4764   47.2753 N   0  0  0  0  0  0  0  0  0  0  0  0
  121.9555   13.7967   47.9286 H   0  0  0  0  0  0  0  0  0  0  0  0
  123.3421   15.1488   47.5831 C   0  0  0  0  0  0  0  0  0  0  0  0
  123.8295   15.8245   49.0628 S   0  0  0  0  0  0  0  0  0  0  0  0
  124.3017   15.4374   46.7163 N   0  0  0  0  0  0  0  0  0  0  0  0
  125.3257   16.1249   47.2218 C   0  0  0  0  0  0  0  0  0  0  0  0
  125.2214   16.4559   48.5113 C   0  0  0  0  0  0  0  0  0  0  0  0
  126.1110   17.1258   49.2801 C   0  0  0  0  0  0  0  0  0  0  0  0
  125.6513   17.7402   50.1914 O   0  0  0  0  0  0  0  0  0  0  0  0
  127.4400   17.0399   49.0492 N   0  0  0  0  0  0  0  0  0  0  0  0
  127.7703   16.4910   48.3016 H   0  0  0  0  0  0  0  0  0  0  0  0
  128.3057   17.6895   49.8218 C   0  0  0  0  0  0  0  0  0  0  0  0
  128.7661   17.0634   50.9569 C   0  0  0  0  0  0  0  0  0  0  0  0
  128.3216   15.5590   51.3284 Cl  0  0  0  0  0  0  0  0  0  0  0  0
  129.6698   17.6852   51.8056 C   0  0  0  0  0  0  0  0  0  0  0  0
  130.1044   18.9617   51.5226 C   0  0  0  0  0  0  0  0  0  0  0  0
  129.6268   19.5713   50.3745 C   0  0  0  0  0  0  0  0  0  0  0  0
  128.7261   18.9875   49.5095 C   0  0  0  0  0  0  0  0  0  0  0  0
  128.2888   19.7045   48.3806 C   0  0  0  0  0  0  0  0  0  0  0  0
 18 17  1  0  0  0
 13 12  1  0  0  0
 19 17  1  0  0  0
 16 15  1  0  0  0
 17 15  1  0  0  0
 17 20  1  0  0  0
 15 12  1  0  0  0
  9  8  2  0  0  0
 12 14  1  0  0  0
 12 11  1  0  0  0
 20 21  1  0  0  0
 21 11  1  0  0  0
 21  7  1  0  0  0
  8  7  1  0  0  0
  8  1  1  0  0  0
  2  1  2  0  0  0
  2  6  1  0  0  0
  1  3  1  0  0  0
 23  6  1  0  0  0
 23 25  1  0  0  0
  6  5  2  0  0  0
 27 25  2  0  0  0
 27 28  1  0  0  0
 25 26  1  0  0  0
  3  4  2  0  0  0
 28 29  2  0  0  0
  5  4  1  0  0  0
 26 29  1  0  0  0
 29 30  1  0  0  0
 32 30  1  0  0  0
 32 34  1  0  0  0
 30 31  2  0  0  0
 41 40  1  0  0  0
 34 40  2  0  0  0
 34 35  1  0  0  0
 40 39  1  0  0  0
 36 35  1  0  0  0
 35 37  2  0  0  0
 39 38  2  0  0  0
 37 38  1  0  0  0
 16 22  1  0  0  0
  7 10  1  0  0  0
 23 24  1  0  0  0
 32 33  1  0  0  0
M  END
> <minimizedAffinity>
-8.59855

$$$$
5NK8_90Z_A_1001


 41 44  0  0  0  0  0  0  0  0999 V2000
  118.5732   14.2748   46.7351 C   0  0  0  0  0  0  0  0  0  0  0  0
  119.9509   14.1148   46.7204 C   0  0  0  0  0  0  0  0  0  0  0  0
  118.0530   14.8385   47.8540 C   0  0  0  0  0  0  0  0  0  0  0  0
  118.8455   15.1954   48.9192 C   0  0  0  0  0  0  0  0  0  0  0  0
  120.2047   15.0043   48.8686 C   0  0  0  0  0  0  0  0  0  0  0  0
  120.7875   14.4700   47.7639 C   0  0  0  0  0  0  0  0  0  0  0  0
  118.3329   13.5918   44.5033 N   0  0  0  0  0  0  0  0  0  0  0  0
  117.7344   13.8473   45.6791 C   0  0  0  0  0  0  0  0  0  0  0  0
  116.5364   13.8496   45.7724 O   0  0  0  0  0  0  0  0  0  0  0  0
  119.3140   13.6616   44.4619 H   0  0  0  0  0  0  0  0  0  0  0  0
  117.6902   11.7563   43.0074 C   0  0  0  0  0  0  0  0  0  0  0  0
  116.9950   11.3286   41.7629 C   0  0  0  0  0  0  0  0  0  0  0  0
  115.5379   11.2141   42.0943 C   0  0  0  0  0  0  0  0  0  0  0  0
  117.4824    9.9165   41.4236 C   0  0  0  0  0  0  0  0  0  0  0  0
  116.9869   12.2858   40.6588 N   0  0  0  0  0  0  0  0  0  0  0  0
  117.2405   11.7926   39.5255 O   0  0  0  0  0  0  0  0  0  0  0  0
  117.4635   13.6714   40.9009 C   0  0  0  0  0  0  0  0  0  0  0  0
  116.2033   14.4692   41.0474 C   0  0  0  0  0  0  0  0  0  0  0  0
  118.2714   14.2645   39.7493 C   0  0  0  0  0  0  0  0  0  0  0  0
  118.2357   13.8592   42.1419 C   0  0  0  0  0  0  0  0  0  0  0  0
  117.6195   13.2152   43.2758 C   0  0  0  0  0  0  0  0  0  0  0  0
  117.2145   12.4930   38.8549 H   0  0  0  0  0  0  0  0  0  0  0  0
  122.0987   14.2518   47.6796 N   0  0  0  0  0  0  0  0  0  0  0  0
  122.3655   13.3431   47.4105 H   0  0  0  0  0  0  0  0  0  0  0  0
  123.0928   15.1010   47.9116 C   0  0  0  0  0  0  0  0  0  0  0  0
  124.0122   15.3446   49.3183 S   0  0  0  0  0  0  0  0  0  0  0  0
  123.5481   15.9714   47.0225 N   0  0  0  0  0  0  0  0  0  0  0  0
  124.5494   16.7395   47.4518 C   0  0  0  0  0  0  0  0  0  0  0  0
  124.9226   16.5502   48.7199 C   0  0  0  0  0  0  0  0  0  0  0  0
  125.9138   17.1674   49.4038 C   0  0  0  0  0  0  0  0  0  0  0  0
  125.5801   17.7568   50.3839 O   0  0  0  0  0  0  0  0  0  0  0  0
  127.2043   17.0581   49.0170 N   0  0  0  0  0  0  0  0  0  0  0  0
  127.4303   16.5310   48.2168 H   0  0  0  0  0  0  0  0  0  0  0  0
  128.1717   17.6554   49.7067 C   0  0  0  0  0  0  0  0  0  0  0  0
  128.7963   16.9451   50.7055 C   0  0  0  0  0  0  0  0  0  0  0  0
  128.4170   15.4081   51.0100 Cl  0  0  0  0  0  0  0  0  0  0  0  0
  129.8126   17.5091   51.4623 C   0  0  0  0  0  0  0  0  0  0  0  0
  130.1960   18.8115   51.2273 C   0  0  0  0  0  0  0  0  0  0  0  0
  129.5525   19.5061   50.2167 C   0  0  0  0  0  0  0  0  0  0  0  0
  128.5367   18.9814   49.4466 C   0  0  0  0  0  0  0  0  0  0  0  0
  127.9355   19.7822   48.4582 C   0  0  0  0  0  0  0  0  0  0  0  0
 18 17  1  0  0  0
 13 12  1  0  0  0
 19 17  1  0  0  0
 16 15  1  0  0  0
 17 15  1  0  0  0
 17 20  1  0  0  0
 15 12  1  0  0  0
  9  8  2  0  0  0
 12 14  1  0  0  0
 12 11  1  0  0  0
 20 21  1  0  0  0
 21 11  1  0  0  0
 21  7  1  0  0  0
  8  7  1  0  0  0
  8  1  1  0  0  0
  2  1  2  0  0  0
  2  6  1  0  0  0
  1  3  1  0  0  0
 23  6  1  0  0  0
 23 25  1  0  0  0
  6  5  2  0  0  0
 27 25  2  0  0  0
 27 28  1  0  0  0
 25 26  1  0  0  0
  3  4  2  0  0  0
 28 29  2  0  0  0
  5  4  1  0  0  0
 26 29  1  0  0  0
 29 30  1  0  0  0
 32 30  1  0  0  0
 32 34  1  0  0  0
 30 31  2  0  0  0
 41 40  1  0  0  0
 34 40  2  0  0  0
 34 35  1  0  0  0
 40 39  1  0  0  0
 36 35  1  0  0  0
 35 37  2  0  0  0
 39 38  2  0  0  0
 37 38  1  0  0  0
 16 22  1  0  0  0
  7 10  1  0  0  0
 23 24  1  0  0  0
 32 33  1  0  0  0
M  END
> <minimizedAffinity>
-8.55198

$$$$
5NK8_90Z_A_1001


 41 44  0  0  0  0  0  0  0  0999 V2000
  118.9803   14.4905   45.4351 C   0  0  0  0  0  0  0  0  0  0  0  0
  119.9821   14.3030   46.3758 C   0  0  0  0  0  0  0  0  0  0  0  0
  119.3869   14.9071   44.2097 C   0  0  0  0  0  0  0  0  0  0  0  0
  120.7099   15.1593   43.9342 C   0  0  0  0  0  0  0  0  0  0  0  0
  121.6682   14.9755   44.9009 C   0  0  0  0  0  0  0  0  0  0  0  0
  121.3259   14.5330   46.1389 C   0  0  0  0  0  0  0  0  0  0  0  0
  117.3099   13.7810   46.9223 N   0  0  0  0  0  0  0  0  0  0  0  0
  117.6071   14.3060   45.7215 C   0  0  0  0  0  0  0  0  0  0  0  0
  116.7529   14.4679   44.8920 O   0  0  0  0  0  0  0  0  0  0  0  0
  118.0522   13.6104   47.5461 H   0  0  0  0  0  0  0  0  0  0  0  0
  115.7035   13.8384   48.7759 C   0  0  0  0  0  0  0  0  0  0  0  0
  114.3426   13.5021   49.2759 C   0  0  0  0  0  0  0  0  0  0  0  0
  113.4218   14.5825   48.7955 C   0  0  0  0  0  0  0  0  0  0  0  0
  114.3753   13.5978   50.8044 C   0  0  0  0  0  0  0  0  0  0  0  0
  113.7237   12.2994   48.7227 N   0  0  0  0  0  0  0  0  0  0  0  0
  113.1568   11.5554   49.5695 O   0  0  0  0  0  0  0  0  0  0  0  0
  114.3682   11.6207   47.5696 C   0  0  0  0  0  0  0  0  0  0  0  0
  113.5639   12.0694   46.3873 C   0  0  0  0  0  0  0  0  0  0  0  0
  114.3137   10.0963   47.6317 C   0  0  0  0  0  0  0  0  0  0  0  0
  115.7645   12.0156   47.3123 C   0  0  0  0  0  0  0  0  0  0  0  0
  115.9505   13.4448   47.3654 C   0  0  0  0  0  0  0  0  0  0  0  0
  112.7754   10.7854   49.1195 H   0  0  0  0  0  0  0  0  0  0  0  0
  122.2204   14.3578   47.1102 N   0  0  0  0  0  0  0  0  0  0  0  0
  122.0973   13.5548   47.6662 H   0  0  0  0  0  0  0  0  0  0  0  0
  123.2565   15.1259   47.4256 C   0  0  0  0  0  0  0  0  0  0  0  0
  123.9548   15.4460   48.9400 S   0  0  0  0  0  0  0  0  0  0  0  0
  123.9516   15.8323   46.5463 N   0  0  0  0  0  0  0  0  0  0  0  0
  124.9529   16.5436   47.0645 C   0  0  0  0  0  0  0  0  0  0  0  0
  125.0876   16.4736   48.3913 C   0  0  0  0  0  0  0  0  0  0  0  0
  126.0193   17.0678   49.1724 C   0  0  0  0  0  0  0  0  0  0  0  0
  125.6145   17.5679   50.1751 O   0  0  0  0  0  0  0  0  0  0  0  0
  127.3310   17.0310   48.8484 N   0  0  0  0  0  0  0  0  0  0  0  0
  127.6168   16.5754   48.0238 H   0  0  0  0  0  0  0  0  0  0  0  0
  128.2393   17.6041   49.6326 C   0  0  0  0  0  0  0  0  0  0  0  0
  128.7831   16.8605   50.6542 C   0  0  0  0  0  0  0  0  0  0  0  0
  128.3828   15.3148   50.8767 Cl  0  0  0  0  0  0  0  0  0  0  0  0
  129.7347   17.3981   51.5080 C   0  0  0  0  0  0  0  0  0  0  0  0
  130.1339   18.7070   51.3475 C   0  0  0  0  0  0  0  0  0  0  0  0
  129.5722   19.4353   50.3121 C   0  0  0  0  0  0  0  0  0  0  0  0
  128.6220   18.9375   49.4464 C   0  0  0  0  0  0  0  0  0  0  0  0
  128.1006   19.7711   48.4399 C   0  0  0  0  0  0  0  0  0  0  0  0
 18 17  1  0  0  0
 13 12  1  0  0  0
 19 17  1  0  0  0
 16 15  1  0  0  0
 17 15  1  0  0  0
 17 20  1  0  0  0
 15 12  1  0  0  0
  9  8  2  0  0  0
 12 14  1  0  0  0
 12 11  1  0  0  0
 20 21  1  0  0  0
 21 11  1  0  0  0
 21  7  1  0  0  0
  8  7  1  0  0  0
  8  1  1  0  0  0
  2  1  2  0  0  0
  2  6  1  0  0  0
  1  3  1  0  0  0
 23  6  1  0  0  0
 23 25  1  0  0  0
  6  5  2  0  0  0
 27 25  2  0  0  0
 27 28  1  0  0  0
 25 26  1  0  0  0
  3  4  2  0  0  0
 28 29  2  0  0  0
  5  4  1  0  0  0
 26 29  1  0  0  0
 29 30  1  0  0  0
 32 30  1  0  0  0
 32 34  1  0  0  0
 30 31  2  0  0  0
 41 40  1  0  0  0
 34 40  2  0  0  0
 34 35  1  0  0  0
 40 39  1  0  0  0
 36 35  1  0  0  0
 35 37  2  0  0  0
 39 38  2  0  0  0
 37 38  1  0  0  0
 16 22  1  0  0  0
  7 10  1  0  0  0
 23 24  1  0  0  0
 32 33  1  0  0  0
M  END
> <minimizedAffinity>
-8.39062

$$$$
