3T1M_DQT_A_1


 34 36  0  0  0  0  0  0  0  0999 V2000
   20.1228   -9.1125   -1.3551 C   0  0  0  0  0  0  0  0  0  0  0  0
   18.6590   -9.4570   -1.0858 C   0  0  0  0  0  0  0  0  0  0  0  0
   17.7170   -8.2572   -1.1520 C   0  0  0  0  0  0  0  0  0  0  0  0
   18.3374   -7.0085   -0.5252 C   0  0  0  0  0  0  0  0  0  0  0  0
   18.1821   -7.0877    0.8974 O   0  0  0  0  0  0  0  0  0  0  0  0
   19.8114   -6.8225   -0.8792 C   0  0  0  0  0  0  0  0  0  0  0  0
   20.5402   -8.0067   -0.5562 O   0  0  0  0  0  0  0  0  0  0  0  0
   18.6546   -7.8663    1.2313 H   0  0  0  0  0  0  0  0  0  0  0  0
   16.5127   -8.5061   -0.3848 N   0  0  0  0  0  0  0  0  0  0  0  0
   15.2776   -8.6534   -0.8705 C   0  0  0  0  0  0  0  0  0  0  0  0
   15.0550   -8.7392   -2.0700 O   0  0  0  0  0  0  0  0  0  0  0  0
   16.6155   -8.5734    0.5920 H   0  0  0  0  0  0  0  0  0  0  0  0
   14.1149   -8.6493    0.0970 C   0  0  0  0  0  0  0  0  0  0  0  0
   12.8039   -8.7928   -0.3712 C   0  0  0  0  0  0  0  0  0  0  0  0
   11.7297   -8.8007    0.5111 C   0  0  0  0  0  0  0  0  0  0  0  0
   11.9458   -8.6715    1.8761 C   0  0  0  0  0  0  0  0  0  0  0  0
   13.2469   -8.5337    2.3575 C   0  0  0  0  0  0  0  0  0  0  0  0
   14.3270   -8.5255    1.4725 C   0  0  0  0  0  0  0  0  0  0  0  0
   10.7667   -8.6866    2.8141 C   0  0  0  0  0  0  0  0  0  0  0  0
   20.4373   -5.6510   -0.1286 C   0  0  0  0  0  0  0  0  0  0  0  0
   21.8002   -5.4915   -0.5176 O   0  0  0  0  0  0  0  0  0  0  0  0
   22.2934   -6.2997   -0.3065 H   0  0  0  0  0  0  0  0  0  0  0  0
   20.9656  -10.2155   -1.0242 O   0  0  0  0  0  0  0  0  0  0  0  0
   22.1944   -9.7738   -0.4483 C   0  0  0  0  0  0  0  0  0  0  0  0
   18.6070   -9.9924    0.2296 O   0  0  0  0  0  0  0  0  0  0  0  0
   18.1919  -11.3504    0.3773 C   0  0  0  0  0  0  0  0  0  0  0  0
   18.2134  -12.1364   -0.5628 O   0  0  0  0  0  0  0  0  0  0  0  0
   17.7390  -11.7664    1.7436 C   0  0  0  0  0  0  0  0  0  0  0  0
   16.8246  -11.0033    2.4697 C   0  0  0  0  0  0  0  0  0  0  0  0
   16.4264  -11.4242    3.7364 C   0  0  0  0  0  0  0  0  0  0  0  0
   16.9395  -12.6035    4.2722 C   0  0  0  0  0  0  0  0  0  0  0  0
   17.8490  -13.3608    3.5468 C   0  0  0  0  0  0  0  0  0  0  0  0
   18.2467  -12.9457    2.2842 C   0  0  0  0  0  0  0  0  0  0  0  0
   16.5214  -13.0731    5.6381 C   0  0  0  0  0  0  0  0  0  0  0  0
  1 23  1  0  0  0
  1  2  1  0  0  0
  1  7  1  0  0  0
 23 24  1  0  0  0
  2 25  1  0  0  0
  2  3  1  0  0  0
 25 26  1  0  0  0
  3  9  1  0  0  0
  3  4  1  0  0  0
  9 10  1  0  0  0
  4  5  1  0  0  0
  4  6  1  0  0  0
  6  7  1  0  0  0
  6 20  1  0  0  0
 20 21  1  0  0  0
 26 27  2  0  0  0
 26 28  1  0  0  0
 28 29  2  0  0  0
 28 33  1  0  0  0
 29 30  1  0  0  0
 30 31  2  0  0  0
 31 32  1  0  0  0
 31 34  1  0  0  0
 32 33  2  0  0  0
 10 11  2  0  0  0
 10 13  1  0  0  0
 13 14  2  0  0  0
 13 18  1  0  0  0
 14 15  1  0  0  0
 15 16  2  0  0  0
 16 17  1  0  0  0
 16 19  1  0  0  0
 17 18  2  0  0  0
  9 12  1  0  0  0
  5  8  1  0  0  0
 21 22  1  0  0  0
M  END
> <minimizedAffinity>
-8.14742

$$$$
3T1M_DQT_A_1


 34 36  0  0  0  0  0  0  0  0999 V2000
   20.4965   -9.5119   -0.7931 C   0  0  0  0  0  0  0  0  0  0  0  0
   18.9938   -9.5535   -1.0650 C   0  0  0  0  0  0  0  0  0  0  0  0
   18.4690   -8.3441   -1.8349 C   0  0  0  0  0  0  0  0  0  0  0  0
   19.1279   -7.0438   -1.3745 C   0  0  0  0  0  0  0  0  0  0  0  0
   18.4748   -6.6010   -0.1780 O   0  0  0  0  0  0  0  0  0  0  0  0
   20.6291   -7.1801   -1.1290 C   0  0  0  0  0  0  0  0  0  0  0  0
   20.8764   -8.2587   -0.2271 O   0  0  0  0  0  0  0  0  0  0  0  0
   18.5892   -7.2667    0.5181 H   0  0  0  0  0  0  0  0  0  0  0  0
   17.0523   -8.1557   -1.5930 N   0  0  0  0  0  0  0  0  0  0  0  0
   16.1357   -7.7837   -2.4900 C   0  0  0  0  0  0  0  0  0  0  0  0
   16.3880   -7.7019   -3.6839 O   0  0  0  0  0  0  0  0  0  0  0  0
   16.7340   -8.3182   -0.6757 H   0  0  0  0  0  0  0  0  0  0  0  0
   14.7603   -7.3912   -1.9981 C   0  0  0  0  0  0  0  0  0  0  0  0
   14.0542   -6.3564   -2.6220 C   0  0  0  0  0  0  0  0  0  0  0  0
   12.7853   -5.9952   -2.1837 C   0  0  0  0  0  0  0  0  0  0  0  0
   12.1970   -6.6645   -1.1194 C   0  0  0  0  0  0  0  0  0  0  0  0
   12.8862   -7.7013   -0.4921 C   0  0  0  0  0  0  0  0  0  0  0  0
   14.1609   -8.0652   -0.9311 C   0  0  0  0  0  0  0  0  0  0  0  0
   10.8193   -6.2585   -0.6640 C   0  0  0  0  0  0  0  0  0  0  0  0
   21.2307   -5.9090   -0.5375 C   0  0  0  0  0  0  0  0  0  0  0  0
   20.8995   -5.8076    0.8461 O   0  0  0  0  0  0  0  0  0  0  0  0
   19.9352   -5.7752    0.9462 H   0  0  0  0  0  0  0  0  0  0  0  0
   20.8645  -10.5266    0.1404 O   0  0  0  0  0  0  0  0  0  0  0  0
   21.2045  -11.7430   -0.5241 C   0  0  0  0  0  0  0  0  0  0  0  0
   18.3558   -9.5847    0.2045 O   0  0  0  0  0  0  0  0  0  0  0  0
   17.3434  -10.5693    0.4144 C   0  0  0  0  0  0  0  0  0  0  0  0
   16.4871  -10.8028   -0.4307 O   0  0  0  0  0  0  0  0  0  0  0  0
   17.3894  -11.3087    1.7167 C   0  0  0  0  0  0  0  0  0  0  0  0
   16.4638  -11.0555    2.7290 C   0  0  0  0  0  0  0  0  0  0  0  0
   16.5381  -11.7650    3.9254 C   0  0  0  0  0  0  0  0  0  0  0  0
   17.5325  -12.7240    4.1063 C   0  0  0  0  0  0  0  0  0  0  0  0
   18.4518  -12.9739    3.0966 C   0  0  0  0  0  0  0  0  0  0  0  0
   18.3799  -12.2704    1.9030 C   0  0  0  0  0  0  0  0  0  0  0  0
   17.6283  -13.4993    5.3911 C   0  0  0  0  0  0  0  0  0  0  0  0
  1 23  1  0  0  0
  1  2  1  0  0  0
  1  7  1  0  0  0
 23 24  1  0  0  0
  2 25  1  0  0  0
  2  3  1  0  0  0
 25 26  1  0  0  0
  3  9  1  0  0  0
  3  4  1  0  0  0
  9 10  1  0  0  0
  4  5  1  0  0  0
  4  6  1  0  0  0
  6  7  1  0  0  0
  6 20  1  0  0  0
 20 21  1  0  0  0
 26 27  2  0  0  0
 26 28  1  0  0  0
 28 29  2  0  0  0
 28 33  1  0  0  0
 29 30  1  0  0  0
 30 31  2  0  0  0
 31 32  1  0  0  0
 31 34  1  0  0  0
 32 33  2  0  0  0
 10 11  2  0  0  0
 10 13  1  0  0  0
 13 14  2  0  0  0
 13 18  1  0  0  0
 14 15  1  0  0  0
 15 16  2  0  0  0
 16 17  1  0  0  0
 16 19  1  0  0  0
 17 18  2  0  0  0
  9 12  1  0  0  0
  5  8  1  0  0  0
 21 22  1  0  0  0
M  END
> <minimizedAffinity>
-6.98603

$$$$
3T1M_DQT_A_1


 34 36  0  0  0  0  0  0  0  0999 V2000
   15.5206   -9.0319    1.0197 C   0  0  0  0  0  0  0  0  0  0  0  0
   16.6249   -9.9289    1.5763 C   0  0  0  0  0  0  0  0  0  0  0  0
   17.6067  -10.4317    0.5207 C   0  0  0  0  0  0  0  0  0  0  0  0
   16.9019  -10.8050   -0.7835 C   0  0  0  0  0  0  0  0  0  0  0  0
   16.3416  -12.1162   -0.6393 O   0  0  0  0  0  0  0  0  0  0  0  0
   15.8122   -9.8140   -1.1873 C   0  0  0  0  0  0  0  0  0  0  0  0
   14.8933   -9.6385   -0.1090 O   0  0  0  0  0  0  0  0  0  0  0  0
   15.6847  -12.1105    0.0744 H   0  0  0  0  0  0  0  0  0  0  0  0
   18.2559  -11.6505    0.9612 N   0  0  0  0  0  0  0  0  0  0  0  0
   19.5655  -11.9090    0.9301 C   0  0  0  0  0  0  0  0  0  0  0  0
   20.3923  -11.0528    0.6490 O   0  0  0  0  0  0  0  0  0  0  0  0
   17.6729  -12.3584    1.3192 H   0  0  0  0  0  0  0  0  0  0  0  0
   20.0293  -13.3251    1.1900 C   0  0  0  0  0  0  0  0  0  0  0  0
   20.9989  -13.5845    2.1653 C   0  0  0  0  0  0  0  0  0  0  0  0
   21.4240  -14.8837    2.4186 C   0  0  0  0  0  0  0  0  0  0  0  0
   20.8845  -15.9465    1.7073 C   0  0  0  0  0  0  0  0  0  0  0  0
   19.9135  -15.7037    0.7368 C   0  0  0  0  0  0  0  0  0  0  0  0
   19.4855  -14.3994    0.4811 C   0  0  0  0  0  0  0  0  0  0  0  0
   21.3576  -17.3465    2.0015 C   0  0  0  0  0  0  0  0  0  0  0  0
   15.0342  -10.2856   -2.4121 C   0  0  0  0  0  0  0  0  0  0  0  0
   13.9603  -11.1353   -2.0135 O   0  0  0  0  0  0  0  0  0  0  0  0
   14.3155  -11.9094   -1.5494 H   0  0  0  0  0  0  0  0  0  0  0  0
   14.5078   -8.8170    2.0018 O   0  0  0  0  0  0  0  0  0  0  0  0
   13.2632   -8.4709    1.3951 C   0  0  0  0  0  0  0  0  0  0  0  0
   15.9768  -11.0539    2.1539 O   0  0  0  0  0  0  0  0  0  0  0  0
   16.3558  -11.4309    3.4777 C   0  0  0  0  0  0  0  0  0  0  0  0
   16.2541  -10.6564    4.4220 O   0  0  0  0  0  0  0  0  0  0  0  0
   16.8742  -12.8256    3.6533 C   0  0  0  0  0  0  0  0  0  0  0  0
   16.3505  -13.8928    2.9235 C   0  0  0  0  0  0  0  0  0  0  0  0
   16.8603  -15.1750    3.1136 C   0  0  0  0  0  0  0  0  0  0  0  0
   17.8899  -15.3872    4.0279 C   0  0  0  0  0  0  0  0  0  0  0  0
   18.4092  -14.3230    4.7522 C   0  0  0  0  0  0  0  0  0  0  0  0
   17.9052  -13.0442    4.5644 C   0  0  0  0  0  0  0  0  0  0  0  0
   18.4523  -16.7646    4.2464 C   0  0  0  0  0  0  0  0  0  0  0  0
  1 23  1  0  0  0
  1  2  1  0  0  0
  1  7  1  0  0  0
 23 24  1  0  0  0
  2 25  1  0  0  0
  2  3  1  0  0  0
 25 26  1  0  0  0
  3  9  1  0  0  0
  3  4  1  0  0  0
  9 10  1  0  0  0
  4  5  1  0  0  0
  4  6  1  0  0  0
  6  7  1  0  0  0
  6 20  1  0  0  0
 20 21  1  0  0  0
 26 27  2  0  0  0
 26 28  1  0  0  0
 28 29  2  0  0  0
 28 33  1  0  0  0
 29 30  1  0  0  0
 30 31  2  0  0  0
 31 32  1  0  0  0
 31 34  1  0  0  0
 32 33  2  0  0  0
 10 11  2  0  0  0
 10 13  1  0  0  0
 13 14  2  0  0  0
 13 18  1  0  0  0
 14 15  1  0  0  0
 15 16  2  0  0  0
 16 17  1  0  0  0
 16 19  1  0  0  0
 17 18  2  0  0  0
  9 12  1  0  0  0
  5  8  1  0  0  0
 21 22  1  0  0  0
M  END
> <minimizedAffinity>
-6.92124

$$$$
3T1M_DQT_A_1


 34 36  0  0  0  0  0  0  0  0999 V2000
   16.5623  -10.3642   -1.5708 C   0  0  0  0  0  0  0  0  0  0  0  0
   15.4769   -9.6428   -2.3679 C   0  0  0  0  0  0  0  0  0  0  0  0
   15.9500   -8.3528   -3.0335 C   0  0  0  0  0  0  0  0  0  0  0  0
   16.8937   -7.5573   -2.1315 C   0  0  0  0  0  0  0  0  0  0  0  0
   16.1071   -6.8164   -1.1899 O   0  0  0  0  0  0  0  0  0  0  0  0
   17.9044   -8.4318   -1.3924 C   0  0  0  0  0  0  0  0  0  0  0  0
   17.2226   -9.4650   -0.6815 O   0  0  0  0  0  0  0  0  0  0  0  0
   15.5998   -7.4315   -0.6376 H   0  0  0  0  0  0  0  0  0  0  0  0
   14.8325   -7.4652   -3.2870 N   0  0  0  0  0  0  0  0  0  0  0  0
   14.7467   -6.5533   -4.2587 C   0  0  0  0  0  0  0  0  0  0  0  0
   15.5767   -6.4745   -5.1534 O   0  0  0  0  0  0  0  0  0  0  0  0
   14.0594   -7.5422   -2.6822 H   0  0  0  0  0  0  0  0  0  0  0  0
   13.6177   -5.5479   -4.2090 C   0  0  0  0  0  0  0  0  0  0  0  0
   12.5006   -5.6965   -5.0389 C   0  0  0  0  0  0  0  0  0  0  0  0
   11.4533   -4.7833   -4.9931 C   0  0  0  0  0  0  0  0  0  0  0  0
   11.5002   -3.7100   -4.1143 C   0  0  0  0  0  0  0  0  0  0  0  0
   12.6041   -3.5525   -3.2775 C   0  0  0  0  0  0  0  0  0  0  0  0
   13.6569   -4.4688   -3.3224 C   0  0  0  0  0  0  0  0  0  0  0  0
   10.3519   -2.7350   -4.0793 C   0  0  0  0  0  0  0  0  0  0  0  0
   18.7364   -7.6292   -0.3967 C   0  0  0  0  0  0  0  0  0  0  0  0
   18.0081   -7.4466    0.8159 O   0  0  0  0  0  0  0  0  0  0  0  0
   17.1875   -6.9638    0.6307 H   0  0  0  0  0  0  0  0  0  0  0  0
   15.9922  -11.4031   -0.7756 O   0  0  0  0  0  0  0  0  0  0  0  0
   17.0021  -12.1496   -0.0976 C   0  0  0  0  0  0  0  0  0  0  0  0
   14.4485   -9.3160   -1.4432 O   0  0  0  0  0  0  0  0  0  0  0  0
   13.1067   -9.6515   -1.7971 C   0  0  0  0  0  0  0  0  0  0  0  0
   12.7841  -10.7982   -2.0856 O   0  0  0  0  0  0  0  0  0  0  0  0
   12.1123   -8.5309   -1.7870 C   0  0  0  0  0  0  0  0  0  0  0  0
   11.0589   -8.4859   -2.7003 C   0  0  0  0  0  0  0  0  0  0  0  0
   10.1535   -7.4282   -2.6579 C   0  0  0  0  0  0  0  0  0  0  0  0
   10.3010   -6.4222   -1.7054 C   0  0  0  0  0  0  0  0  0  0  0  0
   11.3501   -6.4702   -0.7977 C   0  0  0  0  0  0  0  0  0  0  0  0
   12.2529   -7.5229   -0.8357 C   0  0  0  0  0  0  0  0  0  0  0  0
    9.3335   -5.2727   -1.6451 C   0  0  0  0  0  0  0  0  0  0  0  0
  1 23  1  0  0  0
  1  2  1  0  0  0
  1  7  1  0  0  0
 23 24  1  0  0  0
  2 25  1  0  0  0
  2  3  1  0  0  0
 25 26  1  0  0  0
  3  9  1  0  0  0
  3  4  1  0  0  0
  9 10  1  0  0  0
  4  5  1  0  0  0
  4  6  1  0  0  0
  6  7  1  0  0  0
  6 20  1  0  0  0
 20 21  1  0  0  0
 26 27  2  0  0  0
 26 28  1  0  0  0
 28 29  2  0  0  0
 28 33  1  0  0  0
 29 30  1  0  0  0
 30 31  2  0  0  0
 31 32  1  0  0  0
 31 34  1  0  0  0
 32 33  2  0  0  0
 10 11  2  0  0  0
 10 13  1  0  0  0
 13 14  2  0  0  0
 13 18  1  0  0  0
 14 15  1  0  0  0
 15 16  2  0  0  0
 16 17  1  0  0  0
 16 19  1  0  0  0
 17 18  2  0  0  0
  9 12  1  0  0  0
  5  8  1  0  0  0
 21 22  1  0  0  0
M  END
> <minimizedAffinity>
-6.36573

$$$$
3T1M_DQT_A_1


 34 36  0  0  0  0  0  0  0  0999 V2000
   16.1359   -9.8025    0.3905 C   0  0  0  0  0  0  0  0  0  0  0  0
   14.9615   -9.1984   -0.3774 C   0  0  0  0  0  0  0  0  0  0  0  0
   15.3360   -8.6481   -1.7514 C   0  0  0  0  0  0  0  0  0  0  0  0
   16.6867   -7.9325   -1.7315 C   0  0  0  0  0  0  0  0  0  0  0  0
   16.4926   -6.6070   -1.2222 O   0  0  0  0  0  0  0  0  0  0  0  0
   17.7443   -8.6594   -0.9033 C   0  0  0  0  0  0  0  0  0  0  0  0
   17.2452   -8.9055    0.4112 O   0  0  0  0  0  0  0  0  0  0  0  0
   16.1571   -6.6557   -0.3134 H   0  0  0  0  0  0  0  0  0  0  0  0
   14.3830   -7.6438   -2.1803 N   0  0  0  0  0  0  0  0  0  0  0  0
   14.0721   -7.3303   -3.4405 C   0  0  0  0  0  0  0  0  0  0  0  0
   14.4714   -7.9860   -4.3925 O   0  0  0  0  0  0  0  0  0  0  0  0
   13.9184   -7.1426   -1.4716 H   0  0  0  0  0  0  0  0  0  0  0  0
   13.2513   -6.0854   -3.6945 C   0  0  0  0  0  0  0  0  0  0  0  0
   12.0110   -6.1743   -4.3367 C   0  0  0  0  0  0  0  0  0  0  0  0
   11.2446   -5.0372   -4.5653 C   0  0  0  0  0  0  0  0  0  0  0  0
   11.7001   -3.7930   -4.1517 C   0  0  0  0  0  0  0  0  0  0  0  0
   12.9311   -3.6900   -3.5054 C   0  0  0  0  0  0  0  0  0  0  0  0
   13.7021   -4.8312   -3.2751 C   0  0  0  0  0  0  0  0  0  0  0  0
   10.8508   -2.5747   -4.4066 C   0  0  0  0  0  0  0  0  0  0  0  0
   19.0343   -7.8531   -0.7865 C   0  0  0  0  0  0  0  0  0  0  0  0
   18.8797   -6.8186    0.1832 O   0  0  0  0  0  0  0  0  0  0  0  0
   18.1618   -6.2256   -0.0884 H   0  0  0  0  0  0  0  0  0  0  0  0
   15.7705  -10.0547    1.7467 O   0  0  0  0  0  0  0  0  0  0  0  0
   16.7580  -10.8419    2.4114 C   0  0  0  0  0  0  0  0  0  0  0  0
   14.4724   -8.1246    0.4146 O   0  0  0  0  0  0  0  0  0  0  0  0
   13.1742   -8.2636    0.9920 C   0  0  0  0  0  0  0  0  0  0  0  0
   13.0148   -8.7314    2.1135 O   0  0  0  0  0  0  0  0  0  0  0  0
   12.0186   -7.7981    0.1596 C   0  0  0  0  0  0  0  0  0  0  0  0
   11.8647   -6.4549   -0.1834 C   0  0  0  0  0  0  0  0  0  0  0  0
   10.7778   -6.0612   -0.9606 C   0  0  0  0  0  0  0  0  0  0  0  0
    9.8514   -7.0075   -1.3934 C   0  0  0  0  0  0  0  0  0  0  0  0
   10.0078   -8.3436   -1.0507 C   0  0  0  0  0  0  0  0  0  0  0  0
   11.0899   -8.7397   -0.2782 C   0  0  0  0  0  0  0  0  0  0  0  0
    8.6719   -6.6008   -2.2327 C   0  0  0  0  0  0  0  0  0  0  0  0
  1 23  1  0  0  0
  1  2  1  0  0  0
  1  7  1  0  0  0
 23 24  1  0  0  0
  2 25  1  0  0  0
  2  3  1  0  0  0
 25 26  1  0  0  0
  3  9  1  0  0  0
  3  4  1  0  0  0
  9 10  1  0  0  0
  4  5  1  0  0  0
  4  6  1  0  0  0
  6  7  1  0  0  0
  6 20  1  0  0  0
 20 21  1  0  0  0
 26 27  2  0  0  0
 26 28  1  0  0  0
 28 29  2  0  0  0
 28 33  1  0  0  0
 29 30  1  0  0  0
 30 31  2  0  0  0
 31 32  1  0  0  0
 31 34  1  0  0  0
 32 33  2  0  0  0
 10 11  2  0  0  0
 10 13  1  0  0  0
 13 14  2  0  0  0
 13 18  1  0  0  0
 14 15  1  0  0  0
 15 16  2  0  0  0
 16 17  1  0  0  0
 16 19  1  0  0  0
 17 18  2  0  0  0
  9 12  1  0  0  0
  5  8  1  0  0  0
 21 22  1  0  0  0
M  END
> <minimizedAffinity>
-6.27935

$$$$
3T1M_DQT_A_1


 34 36  0  0  0  0  0  0  0  0999 V2000
   19.7642   -9.8317   -0.7559 C   0  0  0  0  0  0  0  0  0  0  0  0
   18.3420   -9.6326   -1.2769 C   0  0  0  0  0  0  0  0  0  0  0  0
   18.1898   -8.4476   -2.2275 C   0  0  0  0  0  0  0  0  0  0  0  0
   19.0151   -7.2428   -1.7754 C   0  0  0  0  0  0  0  0  0  0  0  0
   18.2885   -6.5512   -0.7518 O   0  0  0  0  0  0  0  0  0  0  0  0
   20.4046   -7.6185   -1.2650 C   0  0  0  0  0  0  0  0  0  0  0  0
   20.2939   -8.6099   -0.2439 O   0  0  0  0  0  0  0  0  0  0  0  0
   18.1618   -7.1398    0.0087 H   0  0  0  0  0  0  0  0  0  0  0  0
   16.8184   -7.9789   -2.2497 N   0  0  0  0  0  0  0  0  0  0  0  0
   16.0992   -7.6775   -3.3336 C   0  0  0  0  0  0  0  0  0  0  0  0
   16.4964   -7.9144   -4.4658 O   0  0  0  0  0  0  0  0  0  0  0  0
   16.3726   -7.8721   -1.3784 H   0  0  0  0  0  0  0  0  0  0  0  0
   14.7791   -6.9624   -3.1496 C   0  0  0  0  0  0  0  0  0  0  0  0
   13.6903   -7.2626   -3.9760 C   0  0  0  0  0  0  0  0  0  0  0  0
   12.4700   -6.6181   -3.8079 C   0  0  0  0  0  0  0  0  0  0  0  0
   12.3138   -5.6676   -2.8086 C   0  0  0  0  0  0  0  0  0  0  0  0
   13.3881   -5.3626   -1.9740 C   0  0  0  0  0  0  0  0  0  0  0  0
   14.6144   -6.0089   -2.1416 C   0  0  0  0  0  0  0  0  0  0  0  0
   10.9810   -4.9846   -2.6424 C   0  0  0  0  0  0  0  0  0  0  0  0
   21.1487   -6.4164   -0.6916 C   0  0  0  0  0  0  0  0  0  0  0  0
   20.8615   -6.2795    0.6988 O   0  0  0  0  0  0  0  0  0  0  0  0
   19.9084   -6.1467    0.8205 H   0  0  0  0  0  0  0  0  0  0  0  0
   19.7781  -10.7789    0.3114 O   0  0  0  0  0  0  0  0  0  0  0  0
   20.8171  -11.7415    0.1360 C   0  0  0  0  0  0  0  0  0  0  0  0
   17.5252   -9.3980   -0.1380 O   0  0  0  0  0  0  0  0  0  0  0  0
   16.3691  -10.2186    0.0300 C   0  0  0  0  0  0  0  0  0  0  0  0
   16.4553  -11.4345    0.1578 O   0  0  0  0  0  0  0  0  0  0  0  0
   15.0467   -9.5146    0.0523 C   0  0  0  0  0  0  0  0  0  0  0  0
   14.0936   -9.7269   -0.9438 C   0  0  0  0  0  0  0  0  0  0  0  0
   12.8748   -9.0549   -0.8873 C   0  0  0  0  0  0  0  0  0  0  0  0
   12.6111   -8.1767    0.1618 C   0  0  0  0  0  0  0  0  0  0  0  0
   13.5616   -7.9682    1.1518 C   0  0  0  0  0  0  0  0  0  0  0  0
   14.7760   -8.6369    1.0997 C   0  0  0  0  0  0  0  0  0  0  0  0
   11.3012   -7.4424    0.2389 C   0  0  0  0  0  0  0  0  0  0  0  0
  1 23  1  0  0  0
  1  2  1  0  0  0
  1  7  1  0  0  0
 23 24  1  0  0  0
  2 25  1  0  0  0
  2  3  1  0  0  0
 25 26  1  0  0  0
  3  9  1  0  0  0
  3  4  1  0  0  0
  9 10  1  0  0  0
  4  5  1  0  0  0
  4  6  1  0  0  0
  6  7  1  0  0  0
  6 20  1  0  0  0
 20 21  1  0  0  0
 26 27  2  0  0  0
 26 28  1  0  0  0
 28 29  2  0  0  0
 28 33  1  0  0  0
 29 30  1  0  0  0
 30 31  2  0  0  0
 31 32  1  0  0  0
 31 34  1  0  0  0
 32 33  2  0  0  0
 10 11  2  0  0  0
 10 13  1  0  0  0
 13 14  2  0  0  0
 13 18  1  0  0  0
 14 15  1  0  0  0
 15 16  2  0  0  0
 16 17  1  0  0  0
 16 19  1  0  0  0
 17 18  2  0  0  0
  9 12  1  0  0  0
  5  8  1  0  0  0
 21 22  1  0  0  0
M  END
> <minimizedAffinity>
-6.11030

$$$$
3T1M_DQT_A_1


 34 36  0  0  0  0  0  0  0  0999 V2000
   16.0788   -8.6617   -2.1847 C   0  0  0  0  0  0  0  0  0  0  0  0
   15.9330   -9.7499   -1.1225 C   0  0  0  0  0  0  0  0  0  0  0  0
   16.3219   -9.3003    0.2837 C   0  0  0  0  0  0  0  0  0  0  0  0
   17.5575   -8.4003    0.2745 C   0  0  0  0  0  0  0  0  0  0  0  0
   18.7238   -9.2286    0.1863 O   0  0  0  0  0  0  0  0  0  0  0  0
   17.5550   -7.3808   -0.8627 C   0  0  0  0  0  0  0  0  0  0  0  0
   17.3644   -8.0476   -2.1105 O   0  0  0  0  0  0  0  0  0  0  0  0
   18.7024   -9.7297   -0.6439 H   0  0  0  0  0  0  0  0  0  0  0  0
   16.6892  -10.4374    1.1040 N   0  0  0  0  0  0  0  0  0  0  0  0
   16.3149  -10.6604    2.3663 C   0  0  0  0  0  0  0  0  0  0  0  0
   15.4752   -9.9716    2.9283 O   0  0  0  0  0  0  0  0  0  0  0  0
   17.2730  -11.1129    0.6891 H   0  0  0  0  0  0  0  0  0  0  0  0
   17.0025  -11.7633    3.1401 C   0  0  0  0  0  0  0  0  0  0  0  0
   18.2655  -12.2216    2.7483 C   0  0  0  0  0  0  0  0  0  0  0  0
   18.9099  -13.2275    3.4592 C   0  0  0  0  0  0  0  0  0  0  0  0
   18.3077  -13.7890    4.5767 C   0  0  0  0  0  0  0  0  0  0  0  0
   17.0523  -13.3383    4.9823 C   0  0  0  0  0  0  0  0  0  0  0  0
   16.4037  -12.3280    4.2691 C   0  0  0  0  0  0  0  0  0  0  0  0
   19.0265  -14.8753    5.3341 C   0  0  0  0  0  0  0  0  0  0  0  0
   18.8608   -6.5947   -0.9304 C   0  0  0  0  0  0  0  0  0  0  0  0
   19.3400   -6.3259    0.3858 O   0  0  0  0  0  0  0  0  0  0  0  0
   18.6821   -5.8016    0.8687 H   0  0  0  0  0  0  0  0  0  0  0  0
   15.9508   -9.2184   -3.4925 O   0  0  0  0  0  0  0  0  0  0  0  0
   16.3041   -8.2680   -4.4968 C   0  0  0  0  0  0  0  0  0  0  0  0
   16.8004  -10.8075   -1.5081 O   0  0  0  0  0  0  0  0  0  0  0  0
   16.2598  -12.1283   -1.5472 C   0  0  0  0  0  0  0  0  0  0  0  0
   15.2176  -12.3804   -2.1407 O   0  0  0  0  0  0  0  0  0  0  0  0
   17.0387  -13.1911   -0.8341 C   0  0  0  0  0  0  0  0  0  0  0  0
   18.4117  -13.3405   -1.0298 C   0  0  0  0  0  0  0  0  0  0  0  0
   19.1015  -14.3396   -0.3470 C   0  0  0  0  0  0  0  0  0  0  0  0
   18.4206  -15.1831    0.5283 C   0  0  0  0  0  0  0  0  0  0  0  0
   17.0543  -15.0314    0.7212 C   0  0  0  0  0  0  0  0  0  0  0  0
   16.3642  -14.0364    0.0441 C   0  0  0  0  0  0  0  0  0  0  0  0
   19.1487  -16.2674    1.2736 C   0  0  0  0  0  0  0  0  0  0  0  0
  1 23  1  0  0  0
  1  2  1  0  0  0
  1  7  1  0  0  0
 23 24  1  0  0  0
  2 25  1  0  0  0
  2  3  1  0  0  0
 25 26  1  0  0  0
  3  9  1  0  0  0
  3  4  1  0  0  0
  9 10  1  0  0  0
  4  5  1  0  0  0
  4  6  1  0  0  0
  6  7  1  0  0  0
  6 20  1  0  0  0
 20 21  1  0  0  0
 26 27  2  0  0  0
 26 28  1  0  0  0
 28 29  2  0  0  0
 28 33  1  0  0  0
 29 30  1  0  0  0
 30 31  2  0  0  0
 31 32  1  0  0  0
 31 34  1  0  0  0
 32 33  2  0  0  0
 10 11  2  0  0  0
 10 13  1  0  0  0
 13 14  2  0  0  0
 13 18  1  0  0  0
 14 15  1  0  0  0
 15 16  2  0  0  0
 16 17  1  0  0  0
 16 19  1  0  0  0
 17 18  2  0  0  0
  9 12  1  0  0  0
  5  8  1  0  0  0
 21 22  1  0  0  0
M  END
> <minimizedAffinity>
-6.08388

$$$$
3T1M_DQT_A_1


 34 36  0  0  0  0  0  0  0  0999 V2000
   16.1331   -9.8925    1.3460 C   0  0  0  0  0  0  0  0  0  0  0  0
   17.5469   -9.6422    0.8241 C   0  0  0  0  0  0  0  0  0  0  0  0
   17.6436   -8.4960   -0.1798 C   0  0  0  0  0  0  0  0  0  0  0  0
   16.4576   -8.4795   -1.1442 C   0  0  0  0  0  0  0  0  0  0  0  0
   16.6976   -9.4427   -2.1780 O   0  0  0  0  0  0  0  0  0  0  0  0
   15.1208   -8.7670   -0.4639 C   0  0  0  0  0  0  0  0  0  0  0  0
   15.2030   -9.9895    0.2685 O   0  0  0  0  0  0  0  0  0  0  0  0
   16.7630  -10.3277   -1.7864 H   0  0  0  0  0  0  0  0  0  0  0  0
   18.8132   -8.6478   -1.0224 N   0  0  0  0  0  0  0  0  0  0  0  0
   19.8989   -7.8705   -1.0222 C   0  0  0  0  0  0  0  0  0  0  0  0
   20.0809   -7.0055   -0.1769 O   0  0  0  0  0  0  0  0  0  0  0  0
   18.8065   -9.3992   -1.6586 H   0  0  0  0  0  0  0  0  0  0  0  0
   20.9013   -8.0281   -2.1439 C   0  0  0  0  0  0  0  0  0  0  0  0
   22.1732   -7.4532   -2.0425 C   0  0  0  0  0  0  0  0  0  0  0  0
   23.1049   -7.6013   -3.0636 C   0  0  0  0  0  0  0  0  0  0  0  0
   22.7853   -8.3306   -4.2006 C   0  0  0  0  0  0  0  0  0  0  0  0
   21.5240   -8.9139   -4.3128 C   0  0  0  0  0  0  0  0  0  0  0  0
   20.5871   -8.7659   -3.2880 C   0  0  0  0  0  0  0  0  0  0  0  0
   23.8122   -8.4811   -5.2929 C   0  0  0  0  0  0  0  0  0  0  0  0
   13.9795   -8.8831   -1.4697 C   0  0  0  0  0  0  0  0  0  0  0  0
   13.7174  -10.2552   -1.7577 O   0  0  0  0  0  0  0  0  0  0  0  0
   14.5120  -10.6638   -2.1353 H   0  0  0  0  0  0  0  0  0  0  0  0
   16.0760  -11.1232    2.0661 O   0  0  0  0  0  0  0  0  0  0  0  0
   16.3346  -10.9229    3.4553 C   0  0  0  0  0  0  0  0  0  0  0  0
   17.9540  -10.8389    0.1748 O   0  0  0  0  0  0  0  0  0  0  0  0
   19.1332  -11.4857    0.6538 C   0  0  0  0  0  0  0  0  0  0  0  0
   19.1944  -11.9604    1.7820 O   0  0  0  0  0  0  0  0  0  0  0  0
   20.2874  -11.5626   -0.2985 C   0  0  0  0  0  0  0  0  0  0  0  0
   20.1611  -12.1747   -1.5455 C   0  0  0  0  0  0  0  0  0  0  0  0
   21.2569  -12.2247   -2.4039 C   0  0  0  0  0  0  0  0  0  0  0  0
   22.4718  -11.6634   -2.0166 C   0  0  0  0  0  0  0  0  0  0  0  0
   22.5941  -11.0545   -0.7752 C   0  0  0  0  0  0  0  0  0  0  0  0
   21.5044  -11.0013    0.0819 C   0  0  0  0  0  0  0  0  0  0  0  0
   23.6654  -11.7083   -2.9301 C   0  0  0  0  0  0  0  0  0  0  0  0
  1 23  1  0  0  0
  1  2  1  0  0  0
  1  7  1  0  0  0
 23 24  1  0  0  0
  2 25  1  0  0  0
  2  3  1  0  0  0
 25 26  1  0  0  0
  3  9  1  0  0  0
  3  4  1  0  0  0
  9 10  1  0  0  0
  4  5  1  0  0  0
  4  6  1  0  0  0
  6  7  1  0  0  0
  6 20  1  0  0  0
 20 21  1  0  0  0
 26 27  2  0  0  0
 26 28  1  0  0  0
 28 29  2  0  0  0
 28 33  1  0  0  0
 29 30  1  0  0  0
 30 31  2  0  0  0
 31 32  1  0  0  0
 31 34  1  0  0  0
 32 33  2  0  0  0
 10 11  2  0  0  0
 10 13  1  0  0  0
 13 14  2  0  0  0
 13 18  1  0  0  0
 14 15  1  0  0  0
 15 16  2  0  0  0
 16 17  1  0  0  0
 16 19  1  0  0  0
 17 18  2  0  0  0
  9 12  1  0  0  0
  5  8  1  0  0  0
 21 22  1  0  0  0
M  END
> <minimizedAffinity>
-6.02582

$$$$
3T1M_DQT_A_1


 34 36  0  0  0  0  0  0  0  0999 V2000
   16.8800   -7.7535   -1.6735 C   0  0  0  0  0  0  0  0  0  0  0  0
   15.4346   -7.3492   -1.9586 C   0  0  0  0  0  0  0  0  0  0  0  0
   14.5598   -7.2528   -0.7110 C   0  0  0  0  0  0  0  0  0  0  0  0
   14.8590   -8.3736    0.2846 C   0  0  0  0  0  0  0  0  0  0  0  0
   14.1709   -9.5566   -0.1409 O   0  0  0  0  0  0  0  0  0  0  0  0
   16.3505   -8.6646    0.4376 C   0  0  0  0  0  0  0  0  0  0  0  0
   16.9295   -8.9127   -0.8434 O   0  0  0  0  0  0  0  0  0  0  0  0
   14.4986   -9.8251   -1.0135 H   0  0  0  0  0  0  0  0  0  0  0  0
   13.1599   -7.4135   -1.0508 N   0  0  0  0  0  0  0  0  0  0  0  0
   12.2424   -6.4456   -1.1175 C   0  0  0  0  0  0  0  0  0  0  0  0
   12.5371   -5.2616   -1.0354 O   0  0  0  0  0  0  0  0  0  0  0  0
   12.8551   -8.3276   -1.2527 H   0  0  0  0  0  0  0  0  0  0  0  0
   10.7860   -6.8369   -1.2347 C   0  0  0  0  0  0  0  0  0  0  0  0
   10.3631   -8.1143   -0.8498 C   0  0  0  0  0  0  0  0  0  0  0  0
    9.0251   -8.4797   -0.9441 C   0  0  0  0  0  0  0  0  0  0  0  0
    8.0855   -7.5748   -1.4184 C   0  0  0  0  0  0  0  0  0  0  0  0
    8.4914   -6.2968   -1.8000 C   0  0  0  0  0  0  0  0  0  0  0  0
    9.8350   -5.9283   -1.7060 C   0  0  0  0  0  0  0  0  0  0  0  0
    6.6403   -7.9915   -1.5083 C   0  0  0  0  0  0  0  0  0  0  0  0
   16.6093   -9.8770    1.3269 C   0  0  0  0  0  0  0  0  0  0  0  0
   15.7545   -9.8394    2.4681 O   0  0  0  0  0  0  0  0  0  0  0  0
   15.9302   -9.0327    2.9773 H   0  0  0  0  0  0  0  0  0  0  0  0
   17.5590   -8.0731   -2.8873 O   0  0  0  0  0  0  0  0  0  0  0  0
   18.4975   -9.1305   -2.6928 C   0  0  0  0  0  0  0  0  0  0  0  0
   14.8947   -8.3553   -2.8048 O   0  0  0  0  0  0  0  0  0  0  0  0
   14.3682   -7.9479   -4.0677 C   0  0  0  0  0  0  0  0  0  0  0  0
   15.0842   -7.4704   -4.9403 O   0  0  0  0  0  0  0  0  0  0  0  0
   12.8972   -8.1444   -4.2739 C   0  0  0  0  0  0  0  0  0  0  0  0
   12.0915   -7.1240   -4.7790 C   0  0  0  0  0  0  0  0  0  0  0  0
   10.7281   -7.3458   -4.9583 C   0  0  0  0  0  0  0  0  0  0  0  0
   10.1749   -8.5830   -4.6353 C   0  0  0  0  0  0  0  0  0  0  0  0
   10.9796   -9.5966   -4.1333 C   0  0  0  0  0  0  0  0  0  0  0  0
   12.3383   -9.3800   -3.9549 C   0  0  0  0  0  0  0  0  0  0  0  0
    8.7052   -8.8404   -4.8218 C   0  0  0  0  0  0  0  0  0  0  0  0
  1 23  1  0  0  0
  1  2  1  0  0  0
  1  7  1  0  0  0
 23 24  1  0  0  0
  2 25  1  0  0  0
  2  3  1  0  0  0
 25 26  1  0  0  0
  3  9  1  0  0  0
  3  4  1  0  0  0
  9 10  1  0  0  0
  4  5  1  0  0  0
  4  6  1  0  0  0
  6  7  1  0  0  0
  6 20  1  0  0  0
 20 21  1  0  0  0
 26 27  2  0  0  0
 26 28  1  0  0  0
 28 29  2  0  0  0
 28 33  1  0  0  0
 29 30  1  0  0  0
 30 31  2  0  0  0
 31 32  1  0  0  0
 31 34  1  0  0  0
 32 33  2  0  0  0
 10 11  2  0  0  0
 10 13  1  0  0  0
 13 14  2  0  0  0
 13 18  1  0  0  0
 14 15  1  0  0  0
 15 16  2  0  0  0
 16 17  1  0  0  0
 16 19  1  0  0  0
 17 18  2  0  0  0
  9 12  1  0  0  0
  5  8  1  0  0  0
 21 22  1  0  0  0
M  END
> <minimizedAffinity>
-6.01181

$$$$
3T1M_DQT_A_1


 34 36  0  0  0  0  0  0  0  0999 V2000
   18.1726   -9.1099   -3.1821 C   0  0  0  0  0  0  0  0  0  0  0  0
   17.6848  -10.0380   -2.0710 C   0  0  0  0  0  0  0  0  0  0  0  0
   17.7752   -9.4324   -0.6724 C   0  0  0  0  0  0  0  0  0  0  0  0
   19.0560   -8.6195   -0.4835 C   0  0  0  0  0  0  0  0  0  0  0  0
   20.1301   -9.5227   -0.1926 O   0  0  0  0  0  0  0  0  0  0  0  0
   19.4113   -7.7601   -1.6950 C   0  0  0  0  0  0  0  0  0  0  0  0
   19.4562   -8.5720   -2.8684 O   0  0  0  0  0  0  0  0  0  0  0  0
   20.2567  -10.1263   -0.9412 H   0  0  0  0  0  0  0  0  0  0  0  0
   17.8360  -10.4724    0.3354 N   0  0  0  0  0  0  0  0  0  0  0  0
   16.9559  -10.6789    1.3181 C   0  0  0  0  0  0  0  0  0  0  0  0
   15.8942  -10.0750    1.3795 O   0  0  0  0  0  0  0  0  0  0  0  0
   18.6030  -11.0881    0.2909 H   0  0  0  0  0  0  0  0  0  0  0  0
   17.3190  -11.6467    2.4224 C   0  0  0  0  0  0  0  0  0  0  0  0
   16.3765  -11.9949    3.3966 C   0  0  0  0  0  0  0  0  0  0  0  0
   16.6976  -12.8914    4.4094 C   0  0  0  0  0  0  0  0  0  0  0  0
   17.9625  -13.4602    4.4639 C   0  0  0  0  0  0  0  0  0  0  0  0
   18.9098  -13.1271    3.4967 C   0  0  0  0  0  0  0  0  0  0  0  0
   18.5889  -12.2267    2.4788 C   0  0  0  0  0  0  0  0  0  0  0  0
   18.2870  -14.4323    5.5684 C   0  0  0  0  0  0  0  0  0  0  0  0
   20.7633   -7.0720   -1.5326 C   0  0  0  0  0  0  0  0  0  0  0  0
   21.0425   -6.8599   -0.1502 O   0  0  0  0  0  0  0  0  0  0  0  0
   20.3543   -6.2958    0.2359 H   0  0  0  0  0  0  0  0  0  0  0  0
   18.3021   -9.8246   -4.4104 O   0  0  0  0  0  0  0  0  0  0  0  0
   19.3463   -9.2819   -5.2178 C   0  0  0  0  0  0  0  0  0  0  0  0
   18.5177  -11.1886   -2.1131 O   0  0  0  0  0  0  0  0  0  0  0  0
   17.9062  -12.4393   -2.4295 C   0  0  0  0  0  0  0  0  0  0  0  0
   17.5297  -12.7031   -3.5656 O   0  0  0  0  0  0  0  0  0  0  0  0
   17.7586  -13.4157   -1.3026 C   0  0  0  0  0  0  0  0  0  0  0  0
   16.5156  -13.6781   -0.7266 C   0  0  0  0  0  0  0  0  0  0  0  0
   16.4186  -14.5940    0.3183 C   0  0  0  0  0  0  0  0  0  0  0  0
   17.5596  -15.2449    0.7826 C   0  0  0  0  0  0  0  0  0  0  0  0
   18.7951  -14.9818    0.2069 C   0  0  0  0  0  0  0  0  0  0  0  0
   18.8953  -14.0714   -0.8351 C   0  0  0  0  0  0  0  0  0  0  0  0
   17.4741  -16.2363    1.9099 C   0  0  0  0  0  0  0  0  0  0  0  0
  1 23  1  0  0  0
  1  2  1  0  0  0
  1  7  1  0  0  0
 23 24  1  0  0  0
  2 25  1  0  0  0
  2  3  1  0  0  0
 25 26  1  0  0  0
  3  9  1  0  0  0
  3  4  1  0  0  0
  9 10  1  0  0  0
  4  5  1  0  0  0
  4  6  1  0  0  0
  6  7  1  0  0  0
  6 20  1  0  0  0
 20 21  1  0  0  0
 26 27  2  0  0  0
 26 28  1  0  0  0
 28 29  2  0  0  0
 28 33  1  0  0  0
 29 30  1  0  0  0
 30 31  2  0  0  0
 31 32  1  0  0  0
 31 34  1  0  0  0
 32 33  2  0  0  0
 10 11  2  0  0  0
 10 13  1  0  0  0
 13 14  2  0  0  0
 13 18  1  0  0  0
 14 15  1  0  0  0
 15 16  2  0  0  0
 16 17  1  0  0  0
 16 19  1  0  0  0
 17 18  2  0  0  0
  9 12  1  0  0  0
  5  8  1  0  0  0
 21 22  1  0  0  0
M  END
> <minimizedAffinity>
-5.88883

$$$$
