3BBF_GDP_A_160
  RCSB PDB12061708003D
Coordinates from PDB:3BBF:A:160 Model:1 without hydrogens
 28 30  0  0  0  0            999 V2000
   21.6060   38.1730   33.5790   P 0  0  0  0  0  0  0  0  0  0  0  0
   20.2160   38.8330   33.6130   O 0  0  0  0  0  0  0  0  0  0  0  0
   22.7030   39.1100   34.1200   O 0  0  0  0  0  0  0  0  0  0  0  0
   21.7060   36.9320   34.3990   O 0  0  0  0  0  0  0  0  0  0  0  0
   22.0370   37.8950   32.0350   O 0  0  0  0  0  0  0  0  0  0  0  0
   21.2870   37.0870   30.8650   P 0  0  0  0  0  0  0  0  0  0  0  0
   19.8100   37.0620   31.0450   O 0  0  0  0  0  0  0  0  0  0  0  0
   21.7210   37.6880   29.5570   O 0  0  0  0  0  0  0  0  0  0  0  0
   21.7850   35.5590   30.9630   O 0  0  0  0  0  0  0  0  0  0  0  0
   21.1290   34.7710   31.9330   C 0  0  0  0  0  0  0  0  0  0  0  0
   22.0730   33.7260   32.4630   C 0  0  0  0  0  0  0  0  0  0  0  0
   22.5050   32.8580   31.4190   O 0  0  0  0  0  0  0  0  0  0  0  0
   23.3370   34.3080   33.0770   C 0  0  0  0  0  0  0  0  0  0  0  0
   23.0620   34.8780   34.3540   O 0  0  0  0  0  0  0  0  0  0  0  0
   24.1860   33.0640   33.0810   C 0  0  0  0  0  0  0  0  0  0  0  0
   23.8130   32.1950   34.1560   O 0  0  0  0  0  0  0  0  0  0  0  0
   23.8070   32.4100   31.7620   C 0  0  0  0  0  0  0  0  0  0  0  0
   24.7080   32.8210   30.6800   N 0  0  0  0  0  0  0  0  0  0  0  0
   24.7500   34.0170   30.0480   C 0  0  0  0  0  0  0  0  0  0  0  0
   25.7290   34.0150   29.1200   N 0  0  0  0  0  0  0  0  0  0  0  0
   26.3060   32.7870   29.1410   C 0  0  0  0  0  0  0  0  0  0  0  0
   27.3760   32.0620   28.4130   C 0  0  0  0  0  0  0  0  0  0  0  0
   28.0620   32.5820   27.5150   O 0  0  0  0  0  0  0  0  0  0  0  0
   27.6060   30.7910   28.7680   N 0  0  0  0  0  0  0  0  0  0  0  0
   26.9560   30.1370   29.7350   C 0  0  0  0  0  0  0  0  0  0  0  0
   27.2960   28.8470   29.9810   N 0  0  0  0  0  0  0  0  0  0  0  0
   25.9490   30.7010   30.4450   N 0  0  0  0  0  0  0  0  0  0  0  0
   25.6160   32.0000   30.1730   C 0  0  0  0  0  0  0  0  0  0  0  0
  1  2  2  0  0  0  0
  1  3  1  0  0  0  0
  1  4  1  0  0  0  0
  1  5  1  0  0  0  0
  5  6  1  0  0  0  0
  6  7  2  0  0  0  0
  6  8  1  0  0  0  0
  6  9  1  0  0  0  0
  9 10  1  0  0  0  0
 10 11  1  0  0  0  0
 11 12  1  0  0  0  0
 11 13  1  0  0  0  0
 12 17  1  0  0  0  0
 13 14  1  0  0  0  0
 13 15  1  0  0  0  0
 15 16  1  0  0  0  0
 15 17  1  0  0  0  0
 17 18  1  0  0  0  0
 18 19  1  0  0  0  0
 18 28  1  0  0  0  0
 19 20  2  0  0  0  0
 20 21  1  0  0  0  0
 21 22  1  0  0  0  0
 21 28  2  0  0  0  0
 22 23  2  0  0  0  0
 22 24  1  0  0  0  0
 24 25  1  0  0  0  0
 25 26  1  0  0  0  0
 25 27  2  0  0  0  0
 27 28  1  0  0  0  0
A    1
PB
A    2
O1B
A    3
O2B
A    4
O3B
A    5
O3A
A    6
PA
A    7
O1A
A    8
O2A
A    9
O5'
A   10
C5'
A   11
C4'
A   12
O4'
A   13
C3'
A   14
O3'
A   15
C2'
A   16
O2'
A   17
C1'
A   18
N9
A   19
C8
A   20
N7
A   21
C5
A   22
C6
A   23
O6
A   24
N1
A   25
C2
A   26
N2
A   27
N3
A   28
C4
M  END
>  <InstanceId>
3BBF_GDP_A_160

>  <ChemCompId>
GDP

>  <PdbId>
3BBF

>  <ChainId>
A

>  <ResidueNumber>
160

>  <InsertionCode>


>  <Model>
1

>  <AltIds>


>  <MissingHeavyAtoms>
0

>  <ObservedFormula>
C10 N5 O11 P2

>  <Name>
GUANOSINE-5'-DIPHOSPHATE

>  <SystematicName>
[(2R,3S,4R,5R)-5-(2-azanyl-6-oxidanylidene-1H-purin-9-yl)-3,4-bis(oxidanyl)oxolan-2-yl]methyl phosphono hydrogen phosphate

>  <Synonyms>


>  <Type>
RNA LINKING

>  <Formula>
C10 H15 N5 O11 P2

>  <MolecularWeight>
443.201

>  <ModifiedDate>
2014-05-12

>  <Parent>
G

>  <OneLetterCode>
G

>  <SubcomponentList>


>  <AmbiguousFlag>
N

>  <InChI>
InChI=1S/C10H15N5O11P2/c11-10-13-7-4(8(18)14-10)12-2-15(7)9-6(17)5(16)3(25-9)1-24-28(22,23)26-27(19,20)21/h2-3,5-6,9,16-17H,1H2,(H,22,23)(H2,19,20,21)(H3,11,13,14,18)/t3-,5-,6-,9-/m1/s1

>  <InChIKey>
QGWNDRXFNXRZMB-UUOKFMHZSA-N

>  <SMILES>
c1nc2c(n1[C@H]3[C@@H]([C@@H]([C@H](O3)CO[P@](=O)(O)OP(=O)(O)O)O)O)N=C(NC2=O)N

$$$$
