3V4T_UD1_A_501


 48 50  0  0  0  0  0  0  0  0999 V2000
  -36.1550    1.9359    7.9134 P   0  0  0  0  0  0  0  0  0  0  0  0
  -35.1330    2.6804    8.6360 O   0  0  0  0  0  0  0  0  0  0  0  0
  -35.7329    1.6749    6.5449 O   0  0  0  0  0  0  0  0  0  0  0  0
  -35.6924    2.5106    6.0541 H   0  0  0  0  0  0  0  0  0  0  0  0
  -37.4658    2.7572    7.8993 O   0  0  0  0  0  0  0  0  0  0  0  0
  -37.5020    4.1916    8.1688 C   0  0  0  0  0  0  0  0  0  0  0  0
  -39.0917    5.8877   10.6648 C   0  0  0  0  0  0  0  0  0  0  0  0
  -38.6365    6.8661    9.6324 C   0  0  0  0  0  0  0  0  0  0  0  0
  -38.7701    8.3318    9.8745 O   0  0  0  0  0  0  0  0  0  0  0  0
  -39.2279    6.1955    8.3538 C   0  0  0  0  0  0  0  0  0  0  0  0
  -38.8744    4.7051    8.6772 C   0  0  0  0  0  0  0  0  0  0  0  0
  -38.8172    4.6118   10.1093 O   0  0  0  0  0  0  0  0  0  0  0  0
  -40.6494    6.6106    8.2535 O   0  0  0  0  0  0  0  0  0  0  0  0
  -39.7080    8.5592    9.9719 H   0  0  0  0  0  0  0  0  0  0  0  0
  -41.0979    6.4346    9.0954 H   0  0  0  0  0  0  0  0  0  0  0  0
  -38.3994    5.9971   12.0026 N   0  0  0  0  0  0  0  0  0  0  0  0
  -38.8055    6.9612   12.9446 C   0  0  0  0  0  0  0  0  0  0  0  0
  -38.1300    7.0219   14.1380 N   0  0  0  0  0  0  0  0  0  0  0  0
  -37.0628    6.2019   14.5098 C   0  0  0  0  0  0  0  0  0  0  0  0
  -36.6661    5.2074   13.5206 C   0  0  0  0  0  0  0  0  0  0  0  0
  -37.3278    5.1335   12.3164 C   0  0  0  0  0  0  0  0  0  0  0  0
  -39.7663    7.7633   12.7089 O   0  0  0  0  0  0  0  0  0  0  0  0
  -36.5027    6.3143   15.5857 O   0  0  0  0  0  0  0  0  0  0  0  0
  -38.4230    7.7016   14.7871 H   0  0  0  0  0  0  0  0  0  0  0  0
  -36.2664    0.7243    8.8092 O   0  0  0  0  0  0  0  0  0  0  0  0
  -37.5508   -0.0341    9.3393 P   0  0  0  0  0  0  0  0  0  0  0  0
  -37.1347   -1.3769    9.6288 O   0  0  0  0  0  0  0  0  0  0  0  0
  -38.7010    0.0362    8.4827 O   0  0  0  0  0  0  0  0  0  0  0  0
  -38.9309    0.9654    8.3256 H   0  0  0  0  0  0  0  0  0  0  0  0
  -37.9507    0.5917   10.7435 O   0  0  0  0  0  0  0  0  0  0  0  0
  -39.0867    0.1061   11.4935 C   0  0  0  0  0  0  0  0  0  0  0  0
  -40.0043    1.2967   11.8652 C   0  0  0  0  0  0  0  0  0  0  0  0
  -39.3148    2.2307   12.8339 C   0  0  0  0  0  0  0  0  0  0  0  0
  -38.9753    1.4513   14.1190 C   0  0  0  0  0  0  0  0  0  0  0  0
  -38.0161    0.2871   13.7508 C   0  0  0  0  0  0  0  0  0  0  0  0
  -40.2351    3.3273   13.1676 O   0  0  0  0  0  0  0  0  0  0  0  0
  -38.2535    2.2559   15.1404 O   0  0  0  0  0  0  0  0  0  0  0  0
  -38.7023   -0.5740   12.7009 O   0  0  0  0  0  0  0  0  0  0  0  0
  -41.0427    2.9628   13.5624 H   0  0  0  0  0  0  0  0  0  0  0  0
  -37.4014    2.5471   14.7798 H   0  0  0  0  0  0  0  0  0  0  0  0
  -41.5726    2.0748   10.0392 C   0  0  0  0  0  0  0  0  0  0  0  0
  -41.6502    2.9520    8.7625 C   0  0  0  0  0  0  0  0  0  0  0  0
  -40.3578    2.0438   10.6250 N   0  0  0  0  0  0  0  0  0  0  0  0
  -42.5023    1.4546   10.5188 O   0  0  0  0  0  0  0  0  0  0  0  0
  -39.6398    2.5616   10.1942 H   0  0  0  0  0  0  0  0  0  0  0  0
  -37.6447   -0.5598   14.9787 C   0  0  0  0  0  0  0  0  0  0  0  0
  -36.7317    0.1247   15.9215 O   0  0  0  0  0  0  0  0  0  0  0  0
  -35.8927    0.3193   15.4754 H   0  0  0  0  0  0  0  0  0  0  0  0
 31 32  1  0  0  0
 31 30  1  0  0  0
 31 38  1  0  0  0
 32 33  1  0  0  0
 32 43  1  0  0  0
 33 34  1  0  0  0
 33 36  1  0  0  0
 34 35  1  0  0  0
 34 37  1  0  0  0
 35 46  1  0  0  0
 35 38  1  0  0  0
 46 47  1  0  0  0
 41 42  1  0  0  0
 41 43  1  0  0  0
 41 44  2  0  0  0
 30 26  1  0  0  0
 16 17  1  0  0  0
 16 21  1  0  0  0
 16  7  1  0  0  0
 17 18  1  0  0  0
 17 22  2  0  0  0
 18 19  1  0  0  0
 19 20  1  0  0  0
 19 23  2  0  0  0
 20 21  2  0  0  0
  7  8  1  0  0  0
  7 12  1  0  0  0
  8  9  1  0  0  0
  8 10  1  0  0  0
 10 11  1  0  0  0
 10 13  1  0  0  0
 11 12  1  0  0  0
 11  6  1  0  0  0
  6  5  1  0  0  0
  5  1  1  0  0  0
  1  2  2  0  0  0
  1  3  1  0  0  0
  1 25  1  0  0  0
 25 26  1  0  0  0
 26 27  2  0  0  0
 26 28  1  0  0  0
 43 45  1  0  0  0
 36 39  1  0  0  0
 37 40  1  0  0  0
 47 48  1  0  0  0
 18 24  1  0  0  0
  9 14  1  0  0  0
 13 15  1  0  0  0
  3  4  1  0  0  0
 28 29  1  0  0  0
M  END
> <minimizedAffinity>
-10.28121

$$$$
3V4T_UD1_A_501


 48 50  0  0  0  0  0  0  0  0999 V2000
  -37.6478    1.2730   14.9636 P   0  0  0  0  0  0  0  0  0  0  0  0
  -36.4253    1.7102   14.3038 O   0  0  0  0  0  0  0  0  0  0  0  0
  -37.4394    1.1352   16.3977 O   0  0  0  0  0  0  0  0  0  0  0  0
  -36.8319    0.3982   16.5669 H   0  0  0  0  0  0  0  0  0  0  0  0
  -38.0827   -0.0894   14.3741 O   0  0  0  0  0  0  0  0  0  0  0  0
  -37.2982   -0.8022   13.3702 C   0  0  0  0  0  0  0  0  0  0  0  0
  -36.6462   -1.3398   10.0657 C   0  0  0  0  0  0  0  0  0  0  0  0
  -37.2008   -2.5940   10.6569 C   0  0  0  0  0  0  0  0  0  0  0  0
  -37.2409   -3.8504    9.8539 O   0  0  0  0  0  0  0  0  0  0  0  0
  -38.4834   -2.0214   11.3361 C   0  0  0  0  0  0  0  0  0  0  0  0
  -37.8747   -0.7085   11.9334 C   0  0  0  0  0  0  0  0  0  0  0  0
  -36.7630   -0.3665   11.0907 O   0  0  0  0  0  0  0  0  0  0  0  0
  -39.5366   -1.9376   10.2936 O   0  0  0  0  0  0  0  0  0  0  0  0
  -37.8100   -3.7209    9.0791 H   0  0  0  0  0  0  0  0  0  0  0  0
  -39.1913   -1.4605    9.5228 H   0  0  0  0  0  0  0  0  0  0  0  0
  -35.2023   -1.4192    9.6298 N   0  0  0  0  0  0  0  0  0  0  0  0
  -34.7806   -0.8179    8.4288 C   0  0  0  0  0  0  0  0  0  0  0  0
  -33.4587   -0.9347    8.0782 N   0  0  0  0  0  0  0  0  0  0  0  0
  -32.4789   -1.6030    8.8151 C   0  0  0  0  0  0  0  0  0  0  0  0
  -32.9390   -2.2106   10.0577 C   0  0  0  0  0  0  0  0  0  0  0  0
  -34.2612   -2.1086   10.4246 C   0  0  0  0  0  0  0  0  0  0  0  0
  -35.5910   -0.1852    7.6772 O   0  0  0  0  0  0  0  0  0  0  0  0
  -31.3217   -1.6737    8.4413 O   0  0  0  0  0  0  0  0  0  0  0  0
  -33.1774   -0.5110    7.2353 H   0  0  0  0  0  0  0  0  0  0  0  0
  -38.5768    2.3861   14.5384 O   0  0  0  0  0  0  0  0  0  0  0  0
  -38.7865    3.0485   13.1161 P   0  0  0  0  0  0  0  0  0  0  0  0
  -40.1984    3.2652   12.9769 O   0  0  0  0  0  0  0  0  0  0  0  0
  -38.2065    2.3320   12.0151 O   0  0  0  0  0  0  0  0  0  0  0  0
  -37.2555    2.2183   12.1684 H   0  0  0  0  0  0  0  0  0  0  0  0
  -38.1415    4.4999   13.1461 O   0  0  0  0  0  0  0  0  0  0  0  0
  -38.6772    5.5499   13.9823 C   0  0  0  0  0  0  0  0  0  0  0  0
  -37.9857    6.8900   13.6310 C   0  0  0  0  0  0  0  0  0  0  0  0
  -36.5201    6.8571   14.0010 C   0  0  0  0  0  0  0  0  0  0  0  0
  -36.3960    6.6226   15.5188 C   0  0  0  0  0  0  0  0  0  0  0  0
  -37.0472    5.2553   15.8613 C   0  0  0  0  0  0  0  0  0  0  0  0
  -35.9200    8.1567   13.6663 O   0  0  0  0  0  0  0  0  0  0  0  0
  -34.9929    6.5295   16.0029 O   0  0  0  0  0  0  0  0  0  0  0  0
  -38.4915    5.2890   15.3843 O   0  0  0  0  0  0  0  0  0  0  0  0
  -36.3783    8.8594   14.1531 H   0  0  0  0  0  0  0  0  0  0  0  0
  -34.5566    5.7703   15.5856 H   0  0  0  0  0  0  0  0  0  0  0  0
  -39.0904    7.8641   11.5742 C   0  0  0  0  0  0  0  0  0  0  0  0
  -38.9681    7.9639   10.0313 C   0  0  0  0  0  0  0  0  0  0  0  0
  -38.1206    7.1378   12.1675 N   0  0  0  0  0  0  0  0  0  0  0  0
  -39.9628    8.3862   12.2415 O   0  0  0  0  0  0  0  0  0  0  0  0
  -37.4405    6.7351   11.5806 H   0  0  0  0  0  0  0  0  0  0  0  0
  -36.9875    4.9532   17.3673 C   0  0  0  0  0  0  0  0  0  0  0  0
  -36.4053    3.6306   17.6879 O   0  0  0  0  0  0  0  0  0  0  0  0
  -36.9579    2.9322   17.3035 H   0  0  0  0  0  0  0  0  0  0  0  0
 31 32  1  0  0  0
 31 30  1  0  0  0
 31 38  1  0  0  0
 32 33  1  0  0  0
 32 43  1  0  0  0
 33 34  1  0  0  0
 33 36  1  0  0  0
 34 35  1  0  0  0
 34 37  1  0  0  0
 35 46  1  0  0  0
 35 38  1  0  0  0
 46 47  1  0  0  0
 41 42  1  0  0  0
 41 43  1  0  0  0
 41 44  2  0  0  0
 30 26  1  0  0  0
 16 17  1  0  0  0
 16 21  1  0  0  0
 16  7  1  0  0  0
 17 18  1  0  0  0
 17 22  2  0  0  0
 18 19  1  0  0  0
 19 20  1  0  0  0
 19 23  2  0  0  0
 20 21  2  0  0  0
  7  8  1  0  0  0
  7 12  1  0  0  0
  8  9  1  0  0  0
  8 10  1  0  0  0
 10 11  1  0  0  0
 10 13  1  0  0  0
 11 12  1  0  0  0
 11  6  1  0  0  0
  6  5  1  0  0  0
  5  1  1  0  0  0
  1  2  2  0  0  0
  1  3  1  0  0  0
  1 25  1  0  0  0
 25 26  1  0  0  0
 26 27  2  0  0  0
 26 28  1  0  0  0
 43 45  1  0  0  0
 36 39  1  0  0  0
 37 40  1  0  0  0
 47 48  1  0  0  0
 18 24  1  0  0  0
  9 14  1  0  0  0
 13 15  1  0  0  0
  3  4  1  0  0  0
 28 29  1  0  0  0
M  END
> <minimizedAffinity>
-10.21175

$$$$
3V4T_UD1_A_501


 48 50  0  0  0  0  0  0  0  0999 V2000
  -36.0879    1.1282    7.9473 P   0  0  0  0  0  0  0  0  0  0  0  0
  -37.2599    0.3026    7.6907 O   0  0  0  0  0  0  0  0  0  0  0  0
  -35.4696    1.5491    6.6984 O   0  0  0  0  0  0  0  0  0  0  0  0
  -35.0911    0.7773    6.2488 H   0  0  0  0  0  0  0  0  0  0  0  0
  -35.0671    0.3153    8.7780 O   0  0  0  0  0  0  0  0  0  0  0  0
  -34.9318   -1.1339    8.6643 C   0  0  0  0  0  0  0  0  0  0  0  0
  -36.5153   -1.5836   11.6516 C   0  0  0  0  0  0  0  0  0  0  0  0
  -37.0609   -2.5636   10.6656 C   0  0  0  0  0  0  0  0  0  0  0  0
  -38.2295   -3.4188   11.0230 O   0  0  0  0  0  0  0  0  0  0  0  0
  -35.7276   -3.1843   10.1447 C   0  0  0  0  0  0  0  0  0  0  0  0
  -34.8805   -1.8730   10.0269 C   0  0  0  0  0  0  0  0  0  0  0  0
  -35.4308   -0.9567   10.9864 O   0  0  0  0  0  0  0  0  0  0  0  0
  -35.3238   -4.2385   11.1083 O   0  0  0  0  0  0  0  0  0  0  0  0
  -37.9951   -3.9905   11.7707 H   0  0  0  0  0  0  0  0  0  0  0  0
  -35.3222   -3.8721   12.0064 H   0  0  0  0  0  0  0  0  0  0  0  0
  -37.4882   -0.5220   12.1073 N   0  0  0  0  0  0  0  0  0  0  0  0
  -37.6408   -0.2274   13.4754 C   0  0  0  0  0  0  0  0  0  0  0  0
  -38.5499    0.7380   13.8300 N   0  0  0  0  0  0  0  0  0  0  0  0
  -39.3473    1.4669   12.9455 C   0  0  0  0  0  0  0  0  0  0  0  0
  -39.1654    1.1487   11.5346 C   0  0  0  0  0  0  0  0  0  0  0  0
  -38.2624    0.1808   11.1590 C   0  0  0  0  0  0  0  0  0  0  0  0
  -36.9660   -0.8335   14.3693 O   0  0  0  0  0  0  0  0  0  0  0  0
  -40.1406    2.3077   13.3297 O   0  0  0  0  0  0  0  0  0  0  0  0
  -38.6480    0.9331   14.7900 H   0  0  0  0  0  0  0  0  0  0  0  0
  -36.7257    2.2253    8.7672 O   0  0  0  0  0  0  0  0  0  0  0  0
  -37.5129    3.5171    8.3008 P   0  0  0  0  0  0  0  0  0  0  0  0
  -38.8413    3.0830    7.9740 O   0  0  0  0  0  0  0  0  0  0  0  0
  -36.8844    4.2730    7.2542 O   0  0  0  0  0  0  0  0  0  0  0  0
  -35.9939    4.5356    7.5351 H   0  0  0  0  0  0  0  0  0  0  0  0
  -37.6828    4.4738    9.5575 O   0  0  0  0  0  0  0  0  0  0  0  0
  -38.9815    4.7540   10.1264 C   0  0  0  0  0  0  0  0  0  0  0  0
  -39.4551    6.1532    9.6622 C   0  0  0  0  0  0  0  0  0  0  0  0
  -38.5760    7.2411   10.2363 C   0  0  0  0  0  0  0  0  0  0  0  0
  -38.6518    7.1812   11.7741 C   0  0  0  0  0  0  0  0  0  0  0  0
  -38.1306    5.7947   12.2399 C   0  0  0  0  0  0  0  0  0  0  0  0
  -39.0814    8.5446    9.7820 O   0  0  0  0  0  0  0  0  0  0  0  0
  -37.7928    8.1824   12.4606 O   0  0  0  0  0  0  0  0  0  0  0  0
  -38.9736    4.7236   11.5642 O   0  0  0  0  0  0  0  0  0  0  0  0
  -39.9985    8.6566   10.0774 H   0  0  0  0  0  0  0  0  0  0  0  0
  -36.8631    8.0168   12.2393 H   0  0  0  0  0  0  0  0  0  0  0  0
  -40.4641    6.0949    7.3431 C   0  0  0  0  0  0  0  0  0  0  0  0
  -40.1158    6.2144    5.8365 C   0  0  0  0  0  0  0  0  0  0  0  0
  -39.4077    6.2135    8.1737 N   0  0  0  0  0  0  0  0  0  0  0  0
  -41.5811    5.9188    7.7905 O   0  0  0  0  0  0  0  0  0  0  0  0
  -38.5256    6.3524    7.7591 H   0  0  0  0  0  0  0  0  0  0  0  0
  -38.1950    5.6420   13.7681 C   0  0  0  0  0  0  0  0  0  0  0  0
  -39.3982    6.2511   14.3784 O   0  0  0  0  0  0  0  0  0  0  0  0
  -39.3968    7.2067   14.2116 H   0  0  0  0  0  0  0  0  0  0  0  0
 31 32  1  0  0  0
 31 30  1  0  0  0
 31 38  1  0  0  0
 32 33  1  0  0  0
 32 43  1  0  0  0
 33 34  1  0  0  0
 33 36  1  0  0  0
 34 35  1  0  0  0
 34 37  1  0  0  0
 35 46  1  0  0  0
 35 38  1  0  0  0
 46 47  1  0  0  0
 41 42  1  0  0  0
 41 43  1  0  0  0
 41 44  2  0  0  0
 30 26  1  0  0  0
 16 17  1  0  0  0
 16 21  1  0  0  0
 16  7  1  0  0  0
 17 18  1  0  0  0
 17 22  2  0  0  0
 18 19  1  0  0  0
 19 20  1  0  0  0
 19 23  2  0  0  0
 20 21  2  0  0  0
  7  8  1  0  0  0
  7 12  1  0  0  0
  8  9  1  0  0  0
  8 10  1  0  0  0
 10 11  1  0  0  0
 10 13  1  0  0  0
 11 12  1  0  0  0
 11  6  1  0  0  0
  6  5  1  0  0  0
  5  1  1  0  0  0
  1  2  2  0  0  0
  1  3  1  0  0  0
  1 25  1  0  0  0
 25 26  1  0  0  0
 26 27  2  0  0  0
 26 28  1  0  0  0
 43 45  1  0  0  0
 36 39  1  0  0  0
 37 40  1  0  0  0
 47 48  1  0  0  0
 18 24  1  0  0  0
  9 14  1  0  0  0
 13 15  1  0  0  0
  3  4  1  0  0  0
 28 29  1  0  0  0
M  END
> <minimizedAffinity>
-10.19615

$$$$
3V4T_UD1_A_501


 48 50  0  0  0  0  0  0  0  0999 V2000
  -37.8366    1.6579   14.4617 P   0  0  0  0  0  0  0  0  0  0  0  0
  -36.3819    1.6839   14.5258 O   0  0  0  0  0  0  0  0  0  0  0  0
  -38.4167    2.0802   15.7282 O   0  0  0  0  0  0  0  0  0  0  0  0
  -38.2226    1.4177   16.4096 H   0  0  0  0  0  0  0  0  0  0  0  0
  -38.3041    0.2197   14.1362 O   0  0  0  0  0  0  0  0  0  0  0  0
  -37.5516   -0.6770   13.2637 C   0  0  0  0  0  0  0  0  0  0  0  0
  -36.6282   -1.3660   10.0533 C   0  0  0  0  0  0  0  0  0  0  0  0
  -37.2467   -2.5879   10.6488 C   0  0  0  0  0  0  0  0  0  0  0  0
  -37.2343   -3.8781    9.9005 O   0  0  0  0  0  0  0  0  0  0  0  0
  -38.5751   -1.9744   11.1905 C   0  0  0  0  0  0  0  0  0  0  0  0
  -38.0029   -0.6418   11.7802 C   0  0  0  0  0  0  0  0  0  0  0  0
  -36.8194   -0.3473   11.0215 O   0  0  0  0  0  0  0  0  0  0  0  0
  -39.5348   -1.9275   10.0593 O   0  0  0  0  0  0  0  0  0  0  0  0
  -37.7338   -3.7780    9.0751 H   0  0  0  0  0  0  0  0  0  0  0  0
  -39.1194   -1.4881    9.3008 H   0  0  0  0  0  0  0  0  0  0  0  0
  -35.1536   -1.4773    9.7462 N   0  0  0  0  0  0  0  0  0  0  0  0
  -34.6305   -0.9690    8.5422 C   0  0  0  0  0  0  0  0  0  0  0  0
  -33.2847   -1.1111    8.3125 N   0  0  0  0  0  0  0  0  0  0  0  0
  -32.3731   -1.7207    9.1768 C   0  0  0  0  0  0  0  0  0  0  0  0
  -32.9380   -2.2322   10.4195 C   0  0  0  0  0  0  0  0  0  0  0  0
  -34.2855   -2.1035   10.6665 C   0  0  0  0  0  0  0  0  0  0  0  0
  -35.3722   -0.3959    7.6799 O   0  0  0  0  0  0  0  0  0  0  0  0
  -31.1894   -1.8188    8.9069 O   0  0  0  0  0  0  0  0  0  0  0  0
  -32.9321   -0.7527    7.4661 H   0  0  0  0  0  0  0  0  0  0  0  0
  -38.0551    2.5923   13.2946 O   0  0  0  0  0  0  0  0  0  0  0  0
  -38.1058    4.1739   13.2536 P   0  0  0  0  0  0  0  0  0  0  0  0
  -36.7422    4.6196   13.2121 O   0  0  0  0  0  0  0  0  0  0  0  0
  -38.8772    4.7894   14.2966 O   0  0  0  0  0  0  0  0  0  0  0  0
  -39.7849    4.4482   14.2718 H   0  0  0  0  0  0  0  0  0  0  0  0
  -38.7320    4.6131   11.8613 O   0  0  0  0  0  0  0  0  0  0  0  0
  -37.8996    4.9489   10.7285 C   0  0  0  0  0  0  0  0  0  0  0  0
  -38.6972    5.8495    9.7536 C   0  0  0  0  0  0  0  0  0  0  0  0
  -39.8484    5.0906    9.1333 C   0  0  0  0  0  0  0  0  0  0  0  0
  -39.2861    3.8911    8.3465 C   0  0  0  0  0  0  0  0  0  0  0  0
  -38.5282    2.9644    9.3353 C   0  0  0  0  0  0  0  0  0  0  0  0
  -40.5559    5.9837    8.2045 O   0  0  0  0  0  0  0  0  0  0  0  0
  -40.3299    3.0376    7.7190 O   0  0  0  0  0  0  0  0  0  0  0  0
  -37.4433    3.7872   10.0140 O   0  0  0  0  0  0  0  0  0  0  0  0
  -39.9414    6.2901    7.5192 H   0  0  0  0  0  0  0  0  0  0  0  0
  -40.8929    2.6548    8.4099 H   0  0  0  0  0  0  0  0  0  0  0  0
  -39.3007    8.2900   10.0355 C   0  0  0  0  0  0  0  0  0  0  0  0
  -39.9123    9.3083   11.0327 C   0  0  0  0  0  0  0  0  0  0  0  0
  -39.2259    7.0259   10.5006 N   0  0  0  0  0  0  0  0  0  0  0  0
  -38.9146    8.5560    8.9134 O   0  0  0  0  0  0  0  0  0  0  0  0
  -39.5499    6.8659   11.4164 H   0  0  0  0  0  0  0  0  0  0  0  0
  -37.9122    1.7488    8.6240 C   0  0  0  0  0  0  0  0  0  0  0  0
  -37.2382    2.0819    7.3490 O   0  0  0  0  0  0  0  0  0  0  0  0
  -37.8862    2.4476    6.7266 H   0  0  0  0  0  0  0  0  0  0  0  0
 31 32  1  0  0  0
 31 30  1  0  0  0
 31 38  1  0  0  0
 32 33  1  0  0  0
 32 43  1  0  0  0
 33 34  1  0  0  0
 33 36  1  0  0  0
 34 35  1  0  0  0
 34 37  1  0  0  0
 35 46  1  0  0  0
 35 38  1  0  0  0
 46 47  1  0  0  0
 41 42  1  0  0  0
 41 43  1  0  0  0
 41 44  2  0  0  0
 30 26  1  0  0  0
 16 17  1  0  0  0
 16 21  1  0  0  0
 16  7  1  0  0  0
 17 18  1  0  0  0
 17 22  2  0  0  0
 18 19  1  0  0  0
 19 20  1  0  0  0
 19 23  2  0  0  0
 20 21  2  0  0  0
  7  8  1  0  0  0
  7 12  1  0  0  0
  8  9  1  0  0  0
  8 10  1  0  0  0
 10 11  1  0  0  0
 10 13  1  0  0  0
 11 12  1  0  0  0
 11  6  1  0  0  0
  6  5  1  0  0  0
  5  1  1  0  0  0
  1  2  2  0  0  0
  1  3  1  0  0  0
  1 25  1  0  0  0
 25 26  1  0  0  0
 26 27  2  0  0  0
 26 28  1  0  0  0
 43 45  1  0  0  0
 36 39  1  0  0  0
 37 40  1  0  0  0
 47 48  1  0  0  0
 18 24  1  0  0  0
  9 14  1  0  0  0
 13 15  1  0  0  0
  3  4  1  0  0  0
 28 29  1  0  0  0
M  END
> <minimizedAffinity>
-10.11354

$$$$
3V4T_UD1_A_501


 48 50  0  0  0  0  0  0  0  0999 V2000
  -37.3423    1.5460   14.6609 P   0  0  0  0  0  0  0  0  0  0  0  0
  -37.1521    1.1883   16.0598 O   0  0  0  0  0  0  0  0  0  0  0  0
  -38.7583    1.6771   14.3496 O   0  0  0  0  0  0  0  0  0  0  0  0
  -39.1835    0.8071   14.4058 H   0  0  0  0  0  0  0  0  0  0  0  0
  -36.7190    0.4478   13.7676 O   0  0  0  0  0  0  0  0  0  0  0  0
  -37.4600   -0.7334   13.3350 C   0  0  0  0  0  0  0  0  0  0  0  0
  -36.7115   -1.3403   10.0631 C   0  0  0  0  0  0  0  0  0  0  0  0
  -37.3130   -2.5721   10.6555 C   0  0  0  0  0  0  0  0  0  0  0  0
  -37.3546   -3.8405    9.8719 O   0  0  0  0  0  0  0  0  0  0  0  0
  -38.6043   -1.9605   11.2822 C   0  0  0  0  0  0  0  0  0  0  0  0
  -37.9866   -0.6513   11.8784 C   0  0  0  0  0  0  0  0  0  0  0  0
  -36.8404   -0.3477   11.0680 O   0  0  0  0  0  0  0  0  0  0  0  0
  -39.6203   -1.8713   10.2040 O   0  0  0  0  0  0  0  0  0  0  0  0
  -37.8947   -3.7117    9.0766 H   0  0  0  0  0  0  0  0  0  0  0  0
  -39.2393   -1.4148    9.4376 H   0  0  0  0  0  0  0  0  0  0  0  0
  -35.2560   -1.4583    9.6770 N   0  0  0  0  0  0  0  0  0  0  0  0
  -34.7818   -0.8871    8.4810 C   0  0  0  0  0  0  0  0  0  0  0  0
  -33.4519   -1.0384    8.1767 N   0  0  0  0  0  0  0  0  0  0  0  0
  -32.5120   -1.7149    8.9567 C   0  0  0  0  0  0  0  0  0  0  0  0
  -33.0261   -2.2909   10.1932 C   0  0  0  0  0  0  0  0  0  0  0  0
  -34.3572   -2.1541   10.5140 C   0  0  0  0  0  0  0  0  0  0  0  0
  -35.5527   -0.2501    7.6924 O   0  0  0  0  0  0  0  0  0  0  0  0
  -31.3450   -1.8170    8.6230 O   0  0  0  0  0  0  0  0  0  0  0  0
  -33.1336   -0.6355    7.3367 H   0  0  0  0  0  0  0  0  0  0  0  0
  -36.5382    2.8244   14.6150 O   0  0  0  0  0  0  0  0  0  0  0  0
  -36.5757    4.0845   15.5724 P   0  0  0  0  0  0  0  0  0  0  0  0
  -35.2849    4.1550   16.1960 O   0  0  0  0  0  0  0  0  0  0  0  0
  -37.6650    4.1113   16.5075 O   0  0  0  0  0  0  0  0  0  0  0  0
  -38.5056    4.0610   16.0262 H   0  0  0  0  0  0  0  0  0  0  0  0
  -36.6763    5.3884   14.6706 O   0  0  0  0  0  0  0  0  0  0  0  0
  -37.6400    6.4291   14.9481 C   0  0  0  0  0  0  0  0  0  0  0  0
  -37.4154    7.6110   13.9733 C   0  0  0  0  0  0  0  0  0  0  0  0
  -36.0859    8.2826   14.2328 C   0  0  0  0  0  0  0  0  0  0  0  0
  -36.0767    8.8256   15.6747 C   0  0  0  0  0  0  0  0  0  0  0  0
  -36.2534    7.6322   16.6522 C   0  0  0  0  0  0  0  0  0  0  0  0
  -35.9344    9.4059   13.2967 O   0  0  0  0  0  0  0  0  0  0  0  0
  -34.7987    9.4774   16.0665 O   0  0  0  0  0  0  0  0  0  0  0  0
  -37.5501    6.9205   16.2967 O   0  0  0  0  0  0  0  0  0  0  0  0
  -36.6633   10.0331   13.4238 H   0  0  0  0  0  0  0  0  0  0  0  0
  -34.0795    8.8277   16.0285 H   0  0  0  0  0  0  0  0  0  0  0  0
  -38.5162    7.1054   11.7524 C   0  0  0  0  0  0  0  0  0  0  0  0
  -38.2486    6.5205   10.3411 C   0  0  0  0  0  0  0  0  0  0  0  0
  -37.4460    7.0994   12.5737 N   0  0  0  0  0  0  0  0  0  0  0  0
  -39.5807    7.5534   12.1331 O   0  0  0  0  0  0  0  0  0  0  0  0
  -36.6094    6.7231   12.2162 H   0  0  0  0  0  0  0  0  0  0  0  0
  -36.2794    8.0916   18.1189 C   0  0  0  0  0  0  0  0  0  0  0  0
  -34.9396    8.1702   18.7433 O   0  0  0  0  0  0  0  0  0  0  0  0
  -34.5353    7.2885   18.7533 H   0  0  0  0  0  0  0  0  0  0  0  0
 31 32  1  0  0  0
 31 30  1  0  0  0
 31 38  1  0  0  0
 32 33  1  0  0  0
 32 43  1  0  0  0
 33 34  1  0  0  0
 33 36  1  0  0  0
 34 35  1  0  0  0
 34 37  1  0  0  0
 35 46  1  0  0  0
 35 38  1  0  0  0
 46 47  1  0  0  0
 41 42  1  0  0  0
 41 43  1  0  0  0
 41 44  2  0  0  0
 30 26  1  0  0  0
 16 17  1  0  0  0
 16 21  1  0  0  0
 16  7  1  0  0  0
 17 18  1  0  0  0
 17 22  2  0  0  0
 18 19  1  0  0  0
 19 20  1  0  0  0
 19 23  2  0  0  0
 20 21  2  0  0  0
  7  8  1  0  0  0
  7 12  1  0  0  0
  8  9  1  0  0  0
  8 10  1  0  0  0
 10 11  1  0  0  0
 10 13  1  0  0  0
 11 12  1  0  0  0
 11  6  1  0  0  0
  6  5  1  0  0  0
  5  1  1  0  0  0
  1  2  2  0  0  0
  1  3  1  0  0  0
  1 25  1  0  0  0
 25 26  1  0  0  0
 26 27  2  0  0  0
 26 28  1  0  0  0
 43 45  1  0  0  0
 36 39  1  0  0  0
 37 40  1  0  0  0
 47 48  1  0  0  0
 18 24  1  0  0  0
  9 14  1  0  0  0
 13 15  1  0  0  0
  3  4  1  0  0  0
 28 29  1  0  0  0
M  END
> <minimizedAffinity>
-10.00307

$$$$
3V4T_UD1_A_501


 48 50  0  0  0  0  0  0  0  0999 V2000
  -38.6685    8.4063   11.6904 P   0  0  0  0  0  0  0  0  0  0  0  0
  -39.7334    7.6775   12.3657 O   0  0  0  0  0  0  0  0  0  0  0  0
  -38.6508    9.8003   12.1094 O   0  0  0  0  0  0  0  0  0  0  0  0
  -39.4501   10.2451   11.7866 H   0  0  0  0  0  0  0  0  0  0  0  0
  -38.8936    8.3318   10.1618 O   0  0  0  0  0  0  0  0  0  0  0  0
  -39.9582    7.5359    9.5580 C   0  0  0  0  0  0  0  0  0  0  0  0
  -39.7979    4.5335    7.9473 C   0  0  0  0  0  0  0  0  0  0  0  0
  -41.1349    5.1470    7.6897 C   0  0  0  0  0  0  0  0  0  0  0  0
  -42.1907    4.3755    6.9721 O   0  0  0  0  0  0  0  0  0  0  0  0
  -40.6878    6.5604    7.2032 C   0  0  0  0  0  0  0  0  0  0  0  0
  -39.5473    6.8240    8.2427 C   0  0  0  0  0  0  0  0  0  0  0  0
  -39.0619    5.5308    8.6367 O   0  0  0  0  0  0  0  0  0  0  0  0
  -40.3585    6.4484    5.7604 O   0  0  0  0  0  0  0  0  0  0  0  0
  -41.8856    4.1669    6.0753 H   0  0  0  0  0  0  0  0  0  0  0  0
  -39.7374    5.7154    5.6265 H   0  0  0  0  0  0  0  0  0  0  0  0
  -39.8189    3.2761    8.7838 N   0  0  0  0  0  0  0  0  0  0  0  0
  -38.7910    2.3210    8.6703 C   0  0  0  0  0  0  0  0  0  0  0  0
  -38.8710    1.1918    9.4466 N   0  0  0  0  0  0  0  0  0  0  0  0
  -39.8919    0.9001   10.3534 C   0  0  0  0  0  0  0  0  0  0  0  0
  -40.9400    1.9078   10.4579 C   0  0  0  0  0  0  0  0  0  0  0  0
  -40.8805    3.0445    9.6849 C   0  0  0  0  0  0  0  0  0  0  0  0
  -37.8121    2.4836    7.8720 O   0  0  0  0  0  0  0  0  0  0  0  0
  -39.9041   -0.1271   11.0080 O   0  0  0  0  0  0  0  0  0  0  0  0
  -38.1466    0.5312    9.3563 H   0  0  0  0  0  0  0  0  0  0  0  0
  -37.4817    7.5758   12.1199 O   0  0  0  0  0  0  0  0  0  0  0  0
  -36.6627    7.5962   13.4744 P   0  0  0  0  0  0  0  0  0  0  0  0
  -37.3589    8.4930   14.3525 O   0  0  0  0  0  0  0  0  0  0  0  0
  -35.2650    7.8966   13.3408 O   0  0  0  0  0  0  0  0  0  0  0  0
  -34.8532    7.2581   12.7377 H   0  0  0  0  0  0  0  0  0  0  0  0
  -36.7903    6.1648   14.1515 O   0  0  0  0  0  0  0  0  0  0  0  0
  -37.9655    5.7834   14.9014 C   0  0  0  0  0  0  0  0  0  0  0  0
  -37.5498    5.3748   16.3359 C   0  0  0  0  0  0  0  0  0  0  0  0
  -36.7163    4.1134   16.3201 C   0  0  0  0  0  0  0  0  0  0  0  0
  -37.5519    2.9735   15.7065 C   0  0  0  0  0  0  0  0  0  0  0  0
  -37.9263    3.3648   14.2513 C   0  0  0  0  0  0  0  0  0  0  0  0
  -36.3682    3.7610   17.7041 O   0  0  0  0  0  0  0  0  0  0  0  0
  -36.8234    1.6815   15.5982 O   0  0  0  0  0  0  0  0  0  0  0  0
  -38.6753    4.6881   14.2975 O   0  0  0  0  0  0  0  0  0  0  0  0
  -37.1802    3.6262   18.2174 H   0  0  0  0  0  0  0  0  0  0  0  0
  -36.0592    1.7894   15.0106 H   0  0  0  0  0  0  0  0  0  0  0  0
  -37.0608    7.1289   18.0918 C   0  0  0  0  0  0  0  0  0  0  0  0
  -36.0458    8.2303   18.4946 C   0  0  0  0  0  0  0  0  0  0  0  0
  -36.7603    6.4814   16.9472 N   0  0  0  0  0  0  0  0  0  0  0  0
  -38.0546    6.8289   18.7252 O   0  0  0  0  0  0  0  0  0  0  0  0
  -35.9459    6.7654   16.4727 H   0  0  0  0  0  0  0  0  0  0  0  0
  -38.7852    2.2867   13.5708 C   0  0  0  0  0  0  0  0  0  0  0  0
  -38.0187    1.0941   13.1450 O   0  0  0  0  0  0  0  0  0  0  0  0
  -37.3561    1.3540   12.4860 H   0  0  0  0  0  0  0  0  0  0  0  0
 31 32  1  0  0  0
 31 30  1  0  0  0
 31 38  1  0  0  0
 32 33  1  0  0  0
 32 43  1  0  0  0
 33 34  1  0  0  0
 33 36  1  0  0  0
 34 35  1  0  0  0
 34 37  1  0  0  0
 35 46  1  0  0  0
 35 38  1  0  0  0
 46 47  1  0  0  0
 41 42  1  0  0  0
 41 43  1  0  0  0
 41 44  2  0  0  0
 30 26  1  0  0  0
 16 17  1  0  0  0
 16 21  1  0  0  0
 16  7  1  0  0  0
 17 18  1  0  0  0
 17 22  2  0  0  0
 18 19  1  0  0  0
 19 20  1  0  0  0
 19 23  2  0  0  0
 20 21  2  0  0  0
  7  8  1  0  0  0
  7 12  1  0  0  0
  8  9  1  0  0  0
  8 10  1  0  0  0
 10 11  1  0  0  0
 10 13  1  0  0  0
 11 12  1  0  0  0
 11  6  1  0  0  0
  6  5  1  0  0  0
  5  1  1  0  0  0
  1  2  2  0  0  0
  1  3  1  0  0  0
  1 25  1  0  0  0
 25 26  1  0  0  0
 26 27  2  0  0  0
 26 28  1  0  0  0
 43 45  1  0  0  0
 36 39  1  0  0  0
 37 40  1  0  0  0
 47 48  1  0  0  0
 18 24  1  0  0  0
  9 14  1  0  0  0
 13 15  1  0  0  0
  3  4  1  0  0  0
 28 29  1  0  0  0
M  END
> <minimizedAffinity>
-9.93987

$$$$
3V4T_UD1_A_501


 48 50  0  0  0  0  0  0  0  0999 V2000
  -38.6888    3.5047   11.3522 P   0  0  0  0  0  0  0  0  0  0  0  0
  -40.1159    3.5970   11.0766 O   0  0  0  0  0  0  0  0  0  0  0  0
  -38.3362    2.1672   11.8060 O   0  0  0  0  0  0  0  0  0  0  0  0
  -38.7313    2.0067   12.6772 H   0  0  0  0  0  0  0  0  0  0  0  0
  -38.3161    4.5334   12.4457 O   0  0  0  0  0  0  0  0  0  0  0  0
  -39.0566    5.7754   12.6469 C   0  0  0  0  0  0  0  0  0  0  0  0
  -38.9959    8.1785   10.2271 C   0  0  0  0  0  0  0  0  0  0  0  0
  -39.8879    8.6337   11.3349 C   0  0  0  0  0  0  0  0  0  0  0  0
  -40.6934    9.8804   11.1879 O   0  0  0  0  0  0  0  0  0  0  0  0
  -38.9310    8.4219   12.5488 C   0  0  0  0  0  0  0  0  0  0  0  0
  -38.3195    7.0410   12.1362 C   0  0  0  0  0  0  0  0  0  0  0  0
  -38.3978    6.9838   10.7032 O   0  0  0  0  0  0  0  0  0  0  0  0
  -38.0567    9.6180   12.6373 O   0  0  0  0  0  0  0  0  0  0  0  0
  -40.0985   10.6389   11.0801 H   0  0  0  0  0  0  0  0  0  0  0  0
  -37.6483    9.7847   11.7734 H   0  0  0  0  0  0  0  0  0  0  0  0
  -39.6933    7.8880    8.9192 N   0  0  0  0  0  0  0  0  0  0  0  0
  -39.9659    8.9234    8.0053 C   0  0  0  0  0  0  0  0  0  0  0  0
  -40.6140    8.6007    6.8392 N   0  0  0  0  0  0  0  0  0  0  0  0
  -41.0320    7.3207    6.4696 C   0  0  0  0  0  0  0  0  0  0  0  0
  -40.7317    6.2652    7.4292 C   0  0  0  0  0  0  0  0  0  0  0  0
  -40.0867    6.5690    8.6061 C   0  0  0  0  0  0  0  0  0  0  0  0
  -39.6314   10.1293    8.2417 O   0  0  0  0  0  0  0  0  0  0  0  0
  -41.6096    7.1051    5.4191 O   0  0  0  0  0  0  0  0  0  0  0  0
  -40.7999    9.3343    6.2095 H   0  0  0  0  0  0  0  0  0  0  0  0
  -38.1437    3.9054   10.0013 O   0  0  0  0  0  0  0  0  0  0  0  0
  -38.0043    3.0612    8.6695 P   0  0  0  0  0  0  0  0  0  0  0  0
  -37.1700    3.8302    7.7906 O   0  0  0  0  0  0  0  0  0  0  0  0
  -39.2437    2.6532    8.0701 O   0  0  0  0  0  0  0  0  0  0  0  0
  -39.7596    2.1400    8.7115 H   0  0  0  0  0  0  0  0  0  0  0  0
  -37.1687    1.7510    8.9993 O   0  0  0  0  0  0  0  0  0  0  0  0
  -37.3025    0.5482    8.2092 C   0  0  0  0  0  0  0  0  0  0  0  0
  -37.0652   -0.6881    9.1108 C   0  0  0  0  0  0  0  0  0  0  0  0
  -35.6333   -0.7402    9.5936 C   0  0  0  0  0  0  0  0  0  0  0  0
  -34.7002   -0.8363    8.3712 C   0  0  0  0  0  0  0  0  0  0  0  0
  -34.9050    0.4283    7.4938 C   0  0  0  0  0  0  0  0  0  0  0  0
  -35.4593   -1.9401   10.4248 O   0  0  0  0  0  0  0  0  0  0  0  0
  -33.2535   -0.8538    8.7156 O   0  0  0  0  0  0  0  0  0  0  0  0
  -36.3755    0.5023    7.1107 O   0  0  0  0  0  0  0  0  0  0  0  0
  -35.6712   -2.7291    9.9019 H   0  0  0  0  0  0  0  0  0  0  0  0
  -33.0167   -0.0243    9.1593 H   0  0  0  0  0  0  0  0  0  0  0  0
  -38.5624   -1.6670   10.8996 C   0  0  0  0  0  0  0  0  0  0  0  0
  -39.4566   -1.2910   12.1097 C   0  0  0  0  0  0  0  0  0  0  0  0
  -37.9804   -0.6165   10.2850 N   0  0  0  0  0  0  0  0  0  0  0  0
  -38.3622   -2.7992   10.5034 O   0  0  0  0  0  0  0  0  0  0  0  0
  -38.1781    0.2783   10.6446 H   0  0  0  0  0  0  0  0  0  0  0  0
  -34.0242    0.4009    6.2343 C   0  0  0  0  0  0  0  0  0  0  0  0
  -32.6581    0.9285    6.4500 O   0  0  0  0  0  0  0  0  0  0  0  0
  -32.7093    1.8610    6.7122 H   0  0  0  0  0  0  0  0  0  0  0  0
 31 32  1  0  0  0
 31 30  1  0  0  0
 31 38  1  0  0  0
 32 33  1  0  0  0
 32 43  1  0  0  0
 33 34  1  0  0  0
 33 36  1  0  0  0
 34 35  1  0  0  0
 34 37  1  0  0  0
 35 46  1  0  0  0
 35 38  1  0  0  0
 46 47  1  0  0  0
 41 42  1  0  0  0
 41 43  1  0  0  0
 41 44  2  0  0  0
 30 26  1  0  0  0
 16 17  1  0  0  0
 16 21  1  0  0  0
 16  7  1  0  0  0
 17 18  1  0  0  0
 17 22  2  0  0  0
 18 19  1  0  0  0
 19 20  1  0  0  0
 19 23  2  0  0  0
 20 21  2  0  0  0
  7  8  1  0  0  0
  7 12  1  0  0  0
  8  9  1  0  0  0
  8 10  1  0  0  0
 10 11  1  0  0  0
 10 13  1  0  0  0
 11 12  1  0  0  0
 11  6  1  0  0  0
  6  5  1  0  0  0
  5  1  1  0  0  0
  1  2  2  0  0  0
  1  3  1  0  0  0
  1 25  1  0  0  0
 25 26  1  0  0  0
 26 27  2  0  0  0
 26 28  1  0  0  0
 43 45  1  0  0  0
 36 39  1  0  0  0
 37 40  1  0  0  0
 47 48  1  0  0  0
 18 24  1  0  0  0
  9 14  1  0  0  0
 13 15  1  0  0  0
  3  4  1  0  0  0
 28 29  1  0  0  0
M  END
> <minimizedAffinity>
-9.87156

$$$$
3V4T_UD1_A_501


 48 50  0  0  0  0  0  0  0  0999 V2000
  -38.5778    3.6466   12.8322 P   0  0  0  0  0  0  0  0  0  0  0  0
  -39.5970    4.6331   13.1623 O   0  0  0  0  0  0  0  0  0  0  0  0
  -37.6067    4.2001   11.8995 O   0  0  0  0  0  0  0  0  0  0  0  0
  -38.0343    4.3580   11.0433 H   0  0  0  0  0  0  0  0  0  0  0  0
  -39.2559    2.4108   12.1951 O   0  0  0  0  0  0  0  0  0  0  0  0
  -40.0031    2.4778   10.9427 C   0  0  0  0  0  0  0  0  0  0  0  0
  -38.3682    0.0317    9.2170 C   0  0  0  0  0  0  0  0  0  0  0  0
  -38.2821   -0.2699   10.6771 C   0  0  0  0  0  0  0  0  0  0  0  0
  -37.4354   -1.3974   11.1635 O   0  0  0  0  0  0  0  0  0  0  0  0
  -39.7911   -0.1624   11.0586 C   0  0  0  0  0  0  0  0  0  0  0  0
  -40.1605    1.1111   10.2264 C   0  0  0  0  0  0  0  0  0  0  0  0
  -39.2430    1.1440    9.1218 O   0  0  0  0  0  0  0  0  0  0  0  0
  -40.4240   -1.4648   10.7328 O   0  0  0  0  0  0  0  0  0  0  0  0
  -37.7704   -2.2328   10.8019 H   0  0  0  0  0  0  0  0  0  0  0  0
  -40.2134   -1.7066    9.8174 H   0  0  0  0  0  0  0  0  0  0  0  0
  -37.0568    0.3837    8.5556 N   0  0  0  0  0  0  0  0  0  0  0  0
  -36.1709   -0.6262    8.1349 C   0  0  0  0  0  0  0  0  0  0  0  0
  -34.9880   -0.2452    7.5521 N   0  0  0  0  0  0  0  0  0  0  0  0
  -34.5775    1.0713    7.3330 C   0  0  0  0  0  0  0  0  0  0  0  0
  -35.5151    2.0981    7.7706 C   0  0  0  0  0  0  0  0  0  0  0  0
  -36.7042    1.7366    8.3613 C   0  0  0  0  0  0  0  0  0  0  0  0
  -36.4430   -1.8609    8.2880 O   0  0  0  0  0  0  0  0  0  0  0  0
  -33.5084    1.3396    6.8144 O   0  0  0  0  0  0  0  0  0  0  0  0
  -34.3769   -0.9612    7.2639 H   0  0  0  0  0  0  0  0  0  0  0  0
  -38.0592    3.3447   14.2187 O   0  0  0  0  0  0  0  0  0  0  0  0
  -36.8889    4.0266   15.0379 P   0  0  0  0  0  0  0  0  0  0  0  0
  -35.6801    3.3609   14.6434 O   0  0  0  0  0  0  0  0  0  0  0  0
  -37.0805    4.0690   16.4603 O   0  0  0  0  0  0  0  0  0  0  0  0
  -37.9103    4.5294   16.6612 H   0  0  0  0  0  0  0  0  0  0  0  0
  -36.7302    5.5212   14.5234 O   0  0  0  0  0  0  0  0  0  0  0  0
  -37.5891    6.5816   14.9995 C   0  0  0  0  0  0  0  0  0  0  0  0
  -37.5204    7.7780   14.0190 C   0  0  0  0  0  0  0  0  0  0  0  0
  -36.1455    8.4070   14.0267 C   0  0  0  0  0  0  0  0  0  0  0  0
  -35.8408    8.9177   15.4481 C   0  0  0  0  0  0  0  0  0  0  0  0
  -35.8623    7.7083   16.4217 C   0  0  0  0  0  0  0  0  0  0  0  0
  -36.1429    9.5460   13.0975 O   0  0  0  0  0  0  0  0  0  0  0  0
  -34.4915    9.5253   15.5952 O   0  0  0  0  0  0  0  0  0  0  0  0
  -37.2249    7.0404   16.3129 O   0  0  0  0  0  0  0  0  0  0  0  0
  -36.8136   10.1902   13.3737 H   0  0  0  0  0  0  0  0  0  0  0  0
  -33.8138    8.8571   15.4079 H   0  0  0  0  0  0  0  0  0  0  0  0
  -38.9314    7.6234   11.9251 C   0  0  0  0  0  0  0  0  0  0  0  0
  -38.9877    6.9848   10.5127 C   0  0  0  0  0  0  0  0  0  0  0  0
  -37.8370    7.2985   12.6438 N   0  0  0  0  0  0  0  0  0  0  0  0
  -39.7727    8.3688   12.3891 O   0  0  0  0  0  0  0  0  0  0  0  0
  -37.1888    6.6895   12.2217 H   0  0  0  0  0  0  0  0  0  0  0  0
  -35.5898    8.1358   17.8729 C   0  0  0  0  0  0  0  0  0  0  0  0
  -36.3614    7.3680   18.8760 O   0  0  0  0  0  0  0  0  0  0  0  0
  -37.3100    7.5136   18.7349 H   0  0  0  0  0  0  0  0  0  0  0  0
 31 32  1  0  0  0
 31 30  1  0  0  0
 31 38  1  0  0  0
 32 33  1  0  0  0
 32 43  1  0  0  0
 33 34  1  0  0  0
 33 36  1  0  0  0
 34 35  1  0  0  0
 34 37  1  0  0  0
 35 46  1  0  0  0
 35 38  1  0  0  0
 46 47  1  0  0  0
 41 42  1  0  0  0
 41 43  1  0  0  0
 41 44  2  0  0  0
 30 26  1  0  0  0
 16 17  1  0  0  0
 16 21  1  0  0  0
 16  7  1  0  0  0
 17 18  1  0  0  0
 17 22  2  0  0  0
 18 19  1  0  0  0
 19 20  1  0  0  0
 19 23  2  0  0  0
 20 21  2  0  0  0
  7  8  1  0  0  0
  7 12  1  0  0  0
  8  9  1  0  0  0
  8 10  1  0  0  0
 10 11  1  0  0  0
 10 13  1  0  0  0
 11 12  1  0  0  0
 11  6  1  0  0  0
  6  5  1  0  0  0
  5  1  1  0  0  0
  1  2  2  0  0  0
  1  3  1  0  0  0
  1 25  1  0  0  0
 25 26  1  0  0  0
 26 27  2  0  0  0
 26 28  1  0  0  0
 43 45  1  0  0  0
 36 39  1  0  0  0
 37 40  1  0  0  0
 47 48  1  0  0  0
 18 24  1  0  0  0
  9 14  1  0  0  0
 13 15  1  0  0  0
  3  4  1  0  0  0
 28 29  1  0  0  0
M  END
> <minimizedAffinity>
-9.85220

$$$$
3V4T_UD1_A_501


 48 50  0  0  0  0  0  0  0  0999 V2000
  -37.7856    1.4867   14.8207 P   0  0  0  0  0  0  0  0  0  0  0  0
  -37.2011    1.3378   16.1463 O   0  0  0  0  0  0  0  0  0  0  0  0
  -39.1499    0.9796   14.7982 O   0  0  0  0  0  0  0  0  0  0  0  0
  -39.1392    0.0171   14.9184 H   0  0  0  0  0  0  0  0  0  0  0  0
  -36.9291    0.7034   13.7981 O   0  0  0  0  0  0  0  0  0  0  0  0
  -37.3145   -0.6078   13.2849 C   0  0  0  0  0  0  0  0  0  0  0  0
  -36.6212   -1.3182   10.0216 C   0  0  0  0  0  0  0  0  0  0  0  0
  -37.1962   -2.5358   10.6674 C   0  0  0  0  0  0  0  0  0  0  0  0
  -37.2372   -3.8308    9.9285 O   0  0  0  0  0  0  0  0  0  0  0  0
  -38.4827   -1.9179   11.2979 C   0  0  0  0  0  0  0  0  0  0  0  0
  -37.8698   -0.5820   11.8369 C   0  0  0  0  0  0  0  0  0  0  0  0
  -36.7430   -0.2932   10.9943 O   0  0  0  0  0  0  0  0  0  0  0  0
  -39.5201   -1.8776   10.2372 O   0  0  0  0  0  0  0  0  0  0  0  0
  -37.7939   -3.7357    9.1399 H   0  0  0  0  0  0  0  0  0  0  0  0
  -39.1594   -1.4434    9.4484 H   0  0  0  0  0  0  0  0  0  0  0  0
  -35.1720   -1.4327    9.6115 N   0  0  0  0  0  0  0  0  0  0  0  0
  -34.7150   -0.8435    8.4175 C   0  0  0  0  0  0  0  0  0  0  0  0
  -33.3902   -0.9923    8.0905 N   0  0  0  0  0  0  0  0  0  0  0  0
  -32.4398   -1.6825    8.8454 C   0  0  0  0  0  0  0  0  0  0  0  0
  -32.9361   -2.2769   10.0804 C   0  0  0  0  0  0  0  0  0  0  0  0
  -34.2619   -2.1430   10.4237 C   0  0  0  0  0  0  0  0  0  0  0  0
  -35.4966   -0.1929    7.6509 O   0  0  0  0  0  0  0  0  0  0  0  0
  -31.2782   -1.7813    8.4923 O   0  0  0  0  0  0  0  0  0  0  0  0
  -33.0840   -0.5768    7.2521 H   0  0  0  0  0  0  0  0  0  0  0  0
  -37.6364    2.9799   14.6446 O   0  0  0  0  0  0  0  0  0  0  0  0
  -36.5493    3.9697   15.2312 P   0  0  0  0  0  0  0  0  0  0  0  0
  -35.3381    3.7140   14.5048 O   0  0  0  0  0  0  0  0  0  0  0  0
  -36.3824    3.9215   16.6566 O   0  0  0  0  0  0  0  0  0  0  0  0
  -37.2324    4.1015   17.0879 H   0  0  0  0  0  0  0  0  0  0  0  0
  -36.9668    5.4516   14.8399 O   0  0  0  0  0  0  0  0  0  0  0  0
  -36.3698    6.1350   13.7150 C   0  0  0  0  0  0  0  0  0  0  0  0
  -36.3986    7.6624   13.9670 C   0  0  0  0  0  0  0  0  0  0  0  0
  -37.8182    8.1825   13.9833 C   0  0  0  0  0  0  0  0  0  0  0  0
  -38.4674    7.8973   12.6152 C   0  0  0  0  0  0  0  0  0  0  0  0
  -38.4813    6.3616   12.3866 C   0  0  0  0  0  0  0  0  0  0  0  0
  -37.7856    9.6354   14.2046 O   0  0  0  0  0  0  0  0  0  0  0  0
  -39.8874    8.3286   12.5189 O   0  0  0  0  0  0  0  0  0  0  0  0
  -37.0481    5.8592   12.4772 O   0  0  0  0  0  0  0  0  0  0  0  0
  -37.2759   10.0590   13.4963 H   0  0  0  0  0  0  0  0  0  0  0  0
  -40.4186    7.8391   13.1662 H   0  0  0  0  0  0  0  0  0  0  0  0
  -34.7328    8.8110   15.4853 C   0  0  0  0  0  0  0  0  0  0  0  0
  -34.2717    8.9200   16.9621 C   0  0  0  0  0  0  0  0  0  0  0  0
  -35.7514    7.9512   15.2782 N   0  0  0  0  0  0  0  0  0  0  0  0
  -34.2556    9.4340   14.5563 O   0  0  0  0  0  0  0  0  0  0  0  0
  -36.0987    7.4709   16.0643 H   0  0  0  0  0  0  0  0  0  0  0  0
  -39.0940    5.9900   11.0266 C   0  0  0  0  0  0  0  0  0  0  0  0
  -38.8702    7.0062    9.9738 O   0  0  0  0  0  0  0  0  0  0  0  0
  -39.2951    7.8389   10.2326 H   0  0  0  0  0  0  0  0  0  0  0  0
 31 32  1  0  0  0
 31 30  1  0  0  0
 31 38  1  0  0  0
 32 33  1  0  0  0
 32 43  1  0  0  0
 33 34  1  0  0  0
 33 36  1  0  0  0
 34 35  1  0  0  0
 34 37  1  0  0  0
 35 46  1  0  0  0
 35 38  1  0  0  0
 46 47  1  0  0  0
 41 42  1  0  0  0
 41 43  1  0  0  0
 41 44  2  0  0  0
 30 26  1  0  0  0
 16 17  1  0  0  0
 16 21  1  0  0  0
 16  7  1  0  0  0
 17 18  1  0  0  0
 17 22  2  0  0  0
 18 19  1  0  0  0
 19 20  1  0  0  0
 19 23  2  0  0  0
 20 21  2  0  0  0
  7  8  1  0  0  0
  7 12  1  0  0  0
  8  9  1  0  0  0
  8 10  1  0  0  0
 10 11  1  0  0  0
 10 13  1  0  0  0
 11 12  1  0  0  0
 11  6  1  0  0  0
  6  5  1  0  0  0
  5  1  1  0  0  0
  1  2  2  0  0  0
  1  3  1  0  0  0
  1 25  1  0  0  0
 25 26  1  0  0  0
 26 27  2  0  0  0
 26 28  1  0  0  0
 43 45  1  0  0  0
 36 39  1  0  0  0
 37 40  1  0  0  0
 47 48  1  0  0  0
 18 24  1  0  0  0
  9 14  1  0  0  0
 13 15  1  0  0  0
  3  4  1  0  0  0
 28 29  1  0  0  0
M  END
> <minimizedAffinity>
-9.73819

$$$$
3V4T_UD1_A_501


 48 50  0  0  0  0  0  0  0  0999 V2000
  -39.0389    8.0161   11.8631 P   0  0  0  0  0  0  0  0  0  0  0  0
  -40.3852    8.5127   12.1116 O   0  0  0  0  0  0  0  0  0  0  0  0
  -38.4028    8.7643   10.7886 O   0  0  0  0  0  0  0  0  0  0  0  0
  -38.8560    8.5767    9.9517 H   0  0  0  0  0  0  0  0  0  0  0  0
  -39.1139    6.5208   11.4740 O   0  0  0  0  0  0  0  0  0  0  0  0
  -38.4188    5.9707   10.3140 C   0  0  0  0  0  0  0  0  0  0  0  0
  -38.6312    3.1052    8.4762 C   0  0  0  0  0  0  0  0  0  0  0  0
  -39.0981    2.8211    9.8660 C   0  0  0  0  0  0  0  0  0  0  0  0
  -39.4094    1.4236   10.2839 O   0  0  0  0  0  0  0  0  0  0  0  0
  -40.1380    3.9718   10.0357 C   0  0  0  0  0  0  0  0  0  0  0  0
  -39.3236    5.1331    9.3731 C   0  0  0  0  0  0  0  0  0  0  0  0
  -38.4342    4.5091    8.4336 O   0  0  0  0  0  0  0  0  0  0  0  0
  -41.4078    3.5158    9.4171 O   0  0  0  0  0  0  0  0  0  0  0  0
  -40.1424    1.0816    9.7484 H   0  0  0  0  0  0  0  0  0  0  0  0
  -41.2342    3.2033    8.5154 H   0  0  0  0  0  0  0  0  0  0  0  0
  -37.3458    2.4193    8.0779 N   0  0  0  0  0  0  0  0  0  0  0  0
  -37.3497    1.0771    7.6535 C   0  0  0  0  0  0  0  0  0  0  0  0
  -36.1491    0.5034    7.3169 N   0  0  0  0  0  0  0  0  0  0  0  0
  -34.9062    1.1385    7.3552 C   0  0  0  0  0  0  0  0  0  0  0  0
  -34.9297    2.5294    7.7907 C   0  0  0  0  0  0  0  0  0  0  0  0
  -36.1227    3.1215    8.1369 C   0  0  0  0  0  0  0  0  0  0  0  0
  -38.4267    0.4010    7.5834 O   0  0  0  0  0  0  0  0  0  0  0  0
  -33.8757    0.5664    7.0479 O   0  0  0  0  0  0  0  0  0  0  0  0
  -36.1657   -0.4362    7.0233 H   0  0  0  0  0  0  0  0  0  0  0  0
  -38.4418    8.2046   13.2382 O   0  0  0  0  0  0  0  0  0  0  0  0
  -36.9973    7.8466   13.7776 P   0  0  0  0  0  0  0  0  0  0  0  0
  -36.7812    8.6743   14.9300 O   0  0  0  0  0  0  0  0  0  0  0  0
  -35.9425    7.9307   12.8070 O   0  0  0  0  0  0  0  0  0  0  0  0
  -36.1469    7.3513   12.0564 H   0  0  0  0  0  0  0  0  0  0  0  0
  -37.0309    6.3583   14.3321 O   0  0  0  0  0  0  0  0  0  0  0  0
  -38.1398    5.8676   15.1186 C   0  0  0  0  0  0  0  0  0  0  0  0
  -37.6187    5.3762   16.4914 C   0  0  0  0  0  0  0  0  0  0  0  0
  -36.7338    4.1607   16.3318 C   0  0  0  0  0  0  0  0  0  0  0  0
  -37.5554    3.0296   15.6839 C   0  0  0  0  0  0  0  0  0  0  0  0
  -38.0358    3.5072   14.2867 C   0  0  0  0  0  0  0  0  0  0  0  0
  -36.2858    3.7257   17.6626 O   0  0  0  0  0  0  0  0  0  0  0  0
  -36.7796    1.7853   15.4361 O   0  0  0  0  0  0  0  0  0  0  0  0
  -38.8373    4.7863   14.4763 O   0  0  0  0  0  0  0  0  0  0  0  0
  -37.0578    3.5152   18.2108 H   0  0  0  0  0  0  0  0  0  0  0  0
  -36.0586    1.9721   14.8146 H   0  0  0  0  0  0  0  0  0  0  0  0
  -37.1884    7.1307   18.2622 C   0  0  0  0  0  0  0  0  0  0  0  0
  -36.1757    8.2162   18.7112 C   0  0  0  0  0  0  0  0  0  0  0  0
  -36.8418    6.4720   17.1372 N   0  0  0  0  0  0  0  0  0  0  0  0
  -38.2183    6.8515   18.8455 O   0  0  0  0  0  0  0  0  0  0  0  0
  -35.9994    6.7392   16.7034 H   0  0  0  0  0  0  0  0  0  0  0  0
  -38.8875    2.4415   13.5783 C   0  0  0  0  0  0  0  0  0  0  0  0
  -38.0905    1.4164   12.8676 O   0  0  0  0  0  0  0  0  0  0  0  0
  -37.5684    1.8402   12.1685 H   0  0  0  0  0  0  0  0  0  0  0  0
 31 32  1  0  0  0
 31 30  1  0  0  0
 31 38  1  0  0  0
 32 33  1  0  0  0
 32 43  1  0  0  0
 33 34  1  0  0  0
 33 36  1  0  0  0
 34 35  1  0  0  0
 34 37  1  0  0  0
 35 46  1  0  0  0
 35 38  1  0  0  0
 46 47  1  0  0  0
 41 42  1  0  0  0
 41 43  1  0  0  0
 41 44  2  0  0  0
 30 26  1  0  0  0
 16 17  1  0  0  0
 16 21  1  0  0  0
 16  7  1  0  0  0
 17 18  1  0  0  0
 17 22  2  0  0  0
 18 19  1  0  0  0
 19 20  1  0  0  0
 19 23  2  0  0  0
 20 21  2  0  0  0
  7  8  1  0  0  0
  7 12  1  0  0  0
  8  9  1  0  0  0
  8 10  1  0  0  0
 10 11  1  0  0  0
 10 13  1  0  0  0
 11 12  1  0  0  0
 11  6  1  0  0  0
  6  5  1  0  0  0
  5  1  1  0  0  0
  1  2  2  0  0  0
  1  3  1  0  0  0
  1 25  1  0  0  0
 25 26  1  0  0  0
 26 27  2  0  0  0
 26 28  1  0  0  0
 43 45  1  0  0  0
 36 39  1  0  0  0
 37 40  1  0  0  0
 47 48  1  0  0  0
 18 24  1  0  0  0
  9 14  1  0  0  0
 13 15  1  0  0  0
  3  4  1  0  0  0
 28 29  1  0  0  0
M  END
> <minimizedAffinity>
-9.73196

$$$$
