5UEZ_89G_A_501


 23 25  0  0  0  0  0  0  0  0999 V2000
   10.7576   10.9196    0.8473 C   0  0  0  0  0  0  0  0  0  0  0  0
   12.6430    9.5007    0.3931 C   0  0  0  0  0  0  0  0  0  0  0  0
   13.3472   10.6185   -0.0056 C   0  0  0  0  0  0  0  0  0  0  0  0
   11.3297    9.6612    0.8074 C   0  0  0  0  0  0  0  0  0  0  0  0
   11.4687   12.0408    0.4667 C   0  0  0  0  0  0  0  0  0  0  0  0
   12.7735   11.8758    0.0238 C   0  0  0  0  0  0  0  0  0  0  0  0
   16.2631   10.1109   -2.2862 C   0  0  0  0  0  0  0  0  0  0  0  0
   14.9920   10.3466   -1.8882 C   0  0  0  0  0  0  0  0  0  0  0  0
   17.9625   10.2258    1.0877 C   0  0  0  0  0  0  0  0  0  0  0  0
   14.7565   10.4532   -0.4380 C   0  0  0  0  0  0  0  0  0  0  0  0
   17.3457   10.0479   -1.2573 C   0  0  0  0  0  0  0  0  0  0  0  0
   15.6772   10.4072    0.4675 N   0  0  0  0  0  0  0  0  0  0  0  0
   16.9566   10.2482    0.0439 N   0  0  0  0  0  0  0  0  0  0  0  0
   18.5147    9.8486   -1.5970 O   0  0  0  0  0  0  0  0  0  0  0  0
   14.2867   10.5167   -4.0765 C   0  0  0  0  0  0  0  0  0  0  0  0
   13.8714   10.4457   -2.7115 O   0  0  0  0  0  0  0  0  0  0  0  0
   13.5697   12.9455   -0.3662 O   0  0  0  0  0  0  0  0  0  0  0  0
   11.9157   14.7248   -3.1224 C   0  0  0  0  0  0  0  0  0  0  0  0
   14.4241   13.8636   -2.3498 C   0  0  0  0  0  0  0  0  0  0  0  0
   12.0660   14.0562   -1.9248 C   0  0  0  0  0  0  0  0  0  0  0  0
   13.0110   14.9449   -3.9344 C   0  0  0  0  0  0  0  0  0  0  0  0
   14.2649   14.5057   -3.5586 C   0  0  0  0  0  0  0  0  0  0  0  0
   13.3287   13.6470   -1.5371 C   0  0  0  0  0  0  0  0  0  0  0  0
 21 22  2  0  0  0
 21 18  1  0  0  0
 22 19  1  0  0  0
 18 20  2  0  0  0
 19 23  2  0  0  0
 20 23  1  0  0  0
 23 17  1  0  0  0
  5  6  2  0  0  0
  5  1  1  0  0  0
 17  6  1  0  0  0
  6  3  1  0  0  0
  1  4  2  0  0  0
 15 16  1  0  0  0
 16  8  1  0  0  0
  4  2  1  0  0  0
  3  2  2  0  0  0
  3 10  1  0  0  0
  8 10  1  0  0  0
  8  7  2  0  0  0
 10 12  2  0  0  0
  7 11  1  0  0  0
 12 13  1  0  0  0
 11 13  1  0  0  0
 11 14  2  0  0  0
 13  9  1  0  0  0
M  END
> <minimizedAffinity>
-7.49088

$$$$
5UEZ_89G_A_501


 23 25  0  0  0  0  0  0  0  0999 V2000
   17.6234   11.6923   -1.8815 C   0  0  0  0  0  0  0  0  0  0  0  0
   16.0005   12.2060   -0.1854 C   0  0  0  0  0  0  0  0  0  0  0  0
   15.0418   11.5859   -0.9604 C   0  0  0  0  0  0  0  0  0  0  0  0
   17.2991   12.2685   -0.6669 C   0  0  0  0  0  0  0  0  0  0  0  0
   16.6677   11.0547   -2.6483 C   0  0  0  0  0  0  0  0  0  0  0  0
   15.3620   11.0186   -2.1796 C   0  0  0  0  0  0  0  0  0  0  0  0
   11.5228   12.6092   -0.2319 C   0  0  0  0  0  0  0  0  0  0  0  0
   12.7637   12.6335   -0.7697 C   0  0  0  0  0  0  0  0  0  0  0  0
   11.6931    9.2433    1.4786 C   0  0  0  0  0  0  0  0  0  0  0  0
   13.6537   11.5058   -0.4437 C   0  0  0  0  0  0  0  0  0  0  0  0
   11.1088   11.4274    0.5844 C   0  0  0  0  0  0  0  0  0  0  0  0
   13.3150   10.4726    0.2546 N   0  0  0  0  0  0  0  0  0  0  0  0
   12.0413   10.4291    0.7206 N   0  0  0  0  0  0  0  0  0  0  0  0
    9.9773   11.3756    1.0731 O   0  0  0  0  0  0  0  0  0  0  0  0
   12.2525   14.3364   -2.2372 C   0  0  0  0  0  0  0  0  0  0  0  0
   13.3042   13.6471   -1.5595 O   0  0  0  0  0  0  0  0  0  0  0  0
   14.3371   10.3886   -2.8747 O   0  0  0  0  0  0  0  0  0  0  0  0
   13.5904   12.2615   -5.9460 C   0  0  0  0  0  0  0  0  0  0  0  0
   13.7663    9.6609   -5.0316 C   0  0  0  0  0  0  0  0  0  0  0  0
   13.9269   12.0253   -4.6289 C   0  0  0  0  0  0  0  0  0  0  0  0
   13.3273   11.2033   -6.7937 C   0  0  0  0  0  0  0  0  0  0  0  0
   13.4018    9.9019   -6.3384 C   0  0  0  0  0  0  0  0  0  0  0  0
   14.0324   10.7196   -4.1858 C   0  0  0  0  0  0  0  0  0  0  0  0
 21 22  2  0  0  0
 21 18  1  0  0  0
 22 19  1  0  0  0
 18 20  2  0  0  0
 19 23  2  0  0  0
 20 23  1  0  0  0
 23 17  1  0  0  0
  5  6  2  0  0  0
  5  1  1  0  0  0
 17  6  1  0  0  0
  6  3  1  0  0  0
  1  4  2  0  0  0
 15 16  1  0  0  0
 16  8  1  0  0  0
  4  2  1  0  0  0
  3  2  2  0  0  0
  3 10  1  0  0  0
  8 10  1  0  0  0
  8  7  2  0  0  0
 10 12  2  0  0  0
  7 11  1  0  0  0
 12 13  1  0  0  0
 11 13  1  0  0  0
 11 14  2  0  0  0
 13  9  1  0  0  0
M  END
> <minimizedAffinity>
-7.43136

$$$$
5UEZ_89G_A_501


 23 25  0  0  0  0  0  0  0  0999 V2000
   11.0527   12.8535    0.2250 C   0  0  0  0  0  0  0  0  0  0  0  0
   13.3124   12.9276   -0.5889 C   0  0  0  0  0  0  0  0  0  0  0  0
   13.4548   11.6058   -0.2189 C   0  0  0  0  0  0  0  0  0  0  0  0
   12.0996   13.5538   -0.3459 C   0  0  0  0  0  0  0  0  0  0  0  0
   11.1890   11.5250    0.5776 C   0  0  0  0  0  0  0  0  0  0  0  0
   12.4127   10.9072    0.3614 C   0  0  0  0  0  0  0  0  0  0  0  0
   16.1535    9.8668   -2.1307 C   0  0  0  0  0  0  0  0  0  0  0  0
   15.0175   10.5602   -1.8887 C   0  0  0  0  0  0  0  0  0  0  0  0
   17.5864    9.8545    1.3666 C   0  0  0  0  0  0  0  0  0  0  0  0
   14.7465   10.9281   -0.4883 C   0  0  0  0  0  0  0  0  0  0  0  0
   17.0865    9.5847   -0.9974 C   0  0  0  0  0  0  0  0  0  0  0  0
   15.5409   10.6991    0.5048 N   0  0  0  0  0  0  0  0  0  0  0  0
   16.7123   10.0715    0.2305 N   0  0  0  0  0  0  0  0  0  0  0  0
   18.1357    8.9669   -1.1957 O   0  0  0  0  0  0  0  0  0  0  0  0
   14.3251   10.2659   -4.0679 C   0  0  0  0  0  0  0  0  0  0  0  0
   14.0488   10.9156   -2.8262 O   0  0  0  0  0  0  0  0  0  0  0  0
   12.6391    9.5718    0.6713 O   0  0  0  0  0  0  0  0  0  0  0  0
   12.6234    7.7117    3.8395 C   0  0  0  0  0  0  0  0  0  0  0  0
   10.9600    9.2746    2.2836 C   0  0  0  0  0  0  0  0  0  0  0  0
   13.0946    8.2323    2.6517 C   0  0  0  0  0  0  0  0  0  0  0  0
   11.3236    7.9582    4.2360 C   0  0  0  0  0  0  0  0  0  0  0  0
   10.4843    8.7286    3.4559 C   0  0  0  0  0  0  0  0  0  0  0  0
   12.2609    9.0303    1.8898 C   0  0  0  0  0  0  0  0  0  0  0  0
 21 22  2  0  0  0
 21 18  1  0  0  0
 22 19  1  0  0  0
 18 20  2  0  0  0
 19 23  2  0  0  0
 20 23  1  0  0  0
 23 17  1  0  0  0
  5  6  2  0  0  0
  5  1  1  0  0  0
 17  6  1  0  0  0
  6  3  1  0  0  0
  1  4  2  0  0  0
 15 16  1  0  0  0
 16  8  1  0  0  0
  4  2  1  0  0  0
  3  2  2  0  0  0
  3 10  1  0  0  0
  8 10  1  0  0  0
  8  7  2  0  0  0
 10 12  2  0  0  0
  7 11  1  0  0  0
 12 13  1  0  0  0
 11 13  1  0  0  0
 11 14  2  0  0  0
 13  9  1  0  0  0
M  END
> <minimizedAffinity>
-7.37673

$$$$
5UEZ_89G_A_501


 23 25  0  0  0  0  0  0  0  0999 V2000
   16.7952   10.9214    0.5061 C   0  0  0  0  0  0  0  0  0  0  0  0
   16.7906   12.5678   -1.2443 C   0  0  0  0  0  0  0  0  0  0  0  0
   15.4757   12.2399   -1.5051 C   0  0  0  0  0  0  0  0  0  0  0  0
   17.4536   11.8846   -0.2364 C   0  0  0  0  0  0  0  0  0  0  0  0
   15.4734   10.6069    0.2579 C   0  0  0  0  0  0  0  0  0  0  0  0
   14.8192   11.2701   -0.7708 C   0  0  0  0  0  0  0  0  0  0  0  0
   14.0924   13.0125   -4.8890 C   0  0  0  0  0  0  0  0  0  0  0  0
   14.6698   12.3123   -3.8860 C   0  0  0  0  0  0  0  0  0  0  0  0
   13.0671   16.0851   -2.9416 C   0  0  0  0  0  0  0  0  0  0  0  0
   14.7586   12.9768   -2.5743 C   0  0  0  0  0  0  0  0  0  0  0  0
   13.5222   14.3630   -4.5965 C   0  0  0  0  0  0  0  0  0  0  0  0
   14.2683   14.1400   -2.2983 N   0  0  0  0  0  0  0  0  0  0  0  0
   13.6238   14.7945   -3.2972 N   0  0  0  0  0  0  0  0  0  0  0  0
   12.9777   15.0145   -5.4913 O   0  0  0  0  0  0  0  0  0  0  0  0
   14.2388   10.1006   -4.3735 C   0  0  0  0  0  0  0  0  0  0  0  0
   15.2385   11.0431   -3.9826 O   0  0  0  0  0  0  0  0  0  0  0  0
   13.4871   11.0302   -1.0846 O   0  0  0  0  0  0  0  0  0  0  0  0
   10.9121   10.0067    1.3278 C   0  0  0  0  0  0  0  0  0  0  0  0
   12.0535   12.2928    0.2784 C   0  0  0  0  0  0  0  0  0  0  0  0
   11.9153    9.8954    0.3869 C   0  0  0  0  0  0  0  0  0  0  0  0
   10.4726   11.2537    1.7268 C   0  0  0  0  0  0  0  0  0  0  0  0
   11.0313   12.3995    1.1963 C   0  0  0  0  0  0  0  0  0  0  0  0
   12.4945   11.0454   -0.1174 C   0  0  0  0  0  0  0  0  0  0  0  0
 21 22  2  0  0  0
 21 18  1  0  0  0
 22 19  1  0  0  0
 18 20  2  0  0  0
 19 23  2  0  0  0
 20 23  1  0  0  0
 23 17  1  0  0  0
  5  6  2  0  0  0
  5  1  1  0  0  0
 17  6  1  0  0  0
  6  3  1  0  0  0
  1  4  2  0  0  0
 15 16  1  0  0  0
 16  8  1  0  0  0
  4  2  1  0  0  0
  3  2  2  0  0  0
  3 10  1  0  0  0
  8 10  1  0  0  0
  8  7  2  0  0  0
 10 12  2  0  0  0
  7 11  1  0  0  0
 12 13  1  0  0  0
 11 13  1  0  0  0
 11 14  2  0  0  0
 13  9  1  0  0  0
M  END
> <minimizedAffinity>
-7.30728

$$$$
5UEZ_89G_A_501


 23 25  0  0  0  0  0  0  0  0999 V2000
   11.8357   14.7680   -2.8585 C   0  0  0  0  0  0  0  0  0  0  0  0
   13.9140   13.8922   -3.6881 C   0  0  0  0  0  0  0  0  0  0  0  0
   14.1058   13.2789   -2.4669 C   0  0  0  0  0  0  0  0  0  0  0  0
   12.7712   14.6557   -3.8707 C   0  0  0  0  0  0  0  0  0  0  0  0
   12.0184   14.1382   -1.6429 C   0  0  0  0  0  0  0  0  0  0  0  0
   13.1768   13.3986   -1.4504 C   0  0  0  0  0  0  0  0  0  0  0  0
   16.2827   10.2440   -2.3572 C   0  0  0  0  0  0  0  0  0  0  0  0
   15.2064   11.0226   -2.6124 C   0  0  0  0  0  0  0  0  0  0  0  0
   18.6646   12.9180   -1.1487 C   0  0  0  0  0  0  0  0  0  0  0  0
   15.3209   12.4510   -2.2710 C   0  0  0  0  0  0  0  0  0  0  0  0
   17.5269   10.8782   -1.8241 C   0  0  0  0  0  0  0  0  0  0  0  0
   16.3873   13.0205   -1.8148 N   0  0  0  0  0  0  0  0  0  0  0  0
   17.4818   12.2378   -1.6388 N   0  0  0  0  0  0  0  0  0  0  0  0
   18.5262   10.1913   -1.5972 O   0  0  0  0  0  0  0  0  0  0  0  0
   14.1436   10.1560   -4.4657 C   0  0  0  0  0  0  0  0  0  0  0  0
   13.9783   10.5980   -3.1174 O   0  0  0  0  0  0  0  0  0  0  0  0
   13.4403   12.7199   -0.2670 O   0  0  0  0  0  0  0  0  0  0  0  0
   10.6412   11.2145    1.5759 C   0  0  0  0  0  0  0  0  0  0  0  0
   12.8115   10.4790    0.0335 C   0  0  0  0  0  0  0  0  0  0  0  0
   11.4691   12.1894    1.0584 C   0  0  0  0  0  0  0  0  0  0  0  0
   10.9087    9.8808    1.3366 C   0  0  0  0  0  0  0  0  0  0  0  0
   11.9992    9.5074    0.5765 C   0  0  0  0  0  0  0  0  0  0  0  0
   12.5412   11.8123    0.2706 C   0  0  0  0  0  0  0  0  0  0  0  0
 21 22  2  0  0  0
 21 18  1  0  0  0
 22 19  1  0  0  0
 18 20  2  0  0  0
 19 23  2  0  0  0
 20 23  1  0  0  0
 23 17  1  0  0  0
  5  6  2  0  0  0
  5  1  1  0  0  0
 17  6  1  0  0  0
  6  3  1  0  0  0
  1  4  2  0  0  0
 15 16  1  0  0  0
 16  8  1  0  0  0
  4  2  1  0  0  0
  3  2  2  0  0  0
  3 10  1  0  0  0
  8 10  1  0  0  0
  8  7  2  0  0  0
 10 12  2  0  0  0
  7 11  1  0  0  0
 12 13  1  0  0  0
 11 13  1  0  0  0
 11 14  2  0  0  0
 13  9  1  0  0  0
M  END
> <minimizedAffinity>
-7.26140

$$$$
5UEZ_89G_A_501


 23 25  0  0  0  0  0  0  0  0999 V2000
   16.5537   10.3555    0.3548 C   0  0  0  0  0  0  0  0  0  0  0  0
   16.7583   10.5279   -2.0333 C   0  0  0  0  0  0  0  0  0  0  0  0
   15.4050   10.7906   -2.0979 C   0  0  0  0  0  0  0  0  0  0  0  0
   17.3264   10.2937   -0.7905 C   0  0  0  0  0  0  0  0  0  0  0  0
   15.2031   10.6375    0.2918 C   0  0  0  0  0  0  0  0  0  0  0  0
   14.6292   10.8424   -0.9550 C   0  0  0  0  0  0  0  0  0  0  0  0
   14.1218   12.7185   -5.0301 C   0  0  0  0  0  0  0  0  0  0  0  0
   14.7517   12.4600   -3.8612 C   0  0  0  0  0  0  0  0  0  0  0  0
   13.3060    9.1721   -6.0508 C   0  0  0  0  0  0  0  0  0  0  0  0
   14.7952   11.0539   -3.4242 C   0  0  0  0  0  0  0  0  0  0  0  0
   13.5826   11.5777   -5.8314 C   0  0  0  0  0  0  0  0  0  0  0  0
   14.3408   10.0527   -4.1030 N   0  0  0  0  0  0  0  0  0  0  0  0
   13.7818   10.3236   -5.3095 N   0  0  0  0  0  0  0  0  0  0  0  0
   13.0171   11.7869   -6.9076 O   0  0  0  0  0  0  0  0  0  0  0  0
   14.3457   14.3919   -2.6705 C   0  0  0  0  0  0  0  0  0  0  0  0
   15.3183   13.3991   -3.0006 O   0  0  0  0  0  0  0  0  0  0  0  0
   13.2826   11.1446   -1.1158 O   0  0  0  0  0  0  0  0  0  0  0  0
   11.0388    9.7066    1.4132 C   0  0  0  0  0  0  0  0  0  0  0  0
   11.8167   12.1599    0.4099 C   0  0  0  0  0  0  0  0  0  0  0  0
   11.9735    9.7613    0.3997 C   0  0  0  0  0  0  0  0  0  0  0  0
   10.4856   10.8713    1.9081 C   0  0  0  0  0  0  0  0  0  0  0  0
   10.8620   12.0994    1.4016 C   0  0  0  0  0  0  0  0  0  0  0  0
   12.3717   10.9949   -0.0819 C   0  0  0  0  0  0  0  0  0  0  0  0
 21 22  2  0  0  0
 21 18  1  0  0  0
 22 19  1  0  0  0
 18 20  2  0  0  0
 19 23  2  0  0  0
 20 23  1  0  0  0
 23 17  1  0  0  0
  5  6  2  0  0  0
  5  1  1  0  0  0
 17  6  1  0  0  0
  6  3  1  0  0  0
  1  4  2  0  0  0
 15 16  1  0  0  0
 16  8  1  0  0  0
  4  2  1  0  0  0
  3  2  2  0  0  0
  3 10  1  0  0  0
  8 10  1  0  0  0
  8  7  2  0  0  0
 10 12  2  0  0  0
  7 11  1  0  0  0
 12 13  1  0  0  0
 11 13  1  0  0  0
 11 14  2  0  0  0
 13  9  1  0  0  0
M  END
> <minimizedAffinity>
-7.23436

$$$$
5UEZ_89G_A_501


 23 25  0  0  0  0  0  0  0  0999 V2000
   13.2635   11.7306   -4.4594 C   0  0  0  0  0  0  0  0  0  0  0  0
   15.5872   11.1886   -4.1746 C   0  0  0  0  0  0  0  0  0  0  0  0
   15.4327   11.3821   -2.8170 C   0  0  0  0  0  0  0  0  0  0  0  0
   14.4888   11.3827   -4.9980 C   0  0  0  0  0  0  0  0  0  0  0  0
   13.1042   11.9054   -3.0986 C   0  0  0  0  0  0  0  0  0  0  0  0
   14.2112   11.7400   -2.2780 C   0  0  0  0  0  0  0  0  0  0  0  0
   18.5282   12.1457   -0.8686 C   0  0  0  0  0  0  0  0  0  0  0  0
   17.4127   12.3498   -1.6060 C   0  0  0  0  0  0  0  0  0  0  0  0
   18.1385    8.4404   -0.2332 C   0  0  0  0  0  0  0  0  0  0  0  0
   16.6020   11.1635   -1.9308 C   0  0  0  0  0  0  0  0  0  0  0  0
   18.8280   10.7678   -0.3727 C   0  0  0  0  0  0  0  0  0  0  0  0
   16.8396    9.9656   -1.5087 N   0  0  0  0  0  0  0  0  0  0  0  0
   17.9197    9.7936   -0.7055 N   0  0  0  0  0  0  0  0  0  0  0  0
   19.8315   10.5593    0.3138 O   0  0  0  0  0  0  0  0  0  0  0  0
   17.9865   14.0915   -3.0032 C   0  0  0  0  0  0  0  0  0  0  0  0
   16.9811   13.5649   -2.1357 O   0  0  0  0  0  0  0  0  0  0  0  0
   14.1441   11.8817   -0.8975 O   0  0  0  0  0  0  0  0  0  0  0  0
   11.7992    9.5649    0.7246 C   0  0  0  0  0  0  0  0  0  0  0  0
   12.2080   12.2735    0.3695 C   0  0  0  0  0  0  0  0  0  0  0  0
   12.8876    9.9983   -0.0043 C   0  0  0  0  0  0  0  0  0  0  0  0
   10.9132   10.4810    1.2567 C   0  0  0  0  0  0  0  0  0  0  0  0
   11.1062   11.8356    1.0717 C   0  0  0  0  0  0  0  0  0  0  0  0
   13.0950   11.3567   -0.1592 C   0  0  0  0  0  0  0  0  0  0  0  0
 21 22  2  0  0  0
 21 18  1  0  0  0
 22 19  1  0  0  0
 18 20  2  0  0  0
 19 23  2  0  0  0
 20 23  1  0  0  0
 23 17  1  0  0  0
  5  6  2  0  0  0
  5  1  1  0  0  0
 17  6  1  0  0  0
  6  3  1  0  0  0
  1  4  2  0  0  0
 15 16  1  0  0  0
 16  8  1  0  0  0
  4  2  1  0  0  0
  3  2  2  0  0  0
  3 10  1  0  0  0
  8 10  1  0  0  0
  8  7  2  0  0  0
 10 12  2  0  0  0
  7 11  1  0  0  0
 12 13  1  0  0  0
 11 13  1  0  0  0
 11 14  2  0  0  0
 13  9  1  0  0  0
M  END
> <minimizedAffinity>
-7.13837

$$$$
5UEZ_89G_A_501


 23 25  0  0  0  0  0  0  0  0999 V2000
   14.0135    9.8740   -4.6937 C   0  0  0  0  0  0  0  0  0  0  0  0
   13.5377   12.1103   -5.4336 C   0  0  0  0  0  0  0  0  0  0  0  0
   13.6476   12.5323   -4.1243 C   0  0  0  0  0  0  0  0  0  0  0  0
   13.7087   10.7622   -5.7089 C   0  0  0  0  0  0  0  0  0  0  0  0
   14.1426   10.2996   -3.3860 C   0  0  0  0  0  0  0  0  0  0  0  0
   13.9419   11.6441   -3.1068 C   0  0  0  0  0  0  0  0  0  0  0  0
   14.5659   16.0973   -3.4852 C   0  0  0  0  0  0  0  0  0  0  0  0
   14.6994   14.7984   -3.8383 C   0  0  0  0  0  0  0  0  0  0  0  0
   10.8139   16.1997   -3.0423 C   0  0  0  0  0  0  0  0  0  0  0  0
   13.4777   13.9755   -3.8266 C   0  0  0  0  0  0  0  0  0  0  0  0
   13.2027   16.6303   -3.1820 C   0  0  0  0  0  0  0  0  0  0  0  0
   12.2898   14.4164   -3.5732 N   0  0  0  0  0  0  0  0  0  0  0  0
   12.1648   15.7392   -3.2972 N   0  0  0  0  0  0  0  0  0  0  0  0
   13.0537   17.8150   -2.8718 O   0  0  0  0  0  0  0  0  0  0  0  0
   16.8013   14.2485   -3.0673 C   0  0  0  0  0  0  0  0  0  0  0  0
   15.8884   14.1460   -4.1612 O   0  0  0  0  0  0  0  0  0  0  0  0
   14.0637   12.1659   -1.8248 O   0  0  0  0  0  0  0  0  0  0  0  0
   11.9741   10.4184    0.6404 C   0  0  0  0  0  0  0  0  0  0  0  0
   12.3683   12.9459   -0.4020 C   0  0  0  0  0  0  0  0  0  0  0  0
   12.9363   10.6113   -0.3295 C   0  0  0  0  0  0  0  0  0  0  0  0
   11.2037   11.4804    1.0721 C   0  0  0  0  0  0  0  0  0  0  0  0
   11.3884   12.7433    0.5454 C   0  0  0  0  0  0  0  0  0  0  0  0
   13.1402   11.8840   -0.8304 C   0  0  0  0  0  0  0  0  0  0  0  0
 21 22  2  0  0  0
 21 18  1  0  0  0
 22 19  1  0  0  0
 18 20  2  0  0  0
 19 23  2  0  0  0
 20 23  1  0  0  0
 23 17  1  0  0  0
  5  6  2  0  0  0
  5  1  1  0  0  0
 17  6  1  0  0  0
  6  3  1  0  0  0
  1  4  2  0  0  0
 15 16  1  0  0  0
 16  8  1  0  0  0
  4  2  1  0  0  0
  3  2  2  0  0  0
  3 10  1  0  0  0
  8 10  1  0  0  0
  8  7  2  0  0  0
 10 12  2  0  0  0
  7 11  1  0  0  0
 12 13  1  0  0  0
 11 13  1  0  0  0
 11 14  2  0  0  0
 13  9  1  0  0  0
M  END
> <minimizedAffinity>
-6.78865

$$$$
5UEZ_89G_A_501


 23 25  0  0  0  0  0  0  0  0999 V2000
   11.7801   12.8687    0.2469 C   0  0  0  0  0  0  0  0  0  0  0  0
   12.2461   13.3966   -2.0506 C   0  0  0  0  0  0  0  0  0  0  0  0
   13.1178   12.3274   -2.0858 C   0  0  0  0  0  0  0  0  0  0  0  0
   11.5868   13.6716   -0.8623 C   0  0  0  0  0  0  0  0  0  0  0  0
   12.6379   11.7869    0.2060 C   0  0  0  0  0  0  0  0  0  0  0  0
   13.3201   11.5301   -0.9749 C   0  0  0  0  0  0  0  0  0  0  0  0
   15.6821   12.5255   -4.7963 C   0  0  0  0  0  0  0  0  0  0  0  0
   15.0824   12.7340   -3.6019 C   0  0  0  0  0  0  0  0  0  0  0  0
   13.3129    9.9341   -6.1949 C   0  0  0  0  0  0  0  0  0  0  0  0
   13.8161   12.0220   -3.3584 C   0  0  0  0  0  0  0  0  0  0  0  0
   15.0769   11.5474   -5.7510 C   0  0  0  0  0  0  0  0  0  0  0  0
   13.2785   11.1690   -4.1666 N   0  0  0  0  0  0  0  0  0  0  0  0
   13.9352   10.9141   -5.3265 N   0  0  0  0  0  0  0  0  0  0  0  0
   15.6132   11.3294   -6.8404 O   0  0  0  0  0  0  0  0  0  0  0  0
   16.9438   13.6149   -2.5654 C   0  0  0  0  0  0  0  0  0  0  0  0
   15.5158   13.5981   -2.5974 O   0  0  0  0  0  0  0  0  0  0  0  0
   14.1924   10.4576   -1.1143 O   0  0  0  0  0  0  0  0  0  0  0  0
   17.3674   11.4078    0.4712 C   0  0  0  0  0  0  0  0  0  0  0  0
   16.4114    9.9009   -1.6372 C   0  0  0  0  0  0  0  0  0  0  0  0
   16.0078   11.3374    0.2474 C   0  0  0  0  0  0  0  0  0  0  0  0
   18.2420   10.7422   -0.3652 C   0  0  0  0  0  0  0  0  0  0  0  0
   17.7699    9.9976   -1.4279 C   0  0  0  0  0  0  0  0  0  0  0  0
   15.5377   10.5641   -0.7981 C   0  0  0  0  0  0  0  0  0  0  0  0
 21 22  2  0  0  0
 21 18  1  0  0  0
 22 19  1  0  0  0
 18 20  2  0  0  0
 19 23  2  0  0  0
 20 23  1  0  0  0
 23 17  1  0  0  0
  5  6  2  0  0  0
  5  1  1  0  0  0
 17  6  1  0  0  0
  6  3  1  0  0  0
  1  4  2  0  0  0
 15 16  1  0  0  0
 16  8  1  0  0  0
  4  2  1  0  0  0
  3  2  2  0  0  0
  3 10  1  0  0  0
  8 10  1  0  0  0
  8  7  2  0  0  0
 10 12  2  0  0  0
  7 11  1  0  0  0
 12 13  1  0  0  0
 11 13  1  0  0  0
 11 14  2  0  0  0
 13  9  1  0  0  0
M  END
> <minimizedAffinity>
-6.77988

$$$$
5UEZ_89G_A_501


 23 25  0  0  0  0  0  0  0  0999 V2000
   17.1673   12.3673    0.0438 C   0  0  0  0  0  0  0  0  0  0  0  0
   17.1691   13.2047   -2.2087 C   0  0  0  0  0  0  0  0  0  0  0  0
   15.9205   12.6437   -2.3839 C   0  0  0  0  0  0  0  0  0  0  0  0
   17.7977   13.0458   -0.9832 C   0  0  0  0  0  0  0  0  0  0  0  0
   15.9094   11.8225   -0.1255 C   0  0  0  0  0  0  0  0  0  0  0  0
   15.2933   11.9561   -1.3618 C   0  0  0  0  0  0  0  0  0  0  0  0
   13.6477   14.1030   -4.9658 C   0  0  0  0  0  0  0  0  0  0  0  0
   14.3379   13.9809   -3.8089 C   0  0  0  0  0  0  0  0  0  0  0  0
   15.1251   11.1719   -6.8394 C   0  0  0  0  0  0  0  0  0  0  0  0
   15.2388   12.8216   -3.6893 C   0  0  0  0  0  0  0  0  0  0  0  0
   13.8899   13.1167   -6.0626 C   0  0  0  0  0  0  0  0  0  0  0  0
   15.4669   11.9609   -4.6256 N   0  0  0  0  0  0  0  0  0  0  0  0
   14.8244   12.1441   -5.8068 N   0  0  0  0  0  0  0  0  0  0  0  0
   13.2833   13.2157   -7.1322 O   0  0  0  0  0  0  0  0  0  0  0  0
   13.1743   15.7442   -2.8859 C   0  0  0  0  0  0  0  0  0  0  0  0
   14.2418   14.8143   -2.6954 O   0  0  0  0  0  0  0  0  0  0  0  0
   14.0243   11.4533   -1.6210 O   0  0  0  0  0  0  0  0  0  0  0  0
   11.4340   12.8943    0.5497 C   0  0  0  0  0  0  0  0  0  0  0  0
   12.5267   10.4474   -0.1201 C   0  0  0  0  0  0  0  0  0  0  0  0
   12.4541   12.8362   -0.3776 C   0  0  0  0  0  0  0  0  0  0  0  0
   10.9769   11.7372    1.1493 C   0  0  0  0  0  0  0  0  0  0  0  0
   11.5281   10.5129    0.8271 C   0  0  0  0  0  0  0  0  0  0  0  0
   12.9806   11.6047   -0.7215 C   0  0  0  0  0  0  0  0  0  0  0  0
 21 22  2  0  0  0
 21 18  1  0  0  0
 22 19  1  0  0  0
 18 20  2  0  0  0
 19 23  2  0  0  0
 20 23  1  0  0  0
 23 17  1  0  0  0
  5  6  2  0  0  0
  5  1  1  0  0  0
 17  6  1  0  0  0
  6  3  1  0  0  0
  1  4  2  0  0  0
 15 16  1  0  0  0
 16  8  1  0  0  0
  4  2  1  0  0  0
  3  2  2  0  0  0
  3 10  1  0  0  0
  8 10  1  0  0  0
  8  7  2  0  0  0
 10 12  2  0  0  0
  7 11  1  0  0  0
 12 13  1  0  0  0
 11 13  1  0  0  0
 11 14  2  0  0  0
 13  9  1  0  0  0
M  END
> <minimizedAffinity>
-6.71420

$$$$
