4JE7_BB2_A_201
  RCSB PDB12061713093D
Coordinates from PDB:4JE7:A:201 Model:1 without hydrogens
 27 27  0  0  0  0            999 V2000
   10.6310   -7.9090  -15.4270   C 0  0  0  0  0  0  0  0  0  0  0  0
   11.1860   -9.3360  -15.2060   C 0  0  0  0  0  0  0  0  0  0  0  0
   12.0860   -9.8360  -15.9160   O 0  0  0  0  0  0  0  0  0  0  0  0
   10.6010   -9.9840  -14.2000   N 0  0  0  0  0  0  0  0  0  0  0  0
   10.9730  -11.2680  -13.8680   O 0  0  0  0  0  0  0  0  0  0  0  0
    9.5180   -7.8200  -16.5150   C 0  0  0  0  0  0  0  0  0  0  0  0
    9.3570   -6.3460  -16.9640   C 0  0  0  0  0  0  0  0  0  0  0  0
    8.9970   -5.4850  -16.1580   O 0  0  0  0  0  0  0  0  0  0  0  0
    8.1560   -8.3980  -16.0340   C 0  0  0  0  0  0  0  0  0  0  0  0
    7.1640   -8.5060  -17.2160   C 0  0  0  0  0  0  0  0  0  0  0  0
    5.9690   -9.3860  -16.8950   C 0  0  0  0  0  0  0  0  0  0  0  0
    5.2200   -9.8470  -18.1860   C 0  0  0  0  0  0  0  0  0  0  0  0
    4.7870   -8.6430  -19.0230   C 0  0  0  0  0  0  0  0  0  0  0  0
    9.6640   -6.0480  -18.2370   N 0  0  0  0  0  0  0  0  0  0  0  0
    9.5920   -4.6730  -18.7200   C 0  0  0  0  0  0  0  0  0  0  0  0
   10.2220   -4.5270  -20.1040   C 0  0  0  0  0  0  0  0  0  0  0  0
   11.3180   -5.5360  -20.4040   C 0  0  0  0  0  0  0  0  0  0  0  0
    9.1910   -4.5110  -21.2000   C 0  0  0  0  0  0  0  0  0  0  0  0
    8.1230   -4.1400  -18.6870   C 0  0  0  0  0  0  0  0  0  0  0  0
    7.2270   -4.9630  -18.9960   O 0  0  0  0  0  0  0  0  0  0  0  0
    7.8970   -2.8010  -18.3290   N 0  0  0  0  0  0  0  0  0  0  0  0
    6.5850   -2.1060  -18.2280   C 0  0  0  0  0  0  0  0  0  0  0  0
    8.9730   -1.8330  -17.9750   C 0  0  0  0  0  0  0  0  0  0  0  0
    8.3180   -0.5940  -17.3520   C 0  0  0  0  0  0  0  0  0  0  0  0
    6.8200   -0.7320  -17.5390   C 0  0  0  0  0  0  0  0  0  0  0  0
    5.9650   -1.8520  -19.6110   C 0  0  0  0  0  0  0  0  0  0  0  0
    6.8780   -1.0620  -20.4310   O 0  0  0  0  0  0  0  0  0  0  0  0
  1  2  1  0  0  0  0
  1  6  1  0  0  0  0
  2  3  2  0  0  0  0
  2  4  1  0  0  0  0
  4  5  1  0  0  0  0
  6  7  1  0  0  0  0
  6  9  1  0  0  0  0
  7  8  2  0  0  0  0
  7 14  1  0  0  0  0
  9 10  1  0  0  0  0
 10 11  1  0  0  0  0
 11 12  1  0  0  0  0
 12 13  1  0  0  0  0
 14 15  1  0  0  0  0
 15 16  1  0  0  0  0
 15 19  1  0  0  0  0
 16 17  1  0  0  0  0
 16 18  1  0  0  0  0
 19 20  2  0  0  0  0
 19 21  1  0  0  0  0
 21 22  1  0  0  0  0
 21 23  1  0  0  0  0
 22 25  1  0  0  0  0
 22 26  1  0  0  0  0
 23 24  1  0  0  0  0
 24 25  1  0  0  0  0
 26 27  1  0  0  0  0
A    1
C5
A    2
C3
A    3
O4
A    4
N1
A    5
O2
A    6
C6
A    7
C12
A    8
O13
A    9
C7
A   10
C8
A   11
C9
A   12
C10
A   13
C11
A   14
N14
A   15
C15
A   16
C16
A   17
C18
A   18
C17
A   19
C19
A   20
O20
A   21
N21
A   22
C22
A   23
C23
A   24
C24
A   25
C25
A   26
C26
A   27
O27
M  END
>  <InstanceId>
4JE7_BB2_A_201

>  <ChemCompId>
BB2

>  <PdbId>
4JE7

>  <ChainId>
A

>  <ResidueNumber>
201

>  <InsertionCode>


>  <Model>
1

>  <AltIds>


>  <MissingHeavyAtoms>
0

>  <ObservedFormula>
C19 N3 O5

>  <Name>
ACTINONIN

>  <SystematicName>
(2R)-N'-hydroxy-N-[(2S)-1-[(2S)-2-(hydroxymethyl)pyrrolidin-1-yl]-3-methyl-1-oxo-butan-2-yl]-2-pentyl-butanediamide

>  <Synonyms>
2-[(FORMYL-HYDROXY-AMINO)-METHYL]-HEPTANOIC ACID [1-(2-HYDROXYMETHYL-PYRROLIDINE-1-CARBONYL)-2-METHYL-PROPYL]-AMIDE

>  <Type>
NON-POLYMER

>  <Formula>
C19 H35 N3 O5

>  <MolecularWeight>
385.498

>  <ModifiedDate>
2011-06-04

>  <Parent>


>  <OneLetterCode>


>  <SubcomponentList>


>  <AmbiguousFlag>
N

>  <InChI>
InChI=1S/C19H35N3O5/c1-4-5-6-8-14(11-16(24)21-27)18(25)20-17(13(2)3)19(26)22-10-7-9-15(22)12-23/h13-15,17,23,27H,4-12H2,1-3H3,(H,20,25)(H,21,24)/t14-,15+,17+/m1/s1

>  <InChIKey>
XJLATMLVMSFZBN-VYDXJSESSA-N

>  <SMILES>
CCCCC[C@H](CC(=O)NO)C(=O)N[C@@H](C(C)C)C(=O)N1CCC[C@H]1CO

$$$$
