1V2U_BEN_T_1
  RCSB PDB12061704173D
Coordinates from PDB:1V2U:T:1 Model:1 without hydrogens
  9  9  0  0  0  0            999 V2000
   53.3620   66.9340  -28.8540   C 0  0  0  0  0  0  0  0  0  0  0  0
   52.7390   66.5590  -30.1320   C 0  0  0  0  0  0  0  0  0  0  0  0
   52.4560   67.5680  -31.1460   C 0  0  0  0  0  0  0  0  0  0  0  0
   52.7910   68.9600  -30.8960   C 0  0  0  0  0  0  0  0  0  0  0  0
   53.4060   69.3470  -29.6430   C 0  0  0  0  0  0  0  0  0  0  0  0
   53.6920   68.3420  -28.6250   C 0  0  0  0  0  0  0  0  0  0  0  0
   53.6660   65.8680  -27.7800   C 0  0  0  0  0  0  0  0  0  0  0  0
   54.3970   66.1840  -26.7270   N 0  0  0  0  0  0  0  0  0  0  0  0
   53.2010   64.6420  -27.9270   N 0  0  0  0  0  0  0  0  0  0  0  0
  1  2  2  0  0  0  0
  1  6  1  0  0  0  0
  1  7  1  0  0  0  0
  2  3  1  0  0  0  0
  3  4  2  0  0  0  0
  4  5  1  0  0  0  0
  5  6  2  0  0  0  0
  7  8  2  0  0  0  0
  7  9  1  0  0  0  0
A    1
C1
A    2
C2
A    3
C3
A    4
C4
A    5
C5
A    6
C6
A    7
C
A    8
N1
A    9
N2
M  END
>  <InstanceId>
1V2U_BEN_T_1

>  <ChemCompId>
BEN

>  <PdbId>
1V2U

>  <ChainId>
T

>  <ResidueNumber>
1

>  <InsertionCode>


>  <Model>
1

>  <AltIds>


>  <MissingHeavyAtoms>
0

>  <ObservedFormula>
C7 N2

>  <Name>
BENZAMIDINE

>  <SystematicName>
benzenecarboximidamide

>  <Synonyms>


>  <Type>
NON-POLYMER

>  <Formula>
C7 H8 N2

>  <MolecularWeight>
120.152

>  <ModifiedDate>
2011-06-04

>  <Parent>


>  <OneLetterCode>


>  <SubcomponentList>


>  <AmbiguousFlag>
N

>  <InChI>
InChI=1S/C7H8N2/c8-7(9)6-4-2-1-3-5-6/h1-5H,(H3,8,9)

>  <InChIKey>
PXXJHWLDUBFPOL-UHFFFAOYSA-N

>  <SMILES>
[H]/N=C(\c1ccccc1)/N

$$$$
