1V2U_BEN_T_1


 12 12  0  0  0  0  0  0  0  0999 V2000
   53.2811   66.9923  -28.9592 C   0  0  0  0  0  0  0  0  0  0  0  0
   53.8877   68.3305  -28.9006 C   0  0  0  0  0  0  0  0  0  0  0  0
   53.6712   69.2930  -29.9744 C   0  0  0  0  0  0  0  0  0  0  0  0
   52.8485   68.9311  -31.1166 C   0  0  0  0  0  0  0  0  0  0  0  0
   52.2425   67.6176  -31.1902 C   0  0  0  0  0  0  0  0  0  0  0  0
   52.4550   66.6506  -30.1188 C   0  0  0  0  0  0  0  0  0  0  0  0
   53.5054   65.9724  -27.8227 C   0  0  0  0  0  0  0  0  0  0  0  0
   52.8461   64.8286  -27.8248 N   0  0  0  0  0  0  0  0  0  0  0  0
   54.3489   66.2556  -26.8484 N   0  0  0  0  0  0  0  0  0  0  0  0
   52.2182   64.6237  -28.5549 H   0  0  0  0  0  0  0  0  0  0  0  0
   54.8373   67.1104  -26.8530 H   0  0  0  0  0  0  0  0  0  0  0  0
   54.4899   65.6121  -26.1167 H   0  0  0  0  0  0  0  0  0  0  0  0
  1  2  2  0  0  0
  1  6  1  0  0  0
  1  7  1  0  0  0
  2  3  1  0  0  0
  3  4  2  0  0  0
  4  5  1  0  0  0
  5  6  2  0  0  0
  7  8  2  0  0  0
  7  9  1  0  0  0
  8 10  1  0  0  0
  9 11  1  0  0  0
  9 12  1  0  0  0
M  END
> <minimizedAffinity>
-5.83621

$$$$
1V2U_BEN_T_1


 12 12  0  0  0  0  0  0  0  0999 V2000
   53.2787   66.9931  -28.9569 C   0  0  0  0  0  0  0  0  0  0  0  0
   52.4513   66.6503  -30.1231 C   0  0  0  0  0  0  0  0  0  0  0  0
   52.2415   67.6154  -31.1959 C   0  0  0  0  0  0  0  0  0  0  0  0
   52.8540   68.9311  -31.1166 C   0  0  0  0  0  0  0  0  0  0  0  0
   53.6728   69.2853  -29.9756 C   0  0  0  0  0  0  0  0  0  0  0  0
   53.8868   68.3238  -28.8995 C   0  0  0  0  0  0  0  0  0  0  0  0
   53.5056   65.9728  -27.8213 C   0  0  0  0  0  0  0  0  0  0  0  0
   52.8474   64.8283  -27.8232 N   0  0  0  0  0  0  0  0  0  0  0  0
   54.3501   66.2562  -26.8480 N   0  0  0  0  0  0  0  0  0  0  0  0
   52.2187   64.6232  -28.5526 H   0  0  0  0  0  0  0  0  0  0  0  0
   54.8377   67.1115  -26.8528 H   0  0  0  0  0  0  0  0  0  0  0  0
   54.4927   65.6124  -26.1169 H   0  0  0  0  0  0  0  0  0  0  0  0
  1  2  2  0  0  0
  1  6  1  0  0  0
  1  7  1  0  0  0
  2  3  1  0  0  0
  3  4  2  0  0  0
  4  5  1  0  0  0
  5  6  2  0  0  0
  7  8  2  0  0  0
  7  9  1  0  0  0
  8 10  1  0  0  0
  9 11  1  0  0  0
  9 12  1  0  0  0
M  END
> <minimizedAffinity>
-5.83399

$$$$
1V2U_BEN_T_1


 12 12  0  0  0  0  0  0  0  0999 V2000
   53.2601   67.8998  -28.9493 C   0  0  0  0  0  0  0  0  0  0  0  0
   53.6027   69.1762  -28.3047 C   0  0  0  0  0  0  0  0  0  0  0  0
   53.2376   70.4444  -28.9250 C   0  0  0  0  0  0  0  0  0  0  0  0
   52.5279   70.4526  -30.1934 C   0  0  0  0  0  0  0  0  0  0  0  0
   52.1816   69.2045  -30.8418 C   0  0  0  0  0  0  0  0  0  0  0  0
   52.5437   67.9327  -30.2258 C   0  0  0  0  0  0  0  0  0  0  0  0
   53.6420   66.5557  -28.2937 C   0  0  0  0  0  0  0  0  0  0  0  0
   54.4953   66.5333  -27.2865 N   0  0  0  0  0  0  0  0  0  0  0  0
   53.1200   65.4340  -28.7522 N   0  0  0  0  0  0  0  0  0  0  0  0
   54.8810   67.3741  -26.9493 H   0  0  0  0  0  0  0  0  0  0  0  0
   52.4844   65.4580  -29.5036 H   0  0  0  0  0  0  0  0  0  0  0  0
   53.3663   64.5731  -28.3430 H   0  0  0  0  0  0  0  0  0  0  0  0
  1  2  2  0  0  0
  1  6  1  0  0  0
  1  7  1  0  0  0
  2  3  1  0  0  0
  3  4  2  0  0  0
  4  5  1  0  0  0
  5  6  2  0  0  0
  7  8  2  0  0  0
  7  9  1  0  0  0
  8 10  1  0  0  0
  9 11  1  0  0  0
  9 12  1  0  0  0
M  END
> <minimizedAffinity>
-5.04574

$$$$
1V2U_BEN_T_1


 12 12  0  0  0  0  0  0  0  0999 V2000
   52.3796   68.9033  -30.6351 C   0  0  0  0  0  0  0  0  0  0  0  0
   52.1321   67.4874  -30.9450 C   0  0  0  0  0  0  0  0  0  0  0  0
   52.6169   66.4360  -30.0584 C   0  0  0  0  0  0  0  0  0  0  0  0
   53.3528   66.7857  -28.8549 C   0  0  0  0  0  0  0  0  0  0  0  0
   53.6048   68.1754  -28.5336 C   0  0  0  0  0  0  0  0  0  0  0  0
   53.1219   69.2316  -29.4165 C   0  0  0  0  0  0  0  0  0  0  0  0
   51.8649   70.0186  -31.5696 C   0  0  0  0  0  0  0  0  0  0  0  0
   50.5726   70.2811  -31.6321 N   0  0  0  0  0  0  0  0  0  0  0  0
   52.7211   70.6971  -32.3096 N   0  0  0  0  0  0  0  0  0  0  0  0
   49.9393   69.7709  -31.0772 H   0  0  0  0  0  0  0  0  0  0  0  0
   53.6835   70.4963  -32.2580 H   0  0  0  0  0  0  0  0  0  0  0  0
   52.3975   71.4043  -32.9133 H   0  0  0  0  0  0  0  0  0  0  0  0
  1  2  2  0  0  0
  1  6  1  0  0  0
  1  7  1  0  0  0
  2  3  1  0  0  0
  3  4  2  0  0  0
  4  5  1  0  0  0
  5  6  2  0  0  0
  7  8  2  0  0  0
  7  9  1  0  0  0
  8 10  1  0  0  0
  9 11  1  0  0  0
  9 12  1  0  0  0
M  END
> <minimizedAffinity>
-4.80840

$$$$
1V2U_BEN_T_1


 12 12  0  0  0  0  0  0  0  0999 V2000
   52.3768   68.8966  -30.6325 C   0  0  0  0  0  0  0  0  0  0  0  0
   53.1248   69.2231  -29.4094 C   0  0  0  0  0  0  0  0  0  0  0  0
   53.6086   68.1663  -28.5288 C   0  0  0  0  0  0  0  0  0  0  0  0
   53.3515   66.7744  -28.8586 C   0  0  0  0  0  0  0  0  0  0  0  0
   52.6172   66.4346  -30.0600 C   0  0  0  0  0  0  0  0  0  0  0  0
   52.1311   67.4874  -30.9451 C   0  0  0  0  0  0  0  0  0  0  0  0
   51.8663   70.0126  -31.5685 C   0  0  0  0  0  0  0  0  0  0  0  0
   50.5748   70.2793  -31.6320 N   0  0  0  0  0  0  0  0  0  0  0  0
   52.7250   70.6875  -32.3088 N   0  0  0  0  0  0  0  0  0  0  0  0
   49.9396   69.7719  -31.0768 H   0  0  0  0  0  0  0  0  0  0  0  0
   53.6867   70.4834  -32.2566 H   0  0  0  0  0  0  0  0  0  0  0  0
   52.4041   71.3950  -32.9135 H   0  0  0  0  0  0  0  0  0  0  0  0
  1  2  2  0  0  0
  1  6  1  0  0  0
  1  7  1  0  0  0
  2  3  1  0  0  0
  3  4  2  0  0  0
  4  5  1  0  0  0
  5  6  2  0  0  0
  7  8  2  0  0  0
  7  9  1  0  0  0
  8 10  1  0  0  0
  9 11  1  0  0  0
  9 12  1  0  0  0
M  END
> <minimizedAffinity>
-4.80749

$$$$
1V2U_BEN_T_1


 12 12  0  0  0  0  0  0  0  0999 V2000
   53.1667   69.0865  -29.0362 C   0  0  0  0  0  0  0  0  0  0  0  0
   52.4233   68.9593  -30.2984 C   0  0  0  0  0  0  0  0  0  0  0  0
   52.1496   67.6466  -30.8715 C   0  0  0  0  0  0  0  0  0  0  0  0
   52.6142   66.4486  -30.1923 C   0  0  0  0  0  0  0  0  0  0  0  0
   53.3471   66.5554  -28.9475 C   0  0  0  0  0  0  0  0  0  0  0  0
   53.6235   67.8658  -28.3691 C   0  0  0  0  0  0  0  0  0  0  0  0
   53.4551   70.4742  -28.4252 C   0  0  0  0  0  0  0  0  0  0  0  0
   53.8858   70.5692  -27.1808 N   0  0  0  0  0  0  0  0  0  0  0  0
   53.2587   71.5599  -29.1489 N   0  0  0  0  0  0  0  0  0  0  0  0
   54.0302   69.7550  -26.6464 H   0  0  0  0  0  0  0  0  0  0  0  0
   52.9375   71.4818  -30.0762 H   0  0  0  0  0  0  0  0  0  0  0  0
   53.4335   72.4479  -28.7616 H   0  0  0  0  0  0  0  0  0  0  0  0
  1  2  2  0  0  0
  1  6  1  0  0  0
  1  7  1  0  0  0
  2  3  1  0  0  0
  3  4  2  0  0  0
  4  5  1  0  0  0
  5  6  2  0  0  0
  7  8  2  0  0  0
  7  9  1  0  0  0
  8 10  1  0  0  0
  9 11  1  0  0  0
  9 12  1  0  0  0
M  END
> <minimizedAffinity>
-4.72248

$$$$
1V2U_BEN_T_1


 12 12  0  0  0  0  0  0  0  0999 V2000
   53.1650   69.0761  -29.0344 C   0  0  0  0  0  0  0  0  0  0  0  0
   53.6124   67.8490  -28.3590 C   0  0  0  0  0  0  0  0  0  0  0  0
   53.3323   66.5388  -28.9345 C   0  0  0  0  0  0  0  0  0  0  0  0
   52.6037   66.4391  -30.1882 C   0  0  0  0  0  0  0  0  0  0  0  0
   52.1564   67.6376  -30.8675 C   0  0  0  0  0  0  0  0  0  0  0  0
   52.4341   68.9511  -30.2969 C   0  0  0  0  0  0  0  0  0  0  0  0
   53.4629   70.4646  -28.4297 C   0  0  0  0  0  0  0  0  0  0  0  0
   53.8972   70.5621  -27.1868 N   0  0  0  0  0  0  0  0  0  0  0  0
   53.2708   71.5484  -29.1573 N   0  0  0  0  0  0  0  0  0  0  0  0
   54.0383   69.7493  -26.6495 H   0  0  0  0  0  0  0  0  0  0  0  0
   52.9468   71.4685  -30.0835 H   0  0  0  0  0  0  0  0  0  0  0  0
   53.4516   72.4371  -28.7740 H   0  0  0  0  0  0  0  0  0  0  0  0
  1  2  2  0  0  0
  1  6  1  0  0  0
  1  7  1  0  0  0
  2  3  1  0  0  0
  3  4  2  0  0  0
  4  5  1  0  0  0
  5  6  2  0  0  0
  7  8  2  0  0  0
  7  9  1  0  0  0
  8 10  1  0  0  0
  9 11  1  0  0  0
  9 12  1  0  0  0
M  END
> <minimizedAffinity>
-4.71749

$$$$
1V2U_BEN_T_1


 12 12  0  0  0  0  0  0  0  0999 V2000
   52.7790   68.6009  -30.0033 C   0  0  0  0  0  0  0  0  0  0  0  0
   51.8215   69.6308  -30.4327 C   0  0  0  0  0  0  0  0  0  0  0  0
   51.7200   70.8971  -29.7166 C   0  0  0  0  0  0  0  0  0  0  0  0
   52.5716   71.1488  -28.5660 C   0  0  0  0  0  0  0  0  0  0  0  0
   53.5211   70.1457  -28.1298 C   0  0  0  0  0  0  0  0  0  0  0  0
   53.6276   68.8773  -28.8425 C   0  0  0  0  0  0  0  0  0  0  0  0
   52.8913   67.2610  -30.7610 C   0  0  0  0  0  0  0  0  0  0  0  0
   52.7759   67.2365  -32.0760 N   0  0  0  0  0  0  0  0  0  0  0  0
   53.0919   66.1446  -30.0870 N   0  0  0  0  0  0  0  0  0  0  0  0
   52.6264   68.0732  -32.5727 H   0  0  0  0  0  0  0  0  0  0  0  0
   53.1770   66.1701  -29.1065 H   0  0  0  0  0  0  0  0  0  0  0  0
   53.1564   65.2860  -30.5645 H   0  0  0  0  0  0  0  0  0  0  0  0
  1  2  2  0  0  0
  1  6  1  0  0  0
  1  7  1  0  0  0
  2  3  1  0  0  0
  3  4  2  0  0  0
  4  5  1  0  0  0
  5  6  2  0  0  0
  7  8  2  0  0  0
  7  9  1  0  0  0
  8 10  1  0  0  0
  9 11  1  0  0  0
  9 12  1  0  0  0
M  END
> <minimizedAffinity>
-4.42345

$$$$
1V2U_BEN_T_1


 12 12  0  0  0  0  0  0  0  0999 V2000
   52.7705   68.5653  -30.0140 C   0  0  0  0  0  0  0  0  0  0  0  0
   53.6144   68.8462  -28.8432 C   0  0  0  0  0  0  0  0  0  0  0  0
   53.5041   70.1155  -28.1339 C   0  0  0  0  0  0  0  0  0  0  0  0
   52.5519   71.1167  -28.5848 C   0  0  0  0  0  0  0  0  0  0  0  0
   51.7119   70.8564  -29.7357 C   0  0  0  0  0  0  0  0  0  0  0  0
   51.8175   69.5882  -30.4490 C   0  0  0  0  0  0  0  0  0  0  0  0
   52.8824   67.2214  -30.7649 C   0  0  0  0  0  0  0  0  0  0  0  0
   52.7826   67.1923  -32.0810 N   0  0  0  0  0  0  0  0  0  0  0  0
   53.0669   66.1065  -30.0839 N   0  0  0  0  0  0  0  0  0  0  0  0
   52.6450   68.0280  -32.5829 H   0  0  0  0  0  0  0  0  0  0  0  0
   53.1404   66.1354  -29.1026 H   0  0  0  0  0  0  0  0  0  0  0  0
   53.1310   65.2455  -30.5571 H   0  0  0  0  0  0  0  0  0  0  0  0
  1  2  2  0  0  0
  1  6  1  0  0  0
  1  7  1  0  0  0
  2  3  1  0  0  0
  3  4  2  0  0  0
  4  5  1  0  0  0
  5  6  2  0  0  0
  7  8  2  0  0  0
  7  9  1  0  0  0
  8 10  1  0  0  0
  9 11  1  0  0  0
  9 12  1  0  0  0
M  END
> <minimizedAffinity>
-4.42209

$$$$
1V2U_BEN_T_1


 12 12  0  0  0  0  0  0  0  0999 V2000
   53.0784   67.7331  -29.4912 C   0  0  0  0  0  0  0  0  0  0  0  0
   53.1875   67.5488  -30.9459 C   0  0  0  0  0  0  0  0  0  0  0  0
   53.0158   68.6771  -31.8537 C   0  0  0  0  0  0  0  0  0  0  0  0
   52.7337   69.9993  -31.3204 C   0  0  0  0  0  0  0  0  0  0  0  0
   52.6237   70.1992  -29.8901 C   0  0  0  0  0  0  0  0  0  0  0  0
   52.7950   69.0744  -28.9769 C   0  0  0  0  0  0  0  0  0  0  0  0
   53.2629   66.5418  -28.5275 C   0  0  0  0  0  0  0  0  0  0  0  0
   54.2772   66.5294  -27.6824 N   0  0  0  0  0  0  0  0  0  0  0  0
   52.4097   65.5359  -28.5619 N   0  0  0  0  0  0  0  0  0  0  0  0
   54.9101   67.2833  -27.6620 H   0  0  0  0  0  0  0  0  0  0  0  0
   51.6555   65.5516  -29.1946 H   0  0  0  0  0  0  0  0  0  0  0  0
   52.5272   64.7697  -27.9550 H   0  0  0  0  0  0  0  0  0  0  0  0
  1  2  2  0  0  0
  1  6  1  0  0  0
  1  7  1  0  0  0
  2  3  1  0  0  0
  3  4  2  0  0  0
  4  5  1  0  0  0
  5  6  2  0  0  0
  7  8  2  0  0  0
  7  9  1  0  0  0
  8 10  1  0  0  0
  9 11  1  0  0  0
  9 12  1  0  0  0
M  END
> <minimizedAffinity>
-4.12607

$$$$
