1RBP_RTL_A_183
  RCSB PDB12061703523D
Coordinates from PDB:1RBP:A:183 Model:1 without hydrogens
 21 21  0  0  0  0            999 V2000
   29.6110   21.3730   45.3130   C 0  0  0  0  0  0  0  0  0  0  0  0
   29.3530   21.3820   43.7990   C 0  0  0  0  0  0  0  0  0  0  0  0
   30.4050   20.8400   42.9870   C 0  0  0  0  0  0  0  0  0  0  0  0
   30.6780   19.3750   43.2780   C 0  0  0  0  0  0  0  0  0  0  0  0
   30.8700   19.1360   44.7590   C 0  0  0  0  0  0  0  0  0  0  0  0
   30.3910   20.0230   45.7170   C 0  0  0  0  0  0  0  0  0  0  0  0
   30.4140   19.7480   47.1870   C 0  0  0  0  0  0  0  0  0  0  0  0
   31.5340   19.5570   47.9200   C 0  0  0  0  0  0  0  0  0  0  0  0
   31.6150   19.2890   49.3280   C 0  0  0  0  0  0  0  0  0  0  0  0
   32.8690   19.1060   49.8290   C 0  0  0  0  0  0  0  0  0  0  0  0
   33.2410   18.8890   51.2130   C 0  0  0  0  0  0  0  0  0  0  0  0
   34.5270   18.6650   51.5950   C 0  0  0  0  0  0  0  0  0  0  0  0
   34.9590   18.4900   52.9750   C 0  0  0  0  0  0  0  0  0  0  0  0
   36.2680   18.2380   53.2300   C 0  0  0  0  0  0  0  0  0  0  0  0
   36.7580   18.0420   54.5870   C 0  0  0  0  0  0  0  0  0  0  0  0
   38.1220   17.7880   54.8970   O 0  0  0  0  0  0  0  0  0  0  0  0
   28.2410   21.4810   46.0260   C 0  0  0  0  0  0  0  0  0  0  0  0
   30.4560   22.5970   45.6860   C 0  0  0  0  0  0  0  0  0  0  0  0
   31.7370   17.8970   45.0050   C 0  0  0  0  0  0  0  0  0  0  0  0
   30.2950   19.1560   50.1160   C 0  0  0  0  0  0  0  0  0  0  0  0
   33.8890   18.6090   54.1090   C 0  0  0  0  0  0  0  0  0  0  0  0
  1  2  1  0  0  0  0
  1  6  1  0  0  0  0
  1 17  1  0  0  0  0
  1 18  1  0  0  0  0
  2  3  1  0  0  0  0
  3  4  1  0  0  0  0
  4  5  1  0  0  0  0
  5  6  2  0  0  0  0
  5 19  1  0  0  0  0
  6  7  1  0  0  0  0
  7  8  2  0  0  0  0
  8  9  1  0  0  0  0
  9 10  2  0  0  0  0
  9 20  1  0  0  0  0
 10 11  1  0  0  0  0
 11 12  2  0  0  0  0
 12 13  1  0  0  0  0
 13 14  2  0  0  0  0
 13 21  1  0  0  0  0
 14 15  1  0  0  0  0
 15 16  1  0  0  0  0
A    1
C1
A    2
C2
A    3
C3
A    4
C4
A    5
C5
A    6
C6
A    7
C7
A    8
C8
A    9
C9
A   10
C10
A   11
C11
A   12
C12
A   13
C13
A   14
C14
A   15
C15
A   16
O1
A   17
C16
A   18
C17
A   19
C18
A   20
C19
A   21
C20
M  END
>  <InstanceId>
1RBP_RTL_A_183

>  <ChemCompId>
RTL

>  <PdbId>
1RBP

>  <ChainId>
A

>  <ResidueNumber>
183

>  <InsertionCode>


>  <Model>
1

>  <AltIds>


>  <MissingHeavyAtoms>
21

>  <ObservedFormula>
C20 O

>  <Name>
RETINOL

>  <SystematicName>
(4E,6E,8E)-3,7-dimethyl-9-(2,6,6-trimethyl-1-cyclohexenyl)nona-2,4,6,8-tetraen-1-ol

>  <Synonyms>


>  <Type>
NON-POLYMER

>  <Formula>
C20 H30 O

>  <MolecularWeight>
286.452

>  <ModifiedDate>
2011-06-04

>  <Parent>


>  <OneLetterCode>


>  <SubcomponentList>


>  <AmbiguousFlag>
N

>  <InChI>
InChI=1S/C20H30O/c1-16(8-6-9-17(2)13-15-21)11-12-19-18(3)10-7-14-20(19,4)5/h6,8-9,11-13,21H,7,10,14-15H2,1-5H3/b9-6+,12-11+,16-8+,17-13+

>  <InChIKey>
FPIPGXGPPPQFEQ-OVSJKPMPSA-N

>  <SMILES>
CC1=C(C(CCC1)(C)C)\C=C\C(=C\C=C\C(=CCO)C)\C

$$$$
