1GHW_BMZ_H_246


 25 27  0  0  0  0  0  0  0  0999 V2000
   12.0062  -11.8204   22.6541 C   0  0  0  0  0  0  0  0  0  0  0  0
   11.7130  -13.1816   22.6009 C   0  0  0  0  0  0  0  0  0  0  0  0
   12.2363  -13.9887   21.6108 C   0  0  0  0  0  0  0  0  0  0  0  0
   13.0443  -13.3966   20.6939 C   0  0  0  0  0  0  0  0  0  0  0  0
   13.3480  -12.0777   20.7146 C   0  0  0  0  0  0  0  0  0  0  0  0
   12.8410  -11.2473   21.6907 C   0  0  0  0  0  0  0  0  0  0  0  0
   13.6585  -13.8866   19.6824 N   0  0  0  0  0  0  0  0  0  0  0  0
   14.1401  -11.7236   19.7368 N   0  0  0  0  0  0  0  0  0  0  0  0
   14.3022  -12.9007   19.1180 C   0  0  0  0  0  0  0  0  0  0  0  0
   13.6474  -14.8258   19.3873 H   0  0  0  0  0  0  0  0  0  0  0  0
   15.0764  -13.0936   17.9629 C   0  0  0  0  0  0  0  0  0  0  0  0
   15.9200  -14.2120   17.8526 C   0  0  0  0  0  0  0  0  0  0  0  0
   16.6847  -14.4080   16.7122 C   0  0  0  0  0  0  0  0  0  0  0  0
   16.6245  -13.4892   15.6668 C   0  0  0  0  0  0  0  0  0  0  0  0
   15.7932  -12.3749   15.7690 C   0  0  0  0  0  0  0  0  0  0  0  0
   15.0203  -12.1710   16.9116 C   0  0  0  0  0  0  0  0  0  0  0  0
   14.2110  -11.0602   16.9897 O   0  0  0  0  0  0  0  0  0  0  0  0
   13.6879  -10.9144   17.7533 H   0  0  0  0  0  0  0  0  0  0  0  0
   11.4700  -11.0552   23.6688 C   0  0  0  0  0  0  0  0  0  0  0  0
   10.4604  -11.5393   24.3419 N   0  0  0  0  0  0  0  0  0  0  0  0
   11.9814   -9.8680   23.9280 N   0  0  0  0  0  0  0  0  0  0  0  0
   10.1036  -12.4300   24.1214 H   0  0  0  0  0  0  0  0  0  0  0  0
   10.0565  -11.0136   25.0697 H   0  0  0  0  0  0  0  0  0  0  0  0
   12.7426   -9.5341   23.4005 H   0  0  0  0  0  0  0  0  0  0  0  0
   11.6020   -9.3153   24.6490 H   0  0  0  0  0  0  0  0  0  0  0  0
  1  2  1  0  0  0
  1  6  2  0  0  0
  1 19  1  0  0  0
  2  3  2  0  0  0
  3  4  1  0  0  0
  4  5  2  0  0  0
  4  7  1  0  0  0
  5  6  1  0  0  0
  5  8  1  0  0  0
 19 20  1  0  0  0
 19 21  2  0  0  0
  7  9  1  0  0  0
  8  9  2  0  0  0
  9 11  1  0  0  0
 11 12  2  0  0  0
 11 16  1  0  0  0
 12 13  1  0  0  0
 13 14  2  0  0  0
 14 15  1  0  0  0
 15 16  2  0  0  0
 16 17  1  0  0  0
 20 22  1  0  0  0
 20 23  1  0  0  0
 21 24  1  0  0  0
 21 25  1  0  0  0
  7 10  1  0  0  0
 17 18  1  0  0  0
M  CHG 1  21   1
M  END
> <minimizedAffinity>
-8.35777

$$$$
1GHW_BMZ_H_246


 25 27  0  0  0  0  0  0  0  0999 V2000
   11.8559  -11.5580   22.8330 C   0  0  0  0  0  0  0  0  0  0  0  0
   11.9716  -10.4368   22.0137 C   0  0  0  0  0  0  0  0  0  0  0  0
   12.6518  -10.4939   20.8138 C   0  0  0  0  0  0  0  0  0  0  0  0
   13.2022  -11.6873   20.4719 C   0  0  0  0  0  0  0  0  0  0  0  0
   13.1109  -12.7949   21.2446 C   0  0  0  0  0  0  0  0  0  0  0  0
   12.4381  -12.7686   22.4471 C   0  0  0  0  0  0  0  0  0  0  0  0
   13.8777  -12.0297   19.4389 N   0  0  0  0  0  0  0  0  0  0  0  0
   13.7154  -13.8297   20.7223 N   0  0  0  0  0  0  0  0  0  0  0  0
   14.1812  -13.2909   19.5877 C   0  0  0  0  0  0  0  0  0  0  0  0
   14.1212  -11.4530   18.6791 H   0  0  0  0  0  0  0  0  0  0  0  0
   14.9370  -13.9835   18.6285 C   0  0  0  0  0  0  0  0  0  0  0  0
   14.8075  -15.3762   18.4935 C   0  0  0  0  0  0  0  0  0  0  0  0
   15.5503  -16.0642   17.5455 C   0  0  0  0  0  0  0  0  0  0  0  0
   16.4376  -15.3753   16.7216 C   0  0  0  0  0  0  0  0  0  0  0  0
   16.5753  -13.9941   16.8510 C   0  0  0  0  0  0  0  0  0  0  0  0
   15.8315  -13.2947   17.8007 C   0  0  0  0  0  0  0  0  0  0  0  0
   15.9892  -11.9317   17.9116 O   0  0  0  0  0  0  0  0  0  0  0  0
   15.4939  -11.4529   18.5467 H   0  0  0  0  0  0  0  0  0  0  0  0
   11.1566  -11.4569   24.0178 C   0  0  0  0  0  0  0  0  0  0  0  0
   11.1818  -10.3174   24.6561 N   0  0  0  0  0  0  0  0  0  0  0  0
   10.4918  -12.5010   24.4718 N   0  0  0  0  0  0  0  0  0  0  0  0
   11.6888   -9.5580   24.2879 H   0  0  0  0  0  0  0  0  0  0  0  0
   10.6938  -10.2181   25.5054 H   0  0  0  0  0  0  0  0  0  0  0  0
   10.4945  -13.3448   23.9646 H   0  0  0  0  0  0  0  0  0  0  0  0
    9.9928  -12.4368   25.3180 H   0  0  0  0  0  0  0  0  0  0  0  0
  1  2  1  0  0  0
  1  6  2  0  0  0
  1 19  1  0  0  0
  2  3  2  0  0  0
  3  4  1  0  0  0
  4  5  2  0  0  0
  4  7  1  0  0  0
  5  6  1  0  0  0
  5  8  1  0  0  0
 19 20  1  0  0  0
 19 21  2  0  0  0
  7  9  1  0  0  0
  8  9  2  0  0  0
  9 11  1  0  0  0
 11 12  2  0  0  0
 11 16  1  0  0  0
 12 13  1  0  0  0
 13 14  2  0  0  0
 14 15  1  0  0  0
 15 16  2  0  0  0
 16 17  1  0  0  0
 20 22  1  0  0  0
 20 23  1  0  0  0
 21 24  1  0  0  0
 21 25  1  0  0  0
  7 10  1  0  0  0
 17 18  1  0  0  0
M  CHG 1  21   1
M  END
> <minimizedAffinity>
-8.31078

$$$$
1GHW_BMZ_H_246


 25 27  0  0  0  0  0  0  0  0999 V2000
   11.9550  -10.1475   23.5972 C   0  0  0  0  0  0  0  0  0  0  0  0
   11.1915  -11.3128   23.6259 C   0  0  0  0  0  0  0  0  0  0  0  0
   11.4732  -12.3741   22.7893 C   0  0  0  0  0  0  0  0  0  0  0  0
   12.5225  -12.2293   21.9396 C   0  0  0  0  0  0  0  0  0  0  0  0
   13.2832  -11.1112   21.8840 C   0  0  0  0  0  0  0  0  0  0  0  0
   13.0265  -10.0358   22.7068 C   0  0  0  0  0  0  0  0  0  0  0  0
   13.0061  -13.0316   21.0661 N   0  0  0  0  0  0  0  0  0  0  0  0
   14.2366  -11.1893   20.9929 N   0  0  0  0  0  0  0  0  0  0  0  0
   14.0144  -12.4180   20.5076 C   0  0  0  0  0  0  0  0  0  0  0  0
   12.6803  -13.9366   20.8562 H   0  0  0  0  0  0  0  0  0  0  0  0
   14.7678  -13.0200   19.4874 C   0  0  0  0  0  0  0  0  0  0  0  0
   15.5764  -14.1350   19.7660 C   0  0  0  0  0  0  0  0  0  0  0  0
   16.3205  -14.7344   18.7607 C   0  0  0  0  0  0  0  0  0  0  0  0
   16.2745  -14.2282   17.4636 C   0  0  0  0  0  0  0  0  0  0  0  0
   15.4779  -13.1202   17.1789 C   0  0  0  0  0  0  0  0  0  0  0  0
   14.7259  -12.5123   18.1835 C   0  0  0  0  0  0  0  0  0  0  0  0
   13.9509  -11.4165   17.8773 O   0  0  0  0  0  0  0  0  0  0  0  0
   13.4420  -11.0011   18.5454 H   0  0  0  0  0  0  0  0  0  0  0  0
   11.6438   -9.1172   24.4601 C   0  0  0  0  0  0  0  0  0  0  0  0
   12.6058   -8.3236   24.8492 N   0  0  0  0  0  0  0  0  0  0  0  0
   10.3995   -8.9637   24.8678 N   0  0  0  0  0  0  0  0  0  0  0  0
   13.5241   -8.4674   24.5247 H   0  0  0  0  0  0  0  0  0  0  0  0
   12.4125   -7.5818   25.4668 H   0  0  0  0  0  0  0  0  0  0  0  0
    9.6991   -9.5805   24.5543 H   0  0  0  0  0  0  0  0  0  0  0  0
   10.1706   -8.2322   25.4857 H   0  0  0  0  0  0  0  0  0  0  0  0
  1  2  1  0  0  0
  1  6  2  0  0  0
  1 19  1  0  0  0
  2  3  2  0  0  0
  3  4  1  0  0  0
  4  5  2  0  0  0
  4  7  1  0  0  0
  5  6  1  0  0  0
  5  8  1  0  0  0
 19 20  1  0  0  0
 19 21  2  0  0  0
  7  9  1  0  0  0
  8  9  2  0  0  0
  9 11  1  0  0  0
 11 12  2  0  0  0
 11 16  1  0  0  0
 12 13  1  0  0  0
 13 14  2  0  0  0
 14 15  1  0  0  0
 15 16  2  0  0  0
 16 17  1  0  0  0
 20 22  1  0  0  0
 20 23  1  0  0  0
 21 24  1  0  0  0
 21 25  1  0  0  0
  7 10  1  0  0  0
 17 18  1  0  0  0
M  CHG 1  21   1
M  END
> <minimizedAffinity>
-8.15729

$$$$
1GHW_BMZ_H_246


 25 27  0  0  0  0  0  0  0  0999 V2000
   12.3099  -17.5968   19.6402 C   0  0  0  0  0  0  0  0  0  0  0  0
   12.8555  -17.9986   20.8578 C   0  0  0  0  0  0  0  0  0  0  0  0
   13.0589  -17.0973   21.8835 C   0  0  0  0  0  0  0  0  0  0  0  0
   12.7065  -15.8067   21.6508 C   0  0  0  0  0  0  0  0  0  0  0  0
   12.1764  -15.3821   20.4800 C   0  0  0  0  0  0  0  0  0  0  0  0
   11.9614  -16.2584   19.4383 C   0  0  0  0  0  0  0  0  0  0  0  0
   12.7801  -14.7727   22.4030 N   0  0  0  0  0  0  0  0  0  0  0  0
   11.9147  -14.1013   20.4759 N   0  0  0  0  0  0  0  0  0  0  0  0
   12.3154  -13.7683   21.7101 C   0  0  0  0  0  0  0  0  0  0  0  0
   13.1214  -14.7412   23.3259 H   0  0  0  0  0  0  0  0  0  0  0  0
   12.2650  -12.4695   22.2409 C   0  0  0  0  0  0  0  0  0  0  0  0
   13.1978  -11.5003   21.8347 C   0  0  0  0  0  0  0  0  0  0  0  0
   13.1502  -10.2152   22.3545 C   0  0  0  0  0  0  0  0  0  0  0  0
   12.1757   -9.8784   23.2912 C   0  0  0  0  0  0  0  0  0  0  0  0
   11.2485  -10.8346   23.7027 C   0  0  0  0  0  0  0  0  0  0  0  0
   11.2886  -12.1284   23.1843 C   0  0  0  0  0  0  0  0  0  0  0  0
   10.3645  -13.0553   23.6104 O   0  0  0  0  0  0  0  0  0  0  0  0
   10.3833  -13.9273   23.2679 H   0  0  0  0  0  0  0  0  0  0  0  0
   12.1137  -18.5348   18.6479 C   0  0  0  0  0  0  0  0  0  0  0  0
   10.9170  -19.0369   18.4986 N   0  0  0  0  0  0  0  0  0  0  0  0
   13.1273  -18.8988   17.8874 N   0  0  0  0  0  0  0  0  0  0  0  0
   10.1828  -18.7420   19.0846 H   0  0  0  0  0  0  0  0  0  0  0  0
   10.7492  -19.7101   17.8001 H   0  0  0  0  0  0  0  0  0  0  0  0
   14.0162  -18.4996   18.0278 H   0  0  0  0  0  0  0  0  0  0  0  0
   12.9952  -19.5697   17.1791 H   0  0  0  0  0  0  0  0  0  0  0  0
  1  2  1  0  0  0
  1  6  2  0  0  0
  1 19  1  0  0  0
  2  3  2  0  0  0
  3  4  1  0  0  0
  4  5  2  0  0  0
  4  7  1  0  0  0
  5  6  1  0  0  0
  5  8  1  0  0  0
 19 20  1  0  0  0
 19 21  2  0  0  0
  7  9  1  0  0  0
  8  9  2  0  0  0
  9 11  1  0  0  0
 11 12  2  0  0  0
 11 16  1  0  0  0
 12 13  1  0  0  0
 13 14  2  0  0  0
 14 15  1  0  0  0
 15 16  2  0  0  0
 16 17  1  0  0  0
 20 22  1  0  0  0
 20 23  1  0  0  0
 21 24  1  0  0  0
 21 25  1  0  0  0
  7 10  1  0  0  0
 17 18  1  0  0  0
M  CHG 1  21   1
M  END
> <minimizedAffinity>
-7.83553

$$$$
1GHW_BMZ_H_246


 25 27  0  0  0  0  0  0  0  0999 V2000
   18.7601  -13.5793   19.6398 C   0  0  0  0  0  0  0  0  0  0  0  0
   18.0540  -13.5849   18.4386 C   0  0  0  0  0  0  0  0  0  0  0  0
   16.7094  -13.2750   18.3968 C   0  0  0  0  0  0  0  0  0  0  0  0
   16.1093  -12.9682   19.5758 C   0  0  0  0  0  0  0  0  0  0  0  0
   16.7643  -12.9553   20.7603 C   0  0  0  0  0  0  0  0  0  0  0  0
   18.1064  -13.2599   20.8332 C   0  0  0  0  0  0  0  0  0  0  0  0
   14.8971  -12.6476   19.8368 N   0  0  0  0  0  0  0  0  0  0  0  0
   15.9913  -12.6346   21.7645 N   0  0  0  0  0  0  0  0  0  0  0  0
   14.8276  -12.4530   21.1261 C   0  0  0  0  0  0  0  0  0  0  0  0
   14.1596  -12.5640   19.1899 H   0  0  0  0  0  0  0  0  0  0  0  0
   13.6227  -12.0960   21.7520 C   0  0  0  0  0  0  0  0  0  0  0  0
   12.7241  -13.0882   22.1795 C   0  0  0  0  0  0  0  0  0  0  0  0
   11.5337  -12.7403   22.8006 C   0  0  0  0  0  0  0  0  0  0  0  0
   11.2184  -11.3981   23.0000 C   0  0  0  0  0  0  0  0  0  0  0  0
   12.1022  -10.4070   22.5758 C   0  0  0  0  0  0  0  0  0  0  0  0
   13.3015  -10.7482   21.9516 C   0  0  0  0  0  0  0  0  0  0  0  0
   14.1550   -9.7505   21.5381 O   0  0  0  0  0  0  0  0  0  0  0  0
   14.9632   -9.9697   21.1177 H   0  0  0  0  0  0  0  0  0  0  0  0
   20.1054  -13.8842   19.6315 C   0  0  0  0  0  0  0  0  0  0  0  0
   20.5286  -14.8388   20.4164 N   0  0  0  0  0  0  0  0  0  0  0  0
   20.9201  -13.2102   18.8440 N   0  0  0  0  0  0  0  0  0  0  0  0
   19.8921  -15.3216   20.9917 H   0  0  0  0  0  0  0  0  0  0  0  0
   21.4842  -15.0754   20.4326 H   0  0  0  0  0  0  0  0  0  0  0  0
   20.5668  -12.4967   18.2650 H   0  0  0  0  0  0  0  0  0  0  0  0
   21.8818  -13.4206   18.8349 H   0  0  0  0  0  0  0  0  0  0  0  0
  1  2  1  0  0  0
  1  6  2  0  0  0
  1 19  1  0  0  0
  2  3  2  0  0  0
  3  4  1  0  0  0
  4  5  2  0  0  0
  4  7  1  0  0  0
  5  6  1  0  0  0
  5  8  1  0  0  0
 19 20  1  0  0  0
 19 21  2  0  0  0
  7  9  1  0  0  0
  8  9  2  0  0  0
  9 11  1  0  0  0
 11 12  2  0  0  0
 11 16  1  0  0  0
 12 13  1  0  0  0
 13 14  2  0  0  0
 14 15  1  0  0  0
 15 16  2  0  0  0
 16 17  1  0  0  0
 20 22  1  0  0  0
 20 23  1  0  0  0
 21 24  1  0  0  0
 21 25  1  0  0  0
  7 10  1  0  0  0
 17 18  1  0  0  0
M  CHG 1  21   1
M  END
> <minimizedAffinity>
-7.73191

$$$$
1GHW_BMZ_H_246


 25 27  0  0  0  0  0  0  0  0999 V2000
   16.0314  -13.2806   16.6125 C   0  0  0  0  0  0  0  0  0  0  0  0
   16.4114  -14.3839   17.3741 C   0  0  0  0  0  0  0  0  0  0  0  0
   15.9248  -14.5738   18.6519 C   0  0  0  0  0  0  0  0  0  0  0  0
   15.0645  -13.6385   19.1306 C   0  0  0  0  0  0  0  0  0  0  0  0
   14.6762  -12.5544   18.4192 C   0  0  0  0  0  0  0  0  0  0  0  0
   15.1448  -12.3384   17.1412 C   0  0  0  0  0  0  0  0  0  0  0  0
   14.4662  -13.5550   20.2600 N   0  0  0  0  0  0  0  0  0  0  0  0
   13.8462  -11.7869   19.0755 N   0  0  0  0  0  0  0  0  0  0  0  0
   13.7502  -12.4635   20.2278 C   0  0  0  0  0  0  0  0  0  0  0  0
   14.5332  -14.1912   21.0083 H   0  0  0  0  0  0  0  0  0  0  0  0
   12.9706  -12.0628   21.3244 C   0  0  0  0  0  0  0  0  0  0  0  0
   11.9951  -12.9245   21.8541 C   0  0  0  0  0  0  0  0  0  0  0  0
   11.2243  -12.5340   22.9390 C   0  0  0  0  0  0  0  0  0  0  0  0
   11.4101  -11.2764   23.5089 C   0  0  0  0  0  0  0  0  0  0  0  0
   12.3730  -10.4136   22.9876 C   0  0  0  0  0  0  0  0  0  0  0  0
   13.1529  -10.7989   21.8978 C   0  0  0  0  0  0  0  0  0  0  0  0
   14.0938   -9.9266   21.3991 O   0  0  0  0  0  0  0  0  0  0  0  0
   14.6227  -10.1763   20.6671 H   0  0  0  0  0  0  0  0  0  0  0  0
   16.5341  -13.1383   15.3358 C   0  0  0  0  0  0  0  0  0  0  0  0
   17.1490  -14.1565   14.7956 N   0  0  0  0  0  0  0  0  0  0  0  0
   16.3862  -11.9915   14.7026 N   0  0  0  0  0  0  0  0  0  0  0  0
   17.2414  -14.9985   15.2974 H   0  0  0  0  0  0  0  0  0  0  0  0
   17.5199  -14.0819   13.8867 H   0  0  0  0  0  0  0  0  0  0  0  0
   15.9171  -11.2446   15.1400 H   0  0  0  0  0  0  0  0  0  0  0  0
   16.7447  -11.8819   13.7923 H   0  0  0  0  0  0  0  0  0  0  0  0
  1  2  1  0  0  0
  1  6  2  0  0  0
  1 19  1  0  0  0
  2  3  2  0  0  0
  3  4  1  0  0  0
  4  5  2  0  0  0
  4  7  1  0  0  0
  5  6  1  0  0  0
  5  8  1  0  0  0
 19 20  1  0  0  0
 19 21  2  0  0  0
  7  9  1  0  0  0
  8  9  2  0  0  0
  9 11  1  0  0  0
 11 12  2  0  0  0
 11 16  1  0  0  0
 12 13  1  0  0  0
 13 14  2  0  0  0
 14 15  1  0  0  0
 15 16  2  0  0  0
 16 17  1  0  0  0
 20 22  1  0  0  0
 20 23  1  0  0  0
 21 24  1  0  0  0
 21 25  1  0  0  0
  7 10  1  0  0  0
 17 18  1  0  0  0
M  CHG 1  21   1
M  END
> <minimizedAffinity>
-7.58393

$$$$
1GHW_BMZ_H_246


 25 27  0  0  0  0  0  0  0  0999 V2000
   16.0116  -13.8154   17.7439 C   0  0  0  0  0  0  0  0  0  0  0  0
   16.3973  -14.7610   18.6919 C   0  0  0  0  0  0  0  0  0  0  0  0
   15.8729  -14.7500   19.9688 C   0  0  0  0  0  0  0  0  0  0  0  0
   14.9697  -13.7778   20.2573 C   0  0  0  0  0  0  0  0  0  0  0  0
   14.5745  -12.8430   19.3617 C   0  0  0  0  0  0  0  0  0  0  0  0
   15.0802  -12.8289   18.0797 C   0  0  0  0  0  0  0  0  0  0  0  0
   14.3308  -13.5262   21.3385 N   0  0  0  0  0  0  0  0  0  0  0  0
   13.7004  -12.0051   19.8544 N   0  0  0  0  0  0  0  0  0  0  0  0
   13.5848  -12.4811   21.1013 C   0  0  0  0  0  0  0  0  0  0  0  0
   14.3906  -14.0248   22.1853 H   0  0  0  0  0  0  0  0  0  0  0  0
   12.7565  -11.9289   22.0913 C   0  0  0  0  0  0  0  0  0  0  0  0
   12.8147  -10.5549   22.3797 C   0  0  0  0  0  0  0  0  0  0  0  0
   11.9965  -10.0045   23.3552 C   0  0  0  0  0  0  0  0  0  0  0  0
   11.1121  -10.8163   24.0619 C   0  0  0  0  0  0  0  0  0  0  0  0
   11.0503  -12.1812   23.7850 C   0  0  0  0  0  0  0  0  0  0  0  0
   11.8685  -12.7423   22.8052 C   0  0  0  0  0  0  0  0  0  0  0  0
   11.7915  -14.0936   22.5540 O   0  0  0  0  0  0  0  0  0  0  0  0
   12.3372  -14.4799   21.8975 H   0  0  0  0  0  0  0  0  0  0  0  0
   16.5535  -13.8726   16.4766 C   0  0  0  0  0  0  0  0  0  0  0  0
   17.2607  -12.8566   16.0594 N   0  0  0  0  0  0  0  0  0  0  0  0
   16.3434  -14.9365   15.7269 N   0  0  0  0  0  0  0  0  0  0  0  0
   17.3975  -12.0780   16.6461 H   0  0  0  0  0  0  0  0  0  0  0  0
   17.6570  -12.8696   15.1582 H   0  0  0  0  0  0  0  0  0  0  0  0
   15.8051  -15.6845   16.0734 H   0  0  0  0  0  0  0  0  0  0  0  0
   16.7248  -14.9831   14.8204 H   0  0  0  0  0  0  0  0  0  0  0  0
  1  2  1  0  0  0
  1  6  2  0  0  0
  1 19  1  0  0  0
  2  3  2  0  0  0
  3  4  1  0  0  0
  4  5  2  0  0  0
  4  7  1  0  0  0
  5  6  1  0  0  0
  5  8  1  0  0  0
 19 20  1  0  0  0
 19 21  2  0  0  0
  7  9  1  0  0  0
  8  9  2  0  0  0
  9 11  1  0  0  0
 11 12  2  0  0  0
 11 16  1  0  0  0
 12 13  1  0  0  0
 13 14  2  0  0  0
 14 15  1  0  0  0
 15 16  2  0  0  0
 16 17  1  0  0  0
 20 22  1  0  0  0
 20 23  1  0  0  0
 21 24  1  0  0  0
 21 25  1  0  0  0
  7 10  1  0  0  0
 17 18  1  0  0  0
M  CHG 1  21   1
M  END
> <minimizedAffinity>
-7.54804

$$$$
1GHW_BMZ_H_246


 25 27  0  0  0  0  0  0  0  0999 V2000
   12.4622  -13.0285   22.2827 C   0  0  0  0  0  0  0  0  0  0  0  0
   12.3579  -14.3884   21.9975 C   0  0  0  0  0  0  0  0  0  0  0  0
   13.4447  -15.1111   21.5477 C   0  0  0  0  0  0  0  0  0  0  0  0
   14.6139  -14.4376   21.3946 C   0  0  0  0  0  0  0  0  0  0  0  0
   14.7497  -13.1173   21.6602 C   0  0  0  0  0  0  0  0  0  0  0  0
   13.6829  -12.3700   22.1107 C   0  0  0  0  0  0  0  0  0  0  0  0
   15.7639  -14.8406   21.0002 N   0  0  0  0  0  0  0  0  0  0  0  0
   15.9608  -12.6771   21.4407 N   0  0  0  0  0  0  0  0  0  0  0  0
   16.5563  -13.8031   21.0258 C   0  0  0  0  0  0  0  0  0  0  0  0
   16.0041  -15.7562   20.7299 H   0  0  0  0  0  0  0  0  0  0  0  0
   17.9022  -13.8960   20.6372 C   0  0  0  0  0  0  0  0  0  0  0  0
   18.8612  -14.4198   21.5207 C   0  0  0  0  0  0  0  0  0  0  0  0
   20.1915  -14.5159   21.1402 C   0  0  0  0  0  0  0  0  0  0  0  0
   20.5871  -14.0862   19.8755 C   0  0  0  0  0  0  0  0  0  0  0  0
   19.6432  -13.5618   18.9939 C   0  0  0  0  0  0  0  0  0  0  0  0
   18.3036  -13.4627   19.3681 C   0  0  0  0  0  0  0  0  0  0  0  0
   17.3919  -12.9370   18.4807 O   0  0  0  0  0  0  0  0  0  0  0  0
   16.4895  -12.8663   18.7229 H   0  0  0  0  0  0  0  0  0  0  0  0
   11.3523  -12.3496   22.7412 C   0  0  0  0  0  0  0  0  0  0  0  0
   11.2864  -11.0611   22.5362 N   0  0  0  0  0  0  0  0  0  0  0  0
   10.3998  -13.0097   23.3699 N   0  0  0  0  0  0  0  0  0  0  0  0
   12.0161  -10.6000   22.0629 H   0  0  0  0  0  0  0  0  0  0  0  0
   10.5069  -10.5512   22.8551 H   0  0  0  0  0  0  0  0  0  0  0  0
   10.4823  -13.9811   23.5071 H   0  0  0  0  0  0  0  0  0  0  0  0
    9.6062  -12.5313   23.7022 H   0  0  0  0  0  0  0  0  0  0  0  0
  1  2  1  0  0  0
  1  6  2  0  0  0
  1 19  1  0  0  0
  2  3  2  0  0  0
  3  4  1  0  0  0
  4  5  2  0  0  0
  4  7  1  0  0  0
  5  6  1  0  0  0
  5  8  1  0  0  0
 19 20  1  0  0  0
 19 21  2  0  0  0
  7  9  1  0  0  0
  8  9  2  0  0  0
  9 11  1  0  0  0
 11 12  2  0  0  0
 11 16  1  0  0  0
 12 13  1  0  0  0
 13 14  2  0  0  0
 14 15  1  0  0  0
 15 16  2  0  0  0
 16 17  1  0  0  0
 20 22  1  0  0  0
 20 23  1  0  0  0
 21 24  1  0  0  0
 21 25  1  0  0  0
  7 10  1  0  0  0
 17 18  1  0  0  0
M  CHG 1  21   1
M  END
> <minimizedAffinity>
-7.46818

$$$$
1GHW_BMZ_H_246


 25 27  0  0  0  0  0  0  0  0999 V2000
   12.7866  -12.1413   21.8697 C   0  0  0  0  0  0  0  0  0  0  0  0
   12.4793  -13.4994   21.8175 C   0  0  0  0  0  0  0  0  0  0  0  0
   13.4558  -14.4459   21.5800 C   0  0  0  0  0  0  0  0  0  0  0  0
   14.7233  -13.9936   21.3982 C   0  0  0  0  0  0  0  0  0  0  0  0
   15.0561  -12.6823   21.4402 C   0  0  0  0  0  0  0  0  0  0  0  0
   14.1033  -11.7147   21.6756 C   0  0  0  0  0  0  0  0  0  0  0  0
   15.8107  -14.6287   21.1644 N   0  0  0  0  0  0  0  0  0  0  0  0
   16.3307  -12.4751   21.2366 N   0  0  0  0  0  0  0  0  0  0  0  0
   16.7567  -13.7339   21.0675 C   0  0  0  0  0  0  0  0  0  0  0  0
   15.9135  -15.6037   21.0750 H   0  0  0  0  0  0  0  0  0  0  0  0
   18.0866  -14.0958   20.8000 C   0  0  0  0  0  0  0  0  0  0  0  0
   18.8319  -13.3966   19.8356 C   0  0  0  0  0  0  0  0  0  0  0  0
   20.1468  -13.7490   19.5698 C   0  0  0  0  0  0  0  0  0  0  0  0
   20.7369  -14.8073   20.2572 C   0  0  0  0  0  0  0  0  0  0  0  0
   20.0038  -15.5089   21.2131 C   0  0  0  0  0  0  0  0  0  0  0  0
   18.6818  -15.1604   21.4871 C   0  0  0  0  0  0  0  0  0  0  0  0
   17.9781  -15.8720   22.4323 O   0  0  0  0  0  0  0  0  0  0  0  0
   17.0893  -15.6454   22.6235 H   0  0  0  0  0  0  0  0  0  0  0  0
   11.7799  -11.2324   22.1215 C   0  0  0  0  0  0  0  0  0  0  0  0
   11.6874  -10.1818   21.3507 N   0  0  0  0  0  0  0  0  0  0  0  0
   10.9494  -11.4428   23.1236 N   0  0  0  0  0  0  0  0  0  0  0  0
   12.3249  -10.0562   20.6111 H   0  0  0  0  0  0  0  0  0  0  0  0
   10.9801   -9.5155   21.5094 H   0  0  0  0  0  0  0  0  0  0  0  0
   11.0482  -12.2458   23.6846 H   0  0  0  0  0  0  0  0  0  0  0  0
   10.2302  -10.7970   23.3108 H   0  0  0  0  0  0  0  0  0  0  0  0
  1  2  1  0  0  0
  1  6  2  0  0  0
  1 19  1  0  0  0
  2  3  2  0  0  0
  3  4  1  0  0  0
  4  5  2  0  0  0
  4  7  1  0  0  0
  5  6  1  0  0  0
  5  8  1  0  0  0
 19 20  1  0  0  0
 19 21  2  0  0  0
  7  9  1  0  0  0
  8  9  2  0  0  0
  9 11  1  0  0  0
 11 12  2  0  0  0
 11 16  1  0  0  0
 12 13  1  0  0  0
 13 14  2  0  0  0
 14 15  1  0  0  0
 15 16  2  0  0  0
 16 17  1  0  0  0
 20 22  1  0  0  0
 20 23  1  0  0  0
 21 24  1  0  0  0
 21 25  1  0  0  0
  7 10  1  0  0  0
 17 18  1  0  0  0
M  CHG 1  21   1
M  END
> <minimizedAffinity>
-6.95381

$$$$
1GHW_BMZ_H_246


 25 27  0  0  0  0  0  0  0  0999 V2000
   14.6964  -16.7624   18.3742 C   0  0  0  0  0  0  0  0  0  0  0  0
   13.5045  -17.4113   18.6903 C   0  0  0  0  0  0  0  0  0  0  0  0
   12.5508  -16.8094   19.4865 C   0  0  0  0  0  0  0  0  0  0  0  0
   12.8281  -15.5623   19.9468 C   0  0  0  0  0  0  0  0  0  0  0  0
   13.9759  -14.9043   19.6611 C   0  0  0  0  0  0  0  0  0  0  0  0
   14.9461  -15.4794   18.8690 C   0  0  0  0  0  0  0  0  0  0  0  0
   12.1440  -14.7761   20.6914 N   0  0  0  0  0  0  0  0  0  0  0  0
   14.0323  -13.7194   20.2104 N   0  0  0  0  0  0  0  0  0  0  0  0
   12.8543  -13.6916   20.8478 C   0  0  0  0  0  0  0  0  0  0  0  0
   11.2540  -14.9549   21.0724 H   0  0  0  0  0  0  0  0  0  0  0  0
   12.3959  -12.6186   21.6285 C   0  0  0  0  0  0  0  0  0  0  0  0
   11.8276  -12.8525   22.8922 C   0  0  0  0  0  0  0  0  0  0  0  0
   11.3757  -11.7953   23.6680 C   0  0  0  0  0  0  0  0  0  0  0  0
   11.4781  -10.4895   23.1936 C   0  0  0  0  0  0  0  0  0  0  0  0
   12.0371  -10.2484   21.9395 C   0  0  0  0  0  0  0  0  0  0  0  0
   12.4948  -11.3054   21.1537 C   0  0  0  0  0  0  0  0  0  0  0  0
   13.0386  -11.0411   19.9170 O   0  0  0  0  0  0  0  0  0  0  0  0
   13.3490  -11.7446   19.3816 H   0  0  0  0  0  0  0  0  0  0  0  0
   15.6152  -17.3983   17.5653 C   0  0  0  0  0  0  0  0  0  0  0  0
   15.7806  -16.9538   16.3481 N   0  0  0  0  0  0  0  0  0  0  0  0
   16.2921  -18.4279   18.0344 N   0  0  0  0  0  0  0  0  0  0  0  0
   15.2580  -16.1823   16.0305 H   0  0  0  0  0  0  0  0  0  0  0  0
   16.4278  -17.3904   15.7483 H   0  0  0  0  0  0  0  0  0  0  0  0
   16.1421  -18.7364   18.9572 H   0  0  0  0  0  0  0  0  0  0  0  0
   16.9475  -18.8882   17.4618 H   0  0  0  0  0  0  0  0  0  0  0  0
  1  2  1  0  0  0
  1  6  2  0  0  0
  1 19  1  0  0  0
  2  3  2  0  0  0
  3  4  1  0  0  0
  4  5  2  0  0  0
  4  7  1  0  0  0
  5  6  1  0  0  0
  5  8  1  0  0  0
 19 20  1  0  0  0
 19 21  2  0  0  0
  7  9  1  0  0  0
  8  9  2  0  0  0
  9 11  1  0  0  0
 11 12  2  0  0  0
 11 16  1  0  0  0
 12 13  1  0  0  0
 13 14  2  0  0  0
 14 15  1  0  0  0
 15 16  2  0  0  0
 16 17  1  0  0  0
 20 22  1  0  0  0
 20 23  1  0  0  0
 21 24  1  0  0  0
 21 25  1  0  0  0
  7 10  1  0  0  0
 17 18  1  0  0  0
M  CHG 1  21   1
M  END
> <minimizedAffinity>
-6.73339

$$$$
