2AM4_U2F_A_449


 44 46  0  0  0  0  0  0  0  0999 V2000
    3.6337   18.5799    9.6368 P   0  0  0  0  0  0  0  0  0  0  0  0
    3.8388   17.2893   10.2059 O   0  0  0  0  0  0  0  0  0  0  0  0
    4.2081   18.8013    8.2622 O   0  0  0  0  0  0  0  0  0  0  0  0
    5.1503   18.5705    8.2644 H   0  0  0  0  0  0  0  0  0  0  0  0
    4.3528   19.6600   10.5028 O   0  0  0  0  0  0  0  0  0  0  0  0
    5.1213   19.6290   11.8705 P   0  0  0  0  0  0  0  0  0  0  0  0
    6.5286   20.1003   11.6265 O   0  0  0  0  0  0  0  0  0  0  0  0
    5.1759   18.2759   12.4740 O   0  0  0  0  0  0  0  0  0  0  0  0
    5.6601   18.3157   13.3135 H   0  0  0  0  0  0  0  0  0  0  0  0
    4.5888   20.4427   13.0135 O   0  0  0  0  0  0  0  0  0  0  0  0
    3.0650   20.5232   13.0959 C   0  0  0  0  0  0  0  0  0  0  0  0
    2.2646   21.5195   13.7504 C   0  0  0  0  0  0  0  0  0  0  0  0
    2.6020   22.7682   13.1721 F   0  0  0  0  0  0  0  0  0  0  0  0
    2.6286   21.6845   15.2932 C   0  0  0  0  0  0  0  0  0  0  0  0
    1.9792   22.8335   16.1005 O   0  0  0  0  0  0  0  0  0  0  0  0
    2.3300   20.3056   16.0135 C   0  0  0  0  0  0  0  0  0  0  0  0
    2.9818   20.3824   17.3868 O   0  0  0  0  0  0  0  0  0  0  0  0
    3.0205   19.0511   15.1298 C   0  0  0  0  0  0  0  0  0  0  0  0
    2.5619   19.2531   13.7733 O   0  0  0  0  0  0  0  0  0  0  0  0
    1.0247   22.6772   16.1750 H   0  0  0  0  0  0  0  0  0  0  0  0
    3.9326   20.5454   17.2848 H   0  0  0  0  0  0  0  0  0  0  0  0
    2.5252   17.7006   15.7334 C   0  0  0  0  0  0  0  0  0  0  0  0
    3.1245   17.4102   17.0000 O   0  0  0  0  0  0  0  0  0  0  0  0
    4.0852   17.3302   16.8924 H   0  0  0  0  0  0  0  0  0  0  0  0
    2.0836   18.9410    9.7040 O   0  0  0  0  0  0  0  0  0  0  0  0
    1.2767   18.2803   10.6614 C   0  0  0  0  0  0  0  0  0  0  0  0
    0.0902   17.7134    9.8242 C   0  0  0  0  0  0  0  0  0  0  0  0
   -0.6224   18.7337    9.1000 O   0  0  0  0  0  0  0  0  0  0  0  0
   -0.6704   18.3605    7.7222 C   0  0  0  0  0  0  0  0  0  0  0  0
    0.5084   17.4669    7.4544 C   0  0  0  0  0  0  0  0  0  0  0  0
    0.5400   16.6867    8.7724 C   0  0  0  0  0  0  0  0  0  0  0  0
   -0.3570   15.5812    8.7408 O   0  0  0  0  0  0  0  0  0  0  0  0
    0.2398   16.6848    6.3398 O   0  0  0  0  0  0  0  0  0  0  0  0
   -1.2553   15.8987    8.5588 H   0  0  0  0  0  0  0  0  0  0  0  0
   -0.6020   16.2197    6.4663 H   0  0  0  0  0  0  0  0  0  0  0  0
   -0.6832   19.6190    6.9524 N   0  0  0  0  0  0  0  0  0  0  0  0
   -1.9343   20.2533    6.7199 C   0  0  0  0  0  0  0  0  0  0  0  0
   -2.9759   19.8011    7.1373 O   0  0  0  0  0  0  0  0  0  0  0  0
   -1.9644   21.4527    5.9805 N   0  0  0  0  0  0  0  0  0  0  0  0
   -0.7971   22.0281    5.4750 C   0  0  0  0  0  0  0  0  0  0  0  0
   -0.8773   22.9978    4.8801 O   0  0  0  0  0  0  0  0  0  0  0  0
    0.4391   21.4001    5.7108 C   0  0  0  0  0  0  0  0  0  0  0  0
    0.5030   20.1955    6.4461 C   0  0  0  0  0  0  0  0  0  0  0  0
   -2.8286   21.8951    5.8167 H   0  0  0  0  0  0  0  0  0  0  0  0
 11 10  1  0  0  0
 11 12  1  0  0  0
 11 19  1  0  0  0
 10  6  1  0  0  0
  6  7  2  0  0  0
  6  8  1  0  0  0
  6  5  1  0  0  0
  5  1  1  0  0  0
  1  2  2  0  0  0
  1  3  1  0  0  0
  1 25  1  0  0  0
 25 26  1  0  0  0
 26 27  1  0  0  0
 27 28  1  0  0  0
 27 31  1  0  0  0
 28 29  1  0  0  0
 29 30  1  0  0  0
 29 36  1  0  0  0
 30 31  1  0  0  0
 30 33  1  0  0  0
 31 32  1  0  0  0
 36 37  1  0  0  0
 36 43  1  0  0  0
 37 38  2  0  0  0
 37 39  1  0  0  0
 39 40  1  0  0  0
 40 41  2  0  0  0
 40 42  1  0  0  0
 42 43  2  0  0  0
 12 13  1  0  0  0
 12 14  1  0  0  0
 14 15  1  0  0  0
 14 16  1  0  0  0
 16 17  1  0  0  0
 16 18  1  0  0  0
 18 22  1  0  0  0
 18 19  1  0  0  0
 22 23  1  0  0  0
  8  9  1  0  0  0
  3  4  1  0  0  0
 32 34  1  0  0  0
 33 35  1  0  0  0
 39 44  1  0  0  0
 15 20  1  0  0  0
 17 21  1  0  0  0
 23 24  1  0  0  0
M  END
> <minimizedAffinity>
-10.97287

$$$$
2AM4_U2F_A_449


 44 46  0  0  0  0  0  0  0  0999 V2000
    3.6032   18.5021    9.5640 P   0  0  0  0  0  0  0  0  0  0  0  0
    3.7347   17.1648   10.0394 O   0  0  0  0  0  0  0  0  0  0  0  0
    4.1772   18.7843    8.2003 O   0  0  0  0  0  0  0  0  0  0  0  0
    5.1035   18.4977    8.1738 H   0  0  0  0  0  0  0  0  0  0  0  0
    4.3948   19.4737   10.4930 O   0  0  0  0  0  0  0  0  0  0  0  0
    5.4801   19.2759   11.6088 P   0  0  0  0  0  0  0  0  0  0  0  0
    6.5160   20.3546   11.4495 O   0  0  0  0  0  0  0  0  0  0  0  0
    6.1564   17.9588   11.5324 O   0  0  0  0  0  0  0  0  0  0  0  0
    6.8140   17.8914   12.2423 H   0  0  0  0  0  0  0  0  0  0  0  0
    5.0482   19.3051   13.0457 O   0  0  0  0  0  0  0  0  0  0  0  0
    3.7786   18.5134   13.3560 C   0  0  0  0  0  0  0  0  0  0  0  0
    2.8723   18.6878   14.4560 C   0  0  0  0  0  0  0  0  0  0  0  0
    2.3895   20.0182   14.3886 F   0  0  0  0  0  0  0  0  0  0  0  0
    3.5994   18.5998   15.8715 C   0  0  0  0  0  0  0  0  0  0  0  0
    2.7975   18.9364   17.1511 O   0  0  0  0  0  0  0  0  0  0  0  0
    4.2203   17.1490   16.0099 C   0  0  0  0  0  0  0  0  0  0  0  0
    5.1706   17.1944   17.1980 O   0  0  0  0  0  0  0  0  0  0  0  0
    5.0796   16.7720   14.6132 C   0  0  0  0  0  0  0  0  0  0  0  0
    4.1665   17.0486   13.5266 O   0  0  0  0  0  0  0  0  0  0  0  0
    2.1047   18.2704   17.2831 H   0  0  0  0  0  0  0  0  0  0  0  0
    5.8483   17.8711   17.0443 H   0  0  0  0  0  0  0  0  0  0  0  0
    5.4869   15.2677   14.6836 C   0  0  0  0  0  0  0  0  0  0  0  0
    4.9986   14.5118   13.5710 O   0  0  0  0  0  0  0  0  0  0  0  0
    4.0290   14.5367   13.5637 H   0  0  0  0  0  0  0  0  0  0  0  0
    2.0787   18.9501    9.6771 O   0  0  0  0  0  0  0  0  0  0  0  0
    1.2513   18.2983   10.6230 C   0  0  0  0  0  0  0  0  0  0  0  0
    0.0718   17.7422    9.7687 C   0  0  0  0  0  0  0  0  0  0  0  0
   -0.6295   18.7706    9.0450 O   0  0  0  0  0  0  0  0  0  0  0  0
   -0.6641   18.4083    7.6640 C   0  0  0  0  0  0  0  0  0  0  0  0
    0.5144   17.5126    7.4017 C   0  0  0  0  0  0  0  0  0  0  0  0
    0.5292   16.7220    8.7138 C   0  0  0  0  0  0  0  0  0  0  0  0
   -0.3713   15.6200    8.6641 O   0  0  0  0  0  0  0  0  0  0  0  0
    0.2550   16.7401    6.2782 O   0  0  0  0  0  0  0  0  0  0  0  0
   -1.2664   15.9422    8.4750 H   0  0  0  0  0  0  0  0  0  0  0  0
   -0.5897   16.2772    6.3922 H   0  0  0  0  0  0  0  0  0  0  0  0
   -0.6642   19.6728    6.9039 N   0  0  0  0  0  0  0  0  0  0  0  0
   -1.9147   20.2856    6.6169 C   0  0  0  0  0  0  0  0  0  0  0  0
   -2.9661   19.8107    6.9808 O   0  0  0  0  0  0  0  0  0  0  0  0
   -1.9325   21.4905    5.8860 N   0  0  0  0  0  0  0  0  0  0  0  0
   -0.7537   22.0917    5.4409 C   0  0  0  0  0  0  0  0  0  0  0  0
   -0.8239   23.0648    4.8502 O   0  0  0  0  0  0  0  0  0  0  0  0
    0.4816   21.4849    5.7305 C   0  0  0  0  0  0  0  0  0  0  0  0
    0.5335   20.2755    6.4589 C   0  0  0  0  0  0  0  0  0  0  0  0
   -2.7962   21.9180    5.6846 H   0  0  0  0  0  0  0  0  0  0  0  0
 11 10  1  0  0  0
 11 12  1  0  0  0
 11 19  1  0  0  0
 10  6  1  0  0  0
  6  7  2  0  0  0
  6  8  1  0  0  0
  6  5  1  0  0  0
  5  1  1  0  0  0
  1  2  2  0  0  0
  1  3  1  0  0  0
  1 25  1  0  0  0
 25 26  1  0  0  0
 26 27  1  0  0  0
 27 28  1  0  0  0
 27 31  1  0  0  0
 28 29  1  0  0  0
 29 30  1  0  0  0
 29 36  1  0  0  0
 30 31  1  0  0  0
 30 33  1  0  0  0
 31 32  1  0  0  0
 36 37  1  0  0  0
 36 43  1  0  0  0
 37 38  2  0  0  0
 37 39  1  0  0  0
 39 40  1  0  0  0
 40 41  2  0  0  0
 40 42  1  0  0  0
 42 43  2  0  0  0
 12 13  1  0  0  0
 12 14  1  0  0  0
 14 15  1  0  0  0
 14 16  1  0  0  0
 16 17  1  0  0  0
 16 18  1  0  0  0
 18 22  1  0  0  0
 18 19  1  0  0  0
 22 23  1  0  0  0
  8  9  1  0  0  0
  3  4  1  0  0  0
 32 34  1  0  0  0
 33 35  1  0  0  0
 39 44  1  0  0  0
 15 20  1  0  0  0
 17 21  1  0  0  0
 23 24  1  0  0  0
M  END
> <minimizedAffinity>
-10.88614

$$$$
2AM4_U2F_A_449


 44 46  0  0  0  0  0  0  0  0999 V2000
    6.4839   18.7792   11.8141 P   0  0  0  0  0  0  0  0  0  0  0  0
    7.1599   19.9644   11.4017 O   0  0  0  0  0  0  0  0  0  0  0  0
    7.3464   17.5664   12.0462 O   0  0  0  0  0  0  0  0  0  0  0  0
    7.8879   17.3992   11.2590 H   0  0  0  0  0  0  0  0  0  0  0  0
    5.5045   18.3120   10.6932 O   0  0  0  0  0  0  0  0  0  0  0  0
    3.9429   18.3032   10.5416 P   0  0  0  0  0  0  0  0  0  0  0  0
    3.4316   19.6738   10.8915 O   0  0  0  0  0  0  0  0  0  0  0  0
    3.2804   17.3140   11.4250 O   0  0  0  0  0  0  0  0  0  0  0  0
    2.3205   17.3519   11.2902 H   0  0  0  0  0  0  0  0  0  0  0  0
    3.3516   17.9529    9.2075 O   0  0  0  0  0  0  0  0  0  0  0  0
    2.4527   19.0268    8.5960 C   0  0  0  0  0  0  0  0  0  0  0  0
    1.0179   19.0630    8.5543 C   0  0  0  0  0  0  0  0  0  0  0  0
    0.5628   19.0163    9.8954 F   0  0  0  0  0  0  0  0  0  0  0  0
    0.3896   17.7650    7.8757 C   0  0  0  0  0  0  0  0  0  0  0  0
   -1.1446   17.5681    7.9065 O   0  0  0  0  0  0  0  0  0  0  0  0
    0.8941   17.7083    6.3752 C   0  0  0  0  0  0  0  0  0  0  0  0
    0.5581   16.3176    5.8558 O   0  0  0  0  0  0  0  0  0  0  0  0
    2.5605   17.9387    6.3354 C   0  0  0  0  0  0  0  0  0  0  0  0
    2.7908   19.1360    7.1131 O   0  0  0  0  0  0  0  0  0  0  0  0
   -1.5695   18.2542    7.3684 H   0  0  0  0  0  0  0  0  0  0  0  0
    0.9888   15.6513    6.4138 H   0  0  0  0  0  0  0  0  0  0  0  0
    2.9939   18.1010    4.8456 C   0  0  0  0  0  0  0  0  0  0  0  0
    2.9726   16.8634    4.1275 O   0  0  0  0  0  0  0  0  0  0  0  0
    3.5991   16.2435    4.5328 H   0  0  0  0  0  0  0  0  0  0  0  0
    5.5656   19.1115   13.0726 O   0  0  0  0  0  0  0  0  0  0  0  0
    5.6097   18.2429   14.1895 C   0  0  0  0  0  0  0  0  0  0  0  0
    4.1300   17.7855   14.3671 C   0  0  0  0  0  0  0  0  0  0  0  0
    3.9270   16.9923   15.5516 O   0  0  0  0  0  0  0  0  0  0  0  0
    2.8753   17.5827   16.3164 C   0  0  0  0  0  0  0  0  0  0  0  0
    2.8332   19.0458   15.9737 C   0  0  0  0  0  0  0  0  0  0  0  0
    3.1507   18.9651   14.4772 C   0  0  0  0  0  0  0  0  0  0  0  0
    1.9770   18.7104   13.7122 O   0  0  0  0  0  0  0  0  0  0  0  0
    1.5684   19.5413   16.2581 O   0  0  0  0  0  0  0  0  0  0  0  0
    1.5668   17.8850   14.0145 H   0  0  0  0  0  0  0  0  0  0  0  0
    0.9004   18.9996   15.8094 H   0  0  0  0  0  0  0  0  0  0  0  0
    3.1734   17.2844   17.7301 N   0  0  0  0  0  0  0  0  0  0  0  0
    2.1301   16.7617   18.5424 C   0  0  0  0  0  0  0  0  0  0  0  0
    1.0201   16.5485   18.1113 O   0  0  0  0  0  0  0  0  0  0  0  0
    2.3968   16.4777   19.8969 N   0  0  0  0  0  0  0  0  0  0  0  0
    3.6579   16.6974   20.4542 C   0  0  0  0  0  0  0  0  0  0  0  0
    3.8199   16.4540   21.5566 O   0  0  0  0  0  0  0  0  0  0  0  0
    4.6886   17.2105   19.6465 C   0  0  0  0  0  0  0  0  0  0  0  0
    4.4529   17.5080   18.2857 C   0  0  0  0  0  0  0  0  0  0  0  0
    1.6772   16.1160   20.4631 H   0  0  0  0  0  0  0  0  0  0  0  0
 11 10  1  0  0  0
 11 12  1  0  0  0
 11 19  1  0  0  0
 10  6  1  0  0  0
  6  7  2  0  0  0
  6  8  1  0  0  0
  6  5  1  0  0  0
  5  1  1  0  0  0
  1  2  2  0  0  0
  1  3  1  0  0  0
  1 25  1  0  0  0
 25 26  1  0  0  0
 26 27  1  0  0  0
 27 28  1  0  0  0
 27 31  1  0  0  0
 28 29  1  0  0  0
 29 30  1  0  0  0
 29 36  1  0  0  0
 30 31  1  0  0  0
 30 33  1  0  0  0
 31 32  1  0  0  0
 36 37  1  0  0  0
 36 43  1  0  0  0
 37 38  2  0  0  0
 37 39  1  0  0  0
 39 40  1  0  0  0
 40 41  2  0  0  0
 40 42  1  0  0  0
 42 43  2  0  0  0
 12 13  1  0  0  0
 12 14  1  0  0  0
 14 15  1  0  0  0
 14 16  1  0  0  0
 16 17  1  0  0  0
 16 18  1  0  0  0
 18 22  1  0  0  0
 18 19  1  0  0  0
 22 23  1  0  0  0
  8  9  1  0  0  0
  3  4  1  0  0  0
 32 34  1  0  0  0
 33 35  1  0  0  0
 39 44  1  0  0  0
 15 20  1  0  0  0
 17 21  1  0  0  0
 23 24  1  0  0  0
M  END
> <minimizedAffinity>
-10.46612

$$$$
2AM4_U2F_A_449


 44 46  0  0  0  0  0  0  0  0999 V2000
    3.6486   18.5322   12.8940 P   0  0  0  0  0  0  0  0  0  0  0  0
    4.6512   18.6835   11.8922 O   0  0  0  0  0  0  0  0  0  0  0  0
    3.6048   19.5959   13.9594 O   0  0  0  0  0  0  0  0  0  0  0  0
    4.4831   19.6879   14.3607 H   0  0  0  0  0  0  0  0  0  0  0  0
    3.9047   17.2244   13.7050 O   0  0  0  0  0  0  0  0  0  0  0  0
    4.9843   16.7845   14.7552 P   0  0  0  0  0  0  0  0  0  0  0  0
    6.0124   17.8778   14.8545 O   0  0  0  0  0  0  0  0  0  0  0  0
    5.6719   15.5239   14.3863 O   0  0  0  0  0  0  0  0  0  0  0  0
    6.3254   15.3007   15.0675 H   0  0  0  0  0  0  0  0  0  0  0  0
    4.5429   16.4826   16.1574 O   0  0  0  0  0  0  0  0  0  0  0  0
    4.1747   17.7050   16.9973 C   0  0  0  0  0  0  0  0  0  0  0  0
    3.9854   17.7789   18.4187 C   0  0  0  0  0  0  0  0  0  0  0  0
    5.1949   17.3521   19.0209 F   0  0  0  0  0  0  0  0  0  0  0  0
    2.8920   16.7472   18.9478 C   0  0  0  0  0  0  0  0  0  0  0  0
    2.6924   16.5790   20.4728 O   0  0  0  0  0  0  0  0  0  0  0  0
    1.5064   17.1206   18.2771 C   0  0  0  0  0  0  0  0  0  0  0  0
    0.5698   15.9482   18.5325 O   0  0  0  0  0  0  0  0  0  0  0  0
    1.7220   17.3209   16.6204 C   0  0  0  0  0  0  0  0  0  0  0  0
    2.8356   18.2350   16.4963 O   0  0  0  0  0  0  0  0  0  0  0  0
    2.3338   17.4001   20.8445 H   0  0  0  0  0  0  0  0  0  0  0  0
    0.9537   15.1401   18.1576 H   0  0  0  0  0  0  0  0  0  0  0  0
    0.4024   17.9020   16.0247 C   0  0  0  0  0  0  0  0  0  0  0  0
    0.5949   18.5016   14.7397 O   0  0  0  0  0  0  0  0  0  0  0  0
    1.2141   19.2440   14.8188 H   0  0  0  0  0  0  0  0  0  0  0  0
    2.2334   18.3289   12.1914 O   0  0  0  0  0  0  0  0  0  0  0  0
    1.9828   18.9994   10.9700 C   0  0  0  0  0  0  0  0  0  0  0  0
    1.0224   18.0386   10.2054 C   0  0  0  0  0  0  0  0  0  0  0  0
   -0.0034   18.7365    9.4746 O   0  0  0  0  0  0  0  0  0  0  0  0
    0.0341   18.3010    8.1150 C   0  0  0  0  0  0  0  0  0  0  0  0
    1.4315   17.8252    7.8309 C   0  0  0  0  0  0  0  0  0  0  0  0
    1.7521   17.1626    9.1744 C   0  0  0  0  0  0  0  0  0  0  0  0
    1.2630   15.8261    9.2220 O   0  0  0  0  0  0  0  0  0  0  0  0
    1.4009   16.9446    6.7585 O   0  0  0  0  0  0  0  0  0  0  0  0
    0.3055   15.8265    9.0665 H   0  0  0  0  0  0  0  0  0  0  0  0
    0.7600   16.2389    6.9378 H   0  0  0  0  0  0  0  0  0  0  0  0
   -0.4089   19.4482    7.3002 N   0  0  0  0  0  0  0  0  0  0  0  0
   -1.8055   19.6545    7.1309 C   0  0  0  0  0  0  0  0  0  0  0  0
   -2.6320   18.9302    7.6368 O   0  0  0  0  0  0  0  0  0  0  0  0
   -2.2451   20.7422    6.3499 N   0  0  0  0  0  0  0  0  0  0  0  0
   -1.3422   21.6170    5.7428 C   0  0  0  0  0  0  0  0  0  0  0  0
   -1.7504   22.4794    5.1180 O   0  0  0  0  0  0  0  0  0  0  0  0
    0.0385   21.4123    5.9160 C   0  0  0  0  0  0  0  0  0  0  0  0
    0.5115   20.3298    6.6908 C   0  0  0  0  0  0  0  0  0  0  0  0
   -3.2113   20.8885    6.2297 H   0  0  0  0  0  0  0  0  0  0  0  0
 11 10  1  0  0  0
 11 12  1  0  0  0
 11 19  1  0  0  0
 10  6  1  0  0  0
  6  7  2  0  0  0
  6  8  1  0  0  0
  6  5  1  0  0  0
  5  1  1  0  0  0
  1  2  2  0  0  0
  1  3  1  0  0  0
  1 25  1  0  0  0
 25 26  1  0  0  0
 26 27  1  0  0  0
 27 28  1  0  0  0
 27 31  1  0  0  0
 28 29  1  0  0  0
 29 30  1  0  0  0
 29 36  1  0  0  0
 30 31  1  0  0  0
 30 33  1  0  0  0
 31 32  1  0  0  0
 36 37  1  0  0  0
 36 43  1  0  0  0
 37 38  2  0  0  0
 37 39  1  0  0  0
 39 40  1  0  0  0
 40 41  2  0  0  0
 40 42  1  0  0  0
 42 43  2  0  0  0
 12 13  1  0  0  0
 12 14  1  0  0  0
 14 15  1  0  0  0
 14 16  1  0  0  0
 16 17  1  0  0  0
 16 18  1  0  0  0
 18 22  1  0  0  0
 18 19  1  0  0  0
 22 23  1  0  0  0
  8  9  1  0  0  0
  3  4  1  0  0  0
 32 34  1  0  0  0
 33 35  1  0  0  0
 39 44  1  0  0  0
 15 20  1  0  0  0
 17 21  1  0  0  0
 23 24  1  0  0  0
M  END
> <minimizedAffinity>
-10.44580

$$$$
2AM4_U2F_A_449


 44 46  0  0  0  0  0  0  0  0999 V2000
    6.2996   18.7175   11.2779 P   0  0  0  0  0  0  0  0  0  0  0  0
    7.0786   19.9108   11.3068 O   0  0  0  0  0  0  0  0  0  0  0  0
    6.8787   17.5620   10.5044 O   0  0  0  0  0  0  0  0  0  0  0  0
    7.0990   17.8527    9.6056 H   0  0  0  0  0  0  0  0  0  0  0  0
    4.9442   18.9883   10.5547 O   0  0  0  0  0  0  0  0  0  0  0  0
    3.4609   18.5476   10.8142 P   0  0  0  0  0  0  0  0  0  0  0  0
    2.6520   19.7805   11.1102 O   0  0  0  0  0  0  0  0  0  0  0  0
    3.3258   17.6108   11.9553 O   0  0  0  0  0  0  0  0  0  0  0  0
    2.3924   17.3728   12.0696 H   0  0  0  0  0  0  0  0  0  0  0  0
    2.7312   17.8055    9.7329 O   0  0  0  0  0  0  0  0  0  0  0  0
    1.7128   18.6356    8.9524 C   0  0  0  0  0  0  0  0  0  0  0  0
    0.5666   18.1732    8.2216 C   0  0  0  0  0  0  0  0  0  0  0  0
   -0.2549   17.4721    9.1388 F   0  0  0  0  0  0  0  0  0  0  0  0
    0.9397   17.0901    7.1136 C   0  0  0  0  0  0  0  0  0  0  0  0
   -0.1986   16.3656    6.3566 O   0  0  0  0  0  0  0  0  0  0  0  0
    1.9081   17.7794    6.0665 C   0  0  0  0  0  0  0  0  0  0  0  0
    2.5020   16.6611    5.2219 O   0  0  0  0  0  0  0  0  0  0  0  0
    3.1387   18.5828    6.8861 C   0  0  0  0  0  0  0  0  0  0  0  0
    2.4616   19.4015    7.8672 O   0  0  0  0  0  0  0  0  0  0  0  0
   -0.6773   17.0038    5.8048 H   0  0  0  0  0  0  0  0  0  0  0  0
    2.9685   16.0346    5.7969 H   0  0  0  0  0  0  0  0  0  0  0  0
    3.9402   19.4307    5.8505 C   0  0  0  0  0  0  0  0  0  0  0  0
    4.6213   18.6226    4.8857 O   0  0  0  0  0  0  0  0  0  0  0  0
    5.2651   18.0542    5.3366 H   0  0  0  0  0  0  0  0  0  0  0  0
    5.9142   18.3080   12.7684 O   0  0  0  0  0  0  0  0  0  0  0  0
    6.9113   18.3873   13.7702 C   0  0  0  0  0  0  0  0  0  0  0  0
    6.1247   18.1749   15.0993 C   0  0  0  0  0  0  0  0  0  0  0  0
    5.2668   19.2843   15.4261 O   0  0  0  0  0  0  0  0  0  0  0  0
    3.9441   18.7873   15.6337 C   0  0  0  0  0  0  0  0  0  0  0  0
    3.8118   17.5119   14.8491 C   0  0  0  0  0  0  0  0  0  0  0  0
    5.2154   16.9361   15.0621 C   0  0  0  0  0  0  0  0  0  0  0  0
    5.3000   16.2199   16.2900 O   0  0  0  0  0  0  0  0  0  0  0  0
    2.7954   16.7443   15.4004 O   0  0  0  0  0  0  0  0  0  0  0  0
    5.0619   16.8075   17.0241 H   0  0  0  0  0  0  0  0  0  0  0  0
    2.9600   16.6227   16.3485 H   0  0  0  0  0  0  0  0  0  0  0  0
    3.0267   19.8670   15.2228 N   0  0  0  0  0  0  0  0  0  0  0  0
    1.7148   19.8809   15.7710 C   0  0  0  0  0  0  0  0  0  0  0  0
    1.3359   19.0477   16.5622 O   0  0  0  0  0  0  0  0  0  0  0  0
    0.8239   20.9019   15.3836 N   0  0  0  0  0  0  0  0  0  0  0  0
    1.2012   21.8950   14.4779 C   0  0  0  0  0  0  0  0  0  0  0  0
    0.4407   22.6965   14.1950 O   0  0  0  0  0  0  0  0  0  0  0  0
    2.5011   21.8806   13.9410 C   0  0  0  0  0  0  0  0  0  0  0  0
    3.4172   20.8694   14.3071 C   0  0  0  0  0  0  0  0  0  0  0  0
   -0.0856   20.9150   15.7604 H   0  0  0  0  0  0  0  0  0  0  0  0
 11 10  1  0  0  0
 11 12  1  0  0  0
 11 19  1  0  0  0
 10  6  1  0  0  0
  6  7  2  0  0  0
  6  8  1  0  0  0
  6  5  1  0  0  0
  5  1  1  0  0  0
  1  2  2  0  0  0
  1  3  1  0  0  0
  1 25  1  0  0  0
 25 26  1  0  0  0
 26 27  1  0  0  0
 27 28  1  0  0  0
 27 31  1  0  0  0
 28 29  1  0  0  0
 29 30  1  0  0  0
 29 36  1  0  0  0
 30 31  1  0  0  0
 30 33  1  0  0  0
 31 32  1  0  0  0
 36 37  1  0  0  0
 36 43  1  0  0  0
 37 38  2  0  0  0
 37 39  1  0  0  0
 39 40  1  0  0  0
 40 41  2  0  0  0
 40 42  1  0  0  0
 42 43  2  0  0  0
 12 13  1  0  0  0
 12 14  1  0  0  0
 14 15  1  0  0  0
 14 16  1  0  0  0
 16 17  1  0  0  0
 16 18  1  0  0  0
 18 22  1  0  0  0
 18 19  1  0  0  0
 22 23  1  0  0  0
  8  9  1  0  0  0
  3  4  1  0  0  0
 32 34  1  0  0  0
 33 35  1  0  0  0
 39 44  1  0  0  0
 15 20  1  0  0  0
 17 21  1  0  0  0
 23 24  1  0  0  0
M  END
> <minimizedAffinity>
-10.39195

$$$$
2AM4_U2F_A_449


 44 46  0  0  0  0  0  0  0  0999 V2000
    4.6646   19.3878   14.1364 P   0  0  0  0  0  0  0  0  0  0  0  0
    5.4369   19.8655   13.0377 O   0  0  0  0  0  0  0  0  0  0  0  0
    4.4537   20.3536   15.2728 O   0  0  0  0  0  0  0  0  0  0  0  0
    5.3118   20.6906   15.5742 H   0  0  0  0  0  0  0  0  0  0  0  0
    5.3973   18.1902   14.8166 O   0  0  0  0  0  0  0  0  0  0  0  0
    4.9702   16.7350   15.2190 P   0  0  0  0  0  0  0  0  0  0  0  0
    6.0798   15.7976   14.8287 O   0  0  0  0  0  0  0  0  0  0  0  0
    3.7229   16.2916   14.5515 O   0  0  0  0  0  0  0  0  0  0  0  0
    3.5072   15.3896   14.8356 H   0  0  0  0  0  0  0  0  0  0  0  0
    4.6545   16.4499   16.6581 O   0  0  0  0  0  0  0  0  0  0  0  0
    4.2394   17.6674   17.4830 C   0  0  0  0  0  0  0  0  0  0  0  0
    3.9989   17.7396   18.8968 C   0  0  0  0  0  0  0  0  0  0  0  0
    5.1923   17.3306   19.5419 F   0  0  0  0  0  0  0  0  0  0  0  0
    2.9023   16.6927   19.3881 C   0  0  0  0  0  0  0  0  0  0  0  0
    2.6513   16.5226   20.9053 O   0  0  0  0  0  0  0  0  0  0  0  0
    1.5360   17.0458   18.6684 C   0  0  0  0  0  0  0  0  0  0  0  0
    0.6079   15.8603   18.8918 O   0  0  0  0  0  0  0  0  0  0  0  0
    1.8073   17.2481   17.0200 C   0  0  0  0  0  0  0  0  0  0  0  0
    2.9114   18.1779   16.9344 O   0  0  0  0  0  0  0  0  0  0  0  0
    2.2681   17.3388   21.2631 H   0  0  0  0  0  0  0  0  0  0  0  0
    1.0163   15.0576   18.5317 H   0  0  0  0  0  0  0  0  0  0  0  0
    0.5014   17.8098   16.3774 C   0  0  0  0  0  0  0  0  0  0  0  0
    0.6708   18.1583   14.9998 O   0  0  0  0  0  0  0  0  0  0  0  0
    1.3403   18.8559   14.9227 H   0  0  0  0  0  0  0  0  0  0  0  0
    3.2906   18.7941   13.5913 O   0  0  0  0  0  0  0  0  0  0  0  0
    2.7916   19.2707   12.3552 C   0  0  0  0  0  0  0  0  0  0  0  0
    3.2032   18.1669   11.3344 C   0  0  0  0  0  0  0  0  0  0  0  0
    2.0896   17.6664   10.5709 O   0  0  0  0  0  0  0  0  0  0  0  0
    2.4056   17.7798    9.1827 C   0  0  0  0  0  0  0  0  0  0  0  0
    3.4048   18.8933    9.0358 C   0  0  0  0  0  0  0  0  0  0  0  0
    4.2316   18.6612   10.3045 C   0  0  0  0  0  0  0  0  0  0  0  0
    5.2376   17.6757   10.0934 O   0  0  0  0  0  0  0  0  0  0  0  0
    4.1143   18.7125    7.8568 O   0  0  0  0  0  0  0  0  0  0  0  0
    4.8233   16.8474    9.8051 H   0  0  0  0  0  0  0  0  0  0  0  0
    4.4950   17.8204    7.8420 H   0  0  0  0  0  0  0  0  0  0  0  0
    1.1253   17.9982    8.4830 N   0  0  0  0  0  0  0  0  0  0  0  0
    1.0044   17.5410    7.1421 C   0  0  0  0  0  0  0  0  0  0  0  0
    1.9072   16.9770    6.5674 O   0  0  0  0  0  0  0  0  0  0  0  0
   -0.2100   17.7479    6.4573 N   0  0  0  0  0  0  0  0  0  0  0  0
   -1.2910   18.3885    7.0657 C   0  0  0  0  0  0  0  0  0  0  0  0
   -2.2502   18.5339    6.4660 O   0  0  0  0  0  0  0  0  0  0  0  0
   -1.1692   18.8354    8.3937 C   0  0  0  0  0  0  0  0  0  0  0  0
    0.0355   18.6457    9.1067 C   0  0  0  0  0  0  0  0  0  0  0  0
   -0.2979   17.4334    5.5286 H   0  0  0  0  0  0  0  0  0  0  0  0
 11 10  1  0  0  0
 11 12  1  0  0  0
 11 19  1  0  0  0
 10  6  1  0  0  0
  6  7  2  0  0  0
  6  8  1  0  0  0
  6  5  1  0  0  0
  5  1  1  0  0  0
  1  2  2  0  0  0
  1  3  1  0  0  0
  1 25  1  0  0  0
 25 26  1  0  0  0
 26 27  1  0  0  0
 27 28  1  0  0  0
 27 31  1  0  0  0
 28 29  1  0  0  0
 29 30  1  0  0  0
 29 36  1  0  0  0
 30 31  1  0  0  0
 30 33  1  0  0  0
 31 32  1  0  0  0
 36 37  1  0  0  0
 36 43  1  0  0  0
 37 38  2  0  0  0
 37 39  1  0  0  0
 39 40  1  0  0  0
 40 41  2  0  0  0
 40 42  1  0  0  0
 42 43  2  0  0  0
 12 13  1  0  0  0
 12 14  1  0  0  0
 14 15  1  0  0  0
 14 16  1  0  0  0
 16 17  1  0  0  0
 16 18  1  0  0  0
 18 22  1  0  0  0
 18 19  1  0  0  0
 22 23  1  0  0  0
  8  9  1  0  0  0
  3  4  1  0  0  0
 32 34  1  0  0  0
 33 35  1  0  0  0
 39 44  1  0  0  0
 15 20  1  0  0  0
 17 21  1  0  0  0
 23 24  1  0  0  0
M  END
> <minimizedAffinity>
-10.32936

$$$$
2AM4_U2F_A_449


 44 46  0  0  0  0  0  0  0  0999 V2000
    3.7407   18.7835   10.0821 P   0  0  0  0  0  0  0  0  0  0  0  0
    4.3377   18.6136    8.7990 O   0  0  0  0  0  0  0  0  0  0  0  0
    3.4263   20.1993   10.4888 O   0  0  0  0  0  0  0  0  0  0  0  0
    4.2238   20.7448   10.4039 H   0  0  0  0  0  0  0  0  0  0  0  0
    4.7265   18.3034   11.1917 O   0  0  0  0  0  0  0  0  0  0  0  0
    5.6706   19.0389   12.2064 P   0  0  0  0  0  0  0  0  0  0  0  0
    6.4151   20.1111   11.4591 O   0  0  0  0  0  0  0  0  0  0  0  0
    6.6592   18.1333   12.8392 O   0  0  0  0  0  0  0  0  0  0  0  0
    7.2136   18.6388   13.4540 H   0  0  0  0  0  0  0  0  0  0  0  0
    5.0605   19.6989   13.4082 O   0  0  0  0  0  0  0  0  0  0  0  0
    4.9405   18.8084   14.6443 C   0  0  0  0  0  0  0  0  0  0  0  0
    3.8851   17.8940   14.9784 C   0  0  0  0  0  0  0  0  0  0  0  0
    3.7995   16.9552   13.9206 F   0  0  0  0  0  0  0  0  0  0  0  0
    2.4528   18.5922   15.0073 C   0  0  0  0  0  0  0  0  0  0  0  0
    1.1912   17.7138   15.1813 O   0  0  0  0  0  0  0  0  0  0  0  0
    2.4762   19.7033   16.1362 C   0  0  0  0  0  0  0  0  0  0  0  0
    1.2366   20.5615   15.9272 O   0  0  0  0  0  0  0  0  0  0  0  0
    3.8556   20.6509   15.9609 C   0  0  0  0  0  0  0  0  0  0  0  0
    4.9484   19.7078   15.8756 O   0  0  0  0  0  0  0  0  0  0  0  0
    1.1947   17.3144   16.0652 H   0  0  0  0  0  0  0  0  0  0  0  0
    1.2541   20.9431   15.0356 H   0  0  0  0  0  0  0  0  0  0  0  0
    3.9666   21.5836   17.2065 C   0  0  0  0  0  0  0  0  0  0  0  0
    3.0237   21.2508   18.2302 O   0  0  0  0  0  0  0  0  0  0  0  0
    2.1227   21.3538   17.8858 H   0  0  0  0  0  0  0  0  0  0  0  0
    2.4697   17.8302   10.1981 O   0  0  0  0  0  0  0  0  0  0  0  0
    1.2712   18.3636   10.7302 C   0  0  0  0  0  0  0  0  0  0  0  0
    0.1550   17.7388    9.8391 C   0  0  0  0  0  0  0  0  0  0  0  0
   -0.5826   18.7242    9.0919 O   0  0  0  0  0  0  0  0  0  0  0  0
   -0.5511   18.3614    7.7109 C   0  0  0  0  0  0  0  0  0  0  0  0
    0.6865   17.5376    7.4878 C   0  0  0  0  0  0  0  0  0  0  0  0
    0.7061   16.7484    8.8008 C   0  0  0  0  0  0  0  0  0  0  0  0
   -0.1252   15.5948    8.7235 O   0  0  0  0  0  0  0  0  0  0  0  0
    0.5098   16.7517    6.3576 O   0  0  0  0  0  0  0  0  0  0  0  0
   -1.0314   15.8633    8.5052 H   0  0  0  0  0  0  0  0  0  0  0  0
   -0.3091   16.2392    6.4449 H   0  0  0  0  0  0  0  0  0  0  0  0
   -0.6019   19.6240    6.9496 N   0  0  0  0  0  0  0  0  0  0  0  0
   -1.8714   20.2235    6.7242 C   0  0  0  0  0  0  0  0  0  0  0  0
   -2.8985   19.7387    7.1408 O   0  0  0  0  0  0  0  0  0  0  0  0
   -1.9379   21.4265    5.9930 N   0  0  0  0  0  0  0  0  0  0  0  0
   -0.7889   22.0387    5.4888 C   0  0  0  0  0  0  0  0  0  0  0  0
   -0.8984   23.0097    4.9006 O   0  0  0  0  0  0  0  0  0  0  0  0
    0.4654   21.4451    5.7175 C   0  0  0  0  0  0  0  0  0  0  0  0
    0.5658   20.2379    6.4445 C   0  0  0  0  0  0  0  0  0  0  0  0
   -2.8149   21.8448    5.8341 H   0  0  0  0  0  0  0  0  0  0  0  0
 11 10  1  0  0  0
 11 12  1  0  0  0
 11 19  1  0  0  0
 10  6  1  0  0  0
  6  7  2  0  0  0
  6  8  1  0  0  0
  6  5  1  0  0  0
  5  1  1  0  0  0
  1  2  2  0  0  0
  1  3  1  0  0  0
  1 25  1  0  0  0
 25 26  1  0  0  0
 26 27  1  0  0  0
 27 28  1  0  0  0
 27 31  1  0  0  0
 28 29  1  0  0  0
 29 30  1  0  0  0
 29 36  1  0  0  0
 30 31  1  0  0  0
 30 33  1  0  0  0
 31 32  1  0  0  0
 36 37  1  0  0  0
 36 43  1  0  0  0
 37 38  2  0  0  0
 37 39  1  0  0  0
 39 40  1  0  0  0
 40 41  2  0  0  0
 40 42  1  0  0  0
 42 43  2  0  0  0
 12 13  1  0  0  0
 12 14  1  0  0  0
 14 15  1  0  0  0
 14 16  1  0  0  0
 16 17  1  0  0  0
 16 18  1  0  0  0
 18 22  1  0  0  0
 18 19  1  0  0  0
 22 23  1  0  0  0
  8  9  1  0  0  0
  3  4  1  0  0  0
 32 34  1  0  0  0
 33 35  1  0  0  0
 39 44  1  0  0  0
 15 20  1  0  0  0
 17 21  1  0  0  0
 23 24  1  0  0  0
M  END
> <minimizedAffinity>
-10.31570

$$$$
2AM4_U2F_A_449


 44 46  0  0  0  0  0  0  0  0999 V2000
    3.7153   21.0260   13.2411 P   0  0  0  0  0  0  0  0  0  0  0  0
    4.8444   20.3388   13.7746 O   0  0  0  0  0  0  0  0  0  0  0  0
    3.9400   22.4568   12.8275 O   0  0  0  0  0  0  0  0  0  0  0  0
    4.3268   22.9503   13.5676 H   0  0  0  0  0  0  0  0  0  0  0  0
    2.6026   21.1389   14.3286 O   0  0  0  0  0  0  0  0  0  0  0  0
    2.6093   21.1852   15.8970 P   0  0  0  0  0  0  0  0  0  0  0  0
    1.8456   22.4059   16.3317 O   0  0  0  0  0  0  0  0  0  0  0  0
    3.9752   21.2562   16.4689 O   0  0  0  0  0  0  0  0  0  0  0  0
    3.9195   21.2824   17.4369 H   0  0  0  0  0  0  0  0  0  0  0  0
    2.0304   20.0256   16.6535 O   0  0  0  0  0  0  0  0  0  0  0  0
    2.5321   18.6508   16.2136 C   0  0  0  0  0  0  0  0  0  0  0  0
    1.8178   17.4052   16.2140 C   0  0  0  0  0  0  0  0  0  0  0  0
    0.6725   17.5836   15.3991 F   0  0  0  0  0  0  0  0  0  0  0  0
    1.2311   17.0334   17.6485 C   0  0  0  0  0  0  0  0  0  0  0  0
    0.2913   15.8119   17.7831 O   0  0  0  0  0  0  0  0  0  0  0  0
    2.4514   16.8666   18.6446 C   0  0  0  0  0  0  0  0  0  0  0  0
    1.8655   16.8390   20.0491 O   0  0  0  0  0  0  0  0  0  0  0  0
    3.4852   18.1853   18.4896 C   0  0  0  0  0  0  0  0  0  0  0  0
    3.7418   18.2941   17.0707 O   0  0  0  0  0  0  0  0  0  0  0  0
    0.7876   14.9998   17.5955 H   0  0  0  0  0  0  0  0  0  0  0  0
    1.3699   17.6574   20.2089 H   0  0  0  0  0  0  0  0  0  0  0  0
    4.7786   17.8886   19.3099 C   0  0  0  0  0  0  0  0  0  0  0  0
    4.5280   17.7823   20.7148 O   0  0  0  0  0  0  0  0  0  0  0  0
    4.1768   18.6239   21.0452 H   0  0  0  0  0  0  0  0  0  0  0  0
    3.0795   20.1557   12.0680 O   0  0  0  0  0  0  0  0  0  0  0  0
    2.4789   18.9163   12.3954 C   0  0  0  0  0  0  0  0  0  0  0  0
    3.0065   17.9429   11.2981 C   0  0  0  0  0  0  0  0  0  0  0  0
    1.9643   17.4593   10.4300 O   0  0  0  0  0  0  0  0  0  0  0  0
    2.3413   17.7262    9.0786 C   0  0  0  0  0  0  0  0  0  0  0  0
    3.2775   18.9023    9.0941 C   0  0  0  0  0  0  0  0  0  0  0  0
    4.0530   18.5924   10.3784 C   0  0  0  0  0  0  0  0  0  0  0  0
    5.1258   17.6896   10.1300 O   0  0  0  0  0  0  0  0  0  0  0  0
    4.0542   18.8780    7.9441 O   0  0  0  0  0  0  0  0  0  0  0  0
    4.7771   16.8721    9.7415 H   0  0  0  0  0  0  0  0  0  0  0  0
    4.4883   18.0142    7.8653 H   0  0  0  0  0  0  0  0  0  0  0  0
    1.0864   17.9415    8.3334 N   0  0  0  0  0  0  0  0  0  0  0  0
    1.0414   17.5568    6.9653 C   0  0  0  0  0  0  0  0  0  0  0  0
    1.9883   17.0560    6.4030 O   0  0  0  0  0  0  0  0  0  0  0  0
   -0.1479   17.7618    6.2373 N   0  0  0  0  0  0  0  0  0  0  0  0
   -1.2769   18.3312    6.8291 C   0  0  0  0  0  0  0  0  0  0  0  0
   -2.2130   18.4785    6.1945 O   0  0  0  0  0  0  0  0  0  0  0  0
   -1.2301   18.7065    8.1838 C   0  0  0  0  0  0  0  0  0  0  0  0
   -0.0522   18.5166    8.9404 C   0  0  0  0  0  0  0  0  0  0  0  0
   -0.1833   17.4973    5.2897 H   0  0  0  0  0  0  0  0  0  0  0  0
 11 10  1  0  0  0
 11 12  1  0  0  0
 11 19  1  0  0  0
 10  6  1  0  0  0
  6  7  2  0  0  0
  6  8  1  0  0  0
  6  5  1  0  0  0
  5  1  1  0  0  0
  1  2  2  0  0  0
  1  3  1  0  0  0
  1 25  1  0  0  0
 25 26  1  0  0  0
 26 27  1  0  0  0
 27 28  1  0  0  0
 27 31  1  0  0  0
 28 29  1  0  0  0
 29 30  1  0  0  0
 29 36  1  0  0  0
 30 31  1  0  0  0
 30 33  1  0  0  0
 31 32  1  0  0  0
 36 37  1  0  0  0
 36 43  1  0  0  0
 37 38  2  0  0  0
 37 39  1  0  0  0
 39 40  1  0  0  0
 40 41  2  0  0  0
 40 42  1  0  0  0
 42 43  2  0  0  0
 12 13  1  0  0  0
 12 14  1  0  0  0
 14 15  1  0  0  0
 14 16  1  0  0  0
 16 17  1  0  0  0
 16 18  1  0  0  0
 18 22  1  0  0  0
 18 19  1  0  0  0
 22 23  1  0  0  0
  8  9  1  0  0  0
  3  4  1  0  0  0
 32 34  1  0  0  0
 33 35  1  0  0  0
 39 44  1  0  0  0
 15 20  1  0  0  0
 17 21  1  0  0  0
 23 24  1  0  0  0
M  END
> <minimizedAffinity>
-10.20254

$$$$
2AM4_U2F_A_449


 44 46  0  0  0  0  0  0  0  0999 V2000
    3.6210   20.9706   13.6710 P   0  0  0  0  0  0  0  0  0  0  0  0
    3.9781   22.1951   13.0346 O   0  0  0  0  0  0  0  0  0  0  0  0
    2.3042   20.9586   14.4019 O   0  0  0  0  0  0  0  0  0  0  0  0
    2.2771   21.6959   15.0316 H   0  0  0  0  0  0  0  0  0  0  0  0
    4.6544   20.6358   14.7906 O   0  0  0  0  0  0  0  0  0  0  0  0
    5.3048   19.3074   15.3145 P   0  0  0  0  0  0  0  0  0  0  0  0
    6.7297   19.6030   15.6945 O   0  0  0  0  0  0  0  0  0  0  0  0
    5.3025   18.2230   14.3036 O   0  0  0  0  0  0  0  0  0  0  0  0
    5.7144   17.4295   14.6797 H   0  0  0  0  0  0  0  0  0  0  0  0
    4.6815   18.6169   16.4921 O   0  0  0  0  0  0  0  0  0  0  0  0
    3.6857   19.4621   17.2854 C   0  0  0  0  0  0  0  0  0  0  0  0
    3.8340   19.9952   18.6104 C   0  0  0  0  0  0  0  0  0  0  0  0
    4.9873   20.8182   18.5996 F   0  0  0  0  0  0  0  0  0  0  0  0
    4.1579   18.8710   19.6926 C   0  0  0  0  0  0  0  0  0  0  0  0
    4.5162   19.2975   21.1360 O   0  0  0  0  0  0  0  0  0  0  0  0
    2.9329   17.8674   19.7328 C   0  0  0  0  0  0  0  0  0  0  0  0
    3.3966   16.6464   20.5143 O   0  0  0  0  0  0  0  0  0  0  0  0
    2.5290   17.4137   18.1635 C   0  0  0  0  0  0  0  0  0  0  0  0
    2.3996   18.6571   17.4367 O   0  0  0  0  0  0  0  0  0  0  0  0
    3.7422   19.7066   21.5538 H   0  0  0  0  0  0  0  0  0  0  0  0
    4.1737   16.2607   20.0804 H   0  0  0  0  0  0  0  0  0  0  0  0
    1.1923   16.6111   18.2179 C   0  0  0  0  0  0  0  0  0  0  0  0
    0.6081   16.6012   19.5242 O   0  0  0  0  0  0  0  0  0  0  0  0
    1.2153   16.1714   20.1467 H   0  0  0  0  0  0  0  0  0  0  0  0
    3.7326   19.7813   12.6170 O   0  0  0  0  0  0  0  0  0  0  0  0
    2.5800   19.0034   12.3515 C   0  0  0  0  0  0  0  0  0  0  0  0
    3.0587   17.9785   11.2788 C   0  0  0  0  0  0  0  0  0  0  0  0
    1.9872   17.4975   10.4458 O   0  0  0  0  0  0  0  0  0  0  0  0
    2.3470   17.7078    9.0798 C   0  0  0  0  0  0  0  0  0  0  0  0
    3.3174   18.8552    9.0392 C   0  0  0  0  0  0  0  0  0  0  0  0
    4.1068   18.5654   10.3197 C   0  0  0  0  0  0  0  0  0  0  0  0
    5.1480   17.6231   10.0836 O   0  0  0  0  0  0  0  0  0  0  0  0
    4.0719   18.7694    7.8774 O   0  0  0  0  0  0  0  0  0  0  0  0
    4.7684   16.8039    9.7292 H   0  0  0  0  0  0  0  0  0  0  0  0
    4.4790   17.8908    7.8205 H   0  0  0  0  0  0  0  0  0  0  0  0
    1.0855   17.9354    8.3495 N   0  0  0  0  0  0  0  0  0  0  0  0
    1.0165   17.5399    6.9855 C   0  0  0  0  0  0  0  0  0  0  0  0
    1.9482   17.0203    6.4150 O   0  0  0  0  0  0  0  0  0  0  0  0
   -0.1793   17.7564    6.2717 N   0  0  0  0  0  0  0  0  0  0  0  0
   -1.2917   18.3476    6.8735 C   0  0  0  0  0  0  0  0  0  0  0  0
   -2.2340   18.5034    6.2501 O   0  0  0  0  0  0  0  0  0  0  0  0
   -1.2212   18.7335    8.2241 C   0  0  0  0  0  0  0  0  0  0  0  0
   -0.0362   18.5326    8.9666 C   0  0  0  0  0  0  0  0  0  0  0  0
   -0.2314   17.4845    5.3269 H   0  0  0  0  0  0  0  0  0  0  0  0
 11 10  1  0  0  0
 11 12  1  0  0  0
 11 19  1  0  0  0
 10  6  1  0  0  0
  6  7  2  0  0  0
  6  8  1  0  0  0
  6  5  1  0  0  0
  5  1  1  0  0  0
  1  2  2  0  0  0
  1  3  1  0  0  0
  1 25  1  0  0  0
 25 26  1  0  0  0
 26 27  1  0  0  0
 27 28  1  0  0  0
 27 31  1  0  0  0
 28 29  1  0  0  0
 29 30  1  0  0  0
 29 36  1  0  0  0
 30 31  1  0  0  0
 30 33  1  0  0  0
 31 32  1  0  0  0
 36 37  1  0  0  0
 36 43  1  0  0  0
 37 38  2  0  0  0
 37 39  1  0  0  0
 39 40  1  0  0  0
 40 41  2  0  0  0
 40 42  1  0  0  0
 42 43  2  0  0  0
 12 13  1  0  0  0
 12 14  1  0  0  0
 14 15  1  0  0  0
 14 16  1  0  0  0
 16 17  1  0  0  0
 16 18  1  0  0  0
 18 22  1  0  0  0
 18 19  1  0  0  0
 22 23  1  0  0  0
  8  9  1  0  0  0
  3  4  1  0  0  0
 32 34  1  0  0  0
 33 35  1  0  0  0
 39 44  1  0  0  0
 15 20  1  0  0  0
 17 21  1  0  0  0
 23 24  1  0  0  0
M  END
> <minimizedAffinity>
-10.05259

$$$$
2AM4_U2F_A_449


 44 46  0  0  0  0  0  0  0  0999 V2000
    4.2903   21.8448   20.3899 P   0  0  0  0  0  0  0  0  0  0  0  0
    5.2156   22.7175   21.0334 O   0  0  0  0  0  0  0  0  0  0  0  0
    2.8719   21.8875   20.8948 O   0  0  0  0  0  0  0  0  0  0  0  0
    2.8663   21.7499   21.8550 H   0  0  0  0  0  0  0  0  0  0  0  0
    4.7098   20.3612   20.6277 O   0  0  0  0  0  0  0  0  0  0  0  0
    3.9565   18.9871   20.5476 P   0  0  0  0  0  0  0  0  0  0  0  0
    2.9632   18.9323   21.6757 O   0  0  0  0  0  0  0  0  0  0  0  0
    4.8646   17.8209   20.6629 O   0  0  0  0  0  0  0  0  0  0  0  0
    4.3477   17.0019   20.6072 H   0  0  0  0  0  0  0  0  0  0  0  0
    3.2012   18.6527   19.2947 O   0  0  0  0  0  0  0  0  0  0  0  0
    3.3163   17.1988   18.8384 C   0  0  0  0  0  0  0  0  0  0  0  0
    3.7693   16.7017   17.5698 C   0  0  0  0  0  0  0  0  0  0  0  0
    5.0892   17.1819   17.3834 F   0  0  0  0  0  0  0  0  0  0  0  0
    2.9494   17.3064   16.3441 C   0  0  0  0  0  0  0  0  0  0  0  0
    3.4221   17.0064   14.9019 O   0  0  0  0  0  0  0  0  0  0  0  0
    1.4379   16.8596   16.5025 C   0  0  0  0  0  0  0  0  0  0  0  0
    0.6306   17.7032   15.5262 O   0  0  0  0  0  0  0  0  0  0  0  0
    0.9243   17.1687   18.0749 C   0  0  0  0  0  0  0  0  0  0  0  0
    1.9307   16.5676   18.9216 O   0  0  0  0  0  0  0  0  0  0  0  0
    3.3158   16.0602   14.7169 H   0  0  0  0  0  0  0  0  0  0  0  0
    0.7591   18.6432   15.7281 H   0  0  0  0  0  0  0  0  0  0  0  0
   -0.4815   16.5194   18.2640 C   0  0  0  0  0  0  0  0  0  0  0  0
   -0.8407   15.6568   17.1802 O   0  0  0  0  0  0  0  0  0  0  0  0
   -0.8804   16.1700   16.3580 H   0  0  0  0  0  0  0  0  0  0  0  0
    4.3726   22.0648   18.8143 O   0  0  0  0  0  0  0  0  0  0  0  0
    4.4031   23.3901   18.3177 C   0  0  0  0  0  0  0  0  0  0  0  0
    3.5183   23.3302   17.0356 C   0  0  0  0  0  0  0  0  0  0  0  0
    4.1842   22.7021   15.9241 O   0  0  0  0  0  0  0  0  0  0  0  0
    3.3541   21.6469   15.4371 C   0  0  0  0  0  0  0  0  0  0  0  0
    2.4874   21.1904   16.5774 C   0  0  0  0  0  0  0  0  0  0  0  0
    2.2160   22.5415   17.2466 C   0  0  0  0  0  0  0  0  0  0  0  0
    1.1220   23.2134   16.6306 O   0  0  0  0  0  0  0  0  0  0  0  0
    1.3539   20.5740   16.0662 O   0  0  0  0  0  0  0  0  0  0  0  0
    1.3082   23.3364   15.6866 H   0  0  0  0  0  0  0  0  0  0  0  0
    0.9174   21.1700   15.4376 H   0  0  0  0  0  0  0  0  0  0  0  0
    4.2646   20.6185   14.8988 N   0  0  0  0  0  0  0  0  0  0  0  0
    4.0483   20.1559   13.5718 C   0  0  0  0  0  0  0  0  0  0  0  0
    3.1551   20.5821   12.8760 O   0  0  0  0  0  0  0  0  0  0  0  0
    4.9051   19.1687   13.0449 N   0  0  0  0  0  0  0  0  0  0  0  0
    5.9568   18.6391   13.7951 C   0  0  0  0  0  0  0  0  0  0  0  0
    6.6187   17.8395   13.3226 O   0  0  0  0  0  0  0  0  0  0  0  0
    6.1704   19.1023   15.1058 C   0  0  0  0  0  0  0  0  0  0  0  0
    5.3276   20.0892   15.6640 C   0  0  0  0  0  0  0  0  0  0  0  0
    4.7587   18.8451   12.1267 H   0  0  0  0  0  0  0  0  0  0  0  0
 11 10  1  0  0  0
 11 12  1  0  0  0
 11 19  1  0  0  0
 10  6  1  0  0  0
  6  7  2  0  0  0
  6  8  1  0  0  0
  6  5  1  0  0  0
  5  1  1  0  0  0
  1  2  2  0  0  0
  1  3  1  0  0  0
  1 25  1  0  0  0
 25 26  1  0  0  0
 26 27  1  0  0  0
 27 28  1  0  0  0
 27 31  1  0  0  0
 28 29  1  0  0  0
 29 30  1  0  0  0
 29 36  1  0  0  0
 30 31  1  0  0  0
 30 33  1  0  0  0
 31 32  1  0  0  0
 36 37  1  0  0  0
 36 43  1  0  0  0
 37 38  2  0  0  0
 37 39  1  0  0  0
 39 40  1  0  0  0
 40 41  2  0  0  0
 40 42  1  0  0  0
 42 43  2  0  0  0
 12 13  1  0  0  0
 12 14  1  0  0  0
 14 15  1  0  0  0
 14 16  1  0  0  0
 16 17  1  0  0  0
 16 18  1  0  0  0
 18 22  1  0  0  0
 18 19  1  0  0  0
 22 23  1  0  0  0
  8  9  1  0  0  0
  3  4  1  0  0  0
 32 34  1  0  0  0
 33 35  1  0  0  0
 39 44  1  0  0  0
 15 20  1  0  0  0
 17 21  1  0  0  0
 23 24  1  0  0  0
M  END
> <minimizedAffinity>
-10.04595

$$$$
