2AM4_U2F_A_449
  RCSB PDB12061705013D
Coordinates from PDB:2AM4:A:449 Model:1 without hydrogens
 36 38  0  0  0  0            999 V2000
    2.8570   20.5620   13.3920   C 0  0  0  0  0  0  0  0  0  0  0  0
    4.3390   20.1930   13.4440   O 0  0  0  0  0  0  0  0  0  0  0  0
    4.8540   19.4600   12.2400   P 0  0  0  0  0  0  0  0  0  0  0  0
    6.2360   19.9900   11.9730   O 0  0  0  0  0  0  0  0  0  0  0  0
    4.9730   18.0790   12.7660   O 0  0  0  0  0  0  0  0  0  0  0  0
    4.0350   19.5390   10.9040   O 0  0  0  0  0  0  0  0  0  0  0  0
    3.7200   18.5240    9.7620   P 0  0  0  0  0  0  0  0  0  0  0  0
    4.0470   17.2030   10.1860   O 0  0  0  0  0  0  0  0  0  0  0  0
    4.5050   19.0630    8.5950   O 0  0  0  0  0  0  0  0  0  0  0  0
    2.1480   18.6230    9.5240   O 0  0  0  0  0  0  0  0  0  0  0  0
    1.2800   18.1470   10.5360   C 0  0  0  0  0  0  0  0  0  0  0  0
    0.0470   17.6080    9.7490   C 0  0  0  0  0  0  0  0  0  0  0  0
   -0.6530   18.6400    9.0290   O 0  0  0  0  0  0  0  0  0  0  0  0
   -0.7600   18.2440    7.6610   C 0  0  0  0  0  0  0  0  0  0  0  0
    0.3770   17.3040    7.3720   C 0  0  0  0  0  0  0  0  0  0  0  0
    0.4250   16.5470    8.7030   C 0  0  0  0  0  0  0  0  0  0  0  0
   -0.5110   15.4740    8.7220   O 0  0  0  0  0  0  0  0  0  0  0  0
    0.0440   16.5120    6.2820   O 0  0  0  0  0  0  0  0  0  0  0  0
   -0.7540   19.4880    6.8680   N 0  0  0  0  0  0  0  0  0  0  0  0
   -1.9790   19.9270    6.2950   C 0  0  0  0  0  0  0  0  0  0  0  0
   -3.0160   19.3220    6.4440   O 0  0  0  0  0  0  0  0  0  0  0  0
   -1.9890   21.1100    5.5290   N 0  0  0  0  0  0  0  0  0  0  0  0
   -0.8270   21.8560    5.3230   C 0  0  0  0  0  0  0  0  0  0  0  0
   -0.8890   22.8040    4.6920   O 0  0  0  0  0  0  0  0  0  0  0  0
    0.3820   21.4210    5.8950   C 0  0  0  0  0  0  0  0  0  0  0  0
    0.4260   20.2380    6.6660   C 0  0  0  0  0  0  0  0  0  0  0  0
    2.2130   21.7220   13.9410   C 0  0  0  0  0  0  0  0  0  0  0  0
    2.8270   22.8550   13.3520   F 0  0  0  0  0  0  0  0  0  0  0  0
    2.4800   21.8920   15.5030   C 0  0  0  0  0  0  0  0  0  0  0  0
    2.0010   23.1810   16.2120   O 0  0  0  0  0  0  0  0  0  0  0  0
    1.8680   20.6310   16.2410   C 0  0  0  0  0  0  0  0  0  0  0  0
    2.4130   20.6520   17.6620   O 0  0  0  0  0  0  0  0  0  0  0  0
    2.3730   19.2270   15.4630   C 0  0  0  0  0  0  0  0  0  0  0  0
    1.5830   18.0250   16.0670   C 0  0  0  0  0  0  0  0  0  0  0  0
    1.9560   16.7720   15.4850   O 0  0  0  0  0  0  0  0  0  0  0  0
    2.0690   19.4440   14.0660   O 0  0  0  0  0  0  0  0  0  0  0  0
  1  2  1  0  0  0  0
  1 27  1  0  0  0  0
  1 36  1  0  0  0  0
  2  3  1  0  0  0  0
  3  4  2  0  0  0  0
  3  5  1  0  0  0  0
  3  6  1  0  0  0  0
  6  7  1  0  0  0  0
  7  8  2  0  0  0  0
  7  9  1  0  0  0  0
  7 10  1  0  0  0  0
 10 11  1  0  0  0  0
 11 12  1  0  0  0  0
 12 13  1  0  0  0  0
 12 16  1  0  0  0  0
 13 14  1  0  0  0  0
 14 15  1  0  0  0  0
 14 19  1  0  0  0  0
 15 16  1  0  0  0  0
 15 18  1  0  0  0  0
 16 17  1  0  0  0  0
 19 20  1  0  0  0  0
 19 26  1  0  0  0  0
 20 21  2  0  0  0  0
 20 22  1  0  0  0  0
 22 23  1  0  0  0  0
 23 24  2  0  0  0  0
 23 25  1  0  0  0  0
 25 26  2  0  0  0  0
 27 28  1  0  0  0  0
 27 29  1  0  0  0  0
 29 30  1  0  0  0  0
 29 31  1  0  0  0  0
 31 32  1  0  0  0  0
 31 33  1  0  0  0  0
 33 34  1  0  0  0  0
 33 36  1  0  0  0  0
 34 35  1  0  0  0  0
A    1
C1
A    2
O1
A    3
PB
A    4
O1B
A    5
O2B
A    6
O3A
A    7
PA
A    8
O1A
A    9
O2A
A   10
O5'
A   11
C5'
A   12
C4'
A   13
O4'
A   14
C1'
A   15
C2'
A   16
C3'
A   17
O3'
A   18
O2'
A   19
N1
A   20
C6'
A   21
O6'
A   22
N3
A   23
C7'
A   24
O7'
A   25
C8'
A   26
C9'
A   27
C2
A   28
F1
A   29
C3
A   30
O3
A   31
C4
A   32
O4
A   33
C5
A   34
C6
A   35
O6
A   36
O5
M  END
>  <InstanceId>
2AM4_U2F_A_449

>  <ChemCompId>
U2F

>  <PdbId>
2AM4

>  <ChainId>
A

>  <ResidueNumber>
449

>  <InsertionCode>


>  <Model>
1

>  <AltIds>


>  <MissingHeavyAtoms>
0

>  <ObservedFormula>
C15 N2 O16 P2 F

>  <Name>
URIDINE-5'-DIPHOSPHATE-2-DEOXY-2-FLUORO-ALPHA-D-GLUCOSE

>  <SystematicName>
[[(2R,3S,4R,5R)-5-(2,4-dioxopyrimidin-1-yl)-3,4-dihydroxy-oxolan-2-yl]methoxy-hydroxy-phosphoryl] [(2R,3R,4S,5S,6R)-3-fluoro-4,5-dihydroxy-6-(hydroxymethyl)oxan-2-yl] hydrogen phosphate

>  <Synonyms>


>  <Type>
NON-POLYMER

>  <Formula>
C15 H23 F N2 O16 P2

>  <MolecularWeight>
568.293

>  <ModifiedDate>
2011-06-04

>  <Parent>


>  <OneLetterCode>


>  <SubcomponentList>


>  <AmbiguousFlag>
N

>  <InChI>
InChI=1S/C15H23FN2O16P2/c16-8-11(23)9(21)5(3-19)32-14(8)33-36(28,29)34-35(26,27)30-4-6-10(22)12(24)13(31-6)18-2-1-7(20)17-15(18)25/h1-2,5-6,8-14,19,21-24H,3-4H2,(H,26,27)(H,28,29)(H,17,20,25)/t5-,6-,8-,9-,10-,11-,12-,13-,14-/m1/s1

>  <InChIKey>
NGTCPFGWXMBZEP-NQQHDEILSA-N

>  <SMILES>
C1=CN(C(=O)NC1=O)[C@H]2[C@@H]([C@@H]([C@H](O2)CO[P@@](=O)(O)O[P@](=O)(O)O[C@@H]3[C@@H]([C@H]([C@@H]([C@H](O3)CO)O)O)F)O)O

$$$$
