3L3L_L3L_A_351


 22 24  0  0  0  0  0  0  0  0999 V2000
  -27.3977   64.0133   25.9920 C   0  0  0  0  0  0  0  0  0  0  0  0
  -27.8958   64.7755   24.9518 C   0  0  0  0  0  0  0  0  0  0  0  0
  -26.0560   64.0518   26.3144 C   0  0  0  0  0  0  0  0  0  0  0  0
  -25.7127   65.5917   24.5221 C   0  0  0  0  0  0  0  0  0  0  0  0
  -27.0573   65.5758   24.2060 C   0  0  0  0  0  0  0  0  0  0  0  0
  -25.2238   64.8454   25.5591 C   0  0  0  0  0  0  0  0  0  0  0  0
  -24.5922   66.3232   23.9207 C   0  0  0  0  0  0  0  0  0  0  0  0
  -23.7619   65.0352   25.7368 C   0  0  0  0  0  0  0  0  0  0  0  0
  -23.5209   66.0530   24.7414 N   0  0  0  0  0  0  0  0  0  0  0  0
  -24.6179   66.9745   22.8847 O   0  0  0  0  0  0  0  0  0  0  0  0
  -21.2125   65.4923   24.1842 C   0  0  0  0  0  0  0  0  0  0  0  0
  -21.6901   67.3807   25.6605 C   0  0  0  0  0  0  0  0  0  0  0  0
  -19.8895   66.1380   23.8568 C   0  0  0  0  0  0  0  0  0  0  0  0
  -20.3347   67.9374   25.3007 C   0  0  0  0  0  0  0  0  0  0  0  0
  -22.2063   66.5828   24.4912 C   0  0  0  0  0  0  0  0  0  0  0  0
  -19.4248   66.8334   25.0412 N   0  0  0  0  0  0  0  0  0  0  0  0
  -18.4823   67.1910   24.8851 H   0  0  0  0  0  0  0  0  0  0  0  0
  -27.6777   66.3533   23.1269 C   0  0  0  0  0  0  0  0  0  0  0  0
  -27.1185   66.2007   21.8868 N   0  0  0  0  0  0  0  0  0  0  0  0
  -28.6231   67.0789   23.3967 O   0  0  0  0  0  0  0  0  0  0  0  0
  -26.3554   65.5912   21.7626 H   0  0  0  0  0  0  0  0  0  0  0  0
  -27.4793   66.7005   21.1192 H   0  0  0  0  0  0  0  0  0  0  0  0
  1  2  2  0  0  0
  1  3  1  0  0  0
  2  5  1  0  0  0
  3  6  2  0  0  0
  4  5  2  0  0  0
  4  6  1  0  0  0
  4  7  1  0  0  0
  5 18  1  0  0  0
  6  8  1  0  0  0
  7  9  1  0  0  0
  7 10  2  0  0  0
 18 19  1  0  0  0
 18 20  2  0  0  0
  8  9  1  0  0  0
 11 13  1  0  0  0
 11 15  1  0  0  0
 12 14  1  0  0  0
 12 15  1  0  0  0
 13 16  1  0  0  0
 14 16  1  0  0  0
 15  9  1  0  0  0
 16 17  1  0  0  0
 19 21  1  0  0  0
 19 22  1  0  0  0
M  END
> <minimizedAffinity>
-9.32221

$$$$
3L3L_L3L_A_351


 22 24  0  0  0  0  0  0  0  0999 V2000
  -22.7505   61.4892   27.5613 C   0  0  0  0  0  0  0  0  0  0  0  0
  -23.8835   61.4194   28.3505 C   0  0  0  0  0  0  0  0  0  0  0  0
  -22.6987   62.3413   26.4765 C   0  0  0  0  0  0  0  0  0  0  0  0
  -24.9362   63.0220   26.9576 C   0  0  0  0  0  0  0  0  0  0  0  0
  -24.9894   62.1880   28.0576 C   0  0  0  0  0  0  0  0  0  0  0  0
  -23.8101   63.0979   26.1847 C   0  0  0  0  0  0  0  0  0  0  0  0
  -25.9344   63.9399   26.3978 C   0  0  0  0  0  0  0  0  0  0  0  0
  -23.9641   64.0738   25.0763 C   0  0  0  0  0  0  0  0  0  0  0  0
  -25.2704   64.6025   25.3907 N   0  0  0  0  0  0  0  0  0  0  0  0
  -27.1082   64.0337   26.7318 O   0  0  0  0  0  0  0  0  0  0  0  0
  -27.1725   65.0783   23.9384 C   0  0  0  0  0  0  0  0  0  0  0  0
  -24.9992   66.0987   23.4810 C   0  0  0  0  0  0  0  0  0  0  0  0
  -27.8156   66.2060   23.1710 C   0  0  0  0  0  0  0  0  0  0  0  0
  -25.7242   67.1697   22.7038 C   0  0  0  0  0  0  0  0  0  0  0  0
  -25.9094   65.6001   24.5733 C   0  0  0  0  0  0  0  0  0  0  0  0
  -26.9151   66.5918   22.1021 N   0  0  0  0  0  0  0  0  0  0  0  0
  -27.3673   67.2798   21.4999 H   0  0  0  0  0  0  0  0  0  0  0  0
  -26.1422   62.0514   28.9555 C   0  0  0  0  0  0  0  0  0  0  0  0
  -26.4312   63.1474   29.7229 N   0  0  0  0  0  0  0  0  0  0  0  0
  -26.7503   60.9916   28.9708 O   0  0  0  0  0  0  0  0  0  0  0  0
  -25.8843   63.9621   29.6434 H   0  0  0  0  0  0  0  0  0  0  0  0
  -27.1860   63.1209   30.3545 H   0  0  0  0  0  0  0  0  0  0  0  0
  1  2  2  0  0  0
  1  3  1  0  0  0
  2  5  1  0  0  0
  3  6  2  0  0  0
  4  5  2  0  0  0
  4  6  1  0  0  0
  4  7  1  0  0  0
  5 18  1  0  0  0
  6  8  1  0  0  0
  7  9  1  0  0  0
  7 10  2  0  0  0
 18 19  1  0  0  0
 18 20  2  0  0  0
  8  9  1  0  0  0
 11 13  1  0  0  0
 11 15  1  0  0  0
 12 14  1  0  0  0
 12 15  1  0  0  0
 13 16  1  0  0  0
 14 16  1  0  0  0
 15  9  1  0  0  0
 16 17  1  0  0  0
 19 21  1  0  0  0
 19 22  1  0  0  0
M  END
> <minimizedAffinity>
-8.94298

$$$$
3L3L_L3L_A_351


 22 24  0  0  0  0  0  0  0  0999 V2000
  -27.8926   64.5225   25.2606 C   0  0  0  0  0  0  0  0  0  0  0  0
  -27.7616   65.3957   24.1967 C   0  0  0  0  0  0  0  0  0  0  0  0
  -26.7929   64.1539   26.0092 C   0  0  0  0  0  0  0  0  0  0  0  0
  -25.4282   65.5100   24.5950 C   0  0  0  0  0  0  0  0  0  0  0  0
  -26.5261   65.9011   23.8535 C   0  0  0  0  0  0  0  0  0  0  0  0
  -25.5617   64.6548   25.6543 C   0  0  0  0  0  0  0  0  0  0  0  0
  -24.0099   65.8651   24.4734 C   0  0  0  0  0  0  0  0  0  0  0  0
  -24.2614   64.3933   26.3220 C   0  0  0  0  0  0  0  0  0  0  0  0
  -23.4120   65.2862   25.5695 N   0  0  0  0  0  0  0  0  0  0  0  0
  -23.4897   66.4893   23.5580 O   0  0  0  0  0  0  0  0  0  0  0  0
  -21.2484   64.1880   25.3123 C   0  0  0  0  0  0  0  0  0  0  0  0
  -21.7001   65.5520   27.2894 C   0  0  0  0  0  0  0  0  0  0  0  0
  -19.7758   64.4177   25.5428 C   0  0  0  0  0  0  0  0  0  0  0  0
  -20.2086   65.7024   27.4620 C   0  0  0  0  0  0  0  0  0  0  0  0
  -21.9989   65.3915   25.8213 C   0  0  0  0  0  0  0  0  0  0  0  0
  -19.5534   64.4999   26.9732 N   0  0  0  0  0  0  0  0  0  0  0  0
  -18.5529   64.5484   27.1656 H   0  0  0  0  0  0  0  0  0  0  0  0
  -26.4867   66.8257   22.7145 C   0  0  0  0  0  0  0  0  0  0  0  0
  -26.9464   66.3252   21.5263 N   0  0  0  0  0  0  0  0  0  0  0  0
  -26.0468   67.9522   22.8896 O   0  0  0  0  0  0  0  0  0  0  0  0
  -27.2842   65.4017   21.4789 H   0  0  0  0  0  0  0  0  0  0  0  0
  -26.9393   66.8888   20.7191 H   0  0  0  0  0  0  0  0  0  0  0  0
  1  2  2  0  0  0
  1  3  1  0  0  0
  2  5  1  0  0  0
  3  6  2  0  0  0
  4  5  2  0  0  0
  4  6  1  0  0  0
  4  7  1  0  0  0
  5 18  1  0  0  0
  6  8  1  0  0  0
  7  9  1  0  0  0
  7 10  2  0  0  0
 18 19  1  0  0  0
 18 20  2  0  0  0
  8  9  1  0  0  0
 11 13  1  0  0  0
 11 15  1  0  0  0
 12 14  1  0  0  0
 12 15  1  0  0  0
 13 16  1  0  0  0
 14 16  1  0  0  0
 15  9  1  0  0  0
 16 17  1  0  0  0
 19 21  1  0  0  0
 19 22  1  0  0  0
M  END
> <minimizedAffinity>
-8.66756

$$$$
3L3L_L3L_A_351


 22 24  0  0  0  0  0  0  0  0999 V2000
  -24.9819   67.1024   22.7676 C   0  0  0  0  0  0  0  0  0  0  0  0
  -26.3330   66.8102   22.7478 C   0  0  0  0  0  0  0  0  0  0  0  0
  -24.1540   66.5439   23.7206 C   0  0  0  0  0  0  0  0  0  0  0  0
  -26.0491   65.4307   24.6539 C   0  0  0  0  0  0  0  0  0  0  0  0
  -26.8813   65.9682   23.6911 C   0  0  0  0  0  0  0  0  0  0  0  0
  -24.7105   65.7122   24.6648 C   0  0  0  0  0  0  0  0  0  0  0  0
  -26.3321   64.5240   25.7719 C   0  0  0  0  0  0  0  0  0  0  0  0
  -24.0057   65.0082   25.7659 C   0  0  0  0  0  0  0  0  0  0  0  0
  -25.0958   64.2245   26.2973 N   0  0  0  0  0  0  0  0  0  0  0  0
  -27.4367   64.1739   26.1661 O   0  0  0  0  0  0  0  0  0  0  0  0
  -24.4008   64.0994   28.6328 C   0  0  0  0  0  0  0  0  0  0  0  0
  -24.0017   62.2095   27.1353 C   0  0  0  0  0  0  0  0  0  0  0  0
  -24.3374   63.1382   29.7932 C   0  0  0  0  0  0  0  0  0  0  0  0
  -23.9218   61.3264   28.3561 C   0  0  0  0  0  0  0  0  0  0  0  0
  -24.9317   63.3568   27.4338 C   0  0  0  0  0  0  0  0  0  0  0  0
  -23.3816   62.0991   29.4630 N   0  0  0  0  0  0  0  0  0  0  0  0
  -23.2369   61.4927   30.2703 H   0  0  0  0  0  0  0  0  0  0  0  0
  -28.3225   65.7118   23.5860 C   0  0  0  0  0  0  0  0  0  0  0  0
  -28.6996   64.3980   23.6582 N   0  0  0  0  0  0  0  0  0  0  0  0
  -29.0766   66.6612   23.4329 O   0  0  0  0  0  0  0  0  0  0  0  0
  -28.0197   63.6969   23.7833 H   0  0  0  0  0  0  0  0  0  0  0  0
  -29.6505   64.1540   23.5850 H   0  0  0  0  0  0  0  0  0  0  0  0
  1  2  2  0  0  0
  1  3  1  0  0  0
  2  5  1  0  0  0
  3  6  2  0  0  0
  4  5  2  0  0  0
  4  6  1  0  0  0
  4  7  1  0  0  0
  5 18  1  0  0  0
  6  8  1  0  0  0
  7  9  1  0  0  0
  7 10  2  0  0  0
 18 19  1  0  0  0
 18 20  2  0  0  0
  8  9  1  0  0  0
 11 13  1  0  0  0
 11 15  1  0  0  0
 12 14  1  0  0  0
 12 15  1  0  0  0
 13 16  1  0  0  0
 14 16  1  0  0  0
 15  9  1  0  0  0
 16 17  1  0  0  0
 19 21  1  0  0  0
 19 22  1  0  0  0
M  END
> <minimizedAffinity>
-8.64239

$$$$
3L3L_L3L_A_351


 22 24  0  0  0  0  0  0  0  0999 V2000
  -26.5890   65.0653   24.5335 C   0  0  0  0  0  0  0  0  0  0  0  0
  -26.4859   64.3189   25.6926 C   0  0  0  0  0  0  0  0  0  0  0  0
  -25.5353   65.8453   24.1015 C   0  0  0  0  0  0  0  0  0  0  0  0
  -24.2920   65.1538   26.0191 C   0  0  0  0  0  0  0  0  0  0  0  0
  -25.3334   64.3538   26.4477 C   0  0  0  0  0  0  0  0  0  0  0  0
  -24.3920   65.8827   24.8658 C   0  0  0  0  0  0  0  0  0  0  0  0
  -22.9670   65.3998   26.5989 C   0  0  0  0  0  0  0  0  0  0  0  0
  -23.1497   66.6455   24.5836 C   0  0  0  0  0  0  0  0  0  0  0  0
  -22.3161   66.1703   25.6626 N   0  0  0  0  0  0  0  0  0  0  0  0
  -22.5736   65.0380   27.7000 O   0  0  0  0  0  0  0  0  0  0  0  0
  -20.9299   68.1267   26.1146 C   0  0  0  0  0  0  0  0  0  0  0  0
  -20.0946   66.3444   24.6658 C   0  0  0  0  0  0  0  0  0  0  0  0
  -19.4991   68.5199   26.3841 C   0  0  0  0  0  0  0  0  0  0  0  0
  -18.6967   66.8269   24.9660 C   0  0  0  0  0  0  0  0  0  0  0  0
  -20.9703   66.6428   25.8550 C   0  0  0  0  0  0  0  0  0  0  0  0
  -18.7299   68.2644   25.1819 N   0  0  0  0  0  0  0  0  0  0  0  0
  -17.7805   68.6191   25.2966 H   0  0  0  0  0  0  0  0  0  0  0  0
  -25.3142   63.5234   27.6577 C   0  0  0  0  0  0  0  0  0  0  0  0
  -25.5060   64.1888   28.8385 N   0  0  0  0  0  0  0  0  0  0  0  0
  -25.1218   62.3224   27.5408 O   0  0  0  0  0  0  0  0  0  0  0  0
  -25.6545   65.1620   28.8366 H   0  0  0  0  0  0  0  0  0  0  0  0
  -25.4954   63.6941   29.6896 H   0  0  0  0  0  0  0  0  0  0  0  0
  1  2  2  0  0  0
  1  3  1  0  0  0
  2  5  1  0  0  0
  3  6  2  0  0  0
  4  5  2  0  0  0
  4  6  1  0  0  0
  4  7  1  0  0  0
  5 18  1  0  0  0
  6  8  1  0  0  0
  7  9  1  0  0  0
  7 10  2  0  0  0
 18 19  1  0  0  0
 18 20  2  0  0  0
  8  9  1  0  0  0
 11 13  1  0  0  0
 11 15  1  0  0  0
 12 14  1  0  0  0
 12 15  1  0  0  0
 13 16  1  0  0  0
 14 16  1  0  0  0
 15  9  1  0  0  0
 16 17  1  0  0  0
 19 21  1  0  0  0
 19 22  1  0  0  0
M  END
> <minimizedAffinity>
-8.14584

$$$$
3L3L_L3L_A_351


 22 24  0  0  0  0  0  0  0  0999 V2000
  -26.1326   66.7299   22.8084 C   0  0  0  0  0  0  0  0  0  0  0  0
  -24.7745   66.8814   23.0181 C   0  0  0  0  0  0  0  0  0  0  0  0
  -26.8927   65.9453   23.6524 C   0  0  0  0  0  0  0  0  0  0  0  0
  -24.9161   65.4371   24.8918 C   0  0  0  0  0  0  0  0  0  0  0  0
  -24.1513   66.2371   24.0651 C   0  0  0  0  0  0  0  0  0  0  0  0
  -26.2617   65.2976   24.6893 C   0  0  0  0  0  0  0  0  0  0  0  0
  -24.5469   64.6342   26.0628 C   0  0  0  0  0  0  0  0  0  0  0  0
  -26.8865   64.4170   25.7086 C   0  0  0  0  0  0  0  0  0  0  0  0
  -25.7447   64.1707   26.5573 N   0  0  0  0  0  0  0  0  0  0  0  0
  -23.4127   64.3965   26.4566 O   0  0  0  0  0  0  0  0  0  0  0  0
  -24.9729   62.0872   27.5656 C   0  0  0  0  0  0  0  0  0  0  0  0
  -27.2376   62.8935   28.0063 C   0  0  0  0  0  0  0  0  0  0  0  0
  -25.0485   61.3014   28.8506 C   0  0  0  0  0  0  0  0  0  0  0  0
  -27.2378   62.0510   29.2581 C   0  0  0  0  0  0  0  0  0  0  0  0
  -25.8224   63.3225   27.7175 C   0  0  0  0  0  0  0  0  0  0  0  0
  -26.4208   60.8697   29.0320 N   0  0  0  0  0  0  0  0  0  0  0  0
  -26.4839   60.2461   29.8366 H   0  0  0  0  0  0  0  0  0  0  0  0
  -22.7087   66.4635   24.2119 C   0  0  0  0  0  0  0  0  0  0  0  0
  -22.3498   67.6376   24.8172 N   0  0  0  0  0  0  0  0  0  0  0  0
  -21.9368   65.6176   23.7857 O   0  0  0  0  0  0  0  0  0  0  0  0
  -23.0434   68.2620   25.1306 H   0  0  0  0  0  0  0  0  0  0  0  0
  -21.3979   67.8576   24.9392 H   0  0  0  0  0  0  0  0  0  0  0  0
  1  2  2  0  0  0
  1  3  1  0  0  0
  2  5  1  0  0  0
  3  6  2  0  0  0
  4  5  2  0  0  0
  4  6  1  0  0  0
  4  7  1  0  0  0
  5 18  1  0  0  0
  6  8  1  0  0  0
  7  9  1  0  0  0
  7 10  2  0  0  0
 18 19  1  0  0  0
 18 20  2  0  0  0
  8  9  1  0  0  0
 11 13  1  0  0  0
 11 15  1  0  0  0
 12 14  1  0  0  0
 12 15  1  0  0  0
 13 16  1  0  0  0
 14 16  1  0  0  0
 15  9  1  0  0  0
 16 17  1  0  0  0
 19 21  1  0  0  0
 19 22  1  0  0  0
M  END
> <minimizedAffinity>
-8.00899

$$$$
3L3L_L3L_A_351


 22 24  0  0  0  0  0  0  0  0999 V2000
  -28.2951   65.0245   23.9975 C   0  0  0  0  0  0  0  0  0  0  0  0
  -28.3102   64.3625   25.2111 C   0  0  0  0  0  0  0  0  0  0  0  0
  -27.1281   65.5795   23.5121 C   0  0  0  0  0  0  0  0  0  0  0  0
  -26.0041   64.8365   25.4833 C   0  0  0  0  0  0  0  0  0  0  0  0
  -27.1624   64.2595   25.9670 C   0  0  0  0  0  0  0  0  0  0  0  0
  -25.9888   65.4813   24.2770 C   0  0  0  0  0  0  0  0  0  0  0  0
  -24.6520   64.8984   26.0491 C   0  0  0  0  0  0  0  0  0  0  0  0
  -24.6377   65.9989   23.9431 C   0  0  0  0  0  0  0  0  0  0  0  0
  -23.8878   65.4736   25.0595 N   0  0  0  0  0  0  0  0  0  0  0  0
  -24.3164   64.5607   27.1767 O   0  0  0  0  0  0  0  0  0  0  0  0
  -22.1525   67.1889   25.0790 C   0  0  0  0  0  0  0  0  0  0  0  0
  -21.6531   64.9537   24.2258 C   0  0  0  0  0  0  0  0  0  0  0  0
  -20.6789   67.3709   25.3430 C   0  0  0  0  0  0  0  0  0  0  0  0
  -20.1948   65.2345   24.4929 C   0  0  0  0  0  0  0  0  0  0  0  0
  -22.4799   65.7248   25.2218 C   0  0  0  0  0  0  0  0  0  0  0  0
  -19.9477   66.6563   24.3148 N   0  0  0  0  0  0  0  0  0  0  0  0
  -18.9498   66.8479   24.4034 H   0  0  0  0  0  0  0  0  0  0  0  0
  -27.2740   63.5331   27.2374 C   0  0  0  0  0  0  0  0  0  0  0  0
  -26.3070   62.5931   27.4717 N   0  0  0  0  0  0  0  0  0  0  0  0
  -28.2054   63.7971   27.9830 O   0  0  0  0  0  0  0  0  0  0  0  0
  -25.5914   62.4479   26.8114 H   0  0  0  0  0  0  0  0  0  0  0  0
  -26.3272   62.0621   28.3005 H   0  0  0  0  0  0  0  0  0  0  0  0
  1  2  2  0  0  0
  1  3  1  0  0  0
  2  5  1  0  0  0
  3  6  2  0  0  0
  4  5  2  0  0  0
  4  6  1  0  0  0
  4  7  1  0  0  0
  5 18  1  0  0  0
  6  8  1  0  0  0
  7  9  1  0  0  0
  7 10  2  0  0  0
 18 19  1  0  0  0
 18 20  2  0  0  0
  8  9  1  0  0  0
 11 13  1  0  0  0
 11 15  1  0  0  0
 12 14  1  0  0  0
 12 15  1  0  0  0
 13 16  1  0  0  0
 14 16  1  0  0  0
 15  9  1  0  0  0
 16 17  1  0  0  0
 19 21  1  0  0  0
 19 22  1  0  0  0
M  END
> <minimizedAffinity>
-7.94716

$$$$
3L3L_L3L_A_351


 22 24  0  0  0  0  0  0  0  0999 V2000
  -24.0912   61.6688   27.9374 C   0  0  0  0  0  0  0  0  0  0  0  0
  -24.9544   62.6489   27.4839 C   0  0  0  0  0  0  0  0  0  0  0  0
  -22.8822   61.4487   27.3086 C   0  0  0  0  0  0  0  0  0  0  0  0
  -23.4278   63.1715   25.7480 C   0  0  0  0  0  0  0  0  0  0  0  0
  -24.6302   63.4133   26.3838 C   0  0  0  0  0  0  0  0  0  0  0  0
  -22.5701   62.2090   26.2053 C   0  0  0  0  0  0  0  0  0  0  0  0
  -22.8177   63.8030   24.5728 C   0  0  0  0  0  0  0  0  0  0  0  0
  -21.3306   62.1398   25.3906 C   0  0  0  0  0  0  0  0  0  0  0  0
  -21.5610   63.2475   24.4936 N   0  0  0  0  0  0  0  0  0  0  0  0
  -23.3514   64.6006   23.8132 O   0  0  0  0  0  0  0  0  0  0  0  0
  -20.7379   62.6756   22.2690 C   0  0  0  0  0  0  0  0  0  0  0  0
  -19.2040   63.5724   23.9472 C   0  0  0  0  0  0  0  0  0  0  0  0
  -19.7883   63.1622   21.2031 C   0  0  0  0  0  0  0  0  0  0  0  0
  -18.2981   63.9958   22.8172 C   0  0  0  0  0  0  0  0  0  0  0  0
  -20.6280   63.5983   23.4553 C   0  0  0  0  0  0  0  0  0  0  0  0
  -18.4385   63.0512   21.7207 N   0  0  0  0  0  0  0  0  0  0  0  0
  -17.7667   63.2721   20.9856 H   0  0  0  0  0  0  0  0  0  0  0  0
  -25.6055   64.4332   25.9807 C   0  0  0  0  0  0  0  0  0  0  0  0
  -25.0810   65.5788   25.4458 N   0  0  0  0  0  0  0  0  0  0  0  0
  -26.7940   64.2077   26.1534 O   0  0  0  0  0  0  0  0  0  0  0  0
  -24.1064   65.6731   25.3438 H   0  0  0  0  0  0  0  0  0  0  0  0
  -25.6784   66.3084   25.1629 H   0  0  0  0  0  0  0  0  0  0  0  0
  1  2  2  0  0  0
  1  3  1  0  0  0
  2  5  1  0  0  0
  3  6  2  0  0  0
  4  5  2  0  0  0
  4  6  1  0  0  0
  4  7  1  0  0  0
  5 18  1  0  0  0
  6  8  1  0  0  0
  7  9  1  0  0  0
  7 10  2  0  0  0
 18 19  1  0  0  0
 18 20  2  0  0  0
  8  9  1  0  0  0
 11 13  1  0  0  0
 11 15  1  0  0  0
 12 14  1  0  0  0
 12 15  1  0  0  0
 13 16  1  0  0  0
 14 16  1  0  0  0
 15  9  1  0  0  0
 16 17  1  0  0  0
 19 21  1  0  0  0
 19 22  1  0  0  0
M  END
> <minimizedAffinity>
-7.65406

$$$$
3L3L_L3L_A_351


 22 24  0  0  0  0  0  0  0  0999 V2000
  -27.8546   64.4617   25.3314 C   0  0  0  0  0  0  0  0  0  0  0  0
  -26.9286   65.0297   24.4764 C   0  0  0  0  0  0  0  0  0  0  0  0
  -27.4570   63.8982   26.5271 C   0  0  0  0  0  0  0  0  0  0  0  0
  -25.1966   64.4431   25.9839 C   0  0  0  0  0  0  0  0  0  0  0  0
  -25.5877   65.0283   24.7952 C   0  0  0  0  0  0  0  0  0  0  0  0
  -26.1158   63.8917   26.8338 C   0  0  0  0  0  0  0  0  0  0  0  0
  -23.8681   64.2836   26.5856 C   0  0  0  0  0  0  0  0  0  0  0  0
  -25.4793   63.3465   28.0595 C   0  0  0  0  0  0  0  0  0  0  0  0
  -24.1131   63.7546   27.8323 N   0  0  0  0  0  0  0  0  0  0  0  0
  -22.7922   64.5208   26.0525 O   0  0  0  0  0  0  0  0  0  0  0  0
  -22.7127   61.9676   28.7262 C   0  0  0  0  0  0  0  0  0  0  0  0
  -23.4101   63.8128   30.1693 C   0  0  0  0  0  0  0  0  0  0  0  0
  -21.5480   61.7370   29.6561 C   0  0  0  0  0  0  0  0  0  0  0  0
  -22.2363   63.4901   31.0609 C   0  0  0  0  0  0  0  0  0  0  0  0
  -23.0554   63.4348   28.7546 C   0  0  0  0  0  0  0  0  0  0  0  0
  -21.9783   62.0604   31.0024 N   0  0  0  0  0  0  0  0  0  0  0  0
  -21.2463   61.8133   31.6684 H   0  0  0  0  0  0  0  0  0  0  0  0
  -24.6810   65.6601   23.8296 C   0  0  0  0  0  0  0  0  0  0  0  0
  -24.8226   67.0131   23.6783 N   0  0  0  0  0  0  0  0  0  0  0  0
  -23.8840   64.9563   23.2273 O   0  0  0  0  0  0  0  0  0  0  0  0
  -25.4944   67.5001   24.2083 H   0  0  0  0  0  0  0  0  0  0  0  0
  -24.2528   67.4993   23.0394 H   0  0  0  0  0  0  0  0  0  0  0  0
  1  2  2  0  0  0
  1  3  1  0  0  0
  2  5  1  0  0  0
  3  6  2  0  0  0
  4  5  2  0  0  0
  4  6  1  0  0  0
  4  7  1  0  0  0
  5 18  1  0  0  0
  6  8  1  0  0  0
  7  9  1  0  0  0
  7 10  2  0  0  0
 18 19  1  0  0  0
 18 20  2  0  0  0
  8  9  1  0  0  0
 11 13  1  0  0  0
 11 15  1  0  0  0
 12 14  1  0  0  0
 12 15  1  0  0  0
 13 16  1  0  0  0
 14 16  1  0  0  0
 15  9  1  0  0  0
 16 17  1  0  0  0
 19 21  1  0  0  0
 19 22  1  0  0  0
M  END
> <minimizedAffinity>
-7.62155

$$$$
3L3L_L3L_A_351


 22 24  0  0  0  0  0  0  0  0999 V2000
  -23.8462   61.0147   28.0388 C   0  0  0  0  0  0  0  0  0  0  0  0
  -25.0409   61.7101   28.0551 C   0  0  0  0  0  0  0  0  0  0  0  0
  -22.7288   61.5476   27.4282 C   0  0  0  0  0  0  0  0  0  0  0  0
  -24.0247   63.4583   26.8191 C   0  0  0  0  0  0  0  0  0  0  0  0
  -25.1422   62.9424   27.4461 C   0  0  0  0  0  0  0  0  0  0  0  0
  -22.8405   62.7736   26.8140 C   0  0  0  0  0  0  0  0  0  0  0  0
  -23.8247   64.7177   26.0936 C   0  0  0  0  0  0  0  0  0  0  0  0
  -21.7701   63.5240   26.1096 C   0  0  0  0  0  0  0  0  0  0  0  0
  -22.4769   64.7486   25.8170 N   0  0  0  0  0  0  0  0  0  0  0  0
  -24.6917   65.5177   25.7675 O   0  0  0  0  0  0  0  0  0  0  0  0
  -20.5504   65.4231   24.4802 C   0  0  0  0  0  0  0  0  0  0  0  0
  -21.6211   67.0290   25.9796 C   0  0  0  0  0  0  0  0  0  0  0  0
  -20.0203   66.5873   23.6813 C   0  0  0  0  0  0  0  0  0  0  0  0
  -21.0228   68.1316   25.1411 C   0  0  0  0  0  0  0  0  0  0  0  0
  -21.8633   65.8327   25.0961 C   0  0  0  0  0  0  0  0  0  0  0  0
  -19.7522   67.6765   24.6000 N   0  0  0  0  0  0  0  0  0  0  0  0
  -19.2928   68.4412   24.1055 H   0  0  0  0  0  0  0  0  0  0  0  0
  -26.4481   63.6080   27.5210 C   0  0  0  0  0  0  0  0  0  0  0  0
  -27.0441   63.8847   26.3202 N   0  0  0  0  0  0  0  0  0  0  0  0
  -26.9058   63.8775   28.6215 O   0  0  0  0  0  0  0  0  0  0  0  0
  -26.5996   63.6294   25.4796 H   0  0  0  0  0  0  0  0  0  0  0  0
  -27.9172   64.3390   26.2971 H   0  0  0  0  0  0  0  0  0  0  0  0
  1  2  2  0  0  0
  1  3  1  0  0  0
  2  5  1  0  0  0
  3  6  2  0  0  0
  4  5  2  0  0  0
  4  6  1  0  0  0
  4  7  1  0  0  0
  5 18  1  0  0  0
  6  8  1  0  0  0
  7  9  1  0  0  0
  7 10  2  0  0  0
 18 19  1  0  0  0
 18 20  2  0  0  0
  8  9  1  0  0  0
 11 13  1  0  0  0
 11 15  1  0  0  0
 12 14  1  0  0  0
 12 15  1  0  0  0
 13 16  1  0  0  0
 14 16  1  0  0  0
 15  9  1  0  0  0
 16 17  1  0  0  0
 19 21  1  0  0  0
 19 22  1  0  0  0
M  END
> <minimizedAffinity>
-7.59821

$$$$
