1O3J_334_A_246


 26 28  0  0  0  0  0  0  0  0999 V2000
   44.2185   -2.9292   26.0837 C   0  0  0  0  0  0  0  0  0  0  0  0
   44.7323   -1.6263   26.2279 C   0  0  0  0  0  0  0  0  0  0  0  0
   44.4363   -0.8547   27.3425 C   0  0  0  0  0  0  0  0  0  0  0  0
   43.6269   -1.3945   28.3053 C   0  0  0  0  0  0  0  0  0  0  0  0
   43.0971   -2.6266   28.2232 C   0  0  0  0  0  0  0  0  0  0  0  0
   43.3735   -3.4395   27.1108 C   0  0  0  0  0  0  0  0  0  0  0  0
   43.2098   -0.9099   29.4094 N   0  0  0  0  0  0  0  0  0  0  0  0
   42.3497   -2.9189   29.2729 N   0  0  0  0  0  0  0  0  0  0  0  0
   42.4568   -1.7993   29.9853 C   0  0  0  0  0  0  0  0  0  0  0  0
   43.4217   -0.0162   29.7641 H   0  0  0  0  0  0  0  0  0  0  0  0
   41.8834   -1.5511   31.2584 C   0  0  0  0  0  0  0  0  0  0  0  0
   42.4002   -2.1455   32.4201 C   0  0  0  0  0  0  0  0  0  0  0  0
   41.8178   -1.8834   33.6721 C   0  0  0  0  0  0  0  0  0  0  0  0
   42.3606   -2.5196   34.9609 C   0  0  0  0  0  0  0  0  0  0  0  0
   40.7255   -1.0284   33.7764 C   0  0  0  0  0  0  0  0  0  0  0  0
   40.1949   -0.4205   32.6342 C   0  0  0  0  0  0  0  0  0  0  0  0
   40.7693   -0.6869   31.3835 C   0  0  0  0  0  0  0  0  0  0  0  0
   40.1952   -0.1043   30.2663 O   0  0  0  0  0  0  0  0  0  0  0  0
   38.7034    0.8467   32.7680 Br  0  0  0  0  0  0  0  0  0  0  0  0
   44.5577   -3.6818   24.9321 C   0  0  0  0  0  0  0  0  0  0  0  0
   44.6655   -4.9908   25.0033 N   0  0  0  0  0  0  0  0  0  0  0  0
   44.7650   -3.0604   23.7906 N   0  0  0  0  0  0  0  0  0  0  0  0
   44.5096   -5.4518   25.8592 H   0  0  0  0  0  0  0  0  0  0  0  0
   44.9020   -5.5097   24.2008 H   0  0  0  0  0  0  0  0  0  0  0  0
   44.6833   -2.0805   23.7417 H   0  0  0  0  0  0  0  0  0  0  0  0
   45.0017   -3.5754   22.9857 H   0  0  0  0  0  0  0  0  0  0  0  0
  1  2  2  0  0  0
  1  6  1  0  0  0
  1 20  1  0  0  0
  2  3  1  0  0  0
  3  4  2  0  0  0
  4  5  1  0  0  0
  4  7  1  0  0  0
  5  6  2  0  0  0
  5  8  1  0  0  0
 20 21  1  0  0  0
 20 22  2  0  0  0
  7  9  1  0  0  0
  8  9  2  0  0  0
  9 11  1  0  0  0
 11 12  2  0  0  0
 11 17  1  0  0  0
 12 13  1  0  0  0
 13 14  1  0  0  0
 13 15  2  0  0  0
 15 16  1  0  0  0
 16 17  2  0  0  0
 16 19  1  0  0  0
 17 18  1  0  0  0
 21 23  1  0  0  0
 21 24  1  0  0  0
 22 25  1  0  0  0
 22 26  1  0  0  0
  7 10  1  0  0  0
M  CHG 1  18  -1
M  CHG 1  22   1
M  END
> <minimizedAffinity>
-8.65028

$$$$
1O3J_334_A_246


 26 28  0  0  0  0  0  0  0  0999 V2000
   44.2263   -2.9218   26.0417 C   0  0  0  0  0  0  0  0  0  0  0  0
   44.6712   -1.5885   26.1254 C   0  0  0  0  0  0  0  0  0  0  0  0
   44.3903   -0.8039   27.2348 C   0  0  0  0  0  0  0  0  0  0  0  0
   43.6650   -1.3611   28.2531 C   0  0  0  0  0  0  0  0  0  0  0  0
   43.2033   -2.6228   28.2305 C   0  0  0  0  0  0  0  0  0  0  0  0
   43.4672   -3.4497   27.1253 C   0  0  0  0  0  0  0  0  0  0  0  0
   43.2794   -0.8699   29.3657 N   0  0  0  0  0  0  0  0  0  0  0  0
   42.5301   -2.9270   29.3260 N   0  0  0  0  0  0  0  0  0  0  0  0
   42.6100   -1.7837   30.0034 C   0  0  0  0  0  0  0  0  0  0  0  0
   43.4579    0.0437   29.6860 H   0  0  0  0  0  0  0  0  0  0  0  0
   42.0909   -1.5325   31.2991 C   0  0  0  0  0  0  0  0  0  0  0  0
   40.7785   -1.8926   31.6419 C   0  0  0  0  0  0  0  0  0  0  0  0
   40.2853   -1.6366   32.9329 C   0  0  0  0  0  0  0  0  0  0  0  0
   38.8532   -2.0184   33.3375 C   0  0  0  0  0  0  0  0  0  0  0  0
   41.0928   -1.0277   33.8880 C   0  0  0  0  0  0  0  0  0  0  0  0
   42.4055   -0.6633   33.5723 C   0  0  0  0  0  0  0  0  0  0  0  0
   42.8966   -0.9105   32.2828 C   0  0  0  0  0  0  0  0  0  0  0  0
   44.1854   -0.4994   31.9873 O   0  0  0  0  0  0  0  0  0  0  0  0
   43.5849    0.1274   34.9259 Br  0  0  0  0  0  0  0  0  0  0  0  0
   44.5473   -3.6860   24.8926 C   0  0  0  0  0  0  0  0  0  0  0  0
   44.6432   -4.9955   24.9725 N   0  0  0  0  0  0  0  0  0  0  0  0
   44.7495   -3.0751   23.7446 N   0  0  0  0  0  0  0  0  0  0  0  0
   44.4911   -5.4486   25.8332 H   0  0  0  0  0  0  0  0  0  0  0  0
   44.8670   -5.5225   24.1716 H   0  0  0  0  0  0  0  0  0  0  0  0
   44.6767   -2.0948   23.6891 H   0  0  0  0  0  0  0  0  0  0  0  0
   44.9735   -3.5983   22.9413 H   0  0  0  0  0  0  0  0  0  0  0  0
  1  2  2  0  0  0
  1  6  1  0  0  0
  1 20  1  0  0  0
  2  3  1  0  0  0
  3  4  2  0  0  0
  4  5  1  0  0  0
  4  7  1  0  0  0
  5  6  2  0  0  0
  5  8  1  0  0  0
 20 21  1  0  0  0
 20 22  2  0  0  0
  7  9  1  0  0  0
  8  9  2  0  0  0
  9 11  1  0  0  0
 11 12  2  0  0  0
 11 17  1  0  0  0
 12 13  1  0  0  0
 13 14  1  0  0  0
 13 15  2  0  0  0
 15 16  1  0  0  0
 16 17  2  0  0  0
 16 19  1  0  0  0
 17 18  1  0  0  0
 21 23  1  0  0  0
 21 24  1  0  0  0
 22 25  1  0  0  0
 22 26  1  0  0  0
  7 10  1  0  0  0
M  CHG 1  18  -1
M  CHG 1  22   1
M  END
> <minimizedAffinity>
-8.50024

$$$$
1O3J_334_A_246


 26 28  0  0  0  0  0  0  0  0999 V2000
   44.2236   -2.9663   26.0340 C   0  0  0  0  0  0  0  0  0  0  0  0
   44.6115   -1.6183   26.1561 C   0  0  0  0  0  0  0  0  0  0  0  0
   44.5155   -0.9483   27.3674 C   0  0  0  0  0  0  0  0  0  0  0  0
   44.0310   -1.6341   28.4483 C   0  0  0  0  0  0  0  0  0  0  0  0
   43.6351   -2.9171   28.3957 C   0  0  0  0  0  0  0  0  0  0  0  0
   43.7173   -3.6307   27.1879 C   0  0  0  0  0  0  0  0  0  0  0  0
   43.8471   -1.2630   29.6551 N   0  0  0  0  0  0  0  0  0  0  0  0
   43.2046   -3.3544   29.5659 N   0  0  0  0  0  0  0  0  0  0  0  0
   43.3602   -2.2683   30.3200 C   0  0  0  0  0  0  0  0  0  0  0  0
   44.0407   -0.3693   30.0199 H   0  0  0  0  0  0  0  0  0  0  0  0
   43.0931   -2.1598   31.7086 C   0  0  0  0  0  0  0  0  0  0  0  0
   43.2640   -0.9458   32.3919 C   0  0  0  0  0  0  0  0  0  0  0  0
   42.9907   -0.8601   33.7679 C   0  0  0  0  0  0  0  0  0  0  0  0
   43.1688    0.4543   34.5433 C   0  0  0  0  0  0  0  0  0  0  0  0
   42.5432   -1.9754   34.4686 C   0  0  0  0  0  0  0  0  0  0  0  0
   42.3609   -3.1952   33.8095 C   0  0  0  0  0  0  0  0  0  0  0  0
   42.6406   -3.2848   32.4388 C   0  0  0  0  0  0  0  0  0  0  0  0
   42.4919   -4.5162   31.8233 O   0  0  0  0  0  0  0  0  0  0  0  0
   41.6591   -4.7600   34.7620 Br  0  0  0  0  0  0  0  0  0  0  0  0
   44.3501   -3.6101   24.7782 C   0  0  0  0  0  0  0  0  0  0  0  0
   44.3745   -4.9233   24.7056 N   0  0  0  0  0  0  0  0  0  0  0  0
   44.4438   -2.8837   23.6848 N   0  0  0  0  0  0  0  0  0  0  0  0
   44.3041   -5.4630   25.5260 H   0  0  0  0  0  0  0  0  0  0  0  0
   44.4631   -5.3664   23.8310 H   0  0  0  0  0  0  0  0  0  0  0  0
   44.4251   -1.9011   23.7435 H   0  0  0  0  0  0  0  0  0  0  0  0
   44.5325   -3.3228   22.8081 H   0  0  0  0  0  0  0  0  0  0  0  0
  1  2  2  0  0  0
  1  6  1  0  0  0
  1 20  1  0  0  0
  2  3  1  0  0  0
  3  4  2  0  0  0
  4  5  1  0  0  0
  4  7  1  0  0  0
  5  6  2  0  0  0
  5  8  1  0  0  0
 20 21  1  0  0  0
 20 22  2  0  0  0
  7  9  1  0  0  0
  8  9  2  0  0  0
  9 11  1  0  0  0
 11 12  2  0  0  0
 11 17  1  0  0  0
 12 13  1  0  0  0
 13 14  1  0  0  0
 13 15  2  0  0  0
 15 16  1  0  0  0
 16 17  2  0  0  0
 16 19  1  0  0  0
 17 18  1  0  0  0
 21 23  1  0  0  0
 21 24  1  0  0  0
 22 25  1  0  0  0
 22 26  1  0  0  0
  7 10  1  0  0  0
M  CHG 1  18  -1
M  CHG 1  22   1
M  END
> <minimizedAffinity>
-7.80823

$$$$
1O3J_334_A_246


 26 28  0  0  0  0  0  0  0  0999 V2000
   44.1084   -3.1865   26.9219 C   0  0  0  0  0  0  0  0  0  0  0  0
   44.1303   -4.3669   27.6893 C   0  0  0  0  0  0  0  0  0  0  0  0
   43.9170   -4.3386   29.0600 C   0  0  0  0  0  0  0  0  0  0  0  0
   43.6832   -3.1272   29.6526 C   0  0  0  0  0  0  0  0  0  0  0  0
   43.6592   -1.9647   28.9791 C   0  0  0  0  0  0  0  0  0  0  0  0
   43.8699   -1.9511   27.5898 C   0  0  0  0  0  0  0  0  0  0  0  0
   43.4574   -2.8270   30.8719 N   0  0  0  0  0  0  0  0  0  0  0  0
   43.4173   -0.9348   29.7707 N   0  0  0  0  0  0  0  0  0  0  0  0
   43.3005   -1.5390   30.9513 C   0  0  0  0  0  0  0  0  0  0  0  0
   43.4101   -3.4615   31.6232 H   0  0  0  0  0  0  0  0  0  0  0  0
   42.9926   -0.9197   32.1894 C   0  0  0  0  0  0  0  0  0  0  0  0
   41.7082   -1.0052   32.7487 C   0  0  0  0  0  0  0  0  0  0  0  0
   41.4257   -0.3859   33.9783 C   0  0  0  0  0  0  0  0  0  0  0  0
   40.0295   -0.4613   34.6152 C   0  0  0  0  0  0  0  0  0  0  0  0
   42.4161    0.3152   34.6585 C   0  0  0  0  0  0  0  0  0  0  0  0
   43.7048    0.4112   34.1242 C   0  0  0  0  0  0  0  0  0  0  0  0
   43.9864   -0.1990   32.8939 C   0  0  0  0  0  0  0  0  0  0  0  0
   45.2594   -0.0500   32.3699 O   0  0  0  0  0  0  0  0  0  0  0  0
   45.1352    1.3305   35.1026 Br  0  0  0  0  0  0  0  0  0  0  0  0
   44.3217   -3.2679   25.5236 C   0  0  0  0  0  0  0  0  0  0  0  0
   44.4556   -4.4393   24.9402 N   0  0  0  0  0  0  0  0  0  0  0  0
   44.3855   -2.1620   24.8130 N   0  0  0  0  0  0  0  0  0  0  0  0
   44.4073   -5.2642   25.4754 H   0  0  0  0  0  0  0  0  0  0  0  0
   44.6042   -4.4911   23.9684 H   0  0  0  0  0  0  0  0  0  0  0  0
   44.2847   -1.2873   25.2535 H   0  0  0  0  0  0  0  0  0  0  0  0
   44.5340   -2.2093   23.8409 H   0  0  0  0  0  0  0  0  0  0  0  0
  1  2  2  0  0  0
  1  6  1  0  0  0
  1 20  1  0  0  0
  2  3  1  0  0  0
  3  4  2  0  0  0
  4  5  1  0  0  0
  4  7  1  0  0  0
  5  6  2  0  0  0
  5  8  1  0  0  0
 20 21  1  0  0  0
 20 22  2  0  0  0
  7  9  1  0  0  0
  8  9  2  0  0  0
  9 11  1  0  0  0
 11 12  2  0  0  0
 11 17  1  0  0  0
 12 13  1  0  0  0
 13 14  1  0  0  0
 13 15  2  0  0  0
 15 16  1  0  0  0
 16 17  2  0  0  0
 16 19  1  0  0  0
 17 18  1  0  0  0
 21 23  1  0  0  0
 21 24  1  0  0  0
 22 25  1  0  0  0
 22 26  1  0  0  0
  7 10  1  0  0  0
M  CHG 1  18  -1
M  CHG 1  22   1
M  END
> <minimizedAffinity>
-7.73316

$$$$
1O3J_334_A_246


 26 28  0  0  0  0  0  0  0  0999 V2000
   43.8773   -3.3181   26.7997 C   0  0  0  0  0  0  0  0  0  0  0  0
   43.1238   -4.3522   27.3874 C   0  0  0  0  0  0  0  0  0  0  0  0
   42.6726   -4.2600   28.6963 C   0  0  0  0  0  0  0  0  0  0  0  0
   42.9799   -3.1317   29.4075 C   0  0  0  0  0  0  0  0  0  0  0  0
   43.7027   -2.1146   28.9086 C   0  0  0  0  0  0  0  0  0  0  0  0
   44.1772   -2.1695   27.5870 C   0  0  0  0  0  0  0  0  0  0  0  0
   42.6908   -2.7980   30.6046 N   0  0  0  0  0  0  0  0  0  0  0  0
   43.8674   -1.1419   29.7875 N   0  0  0  0  0  0  0  0  0  0  0  0
   43.2096   -1.6290   30.8375 C   0  0  0  0  0  0  0  0  0  0  0  0
   42.1654   -3.3336   31.2420 H   0  0  0  0  0  0  0  0  0  0  0  0
   43.0133   -0.9827   32.0845 C   0  0  0  0  0  0  0  0  0  0  0  0
   44.0861   -0.4146   32.7888 C   0  0  0  0  0  0  0  0  0  0  0  0
   43.8684    0.2236   34.0220 C   0  0  0  0  0  0  0  0  0  0  0  0
   45.0225    0.8541   34.8165 C   0  0  0  0  0  0  0  0  0  0  0  0
   42.5870    0.3044   34.5574 C   0  0  0  0  0  0  0  0  0  0  0  0
   41.5010   -0.2501   33.8728 C   0  0  0  0  0  0  0  0  0  0  0  0
   41.7172   -0.8941   32.6466 C   0  0  0  0  0  0  0  0  0  0  0  0
   40.6291   -1.4708   32.0136 O   0  0  0  0  0  0  0  0  0  0  0  0
   39.6763   -0.0814   34.5730 Br  0  0  0  0  0  0  0  0  0  0  0  0
   44.3067   -3.4543   25.4563 C   0  0  0  0  0  0  0  0  0  0  0  0
   44.4012   -2.3968   24.6798 N   0  0  0  0  0  0  0  0  0  0  0  0
   44.6097   -4.6477   24.9914 N   0  0  0  0  0  0  0  0  0  0  0  0
   44.1737   -1.5059   25.0316 H   0  0  0  0  0  0  0  0  0  0  0  0
   44.6995   -2.4962   23.7469 H   0  0  0  0  0  0  0  0  0  0  0  0
   44.5376   -5.4366   25.5759 H   0  0  0  0  0  0  0  0  0  0  0  0
   44.9083   -4.7515   24.0590 H   0  0  0  0  0  0  0  0  0  0  0  0
  1  2  2  0  0  0
  1  6  1  0  0  0
  1 20  1  0  0  0
  2  3  1  0  0  0
  3  4  2  0  0  0
  4  5  1  0  0  0
  4  7  1  0  0  0
  5  6  2  0  0  0
  5  8  1  0  0  0
 20 21  1  0  0  0
 20 22  2  0  0  0
  7  9  1  0  0  0
  8  9  2  0  0  0
  9 11  1  0  0  0
 11 12  2  0  0  0
 11 17  1  0  0  0
 12 13  1  0  0  0
 13 14  1  0  0  0
 13 15  2  0  0  0
 15 16  1  0  0  0
 16 17  2  0  0  0
 16 19  1  0  0  0
 17 18  1  0  0  0
 21 23  1  0  0  0
 21 24  1  0  0  0
 22 25  1  0  0  0
 22 26  1  0  0  0
  7 10  1  0  0  0
M  CHG 1  18  -1
M  CHG 1  22   1
M  END
> <minimizedAffinity>
-7.70010

$$$$
1O3J_334_A_246


 26 28  0  0  0  0  0  0  0  0999 V2000
   44.2541   -2.6038   26.3321 C   0  0  0  0  0  0  0  0  0  0  0  0
   44.4401   -1.5328   27.2271 C   0  0  0  0  0  0  0  0  0  0  0  0
   44.2738   -1.6999   28.5945 C   0  0  0  0  0  0  0  0  0  0  0  0
   43.9221   -2.9397   29.0557 C   0  0  0  0  0  0  0  0  0  0  0  0
   43.7202   -3.9992   28.2542 C   0  0  0  0  0  0  0  0  0  0  0  0
   43.8793   -3.8710   26.8639 C   0  0  0  0  0  0  0  0  0  0  0  0
   43.7133   -3.3575   30.2430 N   0  0  0  0  0  0  0  0  0  0  0  0
   43.3869   -5.0821   28.9339 N   0  0  0  0  0  0  0  0  0  0  0  0
   43.3969   -4.6168   30.1813 C   0  0  0  0  0  0  0  0  0  0  0  0
   43.7803   -2.8189   31.0644 H   0  0  0  0  0  0  0  0  0  0  0  0
   43.1491   -5.3622   31.3620 C   0  0  0  0  0  0  0  0  0  0  0  0
   43.8287   -6.5619   31.6238 C   0  0  0  0  0  0  0  0  0  0  0  0
   43.5693   -7.2833   32.8018 C   0  0  0  0  0  0  0  0  0  0  0  0
   44.2966   -8.5997   33.1158 C   0  0  0  0  0  0  0  0  0  0  0  0
   42.6397   -6.8152   33.7249 C   0  0  0  0  0  0  0  0  0  0  0  0
   41.9526   -5.6204   33.4889 C   0  0  0  0  0  0  0  0  0  0  0  0
   42.2041   -4.9035   32.3108 C   0  0  0  0  0  0  0  0  0  0  0  0
   41.4770   -3.7469   32.0850 O   0  0  0  0  0  0  0  0  0  0  0  0
   40.6937   -4.9040   34.8120 Br  0  0  0  0  0  0  0  0  0  0  0  0
   44.4455   -2.3859   24.9452 C   0  0  0  0  0  0  0  0  0  0  0  0
   44.8200   -3.3756   24.1639 N   0  0  0  0  0  0  0  0  0  0  0  0
   44.2464   -1.1849   24.4451 N   0  0  0  0  0  0  0  0  0  0  0  0
   44.9678   -4.2725   24.5421 H   0  0  0  0  0  0  0  0  0  0  0  0
   44.9524   -3.2195   23.2009 H   0  0  0  0  0  0  0  0  0  0  0  0
   43.9662   -0.4469   25.0334 H   0  0  0  0  0  0  0  0  0  0  0  0
   44.3777   -1.0245   23.4827 H   0  0  0  0  0  0  0  0  0  0  0  0
  1  2  2  0  0  0
  1  6  1  0  0  0
  1 20  1  0  0  0
  2  3  1  0  0  0
  3  4  2  0  0  0
  4  5  1  0  0  0
  4  7  1  0  0  0
  5  6  2  0  0  0
  5  8  1  0  0  0
 20 21  1  0  0  0
 20 22  2  0  0  0
  7  9  1  0  0  0
  8  9  2  0  0  0
  9 11  1  0  0  0
 11 12  2  0  0  0
 11 17  1  0  0  0
 12 13  1  0  0  0
 13 14  1  0  0  0
 13 15  2  0  0  0
 15 16  1  0  0  0
 16 17  2  0  0  0
 16 19  1  0  0  0
 17 18  1  0  0  0
 21 23  1  0  0  0
 21 24  1  0  0  0
 22 25  1  0  0  0
 22 26  1  0  0  0
  7 10  1  0  0  0
M  CHG 1  18  -1
M  CHG 1  22   1
M  END
> <minimizedAffinity>
-7.07074

$$$$
1O3J_334_A_246


 26 28  0  0  0  0  0  0  0  0999 V2000
   44.2253   -2.6979   26.4036 C   0  0  0  0  0  0  0  0  0  0  0  0
   44.4953   -1.7152   27.3752 C   0  0  0  0  0  0  0  0  0  0  0  0
   44.3043   -1.9668   28.7263 C   0  0  0  0  0  0  0  0  0  0  0  0
   43.8438   -3.2020   29.0946 C   0  0  0  0  0  0  0  0  0  0  0  0
   43.5582   -4.1788   28.2171 C   0  0  0  0  0  0  0  0  0  0  0  0
   43.7389   -3.9636   26.8402 C   0  0  0  0  0  0  0  0  0  0  0  0
   43.5904   -3.6859   30.2477 N   0  0  0  0  0  0  0  0  0  0  0  0
   43.1278   -5.2757   28.8148 N   0  0  0  0  0  0  0  0  0  0  0  0
   43.1677   -4.9054   30.0930 C   0  0  0  0  0  0  0  0  0  0  0  0
   43.6968   -3.2165   31.1065 H   0  0  0  0  0  0  0  0  0  0  0  0
   42.8473   -5.7109   31.2154 C   0  0  0  0  0  0  0  0  0  0  0  0
   41.5696   -5.6795   31.7954 C   0  0  0  0  0  0  0  0  0  0  0  0
   41.2731   -6.4883   32.9059 C   0  0  0  0  0  0  0  0  0  0  0  0
   39.8842   -6.4753   33.5627 C   0  0  0  0  0  0  0  0  0  0  0  0
   42.2400   -7.3332   33.4410 C   0  0  0  0  0  0  0  0  0  0  0  0
   43.5192   -7.3857   32.8784 C   0  0  0  0  0  0  0  0  0  0  0  0
   43.8194   -6.5738   31.7757 C   0  0  0  0  0  0  0  0  0  0  0  0
   45.1068   -6.6161   31.2678 O   0  0  0  0  0  0  0  0  0  0  0  0
   44.8738   -8.6247   33.5699 Br  0  0  0  0  0  0  0  0  0  0  0  0
   44.4459   -2.3966   25.0368 C   0  0  0  0  0  0  0  0  0  0  0  0
   44.7806   -3.3489   24.1934 N   0  0  0  0  0  0  0  0  0  0  0  0
   44.3138   -1.1560   24.6180 N   0  0  0  0  0  0  0  0  0  0  0  0
   44.8783   -4.2757   24.5109 H   0  0  0  0  0  0  0  0  0  0  0  0
   44.9335   -3.1349   23.2447 H   0  0  0  0  0  0  0  0  0  0  0  0
   44.0631   -0.4462   25.2525 H   0  0  0  0  0  0  0  0  0  0  0  0
   44.4658   -0.9376   23.6701 H   0  0  0  0  0  0  0  0  0  0  0  0
  1  2  2  0  0  0
  1  6  1  0  0  0
  1 20  1  0  0  0
  2  3  1  0  0  0
  3  4  2  0  0  0
  4  5  1  0  0  0
  4  7  1  0  0  0
  5  6  2  0  0  0
  5  8  1  0  0  0
 20 21  1  0  0  0
 20 22  2  0  0  0
  7  9  1  0  0  0
  8  9  2  0  0  0
  9 11  1  0  0  0
 11 12  2  0  0  0
 11 17  1  0  0  0
 12 13  1  0  0  0
 13 14  1  0  0  0
 13 15  2  0  0  0
 15 16  1  0  0  0
 16 17  2  0  0  0
 16 19  1  0  0  0
 17 18  1  0  0  0
 21 23  1  0  0  0
 21 24  1  0  0  0
 22 25  1  0  0  0
 22 26  1  0  0  0
  7 10  1  0  0  0
M  CHG 1  18  -1
M  CHG 1  22   1
M  END
> <minimizedAffinity>
-6.83142

$$$$
1O3J_334_A_246


 26 28  0  0  0  0  0  0  0  0999 V2000
   43.9422    1.4971   34.9435 C   0  0  0  0  0  0  0  0  0  0  0  0
   42.6760    0.9391   35.2043 C   0  0  0  0  0  0  0  0  0  0  0  0
   42.1386   -0.0420   34.3834 C   0  0  0  0  0  0  0  0  0  0  0  0
   42.8740   -0.4572   33.3063 C   0  0  0  0  0  0  0  0  0  0  0  0
   44.0829    0.0415   32.9972 C   0  0  0  0  0  0  0  0  0  0  0  0
   44.6619    1.0358   33.8041 C   0  0  0  0  0  0  0  0  0  0  0  0
   42.6196   -1.3308   32.4118 N   0  0  0  0  0  0  0  0  0  0  0  0
   44.5901   -0.5169   31.9124 N   0  0  0  0  0  0  0  0  0  0  0  0
   43.6233   -1.3723   31.5868 C   0  0  0  0  0  0  0  0  0  0  0  0
   41.8038   -1.8790   32.3561 H   0  0  0  0  0  0  0  0  0  0  0  0
   43.6374   -2.2901   30.5057 C   0  0  0  0  0  0  0  0  0  0  0  0
   43.9241   -1.8719   29.1970 C   0  0  0  0  0  0  0  0  0  0  0  0
   43.9353   -2.7991   28.1409 C   0  0  0  0  0  0  0  0  0  0  0  0
   44.2449   -2.3715   26.6980 C   0  0  0  0  0  0  0  0  0  0  0  0
   43.6671   -4.1430   28.3798 C   0  0  0  0  0  0  0  0  0  0  0  0
   43.3828   -4.5853   29.6756 C   0  0  0  0  0  0  0  0  0  0  0  0
   43.3633   -3.6607   30.7291 C   0  0  0  0  0  0  0  0  0  0  0  0
   43.0362   -4.1213   31.9933 O   0  0  0  0  0  0  0  0  0  0  0  0
   43.0762   -6.4871   30.0465 Br  0  0  0  0  0  0  0  0  0  0  0  0
   44.4527    2.4891   35.8169 C   0  0  0  0  0  0  0  0  0  0  0  0
   45.6794    2.3952   36.2823 N   0  0  0  0  0  0  0  0  0  0  0  0
   43.6893    3.5050   36.1594 N   0  0  0  0  0  0  0  0  0  0  0  0
   46.2472    1.6337   36.0236 H   0  0  0  0  0  0  0  0  0  0  0  0
   46.0298    3.0865   36.8894 H   0  0  0  0  0  0  0  0  0  0  0  0
   42.7718    3.5715   35.8088 H   0  0  0  0  0  0  0  0  0  0  0  0
   44.0358    4.1985   36.7663 H   0  0  0  0  0  0  0  0  0  0  0  0
  1  2  2  0  0  0
  1  6  1  0  0  0
  1 20  1  0  0  0
  2  3  1  0  0  0
  3  4  2  0  0  0
  4  5  1  0  0  0
  4  7  1  0  0  0
  5  6  2  0  0  0
  5  8  1  0  0  0
 20 21  1  0  0  0
 20 22  2  0  0  0
  7  9  1  0  0  0
  8  9  2  0  0  0
  9 11  1  0  0  0
 11 12  2  0  0  0
 11 17  1  0  0  0
 12 13  1  0  0  0
 13 14  1  0  0  0
 13 15  2  0  0  0
 15 16  1  0  0  0
 16 17  2  0  0  0
 16 19  1  0  0  0
 17 18  1  0  0  0
 21 23  1  0  0  0
 21 24  1  0  0  0
 22 25  1  0  0  0
 22 26  1  0  0  0
  7 10  1  0  0  0
M  CHG 1  18  -1
M  CHG 1  22   1
M  END
> <minimizedAffinity>
-6.75419

$$$$
1O3J_334_A_246


 26 28  0  0  0  0  0  0  0  0999 V2000
   43.9640    1.2679   34.7000 C   0  0  0  0  0  0  0  0  0  0  0  0
   42.7004    0.7182   34.9892 C   0  0  0  0  0  0  0  0  0  0  0  0
   42.1358   -0.2554   34.1776 C   0  0  0  0  0  0  0  0  0  0  0  0
   42.8417   -0.6714   33.0812 C   0  0  0  0  0  0  0  0  0  0  0  0
   44.0464   -0.1804   32.7449 C   0  0  0  0  0  0  0  0  0  0  0  0
   44.6524    0.8061   33.5414 C   0  0  0  0  0  0  0  0  0  0  0  0
   42.5591   -1.5393   32.1897 N   0  0  0  0  0  0  0  0  0  0  0  0
   44.5229   -0.7379   31.6458 N   0  0  0  0  0  0  0  0  0  0  0  0
   43.5421   -1.5847   31.3403 C   0  0  0  0  0  0  0  0  0  0  0  0
   41.7380   -2.0811   32.1516 H   0  0  0  0  0  0  0  0  0  0  0  0
   43.5230   -2.4980   30.2555 C   0  0  0  0  0  0  0  0  0  0  0  0
   43.0308   -3.8033   30.4090 C   0  0  0  0  0  0  0  0  0  0  0  0
   43.0188   -4.6912   29.3196 C   0  0  0  0  0  0  0  0  0  0  0  0
   42.4870   -6.1261   29.4568 C   0  0  0  0  0  0  0  0  0  0  0  0
   43.4900   -4.2863   28.0749 C   0  0  0  0  0  0  0  0  0  0  0  0
   43.9816   -2.9895   27.8954 C   0  0  0  0  0  0  0  0  0  0  0  0
   44.0018   -2.1049   28.9827 C   0  0  0  0  0  0  0  0  0  0  0  0
   44.5341   -0.8421   28.7846 O   0  0  0  0  0  0  0  0  0  0  0  0
   44.5805   -2.3743   26.1315 Br  0  0  0  0  0  0  0  0  0  0  0  0
   44.5031    2.2523   35.5647 C   0  0  0  0  0  0  0  0  0  0  0  0
   43.8038    3.3248   35.8665 N   0  0  0  0  0  0  0  0  0  0  0  0
   45.7098    2.0856   36.0630 N   0  0  0  0  0  0  0  0  0  0  0  0
   42.9015    3.4456   35.4916 H   0  0  0  0  0  0  0  0  0  0  0  0
   44.1826    4.0065   36.4673 H   0  0  0  0  0  0  0  0  0  0  0  0
   46.2299    1.2815   35.8346 H   0  0  0  0  0  0  0  0  0  0  0  0
   46.0923    2.7649   36.6642 H   0  0  0  0  0  0  0  0  0  0  0  0
  1  2  2  0  0  0
  1  6  1  0  0  0
  1 20  1  0  0  0
  2  3  1  0  0  0
  3  4  2  0  0  0
  4  5  1  0  0  0
  4  7  1  0  0  0
  5  6  2  0  0  0
  5  8  1  0  0  0
 20 21  1  0  0  0
 20 22  2  0  0  0
  7  9  1  0  0  0
  8  9  2  0  0  0
  9 11  1  0  0  0
 11 12  2  0  0  0
 11 17  1  0  0  0
 12 13  1  0  0  0
 13 14  1  0  0  0
 13 15  2  0  0  0
 15 16  1  0  0  0
 16 17  2  0  0  0
 16 19  1  0  0  0
 17 18  1  0  0  0
 21 23  1  0  0  0
 21 24  1  0  0  0
 22 25  1  0  0  0
 22 26  1  0  0  0
  7 10  1  0  0  0
M  CHG 1  18  -1
M  CHG 1  22   1
M  END
> <minimizedAffinity>
-6.62489

$$$$
1O3J_334_A_246


 26 28  0  0  0  0  0  0  0  0999 V2000
   43.5712   -3.1772   28.8489 C   0  0  0  0  0  0  0  0  0  0  0  0
   43.4328   -4.2358   29.7668 C   0  0  0  0  0  0  0  0  0  0  0  0
   43.2230   -3.9953   31.1172 C   0  0  0  0  0  0  0  0  0  0  0  0
   43.1535   -2.6949   31.5384 C   0  0  0  0  0  0  0  0  0  0  0  0
   43.2871   -1.6408   30.7158 C   0  0  0  0  0  0  0  0  0  0  0  0
   43.4999   -1.8425   29.3415 C   0  0  0  0  0  0  0  0  0  0  0  0
   42.9681   -2.2060   32.7023 N   0  0  0  0  0  0  0  0  0  0  0  0
   43.1846   -0.4908   31.3584 N   0  0  0  0  0  0  0  0  0  0  0  0
   42.9858   -0.9097   32.6064 C   0  0  0  0  0  0  0  0  0  0  0  0
   42.8347   -2.7216   33.5303 H   0  0  0  0  0  0  0  0  0  0  0  0
   42.7620   -0.0940   33.7447 C   0  0  0  0  0  0  0  0  0  0  0  0
   41.4834    0.0375   34.3083 C   0  0  0  0  0  0  0  0  0  0  0  0
   41.2847    0.8493   35.4383 C   0  0  0  0  0  0  0  0  0  0  0  0
   39.8971    1.0135   36.0772 C   0  0  0  0  0  0  0  0  0  0  0  0
   42.3530    1.5285   36.0150 C   0  0  0  0  0  0  0  0  0  0  0  0
   43.6374    1.4104   35.4746 C   0  0  0  0  0  0  0  0  0  0  0  0
   43.8361    0.6076   34.3427 C   0  0  0  0  0  0  0  0  0  0  0  0
   45.1106    0.5447   33.8050 O   0  0  0  0  0  0  0  0  0  0  0  0
   45.1703    2.2990   36.3165 Br  0  0  0  0  0  0  0  0  0  0  0  0
   43.7737   -3.4737   27.4783 C   0  0  0  0  0  0  0  0  0  0  0  0
   44.5701   -2.7234   26.7481 N   0  0  0  0  0  0  0  0  0  0  0  0
   43.1580   -4.5055   26.9413 N   0  0  0  0  0  0  0  0  0  0  0  0
   45.0288   -1.9525   27.1537 H   0  0  0  0  0  0  0  0  0  0  0  0
   44.7075   -2.9328   25.7960 H   0  0  0  0  0  0  0  0  0  0  0  0
   42.5628   -5.0644   27.4913 H   0  0  0  0  0  0  0  0  0  0  0  0
   43.2926   -4.7184   25.9895 H   0  0  0  0  0  0  0  0  0  0  0  0
  1  2  2  0  0  0
  1  6  1  0  0  0
  1 20  1  0  0  0
  2  3  1  0  0  0
  3  4  2  0  0  0
  4  5  1  0  0  0
  4  7  1  0  0  0
  5  6  2  0  0  0
  5  8  1  0  0  0
 20 21  1  0  0  0
 20 22  2  0  0  0
  7  9  1  0  0  0
  8  9  2  0  0  0
  9 11  1  0  0  0
 11 12  2  0  0  0
 11 17  1  0  0  0
 12 13  1  0  0  0
 13 14  1  0  0  0
 13 15  2  0  0  0
 15 16  1  0  0  0
 16 17  2  0  0  0
 16 19  1  0  0  0
 17 18  1  0  0  0
 21 23  1  0  0  0
 21 24  1  0  0  0
 22 25  1  0  0  0
 22 26  1  0  0  0
  7 10  1  0  0  0
M  CHG 1  18  -1
M  CHG 1  22   1
M  END
> <minimizedAffinity>
-6.51528

$$$$
