4MSC_2ZT_A_900


 22 25  0  0  0  0  0  0  0  0999 V2000
    2.4907   15.9787   40.4985 C   0  0  0  0  0  0  0  0  0  0  0  0
    3.7342   14.3393   44.9070 C   0  0  0  0  0  0  0  0  0  0  0  0
    4.3512   13.4160   45.7447 C   0  0  0  0  0  0  0  0  0  0  0  0
    5.0005   12.3111   45.1942 C   0  0  0  0  0  0  0  0  0  0  0  0
    5.0460   12.1300   43.8096 C   0  0  0  0  0  0  0  0  0  0  0  0
    4.4323   13.0572   42.9734 C   0  0  0  0  0  0  0  0  0  0  0  0
    4.4449   12.8916   41.5901 C   0  0  0  0  0  0  0  0  0  0  0  0
    3.8155   13.8334   40.7766 C   0  0  0  0  0  0  0  0  0  0  0  0
    3.1768   14.9310   41.3549 C   0  0  0  0  0  0  0  0  0  0  0  0
    3.1755   15.0576   42.6964 N   0  0  0  0  0  0  0  0  0  0  0  0
    3.7794   14.1622   43.5171 C   0  0  0  0  0  0  0  0  0  0  0  0
    2.4526   15.6086   39.0907 O   0  0  0  0  0  0  0  0  0  0  0  0
    2.6475   16.3971   38.0294 C   0  0  0  0  0  0  0  0  0  0  0  0
    3.3232   17.6116   38.1273 C   0  0  0  0  0  0  0  0  0  0  0  0
    3.5238   18.4253   37.0086 C   0  0  0  0  0  0  0  0  0  0  0  0
    4.1793   19.6109   37.1304 N   0  0  0  0  0  0  0  0  0  0  0  0
    4.3816   20.4104   36.0469 C   0  0  0  0  0  0  0  0  0  0  0  0
    3.9037   20.0192   34.7984 C   0  0  0  0  0  0  0  0  0  0  0  0
    3.2353   18.8187   34.6526 C   0  0  0  0  0  0  0  0  0  0  0  0
    3.0433   18.0217   35.7684 C   0  0  0  0  0  0  0  0  0  0  0  0
    2.3667   16.8083   35.6671 C   0  0  0  0  0  0  0  0  0  0  0  0
    2.1794   16.0096   36.7890 C   0  0  0  0  0  0  0  0  0  0  0  0
  4  5  2  0  0  0
  4  3  1  0  0  0
  5  6  1  0  0  0
  3  2  2  0  0  0
  6  7  2  0  0  0
  6 11  1  0  0  0
  7  8  1  0  0  0
  2 11  1  0  0  0
 11 10  2  0  0  0
  8  9  2  0  0  0
 10  9  1  0  0  0
  9  1  1  0  0  0
 12  1  1  0  0  0
 12 13  1  0  0  0
 22 13  2  0  0  0
 22 21  1  0  0  0
 13 14  1  0  0  0
 21 20  2  0  0  0
 14 15  2  0  0  0
 20 15  1  0  0  0
 20 19  1  0  0  0
 15 16  1  0  0  0
 19 18  2  0  0  0
 16 17  2  0  0  0
 18 17  1  0  0  0
M  END
> <minimizedAffinity>
-9.94403

$$$$
4MSC_2ZT_A_900


 22 25  0  0  0  0  0  0  0  0999 V2000
    2.7707   15.9443   40.0608 C   0  0  0  0  0  0  0  0  0  0  0  0
    3.9463   19.4746   36.9266 C   0  0  0  0  0  0  0  0  0  0  0  0
    3.9856   20.0170   35.6462 C   0  0  0  0  0  0  0  0  0  0  0  0
    3.4542   19.2980   34.5758 C   0  0  0  0  0  0  0  0  0  0  0  0
    2.8732   18.0439   34.7800 C   0  0  0  0  0  0  0  0  0  0  0  0
    2.8306   17.5054   36.0621 C   0  0  0  0  0  0  0  0  0  0  0  0
    2.2751   16.2486   36.2922 C   0  0  0  0  0  0  0  0  0  0  0  0
    2.2523   15.7307   37.5869 C   0  0  0  0  0  0  0  0  0  0  0  0
    2.7880   16.4741   38.6393 C   0  0  0  0  0  0  0  0  0  0  0  0
    3.3254   17.6826   38.3819 N   0  0  0  0  0  0  0  0  0  0  0  0
    3.3623   18.2175   37.1359 C   0  0  0  0  0  0  0  0  0  0  0  0
    3.5167   14.7016   40.2004 O   0  0  0  0  0  0  0  0  0  0  0  0
    3.8678   14.0776   41.3289 C   0  0  0  0  0  0  0  0  0  0  0  0
    3.5758   14.6055   42.5848 C   0  0  0  0  0  0  0  0  0  0  0  0
    3.9450   13.9408   43.7577 C   0  0  0  0  0  0  0  0  0  0  0  0
    3.6563   14.4800   44.9727 N   0  0  0  0  0  0  0  0  0  0  0  0
    4.0100   13.8401   46.1213 C   0  0  0  0  0  0  0  0  0  0  0  0
    4.6859   12.6238   46.0570 C   0  0  0  0  0  0  0  0  0  0  0  0
    4.9888   12.0585   44.8330 C   0  0  0  0  0  0  0  0  0  0  0  0
    4.6173   12.7269   43.6788 C   0  0  0  0  0  0  0  0  0  0  0  0
    4.9114   12.1965   42.4247 C   0  0  0  0  0  0  0  0  0  0  0  0
    4.5334   12.8688   41.2685 C   0  0  0  0  0  0  0  0  0  0  0  0
  4  5  2  0  0  0
  4  3  1  0  0  0
  5  6  1  0  0  0
  3  2  2  0  0  0
  6  7  2  0  0  0
  6 11  1  0  0  0
  7  8  1  0  0  0
  2 11  1  0  0  0
 11 10  2  0  0  0
  8  9  2  0  0  0
 10  9  1  0  0  0
  9  1  1  0  0  0
 12  1  1  0  0  0
 12 13  1  0  0  0
 22 13  2  0  0  0
 22 21  1  0  0  0
 13 14  1  0  0  0
 21 20  2  0  0  0
 14 15  2  0  0  0
 20 15  1  0  0  0
 20 19  1  0  0  0
 15 16  1  0  0  0
 19 18  2  0  0  0
 16 17  2  0  0  0
 18 17  1  0  0  0
M  END
> <minimizedAffinity>
-9.80430

$$$$
4MSC_2ZT_A_900


 22 25  0  0  0  0  0  0  0  0999 V2000
    2.8628   16.0622   40.1197 C   0  0  0  0  0  0  0  0  0  0  0  0
    3.8367   19.4278   36.7444 C   0  0  0  0  0  0  0  0  0  0  0  0
    3.8280   19.8894   35.4321 C   0  0  0  0  0  0  0  0  0  0  0  0
    3.3012   19.0854   34.4215 C   0  0  0  0  0  0  0  0  0  0  0  0
    2.7724   17.8264   34.7174 C   0  0  0  0  0  0  0  0  0  0  0  0
    2.7777   17.3688   36.0312 C   0  0  0  0  0  0  0  0  0  0  0  0
    2.2751   16.1097   36.3523 C   0  0  0  0  0  0  0  0  0  0  0  0
    2.2997   15.6741   37.6769 C   0  0  0  0  0  0  0  0  0  0  0  0
    2.8295   16.5014   38.6679 C   0  0  0  0  0  0  0  0  0  0  0  0
    3.3153   17.7100   38.3229 N   0  0  0  0  0  0  0  0  0  0  0  0
    3.3052   18.1661   37.0455 C   0  0  0  0  0  0  0  0  0  0  0  0
    3.0748   14.6287   40.2624 O   0  0  0  0  0  0  0  0  0  0  0  0
    3.6722   13.9837   41.2690 C   0  0  0  0  0  0  0  0  0  0  0  0
    4.3442   12.7784   41.0769 C   0  0  0  0  0  0  0  0  0  0  0  0
    4.9685   12.1158   42.1377 C   0  0  0  0  0  0  0  0  0  0  0  0
    5.6115   10.9358   41.9272 N   0  0  0  0  0  0  0  0  0  0  0  0
    6.2242   10.2829   42.9530 C   0  0  0  0  0  0  0  0  0  0  0  0
    6.1854   10.8201   44.2376 C   0  0  0  0  0  0  0  0  0  0  0  0
    5.5377   12.0177   44.4733 C   0  0  0  0  0  0  0  0  0  0  0  0
    4.9236   12.6642   43.4140 C   0  0  0  0  0  0  0  0  0  0  0  0
    4.2520   13.8689   43.6097 C   0  0  0  0  0  0  0  0  0  0  0  0
    3.6401   14.5164   42.5430 C   0  0  0  0  0  0  0  0  0  0  0  0
  4  5  2  0  0  0
  4  3  1  0  0  0
  5  6  1  0  0  0
  3  2  2  0  0  0
  6  7  2  0  0  0
  6 11  1  0  0  0
  7  8  1  0  0  0
  2 11  1  0  0  0
 11 10  2  0  0  0
  8  9  2  0  0  0
 10  9  1  0  0  0
  9  1  1  0  0  0
 12  1  1  0  0  0
 12 13  1  0  0  0
 22 13  2  0  0  0
 22 21  1  0  0  0
 13 14  1  0  0  0
 21 20  2  0  0  0
 14 15  2  0  0  0
 20 15  1  0  0  0
 20 19  1  0  0  0
 15 16  1  0  0  0
 19 18  2  0  0  0
 16 17  2  0  0  0
 18 17  1  0  0  0
M  END
> <minimizedAffinity>
-9.43774

$$$$
4MSC_2ZT_A_900


 22 25  0  0  0  0  0  0  0  0999 V2000
    2.3649   16.0821   40.0423 C   0  0  0  0  0  0  0  0  0  0  0  0
    3.6032   14.6713   44.5307 C   0  0  0  0  0  0  0  0  0  0  0  0
    4.2177   13.7913   45.4156 C   0  0  0  0  0  0  0  0  0  0  0  0
    4.8639   12.6574   44.9237 C   0  0  0  0  0  0  0  0  0  0  0  0
    4.9090   12.4042   43.5503 C   0  0  0  0  0  0  0  0  0  0  0  0
    4.2980   13.2882   42.6668 C   0  0  0  0  0  0  0  0  0  0  0  0
    4.3103   13.0506   41.2940 C   0  0  0  0  0  0  0  0  0  0  0  0
    3.6836   13.9504   40.4323 C   0  0  0  0  0  0  0  0  0  0  0  0
    3.0479   15.0786   40.9524 C   0  0  0  0  0  0  0  0  0  0  0  0
    3.0469   15.2749   42.2855 N   0  0  0  0  0  0  0  0  0  0  0  0
    3.6482   14.4219   43.1519 C   0  0  0  0  0  0  0  0  0  0  0  0
    3.3042   16.7678   39.1662 O   0  0  0  0  0  0  0  0  0  0  0  0
    3.1235   17.1304   37.8926 C   0  0  0  0  0  0  0  0  0  0  0  0
    2.4876   16.2995   36.9725 C   0  0  0  0  0  0  0  0  0  0  0  0
    2.3013   16.6923   35.6440 C   0  0  0  0  0  0  0  0  0  0  0  0
    1.6849   15.8605   34.7618 N   0  0  0  0  0  0  0  0  0  0  0  0
    1.4969   16.2339   33.4660 C   0  0  0  0  0  0  0  0  0  0  0  0
    1.9495   17.4772   33.0306 C   0  0  0  0  0  0  0  0  0  0  0  0
    2.5780   18.3376   33.9104 C   0  0  0  0  0  0  0  0  0  0  0  0
    2.7561   17.9366   35.2237 C   0  0  0  0  0  0  0  0  0  0  0  0
    3.3930   18.7696   36.1408 C   0  0  0  0  0  0  0  0  0  0  0  0
    3.5664   18.3648   37.4590 C   0  0  0  0  0  0  0  0  0  0  0  0
  4  5  2  0  0  0
  4  3  1  0  0  0
  5  6  1  0  0  0
  3  2  2  0  0  0
  6  7  2  0  0  0
  6 11  1  0  0  0
  7  8  1  0  0  0
  2 11  1  0  0  0
 11 10  2  0  0  0
  8  9  2  0  0  0
 10  9  1  0  0  0
  9  1  1  0  0  0
 12  1  1  0  0  0
 12 13  1  0  0  0
 22 13  2  0  0  0
 22 21  1  0  0  0
 13 14  1  0  0  0
 21 20  2  0  0  0
 14 15  2  0  0  0
 20 15  1  0  0  0
 20 19  1  0  0  0
 15 16  1  0  0  0
 19 18  2  0  0  0
 16 17  2  0  0  0
 18 17  1  0  0  0
M  END
> <minimizedAffinity>
-9.28037

$$$$
4MSC_2ZT_A_900


 22 25  0  0  0  0  0  0  0  0999 V2000
    2.6223   15.7462   40.5592 C   0  0  0  0  0  0  0  0  0  0  0  0
    4.9063   11.4518   40.6604 C   0  0  0  0  0  0  0  0  0  0  0  0
    5.5680   10.4284   41.3311 C   0  0  0  0  0  0  0  0  0  0  0  0
    5.7761   10.5268   42.7067 C   0  0  0  0  0  0  0  0  0  0  0  0
    5.3162   11.6381   43.4178 C   0  0  0  0  0  0  0  0  0  0  0  0
    4.6505   12.6583   42.7458 C   0  0  0  0  0  0  0  0  0  0  0  0
    4.1984   13.7870   43.4259 C   0  0  0  0  0  0  0  0  0  0  0  0
    3.5402   14.7974   42.7253 C   0  0  0  0  0  0  0  0  0  0  0  0
    3.3427   14.6702   41.3497 C   0  0  0  0  0  0  0  0  0  0  0  0
    3.7995   13.5699   40.7203 N   0  0  0  0  0  0  0  0  0  0  0  0
    4.4415   12.5674   41.3707 C   0  0  0  0  0  0  0  0  0  0  0  0
    2.4846   15.4035   39.1507 O   0  0  0  0  0  0  0  0  0  0  0  0
    2.6395   16.2046   38.0923 C   0  0  0  0  0  0  0  0  0  0  0  0
    3.3119   17.4217   38.1809 C   0  0  0  0  0  0  0  0  0  0  0  0
    3.4706   18.2488   37.0653 C   0  0  0  0  0  0  0  0  0  0  0  0
    4.1237   19.4366   37.1782 N   0  0  0  0  0  0  0  0  0  0  0  0
    4.2853   20.2490   36.0975 C   0  0  0  0  0  0  0  0  0  0  0  0
    3.7676   19.8689   34.8615 C   0  0  0  0  0  0  0  0  0  0  0  0
    3.1008   18.6663   34.7248 C   0  0  0  0  0  0  0  0  0  0  0  0
    2.9507   17.8562   35.8376 C   0  0  0  0  0  0  0  0  0  0  0  0
    2.2773   16.6402   35.7455 C   0  0  0  0  0  0  0  0  0  0  0  0
    2.1320   15.8282   36.8640 C   0  0  0  0  0  0  0  0  0  0  0  0
  4  5  2  0  0  0
  4  3  1  0  0  0
  5  6  1  0  0  0
  3  2  2  0  0  0
  6  7  2  0  0  0
  6 11  1  0  0  0
  7  8  1  0  0  0
  2 11  1  0  0  0
 11 10  2  0  0  0
  8  9  2  0  0  0
 10  9  1  0  0  0
  9  1  1  0  0  0
 12  1  1  0  0  0
 12 13  1  0  0  0
 22 13  2  0  0  0
 22 21  1  0  0  0
 13 14  1  0  0  0
 21 20  2  0  0  0
 14 15  2  0  0  0
 20 15  1  0  0  0
 20 19  1  0  0  0
 15 16  1  0  0  0
 19 18  2  0  0  0
 16 17  2  0  0  0
 18 17  1  0  0  0
M  END
> <minimizedAffinity>
-9.16638

$$$$
4MSC_2ZT_A_900


 22 25  0  0  0  0  0  0  0  0999 V2000
    5.1000   12.1951   46.4160 C   0  0  0  0  0  0  0  0  0  0  0  0
    4.4299   12.5989   41.6143 C   0  0  0  0  0  0  0  0  0  0  0  0
    3.9601   13.2740   40.4924 C   0  0  0  0  0  0  0  0  0  0  0  0
    3.3053   14.4958   40.6466 C   0  0  0  0  0  0  0  0  0  0  0  0
    3.1274   15.0522   41.9158 C   0  0  0  0  0  0  0  0  0  0  0  0
    3.6024   14.3776   43.0360 C   0  0  0  0  0  0  0  0  0  0  0  0
    3.4217   14.8990   44.3152 C   0  0  0  0  0  0  0  0  0  0  0  0
    3.9022   14.1975   45.4207 C   0  0  0  0  0  0  0  0  0  0  0  0
    4.5569   12.9791   45.2361 C   0  0  0  0  0  0  0  0  0  0  0  0
    4.7079   12.4982   43.9865 N   0  0  0  0  0  0  0  0  0  0  0  0
    4.2552   13.1548   42.8892 C   0  0  0  0  0  0  0  0  0  0  0  0
    6.4732   11.7575   46.2085 O   0  0  0  0  0  0  0  0  0  0  0  0
    6.8994   10.6819   45.5396 C   0  0  0  0  0  0  0  0  0  0  0  0
    7.5586   10.7874   44.3166 C   0  0  0  0  0  0  0  0  0  0  0  0
    8.0029    9.6545   43.6289 C   0  0  0  0  0  0  0  0  0  0  0  0
    8.6368    9.7822   42.4322 N   0  0  0  0  0  0  0  0  0  0  0  0
    9.0752    8.6854   41.7549 C   0  0  0  0  0  0  0  0  0  0  0  0
    8.8644    7.4142   42.2841 C   0  0  0  0  0  0  0  0  0  0  0  0
    8.2227    7.2622   43.4983 C   0  0  0  0  0  0  0  0  0  0  0  0
    7.7877    8.3923   44.1695 C   0  0  0  0  0  0  0  0  0  0  0  0
    7.1284    8.2831   45.3918 C   0  0  0  0  0  0  0  0  0  0  0  0
    6.6966    9.4203   46.0641 C   0  0  0  0  0  0  0  0  0  0  0  0
  4  5  2  0  0  0
  4  3  1  0  0  0
  5  6  1  0  0  0
  3  2  2  0  0  0
  6  7  2  0  0  0
  6 11  1  0  0  0
  7  8  1  0  0  0
  2 11  1  0  0  0
 11 10  2  0  0  0
  8  9  2  0  0  0
 10  9  1  0  0  0
  9  1  1  0  0  0
 12  1  1  0  0  0
 12 13  1  0  0  0
 22 13  2  0  0  0
 22 21  1  0  0  0
 13 14  1  0  0  0
 21 20  2  0  0  0
 14 15  2  0  0  0
 20 15  1  0  0  0
 20 19  1  0  0  0
 15 16  1  0  0  0
 19 18  2  0  0  0
 16 17  2  0  0  0
 18 17  1  0  0  0
M  END
> <minimizedAffinity>
-8.82921

$$$$
4MSC_2ZT_A_900


 22 25  0  0  0  0  0  0  0  0999 V2000
    2.6853   15.7496   39.9805 C   0  0  0  0  0  0  0  0  0  0  0  0
    3.4020   14.9004   44.7169 C   0  0  0  0  0  0  0  0  0  0  0  0
    3.9069   14.1380   45.7652 C   0  0  0  0  0  0  0  0  0  0  0  0
    4.5962   12.9572   45.4897 C   0  0  0  0  0  0  0  0  0  0  0  0
    4.7934   12.5399   44.1709 C   0  0  0  0  0  0  0  0  0  0  0  0
    4.2917   13.3065   43.1239 C   0  0  0  0  0  0  0  0  0  0  0  0
    4.4563   12.9047   41.8001 C   0  0  0  0  0  0  0  0  0  0  0  0
    3.9366   13.6895   40.7710 C   0  0  0  0  0  0  0  0  0  0  0  0
    3.2546   14.8681   41.0761 C   0  0  0  0  0  0  0  0  0  0  0  0
    3.1054   15.2242   42.3671 N   0  0  0  0  0  0  0  0  0  0  0  0
    3.5996   14.4863   43.3924 C   0  0  0  0  0  0  0  0  0  0  0  0
    1.9697   14.9862   38.9679 O   0  0  0  0  0  0  0  0  0  0  0  0
    2.1221   15.0380   37.6412 C   0  0  0  0  0  0  0  0  0  0  0  0
    2.2871   16.2447   36.9645 C   0  0  0  0  0  0  0  0  0  0  0  0
    2.4496   16.2849   35.5768 C   0  0  0  0  0  0  0  0  0  0  0  0
    2.6006   17.4758   34.9372 N   0  0  0  0  0  0  0  0  0  0  0  0
    2.7613   17.5263   33.5860 C   0  0  0  0  0  0  0  0  0  0  0  0
    2.7604   16.3475   32.8438 C   0  0  0  0  0  0  0  0  0  0  0  0
    2.6086   15.1271   33.4737 C   0  0  0  0  0  0  0  0  0  0  0  0
    2.4488   15.1010   34.8488 C   0  0  0  0  0  0  0  0  0  0  0  0
    2.2835   13.8927   35.5221 C   0  0  0  0  0  0  0  0  0  0  0  0
    2.1271   13.8706   36.9029 C   0  0  0  0  0  0  0  0  0  0  0  0
  4  5  2  0  0  0
  4  3  1  0  0  0
  5  6  1  0  0  0
  3  2  2  0  0  0
  6  7  2  0  0  0
  6 11  1  0  0  0
  7  8  1  0  0  0
  2 11  1  0  0  0
 11 10  2  0  0  0
  8  9  2  0  0  0
 10  9  1  0  0  0
  9  1  1  0  0  0
 12  1  1  0  0  0
 12 13  1  0  0  0
 22 13  2  0  0  0
 22 21  1  0  0  0
 13 14  1  0  0  0
 21 20  2  0  0  0
 14 15  2  0  0  0
 20 15  1  0  0  0
 20 19  1  0  0  0
 15 16  1  0  0  0
 19 18  2  0  0  0
 16 17  2  0  0  0
 18 17  1  0  0  0
M  END
> <minimizedAffinity>
-8.59823

$$$$
4MSC_2ZT_A_900


 22 25  0  0  0  0  0  0  0  0999 V2000
    1.9505   13.7942   38.2995 C   0  0  0  0  0  0  0  0  0  0  0  0
    4.6120   13.4835   42.3601 C   0  0  0  0  0  0  0  0  0  0  0  0
    5.4558   12.7950   43.2256 C   0  0  0  0  0  0  0  0  0  0  0  0
    5.8370   11.4879   42.9230 C   0  0  0  0  0  0  0  0  0  0  0  0
    5.3882   10.8689   41.7536 C   0  0  0  0  0  0  0  0  0  0  0  0
    4.5483   11.5611   40.8870 C   0  0  0  0  0  0  0  0  0  0  0  0
    4.0696   10.9620   39.7238 C   0  0  0  0  0  0  0  0  0  0  0  0
    3.2233   11.6773   38.8770 C   0  0  0  0  0  0  0  0  0  0  0  0
    2.8616   12.9850   39.2033 C   0  0  0  0  0  0  0  0  0  0  0  0
    3.3350   13.5324   40.3398 N   0  0  0  0  0  0  0  0  0  0  0  0
    4.1613   12.8666   41.1847 C   0  0  0  0  0  0  0  0  0  0  0  0
    2.0987   15.2287   38.5008 O   0  0  0  0  0  0  0  0  0  0  0  0
    2.4290   16.1545   37.5953 C   0  0  0  0  0  0  0  0  0  0  0  0
    3.0939   17.3270   37.9483 C   0  0  0  0  0  0  0  0  0  0  0  0
    3.4373   18.2857   36.9908 C   0  0  0  0  0  0  0  0  0  0  0  0
    4.0789   19.4266   37.3607 N   0  0  0  0  0  0  0  0  0  0  0  0
    4.4194   20.3662   36.4360 C   0  0  0  0  0  0  0  0  0  0  0  0
    4.0991   20.1667   35.0951 C   0  0  0  0  0  0  0  0  0  0  0  0
    3.4477   19.0146   34.6980 C   0  0  0  0  0  0  0  0  0  0  0  0
    3.1134   18.0727   35.6561 C   0  0  0  0  0  0  0  0  0  0  0  0
    2.4481   16.9018   35.2997 C   0  0  0  0  0  0  0  0  0  0  0  0
    2.1176   15.9572   36.2641 C   0  0  0  0  0  0  0  0  0  0  0  0
  4  5  2  0  0  0
  4  3  1  0  0  0
  5  6  1  0  0  0
  3  2  2  0  0  0
  6  7  2  0  0  0
  6 11  1  0  0  0
  7  8  1  0  0  0
  2 11  1  0  0  0
 11 10  2  0  0  0
  8  9  2  0  0  0
 10  9  1  0  0  0
  9  1  1  0  0  0
 12  1  1  0  0  0
 12 13  1  0  0  0
 22 13  2  0  0  0
 22 21  1  0  0  0
 13 14  1  0  0  0
 21 20  2  0  0  0
 14 15  2  0  0  0
 20 15  1  0  0  0
 20 19  1  0  0  0
 15 16  1  0  0  0
 19 18  2  0  0  0
 16 17  2  0  0  0
 18 17  1  0  0  0
M  END
> <minimizedAffinity>
-8.31429

$$$$
4MSC_2ZT_A_900


 22 25  0  0  0  0  0  0  0  0999 V2000
    4.7291   10.7102   39.5213 C   0  0  0  0  0  0  0  0  0  0  0  0
    1.0750   13.4061   37.7754 C   0  0  0  0  0  0  0  0  0  0  0  0
   -0.2363   13.5614   37.3380 C   0  0  0  0  0  0  0  0  0  0  0  0
   -1.0932   12.4611   37.3223 C   0  0  0  0  0  0  0  0  0  0  0  0
   -0.6494   11.2079   37.7523 C   0  0  0  0  0  0  0  0  0  0  0  0
    0.6611   11.0559   38.1939 C   0  0  0  0  0  0  0  0  0  0  0  0
    1.1364    9.8142   38.6099 C   0  0  0  0  0  0  0  0  0  0  0  0
    2.4569    9.6898   39.0410 C   0  0  0  0  0  0  0  0  0  0  0  0
    3.2906   10.8088   39.0495 C   0  0  0  0  0  0  0  0  0  0  0  0
    2.8024   11.9937   38.6331 N   0  0  0  0  0  0  0  0  0  0  0  0
    1.5234   12.1510   38.2097 C   0  0  0  0  0  0  0  0  0  0  0  0
    5.1667   11.9070   40.2260 O   0  0  0  0  0  0  0  0  0  0  0  0
    4.9654   12.2236   41.5087 C   0  0  0  0  0  0  0  0  0  0  0  0
    4.3071   13.3925   41.8850 C   0  0  0  0  0  0  0  0  0  0  0  0
    4.0994   13.7102   43.2303 C   0  0  0  0  0  0  0  0  0  0  0  0
    3.4614   14.8614   43.5736 N   0  0  0  0  0  0  0  0  0  0  0  0
    3.2524   15.1797   44.8809 C   0  0  0  0  0  0  0  0  0  0  0  0
    3.7055   14.3249   45.8830 C   0  0  0  0  0  0  0  0  0  0  0  0
    4.3559   13.1504   45.5561 C   0  0  0  0  0  0  0  0  0  0  0  0
    4.5550   12.8472   44.2199 C   0  0  0  0  0  0  0  0  0  0  0  0
    5.2142   11.6779   43.8472 C   0  0  0  0  0  0  0  0  0  0  0  0
    5.4088   11.3756   42.5047 C   0  0  0  0  0  0  0  0  0  0  0  0
  4  5  2  0  0  0
  4  3  1  0  0  0
  5  6  1  0  0  0
  3  2  2  0  0  0
  6  7  2  0  0  0
  6 11  1  0  0  0
  7  8  1  0  0  0
  2 11  1  0  0  0
 11 10  2  0  0  0
  8  9  2  0  0  0
 10  9  1  0  0  0
  9  1  1  0  0  0
 12  1  1  0  0  0
 12 13  1  0  0  0
 22 13  2  0  0  0
 22 21  1  0  0  0
 13 14  1  0  0  0
 21 20  2  0  0  0
 14 15  2  0  0  0
 20 15  1  0  0  0
 20 19  1  0  0  0
 15 16  1  0  0  0
 19 18  2  0  0  0
 16 17  2  0  0  0
 18 17  1  0  0  0
M  END
> <minimizedAffinity>
-8.28438

$$$$
4MSC_2ZT_A_900


 22 25  0  0  0  0  0  0  0  0999 V2000
    1.2516   14.4994   37.3699 C   0  0  0  0  0  0  0  0  0  0  0  0
    3.7369   18.6796   37.2352 C   0  0  0  0  0  0  0  0  0  0  0  0
    4.2502   19.7818   36.5594 C   0  0  0  0  0  0  0  0  0  0  0  0
    4.0348   19.9116   35.1875 C   0  0  0  0  0  0  0  0  0  0  0  0
    3.2991   18.9508   34.4891 C   0  0  0  0  0  0  0  0  0  0  0  0
    2.7826   17.8517   35.1679 C   0  0  0  0  0  0  0  0  0  0  0  0
    2.0620   16.8683   34.4937 C   0  0  0  0  0  0  0  0  0  0  0  0
    1.5619   15.7737   35.1986 C   0  0  0  0  0  0  0  0  0  0  0  0
    1.7896   15.6720   36.5715 C   0  0  0  0  0  0  0  0  0  0  0  0
    2.4975   16.6359   37.1923 N   0  0  0  0  0  0  0  0  0  0  0  0
    2.9964   17.7146   36.5385 C   0  0  0  0  0  0  0  0  0  0  0  0
    2.2819   13.5186   37.6806 O   0  0  0  0  0  0  0  0  0  0  0  0
    2.9016   13.3213   38.8482 C   0  0  0  0  0  0  0  0  0  0  0  0
    2.9138   14.2901   39.8495 C   0  0  0  0  0  0  0  0  0  0  0  0
    3.5623   14.0697   41.0679 C   0  0  0  0  0  0  0  0  0  0  0  0
    3.5678   15.0340   42.0273 N   0  0  0  0  0  0  0  0  0  0  0  0
    4.1951   14.8290   43.2183 C   0  0  0  0  0  0  0  0  0  0  0  0
    4.8502   13.6233   43.4579 C   0  0  0  0  0  0  0  0  0  0  0  0
    4.8567   12.6305   42.4969 C   0  0  0  0  0  0  0  0  0  0  0  0
    4.2104   12.8612   41.2944 C   0  0  0  0  0  0  0  0  0  0  0  0
    4.2007   11.8905   40.2952 C   0  0  0  0  0  0  0  0  0  0  0  0
    3.5477   12.1248   39.0909 C   0  0  0  0  0  0  0  0  0  0  0  0
  4  5  2  0  0  0
  4  3  1  0  0  0
  5  6  1  0  0  0
  3  2  2  0  0  0
  6  7  2  0  0  0
  6 11  1  0  0  0
  7  8  1  0  0  0
  2 11  1  0  0  0
 11 10  2  0  0  0
  8  9  2  0  0  0
 10  9  1  0  0  0
  9  1  1  0  0  0
 12  1  1  0  0  0
 12 13  1  0  0  0
 22 13  2  0  0  0
 22 21  1  0  0  0
 13 14  1  0  0  0
 21 20  2  0  0  0
 14 15  2  0  0  0
 20 15  1  0  0  0
 20 19  1  0  0  0
 15 16  1  0  0  0
 19 18  2  0  0  0
 16 17  2  0  0  0
 18 17  1  0  0  0
M  END
> <minimizedAffinity>
-8.23910

$$$$
