5J6M_6FJ_A_301


 34 37  0  0  0  0  0  0  0  0999 V2000
   -0.1680   32.6106   26.3431 C   0  0  0  0  0  0  0  0  0  0  0  0
   -1.4883   32.9411   25.9926 C   0  0  0  0  0  0  0  0  0  0  0  0
    0.9065   32.9792   25.5101 C   0  0  0  0  0  0  0  0  0  0  0  0
   -1.7207   33.6014   24.7757 C   0  0  0  0  0  0  0  0  0  0  0  0
   -0.6416   33.9805   23.9517 C   0  0  0  0  0  0  0  0  0  0  0  0
    0.6631   33.6015   24.2856 C   0  0  0  0  0  0  0  0  0  0  0  0
   -2.9848   33.9301   24.3886 O   0  0  0  0  0  0  0  0  0  0  0  0
    0.1261   31.9981   27.5045 O   0  0  0  0  0  0  0  0  0  0  0  0
   -3.1256   34.3708   23.5737 H   0  0  0  0  0  0  0  0  0  0  0  0
    1.0157   31.7896   27.7121 H   0  0  0  0  0  0  0  0  0  0  0  0
   -0.8607   34.7552   22.7124 C   0  0  0  0  0  0  0  0  0  0  0  0
   -0.8131   36.4613   21.3127 C   0  0  0  0  0  0  0  0  0  0  0  0
   -1.5118   34.3705   21.6542 N   0  0  0  0  0  0  0  0  0  0  0  0
   -0.4040   36.0554   22.5362 N   0  0  0  0  0  0  0  0  0  0  0  0
   -1.4822   35.4275   20.7317 N   0  0  0  0  0  0  0  0  0  0  0  0
   -0.5910   37.5682   20.8303 O   0  0  0  0  0  0  0  0  0  0  0  0
   -1.8740   35.4225   19.8285 H   0  0  0  0  0  0  0  0  0  0  0  0
   -0.2892   37.5669   24.4681 C   0  0  0  0  0  0  0  0  0  0  0  0
    0.3496   36.8201   23.4734 C   0  0  0  0  0  0  0  0  0  0  0  0
    1.8633   38.2676   25.3208 C   0  0  0  0  0  0  0  0  0  0  0  0
    1.7479   36.7964   23.4191 C   0  0  0  0  0  0  0  0  0  0  0  0
    2.5128   37.5068   24.3473 C   0  0  0  0  0  0  0  0  0  0  0  0
    0.4694   38.2838   25.3928 C   0  0  0  0  0  0  0  0  0  0  0  0
    2.3348   36.0691   22.4470 F   0  0  0  0  0  0  0  0  0  0  0  0
    2.3208   32.6063   25.7330 C   0  0  0  0  0  0  0  0  0  0  0  0
    2.7611   31.3846   25.2927 N   0  0  0  0  0  0  0  0  0  0  0  0
    3.0892   33.4607   26.1744 O   0  0  0  0  0  0  0  0  0  0  0  0
    1.8492   30.3406   24.8033 C   0  0  0  0  0  0  0  0  0  0  0  0
    4.1896   31.0235   25.3427 C   0  0  0  0  0  0  0  0  0  0  0  0
    4.6441   30.7704   23.9207 C   0  0  0  0  0  0  0  0  0  0  0  0
    5.3491   29.7029   23.4869 C   0  0  0  0  0  0  0  0  0  0  0  0
    4.3504   31.5565   22.8775 O   0  0  0  0  0  0  0  0  0  0  0  0
    4.9010   31.0116   21.7612 C   0  0  0  0  0  0  0  0  0  0  0  0
    5.5313   29.8652   22.0839 C   0  0  0  0  0  0  0  0  0  0  0  0
 15 12  1  0  0  0
 15 13  1  0  0  0
 16 12  2  0  0  0
 12 14  1  0  0  0
 13 11  2  0  0  0
 14 11  1  0  0  0
 14 19  1  0  0  0
 11  5  1  0  0  0
 33 34  2  0  0  0
 33 32  1  0  0  0
 24 21  1  0  0  0
 34 31  1  0  0  0
 19 21  2  0  0  0
 19 18  1  0  0  0
 32 30  1  0  0  0
  5  6  2  0  0  0
  5  4  1  0  0  0
  7  4  1  0  0  0
 21 22  1  0  0  0
 31 30  2  0  0  0
  6  3  1  0  0  0
  4  2  2  0  0  0
 18 23  2  0  0  0
 30 29  1  0  0  0
 22 20  2  0  0  0
 28 26  1  0  0  0
  3 25  1  0  0  0
  3  1  2  0  0  0
  2  1  1  0  0  0
 26 29  1  0  0  0
 26 25  1  0  0  0
 23 20  1  0  0  0
 25 27  2  0  0  0
  1  8  1  0  0  0
  7  9  1  0  0  0
  8 10  1  0  0  0
 15 17  1  0  0  0
M  END
> <minimizedAffinity>
-10.36717

$$$$
5J6M_6FJ_A_301


 34 37  0  0  0  0  0  0  0  0999 V2000
   -0.1917   35.4840   22.0534 C   0  0  0  0  0  0  0  0  0  0  0  0
   -1.3741   34.7255   22.0943 C   0  0  0  0  0  0  0  0  0  0  0  0
    0.6707   35.5245   23.1665 C   0  0  0  0  0  0  0  0  0  0  0  0
   -1.7041   34.0493   23.2795 C   0  0  0  0  0  0  0  0  0  0  0  0
   -0.8318   34.0814   24.3863 C   0  0  0  0  0  0  0  0  0  0  0  0
    0.3163   34.8804   24.3519 C   0  0  0  0  0  0  0  0  0  0  0  0
   -2.8465   33.3126   23.3697 O   0  0  0  0  0  0  0  0  0  0  0  0
    0.1944   36.1376   20.9424 O   0  0  0  0  0  0  0  0  0  0  0  0
   -3.0545   32.8663   24.1669 H   0  0  0  0  0  0  0  0  0  0  0  0
    0.9879   36.6359   20.9439 H   0  0  0  0  0  0  0  0  0  0  0  0
   -1.1186   33.3029   25.6094 C   0  0  0  0  0  0  0  0  0  0  0  0
   -0.7977   31.8953   27.2791 C   0  0  0  0  0  0  0  0  0  0  0  0
   -2.2448   33.2517   26.2580 N   0  0  0  0  0  0  0  0  0  0  0  0
   -0.1869   32.4721   26.2192 N   0  0  0  0  0  0  0  0  0  0  0  0
   -2.0688   32.3792   27.3429 N   0  0  0  0  0  0  0  0  0  0  0  0
   -0.2685   31.0923   28.0422 O   0  0  0  0  0  0  0  0  0  0  0  0
   -2.7422   32.1572   28.0260 H   0  0  0  0  0  0  0  0  0  0  0  0
    2.1834   33.1136   26.2279 C   0  0  0  0  0  0  0  0  0  0  0  0
    1.1594   32.2625   25.8012 C   0  0  0  0  0  0  0  0  0  0  0  0
    3.7922   31.7902   24.9983 C   0  0  0  0  0  0  0  0  0  0  0  0
    1.4661   31.1710   24.9807 C   0  0  0  0  0  0  0  0  0  0  0  0
    2.7821   30.9198   24.5853 C   0  0  0  0  0  0  0  0  0  0  0  0
    3.4979   32.8716   25.8303 C   0  0  0  0  0  0  0  0  0  0  0  0
    0.4567   30.3698   24.5836 F   0  0  0  0  0  0  0  0  0  0  0  0
    1.8892   36.3576   23.2671 C   0  0  0  0  0  0  0  0  0  0  0  0
    1.9696   37.2960   24.2637 N   0  0  0  0  0  0  0  0  0  0  0  0
    2.8480   36.0824   22.5458 O   0  0  0  0  0  0  0  0  0  0  0  0
    0.8204   37.6638   25.1034 C   0  0  0  0  0  0  0  0  0  0  0  0
    3.2166   38.0422   24.5121 C   0  0  0  0  0  0  0  0  0  0  0  0
    4.1098   37.1638   25.3626 C   0  0  0  0  0  0  0  0  0  0  0  0
    5.2460   36.5544   24.9597 C   0  0  0  0  0  0  0  0  0  0  0  0
    3.9182   36.9197   26.6650 O   0  0  0  0  0  0  0  0  0  0  0  0
    4.9214   36.1146   27.1028 C   0  0  0  0  0  0  0  0  0  0  0  0
    5.7683   35.8578   26.0867 C   0  0  0  0  0  0  0  0  0  0  0  0
 15 12  1  0  0  0
 15 13  1  0  0  0
 16 12  2  0  0  0
 12 14  1  0  0  0
 13 11  2  0  0  0
 14 11  1  0  0  0
 14 19  1  0  0  0
 11  5  1  0  0  0
 33 34  2  0  0  0
 33 32  1  0  0  0
 24 21  1  0  0  0
 34 31  1  0  0  0
 19 21  2  0  0  0
 19 18  1  0  0  0
 32 30  1  0  0  0
  5  6  2  0  0  0
  5  4  1  0  0  0
  7  4  1  0  0  0
 21 22  1  0  0  0
 31 30  2  0  0  0
  6  3  1  0  0  0
  4  2  2  0  0  0
 18 23  2  0  0  0
 30 29  1  0  0  0
 22 20  2  0  0  0
 28 26  1  0  0  0
  3 25  1  0  0  0
  3  1  2  0  0  0
  2  1  1  0  0  0
 26 29  1  0  0  0
 26 25  1  0  0  0
 23 20  1  0  0  0
 25 27  2  0  0  0
  1  8  1  0  0  0
  7  9  1  0  0  0
  8 10  1  0  0  0
 15 17  1  0  0  0
M  END
> <minimizedAffinity>
-9.16318

$$$$
5J6M_6FJ_A_301


 34 37  0  0  0  0  0  0  0  0999 V2000
   -0.0964   35.5235   22.0832 C   0  0  0  0  0  0  0  0  0  0  0  0
   -1.2911   34.7833   22.0858 C   0  0  0  0  0  0  0  0  0  0  0  0
    0.7377   35.5389   23.2182 C   0  0  0  0  0  0  0  0  0  0  0  0
   -1.6617   34.1001   23.2549 C   0  0  0  0  0  0  0  0  0  0  0  0
   -0.8176   34.1070   24.3839 C   0  0  0  0  0  0  0  0  0  0  0  0
    0.3432   34.8882   24.3873 C   0  0  0  0  0  0  0  0  0  0  0  0
   -2.8173   33.3805   23.3081 O   0  0  0  0  0  0  0  0  0  0  0  0
    0.3280   36.1825   20.9895 O   0  0  0  0  0  0  0  0  0  0  0  0
   -3.0524   32.9293   24.0949 H   0  0  0  0  0  0  0  0  0  0  0  0
    1.1288   36.6682   21.0165 H   0  0  0  0  0  0  0  0  0  0  0  0
   -1.1475   33.3205   25.5908 C   0  0  0  0  0  0  0  0  0  0  0  0
   -0.8980   31.8776   27.2424 C   0  0  0  0  0  0  0  0  0  0  0  0
   -2.2836   33.2984   26.2237 N   0  0  0  0  0  0  0  0  0  0  0  0
   -0.2533   32.4489   26.1997 N   0  0  0  0  0  0  0  0  0  0  0  0
   -2.1525   32.4040   27.2970 N   0  0  0  0  0  0  0  0  0  0  0  0
   -0.4071   31.0454   27.9998 O   0  0  0  0  0  0  0  0  0  0  0  0
   -2.8423   32.1952   27.9677 H   0  0  0  0  0  0  0  0  0  0  0  0
    2.1356   33.0158   26.2392 C   0  0  0  0  0  0  0  0  0  0  0  0
    1.0905   32.1993   25.7962 C   0  0  0  0  0  0  0  0  0  0  0  0
    3.7165   31.6487   25.0213 C   0  0  0  0  0  0  0  0  0  0  0  0
    1.3725   31.1029   24.9734 C   0  0  0  0  0  0  0  0  0  0  0  0
    2.6846   30.8125   24.5919 C   0  0  0  0  0  0  0  0  0  0  0  0
    3.4465   32.7348   25.8555 C   0  0  0  0  0  0  0  0  0  0  0  0
    0.3433   30.3356   24.5604 F   0  0  0  0  0  0  0  0  0  0  0  0
    1.9659   36.3518   23.3588 C   0  0  0  0  0  0  0  0  0  0  0  0
    1.8678   37.6153   23.8822 N   0  0  0  0  0  0  0  0  0  0  0  0
    3.0516   35.8153   23.1380 O   0  0  0  0  0  0  0  0  0  0  0  0
    0.5781   38.2828   24.1106 C   0  0  0  0  0  0  0  0  0  0  0  0
    3.0704   38.4092   24.1936 C   0  0  0  0  0  0  0  0  0  0  0  0
    3.6671   38.8646   22.8786 C   0  0  0  0  0  0  0  0  0  0  0  0
    4.9805   38.8862   22.5637 C   0  0  0  0  0  0  0  0  0  0  0  0
    2.9538   39.2569   21.8156 O   0  0  0  0  0  0  0  0  0  0  0  0
    3.8154   39.5701   20.8127 C   0  0  0  0  0  0  0  0  0  0  0  0
    5.0810   39.3599   21.2245 C   0  0  0  0  0  0  0  0  0  0  0  0
 15 12  1  0  0  0
 15 13  1  0  0  0
 16 12  2  0  0  0
 12 14  1  0  0  0
 13 11  2  0  0  0
 14 11  1  0  0  0
 14 19  1  0  0  0
 11  5  1  0  0  0
 33 34  2  0  0  0
 33 32  1  0  0  0
 24 21  1  0  0  0
 34 31  1  0  0  0
 19 21  2  0  0  0
 19 18  1  0  0  0
 32 30  1  0  0  0
  5  6  2  0  0  0
  5  4  1  0  0  0
  7  4  1  0  0  0
 21 22  1  0  0  0
 31 30  2  0  0  0
  6  3  1  0  0  0
  4  2  2  0  0  0
 18 23  2  0  0  0
 30 29  1  0  0  0
 22 20  2  0  0  0
 28 26  1  0  0  0
  3 25  1  0  0  0
  3  1  2  0  0  0
  2  1  1  0  0  0
 26 29  1  0  0  0
 26 25  1  0  0  0
 23 20  1  0  0  0
 25 27  2  0  0  0
  1  8  1  0  0  0
  7  9  1  0  0  0
  8 10  1  0  0  0
 15 17  1  0  0  0
M  END
> <minimizedAffinity>
-8.90594

$$$$
5J6M_6FJ_A_301


 34 37  0  0  0  0  0  0  0  0999 V2000
    0.5107   36.3446   22.0907 C   0  0  0  0  0  0  0  0  0  0  0  0
   -0.3805   35.3293   21.7034 C   0  0  0  0  0  0  0  0  0  0  0  0
    0.8479   36.5209   23.4470 C   0  0  0  0  0  0  0  0  0  0  0  0
   -0.9653   34.5267   22.6958 C   0  0  0  0  0  0  0  0  0  0  0  0
   -0.6147   34.6976   24.0505 C   0  0  0  0  0  0  0  0  0  0  0  0
    0.2337   35.7438   24.4291 C   0  0  0  0  0  0  0  0  0  0  0  0
   -1.8446   33.5391   22.3686 O   0  0  0  0  0  0  0  0  0  0  0  0
    1.1226   37.1340   21.1891 O   0  0  0  0  0  0  0  0  0  0  0  0
   -2.2275   33.0108   23.0411 H   0  0  0  0  0  0  0  0  0  0  0  0
    1.7123   37.8033   21.4761 H   0  0  0  0  0  0  0  0  0  0  0  0
   -1.1508   33.8037   25.0981 C   0  0  0  0  0  0  0  0  0  0  0  0
   -1.1994   32.1917   26.6052 C   0  0  0  0  0  0  0  0  0  0  0  0
   -2.3751   33.7565   25.5349 N   0  0  0  0  0  0  0  0  0  0  0  0
   -0.3834   32.8439   25.7461 N   0  0  0  0  0  0  0  0  0  0  0  0
   -2.4365   32.7531   26.5139 N   0  0  0  0  0  0  0  0  0  0  0  0
   -0.8533   31.2698   27.3384 O   0  0  0  0  0  0  0  0  0  0  0  0
   -3.2299   32.5008   27.0393 H   0  0  0  0  0  0  0  0  0  0  0  0
    1.9769   33.4102   26.1183 C   0  0  0  0  0  0  0  0  0  0  0  0
    1.0036   32.5904   25.5388 C   0  0  0  0  0  0  0  0  0  0  0  0
    3.7119   32.0322   25.1477 C   0  0  0  0  0  0  0  0  0  0  0  0
    1.3974   31.4868   24.7734 C   0  0  0  0  0  0  0  0  0  0  0  0
    2.7498   31.1927   24.5838 C   0  0  0  0  0  0  0  0  0  0  0  0
    3.3283   33.1254   25.9262 C   0  0  0  0  0  0  0  0  0  0  0  0
    0.4358   30.7164   24.2255 F   0  0  0  0  0  0  0  0  0  0  0  0
    1.6997   37.6089   23.9760 C   0  0  0  0  0  0  0  0  0  0  0  0
    3.0265   37.3562   24.2123 N   0  0  0  0  0  0  0  0  0  0  0  0
    1.2243   38.7421   24.0487 O   0  0  0  0  0  0  0  0  0  0  0  0
    3.5971   36.0021   24.1703 C   0  0  0  0  0  0  0  0  0  0  0  0
    3.9559   38.4378   24.5860 C   0  0  0  0  0  0  0  0  0  0  0  0
    5.2862   38.1418   23.9260 C   0  0  0  0  0  0  0  0  0  0  0  0
    6.4241   37.7748   24.5546 C   0  0  0  0  0  0  0  0  0  0  0  0
    5.4968   38.1477   22.6039 O   0  0  0  0  0  0  0  0  0  0  0  0
    6.7943   37.8158   22.3746 C   0  0  0  0  0  0  0  0  0  0  0  0
    7.4119   37.5770   23.5481 C   0  0  0  0  0  0  0  0  0  0  0  0
 15 12  1  0  0  0
 15 13  1  0  0  0
 16 12  2  0  0  0
 12 14  1  0  0  0
 13 11  2  0  0  0
 14 11  1  0  0  0
 14 19  1  0  0  0
 11  5  1  0  0  0
 33 34  2  0  0  0
 33 32  1  0  0  0
 24 21  1  0  0  0
 34 31  1  0  0  0
 19 21  2  0  0  0
 19 18  1  0  0  0
 32 30  1  0  0  0
  5  6  2  0  0  0
  5  4  1  0  0  0
  7  4  1  0  0  0
 21 22  1  0  0  0
 31 30  2  0  0  0
  6  3  1  0  0  0
  4  2  2  0  0  0
 18 23  2  0  0  0
 30 29  1  0  0  0
 22 20  2  0  0  0
 28 26  1  0  0  0
  3 25  1  0  0  0
  3  1  2  0  0  0
  2  1  1  0  0  0
 26 29  1  0  0  0
 26 25  1  0  0  0
 23 20  1  0  0  0
 25 27  2  0  0  0
  1  8  1  0  0  0
  7  9  1  0  0  0
  8 10  1  0  0  0
 15 17  1  0  0  0
M  END
> <minimizedAffinity>
-8.30531

$$$$
5J6M_6FJ_A_301


 34 37  0  0  0  0  0  0  0  0999 V2000
   -0.2663   37.1986   20.7915 C   0  0  0  0  0  0  0  0  0  0  0  0
    0.3103   37.4731   19.5396 C   0  0  0  0  0  0  0  0  0  0  0  0
    0.5280   36.7346   21.8583 C   0  0  0  0  0  0  0  0  0  0  0  0
    1.6811   37.2306   19.3577 C   0  0  0  0  0  0  0  0  0  0  0  0
    2.4749   36.7793   20.4316 C   0  0  0  0  0  0  0  0  0  0  0  0
    1.8811   36.4610   21.6579 C   0  0  0  0  0  0  0  0  0  0  0  0
    2.2806   37.4695   18.1579 O   0  0  0  0  0  0  0  0  0  0  0  0
   -1.5686   37.4294   21.0393 O   0  0  0  0  0  0  0  0  0  0  0  0
    3.1964   37.3032   18.0504 H   0  0  0  0  0  0  0  0  0  0  0  0
   -1.9261   37.2367   21.8837 H   0  0  0  0  0  0  0  0  0  0  0  0
    3.9350   36.6050   20.2834 C   0  0  0  0  0  0  0  0  0  0  0  0
    6.0845   37.1057   20.3187 C   0  0  0  0  0  0  0  0  0  0  0  0
    4.5546   35.5639   19.8103 N   0  0  0  0  0  0  0  0  0  0  0  0
    4.8571   37.5892   20.6171 N   0  0  0  0  0  0  0  0  0  0  0  0
    5.9299   35.8408   19.8390 N   0  0  0  0  0  0  0  0  0  0  0  0
    7.1371   37.7170   20.4786 O   0  0  0  0  0  0  0  0  0  0  0  0
    6.6519   35.2313   19.5625 H   0  0  0  0  0  0  0  0  0  0  0  0
    4.3512   39.9754   20.3342 C   0  0  0  0  0  0  0  0  0  0  0  0
    4.5629   38.8712   21.1656 C   0  0  0  0  0  0  0  0  0  0  0  0
    3.9416   41.3566   22.2774 C   0  0  0  0  0  0  0  0  0  0  0  0
    4.4507   39.0200   22.5526 C   0  0  0  0  0  0  0  0  0  0  0  0
    4.1273   40.2565   23.1164 C   0  0  0  0  0  0  0  0  0  0  0  0
    4.0351   41.2137   20.8921 C   0  0  0  0  0  0  0  0  0  0  0  0
    4.6630   37.9375   23.3282 F   0  0  0  0  0  0  0  0  0  0  0  0
    0.0151   36.3289   23.1855 C   0  0  0  0  0  0  0  0  0  0  0  0
   -0.6010   35.1106   23.3135 N   0  0  0  0  0  0  0  0  0  0  0  0
    0.2868   37.0324   24.1584 O   0  0  0  0  0  0  0  0  0  0  0  0
   -0.9688   34.2808   22.1572 C   0  0  0  0  0  0  0  0  0  0  0  0
   -0.9882   34.5850   24.6354 C   0  0  0  0  0  0  0  0  0  0  0  0
    0.0876   33.6123   25.0703 C   0  0  0  0  0  0  0  0  0  0  0  0
   -0.0094   32.2650   25.0731 C   0  0  0  0  0  0  0  0  0  0  0  0
    1.3189   33.9651   25.4601 O   0  0  0  0  0  0  0  0  0  0  0  0
    2.0162   32.8363   25.7528 C   0  0  0  0  0  0  0  0  0  0  0  0
    1.2397   31.7575   25.5319 C   0  0  0  0  0  0  0  0  0  0  0  0
 15 12  1  0  0  0
 15 13  1  0  0  0
 16 12  2  0  0  0
 12 14  1  0  0  0
 13 11  2  0  0  0
 14 11  1  0  0  0
 14 19  1  0  0  0
 11  5  1  0  0  0
 33 34  2  0  0  0
 33 32  1  0  0  0
 24 21  1  0  0  0
 34 31  1  0  0  0
 19 21  2  0  0  0
 19 18  1  0  0  0
 32 30  1  0  0  0
  5  6  2  0  0  0
  5  4  1  0  0  0
  7  4  1  0  0  0
 21 22  1  0  0  0
 31 30  2  0  0  0
  6  3  1  0  0  0
  4  2  2  0  0  0
 18 23  2  0  0  0
 30 29  1  0  0  0
 22 20  2  0  0  0
 28 26  1  0  0  0
  3 25  1  0  0  0
  3  1  2  0  0  0
  2  1  1  0  0  0
 26 29  1  0  0  0
 26 25  1  0  0  0
 23 20  1  0  0  0
 25 27  2  0  0  0
  1  8  1  0  0  0
  7  9  1  0  0  0
  8 10  1  0  0  0
 15 17  1  0  0  0
M  END
> <minimizedAffinity>
-8.18874

$$$$
5J6M_6FJ_A_301


 34 37  0  0  0  0  0  0  0  0999 V2000
    3.7018   36.6287   25.5128 C   0  0  0  0  0  0  0  0  0  0  0  0
    3.2395   37.8529   25.0002 C   0  0  0  0  0  0  0  0  0  0  0  0
    3.4861   35.4300   24.8052 C   0  0  0  0  0  0  0  0  0  0  0  0
    2.5176   37.8533   23.7961 C   0  0  0  0  0  0  0  0  0  0  0  0
    2.3157   36.6535   23.0843 C   0  0  0  0  0  0  0  0  0  0  0  0
    2.7357   35.4352   23.6293 C   0  0  0  0  0  0  0  0  0  0  0  0
    2.0388   39.0143   23.2680 O   0  0  0  0  0  0  0  0  0  0  0  0
    4.4187   36.5605   26.6495 O   0  0  0  0  0  0  0  0  0  0  0  0
    1.5586   39.0000   22.4635 H   0  0  0  0  0  0  0  0  0  0  0  0
    4.7140   35.7302   26.9680 H   0  0  0  0  0  0  0  0  0  0  0  0
    1.6371   36.6476   21.7715 C   0  0  0  0  0  0  0  0  0  0  0  0
    1.3470   36.9186   19.6002 C   0  0  0  0  0  0  0  0  0  0  0  0
    0.3919   36.3550   21.5358 N   0  0  0  0  0  0  0  0  0  0  0  0
    2.2694   37.0006   20.5858 N   0  0  0  0  0  0  0  0  0  0  0  0
    0.1780   36.4963   20.1561 N   0  0  0  0  0  0  0  0  0  0  0  0
    1.5596   37.1709   18.4177 O   0  0  0  0  0  0  0  0  0  0  0  0
   -0.6643   36.3218   19.6772 H   0  0  0  0  0  0  0  0  0  0  0  0
    4.0314   38.7104   20.6312 C   0  0  0  0  0  0  0  0  0  0  0  0
    3.6341   37.3837   20.4380 C   0  0  0  0  0  0  0  0  0  0  0  0
    6.3255   38.0854   20.1858 C   0  0  0  0  0  0  0  0  0  0  0  0
    4.5944   36.4137   20.1291 C   0  0  0  0  0  0  0  0  0  0  0  0
    5.9445   36.7536   20.0141 C   0  0  0  0  0  0  0  0  0  0  0  0
    5.3768   39.0565   20.5105 C   0  0  0  0  0  0  0  0  0  0  0  0
    4.1802   35.1434   19.9462 F   0  0  0  0  0  0  0  0  0  0  0  0
    3.8466   34.0799   25.2913 C   0  0  0  0  0  0  0  0  0  0  0  0
    2.9295   33.0671   25.1751 N   0  0  0  0  0  0  0  0  0  0  0  0
    5.0067   33.8769   25.6494 O   0  0  0  0  0  0  0  0  0  0  0  0
    1.5305   33.3025   24.7897 C   0  0  0  0  0  0  0  0  0  0  0  0
    3.2864   31.6726   25.4933 C   0  0  0  0  0  0  0  0  0  0  0  0
    3.9332   31.0768   24.2606 C   0  0  0  0  0  0  0  0  0  0  0  0
    4.3166   29.7911   24.1036 C   0  0  0  0  0  0  0  0  0  0  0  0
    4.1599   31.7450   23.1228 O   0  0  0  0  0  0  0  0  0  0  0  0
    4.7289   30.8927   22.2307 C   0  0  0  0  0  0  0  0  0  0  0  0
    4.8494   29.6720   22.7883 C   0  0  0  0  0  0  0  0  0  0  0  0
 15 12  1  0  0  0
 15 13  1  0  0  0
 16 12  2  0  0  0
 12 14  1  0  0  0
 13 11  2  0  0  0
 14 11  1  0  0  0
 14 19  1  0  0  0
 11  5  1  0  0  0
 33 34  2  0  0  0
 33 32  1  0  0  0
 24 21  1  0  0  0
 34 31  1  0  0  0
 19 21  2  0  0  0
 19 18  1  0  0  0
 32 30  1  0  0  0
  5  6  2  0  0  0
  5  4  1  0  0  0
  7  4  1  0  0  0
 21 22  1  0  0  0
 31 30  2  0  0  0
  6  3  1  0  0  0
  4  2  2  0  0  0
 18 23  2  0  0  0
 30 29  1  0  0  0
 22 20  2  0  0  0
 28 26  1  0  0  0
  3 25  1  0  0  0
  3  1  2  0  0  0
  2  1  1  0  0  0
 26 29  1  0  0  0
 26 25  1  0  0  0
 23 20  1  0  0  0
 25 27  2  0  0  0
  1  8  1  0  0  0
  7  9  1  0  0  0
  8 10  1  0  0  0
 15 17  1  0  0  0
M  END
> <minimizedAffinity>
-7.93685

$$$$
5J6M_6FJ_A_301


 34 37  0  0  0  0  0  0  0  0999 V2000
    0.2588   36.3149   23.1981 C   0  0  0  0  0  0  0  0  0  0  0  0
    0.1849   37.0179   21.9834 C   0  0  0  0  0  0  0  0  0  0  0  0
    1.4665   35.7144   23.6044 C   0  0  0  0  0  0  0  0  0  0  0  0
    1.3213   37.0692   21.1606 C   0  0  0  0  0  0  0  0  0  0  0  0
    2.5316   36.4785   21.5772 C   0  0  0  0  0  0  0  0  0  0  0  0
    2.5793   35.7384   22.7636 C   0  0  0  0  0  0  0  0  0  0  0  0
    1.2926   37.7279   19.9685 O   0  0  0  0  0  0  0  0  0  0  0  0
   -0.7861   36.2459   24.0430 O   0  0  0  0  0  0  0  0  0  0  0  0
    2.0584   37.7543   19.4292 H   0  0  0  0  0  0  0  0  0  0  0  0
   -0.7084   35.7699   24.8464 H   0  0  0  0  0  0  0  0  0  0  0  0
    3.7611   36.6001   20.7663 C   0  0  0  0  0  0  0  0  0  0  0  0
    5.6285   37.4683   19.9717 C   0  0  0  0  0  0  0  0  0  0  0  0
    4.1694   35.7863   19.8375 N   0  0  0  0  0  0  0  0  0  0  0  0
    4.6489   37.6623   20.8838 N   0  0  0  0  0  0  0  0  0  0  0  0
    5.3706   36.2987   19.3241 N   0  0  0  0  0  0  0  0  0  0  0  0
    6.5800   38.2232   19.7929 O   0  0  0  0  0  0  0  0  0  0  0  0
    5.9260   35.8872   18.6230 H   0  0  0  0  0  0  0  0  0  0  0  0
    4.0119   39.9814   21.3798 C   0  0  0  0  0  0  0  0  0  0  0  0
    4.5428   38.7553   21.7922 C   0  0  0  0  0  0  0  0  0  0  0  0
    4.3073   40.8580   23.6149 C   0  0  0  0  0  0  0  0  0  0  0  0
    4.9432   38.5891   23.1228 C   0  0  0  0  0  0  0  0  0  0  0  0
    4.8166   39.6314   24.0443 C   0  0  0  0  0  0  0  0  0  0  0  0
    3.8900   41.0275   22.2937 C   0  0  0  0  0  0  0  0  0  0  0  0
    5.4536   37.3961   23.4898 F   0  0  0  0  0  0  0  0  0  0  0  0
    1.6345   34.8772   24.8127 C   0  0  0  0  0  0  0  0  0  0  0  0
    1.0174   33.6537   24.8620 N   0  0  0  0  0  0  0  0  0  0  0  0
    2.4386   35.2418   25.6705 O   0  0  0  0  0  0  0  0  0  0  0  0
    0.0239   33.2243   23.8672 C   0  0  0  0  0  0  0  0  0  0  0  0
    1.2758   32.7112   25.9658 C   0  0  0  0  0  0  0  0  0  0  0  0
    2.3961   31.7926   25.5256 C   0  0  0  0  0  0  0  0  0  0  0  0
    2.2566   30.5357   25.0506 C   0  0  0  0  0  0  0  0  0  0  0  0
    3.6904   32.1334   25.4934 O   0  0  0  0  0  0  0  0  0  0  0  0
    4.4016   31.0741   25.0262 C   0  0  0  0  0  0  0  0  0  0  0  0
    3.5622   30.0598   24.7393 C   0  0  0  0  0  0  0  0  0  0  0  0
 15 12  1  0  0  0
 15 13  1  0  0  0
 16 12  2  0  0  0
 12 14  1  0  0  0
 13 11  2  0  0  0
 14 11  1  0  0  0
 14 19  1  0  0  0
 11  5  1  0  0  0
 33 34  2  0  0  0
 33 32  1  0  0  0
 24 21  1  0  0  0
 34 31  1  0  0  0
 19 21  2  0  0  0
 19 18  1  0  0  0
 32 30  1  0  0  0
  5  6  2  0  0  0
  5  4  1  0  0  0
  7  4  1  0  0  0
 21 22  1  0  0  0
 31 30  2  0  0  0
  6  3  1  0  0  0
  4  2  2  0  0  0
 18 23  2  0  0  0
 30 29  1  0  0  0
 22 20  2  0  0  0
 28 26  1  0  0  0
  3 25  1  0  0  0
  3  1  2  0  0  0
  2  1  1  0  0  0
 26 29  1  0  0  0
 26 25  1  0  0  0
 23 20  1  0  0  0
 25 27  2  0  0  0
  1  8  1  0  0  0
  7  9  1  0  0  0
  8 10  1  0  0  0
 15 17  1  0  0  0
M  END
> <minimizedAffinity>
-7.82934

$$$$
5J6M_6FJ_A_301


 34 37  0  0  0  0  0  0  0  0999 V2000
    3.2767   36.5221   24.6680 C   0  0  0  0  0  0  0  0  0  0  0  0
    3.3260   37.8528   24.2186 C   0  0  0  0  0  0  0  0  0  0  0  0
    2.7328   35.5113   23.8516 C   0  0  0  0  0  0  0  0  0  0  0  0
    2.7801   38.1641   22.9632 C   0  0  0  0  0  0  0  0  0  0  0  0
    2.2490   37.1475   22.1437 C   0  0  0  0  0  0  0  0  0  0  0  0
    2.1589   35.8358   22.6223 C   0  0  0  0  0  0  0  0  0  0  0  0
    2.7936   39.4423   22.4920 O   0  0  0  0  0  0  0  0  0  0  0  0
    3.8015   36.1523   25.8506 O   0  0  0  0  0  0  0  0  0  0  0  0
    2.4257   39.6359   21.6523 H   0  0  0  0  0  0  0  0  0  0  0  0
    3.7542   35.2576   26.1249 H   0  0  0  0  0  0  0  0  0  0  0  0
    1.7526   37.4426   20.7833 C   0  0  0  0  0  0  0  0  0  0  0  0
    1.8027   37.9651   18.6393 C   0  0  0  0  0  0  0  0  0  0  0  0
    0.5111   37.5326   20.4060 N   0  0  0  0  0  0  0  0  0  0  0  0
    2.5911   37.7016   19.7063 N   0  0  0  0  0  0  0  0  0  0  0  0
    0.5064   37.8434   19.0376 N   0  0  0  0  0  0  0  0  0  0  0  0
    2.2126   38.2456   17.5166 O   0  0  0  0  0  0  0  0  0  0  0  0
   -0.2896   37.9534   18.4688 H   0  0  0  0  0  0  0  0  0  0  0  0
    4.7362   38.8922   19.8111 C   0  0  0  0  0  0  0  0  0  0  0  0
    4.0161   37.6967   19.7249 C   0  0  0  0  0  0  0  0  0  0  0  0
    6.8071   37.6420   19.8070 C   0  0  0  0  0  0  0  0  0  0  0  0
    4.7032   36.4780   19.6911 C   0  0  0  0  0  0  0  0  0  0  0  0
    6.0986   36.4408   19.7451 C   0  0  0  0  0  0  0  0  0  0  0  0
    6.1295   38.8613   19.8580 C   0  0  0  0  0  0  0  0  0  0  0  0
    3.9812   35.3423   19.6054 F   0  0  0  0  0  0  0  0  0  0  0  0
    2.5476   34.1003   24.2562 C   0  0  0  0  0  0  0  0  0  0  0  0
    1.2782   33.6416   24.4982 N   0  0  0  0  0  0  0  0  0  0  0  0
    3.5216   33.3483   24.2210 O   0  0  0  0  0  0  0  0  0  0  0  0
    0.1138   34.5346   24.5849 C   0  0  0  0  0  0  0  0  0  0  0  0
    1.0166   32.2123   24.7478 C   0  0  0  0  0  0  0  0  0  0  0  0
    0.0505   32.1238   25.9104 C   0  0  0  0  0  0  0  0  0  0  0  0
    0.3790   32.1031   27.2205 C   0  0  0  0  0  0  0  0  0  0  0  0
   -1.2830   32.1140   25.7915 O   0  0  0  0  0  0  0  0  0  0  0  0
   -1.8243   32.0502   27.0362 C   0  0  0  0  0  0  0  0  0  0  0  0
   -0.8391   32.0394   27.9554 C   0  0  0  0  0  0  0  0  0  0  0  0
 15 12  1  0  0  0
 15 13  1  0  0  0
 16 12  2  0  0  0
 12 14  1  0  0  0
 13 11  2  0  0  0
 14 11  1  0  0  0
 14 19  1  0  0  0
 11  5  1  0  0  0
 33 34  2  0  0  0
 33 32  1  0  0  0
 24 21  1  0  0  0
 34 31  1  0  0  0
 19 21  2  0  0  0
 19 18  1  0  0  0
 32 30  1  0  0  0
  5  6  2  0  0  0
  5  4  1  0  0  0
  7  4  1  0  0  0
 21 22  1  0  0  0
 31 30  2  0  0  0
  6  3  1  0  0  0
  4  2  2  0  0  0
 18 23  2  0  0  0
 30 29  1  0  0  0
 22 20  2  0  0  0
 28 26  1  0  0  0
  3 25  1  0  0  0
  3  1  2  0  0  0
  2  1  1  0  0  0
 26 29  1  0  0  0
 26 25  1  0  0  0
 23 20  1  0  0  0
 25 27  2  0  0  0
  1  8  1  0  0  0
  7  9  1  0  0  0
  8 10  1  0  0  0
 15 17  1  0  0  0
M  END
> <minimizedAffinity>
-7.82070

$$$$
5J6M_6FJ_A_301


 34 37  0  0  0  0  0  0  0  0999 V2000
    1.6668   38.8040   24.3571 C   0  0  0  0  0  0  0  0  0  0  0  0
    2.7276   39.6058   24.8122 C   0  0  0  0  0  0  0  0  0  0  0  0
    1.9096   37.7239   23.4862 C   0  0  0  0  0  0  0  0  0  0  0  0
    4.0249   39.3412   24.3454 C   0  0  0  0  0  0  0  0  0  0  0  0
    4.2654   38.2511   23.4847 C   0  0  0  0  0  0  0  0  0  0  0  0
    3.1956   37.4917   22.9983 C   0  0  0  0  0  0  0  0  0  0  0  0
    5.0819   40.1001   24.7490 O   0  0  0  0  0  0  0  0  0  0  0  0
    0.4037   38.9895   24.7821 O   0  0  0  0  0  0  0  0  0  0  0  0
    5.9425   39.9124   24.4295 H   0  0  0  0  0  0  0  0  0  0  0  0
   -0.2840   38.4397   24.4617 H   0  0  0  0  0  0  0  0  0  0  0  0
    5.6361   37.9030   23.0555 C   0  0  0  0  0  0  0  0  0  0  0  0
    7.3567   37.5873   21.7093 C   0  0  0  0  0  0  0  0  0  0  0  0
    6.5888   37.4188   23.7969 N   0  0  0  0  0  0  0  0  0  0  0  0
    6.0783   38.0277   21.7444 N   0  0  0  0  0  0  0  0  0  0  0  0
    7.7088   37.2259   22.9739 N   0  0  0  0  0  0  0  0  0  0  0  0
    8.0575   37.5476   20.7021 O   0  0  0  0  0  0  0  0  0  0  0  0
    8.5893   36.8903   23.2591 H   0  0  0  0  0  0  0  0  0  0  0  0
    5.2347   39.8942   20.3900 C   0  0  0  0  0  0  0  0  0  0  0  0
    5.3228   38.5215   20.6415 C   0  0  0  0  0  0  0  0  0  0  0  0
    3.8717   39.4472   18.4423 C   0  0  0  0  0  0  0  0  0  0  0  0
    4.6890   37.6198   19.7792 C   0  0  0  0  0  0  0  0  0  0  0  0
    3.9722   38.0735   18.6693 C   0  0  0  0  0  0  0  0  0  0  0  0
    4.5145   40.3530   19.2876 C   0  0  0  0  0  0  0  0  0  0  0  0
    4.7900   36.3025   20.0493 F   0  0  0  0  0  0  0  0  0  0  0  0
    0.8641   36.8739   22.8750 C   0  0  0  0  0  0  0  0  0  0  0  0
    0.6218   35.6345   23.4093 N   0  0  0  0  0  0  0  0  0  0  0  0
    0.1483   37.3633   22.0013 O   0  0  0  0  0  0  0  0  0  0  0  0
    1.4934   35.0218   24.4222 C   0  0  0  0  0  0  0  0  0  0  0  0
   -0.5099   34.8107   22.9468 C   0  0  0  0  0  0  0  0  0  0  0  0
   -0.8655   33.8570   24.0679 C   0  0  0  0  0  0  0  0  0  0  0  0
   -1.8516   34.0255   24.9756 C   0  0  0  0  0  0  0  0  0  0  0  0
   -0.2765   32.6724   24.2736 O   0  0  0  0  0  0  0  0  0  0  0  0
   -0.8631   32.0824   25.3479 C   0  0  0  0  0  0  0  0  0  0  0  0
   -1.8422   32.8788   25.8199 C   0  0  0  0  0  0  0  0  0  0  0  0
 15 12  1  0  0  0
 15 13  1  0  0  0
 16 12  2  0  0  0
 12 14  1  0  0  0
 13 11  2  0  0  0
 14 11  1  0  0  0
 14 19  1  0  0  0
 11  5  1  0  0  0
 33 34  2  0  0  0
 33 32  1  0  0  0
 24 21  1  0  0  0
 34 31  1  0  0  0
 19 21  2  0  0  0
 19 18  1  0  0  0
 32 30  1  0  0  0
  5  6  2  0  0  0
  5  4  1  0  0  0
  7  4  1  0  0  0
 21 22  1  0  0  0
 31 30  2  0  0  0
  6  3  1  0  0  0
  4  2  2  0  0  0
 18 23  2  0  0  0
 30 29  1  0  0  0
 22 20  2  0  0  0
 28 26  1  0  0  0
  3 25  1  0  0  0
  3  1  2  0  0  0
  2  1  1  0  0  0
 26 29  1  0  0  0
 26 25  1  0  0  0
 23 20  1  0  0  0
 25 27  2  0  0  0
  1  8  1  0  0  0
  7  9  1  0  0  0
  8 10  1  0  0  0
 15 17  1  0  0  0
M  END
> <minimizedAffinity>
-7.70044

$$$$
5J6M_6FJ_A_301


 34 37  0  0  0  0  0  0  0  0999 V2000
    1.3258   36.4142   22.6365 C   0  0  0  0  0  0  0  0  0  0  0  0
    1.7194   37.7594   22.5329 C   0  0  0  0  0  0  0  0  0  0  0  0
    1.2365   35.7904   23.8963 C   0  0  0  0  0  0  0  0  0  0  0  0
    2.0682   38.4548   23.7015 C   0  0  0  0  0  0  0  0  0  0  0  0
    1.9644   37.8310   24.9613 C   0  0  0  0  0  0  0  0  0  0  0  0
    1.6208   36.4774   25.0479 C   0  0  0  0  0  0  0  0  0  0  0  0
    2.4682   39.7560   23.6482 O   0  0  0  0  0  0  0  0  0  0  0  0
    0.9574   35.6973   21.5591 O   0  0  0  0  0  0  0  0  0  0  0  0
    2.6981   40.2081   24.4360 H   0  0  0  0  0  0  0  0  0  0  0  0
    0.6996   34.8019   21.6580 H   0  0  0  0  0  0  0  0  0  0  0  0
    2.2404   38.5745   26.2083 C   0  0  0  0  0  0  0  0  0  0  0  0
    3.3544   39.3072   27.9674 C   0  0  0  0  0  0  0  0  0  0  0  0
    1.4033   39.3037   26.8860 N   0  0  0  0  0  0  0  0  0  0  0  0
    3.4729   38.5555   26.8494 N   0  0  0  0  0  0  0  0  0  0  0  0
    2.0875   39.8049   28.0038 N   0  0  0  0  0  0  0  0  0  0  0  0
    4.2537   39.5023   28.7801 O   0  0  0  0  0  0  0  0  0  0  0  0
    1.7186   40.4071   28.6898 H   0  0  0  0  0  0  0  0  0  0  0  0
    4.8930   36.5524   26.8188 C   0  0  0  0  0  0  0  0  0  0  0  0
    4.6415   37.8666   26.4127 C   0  0  0  0  0  0  0  0  0  0  0  0
    6.9187   36.5344   25.4968 C   0  0  0  0  0  0  0  0  0  0  0  0
    5.5317   38.5013   25.5389 C   0  0  0  0  0  0  0  0  0  0  0  0
    6.6661   37.8377   25.0655 C   0  0  0  0  0  0  0  0  0  0  0  0
    6.0278   35.8878   26.3549 C   0  0  0  0  0  0  0  0  0  0  0  0
    5.2633   39.7695   25.1673 F   0  0  0  0  0  0  0  0  0  0  0  0
    0.9227   34.3613   24.1163 C   0  0  0  0  0  0  0  0  0  0  0  0
   -0.3911   33.9743   24.1840 N   0  0  0  0  0  0  0  0  0  0  0  0
    1.8458   33.5476   24.0857 O   0  0  0  0  0  0  0  0  0  0  0  0
   -1.4997   34.9365   24.2640 C   0  0  0  0  0  0  0  0  0  0  0  0
   -0.7663   32.5498   24.2414 C   0  0  0  0  0  0  0  0  0  0  0  0
   -1.1209   32.2312   25.6786 C   0  0  0  0  0  0  0  0  0  0  0  0
   -0.2535   32.1196   26.7081 C   0  0  0  0  0  0  0  0  0  0  0  0
   -2.3691   32.0738   26.1366 O   0  0  0  0  0  0  0  0  0  0  0  0
   -2.3083   31.8223   27.4704 C   0  0  0  0  0  0  0  0  0  0  0  0
   -1.0225   31.8379   27.8732 C   0  0  0  0  0  0  0  0  0  0  0  0
 15 12  1  0  0  0
 15 13  1  0  0  0
 16 12  2  0  0  0
 12 14  1  0  0  0
 13 11  2  0  0  0
 14 11  1  0  0  0
 14 19  1  0  0  0
 11  5  1  0  0  0
 33 34  2  0  0  0
 33 32  1  0  0  0
 24 21  1  0  0  0
 34 31  1  0  0  0
 19 21  2  0  0  0
 19 18  1  0  0  0
 32 30  1  0  0  0
  5  6  2  0  0  0
  5  4  1  0  0  0
  7  4  1  0  0  0
 21 22  1  0  0  0
 31 30  2  0  0  0
  6  3  1  0  0  0
  4  2  2  0  0  0
 18 23  2  0  0  0
 30 29  1  0  0  0
 22 20  2  0  0  0
 28 26  1  0  0  0
  3 25  1  0  0  0
  3  1  2  0  0  0
  2  1  1  0  0  0
 26 29  1  0  0  0
 26 25  1  0  0  0
 23 20  1  0  0  0
 25 27  2  0  0  0
  1  8  1  0  0  0
  7  9  1  0  0  0
  8 10  1  0  0  0
 15 17  1  0  0  0
M  END
> <minimizedAffinity>
-7.66665

$$$$
