5J6M_6FJ_A_301
  RCSB PDB12061718213D
Coordinates from PDB:5J6M:A:301 Model:1 without hydrogens
 31 34  0  0  0  0            999 V2000
   -0.2450   37.5320   24.4310   C 0  0  0  0  0  0  0  0  0  0  0  0
   -0.6040   32.5710   26.0520   C 0  0  0  0  0  0  0  0  0  0  0  0
   -1.8910   32.8650   25.5700   C 0  0  0  0  0  0  0  0  0  0  0  0
    0.5380   33.0390   25.3730   C 0  0  0  0  0  0  0  0  0  0  0  0
   -0.9880   34.9110   22.4970   C 0  0  0  0  0  0  0  0  0  0  0  0
   -0.7570   36.6650   21.1770   C 0  0  0  0  0  0  0  0  0  0  0  0
    0.3630   36.8340   23.3830   C 0  0  0  0  0  0  0  0  0  0  0  0
    1.9340   38.0720   25.3320   C 0  0  0  0  0  0  0  0  0  0  0  0
    1.9350   32.7150   25.7370   C 0  0  0  0  0  0  0  0  0  0  0  0
    4.4650   30.8890   24.2020   C 0  0  0  0  0  0  0  0  0  0  0  0
    5.1130   29.7610   23.8380   C 0  0  0  0  0  0  0  0  0  0  0  0
   -2.0170   33.5910   24.3750   C 0  0  0  0  0  0  0  0  0  0  0  0
   -0.8720   34.0690   23.7060   C 0  0  0  0  0  0  0  0  0  0  0  0
    0.4040   33.7270   24.1670   C 0  0  0  0  0  0  0  0  0  0  0  0
   -1.6350   34.6270   21.4050   N 0  0  0  0  0  0  0  0  0  0  0  0
   -0.4210   36.1750   22.3920   N 0  0  0  0  0  0  0  0  0  0  0  0
   -3.2440   33.8880   23.8630   O 0  0  0  0  0  0  0  0  0  0  0  0
   -0.4130   31.8990   27.2020   O 0  0  0  0  0  0  0  0  0  0  0  0
   -1.4900   35.7160   20.5320   N 0  0  0  0  0  0  0  0  0  0  0  0
   -0.4300   37.7690   20.7510   O 0  0  0  0  0  0  0  0  0  0  0  0
    1.7590   36.7530   23.3260   C 0  0  0  0  0  0  0  0  0  0  0  0
    2.5520   37.3580   24.3040   C 0  0  0  0  0  0  0  0  0  0  0  0
    2.4490   31.4970   25.3730   N 0  0  0  0  0  0  0  0  0  0  0  0
    2.6340   33.6030   26.2250   O 0  0  0  0  0  0  0  0  0  0  0  0
    3.8760   31.1810   25.5660   C 0  0  0  0  0  0  0  0  0  0  0  0
    0.5420   38.1440   25.4060   C 0  0  0  0  0  0  0  0  0  0  0  0
    1.6170   30.4140   24.8290   C 0  0  0  0  0  0  0  0  0  0  0  0
    4.3670   31.7010   23.1420   O 0  0  0  0  0  0  0  0  0  0  0  0
    4.9890   31.1090   22.0890   C 0  0  0  0  0  0  0  0  0  0  0  0
    5.4690   29.9080   22.4670   C 0  0  0  0  0  0  0  0  0  0  0  0
    2.3160   36.0750   22.3020   F 0  0  0  0  0  0  0  0  0  0  0  0
 19  6  1  0  0  0  0
 19 15  1  0  0  0  0
 20  6  2  0  0  0  0
  6 16  1  0  0  0  0
 15  5  2  0  0  0  0
 16  5  1  0  0  0  0
 16  7  1  0  0  0  0
  5 13  1  0  0  0  0
 29 30  2  0  0  0  0
 29 28  1  0  0  0  0
 31 21  1  0  0  0  0
 30 11  1  0  0  0  0
  7 21  2  0  0  0  0
  7  1  1  0  0  0  0
 28 10  1  0  0  0  0
 13 14  2  0  0  0  0
 13 12  1  0  0  0  0
 17 12  1  0  0  0  0
 21 22  1  0  0  0  0
 11 10  2  0  0  0  0
 14  4  1  0  0  0  0
 12  3  2  0  0  0  0
  1 26  2  0  0  0  0
 10 25  1  0  0  0  0
 22  8  2  0  0  0  0
 27 23  1  0  0  0  0
  4  9  1  0  0  0  0
  4  2  2  0  0  0  0
  3  2  1  0  0  0  0
 23 25  1  0  0  0  0
 23  9  1  0  0  0  0
 26  8  1  0  0  0  0
  9 24  2  0  0  0  0
  2 18  1  0  0  0  0
A    1
C1
A    2
C2
A    3
C3
A    4
C7
A    5
C8
A    6
C14
A    7
C16
A    8
C19
A    9
C20
A   10
C24
A   11
C30
A   12
C4
A   13
C5
A   14
C6
A   15
N9
A   16
N10
A   17
O11
A   18
O12
A   19
N13
A   20
O15
A   21
C17
A   22
C18
A   23
N21
A   24
O22
A   25
C23
A   26
C25
A   27
C26
A   28
O27
A   29
C28
A   30
C29
A   31
F31
M  END
>  <InstanceId>
5J6M_6FJ_A_301

>  <ChemCompId>
6FJ

>  <PdbId>
5J6M

>  <ChainId>
A

>  <ResidueNumber>
301

>  <InsertionCode>


>  <Model>
1

>  <AltIds>


>  <MissingHeavyAtoms>
0

>  <ObservedFormula>
C21 N4 O5 F

>  <Name>
5-[4-(2-fluorophenyl)-5-oxo-4,5-dihydro-1H-1,2,4-triazol-3-yl]-N-[(furan-2-yl)methyl]-2,4-dihydroxy-N-methylbenzamide

>  <SystematicName>
5-[4-(2-fluorophenyl)-5-oxidanylidene-1~{H}-1,2,4-triazol-3-yl]-~{N}-(furan-2-ylmethyl)-~{N}-methyl-2,4-bis(oxidanyl)benzamide

>  <Synonyms>


>  <Type>
NON-POLYMER

>  <Formula>
C21 H17 F N4 O5

>  <MolecularWeight>
424.382

>  <ModifiedDate>
2017-12-01

>  <Parent>


>  <OneLetterCode>


>  <SubcomponentList>


>  <AmbiguousFlag>
N

>  <InChI>
InChI=1S/C21H17FN4O5/c1-25(11-12-5-4-8-31-12)20(29)14-9-13(17(27)10-18(14)28)19-23-24-21(30)26(19)16-7-3-2-6-15(16)22/h2-10,27-28H,11H2,1H3,(H,24,30)

>  <InChIKey>
PAVRUOXGJYRCJO-UHFFFAOYSA-N

>  <SMILES>
CN(Cc1ccco1)C(=O)c2cc(c(cc2O)O)C3=NNC(=O)N3c4ccccc4F

$$$$
