1BCD_FMS_A_500
  RCSB PDB12061702043D
Coordinates from PDB:1BCD:A:500 Model:1 without hydrogens
  8  7  0  0  0  0            999 V2000
   -6.5640    1.6460   17.4020   C 0  0  0  0  0  0  0  0  0  0  0  0
   -7.6990    1.3040   16.9150   F 0  0  0  0  0  0  0  0  0  0  0  0
   -6.5680    3.0110   17.3310   F 0  0  0  0  0  0  0  0  0  0  0  0
   -6.3360    1.1890   18.5890   F 0  0  0  0  0  0  0  0  0  0  0  0
   -5.2870    1.1360   16.3120   S 0  0  0  0  0  0  0  0  0  0  0  0
   -5.1990   -0.4760   16.1990   N 0  0  0  0  0  0  0  0  0  0  0  0
   -3.9940    1.5610   16.8260   O 0  0  0  0  0  0  0  0  0  0  0  0
   -5.6450    1.7270   15.0180   O 0  0  0  0  0  0  0  0  0  0  0  0
  1  2  1  0  0  0  0
  1  3  1  0  0  0  0
  1  4  1  0  0  0  0
  1  5  1  0  0  0  0
  5  6  1  0  0  0  0
  5  7  2  0  0  0  0
  5  8  2  0  0  0  0
A    1
C
A    2
F1
A    3
F2
A    4
F3
A    5
S
A    6
N
A    7
O1
A    8
O2
M  END
>  <InstanceId>
1BCD_FMS_A_500

>  <ChemCompId>
FMS

>  <PdbId>
1BCD

>  <ChainId>
A

>  <ResidueNumber>
500

>  <InsertionCode>


>  <Model>
1

>  <AltIds>


>  <MissingHeavyAtoms>
0

>  <ObservedFormula>
C N O2 S F3

>  <Name>
TRIFLUOROMETHANE SULFONAMIDE

>  <SystematicName>
trifluoromethanesulfonamide

>  <Synonyms>


>  <Type>
NON-POLYMER

>  <Formula>
C H2 F3 N O2 S

>  <MolecularWeight>
149.092

>  <ModifiedDate>
2011-06-04

>  <Parent>


>  <OneLetterCode>


>  <SubcomponentList>


>  <AmbiguousFlag>
N

>  <InChI>
InChI=1S/CH2F3NO2S/c2-1(3,4)8(5,6)7/h(H2,5,6,7)

>  <InChIKey>
KAKQVSNHTBLJCH-UHFFFAOYSA-N

>  <SMILES>
C(F)(F)(F)S(=O)(=O)N

$$$$
