3WGG_8NA_A_301


 53 57  0  0  0  0  0  0  0  0999 V2000
    4.5064   26.6067   14.0724 P   0  0  0  0  0  0  0  0  0  0  0  0
    3.5483   26.9381   15.1949 O   0  0  0  0  0  0  0  0  0  0  0  0
    5.2395   27.7094   13.3270 O   0  0  0  0  0  0  0  0  0  0  0  0
    2.8445   27.5152   14.8595 H   0  0  0  0  0  0  0  0  0  0  0  0
    3.7436   25.6270   13.0431 O   0  0  0  0  0  0  0  0  0  0  0  0
    3.4937   24.2400   13.2743 C   0  0  0  0  0  0  0  0  0  0  0  0
    2.3994   23.9069   12.2695 C   0  0  0  0  0  0  0  0  0  0  0  0
    1.8378   22.6201   12.4530 O   0  0  0  0  0  0  0  0  0  0  0  0
    1.2480   24.8913   12.3818 C   0  0  0  0  0  0  0  0  0  0  0  0
    1.0545   25.3682   11.0430 O   0  0  0  0  0  0  0  0  0  0  0  0
    0.0733   24.0212   12.8648 C   0  0  0  0  0  0  0  0  0  0  0  0
   -1.1637   24.4246   12.2608 O   0  0  0  0  0  0  0  0  0  0  0  0
    0.4343   22.6862   12.2771 C   0  0  0  0  0  0  0  0  0  0  0  0
    0.9341   24.6137   10.4452 H   0  0  0  0  0  0  0  0  0  0  0  0
   -1.0754   24.3992   11.2952 H   0  0  0  0  0  0  0  0  0  0  0  0
   -0.0746   21.5352   13.0172 N   0  0  0  0  0  0  0  0  0  0  0  0
   -0.3459   21.4122   14.3356 C   0  0  0  0  0  0  0  0  0  0  0  0
   -0.7210   20.1261   14.5556 N   0  0  0  0  0  0  0  0  0  0  0  0
   -0.6996   19.4842   13.3589 C   0  0  0  0  0  0  0  0  0  0  0  0
   -0.9970   18.1989   12.9314 C   0  0  0  0  0  0  0  0  0  0  0  0
   -1.4188   17.2563   13.8011 N   0  0  0  0  0  0  0  0  0  0  0  0
   -0.8720   17.8941   11.6342 N   0  0  0  0  0  0  0  0  0  0  0  0
   -0.4943   18.7952   10.7094 C   0  0  0  0  0  0  0  0  0  0  0  0
   -0.2356   20.0433   11.0762 N   0  0  0  0  0  0  0  0  0  0  0  0
   -0.3170   20.3940   12.3863 C   0  0  0  0  0  0  0  0  0  0  0  0
   -1.6257   16.3485   13.4810 H   0  0  0  0  0  0  0  0  0  0  0  0
   -1.5194   17.4767   14.7553 H   0  0  0  0  0  0  0  0  0  0  0  0
    5.6615   25.6345   14.7104 O   0  0  0  0  0  0  0  0  0  0  0  0
    7.0662   25.4034   13.9394 P   0  0  0  0  0  0  0  0  0  0  0  0
    7.9302   26.6130   14.1229 O   0  0  0  0  0  0  0  0  0  0  0  0
    6.8144   24.9703   12.5090 O   0  0  0  0  0  0  0  0  0  0  0  0
    7.7648   24.2308   14.8177 O   0  0  0  0  0  0  0  0  0  0  0  0
    7.0529   23.2361   15.5785 C   0  0  0  0  0  0  0  0  0  0  0  0
    7.2341   23.4831   17.0891 C   0  0  0  0  0  0  0  0  0  0  0  0
    8.1498   22.5084   17.6399 O   0  0  0  0  0  0  0  0  0  0  0  0
    7.8395   24.8225   17.4551 C   0  0  0  0  0  0  0  0  0  0  0  0
    7.3250   25.2255   18.7495 O   0  0  0  0  0  0  0  0  0  0  0  0
    9.3112   24.5159   17.6402 C   0  0  0  0  0  0  0  0  0  0  0  0
    9.7590   25.4262   18.6265 O   0  0  0  0  0  0  0  0  0  0  0  0
    9.3824   23.0590   18.1166 C   0  0  0  0  0  0  0  0  0  0  0  0
    7.5132   24.5330   19.4021 H   0  0  0  0  0  0  0  0  0  0  0  0
    9.2129   25.3344   19.4229 H   0  0  0  0  0  0  0  0  0  0  0  0
    9.3764   22.8534   19.6020 N   0  0  0  0  0  0  0  0  0  0  0  0
   10.5201   23.0995   20.3349 C   0  0  0  0  0  0  0  0  0  0  0  0
   10.6083   22.9357   21.6713 C   0  0  0  0  0  0  0  0  0  0  0  0
    9.4234   22.4110   22.4626 C   0  0  0  0  0  0  0  0  0  0  0  0
    8.2372   22.1216   21.5553 C   0  0  0  0  0  0  0  0  0  0  0  0
    8.2571   22.3370   20.2298 C   0  0  0  0  0  0  0  0  0  0  0  0
   11.8837   23.2533   22.3275 C   0  0  0  0  0  0  0  0  0  0  0  0
   12.1740   24.4153   22.6018 O   0  0  0  0  0  0  0  0  0  0  0  0
   12.7085   22.2334   22.5683 N   0  0  0  0  0  0  0  0  0  0  0  0
   12.4387   21.3162   22.3336 H   0  0  0  0  0  0  0  0  0  0  0  0
   13.5871   22.3978   22.9808 H   0  0  0  0  0  0  0  0  0  0  0  0
 23 24  2  0  0  0
 23 22  1  0  0  0
 10  9  1  0  0  0
 24 25  1  0  0  0
 22 20  2  0  0  0
 12 11  1  0  0  0
 13 11  1  0  0  0
 13  8  1  0  0  0
 13 16  1  0  0  0
  9  7  1  0  0  0
  9 11  1  0  0  0
 25 16  1  0  0  0
 25 19  2  0  0  0
  7  8  1  0  0  0
  7  6  1  0  0  0
 20 19  1  0  0  0
 20 21  1  0  0  0
 16 17  1  0  0  0
  5  6  1  0  0  0
  5  1  1  0  0  0
 31 29  2  0  0  0
  3  1  2  0  0  0
 19 18  1  0  0  0
  1  2  1  0  0  0
  1 28  1  0  0  0
 17 18  2  0  0  0
 29 30  1  0  0  0
 29 28  1  0  0  0
 29 32  1  0  0  0
 32 33  1  0  0  0
 33 34  1  0  0  0
 34 35  1  0  0  0
 34 36  1  0  0  0
 35 40  1  0  0  0
 36 37  1  0  0  0
 36 38  1  0  0  0
 40 38  1  0  0  0
 40 43  1  0  0  0
 48 43  2  0  0  0
 48 47  1  0  0  0
 38 39  1  0  0  0
 43 44  1  0  0  0
 47 46  2  0  0  0
 44 45  2  0  0  0
 46 45  1  0  0  0
 45 49  1  0  0  0
 49 50  2  0  0  0
 49 51  1  0  0  0
  2  4  1  0  0  0
 10 14  1  0  0  0
 12 15  1  0  0  0
 21 26  1  0  0  0
 21 27  1  0  0  0
 37 41  1  0  0  0
 39 42  1  0  0  0
 51 52  1  0  0  0
 51 53  1  0  0  0
M  CHG 1  30  -1
M  CHG 1  43   1
M  END
> <minimizedAffinity>
-11.29706

$$$$
3WGG_8NA_A_301


 53 57  0  0  0  0  0  0  0  0999 V2000
    4.4974   24.9802   14.8143 P   0  0  0  0  0  0  0  0  0  0  0  0
    5.4014   23.7805   14.9909 O   0  0  0  0  0  0  0  0  0  0  0  0
    3.5785   25.4313   15.9374 O   0  0  0  0  0  0  0  0  0  0  0  0
    4.8649   22.9988   15.1957 H   0  0  0  0  0  0  0  0  0  0  0  0
    3.6726   24.7814   13.4427 O   0  0  0  0  0  0  0  0  0  0  0  0
    3.7691   23.6365   12.5944 C   0  0  0  0  0  0  0  0  0  0  0  0
    2.4096   23.5888   11.9109 C   0  0  0  0  0  0  0  0  0  0  0  0
    1.7190   22.3693   12.1131 O   0  0  0  0  0  0  0  0  0  0  0  0
    1.5008   24.6832   12.4436 C   0  0  0  0  0  0  0  0  0  0  0  0
    1.0386   25.3659   11.2698 O   0  0  0  0  0  0  0  0  0  0  0  0
    0.3727   23.9069   13.1471 C   0  0  0  0  0  0  0  0  0  0  0  0
   -0.8994   24.5433   12.9614 O   0  0  0  0  0  0  0  0  0  0  0  0
    0.3481   22.6344   12.3482 C   0  0  0  0  0  0  0  0  0  0  0  0
    0.6459   24.7250   10.6566 H   0  0  0  0  0  0  0  0  0  0  0  0
   -1.0749   24.6445   12.0128 H   0  0  0  0  0  0  0  0  0  0  0  0
   -0.1235   21.4627   13.0804 N   0  0  0  0  0  0  0  0  0  0  0  0
   -0.3642   21.3140   14.4021 C   0  0  0  0  0  0  0  0  0  0  0  0
   -0.7106   20.0177   14.6094 N   0  0  0  0  0  0  0  0  0  0  0  0
   -0.7030   19.3951   13.4023 C   0  0  0  0  0  0  0  0  0  0  0  0
   -0.9856   18.1112   12.9606 C   0  0  0  0  0  0  0  0  0  0  0  0
   -1.3711   17.1474   13.8238 N   0  0  0  0  0  0  0  0  0  0  0  0
   -0.8827   17.8292   11.6564 N   0  0  0  0  0  0  0  0  0  0  0  0
   -0.5416   18.7516   10.7383 C   0  0  0  0  0  0  0  0  0  0  0  0
   -0.2983   19.9985   11.1196 N   0  0  0  0  0  0  0  0  0  0  0  0
   -0.3582   20.3270   12.4366 C   0  0  0  0  0  0  0  0  0  0  0  0
   -1.5680   16.2410   13.4937 H   0  0  0  0  0  0  0  0  0  0  0  0
   -1.4554   17.3509   14.7833 H   0  0  0  0  0  0  0  0  0  0  0  0
    5.4683   26.2557   14.4724 O   0  0  0  0  0  0  0  0  0  0  0  0
    6.9393   26.0279   13.8356 P   0  0  0  0  0  0  0  0  0  0  0  0
    7.6124   27.3557   13.6708 O   0  0  0  0  0  0  0  0  0  0  0  0
    6.8449   25.1655   12.5928 O   0  0  0  0  0  0  0  0  0  0  0  0
    7.7349   25.2812   15.0372 O   0  0  0  0  0  0  0  0  0  0  0  0
    8.9998   25.7085   15.5781 C   0  0  0  0  0  0  0  0  0  0  0  0
    9.4530   24.7564   16.7023 C   0  0  0  0  0  0  0  0  0  0  0  0
    9.3439   25.4208   17.9824 O   0  0  0  0  0  0  0  0  0  0  0  0
    8.6232   23.4984   16.8551 C   0  0  0  0  0  0  0  0  0  0  0  0
    9.4756   22.4394   17.3595 O   0  0  0  0  0  0  0  0  0  0  0  0
    7.6449   23.8422   17.9592 C   0  0  0  0  0  0  0  0  0  0  0  0
    7.3902   22.6193   18.6237 O   0  0  0  0  0  0  0  0  0  0  0  0
    8.3634   24.8560   18.8595 C   0  0  0  0  0  0  0  0  0  0  0  0
    9.8888   22.7245   18.1894 H   0  0  0  0  0  0  0  0  0  0  0  0
    8.2286   22.2309   18.9187 H   0  0  0  0  0  0  0  0  0  0  0  0
    9.1283   24.2814   20.0143 N   0  0  0  0  0  0  0  0  0  0  0  0
    8.4885   24.0484   21.2152 C   0  0  0  0  0  0  0  0  0  0  0  0
    9.0974   23.5415   22.3073 C   0  0  0  0  0  0  0  0  0  0  0  0
   10.5833   23.2298   22.2855 C   0  0  0  0  0  0  0  0  0  0  0  0
   11.2003   23.5726   20.9380 C   0  0  0  0  0  0  0  0  0  0  0  0
   10.4903   24.0636   19.9091 C   0  0  0  0  0  0  0  0  0  0  0  0
    8.2903   23.3268   23.5159 C   0  0  0  0  0  0  0  0  0  0  0  0
    8.5949   22.4535   24.3249 O   0  0  0  0  0  0  0  0  0  0  0  0
    7.2083   24.0923   23.6625 N   0  0  0  0  0  0  0  0  0  0  0  0
    6.9985   24.7817   22.9917 H   0  0  0  0  0  0  0  0  0  0  0  0
    6.6193   23.9681   24.4415 H   0  0  0  0  0  0  0  0  0  0  0  0
 23 24  2  0  0  0
 23 22  1  0  0  0
 10  9  1  0  0  0
 24 25  1  0  0  0
 22 20  2  0  0  0
 12 11  1  0  0  0
 13 11  1  0  0  0
 13  8  1  0  0  0
 13 16  1  0  0  0
  9  7  1  0  0  0
  9 11  1  0  0  0
 25 16  1  0  0  0
 25 19  2  0  0  0
  7  8  1  0  0  0
  7  6  1  0  0  0
 20 19  1  0  0  0
 20 21  1  0  0  0
 16 17  1  0  0  0
  5  6  1  0  0  0
  5  1  1  0  0  0
 31 29  2  0  0  0
  3  1  2  0  0  0
 19 18  1  0  0  0
  1  2  1  0  0  0
  1 28  1  0  0  0
 17 18  2  0  0  0
 29 30  1  0  0  0
 29 28  1  0  0  0
 29 32  1  0  0  0
 32 33  1  0  0  0
 33 34  1  0  0  0
 34 35  1  0  0  0
 34 36  1  0  0  0
 35 40  1  0  0  0
 36 37  1  0  0  0
 36 38  1  0  0  0
 40 38  1  0  0  0
 40 43  1  0  0  0
 48 43  2  0  0  0
 48 47  1  0  0  0
 38 39  1  0  0  0
 43 44  1  0  0  0
 47 46  2  0  0  0
 44 45  2  0  0  0
 46 45  1  0  0  0
 45 49  1  0  0  0
 49 50  2  0  0  0
 49 51  1  0  0  0
  2  4  1  0  0  0
 10 14  1  0  0  0
 12 15  1  0  0  0
 21 26  1  0  0  0
 21 27  1  0  0  0
 37 41  1  0  0  0
 39 42  1  0  0  0
 51 52  1  0  0  0
 51 53  1  0  0  0
M  CHG 1  30  -1
M  CHG 1  43   1
M  END
> <minimizedAffinity>
-10.96076

$$$$
3WGG_8NA_A_301


 53 57  0  0  0  0  0  0  0  0999 V2000
    6.2427   25.1138   13.0006 P   0  0  0  0  0  0  0  0  0  0  0  0
    6.6748   26.5347   13.2876 O   0  0  0  0  0  0  0  0  0  0  0  0
    6.7663   24.3752   11.7802 O   0  0  0  0  0  0  0  0  0  0  0  0
    6.4367   27.1026   12.5382 H   0  0  0  0  0  0  0  0  0  0  0  0
    4.6315   25.0658   13.0533 O   0  0  0  0  0  0  0  0  0  0  0  0
    3.8666   23.9695   13.5560 C   0  0  0  0  0  0  0  0  0  0  0  0
    2.8720   23.6915   12.4374 C   0  0  0  0  0  0  0  0  0  0  0  0
    2.1934   22.4570   12.5799 O   0  0  0  0  0  0  0  0  0  0  0  0
    1.7965   24.7634   12.3949 C   0  0  0  0  0  0  0  0  0  0  0  0
    1.7961   25.2145   11.0334 O   0  0  0  0  0  0  0  0  0  0  0  0
    0.5093   23.9994   12.7550 C   0  0  0  0  0  0  0  0  0  0  0  0
   -0.6146   24.4780   12.0029 O   0  0  0  0  0  0  0  0  0  0  0  0
    0.8290   22.6244   12.2402 C   0  0  0  0  0  0  0  0  0  0  0  0
    1.6859   24.4544   10.4409 H   0  0  0  0  0  0  0  0  0  0  0  0
   -0.4185   24.4179   11.0549 H   0  0  0  0  0  0  0  0  0  0  0  0
    0.1493   21.5374   12.9388 N   0  0  0  0  0  0  0  0  0  0  0  0
   -0.2205   21.4473   14.2358 C   0  0  0  0  0  0  0  0  0  0  0  0
   -0.7477   20.2103   14.4236 N   0  0  0  0  0  0  0  0  0  0  0  0
   -0.7174   19.5678   13.2275 C   0  0  0  0  0  0  0  0  0  0  0  0
   -1.1246   18.3219   12.7742 C   0  0  0  0  0  0  0  0  0  0  0  0
   -1.7035   17.4327   13.6090 N   0  0  0  0  0  0  0  0  0  0  0  0
   -0.9480   18.0028   11.4865 N   0  0  0  0  0  0  0  0  0  0  0  0
   -0.4136   18.8555   10.5936 C   0  0  0  0  0  0  0  0  0  0  0  0
   -0.0449   20.0685   10.9834 N   0  0  0  0  0  0  0  0  0  0  0  0
   -0.1741   20.4284   12.2872 C   0  0  0  0  0  0  0  0  0  0  0  0
   -1.9868   16.5525   13.2711 H   0  0  0  0  0  0  0  0  0  0  0  0
   -1.8425   17.6646   14.5557 H   0  0  0  0  0  0  0  0  0  0  0  0
    6.6753   24.2176   14.3030 O   0  0  0  0  0  0  0  0  0  0  0  0
    7.1088   24.9306   15.6904 P   0  0  0  0  0  0  0  0  0  0  0  0
    5.9274   25.6553   16.2583 O   0  0  0  0  0  0  0  0  0  0  0  0
    8.3654   25.7531   15.4871 O   0  0  0  0  0  0  0  0  0  0  0  0
    7.3603   23.6660   16.6762 O   0  0  0  0  0  0  0  0  0  0  0  0
    8.6391   23.2870   17.2204 C   0  0  0  0  0  0  0  0  0  0  0  0
    8.7876   23.8131   18.6615 C   0  0  0  0  0  0  0  0  0  0  0  0
    7.9664   23.0291   19.5576 O   0  0  0  0  0  0  0  0  0  0  0  0
   10.1832   23.7164   19.2424 C   0  0  0  0  0  0  0  0  0  0  0  0
   10.3670   24.7988   20.1894 O   0  0  0  0  0  0  0  0  0  0  0  0
   10.1540   22.4299   20.0415 C   0  0  0  0  0  0  0  0  0  0  0  0
   11.0470   22.6414   21.1184 O   0  0  0  0  0  0  0  0  0  0  0  0
    8.7037   22.2579   20.5122 C   0  0  0  0  0  0  0  0  0  0  0  0
    9.6715   24.7595   20.8644 H   0  0  0  0  0  0  0  0  0  0  0  0
   10.7835   23.4380   21.6052 H   0  0  0  0  0  0  0  0  0  0  0  0
    8.3756   22.8426   21.8535 N   0  0  0  0  0  0  0  0  0  0  0  0
    7.6004   23.9819   21.9361 C   0  0  0  0  0  0  0  0  0  0  0  0
    7.2616   24.5801   23.0971 C   0  0  0  0  0  0  0  0  0  0  0  0
    7.7701   24.0365   24.4205 C   0  0  0  0  0  0  0  0  0  0  0  0
    8.6559   22.8172   24.2135 C   0  0  0  0  0  0  0  0  0  0  0  0
    8.9161   22.2958   23.0035 C   0  0  0  0  0  0  0  0  0  0  0  0
    6.4141   25.7786   23.0396 C   0  0  0  0  0  0  0  0  0  0  0  0
    5.3953   25.8580   23.7218 O   0  0  0  0  0  0  0  0  0  0  0  0
    6.7853   26.7398   22.1930 N   0  0  0  0  0  0  0  0  0  0  0  0
    7.6092   26.6384   21.6637 H   0  0  0  0  0  0  0  0  0  0  0  0
    6.2354   27.5507   22.0972 H   0  0  0  0  0  0  0  0  0  0  0  0
 23 24  2  0  0  0
 23 22  1  0  0  0
 10  9  1  0  0  0
 24 25  1  0  0  0
 22 20  2  0  0  0
 12 11  1  0  0  0
 13 11  1  0  0  0
 13  8  1  0  0  0
 13 16  1  0  0  0
  9  7  1  0  0  0
  9 11  1  0  0  0
 25 16  1  0  0  0
 25 19  2  0  0  0
  7  8  1  0  0  0
  7  6  1  0  0  0
 20 19  1  0  0  0
 20 21  1  0  0  0
 16 17  1  0  0  0
  5  6  1  0  0  0
  5  1  1  0  0  0
 31 29  2  0  0  0
  3  1  2  0  0  0
 19 18  1  0  0  0
  1  2  1  0  0  0
  1 28  1  0  0  0
 17 18  2  0  0  0
 29 30  1  0  0  0
 29 28  1  0  0  0
 29 32  1  0  0  0
 32 33  1  0  0  0
 33 34  1  0  0  0
 34 35  1  0  0  0
 34 36  1  0  0  0
 35 40  1  0  0  0
 36 37  1  0  0  0
 36 38  1  0  0  0
 40 38  1  0  0  0
 40 43  1  0  0  0
 48 43  2  0  0  0
 48 47  1  0  0  0
 38 39  1  0  0  0
 43 44  1  0  0  0
 47 46  2  0  0  0
 44 45  2  0  0  0
 46 45  1  0  0  0
 45 49  1  0  0  0
 49 50  2  0  0  0
 49 51  1  0  0  0
  2  4  1  0  0  0
 10 14  1  0  0  0
 12 15  1  0  0  0
 21 26  1  0  0  0
 21 27  1  0  0  0
 37 41  1  0  0  0
 39 42  1  0  0  0
 51 52  1  0  0  0
 51 53  1  0  0  0
M  CHG 1  30  -1
M  CHG 1  43   1
M  END
> <minimizedAffinity>
-10.69279

$$$$
3WGG_8NA_A_301


 53 57  0  0  0  0  0  0  0  0999 V2000
    5.2130   26.2497   13.6310 P   0  0  0  0  0  0  0  0  0  0  0  0
    4.3248   27.4476   13.3779 O   0  0  0  0  0  0  0  0  0  0  0  0
    6.7122   26.3321   13.3970 O   0  0  0  0  0  0  0  0  0  0  0  0
    4.4122   27.7251   12.4525 H   0  0  0  0  0  0  0  0  0  0  0  0
    4.5785   24.9889   12.8507 O   0  0  0  0  0  0  0  0  0  0  0  0
    3.7364   24.0025   13.4484 C   0  0  0  0  0  0  0  0  0  0  0  0
    2.6775   23.7512   12.3838 C   0  0  0  0  0  0  0  0  0  0  0  0
    2.0221   22.5038   12.5233 O   0  0  0  0  0  0  0  0  0  0  0  0
    1.5900   24.8100   12.4461 C   0  0  0  0  0  0  0  0  0  0  0  0
    1.5005   25.3088   11.1042 O   0  0  0  0  0  0  0  0  0  0  0  0
    0.3358   24.0174   12.8570 C   0  0  0  0  0  0  0  0  0  0  0  0
   -0.8376   24.5076   12.1931 O   0  0  0  0  0  0  0  0  0  0  0  0
    0.6376   22.6655   12.2744 C   0  0  0  0  0  0  0  0  0  0  0  0
    1.3620   24.5686   10.4928 H   0  0  0  0  0  0  0  0  0  0  0  0
   -0.6999   24.4835   11.2332 H   0  0  0  0  0  0  0  0  0  0  0  0
    0.0141   21.5460   12.9740 N   0  0  0  0  0  0  0  0  0  0  0  0
   -0.3515   21.4386   14.2708 C   0  0  0  0  0  0  0  0  0  0  0  0
   -0.8147   20.1764   14.4599 N   0  0  0  0  0  0  0  0  0  0  0  0
   -0.7505   19.5348   13.2646 C   0  0  0  0  0  0  0  0  0  0  0  0
   -1.0928   18.2691   12.8127 C   0  0  0  0  0  0  0  0  0  0  0  0
   -1.6260   17.3524   13.6482 N   0  0  0  0  0  0  0  0  0  0  0  0
   -0.8992   17.9579   11.5255 N   0  0  0  0  0  0  0  0  0  0  0  0
   -0.4086   18.8357   10.6318 C   0  0  0  0  0  0  0  0  0  0  0  0
   -0.1029   20.0666   11.0203 N   0  0  0  0  0  0  0  0  0  0  0  0
   -0.2514   20.4209   12.3236 C   0  0  0  0  0  0  0  0  0  0  0  0
   -1.8634   16.4584   13.3113 H   0  0  0  0  0  0  0  0  0  0  0  0
   -1.7774   17.5780   14.5945 H   0  0  0  0  0  0  0  0  0  0  0  0
    5.0138   25.8397   15.2054 O   0  0  0  0  0  0  0  0  0  0  0  0
    3.9870   26.6608   16.1502 P   0  0  0  0  0  0  0  0  0  0  0  0
    2.6275   26.6491   15.5218 O   0  0  0  0  0  0  0  0  0  0  0  0
    4.5585   28.0238   16.4857 O   0  0  0  0  0  0  0  0  0  0  0  0
    3.8707   25.7090   17.4598 O   0  0  0  0  0  0  0  0  0  0  0  0
    4.5466   25.9420   18.7104 C   0  0  0  0  0  0  0  0  0  0  0  0
    5.5810   24.8311   18.9778 C   0  0  0  0  0  0  0  0  0  0  0  0
    6.9127   25.3949   19.0000 O   0  0  0  0  0  0  0  0  0  0  0  0
    5.4429   24.1297   20.3133 C   0  0  0  0  0  0  0  0  0  0  0  0
    5.9100   22.7645   20.1703 O   0  0  0  0  0  0  0  0  0  0  0  0
    6.4376   24.8465   21.2028 C   0  0  0  0  0  0  0  0  0  0  0  0
    6.8858   23.8685   22.1218 O   0  0  0  0  0  0  0  0  0  0  0  0
    7.5595   25.3327   20.2757 C   0  0  0  0  0  0  0  0  0  0  0  0
    6.8205   22.7677   19.8357 H   0  0  0  0  0  0  0  0  0  0  0  0
    7.2379   23.1060   21.6365 H   0  0  0  0  0  0  0  0  0  0  0  0
    8.7190   24.3976   20.1027 N   0  0  0  0  0  0  0  0  0  0  0  0
    8.7804   23.5756   18.9952 C   0  0  0  0  0  0  0  0  0  0  0  0
    9.7801   22.7002   18.7613 C   0  0  0  0  0  0  0  0  0  0  0  0
   10.9097   22.5358   19.7625 C   0  0  0  0  0  0  0  0  0  0  0  0
   10.7176   23.4449   20.9669 C   0  0  0  0  0  0  0  0  0  0  0  0
    9.6834   24.2930   21.0889 C   0  0  0  0  0  0  0  0  0  0  0  0
    9.7283   21.8993   17.5308 C   0  0  0  0  0  0  0  0  0  0  0  0
    8.6634   21.7209   16.9445 O   0  0  0  0  0  0  0  0  0  0  0  0
   10.8734   21.3558   17.1164 N   0  0  0  0  0  0  0  0  0  0  0  0
   11.7062   21.5230   17.6141 H   0  0  0  0  0  0  0  0  0  0  0  0
   10.8860   20.7874   16.3126 H   0  0  0  0  0  0  0  0  0  0  0  0
 23 24  2  0  0  0
 23 22  1  0  0  0
 10  9  1  0  0  0
 24 25  1  0  0  0
 22 20  2  0  0  0
 12 11  1  0  0  0
 13 11  1  0  0  0
 13  8  1  0  0  0
 13 16  1  0  0  0
  9  7  1  0  0  0
  9 11  1  0  0  0
 25 16  1  0  0  0
 25 19  2  0  0  0
  7  8  1  0  0  0
  7  6  1  0  0  0
 20 19  1  0  0  0
 20 21  1  0  0  0
 16 17  1  0  0  0
  5  6  1  0  0  0
  5  1  1  0  0  0
 31 29  2  0  0  0
  3  1  2  0  0  0
 19 18  1  0  0  0
  1  2  1  0  0  0
  1 28  1  0  0  0
 17 18  2  0  0  0
 29 30  1  0  0  0
 29 28  1  0  0  0
 29 32  1  0  0  0
 32 33  1  0  0  0
 33 34  1  0  0  0
 34 35  1  0  0  0
 34 36  1  0  0  0
 35 40  1  0  0  0
 36 37  1  0  0  0
 36 38  1  0  0  0
 40 38  1  0  0  0
 40 43  1  0  0  0
 48 43  2  0  0  0
 48 47  1  0  0  0
 38 39  1  0  0  0
 43 44  1  0  0  0
 47 46  2  0  0  0
 44 45  2  0  0  0
 46 45  1  0  0  0
 45 49  1  0  0  0
 49 50  2  0  0  0
 49 51  1  0  0  0
  2  4  1  0  0  0
 10 14  1  0  0  0
 12 15  1  0  0  0
 21 26  1  0  0  0
 21 27  1  0  0  0
 37 41  1  0  0  0
 39 42  1  0  0  0
 51 52  1  0  0  0
 51 53  1  0  0  0
M  CHG 1  30  -1
M  CHG 1  43   1
M  END
> <minimizedAffinity>
-10.66807

$$$$
3WGG_8NA_A_301


 53 57  0  0  0  0  0  0  0  0999 V2000
    5.3020   25.8593   13.4777 P   0  0  0  0  0  0  0  0  0  0  0  0
    5.0912   27.3531   13.3683 O   0  0  0  0  0  0  0  0  0  0  0  0
    6.5034   25.1955   12.8257 O   0  0  0  0  0  0  0  0  0  0  0  0
    5.0304   27.6034   12.4332 H   0  0  0  0  0  0  0  0  0  0  0  0
    3.9328   25.1320   13.0333 O   0  0  0  0  0  0  0  0  0  0  0  0
    3.7910   23.7274   12.8176 C   0  0  0  0  0  0  0  0  0  0  0  0
    2.4961   23.6216   12.0240 C   0  0  0  0  0  0  0  0  0  0  0  0
    1.8182   22.3927   12.2116 O   0  0  0  0  0  0  0  0  0  0  0  0
    1.5211   24.7105   12.4377 C   0  0  0  0  0  0  0  0  0  0  0  0
    1.1455   25.3403   11.2049 O   0  0  0  0  0  0  0  0  0  0  0  0
    0.3547   23.9306   13.0714 C   0  0  0  0  0  0  0  0  0  0  0  0
   -0.9108   24.5278   12.7558 O   0  0  0  0  0  0  0  0  0  0  0  0
    0.4267   22.6311   12.3204 C   0  0  0  0  0  0  0  0  0  0  0  0
    0.8209   24.6689   10.5846 H   0  0  0  0  0  0  0  0  0  0  0  0
   -1.0070   24.5917   11.7927 H   0  0  0  0  0  0  0  0  0  0  0  0
   -0.0794   21.4737   13.0524 N   0  0  0  0  0  0  0  0  0  0  0  0
   -0.3411   21.3378   14.3715 C   0  0  0  0  0  0  0  0  0  0  0  0
   -0.7175   20.0503   14.5812 N   0  0  0  0  0  0  0  0  0  0  0  0
   -0.7066   19.4207   13.3778 C   0  0  0  0  0  0  0  0  0  0  0  0
   -1.0102   18.1405   12.9393 C   0  0  0  0  0  0  0  0  0  0  0  0
   -1.4276   17.1900   13.8025 N   0  0  0  0  0  0  0  0  0  0  0  0
   -0.8956   17.8488   11.6383 N   0  0  0  0  0  0  0  0  0  0  0  0
   -0.5227   18.7585   10.7199 C   0  0  0  0  0  0  0  0  0  0  0  0
   -0.2584   20.0022   11.0975 N   0  0  0  0  0  0  0  0  0  0  0  0
   -0.3292   20.3395   12.4118 C   0  0  0  0  0  0  0  0  0  0  0  0
   -1.6390   16.2860   13.4747 H   0  0  0  0  0  0  0  0  0  0  0  0
   -1.5205   17.4008   14.7596 H   0  0  0  0  0  0  0  0  0  0  0  0
    5.3948   25.5123   15.0769 O   0  0  0  0  0  0  0  0  0  0  0  0
    4.5399   26.3614   16.1582 P   0  0  0  0  0  0  0  0  0  0  0  0
    3.0897   26.0139   16.0176 O   0  0  0  0  0  0  0  0  0  0  0  0
    4.8886   27.8332   16.0635 O   0  0  0  0  0  0  0  0  0  0  0  0
    5.0091   25.7130   17.5702 O   0  0  0  0  0  0  0  0  0  0  0  0
    5.7169   24.4660   17.7095 C   0  0  0  0  0  0  0  0  0  0  0  0
    7.1190   24.7069   18.3025 C   0  0  0  0  0  0  0  0  0  0  0  0
    7.3772   23.7512   19.3571 O   0  0  0  0  0  0  0  0  0  0  0  0
    8.2688   24.5235   17.3337 C   0  0  0  0  0  0  0  0  0  0  0  0
    9.3504   25.4060   17.7256 O   0  0  0  0  0  0  0  0  0  0  0  0
    8.7380   23.1068   17.5930 C   0  0  0  0  0  0  0  0  0  0  0  0
   10.1279   23.1218   17.3288 O   0  0  0  0  0  0  0  0  0  0  0  0
    8.4283   22.8229   19.0688 C   0  0  0  0  0  0  0  0  0  0  0  0
    9.5975   25.2257   18.6461 H   0  0  0  0  0  0  0  0  0  0  0  0
   10.5527   23.8051   17.8708 H   0  0  0  0  0  0  0  0  0  0  0  0
    9.5272   23.1325   20.0411 N   0  0  0  0  0  0  0  0  0  0  0  0
   10.5686   22.2418   20.2084 C   0  0  0  0  0  0  0  0  0  0  0  0
   11.5942   22.4339   21.0636 C   0  0  0  0  0  0  0  0  0  0  0  0
   11.6360   23.6648   21.9517 C   0  0  0  0  0  0  0  0  0  0  0  0
   10.4190   24.5496   21.7279 C   0  0  0  0  0  0  0  0  0  0  0  0
    9.4588   24.2645   20.8331 C   0  0  0  0  0  0  0  0  0  0  0  0
   12.6469   21.4112   21.1271 C   0  0  0  0  0  0  0  0  0  0  0  0
   13.4870   21.4325   22.0234 O   0  0  0  0  0  0  0  0  0  0  0  0
   12.6613   20.4994   20.1540 N   0  0  0  0  0  0  0  0  0  0  0  0
   11.9698   20.5161   19.4535 H   0  0  0  0  0  0  0  0  0  0  0  0
   13.3635   19.8096   20.1362 H   0  0  0  0  0  0  0  0  0  0  0  0
 23 24  2  0  0  0
 23 22  1  0  0  0
 10  9  1  0  0  0
 24 25  1  0  0  0
 22 20  2  0  0  0
 12 11  1  0  0  0
 13 11  1  0  0  0
 13  8  1  0  0  0
 13 16  1  0  0  0
  9  7  1  0  0  0
  9 11  1  0  0  0
 25 16  1  0  0  0
 25 19  2  0  0  0
  7  8  1  0  0  0
  7  6  1  0  0  0
 20 19  1  0  0  0
 20 21  1  0  0  0
 16 17  1  0  0  0
  5  6  1  0  0  0
  5  1  1  0  0  0
 31 29  2  0  0  0
  3  1  2  0  0  0
 19 18  1  0  0  0
  1  2  1  0  0  0
  1 28  1  0  0  0
 17 18  2  0  0  0
 29 30  1  0  0  0
 29 28  1  0  0  0
 29 32  1  0  0  0
 32 33  1  0  0  0
 33 34  1  0  0  0
 34 35  1  0  0  0
 34 36  1  0  0  0
 35 40  1  0  0  0
 36 37  1  0  0  0
 36 38  1  0  0  0
 40 38  1  0  0  0
 40 43  1  0  0  0
 48 43  2  0  0  0
 48 47  1  0  0  0
 38 39  1  0  0  0
 43 44  1  0  0  0
 47 46  2  0  0  0
 44 45  2  0  0  0
 46 45  1  0  0  0
 45 49  1  0  0  0
 49 50  2  0  0  0
 49 51  1  0  0  0
  2  4  1  0  0  0
 10 14  1  0  0  0
 12 15  1  0  0  0
 21 26  1  0  0  0
 21 27  1  0  0  0
 37 41  1  0  0  0
 39 42  1  0  0  0
 51 52  1  0  0  0
 51 53  1  0  0  0
M  CHG 1  30  -1
M  CHG 1  43   1
M  END
> <minimizedAffinity>
-10.58980

$$$$
3WGG_8NA_A_301


 53 57  0  0  0  0  0  0  0  0999 V2000
    3.4300   27.0977   16.4797 P   0  0  0  0  0  0  0  0  0  0  0  0
    4.9331   26.9965   16.6151 O   0  0  0  0  0  0  0  0  0  0  0  0
    2.5505   25.8716   16.6592 O   0  0  0  0  0  0  0  0  0  0  0  0
    5.2734   26.3560   15.9710 H   0  0  0  0  0  0  0  0  0  0  0  0
    3.1072   27.8363   15.0828 O   0  0  0  0  0  0  0  0  0  0  0  0
    2.1707   27.3668   14.1121 C   0  0  0  0  0  0  0  0  0  0  0  0
    3.0333   26.5598   13.1517 C   0  0  0  0  0  0  0  0  0  0  0  0
    4.3326   26.2939   13.6477 O   0  0  0  0  0  0  0  0  0  0  0  0
    2.4029   25.2069   12.8693 C   0  0  0  0  0  0  0  0  0  0  0  0
    2.3554   25.1272   11.4380 O   0  0  0  0  0  0  0  0  0  0  0  0
    3.4048   24.2070   13.4747 C   0  0  0  0  0  0  0  0  0  0  0  0
    3.5200   23.0249   12.6701 O   0  0  0  0  0  0  0  0  0  0  0  0
    4.6963   24.9620   13.3335 C   0  0  0  0  0  0  0  0  0  0  0  0
    3.2410   25.2862   11.0757 H   0  0  0  0  0  0  0  0  0  0  0  0
    3.7669   23.2725   11.7652 H   0  0  0  0  0  0  0  0  0  0  0  0
    5.7128   24.6242   14.3255 N   0  0  0  0  0  0  0  0  0  0  0  0
    5.7314   23.6200   15.2300 C   0  0  0  0  0  0  0  0  0  0  0  0
    6.8517   23.7703   15.9821 N   0  0  0  0  0  0  0  0  0  0  0  0
    7.5194   24.8537   15.5078 C   0  0  0  0  0  0  0  0  0  0  0  0
    8.7106   25.4878   15.8281 C   0  0  0  0  0  0  0  0  0  0  0  0
    9.4958   25.0305   16.8266 N   0  0  0  0  0  0  0  0  0  0  0  0
    9.0892   26.5638   15.1282 N   0  0  0  0  0  0  0  0  0  0  0  0
    8.3739   27.0483   14.0969 C   0  0  0  0  0  0  0  0  0  0  0  0
    7.2472   26.4466   13.7394 N   0  0  0  0  0  0  0  0  0  0  0  0
    6.8039   25.3697   14.4393 C   0  0  0  0  0  0  0  0  0  0  0  0
   10.3383   25.4924   17.0411 H   0  0  0  0  0  0  0  0  0  0  0  0
    9.2258   24.2351   17.3402 H   0  0  0  0  0  0  0  0  0  0  0  0
    2.9292   28.1916   17.5928 O   0  0  0  0  0  0  0  0  0  0  0  0
    3.9994   28.9807   18.5165 P   0  0  0  0  0  0  0  0  0  0  0  0
    3.2664   29.7133   19.5979 O   0  0  0  0  0  0  0  0  0  0  0  0
    4.9253   29.8128   17.6521 O   0  0  0  0  0  0  0  0  0  0  0  0
    4.7841   27.7717   19.2628 O   0  0  0  0  0  0  0  0  0  0  0  0
    4.1677   26.8013   20.1308 C   0  0  0  0  0  0  0  0  0  0  0  0
    5.0768   25.5666   20.2884 C   0  0  0  0  0  0  0  0  0  0  0  0
    6.3647   25.8244   19.6827 O   0  0  0  0  0  0  0  0  0  0  0  0
    5.3991   25.1817   21.7175 C   0  0  0  0  0  0  0  0  0  0  0  0
    5.5974   23.7467   21.7776 O   0  0  0  0  0  0  0  0  0  0  0  0
    6.7468   25.8253   21.9703 C   0  0  0  0  0  0  0  0  0  0  0  0
    7.4008   24.9694   22.8878 O   0  0  0  0  0  0  0  0  0  0  0  0
    7.4548   25.8712   20.6097 C   0  0  0  0  0  0  0  0  0  0  0  0
    6.2907   23.4895   21.1498 H   0  0  0  0  0  0  0  0  0  0  0  0
    7.4321   24.0703   22.5252 H   0  0  0  0  0  0  0  0  0  0  0  0
    8.3230   24.6933   20.2819 N   0  0  0  0  0  0  0  0  0  0  0  0
    7.7789   23.5919   19.6521 C   0  0  0  0  0  0  0  0  0  0  0  0
    8.4814   22.4872   19.3257 C   0  0  0  0  0  0  0  0  0  0  0  0
    9.9521   22.3754   19.6863 C   0  0  0  0  0  0  0  0  0  0  0  0
   10.4365   23.6153   20.4226 C   0  0  0  0  0  0  0  0  0  0  0  0
    9.6465   24.6695   20.6837 C   0  0  0  0  0  0  0  0  0  0  0  0
    7.7788   21.3946   18.6396 C   0  0  0  0  0  0  0  0  0  0  0  0
    7.1397   20.5625   19.2792 O   0  0  0  0  0  0  0  0  0  0  0  0
    7.9036   21.3362   17.3132 N   0  0  0  0  0  0  0  0  0  0  0  0
    8.4245   22.0227   16.8371 H   0  0  0  0  0  0  0  0  0  0  0  0
    7.4749   20.6066   16.8101 H   0  0  0  0  0  0  0  0  0  0  0  0
 23 24  2  0  0  0
 23 22  1  0  0  0
 10  9  1  0  0  0
 24 25  1  0  0  0
 22 20  2  0  0  0
 12 11  1  0  0  0
 13 11  1  0  0  0
 13  8  1  0  0  0
 13 16  1  0  0  0
  9  7  1  0  0  0
  9 11  1  0  0  0
 25 16  1  0  0  0
 25 19  2  0  0  0
  7  8  1  0  0  0
  7  6  1  0  0  0
 20 19  1  0  0  0
 20 21  1  0  0  0
 16 17  1  0  0  0
  5  6  1  0  0  0
  5  1  1  0  0  0
 31 29  2  0  0  0
  3  1  2  0  0  0
 19 18  1  0  0  0
  1  2  1  0  0  0
  1 28  1  0  0  0
 17 18  2  0  0  0
 29 30  1  0  0  0
 29 28  1  0  0  0
 29 32  1  0  0  0
 32 33  1  0  0  0
 33 34  1  0  0  0
 34 35  1  0  0  0
 34 36  1  0  0  0
 35 40  1  0  0  0
 36 37  1  0  0  0
 36 38  1  0  0  0
 40 38  1  0  0  0
 40 43  1  0  0  0
 48 43  2  0  0  0
 48 47  1  0  0  0
 38 39  1  0  0  0
 43 44  1  0  0  0
 47 46  2  0  0  0
 44 45  2  0  0  0
 46 45  1  0  0  0
 45 49  1  0  0  0
 49 50  2  0  0  0
 49 51  1  0  0  0
  2  4  1  0  0  0
 10 14  1  0  0  0
 12 15  1  0  0  0
 21 26  1  0  0  0
 21 27  1  0  0  0
 37 41  1  0  0  0
 39 42  1  0  0  0
 51 52  1  0  0  0
 51 53  1  0  0  0
M  CHG 1  30  -1
M  CHG 1  43   1
M  END
> <minimizedAffinity>
-10.17890

$$$$
3WGG_8NA_A_301


 53 57  0  0  0  0  0  0  0  0999 V2000
    5.6759   23.1317   20.9209 P   0  0  0  0  0  0  0  0  0  0  0  0
    6.3507   23.9877   21.9696 O   0  0  0  0  0  0  0  0  0  0  0  0
    4.3800   22.4016   21.2316 O   0  0  0  0  0  0  0  0  0  0  0  0
    6.5570   23.4446   22.7464 H   0  0  0  0  0  0  0  0  0  0  0  0
    6.7785   22.1162   20.3259 O   0  0  0  0  0  0  0  0  0  0  0  0
    8.0750   21.9041   20.8862 C   0  0  0  0  0  0  0  0  0  0  0  0
    9.0148   22.4176   19.8041 C   0  0  0  0  0  0  0  0  0  0  0  0
    8.4287   22.4473   18.5155 O   0  0  0  0  0  0  0  0  0  0  0  0
    9.4528   23.8410   20.1029 C   0  0  0  0  0  0  0  0  0  0  0  0
   10.8848   23.7958   20.0331 O   0  0  0  0  0  0  0  0  0  0  0  0
    8.8398   24.6581   18.9510 C   0  0  0  0  0  0  0  0  0  0  0  0
    9.7186   25.7090   18.5254 O   0  0  0  0  0  0  0  0  0  0  0  0
    8.8099   23.6370   17.8489 C   0  0  0  0  0  0  0  0  0  0  0  0
   11.1552   23.4200   19.1807 H   0  0  0  0  0  0  0  0  0  0  0  0
   10.5770   25.3319   18.2768 H   0  0  0  0  0  0  0  0  0  0  0  0
    7.7614   23.8427   16.8541 N   0  0  0  0  0  0  0  0  0  0  0  0
    6.6026   23.1705   16.6746 C   0  0  0  0  0  0  0  0  0  0  0  0
    6.0022   23.6823   15.5696 N   0  0  0  0  0  0  0  0  0  0  0  0
    6.7927   24.6828   15.1020 C   0  0  0  0  0  0  0  0  0  0  0  0
    6.7156   25.5807   14.0478 C   0  0  0  0  0  0  0  0  0  0  0  0
    5.6619   25.5742   13.2038 N   0  0  0  0  0  0  0  0  0  0  0  0
    7.6981   26.4724   13.8730 N   0  0  0  0  0  0  0  0  0  0  0  0
    8.7563   26.5587   14.6992 C   0  0  0  0  0  0  0  0  0  0  0  0
    8.8462   25.7395   15.7385 N   0  0  0  0  0  0  0  0  0  0  0  0
    7.8902   24.7954   15.9403 C   0  0  0  0  0  0  0  0  0  0  0  0
    5.6226   26.2184   12.4604 H   0  0  0  0  0  0  0  0  0  0  0  0
    4.9327   24.9252   13.3317 H   0  0  0  0  0  0  0  0  0  0  0  0
    5.3590   24.1113   19.6456 O   0  0  0  0  0  0  0  0  0  0  0  0
    5.1851   25.7076   19.8522 P   0  0  0  0  0  0  0  0  0  0  0  0
    6.4978   26.2926   20.2742 O   0  0  0  0  0  0  0  0  0  0  0  0
    4.0023   25.9937   20.7556 O   0  0  0  0  0  0  0  0  0  0  0  0
    4.9380   26.2369   18.3379 O   0  0  0  0  0  0  0  0  0  0  0  0
    3.7532   26.9211   17.8871 C   0  0  0  0  0  0  0  0  0  0  0  0
    3.6748   26.9037   16.3479 C   0  0  0  0  0  0  0  0  0  0  0  0
    2.3515   26.4980   15.9280 O   0  0  0  0  0  0  0  0  0  0  0  0
    3.8925   28.2438   15.6762 C   0  0  0  0  0  0  0  0  0  0  0  0
    4.4889   28.0180   14.3740 O   0  0  0  0  0  0  0  0  0  0  0  0
    2.4889   28.7603   15.4362 C   0  0  0  0  0  0  0  0  0  0  0  0
    2.5756   29.5363   14.2562 O   0  0  0  0  0  0  0  0  0  0  0  0
    1.6072   27.5179   15.2532 C   0  0  0  0  0  0  0  0  0  0  0  0
    3.9232   27.4225   13.8581 H   0  0  0  0  0  0  0  0  0  0  0  0
    2.9468   28.9965   13.5408 H   0  0  0  0  0  0  0  0  0  0  0  0
    1.4366   27.0364   13.8433 N   0  0  0  0  0  0  0  0  0  0  0  0
    1.9781   25.8259   13.4596 C   0  0  0  0  0  0  0  0  0  0  0  0
    1.8803   25.3179   12.2135 C   0  0  0  0  0  0  0  0  0  0  0  0
    1.1811   26.1000   11.1158 C   0  0  0  0  0  0  0  0  0  0  0  0
    0.6708   27.4379   11.6294 C   0  0  0  0  0  0  0  0  0  0  0  0
    0.8134   27.8378   12.9035 C   0  0  0  0  0  0  0  0  0  0  0  0
    2.4888   24.0075   11.9477 C   0  0  0  0  0  0  0  0  0  0  0  0
    3.7044   23.8995   11.8046 O   0  0  0  0  0  0  0  0  0  0  0  0
    1.6596   22.9693   11.8343 N   0  0  0  0  0  0  0  0  0  0  0  0
    0.6911   23.0972   11.9562 H   0  0  0  0  0  0  0  0  0  0  0  0
    2.0160   22.0748   11.6287 H   0  0  0  0  0  0  0  0  0  0  0  0
 23 24  2  0  0  0
 23 22  1  0  0  0
 10  9  1  0  0  0
 24 25  1  0  0  0
 22 20  2  0  0  0
 12 11  1  0  0  0
 13 11  1  0  0  0
 13  8  1  0  0  0
 13 16  1  0  0  0
  9  7  1  0  0  0
  9 11  1  0  0  0
 25 16  1  0  0  0
 25 19  2  0  0  0
  7  8  1  0  0  0
  7  6  1  0  0  0
 20 19  1  0  0  0
 20 21  1  0  0  0
 16 17  1  0  0  0
  5  6  1  0  0  0
  5  1  1  0  0  0
 31 29  2  0  0  0
  3  1  2  0  0  0
 19 18  1  0  0  0
  1  2  1  0  0  0
  1 28  1  0  0  0
 17 18  2  0  0  0
 29 30  1  0  0  0
 29 28  1  0  0  0
 29 32  1  0  0  0
 32 33  1  0  0  0
 33 34  1  0  0  0
 34 35  1  0  0  0
 34 36  1  0  0  0
 35 40  1  0  0  0
 36 37  1  0  0  0
 36 38  1  0  0  0
 40 38  1  0  0  0
 40 43  1  0  0  0
 48 43  2  0  0  0
 48 47  1  0  0  0
 38 39  1  0  0  0
 43 44  1  0  0  0
 47 46  2  0  0  0
 44 45  2  0  0  0
 46 45  1  0  0  0
 45 49  1  0  0  0
 49 50  2  0  0  0
 49 51  1  0  0  0
  2  4  1  0  0  0
 10 14  1  0  0  0
 12 15  1  0  0  0
 21 26  1  0  0  0
 21 27  1  0  0  0
 37 41  1  0  0  0
 39 42  1  0  0  0
 51 52  1  0  0  0
 51 53  1  0  0  0
M  CHG 1  30  -1
M  CHG 1  43   1
M  END
> <minimizedAffinity>
-10.16712

$$$$
3WGG_8NA_A_301


 53 57  0  0  0  0  0  0  0  0999 V2000
    5.9089   25.5594   13.9337 P   0  0  0  0  0  0  0  0  0  0  0  0
    5.4899   26.3448   15.1566 O   0  0  0  0  0  0  0  0  0  0  0  0
    6.8656   26.1590   12.9167 O   0  0  0  0  0  0  0  0  0  0  0  0
    5.0647   27.1716   14.8798 H   0  0  0  0  0  0  0  0  0  0  0  0
    4.5728   25.0144   13.2134 O   0  0  0  0  0  0  0  0  0  0  0  0
    3.7645   23.9433   13.7023 C   0  0  0  0  0  0  0  0  0  0  0  0
    2.7775   23.7008   12.5687 C   0  0  0  0  0  0  0  0  0  0  0  0
    2.1169   22.4513   12.6535 O   0  0  0  0  0  0  0  0  0  0  0  0
    1.6864   24.7576   12.5701 C   0  0  0  0  0  0  0  0  0  0  0  0
    1.6834   25.2690   11.2300 O   0  0  0  0  0  0  0  0  0  0  0  0
    0.4096   23.9595   12.8910 C   0  0  0  0  0  0  0  0  0  0  0  0
   -0.7190   24.4546   12.1568 O   0  0  0  0  0  0  0  0  0  0  0  0
    0.7512   22.6137   12.3166 C   0  0  0  0  0  0  0  0  0  0  0  0
    1.5863   24.5345   10.6038 H   0  0  0  0  0  0  0  0  0  0  0  0
   -0.5192   24.4398   11.2078 H   0  0  0  0  0  0  0  0  0  0  0  0
    0.0856   21.4867   12.9635 N   0  0  0  0  0  0  0  0  0  0  0  0
   -0.3016   21.3401   14.2502 C   0  0  0  0  0  0  0  0  0  0  0  0
   -0.8037   20.0857   14.3837 N   0  0  0  0  0  0  0  0  0  0  0  0
   -0.7409   19.4892   13.1652 C   0  0  0  0  0  0  0  0  0  0  0  0
   -1.1131   18.2525   12.6597 C   0  0  0  0  0  0  0  0  0  0  0  0
   -1.6845   17.3203   13.4516 N   0  0  0  0  0  0  0  0  0  0  0  0
   -0.9099   17.9858   11.3640 N   0  0  0  0  0  0  0  0  0  0  0  0
   -0.3814   18.8827   10.5119 C   0  0  0  0  0  0  0  0  0  0  0  0
   -0.0459   20.0881   10.9522 N   0  0  0  0  0  0  0  0  0  0  0  0
   -0.2029   20.3960   12.2662 C   0  0  0  0  0  0  0  0  0  0  0  0
   -1.9427   16.4473   13.0769 H   0  0  0  0  0  0  0  0  0  0  0  0
   -1.8429   17.5135   14.4039 H   0  0  0  0  0  0  0  0  0  0  0  0
    6.6155   24.1837   14.4765 O   0  0  0  0  0  0  0  0  0  0  0  0
    7.1158   24.0611   16.0114 P   0  0  0  0  0  0  0  0  0  0  0  0
    7.6609   25.3835   16.4558 O   0  0  0  0  0  0  0  0  0  0  0  0
    8.0381   22.8688   16.1688 O   0  0  0  0  0  0  0  0  0  0  0  0
    5.7243   23.8673   16.8241 O   0  0  0  0  0  0  0  0  0  0  0  0
    5.3606   24.5859   18.0185 C   0  0  0  0  0  0  0  0  0  0  0  0
    5.7767   23.7912   19.2719 C   0  0  0  0  0  0  0  0  0  0  0  0
    6.9101   24.4295   19.9044 O   0  0  0  0  0  0  0  0  0  0  0  0
    4.7282   23.7115   20.3621 C   0  0  0  0  0  0  0  0  0  0  0  0
    4.8985   22.4626   21.0787 O   0  0  0  0  0  0  0  0  0  0  0  0
    5.1122   24.8242   21.3155 C   0  0  0  0  0  0  0  0  0  0  0  0
    4.7111   24.3721   22.5947 O   0  0  0  0  0  0  0  0  0  0  0  0
    6.6353   24.9717   21.2006 C   0  0  0  0  0  0  0  0  0  0  0  0
    5.8050   22.4063   21.4192 H   0  0  0  0  0  0  0  0  0  0  0  0
    5.1196   23.5111   22.7761 H   0  0  0  0  0  0  0  0  0  0  0  0
    7.4476   24.1606   22.1654 N   0  0  0  0  0  0  0  0  0  0  0  0
    7.5062   24.5288   23.4946 C   0  0  0  0  0  0  0  0  0  0  0  0
    8.2156   23.8638   24.4300 C   0  0  0  0  0  0  0  0  0  0  0  0
    9.0527   22.6562   24.0474 C   0  0  0  0  0  0  0  0  0  0  0  0
    8.9609   22.3700   22.5561 C   0  0  0  0  0  0  0  0  0  0  0  0
    8.2068   23.0957   21.7145 C   0  0  0  0  0  0  0  0  0  0  0  0
    8.1739   24.3559   25.8136 C   0  0  0  0  0  0  0  0  0  0  0  0
    7.4867   23.7881   26.6593 O   0  0  0  0  0  0  0  0  0  0  0  0
    8.8795   25.4545   26.0845 N   0  0  0  0  0  0  0  0  0  0  0  0
    9.4181   25.8801   25.3788 H   0  0  0  0  0  0  0  0  0  0  0  0
    8.8619   25.8400   26.9902 H   0  0  0  0  0  0  0  0  0  0  0  0
 23 24  2  0  0  0
 23 22  1  0  0  0
 10  9  1  0  0  0
 24 25  1  0  0  0
 22 20  2  0  0  0
 12 11  1  0  0  0
 13 11  1  0  0  0
 13  8  1  0  0  0
 13 16  1  0  0  0
  9  7  1  0  0  0
  9 11  1  0  0  0
 25 16  1  0  0  0
 25 19  2  0  0  0
  7  8  1  0  0  0
  7  6  1  0  0  0
 20 19  1  0  0  0
 20 21  1  0  0  0
 16 17  1  0  0  0
  5  6  1  0  0  0
  5  1  1  0  0  0
 31 29  2  0  0  0
  3  1  2  0  0  0
 19 18  1  0  0  0
  1  2  1  0  0  0
  1 28  1  0  0  0
 17 18  2  0  0  0
 29 30  1  0  0  0
 29 28  1  0  0  0
 29 32  1  0  0  0
 32 33  1  0  0  0
 33 34  1  0  0  0
 34 35  1  0  0  0
 34 36  1  0  0  0
 35 40  1  0  0  0
 36 37  1  0  0  0
 36 38  1  0  0  0
 40 38  1  0  0  0
 40 43  1  0  0  0
 48 43  2  0  0  0
 48 47  1  0  0  0
 38 39  1  0  0  0
 43 44  1  0  0  0
 47 46  2  0  0  0
 44 45  2  0  0  0
 46 45  1  0  0  0
 45 49  1  0  0  0
 49 50  2  0  0  0
 49 51  1  0  0  0
  2  4  1  0  0  0
 10 14  1  0  0  0
 12 15  1  0  0  0
 21 26  1  0  0  0
 21 27  1  0  0  0
 37 41  1  0  0  0
 39 42  1  0  0  0
 51 52  1  0  0  0
 51 53  1  0  0  0
M  CHG 1  30  -1
M  CHG 1  43   1
M  END
> <minimizedAffinity>
-10.12463

$$$$
3WGG_8NA_A_301


 53 57  0  0  0  0  0  0  0  0999 V2000
    6.2517   25.4614   14.1243 P   0  0  0  0  0  0  0  0  0  0  0  0
    5.9008   25.9093   15.5258 O   0  0  0  0  0  0  0  0  0  0  0  0
    7.1275   26.3236   13.2306 O   0  0  0  0  0  0  0  0  0  0  0  0
    5.4432   26.7637   15.4871 H   0  0  0  0  0  0  0  0  0  0  0  0
    4.8808   25.0640   13.3735 O   0  0  0  0  0  0  0  0  0  0  0  0
    3.8957   24.1725   13.8974 C   0  0  0  0  0  0  0  0  0  0  0  0
    3.0134   23.8752   12.6928 C   0  0  0  0  0  0  0  0  0  0  0  0
    2.3230   22.6427   12.7896 O   0  0  0  0  0  0  0  0  0  0  0  0
    1.9480   24.9455   12.5289 C   0  0  0  0  0  0  0  0  0  0  0  0
    2.0793   25.3738   11.1663 O   0  0  0  0  0  0  0  0  0  0  0  0
    0.6313   24.1867   12.7757 C   0  0  0  0  0  0  0  0  0  0  0  0
   -0.4143   24.6519   11.9108 O   0  0  0  0  0  0  0  0  0  0  0  0
    0.9979   22.8035   12.3171 C   0  0  0  0  0  0  0  0  0  0  0  0
    2.0262   24.6039   10.5787 H   0  0  0  0  0  0  0  0  0  0  0  0
   -0.1277   24.5762   10.9872 H   0  0  0  0  0  0  0  0  0  0  0  0
    0.2530   21.7279   12.9649 N   0  0  0  0  0  0  0  0  0  0  0  0
   -0.1829   21.6309   14.2407 C   0  0  0  0  0  0  0  0  0  0  0  0
   -0.7548   20.4078   14.3835 N   0  0  0  0  0  0  0  0  0  0  0  0
   -0.6843   19.7813   13.1806 C   0  0  0  0  0  0  0  0  0  0  0  0
   -1.1049   18.5546   12.6889 C   0  0  0  0  0  0  0  0  0  0  0  0
   -1.7502   17.6718   13.4806 N   0  0  0  0  0  0  0  0  0  0  0  0
   -0.8744   18.2483   11.4066 N   0  0  0  0  0  0  0  0  0  0  0  0
   -0.2718   19.0969   10.5541 C   0  0  0  0  0  0  0  0  0  0  0  0
    0.1126   20.2927   10.9801 N   0  0  0  0  0  0  0  0  0  0  0  0
   -0.0702   20.6382   12.2813 C   0  0  0  0  0  0  0  0  0  0  0  0
   -2.0421   16.8052   13.1158 H   0  0  0  0  0  0  0  0  0  0  0  0
   -1.9288   17.8945   14.4228 H   0  0  0  0  0  0  0  0  0  0  0  0
    7.0178   24.0196   14.2683 O   0  0  0  0  0  0  0  0  0  0  0  0
    7.1686   23.3040   15.7127 P   0  0  0  0  0  0  0  0  0  0  0  0
    7.6398   21.8961   15.5147 O   0  0  0  0  0  0  0  0  0  0  0  0
    5.8975   23.4781   16.5196 O   0  0  0  0  0  0  0  0  0  0  0  0
    8.4229   24.0954   16.3721 O   0  0  0  0  0  0  0  0  0  0  0  0
    9.4076   23.5017   17.2398 C   0  0  0  0  0  0  0  0  0  0  0  0
    9.2125   23.9904   18.6884 C   0  0  0  0  0  0  0  0  0  0  0  0
    8.4111   23.0375   19.4246 O   0  0  0  0  0  0  0  0  0  0  0  0
   10.4842   24.1247   19.5002 C   0  0  0  0  0  0  0  0  0  0  0  0
   10.3038   25.1856   20.4721 O   0  0  0  0  0  0  0  0  0  0  0  0
   10.5589   22.8245   20.2736 C   0  0  0  0  0  0  0  0  0  0  0  0
   11.2038   23.1522   21.4896 O   0  0  0  0  0  0  0  0  0  0  0  0
    9.1069   22.3759   20.4865 C   0  0  0  0  0  0  0  0  0  0  0  0
    9.5242   24.9957   21.0170 H   0  0  0  0  0  0  0  0  0  0  0  0
   10.7201   23.8690   21.9291 H   0  0  0  0  0  0  0  0  0  0  0  0
    8.4562   22.8400   21.7553 N   0  0  0  0  0  0  0  0  0  0  0  0
    8.9062   22.3675   22.9718 C   0  0  0  0  0  0  0  0  0  0  0  0
    8.3776   22.7241   24.1608 C   0  0  0  0  0  0  0  0  0  0  0  0
    7.1875   23.6651   24.2233 C   0  0  0  0  0  0  0  0  0  0  0  0
    6.7385   24.0816   22.8308 C   0  0  0  0  0  0  0  0  0  0  0  0
    7.3525   23.6726   21.7085 C   0  0  0  0  0  0  0  0  0  0  0  0
    8.9676   22.1580   25.3813 C   0  0  0  0  0  0  0  0  0  0  0  0
   10.1219   21.7370   25.3813 O   0  0  0  0  0  0  0  0  0  0  0  0
    8.1820   22.0930   26.4569 N   0  0  0  0  0  0  0  0  0  0  0  0
    7.2622   22.4417   26.4165 H   0  0  0  0  0  0  0  0  0  0  0  0
    8.5218   21.6963   27.2914 H   0  0  0  0  0  0  0  0  0  0  0  0
 23 24  2  0  0  0
 23 22  1  0  0  0
 10  9  1  0  0  0
 24 25  1  0  0  0
 22 20  2  0  0  0
 12 11  1  0  0  0
 13 11  1  0  0  0
 13  8  1  0  0  0
 13 16  1  0  0  0
  9  7  1  0  0  0
  9 11  1  0  0  0
 25 16  1  0  0  0
 25 19  2  0  0  0
  7  8  1  0  0  0
  7  6  1  0  0  0
 20 19  1  0  0  0
 20 21  1  0  0  0
 16 17  1  0  0  0
  5  6  1  0  0  0
  5  1  1  0  0  0
 31 29  2  0  0  0
  3  1  2  0  0  0
 19 18  1  0  0  0
  1  2  1  0  0  0
  1 28  1  0  0  0
 17 18  2  0  0  0
 29 30  1  0  0  0
 29 28  1  0  0  0
 29 32  1  0  0  0
 32 33  1  0  0  0
 33 34  1  0  0  0
 34 35  1  0  0  0
 34 36  1  0  0  0
 35 40  1  0  0  0
 36 37  1  0  0  0
 36 38  1  0  0  0
 40 38  1  0  0  0
 40 43  1  0  0  0
 48 43  2  0  0  0
 48 47  1  0  0  0
 38 39  1  0  0  0
 43 44  1  0  0  0
 47 46  2  0  0  0
 44 45  2  0  0  0
 46 45  1  0  0  0
 45 49  1  0  0  0
 49 50  2  0  0  0
 49 51  1  0  0  0
  2  4  1  0  0  0
 10 14  1  0  0  0
 12 15  1  0  0  0
 21 26  1  0  0  0
 21 27  1  0  0  0
 37 41  1  0  0  0
 39 42  1  0  0  0
 51 52  1  0  0  0
 51 53  1  0  0  0
M  CHG 1  30  -1
M  CHG 1  43   1
M  END
> <minimizedAffinity>
-9.96150

$$$$
3WGG_8NA_A_301


 53 57  0  0  0  0  0  0  0  0999 V2000
    8.8205   22.0084   18.7863 P   0  0  0  0  0  0  0  0  0  0  0  0
    7.3239   22.2133   18.7082 O   0  0  0  0  0  0  0  0  0  0  0  0
    9.4653   20.7658   18.1952 O   0  0  0  0  0  0  0  0  0  0  0  0
    6.8730   21.4736   19.1446 H   0  0  0  0  0  0  0  0  0  0  0  0
    9.2689   22.2127   20.3219 O   0  0  0  0  0  0  0  0  0  0  0  0
    8.4204   22.7094   21.3577 C   0  0  0  0  0  0  0  0  0  0  0  0
    9.3842   22.9752   22.5058 C   0  0  0  0  0  0  0  0  0  0  0  0
   10.4137   22.0090   22.6133 O   0  0  0  0  0  0  0  0  0  0  0  0
   10.0779   24.3147   22.3268 C   0  0  0  0  0  0  0  0  0  0  0  0
    9.8602   24.9979   23.5691 O   0  0  0  0  0  0  0  0  0  0  0  0
   11.5555   23.9332   22.1239 C   0  0  0  0  0  0  0  0  0  0  0  0
   12.4337   24.8726   22.7596 O   0  0  0  0  0  0  0  0  0  0  0  0
   11.6397   22.6536   22.9071 C   0  0  0  0  0  0  0  0  0  0  0  0
   10.1612   24.4390   24.3025 H   0  0  0  0  0  0  0  0  0  0  0  0
   12.2094   24.9391   23.7009 H   0  0  0  0  0  0  0  0  0  0  0  0
   12.6582   21.7176   22.4401 N   0  0  0  0  0  0  0  0  0  0  0  0
   12.9136   21.2793   21.1873 C   0  0  0  0  0  0  0  0  0  0  0  0
   13.9058   20.3566   21.2733 N   0  0  0  0  0  0  0  0  0  0  0  0
   14.2634   20.2624   22.5801 C   0  0  0  0  0  0  0  0  0  0  0  0
   15.2088   19.5343   23.2869 C   0  0  0  0  0  0  0  0  0  0  0  0
   16.0391   18.6758   22.6574 N   0  0  0  0  0  0  0  0  0  0  0  0
   15.3032   19.6946   24.6122 N   0  0  0  0  0  0  0  0  0  0  0  0
   14.5338   20.5612   25.2957 C   0  0  0  0  0  0  0  0  0  0  0  0
   13.6428   21.3001   24.6481 N   0  0  0  0  0  0  0  0  0  0  0  0
   13.4868   21.1505   23.3068 C   0  0  0  0  0  0  0  0  0  0  0  0
   16.7047   18.1665   23.1741 H   0  0  0  0  0  0  0  0  0  0  0  0
   15.9791   18.5590   21.6817 H   0  0  0  0  0  0  0  0  0  0  0  0
    9.5115   23.2895   18.0327 O   0  0  0  0  0  0  0  0  0  0  0  0
    8.6143   24.5481   17.5510 P   0  0  0  0  0  0  0  0  0  0  0  0
    9.5002   25.5529   16.8811 O   0  0  0  0  0  0  0  0  0  0  0  0
    7.7692   25.0602   18.7002 O   0  0  0  0  0  0  0  0  0  0  0  0
    7.7088   23.9063   16.3667 O   0  0  0  0  0  0  0  0  0  0  0  0
    6.2816   23.7213   16.4289 C   0  0  0  0  0  0  0  0  0  0  0  0
    5.6182   24.2147   15.1281 C   0  0  0  0  0  0  0  0  0  0  0  0
    4.5375   25.1234   15.4418 O   0  0  0  0  0  0  0  0  0  0  0  0
    6.5216   25.0037   14.2029 C   0  0  0  0  0  0  0  0  0  0  0  0
    6.0855   24.7907   12.8366 O   0  0  0  0  0  0  0  0  0  0  0  0
    6.2169   26.4476   14.5444 C   0  0  0  0  0  0  0  0  0  0  0  0
    6.4066   27.1624   13.3382 O   0  0  0  0  0  0  0  0  0  0  0  0
    4.7556   26.4715   15.0123 C   0  0  0  0  0  0  0  0  0  0  0  0
    5.1506   25.0356   12.7537 H   0  0  0  0  0  0  0  0  0  0  0  0
    5.8529   26.7751   12.6423 H   0  0  0  0  0  0  0  0  0  0  0  0
    3.7308   26.7345   13.9496 N   0  0  0  0  0  0  0  0  0  0  0  0
    2.9365   25.7032   13.4898 C   0  0  0  0  0  0  0  0  0  0  0  0
    1.9955   25.8458   12.5336 C   0  0  0  0  0  0  0  0  0  0  0  0
    1.7825   27.1882   11.8568 C   0  0  0  0  0  0  0  0  0  0  0  0
    2.7420   28.2380   12.3969 C   0  0  0  0  0  0  0  0  0  0  0  0
    3.6356   27.9857   13.3672 C   0  0  0  0  0  0  0  0  0  0  0  0
    1.2079   24.6657   12.1524 C   0  0  0  0  0  0  0  0  0  0  0  0
    1.6958   23.5399   12.2180 O   0  0  0  0  0  0  0  0  0  0  0  0
   -0.0285   24.8850   11.7034 N   0  0  0  0  0  0  0  0  0  0  0  0
   -0.3832   25.8026   11.6663 H   0  0  0  0  0  0  0  0  0  0  0  0
   -0.5865   24.1292   11.4091 H   0  0  0  0  0  0  0  0  0  0  0  0
 23 24  2  0  0  0
 23 22  1  0  0  0
 10  9  1  0  0  0
 24 25  1  0  0  0
 22 20  2  0  0  0
 12 11  1  0  0  0
 13 11  1  0  0  0
 13  8  1  0  0  0
 13 16  1  0  0  0
  9  7  1  0  0  0
  9 11  1  0  0  0
 25 16  1  0  0  0
 25 19  2  0  0  0
  7  8  1  0  0  0
  7  6  1  0  0  0
 20 19  1  0  0  0
 20 21  1  0  0  0
 16 17  1  0  0  0
  5  6  1  0  0  0
  5  1  1  0  0  0
 31 29  2  0  0  0
  3  1  2  0  0  0
 19 18  1  0  0  0
  1  2  1  0  0  0
  1 28  1  0  0  0
 17 18  2  0  0  0
 29 30  1  0  0  0
 29 28  1  0  0  0
 29 32  1  0  0  0
 32 33  1  0  0  0
 33 34  1  0  0  0
 34 35  1  0  0  0
 34 36  1  0  0  0
 35 40  1  0  0  0
 36 37  1  0  0  0
 36 38  1  0  0  0
 40 38  1  0  0  0
 40 43  1  0  0  0
 48 43  2  0  0  0
 48 47  1  0  0  0
 38 39  1  0  0  0
 43 44  1  0  0  0
 47 46  2  0  0  0
 44 45  2  0  0  0
 46 45  1  0  0  0
 45 49  1  0  0  0
 49 50  2  0  0  0
 49 51  1  0  0  0
  2  4  1  0  0  0
 10 14  1  0  0  0
 12 15  1  0  0  0
 21 26  1  0  0  0
 21 27  1  0  0  0
 37 41  1  0  0  0
 39 42  1  0  0  0
 51 52  1  0  0  0
 51 53  1  0  0  0
M  CHG 1  30  -1
M  CHG 1  43   1
M  END
> <minimizedAffinity>
-9.91414

$$$$
