3WGG_8NA_A_301
  RCSB PDB12061711223D
Coordinates from PDB:3WGG:A:301 Model:1 without hydrogens
 44 48  0  0  0  0            999 V2000
    4.5600   27.0870   13.9620   P 0  0  0  0  0  0  0  0  0  0  0  0
    3.3900   27.4530   14.8480   O 0  0  0  0  0  0  0  0  0  0  0  0
    5.2650   28.1460   13.1310   O 0  0  0  0  0  0  0  0  0  0  0  0
    4.1140   25.8390   13.0430   O 0  0  0  0  0  0  0  0  0  0  0  0
    3.4710   24.6600   13.5290   C 0  0  0  0  0  0  0  0  0  0  0  0
    2.5820   24.2390   12.3670   C 0  0  0  0  0  0  0  0  0  0  0  0
    2.0220   22.9480   12.5240   O 0  0  0  0  0  0  0  0  0  0  0  0
    1.4100   25.1930   12.2130   C 0  0  0  0  0  0  0  0  0  0  0  0
    1.4510   25.5890   10.8350   O 0  0  0  0  0  0  0  0  0  0  0  0
    0.1850   24.3160   12.5300   C 0  0  0  0  0  0  0  0  0  0  0  0
   -0.9310   24.6480   11.6920   O 0  0  0  0  0  0  0  0  0  0  0  0
    0.6720   22.9620   12.0970   C 0  0  0  0  0  0  0  0  0  0  0  0
    0.0610   21.8390   12.8020   N 0  0  0  0  0  0  0  0  0  0  0  0
   -0.3780   21.7610   14.0780   C 0  0  0  0  0  0  0  0  0  0  0  0
   -0.7910   20.4850   14.2890   N 0  0  0  0  0  0  0  0  0  0  0  0
   -0.6230   19.8040   13.1260   C 0  0  0  0  0  0  0  0  0  0  0  0
   -0.8760   18.5070   12.7050   C 0  0  0  0  0  0  0  0  0  0  0  0
   -1.4150   17.5960   13.5430   N 0  0  0  0  0  0  0  0  0  0  0  0
   -0.5890   18.1590   11.4450   N 0  0  0  0  0  0  0  0  0  0  0  0
   -0.0870   19.0270   10.5480   C 0  0  0  0  0  0  0  0  0  0  0  0
    0.1350   20.2850   10.9050   N 0  0  0  0  0  0  0  0  0  0  0  0
   -0.1100   20.6790   12.1820   C 0  0  0  0  0  0  0  0  0  0  0  0
    5.7020   26.4300   14.9370   O 0  0  0  0  0  0  0  0  0  0  0  0
    7.2040   26.1690   14.3920   P 0  0  0  0  0  0  0  0  0  0  0  0
    8.0430   27.3780   14.6710   O 0  5  0  0  0  0  0  0  0  0  0  0
    7.1650   25.6980   12.9520   O 0  0  0  0  0  0  0  0  0  0  0  0
    7.7510   25.0170   15.3960   O 0  0  0  0  0  0  0  0  0  0  0  0
    7.3120   23.6450   15.3930   C 0  0  0  0  0  0  0  0  0  0  0  0
    7.9270   22.8810   16.5820   C 0  0  0  0  0  0  0  0  0  0  0  0
    9.2210   23.4390   16.9080   O 0  0  0  0  0  0  0  0  0  0  0  0
    7.1420   22.9610   17.8750   C 0  0  0  0  0  0  0  0  0  0  0  0
    7.3620   21.7410   18.6270   O 0  0  0  0  0  0  0  0  0  0  0  0
    7.8180   24.0800   18.6400   C 0  0  0  0  0  0  0  0  0  0  0  0
    7.6730   23.7370   20.0050   O 0  0  0  0  0  0  0  0  0  0  0  0
    9.2850   24.0730   18.1900   C 0  0  0  0  0  0  0  0  0  0  0  0
   10.2200   23.2390   19.0140   N 0  3  0  0  0  0  0  0  0  0  0  0
   10.7690   23.7590   20.1690   C 0  0  0  0  0  0  0  0  0  0  0  0
   11.6230   23.0850   20.9670   C 0  0  0  0  0  0  0  0  0  0  0  0
   12.1170   23.7540   22.1780   C 0  0  0  0  0  0  0  0  0  0  0  0
   11.5920   24.7900   22.5790   O 0  0  0  0  0  0  0  0  0  0  0  0
   13.1710   23.2050   22.7830   N 0  0  0  0  0  0  0  0  0  0  0  0
   12.0760   21.6830   20.6000   C 0  0  0  0  0  0  0  0  0  0  0  0
   11.4570   21.2280   19.2870   C 0  0  0  0  0  0  0  0  0  0  0  0
   10.6020   21.9830   18.5780   C 0  0  0  0  0  0  0  0  0  0  0  0
 20 21  2  0  0  0  0
 20 19  1  0  0  0  0
  9  8  1  0  0  0  0
 21 22  1  0  0  0  0
 19 17  2  0  0  0  0
 11 10  1  0  0  0  0
 12 10  1  0  0  0  0
 12  7  1  0  0  0  0
 12 13  1  0  0  0  0
  8  6  1  0  0  0  0
  8 10  1  0  0  0  0
 22 13  1  0  0  0  0
 22 16  2  0  0  0  0
  6  7  1  0  0  0  0
  6  5  1  0  0  0  0
 17 16  1  0  0  0  0
 17 18  1  0  0  0  0
 13 14  1  0  0  0  0
  4  5  1  0  0  0  0
  4  1  1  0  0  0  0
 26 24  2  0  0  0  0
  3  1  2  0  0  0  0
 16 15  1  0  0  0  0
  1  2  1  0  0  0  0
  1 23  1  0  0  0  0
 14 15  2  0  0  0  0
 24 25  1  0  0  0  0
 24 23  1  0  0  0  0
 24 27  1  0  0  0  0
 27 28  1  0  0  0  0
 28 29  1  0  0  0  0
 29 30  1  0  0  0  0
 29 31  1  0  0  0  0
 30 35  1  0  0  0  0
 31 32  1  0  0  0  0
 31 33  1  0  0  0  0
 35 33  1  0  0  0  0
 35 36  1  0  0  0  0
 44 36  2  0  0  0  0
 44 43  1  0  0  0  0
 33 34  1  0  0  0  0
 36 37  1  0  0  0  0
 43 42  2  0  0  0  0
 37 38  2  0  0  0  0
 42 38  1  0  0  0  0
 38 39  1  0  0  0  0
 39 40  2  0  0  0  0
 39 41  1  0  0  0  0
M  CHG  2  25  -1  36   1
A    1
PA
A    2
O1A
A    3
O2A
A    4
O5B
A    5
C5B
A    6
C4B
A    7
O4B
A    8
C3B
A    9
O3B
A   10
C2B
A   11
O2B
A   12
C1B
A   13
N9A
A   14
C8A
A   15
N7A
A   16
C5A
A   17
C6A
A   18
N6A
A   19
N1A
A   20
C2A
A   21
N3A
A   22
C4A
A   23
O3
A   24
PN
A   25
O1N
A   26
O2N
A   27
O5D
A   28
C5D
A   29
C4D
A   30
O4D
A   31
C3D
A   32
O3D
A   33
C2D
A   34
O2D
A   35
C1D
A   36
N1N
A   37
C2N
A   38
C3N
A   39
C7N
A   40
O7N
A   41
N7N
A   42
C4N
A   43
C5N
A   44
C6N
M  END
>  <InstanceId>
3WGG_8NA_A_301

>  <ChemCompId>
8NA

>  <PdbId>
3WGG

>  <ChainId>
A

>  <ResidueNumber>
301

>  <InsertionCode>


>  <Model>
1

>  <AltIds>


>  <MissingHeavyAtoms>
0

>  <ObservedFormula>
C21 N7 O14 P2

>  <Name>
alpha-Diphosphopyridine nucleotide

>  <SystematicName>
[(2R,3S,4R,5S)-5-(3-aminocarbonylpyridin-1-ium-1-yl)-3,4-bis(oxidanyl)oxolan-2-yl]methyl [[(2R,3S,4R,5R)-5-(6-aminopurin-9-yl)-3,4-bis(oxidanyl)oxolan-2-yl]methoxy-oxidanyl-phosphoryl] phosphate

>  <Synonyms>
alpha-NAD

>  <Type>
NON-POLYMER

>  <Formula>
C21 H27 N7 O14 P2

>  <MolecularWeight>
663.425

>  <ModifiedDate>
2014-08-08

>  <Parent>


>  <OneLetterCode>


>  <SubcomponentList>


>  <AmbiguousFlag>
N

>  <InChI>
InChI=1S/C21H27N7O14P2/c22-17-12-19(25-7-24-17)28(8-26-12)21-16(32)14(30)11(41-21)6-39-44(36,37)42-43(34,35)38-5-10-13(29)15(31)20(40-10)27-3-1-2-9(4-27)18(23)33/h1-4,7-8,10-11,13-16,20-21,29-32H,5-6H2,(H5-,22,23,24,25,33,34,35,36,37)/t10-,11-,13-,14-,15-,16-,20+,21-/m1/s1

>  <InChIKey>
BAWFJGJZGIEFAR-OPDHFMQKSA-N

>  <SMILES>
c1cc(c[n+](c1)[C@@H]2[C@@H]([C@@H]([C@H](O2)COP(=O)([O-])OP(=O)(O)OC[C@@H]3[C@H]([C@H]([C@@H](O3)n4cnc5c4ncnc5N)O)O)O)O)C(=O)N

$$$$
