1PBQ_DK1_A_1001


 18 19  0  0  0  0  0  0  0  0999 V2000
    6.8036   36.2437  -17.8093 C   0  0  0  0  0  0  0  0  0  0  0  0
    5.8028   37.0334  -18.3331 N   0  0  0  0  0  0  0  0  0  0  0  0
    5.2258   38.0772  -17.6137 C   0  0  0  0  0  0  0  0  0  0  0  0
    4.1859   38.8418  -18.2445 C   0  0  0  0  0  0  0  0  0  0  0  0
    3.6218   39.8847  -17.5145 C   0  0  0  0  0  0  0  0  0  0  0  0
    2.3696   40.8148  -18.2196 Cl  0  0  0  0  0  0  0  0  0  0  0  0
    4.0398   40.2086  -16.2122 C   0  0  0  0  0  0  0  0  0  0  0  0
    5.0397   39.4685  -15.6108 C   0  0  0  0  0  0  0  0  0  0  0  0
    5.4472   39.9891  -14.0295 Cl  0  0  0  0  0  0  0  0  0  0  0  0
    5.6897   38.3521  -16.2700 C   0  0  0  0  0  0  0  0  0  0  0  0
    6.7633   37.4979  -15.6851 C   0  0  0  0  0  0  0  0  0  0  0  0
    7.2186   37.6466  -14.5354 O   0  0  0  0  0  0  0  0  0  0  0  0
    7.2800   36.4425  -16.5378 C   0  0  0  0  0  0  0  0  0  0  0  0
    6.8860   38.3273  -13.9842 H   0  0  0  0  0  0  0  0  0  0  0  0
    8.4134   34.7096  -18.6298 O   0  0  0  0  0  0  0  0  0  0  0  0
    7.3071   35.1700  -18.7428 C   0  0  0  0  0  0  0  0  0  0  0  0
    6.4391   34.8173  -19.6427 O   0  0  0  0  0  0  0  0  0  0  0  0
    8.9823   35.0181  -17.9522 H   0  0  0  0  0  0  0  0  0  0  0  0
 15 16  1  0  0  0
 16 17  2  0  0  0
 16  1  1  0  0  0
  1  2  2  0  0  0
  1 13  1  0  0  0
  2  3  1  0  0  0
  3  4  2  0  0  0
  3 10  1  0  0  0
  4  5  1  0  0  0
  5  6  1  0  0  0
  5  7  2  0  0  0
  7  8  1  0  0  0
  8  9  1  0  0  0
  8 10  2  0  0  0
 10 11  1  0  0  0
 11 12  1  0  0  0
 11 13  2  0  0  0
 15 18  1  0  0  0
 12 14  1  0  0  0
M  END
> <minimizedAffinity>
-8.49886

$$$$
1PBQ_DK1_A_1001


 18 19  0  0  0  0  0  0  0  0999 V2000
    6.7860   36.2967  -17.8497 C   0  0  0  0  0  0  0  0  0  0  0  0
    7.2346   36.1407  -16.5559 N   0  0  0  0  0  0  0  0  0  0  0  0
    6.9046   37.0361  -15.5414 C   0  0  0  0  0  0  0  0  0  0  0  0
    7.4242   36.7904  -14.2247 C   0  0  0  0  0  0  0  0  0  0  0  0
    7.0822   37.6917  -13.2200 C   0  0  0  0  0  0  0  0  0  0  0  0
    7.6891   37.4477  -11.6382 Cl  0  0  0  0  0  0  0  0  0  0  0  0
    6.2533   38.8030  -13.4515 C   0  0  0  0  0  0  0  0  0  0  0  0
    5.7577   39.0344  -14.7204 C   0  0  0  0  0  0  0  0  0  0  0  0
    4.7555   40.4192  -14.8434 Cl  0  0  0  0  0  0  0  0  0  0  0  0
    6.0584   38.1707  -15.8460 C   0  0  0  0  0  0  0  0  0  0  0  0
    5.5756   38.3597  -17.2445 C   0  0  0  0  0  0  0  0  0  0  0  0
    4.8562   39.3094  -17.6074 O   0  0  0  0  0  0  0  0  0  0  0  0
    5.9916   37.3567  -18.2083 C   0  0  0  0  0  0  0  0  0  0  0  0
    4.5871   39.9573  -16.9864 H   0  0  0  0  0  0  0  0  0  0  0  0
    8.3865   34.8477  -18.8279 O   0  0  0  0  0  0  0  0  0  0  0  0
    7.2424   35.2209  -18.8047 C   0  0  0  0  0  0  0  0  0  0  0  0
    6.2920   34.7653  -19.5643 O   0  0  0  0  0  0  0  0  0  0  0  0
    9.0150   35.2273  -18.2458 H   0  0  0  0  0  0  0  0  0  0  0  0
 15 16  1  0  0  0
 16 17  2  0  0  0
 16  1  1  0  0  0
  1  2  2  0  0  0
  1 13  1  0  0  0
  2  3  1  0  0  0
  3  4  2  0  0  0
  3 10  1  0  0  0
  4  5  1  0  0  0
  5  6  1  0  0  0
  5  7  2  0  0  0
  7  8  1  0  0  0
  8  9  1  0  0  0
  8 10  2  0  0  0
 10 11  1  0  0  0
 11 12  1  0  0  0
 11 13  2  0  0  0
 15 18  1  0  0  0
 12 14  1  0  0  0
M  END
> <minimizedAffinity>
-7.08200

$$$$
1PBQ_DK1_A_1001


 18 19  0  0  0  0  0  0  0  0999 V2000
    9.3511   39.9654  -17.8821 C   0  0  0  0  0  0  0  0  0  0  0  0
    9.2856   39.4877  -16.5910 N   0  0  0  0  0  0  0  0  0  0  0  0
    8.0747   39.2073  -15.9624 C   0  0  0  0  0  0  0  0  0  0  0  0
    8.1091   38.7162  -14.6128 C   0  0  0  0  0  0  0  0  0  0  0  0
    6.8909   38.4363  -13.9992 C   0  0  0  0  0  0  0  0  0  0  0  0
    6.8815   37.8622  -12.3866 Cl  0  0  0  0  0  0  0  0  0  0  0  0
    5.6584   38.6072  -14.6528 C   0  0  0  0  0  0  0  0  0  0  0  0
    5.6321   39.0810  -15.9505 C   0  0  0  0  0  0  0  0  0  0  0  0
    4.0592   39.2259  -16.6156 Cl  0  0  0  0  0  0  0  0  0  0  0  0
    6.8371   39.4182  -16.6837 C   0  0  0  0  0  0  0  0  0  0  0  0
    6.8917   39.9469  -18.0772 C   0  0  0  0  0  0  0  0  0  0  0  0
    5.8838   40.1736  -18.7729 O   0  0  0  0  0  0  0  0  0  0  0  0
    8.2158   40.1994  -18.6166 C   0  0  0  0  0  0  0  0  0  0  0  0
    5.0288   40.0110  -18.4259 H   0  0  0  0  0  0  0  0  0  0  0  0
   10.9523   40.6232  -19.5013 O   0  0  0  0  0  0  0  0  0  0  0  0
   10.7519   40.2009  -18.3921 C   0  0  0  0  0  0  0  0  0  0  0  0
   11.6747   39.9069  -17.5262 O   0  0  0  0  0  0  0  0  0  0  0  0
   10.2306   40.8119  -20.0683 H   0  0  0  0  0  0  0  0  0  0  0  0
 15 16  1  0  0  0
 16 17  2  0  0  0
 16  1  1  0  0  0
  1  2  2  0  0  0
  1 13  1  0  0  0
  2  3  1  0  0  0
  3  4  2  0  0  0
  3 10  1  0  0  0
  4  5  1  0  0  0
  5  6  1  0  0  0
  5  7  2  0  0  0
  7  8  1  0  0  0
  8  9  1  0  0  0
  8 10  2  0  0  0
 10 11  1  0  0  0
 11 12  1  0  0  0
 11 13  2  0  0  0
 15 18  1  0  0  0
 12 14  1  0  0  0
M  END
> <minimizedAffinity>
-6.96914

$$$$
1PBQ_DK1_A_1001


 18 19  0  0  0  0  0  0  0  0999 V2000
    8.1339   34.9922  -17.1841 C   0  0  0  0  0  0  0  0  0  0  0  0
    7.9235   35.7709  -16.0666 N   0  0  0  0  0  0  0  0  0  0  0  0
    6.9574   36.7736  -16.0300 C   0  0  0  0  0  0  0  0  0  0  0  0
    6.8157   37.5348  -14.8199 C   0  0  0  0  0  0  0  0  0  0  0  0
    5.8429   38.5308  -14.7970 C   0  0  0  0  0  0  0  0  0  0  0  0
    5.6468   39.4731  -13.3815 Cl  0  0  0  0  0  0  0  0  0  0  0  0
    5.0086   38.7979  -15.8961 C   0  0  0  0  0  0  0  0  0  0  0  0
    5.1508   38.0629  -17.0576 C   0  0  0  0  0  0  0  0  0  0  0  0
    4.0571   38.4967  -18.3038 Cl  0  0  0  0  0  0  0  0  0  0  0  0
    6.1386   37.0107  -17.2003 C   0  0  0  0  0  0  0  0  0  0  0  0
    6.3635   36.1845  -18.4215 C   0  0  0  0  0  0  0  0  0  0  0  0
    5.7208   36.3215  -19.4795 O   0  0  0  0  0  0  0  0  0  0  0  0
    7.4014   35.1735  -18.3304 C   0  0  0  0  0  0  0  0  0  0  0  0
    5.0507   36.9737  -19.5395 H   0  0  0  0  0  0  0  0  0  0  0  0
    9.0706   32.9962  -16.3143 O   0  0  0  0  0  0  0  0  0  0  0  0
    9.2179   33.9537  -17.0285 C   0  0  0  0  0  0  0  0  0  0  0  0
   10.2821   34.2068  -17.7294 O   0  0  0  0  0  0  0  0  0  0  0  0
    8.2704   32.8843  -15.8398 H   0  0  0  0  0  0  0  0  0  0  0  0
 15 16  1  0  0  0
 16 17  2  0  0  0
 16  1  1  0  0  0
  1  2  2  0  0  0
  1 13  1  0  0  0
  2  3  1  0  0  0
  3  4  2  0  0  0
  3 10  1  0  0  0
  4  5  1  0  0  0
  5  6  1  0  0  0
  5  7  2  0  0  0
  7  8  1  0  0  0
  8  9  1  0  0  0
  8 10  2  0  0  0
 10 11  1  0  0  0
 11 12  1  0  0  0
 11 13  2  0  0  0
 15 18  1  0  0  0
 12 14  1  0  0  0
M  END
> <minimizedAffinity>
-6.90896

$$$$
1PBQ_DK1_A_1001


 18 19  0  0  0  0  0  0  0  0999 V2000
    7.5101   35.7581  -17.4112 C   0  0  0  0  0  0  0  0  0  0  0  0
    6.7703   36.9182  -17.3301 N   0  0  0  0  0  0  0  0  0  0  0  0
    6.5396   37.5700  -16.1210 C   0  0  0  0  0  0  0  0  0  0  0  0
    5.7524   38.7717  -16.1380 C   0  0  0  0  0  0  0  0  0  0  0  0
    5.5340   39.4144  -14.9223 C   0  0  0  0  0  0  0  0  0  0  0  0
    4.5904   40.8422  -14.8911 Cl  0  0  0  0  0  0  0  0  0  0  0  0
    6.0593   38.9364  -13.7094 C   0  0  0  0  0  0  0  0  0  0  0  0
    6.8147   37.7794  -13.6997 C   0  0  0  0  0  0  0  0  0  0  0  0
    7.3938   37.3293  -12.1507 Cl  0  0  0  0  0  0  0  0  0  0  0  0
    7.0955   37.0195  -14.9027 C   0  0  0  0  0  0  0  0  0  0  0  0
    7.8876   35.7578  -14.9731 C   0  0  0  0  0  0  0  0  0  0  0  0
    8.3939   35.2006  -13.9810 O   0  0  0  0  0  0  0  0  0  0  0  0
    8.0540   35.1771  -16.2933 C   0  0  0  0  0  0  0  0  0  0  0  0
    8.2872   35.5744  -13.1284 H   0  0  0  0  0  0  0  0  0  0  0  0
    8.7328   34.8973  -19.2503 O   0  0  0  0  0  0  0  0  0  0  0  0
    7.6567   35.2055  -18.8080 C   0  0  0  0  0  0  0  0  0  0  0  0
    6.5296   35.1057  -19.4464 O   0  0  0  0  0  0  0  0  0  0  0  0
    9.5020   34.9996  -18.7251 H   0  0  0  0  0  0  0  0  0  0  0  0
 15 16  1  0  0  0
 16 17  2  0  0  0
 16  1  1  0  0  0
  1  2  2  0  0  0
  1 13  1  0  0  0
  2  3  1  0  0  0
  3  4  2  0  0  0
  3 10  1  0  0  0
  4  5  1  0  0  0
  5  6  1  0  0  0
  5  7  2  0  0  0
  7  8  1  0  0  0
  8  9  1  0  0  0
  8 10  2  0  0  0
 10 11  1  0  0  0
 11 12  1  0  0  0
 11 13  2  0  0  0
 15 18  1  0  0  0
 12 14  1  0  0  0
M  END
> <minimizedAffinity>
-6.86053

$$$$
1PBQ_DK1_A_1001


 18 19  0  0  0  0  0  0  0  0999 V2000
    7.6165   35.6278  -17.2492 C   0  0  0  0  0  0  0  0  0  0  0  0
    8.2840   34.7551  -16.4172 N   0  0  0  0  0  0  0  0  0  0  0  0
    8.3873   34.9682  -15.0447 C   0  0  0  0  0  0  0  0  0  0  0  0
    9.1071   34.0030  -14.2609 C   0  0  0  0  0  0  0  0  0  0  0  0
    9.1981   34.2274  -12.8897 C   0  0  0  0  0  0  0  0  0  0  0  0
   10.0578   33.1117  -11.9171 Cl  0  0  0  0  0  0  0  0  0  0  0  0
    8.6097   35.3406  -12.2652 C   0  0  0  0  0  0  0  0  0  0  0  0
    7.9197   36.2659  -13.0249 C   0  0  0  0  0  0  0  0  0  0  0  0
    7.2508   37.5601  -12.1221 Cl  0  0  0  0  0  0  0  0  0  0  0  0
    7.7719   36.1423  -14.4623 C   0  0  0  0  0  0  0  0  0  0  0  0
    7.0571   37.1024  -15.3520 C   0  0  0  0  0  0  0  0  0  0  0  0
    6.5084   38.1452  -14.9484 O   0  0  0  0  0  0  0  0  0  0  0  0
    7.0222   36.7656  -16.7638 C   0  0  0  0  0  0  0  0  0  0  0  0
    6.5302   38.3637  -14.0375 H   0  0  0  0  0  0  0  0  0  0  0  0
    6.5803   35.1682  -19.3309 O   0  0  0  0  0  0  0  0  0  0  0  0
    7.6057   35.2224  -18.7030 C   0  0  0  0  0  0  0  0  0  0  0  0
    8.7859   34.9523  -19.1741 O   0  0  0  0  0  0  0  0  0  0  0  0
    5.7662   35.3791  -18.9177 H   0  0  0  0  0  0  0  0  0  0  0  0
 15 16  1  0  0  0
 16 17  2  0  0  0
 16  1  1  0  0  0
  1  2  2  0  0  0
  1 13  1  0  0  0
  2  3  1  0  0  0
  3  4  2  0  0  0
  3 10  1  0  0  0
  4  5  1  0  0  0
  5  6  1  0  0  0
  5  7  2  0  0  0
  7  8  1  0  0  0
  8  9  1  0  0  0
  8 10  2  0  0  0
 10 11  1  0  0  0
 11 12  1  0  0  0
 11 13  2  0  0  0
 15 18  1  0  0  0
 12 14  1  0  0  0
M  END
> <minimizedAffinity>
-6.65817

$$$$
1PBQ_DK1_A_1001


 18 19  0  0  0  0  0  0  0  0999 V2000
    9.1057   34.6727  -13.5059 C   0  0  0  0  0  0  0  0  0  0  0  0
    8.3574   35.8300  -13.5216 N   0  0  0  0  0  0  0  0  0  0  0  0
    7.7231   36.2897  -14.6733 C   0  0  0  0  0  0  0  0  0  0  0  0
    6.9684   37.5093  -14.5907 C   0  0  0  0  0  0  0  0  0  0  0  0
    6.3364   37.9539  -15.7490 C   0  0  0  0  0  0  0  0  0  0  0  0
    5.4371   39.4097  -15.7025 Cl  0  0  0  0  0  0  0  0  0  0  0  0
    6.4065   37.2528  -16.9652 C   0  0  0  0  0  0  0  0  0  0  0  0
    7.1350   36.0809  -17.0382 C   0  0  0  0  0  0  0  0  0  0  0  0
    7.1180   35.3360  -18.5817 Cl  0  0  0  0  0  0  0  0  0  0  0  0
    7.8452   35.5302  -15.8999 C   0  0  0  0  0  0  0  0  0  0  0  0
    8.6623   34.2825  -15.9013 C   0  0  0  0  0  0  0  0  0  0  0  0
    8.8377   33.5695  -16.9073 O   0  0  0  0  0  0  0  0  0  0  0  0
    9.2722   33.9131  -14.6366 C   0  0  0  0  0  0  0  0  0  0  0  0
    8.4446   33.8069  -17.7241 H   0  0  0  0  0  0  0  0  0  0  0  0
   10.7846   33.8045  -12.0755 O   0  0  0  0  0  0  0  0  0  0  0  0
    9.7077   34.3346  -12.1638 C   0  0  0  0  0  0  0  0  0  0  0  0
    8.9560   34.6719  -11.1593 O   0  0  0  0  0  0  0  0  0  0  0  0
   11.2671   33.5920  -12.8502 H   0  0  0  0  0  0  0  0  0  0  0  0
 15 16  1  0  0  0
 16 17  2  0  0  0
 16  1  1  0  0  0
  1  2  2  0  0  0
  1 13  1  0  0  0
  2  3  1  0  0  0
  3  4  2  0  0  0
  3 10  1  0  0  0
  4  5  1  0  0  0
  5  6  1  0  0  0
  5  7  2  0  0  0
  7  8  1  0  0  0
  8  9  1  0  0  0
  8 10  2  0  0  0
 10 11  1  0  0  0
 11 12  1  0  0  0
 11 13  2  0  0  0
 15 18  1  0  0  0
 12 14  1  0  0  0
M  END
> <minimizedAffinity>
-6.57753

$$$$
1PBQ_DK1_A_1001


 18 19  0  0  0  0  0  0  0  0999 V2000
    6.1958   37.7592  -17.5778 C   0  0  0  0  0  0  0  0  0  0  0  0
    6.4450   37.8443  -16.2249 N   0  0  0  0  0  0  0  0  0  0  0  0
    7.1436   36.8571  -15.5340 C   0  0  0  0  0  0  0  0  0  0  0  0
    7.3500   37.0341  -14.1233 C   0  0  0  0  0  0  0  0  0  0  0  0
    8.0538   36.0410  -13.4470 C   0  0  0  0  0  0  0  0  0  0  0  0
    8.3123   36.2016  -11.7625 Cl  0  0  0  0  0  0  0  0  0  0  0  0
    8.5647   34.9026  -14.0939 C   0  0  0  0  0  0  0  0  0  0  0  0
    8.3617   34.7379  -15.4507 C   0  0  0  0  0  0  0  0  0  0  0  0
    9.0517   33.3086  -16.0977 Cl  0  0  0  0  0  0  0  0  0  0  0  0
    7.6321   35.6999  -16.2540 C   0  0  0  0  0  0  0  0  0  0  0  0
    7.3590   35.5879  -17.7160 C   0  0  0  0  0  0  0  0  0  0  0  0
    7.7254   34.6267  -18.4182 O   0  0  0  0  0  0  0  0  0  0  0  0
    6.6197   36.6834  -18.3168 C   0  0  0  0  0  0  0  0  0  0  0  0
    8.2026   33.9191  -18.0316 H   0  0  0  0  0  0  0  0  0  0  0  0
    5.9964   39.9262  -18.5174 O   0  0  0  0  0  0  0  0  0  0  0  0
    5.4320   38.9291  -18.1485 C   0  0  0  0  0  0  0  0  0  0  0  0
    4.1478   38.7373  -18.1928 O   0  0  0  0  0  0  0  0  0  0  0  0
    6.9290   39.9879  -18.4522 H   0  0  0  0  0  0  0  0  0  0  0  0
 15 16  1  0  0  0
 16 17  2  0  0  0
 16  1  1  0  0  0
  1  2  2  0  0  0
  1 13  1  0  0  0
  2  3  1  0  0  0
  3  4  2  0  0  0
  3 10  1  0  0  0
  4  5  1  0  0  0
  5  6  1  0  0  0
  5  7  2  0  0  0
  7  8  1  0  0  0
  8  9  1  0  0  0
  8 10  2  0  0  0
 10 11  1  0  0  0
 11 12  1  0  0  0
 11 13  2  0  0  0
 15 18  1  0  0  0
 12 14  1  0  0  0
M  END
> <minimizedAffinity>
-6.54236

$$$$
1PBQ_DK1_A_1001


 18 19  0  0  0  0  0  0  0  0999 V2000
    9.3347   39.8844  -17.4614 C   0  0  0  0  0  0  0  0  0  0  0  0
    8.1000   40.0097  -18.0610 N   0  0  0  0  0  0  0  0  0  0  0  0
    6.9105   39.8529  -17.3536 C   0  0  0  0  0  0  0  0  0  0  0  0
    5.6726   39.9991  -18.0679 C   0  0  0  0  0  0  0  0  0  0  0  0
    4.4918   39.8437  -17.3465 C   0  0  0  0  0  0  0  0  0  0  0  0
    2.9923   39.9952  -18.1579 Cl  0  0  0  0  0  0  0  0  0  0  0  0
    4.4787   39.5649  -15.9689 C   0  0  0  0  0  0  0  0  0  0  0  0
    5.6729   39.4243  -15.2880 C   0  0  0  0  0  0  0  0  0  0  0  0
    5.4953   39.0969  -13.6150 Cl  0  0  0  0  0  0  0  0  0  0  0  0
    6.9628   39.5514  -15.9384 C   0  0  0  0  0  0  0  0  0  0  0  0
    8.2918   39.4002  -15.2785 C   0  0  0  0  0  0  0  0  0  0  0  0
    8.4401   39.1289  -14.0720 O   0  0  0  0  0  0  0  0  0  0  0  0
    9.4549   39.5872  -16.1270 C   0  0  0  0  0  0  0  0  0  0  0  0
    7.6902   39.0080  -13.5234 H   0  0  0  0  0  0  0  0  0  0  0  0
   10.3441   40.3842  -19.5469 O   0  0  0  0  0  0  0  0  0  0  0  0
   10.5058   40.0974  -18.3892 C   0  0  0  0  0  0  0  0  0  0  0  0
   11.6591   39.9420  -17.8117 O   0  0  0  0  0  0  0  0  0  0  0  0
    9.4771   40.4785  -19.8895 H   0  0  0  0  0  0  0  0  0  0  0  0
 15 16  1  0  0  0
 16 17  2  0  0  0
 16  1  1  0  0  0
  1  2  2  0  0  0
  1 13  1  0  0  0
  2  3  1  0  0  0
  3  4  2  0  0  0
  3 10  1  0  0  0
  4  5  1  0  0  0
  5  6  1  0  0  0
  5  7  2  0  0  0
  7  8  1  0  0  0
  8  9  1  0  0  0
  8 10  2  0  0  0
 10 11  1  0  0  0
 11 12  1  0  0  0
 11 13  2  0  0  0
 15 18  1  0  0  0
 12 14  1  0  0  0
M  END
> <minimizedAffinity>
-6.53262

$$$$
1PBQ_DK1_A_1001


 18 19  0  0  0  0  0  0  0  0999 V2000
    7.1763   37.4014  -13.1355 C   0  0  0  0  0  0  0  0  0  0  0  0
    7.5242   36.6235  -14.2187 N   0  0  0  0  0  0  0  0  0  0  0  0
    6.9998   36.8423  -15.4904 C   0  0  0  0  0  0  0  0  0  0  0  0
    7.4208   35.9753  -16.5558 C   0  0  0  0  0  0  0  0  0  0  0  0
    6.8913   36.2091  -17.8222 C   0  0  0  0  0  0  0  0  0  0  0  0
    7.3530   35.1930  -19.1201 Cl  0  0  0  0  0  0  0  0  0  0  0  0
    5.9858   37.2522  -18.0822 C   0  0  0  0  0  0  0  0  0  0  0  0
    5.5840   38.0818  -17.0529 C   0  0  0  0  0  0  0  0  0  0  0  0
    4.4876   39.3112  -17.5263 Cl  0  0  0  0  0  0  0  0  0  0  0  0
    6.0590   37.9243  -15.6917 C   0  0  0  0  0  0  0  0  0  0  0  0
    5.6633   38.7667  -14.5262 C   0  0  0  0  0  0  0  0  0  0  0  0
    4.8530   39.7099  -14.5956 O   0  0  0  0  0  0  0  0  0  0  0  0
    6.2808   38.4344  -13.2549 C   0  0  0  0  0  0  0  0  0  0  0  0
    4.4538   39.9253  -15.4155 H   0  0  0  0  0  0  0  0  0  0  0  0
    7.5713   37.5492  -10.8030 O   0  0  0  0  0  0  0  0  0  0  0  0
    7.8550   37.0155  -11.8439 C   0  0  0  0  0  0  0  0  0  0  0  0
    8.7425   36.0774  -11.9853 O   0  0  0  0  0  0  0  0  0  0  0  0
    6.9176   38.2203  -10.7835 H   0  0  0  0  0  0  0  0  0  0  0  0
 15 16  1  0  0  0
 16 17  2  0  0  0
 16  1  1  0  0  0
  1  2  2  0  0  0
  1 13  1  0  0  0
  2  3  1  0  0  0
  3  4  2  0  0  0
  3 10  1  0  0  0
  4  5  1  0  0  0
  5  6  1  0  0  0
  5  7  2  0  0  0
  7  8  1  0  0  0
  8  9  1  0  0  0
  8 10  2  0  0  0
 10 11  1  0  0  0
 11 12  1  0  0  0
 11 13  2  0  0  0
 15 18  1  0  0  0
 12 14  1  0  0  0
M  END
> <minimizedAffinity>
-6.33494

$$$$
