4A6L_P43_A_1263


 32 35  0  0  0  0  0  0  0  0999 V2000
   -4.1299   57.9672   -3.9281 C   0  0  0  0  0  0  0  0  0  0  0  0
   -3.3234   57.0996   -4.9560 C   0  0  0  0  0  0  0  0  0  0  0  0
   -3.1560   55.6898   -4.3695 C   0  0  0  0  0  0  0  0  0  0  0  0
   -4.5644   55.1755   -4.1588 N   0  0  0  0  0  0  0  0  0  0  0  0
   -5.4169   55.9373   -3.0308 C   0  0  0  0  0  0  0  0  0  0  0  0
   -5.5593   57.4485   -3.4179 C   0  0  0  0  0  0  0  0  0  0  0  0
   -5.0390   54.1658   -4.9193 C   0  0  0  0  0  0  0  0  0  0  0  0
   -4.3041   53.6154   -5.8465 O   0  0  0  0  0  0  0  0  0  0  0  0
   -3.9545   61.7922   -3.6809 C   0  0  0  0  0  0  0  0  0  0  0  0
   -3.8550   60.3979   -3.3709 C   0  0  0  0  0  0  0  0  0  0  0  0
   -4.2403   59.3829   -4.3375 C   0  0  0  0  0  0  0  0  0  0  0  0
   -4.7192   59.7277   -5.6843 C   0  0  0  0  0  0  0  0  0  0  0  0
   -4.8323   61.1089   -5.9833 C   0  0  0  0  0  0  0  0  0  0  0  0
   -4.4293   62.1224   -5.0077 C   0  0  0  0  0  0  0  0  0  0  0  0
   -5.3548   61.5875   -7.3557 C   0  0  0  0  0  0  0  0  0  0  0  0
   -4.3007   61.6850   -8.3272 N   0  0  0  0  0  0  0  0  0  0  0  0
   -3.6097   62.3659   -8.0120 H   0  0  0  0  0  0  0  0  0  0  0  0
   -4.6892   61.9841   -9.2216 H   0  0  0  0  0  0  0  0  0  0  0  0
   -6.4351   53.6442   -4.7138 C   0  0  0  0  0  0  0  0  0  0  0  0
   -7.2229   53.6079   -5.8289 O   0  0  0  0  0  0  0  0  0  0  0  0
   -8.4412   53.0895   -5.5170 C   0  0  0  0  0  0  0  0  0  0  0  0
   -8.4937   52.7843   -4.1845 C   0  0  0  0  0  0  0  0  0  0  0  0
   -7.1430   53.1530   -3.6352 C   0  0  0  0  0  0  0  0  0  0  0  0
   -9.3964   52.9876   -6.5674 C   0  0  0  0  0  0  0  0  0  0  0  0
  -10.1807   52.8683   -7.4546 C   0  0  0  0  0  0  0  0  0  0  0  0
  -11.1134   52.7253   -8.5138 C   0  0  0  0  0  0  0  0  0  0  0  0
  -10.6724   52.6081   -9.9279 C   0  0  0  0  0  0  0  0  0  0  0  0
  -11.6787   52.3950  -10.9948 C   0  0  0  0  0  0  0  0  0  0  0  0
  -13.0497   52.3204  -10.5523 C   0  0  0  0  0  0  0  0  0  0  0  0
  -13.4896   52.4141   -9.1334 C   0  0  0  0  0  0  0  0  0  0  0  0
  -12.5096   52.6411   -8.0976 C   0  0  0  0  0  0  0  0  0  0  0  0
  -12.8957   52.7394   -6.7461 F   0  0  0  0  0  0  0  0  0  0  0  0
 24 21  1  0  0  0
 24 25  3  0  0  0
  9 10  1  0  0  0
  9 14  2  0  0  0
 10 11  2  0  0  0
 11 12  1  0  0  0
 11  1  1  0  0  0
 12 13  2  0  0  0
 13 14  1  0  0  0
 13 15  1  0  0  0
 15 16  1  0  0  0
  1  2  1  0  0  0
  1  6  1  0  0  0
  2  3  1  0  0  0
  3  4  1  0  0  0
  4  5  1  0  0  0
  4  7  1  0  0  0
  5  6  1  0  0  0
  7  8  2  0  0  0
  7 19  1  0  0  0
 19 20  1  0  0  0
 19 23  2  0  0  0
 20 21  1  0  0  0
 21 22  2  0  0  0
 22 23  1  0  0  0
 25 26  1  0  0  0
 26 27  1  0  0  0
 26 31  2  0  0  0
 27 28  2  0  0  0
 28 29  1  0  0  0
 29 30  2  0  0  0
 30 31  1  0  0  0
 31 32  1  0  0  0
 16 17  1  0  0  0
 16 18  1  0  0  0
M  END
> <minimizedAffinity>
-10.76955

$$$$
4A6L_P43_A_1263


 32 35  0  0  0  0  0  0  0  0999 V2000
   -9.6329   51.8314   -6.0111 C   0  0  0  0  0  0  0  0  0  0  0  0
  -10.0856   52.1783   -4.5501 C   0  0  0  0  0  0  0  0  0  0  0  0
   -9.0456   51.6060   -3.5751 C   0  0  0  0  0  0  0  0  0  0  0  0
   -7.7388   52.2731   -3.9489 N   0  0  0  0  0  0  0  0  0  0  0  0
   -7.1450   51.8730   -5.3865 C   0  0  0  0  0  0  0  0  0  0  0  0
   -8.1704   52.2701   -6.5021 C   0  0  0  0  0  0  0  0  0  0  0  0
   -7.1689   53.1661   -3.1117 C   0  0  0  0  0  0  0  0  0  0  0  0
   -7.7254   53.4746   -1.9725 O   0  0  0  0  0  0  0  0  0  0  0  0
  -13.0358   52.7643   -7.5187 C   0  0  0  0  0  0  0  0  0  0  0  0
  -12.0054   52.4044   -6.5919 C   0  0  0  0  0  0  0  0  0  0  0  0
  -10.6300   52.2274   -7.0276 C   0  0  0  0  0  0  0  0  0  0  0  0
  -10.2191   52.4364   -8.4238 C   0  0  0  0  0  0  0  0  0  0  0  0
  -11.2437   52.7769   -9.3426 C   0  0  0  0  0  0  0  0  0  0  0  0
  -12.6228   52.9654   -8.8912 C   0  0  0  0  0  0  0  0  0  0  0  0
  -10.9332   52.9887  -10.8407 C   0  0  0  0  0  0  0  0  0  0  0  0
  -11.2067   51.8112  -11.6174 N   0  0  0  0  0  0  0  0  0  0  0  0
  -10.6179   51.0447  -11.2915 H   0  0  0  0  0  0  0  0  0  0  0  0
  -11.0080   51.9984  -12.6002 H   0  0  0  0  0  0  0  0  0  0  0  0
   -5.8677   53.8300   -3.4718 C   0  0  0  0  0  0  0  0  0  0  0  0
   -5.9217   55.1842   -3.6403 O   0  0  0  0  0  0  0  0  0  0  0  0
   -4.6818   55.6635   -3.9292 C   0  0  0  0  0  0  0  0  0  0  0  0
   -3.7804   54.6354   -3.9733 C   0  0  0  0  0  0  0  0  0  0  0  0
   -4.5718   53.3947   -3.6632 C   0  0  0  0  0  0  0  0  0  0  0  0
   -4.5572   57.0647   -4.1465 C   0  0  0  0  0  0  0  0  0  0  0  0
   -4.4714   58.2321   -4.3612 C   0  0  0  0  0  0  0  0  0  0  0  0
   -4.3682   59.6231   -4.6199 C   0  0  0  0  0  0  0  0  0  0  0  0
   -4.7127   60.1950   -5.9473 C   0  0  0  0  0  0  0  0  0  0  0  0
   -4.6520   61.6614   -6.1524 C   0  0  0  0  0  0  0  0  0  0  0  0
   -4.2457   62.4348   -5.0043 C   0  0  0  0  0  0  0  0  0  0  0  0
   -3.9236   61.8643   -3.6679 C   0  0  0  0  0  0  0  0  0  0  0  0
   -3.9644   60.4339   -3.4756 C   0  0  0  0  0  0  0  0  0  0  0  0
   -3.6598   59.8637   -2.2236 F   0  0  0  0  0  0  0  0  0  0  0  0
 24 21  1  0  0  0
 24 25  3  0  0  0
  9 10  1  0  0  0
  9 14  2  0  0  0
 10 11  2  0  0  0
 11 12  1  0  0  0
 11  1  1  0  0  0
 12 13  2  0  0  0
 13 14  1  0  0  0
 13 15  1  0  0  0
 15 16  1  0  0  0
  1  2  1  0  0  0
  1  6  1  0  0  0
  2  3  1  0  0  0
  3  4  1  0  0  0
  4  5  1  0  0  0
  4  7  1  0  0  0
  5  6  1  0  0  0
  7  8  2  0  0  0
  7 19  1  0  0  0
 19 20  1  0  0  0
 19 23  2  0  0  0
 20 21  1  0  0  0
 21 22  2  0  0  0
 22 23  1  0  0  0
 25 26  1  0  0  0
 26 27  1  0  0  0
 26 31  2  0  0  0
 27 28  2  0  0  0
 28 29  1  0  0  0
 29 30  2  0  0  0
 30 31  1  0  0  0
 31 32  1  0  0  0
 16 17  1  0  0  0
 16 18  1  0  0  0
M  END
> <minimizedAffinity>
-9.98971

$$$$
4A6L_P43_A_1263


 32 35  0  0  0  0  0  0  0  0999 V2000
   -4.9309   56.8343   -2.5378 C   0  0  0  0  0  0  0  0  0  0  0  0
   -3.8948   55.6695   -2.7091 C   0  0  0  0  0  0  0  0  0  0  0  0
   -4.1568   54.6268   -1.6120 C   0  0  0  0  0  0  0  0  0  0  0  0
   -5.5832   54.1680   -1.8301 N   0  0  0  0  0  0  0  0  0  0  0  0
   -6.7146   55.2741   -1.5550 C   0  0  0  0  0  0  0  0  0  0  0  0
   -6.4976   56.4913   -2.5170 C   0  0  0  0  0  0  0  0  0  0  0  0
   -5.8340   52.9141   -2.2635 C   0  0  0  0  0  0  0  0  0  0  0  0
   -4.8635   52.0759   -2.5045 O   0  0  0  0  0  0  0  0  0  0  0  0
   -3.7730   58.6869   -5.6921 C   0  0  0  0  0  0  0  0  0  0  0  0
   -4.0638   57.6532   -4.7450 C   0  0  0  0  0  0  0  0  0  0  0  0
   -4.6879   57.9569   -3.4678 C   0  0  0  0  0  0  0  0  0  0  0  0
   -5.0796   59.3240   -3.0946 C   0  0  0  0  0  0  0  0  0  0  0  0
   -4.7761   60.3481   -4.0269 C   0  0  0  0  0  0  0  0  0  0  0  0
   -4.1594   60.0299   -5.3153 C   0  0  0  0  0  0  0  0  0  0  0  0
   -5.1126   61.8253   -3.7266 C   0  0  0  0  0  0  0  0  0  0  0  0
   -5.8640   62.4317   -4.7906 N   0  0  0  0  0  0  0  0  0  0  0  0
   -5.3127   62.4151   -5.6486 H   0  0  0  0  0  0  0  0  0  0  0  0
   -6.0821   63.3974   -4.5453 H   0  0  0  0  0  0  0  0  0  0  0  0
   -7.2481   52.4473   -2.4778 C   0  0  0  0  0  0  0  0  0  0  0  0
   -7.7421   52.6177   -3.7396 O   0  0  0  0  0  0  0  0  0  0  0  0
   -9.0096   52.1286   -3.8093 C   0  0  0  0  0  0  0  0  0  0  0  0
   -9.3898   51.6363   -2.5909 C   0  0  0  0  0  0  0  0  0  0  0  0
   -8.2060   51.8449   -1.6870 C   0  0  0  0  0  0  0  0  0  0  0  0
   -9.6831   52.2344   -5.0589 C   0  0  0  0  0  0  0  0  0  0  0  0
  -10.2611   52.3558   -6.0920 C   0  0  0  0  0  0  0  0  0  0  0  0
  -10.9526   52.5012   -7.3221 C   0  0  0  0  0  0  0  0  0  0  0  0
  -10.2267   52.6161   -8.6136 C   0  0  0  0  0  0  0  0  0  0  0  0
  -10.9917   52.7011   -9.8799 C   0  0  0  0  0  0  0  0  0  0  0  0
  -12.4276   52.6670   -9.7440 C   0  0  0  0  0  0  0  0  0  0  0  0
  -13.1544   52.5280   -8.4526 C   0  0  0  0  0  0  0  0  0  0  0  0
  -12.4078   52.4650   -7.2184 C   0  0  0  0  0  0  0  0  0  0  0  0
  -13.0677   52.3386   -5.9799 F   0  0  0  0  0  0  0  0  0  0  0  0
 24 21  1  0  0  0
 24 25  3  0  0  0
  9 10  1  0  0  0
  9 14  2  0  0  0
 10 11  2  0  0  0
 11 12  1  0  0  0
 11  1  1  0  0  0
 12 13  2  0  0  0
 13 14  1  0  0  0
 13 15  1  0  0  0
 15 16  1  0  0  0
  1  2  1  0  0  0
  1  6  1  0  0  0
  2  3  1  0  0  0
  3  4  1  0  0  0
  4  5  1  0  0  0
  4  7  1  0  0  0
  5  6  1  0  0  0
  7  8  2  0  0  0
  7 19  1  0  0  0
 19 20  1  0  0  0
 19 23  2  0  0  0
 20 21  1  0  0  0
 21 22  2  0  0  0
 22 23  1  0  0  0
 25 26  1  0  0  0
 26 27  1  0  0  0
 26 31  2  0  0  0
 27 28  2  0  0  0
 28 29  1  0  0  0
 29 30  2  0  0  0
 30 31  1  0  0  0
 31 32  1  0  0  0
 16 17  1  0  0  0
 16 18  1  0  0  0
M  END
> <minimizedAffinity>
-9.33617

$$$$
4A6L_P43_A_1263


 32 35  0  0  0  0  0  0  0  0999 V2000
   -4.0291   58.0954   -2.9752 C   0  0  0  0  0  0  0  0  0  0  0  0
   -3.0816   57.0851   -3.7107 C   0  0  0  0  0  0  0  0  0  0  0  0
   -2.8787   55.8649   -2.8000 C   0  0  0  0  0  0  0  0  0  0  0  0
   -4.2652   55.2989   -2.5767 N   0  0  0  0  0  0  0  0  0  0  0  0
   -5.2607   56.2257   -1.7227 C   0  0  0  0  0  0  0  0  0  0  0  0
   -5.4628   57.5919   -2.4620 C   0  0  0  0  0  0  0  0  0  0  0  0
   -4.6060   54.1070   -3.1118 C   0  0  0  0  0  0  0  0  0  0  0  0
   -3.7585   53.4214   -3.8290 O   0  0  0  0  0  0  0  0  0  0  0  0
   -4.1350   61.8774   -3.6138 C   0  0  0  0  0  0  0  0  0  0  0  0
   -3.9748   60.6037   -2.9797 C   0  0  0  0  0  0  0  0  0  0  0  0
   -4.1914   59.3665   -3.7116 C   0  0  0  0  0  0  0  0  0  0  0  0
   -4.5526   59.3542   -5.1367 C   0  0  0  0  0  0  0  0  0  0  0  0
   -4.7264   60.6165   -5.7583 C   0  0  0  0  0  0  0  0  0  0  0  0
   -4.4933   61.8559   -5.0159 C   0  0  0  0  0  0  0  0  0  0  0  0
   -5.1373   60.7244   -7.2432 C   0  0  0  0  0  0  0  0  0  0  0  0
   -4.5719   61.8851   -7.8738 N   0  0  0  0  0  0  0  0  0  0  0  0
   -4.9094   62.7254   -7.4043 H   0  0  0  0  0  0  0  0  0  0  0  0
   -4.8502   61.9087   -8.8548 H   0  0  0  0  0  0  0  0  0  0  0  0
   -5.9793   53.5338   -2.8909 C   0  0  0  0  0  0  0  0  0  0  0  0
   -6.7690   53.4458   -4.0017 O   0  0  0  0  0  0  0  0  0  0  0  0
   -7.9645   52.8848   -3.6752 C   0  0  0  0  0  0  0  0  0  0  0  0
   -7.9999   52.6019   -2.3373 C   0  0  0  0  0  0  0  0  0  0  0  0
   -6.6631   53.0343   -1.8006 C   0  0  0  0  0  0  0  0  0  0  0  0
   -8.9187   52.7259   -4.7195 C   0  0  0  0  0  0  0  0  0  0  0  0
   -9.7038   52.6254   -5.6082 C   0  0  0  0  0  0  0  0  0  0  0  0
  -10.6405   52.5084   -6.6672 C   0  0  0  0  0  0  0  0  0  0  0  0
  -12.1013   52.6445   -6.4321 C   0  0  0  0  0  0  0  0  0  0  0  0
  -13.0380   52.5794   -7.5786 C   0  0  0  0  0  0  0  0  0  0  0  0
  -12.4284   52.3791   -8.8707 C   0  0  0  0  0  0  0  0  0  0  0  0
  -10.9636   52.2666   -9.1094 C   0  0  0  0  0  0  0  0  0  0  0  0
  -10.0540   52.3107   -7.9888 C   0  0  0  0  0  0  0  0  0  0  0  0
   -8.6626   52.2018   -8.1824 F   0  0  0  0  0  0  0  0  0  0  0  0
 24 21  1  0  0  0
 24 25  3  0  0  0
  9 10  1  0  0  0
  9 14  2  0  0  0
 10 11  2  0  0  0
 11 12  1  0  0  0
 11  1  1  0  0  0
 12 13  2  0  0  0
 13 14  1  0  0  0
 13 15  1  0  0  0
 15 16  1  0  0  0
  1  2  1  0  0  0
  1  6  1  0  0  0
  2  3  1  0  0  0
  3  4  1  0  0  0
  4  5  1  0  0  0
  4  7  1  0  0  0
  5  6  1  0  0  0
  7  8  2  0  0  0
  7 19  1  0  0  0
 19 20  1  0  0  0
 19 23  2  0  0  0
 20 21  1  0  0  0
 21 22  2  0  0  0
 22 23  1  0  0  0
 25 26  1  0  0  0
 26 27  1  0  0  0
 26 31  2  0  0  0
 27 28  2  0  0  0
 28 29  1  0  0  0
 29 30  2  0  0  0
 30 31  1  0  0  0
 31 32  1  0  0  0
 16 17  1  0  0  0
 16 18  1  0  0  0
M  END
> <minimizedAffinity>
-8.90488

$$$$
4A6L_P43_A_1263


 32 35  0  0  0  0  0  0  0  0999 V2000
   -4.4995   55.7281   -1.3820 C   0  0  0  0  0  0  0  0  0  0  0  0
   -3.6619   54.5822   -2.0490 C   0  0  0  0  0  0  0  0  0  0  0  0
   -3.9843   53.2662   -1.3252 C   0  0  0  0  0  0  0  0  0  0  0  0
   -5.4753   53.0693   -1.5007 N   0  0  0  0  0  0  0  0  0  0  0  0
   -6.4071   54.1359   -0.7434 C   0  0  0  0  0  0  0  0  0  0  0  0
   -6.0927   55.5743   -1.2784 C   0  0  0  0  0  0  0  0  0  0  0  0
   -5.9407   52.0713   -2.2820 C   0  0  0  0  0  0  0  0  0  0  0  0
   -5.1257   51.2615   -2.9005 O   0  0  0  0  0  0  0  0  0  0  0  0
   -3.1972   59.3364   -1.4650 C   0  0  0  0  0  0  0  0  0  0  0  0
   -3.5272   58.0136   -1.0275 C   0  0  0  0  0  0  0  0  0  0  0  0
   -4.1706   57.0644   -1.9209 C   0  0  0  0  0  0  0  0  0  0  0  0
   -4.4866   57.3962   -3.3180 C   0  0  0  0  0  0  0  0  0  0  0  0
   -4.1737   58.7117   -3.7442 C   0  0  0  0  0  0  0  0  0  0  0  0
   -3.5142   59.6552   -2.8407 C   0  0  0  0  0  0  0  0  0  0  0  0
   -4.4906   59.1809   -5.1811 C   0  0  0  0  0  0  0  0  0  0  0  0
   -4.2966   58.1318   -6.1436 N   0  0  0  0  0  0  0  0  0  0  0  0
   -3.3211   57.8344   -6.1304 H   0  0  0  0  0  0  0  0  0  0  0  0
   -4.5347   58.4756   -7.0739 H   0  0  0  0  0  0  0  0  0  0  0  0
   -7.4205   51.8643   -2.4581 C   0  0  0  0  0  0  0  0  0  0  0  0
   -7.9007   52.0729   -3.7195 O   0  0  0  0  0  0  0  0  0  0  0  0
   -9.2374   51.8227   -3.7520 C   0  0  0  0  0  0  0  0  0  0  0  0
   -9.6763   51.4569   -2.5091 C   0  0  0  0  0  0  0  0  0  0  0  0
   -8.4560   51.4798   -1.6302 C   0  0  0  0  0  0  0  0  0  0  0  0
   -9.9055   52.0012   -4.9962 C   0  0  0  0  0  0  0  0  0  0  0  0
  -10.4903   52.1252   -6.0253 C   0  0  0  0  0  0  0  0  0  0  0  0
  -11.1876   52.2701   -7.2521 C   0  0  0  0  0  0  0  0  0  0  0  0
  -12.6587   52.4752   -7.2912 C   0  0  0  0  0  0  0  0  0  0  0  0
  -13.3356   52.6866   -8.5924 C   0  0  0  0  0  0  0  0  0  0  0  0
  -12.4766   52.6712   -9.7514 C   0  0  0  0  0  0  0  0  0  0  0  0
  -10.9999   52.4894   -9.7105 C   0  0  0  0  0  0  0  0  0  0  0  0
  -10.3449   52.2642   -8.4436 C   0  0  0  0  0  0  0  0  0  0  0  0
   -8.9492   52.0836   -8.3733 F   0  0  0  0  0  0  0  0  0  0  0  0
 24 21  1  0  0  0
 24 25  3  0  0  0
  9 10  1  0  0  0
  9 14  2  0  0  0
 10 11  2  0  0  0
 11 12  1  0  0  0
 11  1  1  0  0  0
 12 13  2  0  0  0
 13 14  1  0  0  0
 13 15  1  0  0  0
 15 16  1  0  0  0
  1  2  1  0  0  0
  1  6  1  0  0  0
  2  3  1  0  0  0
  3  4  1  0  0  0
  4  5  1  0  0  0
  4  7  1  0  0  0
  5  6  1  0  0  0
  7  8  2  0  0  0
  7 19  1  0  0  0
 19 20  1  0  0  0
 19 23  2  0  0  0
 20 21  1  0  0  0
 21 22  2  0  0  0
 22 23  1  0  0  0
 25 26  1  0  0  0
 26 27  1  0  0  0
 26 31  2  0  0  0
 27 28  2  0  0  0
 28 29  1  0  0  0
 29 30  2  0  0  0
 30 31  1  0  0  0
 31 32  1  0  0  0
 16 17  1  0  0  0
 16 18  1  0  0  0
M  END
> <minimizedAffinity>
-8.66000

$$$$
4A6L_P43_A_1263


 32 35  0  0  0  0  0  0  0  0999 V2000
   -5.8337   56.3500   -1.8118 C   0  0  0  0  0  0  0  0  0  0  0  0
   -5.5508   55.0875   -0.9255 C   0  0  0  0  0  0  0  0  0  0  0  0
   -6.7152   54.1020   -1.1054 C   0  0  0  0  0  0  0  0  0  0  0  0
   -6.7377   53.7767   -2.5840 N   0  0  0  0  0  0  0  0  0  0  0  0
   -7.1401   54.9925   -3.5531 C   0  0  0  0  0  0  0  0  0  0  0  0
   -6.1091   56.1592   -3.3803 C   0  0  0  0  0  0  0  0  0  0  0  0
   -6.3978   52.5422   -3.0125 C   0  0  0  0  0  0  0  0  0  0  0  0
   -6.0432   51.6092   -2.1720 O   0  0  0  0  0  0  0  0  0  0  0  0
   -3.0849   58.4190   -0.1131 C   0  0  0  0  0  0  0  0  0  0  0  0
   -4.0567   57.4043   -0.3887 C   0  0  0  0  0  0  0  0  0  0  0  0
   -4.8340   57.4209   -1.6170 C   0  0  0  0  0  0  0  0  0  0  0  0
   -4.6451   58.4521   -2.6478 C   0  0  0  0  0  0  0  0  0  0  0  0
   -3.6939   59.4648   -2.3656 C   0  0  0  0  0  0  0  0  0  0  0  0
   -2.9075   59.4315   -1.1319 C   0  0  0  0  0  0  0  0  0  0  0  0
   -3.4358   60.6165   -3.3618 C   0  0  0  0  0  0  0  0  0  0  0  0
   -2.8774   60.1422   -4.5979 N   0  0  0  0  0  0  0  0  0  0  0  0
   -1.9800   59.6929   -4.4153 H   0  0  0  0  0  0  0  0  0  0  0  0
   -2.7410   60.9284   -5.2332 H   0  0  0  0  0  0  0  0  0  0  0  0
   -6.4223   52.2078   -4.4792 C   0  0  0  0  0  0  0  0  0  0  0  0
   -7.6238   52.3811   -5.1050 O   0  0  0  0  0  0  0  0  0  0  0  0
   -7.5047   52.0774   -6.4256 C   0  0  0  0  0  0  0  0  0  0  0  0
   -6.2248   51.6815   -6.7021 C   0  0  0  0  0  0  0  0  0  0  0  0
   -5.4868   51.7691   -5.3946 C   0  0  0  0  0  0  0  0  0  0  0  0
   -8.6726   52.1946   -7.2310 C   0  0  0  0  0  0  0  0  0  0  0  0
   -9.6615   52.2597   -7.8899 C   0  0  0  0  0  0  0  0  0  0  0  0
  -10.8399   52.3346   -8.6760 C   0  0  0  0  0  0  0  0  0  0  0  0
  -10.8005   52.1806  -10.1534 C   0  0  0  0  0  0  0  0  0  0  0  0
  -12.0643   52.2013  -10.9271 C   0  0  0  0  0  0  0  0  0  0  0  0
  -13.2672   52.3788  -10.1508 C   0  0  0  0  0  0  0  0  0  0  0  0
  -13.3091   52.5092   -8.6687 C   0  0  0  0  0  0  0  0  0  0  0  0
  -12.0753   52.5084   -7.9187 C   0  0  0  0  0  0  0  0  0  0  0  0
  -12.0822   52.6351   -6.5154 F   0  0  0  0  0  0  0  0  0  0  0  0
 24 21  1  0  0  0
 24 25  3  0  0  0
  9 10  1  0  0  0
  9 14  2  0  0  0
 10 11  2  0  0  0
 11 12  1  0  0  0
 11  1  1  0  0  0
 12 13  2  0  0  0
 13 14  1  0  0  0
 13 15  1  0  0  0
 15 16  1  0  0  0
  1  2  1  0  0  0
  1  6  1  0  0  0
  2  3  1  0  0  0
  3  4  1  0  0  0
  4  5  1  0  0  0
  4  7  1  0  0  0
  5  6  1  0  0  0
  7  8  2  0  0  0
  7 19  1  0  0  0
 19 20  1  0  0  0
 19 23  2  0  0  0
 20 21  1  0  0  0
 21 22  2  0  0  0
 22 23  1  0  0  0
 25 26  1  0  0  0
 26 27  1  0  0  0
 26 31  2  0  0  0
 27 28  2  0  0  0
 28 29  1  0  0  0
 29 30  2  0  0  0
 30 31  1  0  0  0
 31 32  1  0  0  0
 16 17  1  0  0  0
 16 18  1  0  0  0
M  END
> <minimizedAffinity>
-8.59469

$$$$
4A6L_P43_A_1263


 32 35  0  0  0  0  0  0  0  0999 V2000
   -3.6262   55.5493   -3.3860 C   0  0  0  0  0  0  0  0  0  0  0  0
   -2.9918   55.6935   -4.8130 C   0  0  0  0  0  0  0  0  0  0  0  0
   -2.3913   54.3372   -5.2122 C   0  0  0  0  0  0  0  0  0  0  0  0
   -3.5521   53.3653   -5.1915 N   0  0  0  0  0  0  0  0  0  0  0  0
   -4.1805   53.0700   -3.7434 C   0  0  0  0  0  0  0  0  0  0  0  0
   -4.7208   54.4055   -3.1282 C   0  0  0  0  0  0  0  0  0  0  0  0
   -4.0158   52.8374   -6.3445 C   0  0  0  0  0  0  0  0  0  0  0  0
   -3.4820   53.1500   -7.4934 O   0  0  0  0  0  0  0  0  0  0  0  0
   -5.6003   57.9817   -1.1703 C   0  0  0  0  0  0  0  0  0  0  0  0
   -5.0535   56.7839   -1.7328 C   0  0  0  0  0  0  0  0  0  0  0  0
   -4.1241   56.8332   -2.8494 C   0  0  0  0  0  0  0  0  0  0  0  0
   -3.6743   58.1038   -3.4367 C   0  0  0  0  0  0  0  0  0  0  0  0
   -4.2294   59.2878   -2.8888 C   0  0  0  0  0  0  0  0  0  0  0  0
   -5.1542   59.2276   -1.7564 C   0  0  0  0  0  0  0  0  0  0  0  0
   -3.8540   60.6776   -3.4484 C   0  0  0  0  0  0  0  0  0  0  0  0
   -2.9761   60.5808   -4.5817 N   0  0  0  0  0  0  0  0  0  0  0  0
   -2.1088   60.1227   -4.3018 H   0  0  0  0  0  0  0  0  0  0  0  0
   -2.7688   61.5161   -4.9321 H   0  0  0  0  0  0  0  0  0  0  0  0
   -5.1652   51.8666   -6.3336 C   0  0  0  0  0  0  0  0  0  0  0  0
   -6.3028   52.2901   -6.9596 O   0  0  0  0  0  0  0  0  0  0  0  0
   -7.2491   51.3143   -6.9077 C   0  0  0  0  0  0  0  0  0  0  0  0
   -6.7650   50.2272   -6.2330 C   0  0  0  0  0  0  0  0  0  0  0  0
   -5.3582   50.5903   -5.8443 C   0  0  0  0  0  0  0  0  0  0  0  0
   -8.5093   51.5936   -7.5078 C   0  0  0  0  0  0  0  0  0  0  0  0
   -9.5446   51.8416   -8.0396 C   0  0  0  0  0  0  0  0  0  0  0  0
  -10.7778   52.1399   -8.6742 C   0  0  0  0  0  0  0  0  0  0  0  0
  -10.9143   52.1275  -10.1537 C   0  0  0  0  0  0  0  0  0  0  0  0
  -12.2376   52.3817  -10.7705 C   0  0  0  0  0  0  0  0  0  0  0  0
  -13.3176   52.6317   -9.8473 C   0  0  0  0  0  0  0  0  0  0  0  0
  -13.1862   52.6208   -8.3648 C   0  0  0  0  0  0  0  0  0  0  0  0
  -11.8922   52.3921   -7.7663 C   0  0  0  0  0  0  0  0  0  0  0  0
  -11.7351   52.3809   -6.3660 F   0  0  0  0  0  0  0  0  0  0  0  0
 24 21  1  0  0  0
 24 25  3  0  0  0
  9 10  1  0  0  0
  9 14  2  0  0  0
 10 11  2  0  0  0
 11 12  1  0  0  0
 11  1  1  0  0  0
 12 13  2  0  0  0
 13 14  1  0  0  0
 13 15  1  0  0  0
 15 16  1  0  0  0
  1  2  1  0  0  0
  1  6  1  0  0  0
  2  3  1  0  0  0
  3  4  1  0  0  0
  4  5  1  0  0  0
  4  7  1  0  0  0
  5  6  1  0  0  0
  7  8  2  0  0  0
  7 19  1  0  0  0
 19 20  1  0  0  0
 19 23  2  0  0  0
 20 21  1  0  0  0
 21 22  2  0  0  0
 22 23  1  0  0  0
 25 26  1  0  0  0
 26 27  1  0  0  0
 26 31  2  0  0  0
 27 28  2  0  0  0
 28 29  1  0  0  0
 29 30  2  0  0  0
 30 31  1  0  0  0
 31 32  1  0  0  0
 16 17  1  0  0  0
 16 18  1  0  0  0
M  END
> <minimizedAffinity>
-8.45086

$$$$
4A6L_P43_A_1263


 32 35  0  0  0  0  0  0  0  0999 V2000
   -4.7425   57.9225   -3.3458 C   0  0  0  0  0  0  0  0  0  0  0  0
   -3.2889   57.4367   -3.0132 C   0  0  0  0  0  0  0  0  0  0  0  0
   -3.3831   56.0536   -2.3515 C   0  0  0  0  0  0  0  0  0  0  0  0
   -4.0687   55.1692   -3.3715 N   0  0  0  0  0  0  0  0  0  0  0  0
   -5.6038   55.5288   -3.6773 C   0  0  0  0  0  0  0  0  0  0  0  0
   -5.6949   56.9890   -4.2370 C   0  0  0  0  0  0  0  0  0  0  0  0
   -3.3820   54.1806   -3.9833 C   0  0  0  0  0  0  0  0  0  0  0  0
   -2.1231   53.9664   -3.7150 O   0  0  0  0  0  0  0  0  0  0  0  0
   -4.9451   61.7542   -3.3446 C   0  0  0  0  0  0  0  0  0  0  0  0
   -4.8820   60.3901   -2.9142 C   0  0  0  0  0  0  0  0  0  0  0  0
   -4.7773   59.3027   -3.8732 C   0  0  0  0  0  0  0  0  0  0  0  0
   -4.6996   59.5426   -5.3217 C   0  0  0  0  0  0  0  0  0  0  0  0
   -4.7785   60.8929   -5.7465 C   0  0  0  0  0  0  0  0  0  0  0  0
   -4.8708   61.9808   -4.7721 C   0  0  0  0  0  0  0  0  0  0  0  0
   -4.7398   61.2607   -7.2460 C   0  0  0  0  0  0  0  0  0  0  0  0
   -5.1297   62.6247   -7.4745 N   0  0  0  0  0  0  0  0  0  0  0  0
   -6.0880   62.7627   -7.1535 H   0  0  0  0  0  0  0  0  0  0  0  0
   -5.0718   62.8324   -8.4715 H   0  0  0  0  0  0  0  0  0  0  0  0
   -4.0560   53.2931   -4.9940 C   0  0  0  0  0  0  0  0  0  0  0  0
   -5.3989   53.4875   -5.1492 O   0  0  0  0  0  0  0  0  0  0  0  0
   -5.8788   52.6511   -6.1087 C   0  0  0  0  0  0  0  0  0  0  0  0
   -4.8672   51.8727   -6.6007 C   0  0  0  0  0  0  0  0  0  0  0  0
   -3.6329   52.3013   -5.8559 C   0  0  0  0  0  0  0  0  0  0  0  0
   -7.2720   52.7144   -6.3936 C   0  0  0  0  0  0  0  0  0  0  0  0
   -8.4285   52.7691   -6.6689 C   0  0  0  0  0  0  0  0  0  0  0  0
   -9.8065   52.8364   -6.9988 C   0  0  0  0  0  0  0  0  0  0  0  0
  -10.2618   53.1692   -8.3735 C   0  0  0  0  0  0  0  0  0  0  0  0
  -11.7100   53.1644   -8.6879 C   0  0  0  0  0  0  0  0  0  0  0  0
  -12.5846   52.8278   -7.5911 C   0  0  0  0  0  0  0  0  0  0  0  0
  -12.1277   52.4713   -6.2202 C   0  0  0  0  0  0  0  0  0  0  0  0
  -10.7175   52.4956   -5.9108 C   0  0  0  0  0  0  0  0  0  0  0  0
  -10.2546   52.1680   -4.6209 F   0  0  0  0  0  0  0  0  0  0  0  0
 24 21  1  0  0  0
 24 25  3  0  0  0
  9 10  1  0  0  0
  9 14  2  0  0  0
 10 11  2  0  0  0
 11 12  1  0  0  0
 11  1  1  0  0  0
 12 13  2  0  0  0
 13 14  1  0  0  0
 13 15  1  0  0  0
 15 16  1  0  0  0
  1  2  1  0  0  0
  1  6  1  0  0  0
  2  3  1  0  0  0
  3  4  1  0  0  0
  4  5  1  0  0  0
  4  7  1  0  0  0
  5  6  1  0  0  0
  7  8  2  0  0  0
  7 19  1  0  0  0
 19 20  1  0  0  0
 19 23  2  0  0  0
 20 21  1  0  0  0
 21 22  2  0  0  0
 22 23  1  0  0  0
 25 26  1  0  0  0
 26 27  1  0  0  0
 26 31  2  0  0  0
 27 28  2  0  0  0
 28 29  1  0  0  0
 29 30  2  0  0  0
 30 31  1  0  0  0
 31 32  1  0  0  0
 16 17  1  0  0  0
 16 18  1  0  0  0
M  END
> <minimizedAffinity>
-8.41181

$$$$
4A6L_P43_A_1263


 32 35  0  0  0  0  0  0  0  0999 V2000
   -3.4983   55.2864   -3.4072 C   0  0  0  0  0  0  0  0  0  0  0  0
   -3.9137   55.4939   -1.9093 C   0  0  0  0  0  0  0  0  0  0  0  0
   -5.3975   55.8896   -1.8714 C   0  0  0  0  0  0  0  0  0  0  0  0
   -6.1343   54.7374   -2.5210 N   0  0  0  0  0  0  0  0  0  0  0  0
   -5.8543   54.5344   -4.0894 C   0  0  0  0  0  0  0  0  0  0  0  0
   -4.3291   54.2570   -4.3143 C   0  0  0  0  0  0  0  0  0  0  0  0
   -6.9334   53.9393   -1.7809 C   0  0  0  0  0  0  0  0  0  0  0  0
   -7.0872   54.1378   -0.5005 O   0  0  0  0  0  0  0  0  0  0  0  0
    0.1550   54.6341   -2.4326 C   0  0  0  0  0  0  0  0  0  0  0  0
   -1.2561   54.8665   -2.3630 C   0  0  0  0  0  0  0  0  0  0  0  0
   -2.0527   55.0247   -3.5686 C   0  0  0  0  0  0  0  0  0  0  0  0
   -1.4652   54.9247   -4.9126 C   0  0  0  0  0  0  0  0  0  0  0  0
   -0.0652   54.7107   -4.9790 C   0  0  0  0  0  0  0  0  0  0  0  0
    0.7254   54.5398   -3.7594 C   0  0  0  0  0  0  0  0  0  0  0  0
    0.6644   54.6213   -6.3373 C   0  0  0  0  0  0  0  0  0  0  0  0
    0.6287   55.8690   -7.0490 N   0  0  0  0  0  0  0  0  0  0  0  0
   -0.3402   56.1229   -7.2418 H   0  0  0  0  0  0  0  0  0  0  0  0
    1.1366   55.7734   -7.9284 H   0  0  0  0  0  0  0  0  0  0  0  0
   -7.6740   52.7953   -2.4184 C   0  0  0  0  0  0  0  0  0  0  0  0
   -8.3573   53.0973   -3.5617 O   0  0  0  0  0  0  0  0  0  0  0  0
   -8.9529   51.9774   -4.0533 C   0  0  0  0  0  0  0  0  0  0  0  0
   -8.6900   50.9105   -3.2385 C   0  0  0  0  0  0  0  0  0  0  0  0
   -7.8252   51.4530   -2.1340 C   0  0  0  0  0  0  0  0  0  0  0  0
   -9.7199   52.1145   -5.2446 C   0  0  0  0  0  0  0  0  0  0  0  0
  -10.3306   52.2441   -6.2577 C   0  0  0  0  0  0  0  0  0  0  0  0
  -11.0577   52.4015   -7.4656 C   0  0  0  0  0  0  0  0  0  0  0  0
  -10.3977   52.2842   -8.7917 C   0  0  0  0  0  0  0  0  0  0  0  0
  -11.2092   52.3916  -10.0270 C   0  0  0  0  0  0  0  0  0  0  0  0
  -12.6210   52.6120   -9.8279 C   0  0  0  0  0  0  0  0  0  0  0  0
  -13.2860   52.7057   -8.4997 C   0  0  0  0  0  0  0  0  0  0  0  0
  -12.4908   52.6203   -7.2976 C   0  0  0  0  0  0  0  0  0  0  0  0
  -13.0908   52.7107   -6.0258 F   0  0  0  0  0  0  0  0  0  0  0  0
 24 21  1  0  0  0
 24 25  3  0  0  0
  9 10  1  0  0  0
  9 14  2  0  0  0
 10 11  2  0  0  0
 11 12  1  0  0  0
 11  1  1  0  0  0
 12 13  2  0  0  0
 13 14  1  0  0  0
 13 15  1  0  0  0
 15 16  1  0  0  0
  1  2  1  0  0  0
  1  6  1  0  0  0
  2  3  1  0  0  0
  3  4  1  0  0  0
  4  5  1  0  0  0
  4  7  1  0  0  0
  5  6  1  0  0  0
  7  8  2  0  0  0
  7 19  1  0  0  0
 19 20  1  0  0  0
 19 23  2  0  0  0
 20 21  1  0  0  0
 21 22  2  0  0  0
 22 23  1  0  0  0
 25 26  1  0  0  0
 26 27  1  0  0  0
 26 31  2  0  0  0
 27 28  2  0  0  0
 28 29  1  0  0  0
 29 30  2  0  0  0
 30 31  1  0  0  0
 31 32  1  0  0  0
 16 17  1  0  0  0
 16 18  1  0  0  0
M  END
> <minimizedAffinity>
-8.40626

$$$$
4A6L_P43_A_1263


 32 35  0  0  0  0  0  0  0  0999 V2000
   -9.2404   50.6336   -6.9849 C   0  0  0  0  0  0  0  0  0  0  0  0
   -9.4724   49.9936   -5.5720 C   0  0  0  0  0  0  0  0  0  0  0  0
   -8.2751   49.0860   -5.2521 C   0  0  0  0  0  0  0  0  0  0  0  0
   -7.0653   49.9959   -5.2826 N   0  0  0  0  0  0  0  0  0  0  0  0
   -6.6885   50.5965   -6.7236 C   0  0  0  0  0  0  0  0  0  0  0  0
   -7.8873   51.4492   -7.2619 C   0  0  0  0  0  0  0  0  0  0  0  0
   -6.4029   50.2827   -4.1415 C   0  0  0  0  0  0  0  0  0  0  0  0
   -6.7861   49.7896   -2.9958 O   0  0  0  0  0  0  0  0  0  0  0  0
  -12.5098   52.6350   -6.8185 C   0  0  0  0  0  0  0  0  0  0  0  0
  -11.3514   51.8789   -6.4490 C   0  0  0  0  0  0  0  0  0  0  0  0
  -10.3958   51.4302   -7.4483 C   0  0  0  0  0  0  0  0  0  0  0  0
  -10.5476   51.7513   -8.8750 C   0  0  0  0  0  0  0  0  0  0  0  0
  -11.7036   52.4862   -9.2406 C   0  0  0  0  0  0  0  0  0  0  0  0
  -12.6526   52.9442   -8.2252 C   0  0  0  0  0  0  0  0  0  0  0  0
  -11.9828   52.8520  -10.7149 C   0  0  0  0  0  0  0  0  0  0  0  0
  -11.0954   52.1687  -11.6150 N   0  0  0  0  0  0  0  0  0  0  0  0
  -10.1326   52.4384  -11.4131 H   0  0  0  0  0  0  0  0  0  0  0  0
  -11.3249   52.4217  -12.5761 H   0  0  0  0  0  0  0  0  0  0  0  0
   -5.1964   51.1813   -4.1625 C   0  0  0  0  0  0  0  0  0  0  0  0
   -5.4406   52.5045   -3.9287 O   0  0  0  0  0  0  0  0  0  0  0  0
   -4.2713   53.1994   -3.9424 C   0  0  0  0  0  0  0  0  0  0  0  0
   -3.2268   52.3545   -4.2005 C   0  0  0  0  0  0  0  0  0  0  0  0
   -3.8419   50.9900   -4.3478 C   0  0  0  0  0  0  0  0  0  0  0  0
   -4.3433   54.6042   -3.7238 C   0  0  0  0  0  0  0  0  0  0  0  0
   -4.3836   55.7740   -3.5091 C   0  0  0  0  0  0  0  0  0  0  0  0
   -4.4323   57.1680   -3.2504 C   0  0  0  0  0  0  0  0  0  0  0  0
   -3.7244   58.1452   -4.1173 C   0  0  0  0  0  0  0  0  0  0  0  0
   -3.8566   59.5962   -3.8469 C   0  0  0  0  0  0  0  0  0  0  0  0
   -4.6891   59.9471   -2.7222 C   0  0  0  0  0  0  0  0  0  0  0  0
   -5.4174   58.9697   -1.8681 C   0  0  0  0  0  0  0  0  0  0  0  0
   -5.2717   57.5556   -2.1212 C   0  0  0  0  0  0  0  0  0  0  0  0
   -5.9443   56.6059   -1.3269 F   0  0  0  0  0  0  0  0  0  0  0  0
 24 21  1  0  0  0
 24 25  3  0  0  0
  9 10  1  0  0  0
  9 14  2  0  0  0
 10 11  2  0  0  0
 11 12  1  0  0  0
 11  1  1  0  0  0
 12 13  2  0  0  0
 13 14  1  0  0  0
 13 15  1  0  0  0
 15 16  1  0  0  0
  1  2  1  0  0  0
  1  6  1  0  0  0
  2  3  1  0  0  0
  3  4  1  0  0  0
  4  5  1  0  0  0
  4  7  1  0  0  0
  5  6  1  0  0  0
  7  8  2  0  0  0
  7 19  1  0  0  0
 19 20  1  0  0  0
 19 23  2  0  0  0
 20 21  1  0  0  0
 21 22  2  0  0  0
 22 23  1  0  0  0
 25 26  1  0  0  0
 26 27  1  0  0  0
 26 31  2  0  0  0
 27 28  2  0  0  0
 28 29  1  0  0  0
 29 30  2  0  0  0
 30 31  1  0  0  0
 31 32  1  0  0  0
 16 17  1  0  0  0
 16 18  1  0  0  0
M  END
> <minimizedAffinity>
-8.03663

$$$$
