4CSD_MFU_A_301


 15 15  0  0  0  0  0  0  0  0999 V2000
  -11.5416   -4.0239   40.7149 C   0  0  0  0  0  0  0  0  0  0  0  0
  -10.1689   -4.1358   41.3667 C   0  0  0  0  0  0  0  0  0  0  0  0
  -10.2046   -5.2490   42.4311 C   0  0  0  0  0  0  0  0  0  0  0  0
  -10.6706   -6.5251   41.7077 C   0  0  0  0  0  0  0  0  0  0  0  0
  -12.0901   -6.3174   41.1410 C   0  0  0  0  0  0  0  0  0  0  0  0
  -12.6470   -7.5446   40.4121 C   0  0  0  0  0  0  0  0  0  0  0  0
   -9.8110   -2.8696   41.9152 O   0  0  0  0  0  0  0  0  0  0  0  0
   -8.9067   -5.4088   43.0166 O   0  0  0  0  0  0  0  0  0  0  0  0
   -9.8047   -6.9270   40.6320 O   0  0  0  0  0  0  0  0  0  0  0  0
  -11.9984   -5.2544   40.1723 O   0  0  0  0  0  0  0  0  0  0  0  0
  -10.4728   -2.6031   42.5724 H   0  0  0  0  0  0  0  0  0  0  0  0
   -8.2631   -5.6221   42.3229 H   0  0  0  0  0  0  0  0  0  0  0  0
   -9.7989   -6.2397   39.9476 H   0  0  0  0  0  0  0  0  0  0  0  0
  -12.4753   -3.5429   41.6846 O   0  0  0  0  0  0  0  0  0  0  0  0
  -13.3774   -2.5445   41.2226 C   0  0  0  0  0  0  0  0  0  0  0  0
  1  2  1  0  0  0
  1 14  1  0  0  0
  1 10  1  0  0  0
  2  3  1  0  0  0
  2  7  1  0  0  0
  3  4  1  0  0  0
  3  8  1  0  0  0
  4  5  1  0  0  0
  4  9  1  0  0  0
  5  6  1  0  0  0
  5 10  1  0  0  0
 14 15  1  0  0  0
  7 11  1  0  0  0
  8 12  1  0  0  0
  9 13  1  0  0  0
M  END
> <minimizedAffinity>
-6.63847

$$$$
4CSD_MFU_A_301


 15 15  0  0  0  0  0  0  0  0999 V2000
  -12.8056   -4.4554   40.5835 C   0  0  0  0  0  0  0  0  0  0  0  0
  -11.7536   -3.3647   40.7431 C   0  0  0  0  0  0  0  0  0  0  0  0
  -10.8709   -3.6892   41.9633 C   0  0  0  0  0  0  0  0  0  0  0  0
  -10.2960   -5.0960   41.7202 C   0  0  0  0  0  0  0  0  0  0  0  0
  -11.4433   -6.1234   41.6347 C   0  0  0  0  0  0  0  0  0  0  0  0
  -10.9658   -7.5613   41.4070 C   0  0  0  0  0  0  0  0  0  0  0  0
  -12.4072   -2.1036   40.8640 O   0  0  0  0  0  0  0  0  0  0  0  0
   -9.8387   -2.7045   42.0970 O   0  0  0  0  0  0  0  0  0  0  0  0
   -9.5042   -5.1965   40.5238 O   0  0  0  0  0  0  0  0  0  0  0  0
  -12.2439   -5.7569   40.4938 O   0  0  0  0  0  0  0  0  0  0  0  0
  -12.9953   -2.1169   41.6353 H   0  0  0  0  0  0  0  0  0  0  0  0
   -9.3051   -2.6834   41.2873 H   0  0  0  0  0  0  0  0  0  0  0  0
  -10.0622   -5.0175   39.7508 H   0  0  0  0  0  0  0  0  0  0  0  0
  -13.7094   -4.3903   41.6890 O   0  0  0  0  0  0  0  0  0  0  0  0
  -15.0902   -4.4701   41.3558 C   0  0  0  0  0  0  0  0  0  0  0  0
  1  2  1  0  0  0
  1 14  1  0  0  0
  1 10  1  0  0  0
  2  3  1  0  0  0
  2  7  1  0  0  0
  3  4  1  0  0  0
  3  8  1  0  0  0
  4  5  1  0  0  0
  4  9  1  0  0  0
  5  6  1  0  0  0
  5 10  1  0  0  0
 14 15  1  0  0  0
  7 11  1  0  0  0
  8 12  1  0  0  0
  9 13  1  0  0  0
M  END
> <minimizedAffinity>
-5.24027

$$$$
4CSD_MFU_A_301


 15 15  0  0  0  0  0  0  0  0999 V2000
  -12.7732   -4.0852   41.1168 C   0  0  0  0  0  0  0  0  0  0  0  0
  -11.9202   -5.3473   41.1548 C   0  0  0  0  0  0  0  0  0  0  0  0
  -10.5328   -5.0371   40.5613 C   0  0  0  0  0  0  0  0  0  0  0  0
   -9.9655   -3.8619   41.3773 C   0  0  0  0  0  0  0  0  0  0  0  0
  -10.8748   -2.6261   41.2180 C   0  0  0  0  0  0  0  0  0  0  0  0
  -10.3813   -1.3961   41.9865 C   0  0  0  0  0  0  0  0  0  0  0  0
  -12.5951   -6.3850   40.4478 O   0  0  0  0  0  0  0  0  0  0  0  0
   -9.6957   -6.1973   40.6401 O   0  0  0  0  0  0  0  0  0  0  0  0
   -9.8266   -4.1476   42.7800 O   0  0  0  0  0  0  0  0  0  0  0  0
  -12.1586   -2.9823   41.7675 O   0  0  0  0  0  0  0  0  0  0  0  0
  -12.7423   -6.1080   39.5299 H   0  0  0  0  0  0  0  0  0  0  0  0
   -9.6152   -6.4756   41.5658 H   0  0  0  0  0  0  0  0  0  0  0  0
  -10.7011   -4.3190   43.1632 H   0  0  0  0  0  0  0  0  0  0  0  0
  -13.0482   -3.7548   39.7536 O   0  0  0  0  0  0  0  0  0  0  0  0
  -14.4045   -3.4390   39.4623 C   0  0  0  0  0  0  0  0  0  0  0  0
  1  2  1  0  0  0
  1 14  1  0  0  0
  1 10  1  0  0  0
  2  3  1  0  0  0
  2  7  1  0  0  0
  3  4  1  0  0  0
  3  8  1  0  0  0
  4  5  1  0  0  0
  4  9  1  0  0  0
  5  6  1  0  0  0
  5 10  1  0  0  0
 14 15  1  0  0  0
  7 11  1  0  0  0
  8 12  1  0  0  0
  9 13  1  0  0  0
M  END
> <minimizedAffinity>
-5.13977

$$$$
4CSD_MFU_A_301


 15 15  0  0  0  0  0  0  0  0999 V2000
  -11.9665   -6.1761   41.5124 C   0  0  0  0  0  0  0  0  0  0  0  0
  -10.6478   -5.5522   41.9525 C   0  0  0  0  0  0  0  0  0  0  0  0
  -10.2835   -4.4081   40.9872 C   0  0  0  0  0  0  0  0  0  0  0  0
  -11.4788   -3.4386   40.9939 C   0  0  0  0  0  0  0  0  0  0  0  0
  -12.7406   -4.1588   40.4759 C   0  0  0  0  0  0  0  0  0  0  0  0
  -13.9847   -3.2656   40.4328 C   0  0  0  0  0  0  0  0  0  0  0  0
   -9.6468   -6.5662   41.9973 O   0  0  0  0  0  0  0  0  0  0  0  0
   -9.0744   -3.7708   41.4170 O   0  0  0  0  0  0  0  0  0  0  0  0
  -11.7680   -2.8888   42.2910 O   0  0  0  0  0  0  0  0  0  0  0  0
  -13.0178   -5.2274   41.4023 O   0  0  0  0  0  0  0  0  0  0  0  0
   -9.5514   -6.9654   41.1184 H   0  0  0  0  0  0  0  0  0  0  0  0
   -9.1906   -3.4314   42.3183 H   0  0  0  0  0  0  0  0  0  0  0  0
  -12.0223   -3.6033   42.8957 H   0  0  0  0  0  0  0  0  0  0  0  0
  -11.7704   -6.8334   40.2584 O   0  0  0  0  0  0  0  0  0  0  0  0
  -12.6987   -7.8691   39.9588 C   0  0  0  0  0  0  0  0  0  0  0  0
  1  2  1  0  0  0
  1 14  1  0  0  0
  1 10  1  0  0  0
  2  3  1  0  0  0
  2  7  1  0  0  0
  3  4  1  0  0  0
  3  8  1  0  0  0
  4  5  1  0  0  0
  4  9  1  0  0  0
  5  6  1  0  0  0
  5 10  1  0  0  0
 14 15  1  0  0  0
  7 11  1  0  0  0
  8 12  1  0  0  0
  9 13  1  0  0  0
M  END
> <minimizedAffinity>
-4.94012

$$$$
4CSD_MFU_A_301


 15 15  0  0  0  0  0  0  0  0999 V2000
  -12.9846   -4.4716   41.1729 C   0  0  0  0  0  0  0  0  0  0  0  0
  -11.5666   -4.9827   41.3963 C   0  0  0  0  0  0  0  0  0  0  0  0
  -10.6014   -3.7835   41.4579 C   0  0  0  0  0  0  0  0  0  0  0  0
  -11.1274   -2.8610   42.5720 C   0  0  0  0  0  0  0  0  0  0  0  0
  -12.5407   -2.3585   42.2125 C   0  0  0  0  0  0  0  0  0  0  0  0
  -13.1441   -1.4179   43.2606 C   0  0  0  0  0  0  0  0  0  0  0  0
  -11.2333   -5.8968   40.3544 O   0  0  0  0  0  0  0  0  0  0  0  0
   -9.2696   -4.2398   41.7245 O   0  0  0  0  0  0  0  0  0  0  0  0
  -11.1824   -3.4905   43.8639 O   0  0  0  0  0  0  0  0  0  0  0  0
  -13.3900   -3.5210   42.1473 O   0  0  0  0  0  0  0  0  0  0  0  0
  -11.2957   -5.4469   39.4973 H   0  0  0  0  0  0  0  0  0  0  0  0
   -9.2572   -4.7297   42.5615 H   0  0  0  0  0  0  0  0  0  0  0  0
  -11.8083   -4.2311   43.8363 H   0  0  0  0  0  0  0  0  0  0  0  0
  -13.0673   -3.8959   39.8671 O   0  0  0  0  0  0  0  0  0  0  0  0
  -14.3850   -3.6933   39.3702 C   0  0  0  0  0  0  0  0  0  0  0  0
  1  2  1  0  0  0
  1 14  1  0  0  0
  1 10  1  0  0  0
  2  3  1  0  0  0
  2  7  1  0  0  0
  3  4  1  0  0  0
  3  8  1  0  0  0
  4  5  1  0  0  0
  4  9  1  0  0  0
  5  6  1  0  0  0
  5 10  1  0  0  0
 14 15  1  0  0  0
  7 11  1  0  0  0
  8 12  1  0  0  0
  9 13  1  0  0  0
M  END
> <minimizedAffinity>
-4.41914

$$$$
4CSD_MFU_A_301


 15 15  0  0  0  0  0  0  0  0999 V2000
  -12.1418   -1.8718   41.9962 C   0  0  0  0  0  0  0  0  0  0  0  0
  -10.6811   -2.2674   41.8187 C   0  0  0  0  0  0  0  0  0  0  0  0
  -10.5201   -3.7644   42.1454 C   0  0  0  0  0  0  0  0  0  0  0  0
  -11.4984   -4.5161   41.2253 C   0  0  0  0  0  0  0  0  0  0  0  0
  -12.9460   -4.0812   41.5326 C   0  0  0  0  0  0  0  0  0  0  0  0
  -13.9970   -4.7896   40.6719 C   0  0  0  0  0  0  0  0  0  0  0  0
   -9.8717   -1.4388   42.6497 O   0  0  0  0  0  0  0  0  0  0  0  0
   -9.1629   -4.1697   41.9295 O   0  0  0  0  0  0  0  0  0  0  0  0
  -11.2478   -4.3082   39.8244 O   0  0  0  0  0  0  0  0  0  0  0  0
  -13.0293   -2.6744   41.2309 O   0  0  0  0  0  0  0  0  0  0  0  0
  -10.1386   -1.5504   43.5756 H   0  0  0  0  0  0  0  0  0  0  0  0
   -8.9157   -3.9942   41.0081 H   0  0  0  0  0  0  0  0  0  0  0  0
  -11.3726   -3.3707   39.6093 H   0  0  0  0  0  0  0  0  0  0  0  0
  -12.4787   -1.9596   43.3826 O   0  0  0  0  0  0  0  0  0  0  0  0
  -13.3817   -0.9677   43.8567 C   0  0  0  0  0  0  0  0  0  0  0  0
  1  2  1  0  0  0
  1 14  1  0  0  0
  1 10  1  0  0  0
  2  3  1  0  0  0
  2  7  1  0  0  0
  3  4  1  0  0  0
  3  8  1  0  0  0
  4  5  1  0  0  0
  4  9  1  0  0  0
  5  6  1  0  0  0
  5 10  1  0  0  0
 14 15  1  0  0  0
  7 11  1  0  0  0
  8 12  1  0  0  0
  9 13  1  0  0  0
M  END
> <minimizedAffinity>
-4.35212

$$$$
4CSD_MFU_A_301


 15 15  0  0  0  0  0  0  0  0999 V2000
  -11.5200   -3.4635   41.4573 C   0  0  0  0  0  0  0  0  0  0  0  0
  -11.2107   -4.6814   40.5955 C   0  0  0  0  0  0  0  0  0  0  0  0
  -12.1570   -5.8318   40.9889 C   0  0  0  0  0  0  0  0  0  0  0  0
  -13.5883   -5.2884   40.8308 C   0  0  0  0  0  0  0  0  0  0  0  0
  -13.8064   -4.0999   41.7896 C   0  0  0  0  0  0  0  0  0  0  0  0
  -15.2136   -3.4986   41.7137 C   0  0  0  0  0  0  0  0  0  0  0  0
   -9.8371   -5.0272   40.7568 O   0  0  0  0  0  0  0  0  0  0  0  0
  -11.9203   -6.9693   40.1504 O   0  0  0  0  0  0  0  0  0  0  0  0
  -13.8974   -4.8580   39.4938 O   0  0  0  0  0  0  0  0  0  0  0  0
  -12.8827   -3.0689   41.3887 O   0  0  0  0  0  0  0  0  0  0  0  0
   -9.6607   -5.2241   41.6901 H   0  0  0  0  0  0  0  0  0  0  0  0
  -12.0546   -6.7205   39.2225 H   0  0  0  0  0  0  0  0  0  0  0  0
  -13.3205   -4.1169   39.2512 H   0  0  0  0  0  0  0  0  0  0  0  0
  -11.1647   -3.7537   42.8111 O   0  0  0  0  0  0  0  0  0  0  0  0
  -11.3625   -2.6914   43.7366 C   0  0  0  0  0  0  0  0  0  0  0  0
  1  2  1  0  0  0
  1 14  1  0  0  0
  1 10  1  0  0  0
  2  3  1  0  0  0
  2  7  1  0  0  0
  3  4  1  0  0  0
  3  8  1  0  0  0
  4  5  1  0  0  0
  4  9  1  0  0  0
  5  6  1  0  0  0
  5 10  1  0  0  0
 14 15  1  0  0  0
  7 11  1  0  0  0
  8 12  1  0  0  0
  9 13  1  0  0  0
M  END
> <minimizedAffinity>
-4.24869

$$$$
4CSD_MFU_A_301


 15 15  0  0  0  0  0  0  0  0999 V2000
  -13.4811   -5.1399   41.1304 C   0  0  0  0  0  0  0  0  0  0  0  0
  -12.1651   -5.8695   41.3703 C   0  0  0  0  0  0  0  0  0  0  0  0
  -11.0240   -5.0896   40.6899 C   0  0  0  0  0  0  0  0  0  0  0  0
  -11.0730   -3.6621   41.2633 C   0  0  0  0  0  0  0  0  0  0  0  0
  -12.4215   -3.0017   40.9104 C   0  0  0  0  0  0  0  0  0  0  0  0
  -12.5581   -1.5667   41.4294 C   0  0  0  0  0  0  0  0  0  0  0  0
  -12.2788   -7.2041   40.8824 O   0  0  0  0  0  0  0  0  0  0  0  0
   -9.7691   -5.7294   40.9520 O   0  0  0  0  0  0  0  0  0  0  0  0
  -10.8981   -3.6074   42.6897 O   0  0  0  0  0  0  0  0  0  0  0  0
  -13.4471   -3.7842   41.5528 O   0  0  0  0  0  0  0  0  0  0  0  0
  -12.4831   -7.1855   39.9343 H   0  0  0  0  0  0  0  0  0  0  0  0
   -9.6244   -5.7771   41.9100 H   0  0  0  0  0  0  0  0  0  0  0  0
  -11.6284   -4.0761   43.1232 H   0  0  0  0  0  0  0  0  0  0  0  0
  -13.7998   -5.2083   39.7386 O   0  0  0  0  0  0  0  0  0  0  0  0
  -15.1735   -5.4202   39.4352 C   0  0  0  0  0  0  0  0  0  0  0  0
  1  2  1  0  0  0
  1 14  1  0  0  0
  1 10  1  0  0  0
  2  3  1  0  0  0
  2  7  1  0  0  0
  3  4  1  0  0  0
  3  8  1  0  0  0
  4  5  1  0  0  0
  4  9  1  0  0  0
  5  6  1  0  0  0
  5 10  1  0  0  0
 14 15  1  0  0  0
  7 11  1  0  0  0
  8 12  1  0  0  0
  9 13  1  0  0  0
M  END
> <minimizedAffinity>
-4.18297

$$$$
4CSD_MFU_A_301


 15 15  0  0  0  0  0  0  0  0999 V2000
  -14.1346   -5.9023   40.6792 C   0  0  0  0  0  0  0  0  0  0  0  0
  -14.3961   -4.5804   39.9679 C   0  0  0  0  0  0  0  0  0  0  0  0
  -15.2856   -4.8370   38.7364 C   0  0  0  0  0  0  0  0  0  0  0  0
  -16.5520   -5.5406   39.2559 C   0  0  0  0  0  0  0  0  0  0  0  0
  -16.1745   -6.8900   39.9008 C   0  0  0  0  0  0  0  0  0  0  0  0
  -17.3772   -7.6732   40.4371 C   0  0  0  0  0  0  0  0  0  0  0  0
  -13.1480   -3.9840   39.6232 O   0  0  0  0  0  0  0  0  0  0  0  0
  -15.5903   -3.5975   38.0855 O   0  0  0  0  0  0  0  0  0  0  0  0
  -17.2886   -4.7659   40.2180 O   0  0  0  0  0  0  0  0  0  0  0  0
  -15.3282   -6.5887   41.0277 O   0  0  0  0  0  0  0  0  0  0  0  0
  -12.6523   -4.5835   39.0438 H   0  0  0  0  0  0  0  0  0  0  0  0
  -16.0372   -3.0054   38.7104 H   0  0  0  0  0  0  0  0  0  0  0  0
  -16.7409   -4.6233   41.0058 H   0  0  0  0  0  0  0  0  0  0  0  0
  -13.3265   -6.7276   39.8371 O   0  0  0  0  0  0  0  0  0  0  0  0
  -12.2933   -7.4492   40.4973 C   0  0  0  0  0  0  0  0  0  0  0  0
  1  2  1  0  0  0
  1 14  1  0  0  0
  1 10  1  0  0  0
  2  3  1  0  0  0
  2  7  1  0  0  0
  3  4  1  0  0  0
  3  8  1  0  0  0
  4  5  1  0  0  0
  4  9  1  0  0  0
  5  6  1  0  0  0
  5 10  1  0  0  0
 14 15  1  0  0  0
  7 11  1  0  0  0
  8 12  1  0  0  0
  9 13  1  0  0  0
M  END
> <minimizedAffinity>
-4.06657

$$$$
4CSD_MFU_A_301


 15 15  0  0  0  0  0  0  0  0999 V2000
  -11.2863   -4.7432   40.8710 C   0  0  0  0  0  0  0  0  0  0  0  0
  -12.7752   -4.5906   40.5851 C   0  0  0  0  0  0  0  0  0  0  0  0
  -13.4188   -3.7426   41.6987 C   0  0  0  0  0  0  0  0  0  0  0  0
  -12.6399   -2.4158   41.7377 C   0  0  0  0  0  0  0  0  0  0  0  0
  -11.1632   -2.6853   42.0927 C   0  0  0  0  0  0  0  0  0  0  0  0
  -10.3075   -1.4167   42.1693 C   0  0  0  0  0  0  0  0  0  0  0  0
  -13.3623   -5.8852   40.4784 O   0  0  0  0  0  0  0  0  0  0  0  0
  -14.8091   -3.5395   41.4181 O   0  0  0  0  0  0  0  0  0  0  0  0
  -12.6849   -1.6841   40.5004 O   0  0  0  0  0  0  0  0  0  0  0  0
  -10.6232   -3.4975   41.0318 O   0  0  0  0  0  0  0  0  0  0  0  0
  -13.2288   -6.3701   41.3078 H   0  0  0  0  0  0  0  0  0  0  0  0
  -14.9047   -3.1008   40.5583 H   0  0  0  0  0  0  0  0  0  0  0  0
  -12.2581   -2.2040   39.8016 H   0  0  0  0  0  0  0  0  0  0  0  0
  -11.1213   -5.5381   42.0475 O   0  0  0  0  0  0  0  0  0  0  0  0
  -10.3158   -6.7004   41.8925 C   0  0  0  0  0  0  0  0  0  0  0  0
  1  2  1  0  0  0
  1 14  1  0  0  0
  1 10  1  0  0  0
  2  3  1  0  0  0
  2  7  1  0  0  0
  3  4  1  0  0  0
  3  8  1  0  0  0
  4  5  1  0  0  0
  4  9  1  0  0  0
  5  6  1  0  0  0
  5 10  1  0  0  0
 14 15  1  0  0  0
  7 11  1  0  0  0
  8 12  1  0  0  0
  9 13  1  0  0  0
M  END
> <minimizedAffinity>
-3.99359

$$$$
