5CQU_JRJ_A_401
  RCSB PDB12061717083D
Coordinates from PDB:5CQU:A:401 Model:1 without hydrogens
 25 27  0  0  0  0            999 V2000
    4.7400   -9.1450   -7.6670   N 0  0  0  0  0  0  0  0  0  0  0  0
    4.1620   -8.1890   -8.4900   C 0  0  0  0  0  0  0  0  0  0  0  0
    4.9920   -7.6380   -9.6010   C 0  0  0  0  0  0  0  0  0  0  0  0
    4.7600   -6.2210  -10.0100   C 0  0  0  0  0  0  0  0  0  0  0  0
    5.0650   -5.0940   -8.9530   C 0  0  0  0  0  0  0  0  0  0  0  0
    4.9340   -3.7420   -9.3590   N 0  0  0  0  0  0  0  0  0  0  0  0
    5.3110   -3.2020  -10.5710   C 0  0  0  0  0  0  0  0  0  0  0  0
    4.9700   -1.7550  -10.5080   C 0  0  0  0  0  0  0  0  0  0  0  0
    5.1810   -0.6510  -11.6170   C 0  0  0  0  0  0  0  0  0  0  0  0
    4.2390   -0.6260  -12.7510   C 0  0  0  0  0  0  0  0  0  0  0  0
    4.5450   -1.5690  -13.8990   N 0  0  0  0  0  0  0  0  0  0  0  0
    4.6330   -1.2250  -15.1080   N 0  0  0  0  0  0  0  0  0  0  0  0
    4.9280   -2.3690  -15.8690   C 0  0  0  0  0  0  0  0  0  0  0  0
    5.1520   -2.6320  -17.3120   C 0  0  0  0  0  0  0  0  0  0  0  0
    5.0500   -1.2400  -18.5230  Br 0  0  0  0  0  0  0  0  0  0  0  0
    5.4290   -3.9050  -17.7320   C 0  0  0  0  0  0  0  0  0  0  0  0
    5.7310   -4.3020  -19.6320  Br 0  0  0  0  0  0  0  0  0  0  0  0
    5.5040   -4.9560  -16.8130   C 0  0  0  0  0  0  0  0  0  0  0  0
    5.8970   -6.7330  -17.4360  Br 0  0  0  0  0  0  0  0  0  0  0  0
    5.2790   -4.6980  -15.3500   C 0  0  0  0  0  0  0  0  0  0  0  0
    5.3830   -6.1830  -14.0460  Br 0  0  0  0  0  0  0  0  0  0  0  0
    5.0060   -3.4510  -14.9280   C 0  0  0  0  0  0  0  0  0  0  0  0
    4.7580   -2.8860  -13.7300   N 0  0  0  0  0  0  0  0  0  0  0  0
    4.4020   -1.5960   -9.2030   N 0  0  0  0  0  0  0  0  0  0  0  0
    4.3980   -2.7250   -8.5850   N 0  0  0  0  0  0  0  0  0  0  0  0
  1  2  1  0  0  0  0
  2  3  1  0  0  0  0
  3  4  1  0  0  0  0
  4  5  1  0  0  0  0
  5  6  1  0  0  0  0
  6  7  1  0  0  0  0
  6 25  1  0  0  0  0
  7  8  2  0  0  0  0
  8  9  1  0  0  0  0
  8 24  1  0  0  0  0
  9 10  1  0  0  0  0
 10 11  1  0  0  0  0
 11 12  1  0  0  0  0
 11 23  1  0  0  0  0
 12 13  2  0  0  0  0
 13 14  1  0  0  0  0
 13 22  1  0  0  0  0
 14 15  1  0  0  0  0
 14 16  2  0  0  0  0
 16 17  1  0  0  0  0
 16 18  1  0  0  0  0
 18 19  1  0  0  0  0
 18 20  2  0  0  0  0
 20 21  1  0  0  0  0
 20 22  1  0  0  0  0
 22 23  2  0  0  0  0
 24 25  2  0  0  0  0
A    1
N01
A    2
C02
A    3
C03
A    4
C04
A    5
C05
A    6
N06
A    7
C07
A    8
C08
A    9
C09
A   10
C10
A   11
N11
A   12
N12
A   13
C13
A   14
C14
A   15
BR1
A   16
C16
A   17
BR2
A   18
C18
A   19
BR3
A   20
C20
A   21
BR4
A   22
C22
A   23
N23
A   24
N24
A   25
N25
M  END
>  <InstanceId>
5CQU_JRJ_A_401

>  <ChemCompId>
JRJ

>  <PdbId>
5CQU

>  <ChainId>
A

>  <ResidueNumber>
401

>  <InsertionCode>


>  <Model>
1

>  <AltIds>


>  <MissingHeavyAtoms>
0

>  <ObservedFormula>
C14 N7 Br4

>  <Name>
4-[4-[2-[4,5,6,7-tetrakis(bromanyl)benzotriazol-2-yl]ethyl]-1,2,3-triazol-1-yl]butan-1-amine

>  <SystematicName>
4-[4-[2-[4,5,6,7-tetrakis(bromanyl)benzotriazol-2-yl]ethyl]-1,2,3-triazol-1-yl]butan-1-amine

>  <Synonyms>


>  <Type>
non-polymer

>  <Formula>
C14 H15 Br4 N7

>  <MolecularWeight>
600.932

>  <ModifiedDate>
2014-09-05

>  <Parent>


>  <OneLetterCode>


>  <SubcomponentList>


>  <AmbiguousFlag>
N

>  <InChI>
InChI=1S/C14H15Br4N7/c15-9-10(16)12(18)14-13(11(9)17)21-25(22-14)6-3-8-7-24(23-20-8)5-2-1-4-19/h7H,1-6,19H2

>  <InChIKey>
KAIWWTMLTRXFON-UHFFFAOYSA-N

>  <SMILES>
c1c(nnn1CCCCN)CCn2nc3c(n2)c(c(c(c3Br)Br)Br)Br

$$$$
