1AID_THK_B_201
  RCSB PDB12061701593D
Coordinates from PDB:1AID:B:201 Model:1 without hydrogens
 29 32  0  0  0  0            999 V2000
   63.8400   38.1860    0.2080   N 0  0  0  0  0  0  0  0  0  0  0  0
   64.9660   37.9320    1.1280   C 0  0  0  0  0  0  0  0  0  0  0  0
   64.4870   37.5930    2.5450   C 0  0  0  0  0  0  0  0  0  0  0  0
   63.4750   38.6190    3.0900   C 0  0  0  0  0  0  0  0  0  0  0  0
   64.0940   39.9020    3.1010   O 0  0  0  0  0  0  0  0  0  0  0  0
   62.2980   38.6900    2.1020   C 0  0  0  0  0  0  0  0  0  0  0  0
   62.7860   39.0910    0.7070   C 0  0  0  0  0  0  0  0  0  0  0  0
   64.2990   38.7080   -1.0960   C 0  0  0  0  0  0  0  0  0  0  0  0
   65.1080   37.6800   -1.8950   C 0  0  0  0  0  0  0  0  0  0  0  0
   66.1910   38.4350   -2.6840   C 0  0  0  0  0  0  0  0  0  0  0  0
   66.4920   37.7880   -4.0510   C 0  0  0  0  0  0  0  0  0  0  0  0
   65.3550   37.8840   -4.9100   C 0  0  0  0  0  0  0  0  0  0  0  0
   64.9660   39.1330   -5.4240   C 0  0  0  0  0  0  0  0  0  0  0  0
   63.7880   39.2780   -6.1630   C 0  0  0  0  0  0  0  0  0  0  0  0
   62.9840   38.1650   -6.4090   C 0  0  0  0  0  0  0  0  0  0  0  0
   61.8000   38.3040   -7.0750   F 0  0  0  0  0  0  0  0  0  0  0  0
   63.3860   36.9110   -5.9410   C 0  0  0  0  0  0  0  0  0  0  0  0
   64.5670   36.7620   -5.2050   C 0  0  0  0  0  0  0  0  0  0  0  0
   63.1190   38.3480    4.4490   C 0  0  0  0  0  0  0  0  0  0  0  0
   64.1340   38.1280    5.4000   C 0  0  0  0  0  0  0  0  0  0  0  0
   63.8320   37.7680    6.7150   C 0  0  0  0  0  0  0  0  0  0  0  0
   62.5010   37.6390    7.1130   C 0  0  0  0  0  0  0  0  0  0  0  0
   62.1440   37.0960    8.7360  Cl 0  0  0  0  0  0  0  0  0  0  0  0
   61.4750   37.8990    6.1890   C 0  0  0  0  0  0  0  0  0  0  0  0
   61.7790   38.2660    4.8680   C 0  0  0  0  0  0  0  0  0  0  0  0
   66.9760   36.0570   -3.7650   S 0  0  0  0  0  0  0  0  0  0  0  0
   68.3990   36.0000   -4.8960   C 0  0  0  0  0  0  0  0  0  0  0  0
   68.8510   37.3620   -5.4300   C 0  0  0  0  0  0  0  0  0  0  0  0
   67.8790   38.7380   -4.7840   S 0  0  0  0  0  0  0  0  0  0  0  0
  1  2  1  0  0  0  0
  1  7  1  0  0  0  0
  1  8  1  0  0  0  0
  2  3  1  0  0  0  0
  3  4  1  0  0  0  0
  4  5  1  0  0  0  0
  4  6  1  0  0  0  0
  4 19  1  0  0  0  0
  6  7  1  0  0  0  0
  8  9  1  0  0  0  0
  9 10  1  0  0  0  0
 10 11  1  0  0  0  0
 11 12  1  0  0  0  0
 11 26  1  0  0  0  0
 11 29  1  0  0  0  0
 12 13  2  0  0  0  0
 12 18  1  0  0  0  0
 13 14  1  0  0  0  0
 14 15  2  0  0  0  0
 15 16  1  0  0  0  0
 15 17  1  0  0  0  0
 17 18  2  0  0  0  0
 19 20  2  0  0  0  0
 19 25  1  0  0  0  0
 20 21  1  0  0  0  0
 21 22  2  0  0  0  0
 22 23  1  0  0  0  0
 22 24  1  0  0  0  0
 24 25  2  0  0  0  0
 26 27  1  0  0  0  0
 27 28  1  0  0  0  0
 28 29  1  0  0  0  0
A    1
N1
A    2
C2
A    3
C3
A    4
C4
A    5
O19
A    6
C5
A    7
C6
A    8
C7
A    9
C8
A   10
C9
A   11
C10
A   12
C12
A   13
C13
A   14
C14
A   15
C15
A   16
F18
A   17
C16
A   18
C17
A   19
C20
A   20
C21
A   21
C22
A   22
C23
A   23
CL6
A   24
C24
A   25
C25
A   26
S51
A   27
C52
A   28
C55
A   29
S58
M  END
>  <InstanceId>
1AID_THK_B_201

>  <ChemCompId>
THK

>  <PdbId>
1AID

>  <ChainId>
B

>  <ResidueNumber>
201

>  <InsertionCode>


>  <Model>
1

>  <AltIds>


>  <MissingHeavyAtoms>
0

>  <ObservedFormula>
C23 N O S2 F Cl

>  <Name>
4-(4-CHLORO-PHENYL)-1-{3-[2-(4-FLUORO-PHENYL)-[1,3]DITHIOLAN-2-YL]-PROPYL}-PIPERIDIN-4-OL

>  <SystematicName>
4-(4-chlorophenyl)-1-[3-[2-(4-fluorophenyl)-1,3-dithiolan-2-yl]propyl]piperidin-4-ol

>  <Synonyms>


>  <Type>
NON-POLYMER

>  <Formula>
C23 H27 Cl F N O S2

>  <MolecularWeight>
452.048

>  <ModifiedDate>
2011-06-04

>  <Parent>


>  <OneLetterCode>


>  <SubcomponentList>


>  <AmbiguousFlag>
N

>  <InChI>
InChI=1S/C23H27ClFNOS2/c24-20-6-2-18(3-7-20)22(27)11-14-26(15-12-22)13-1-10-23(28-16-17-29-23)19-4-8-21(25)9-5-19/h2-9,27H,1,10-17H2

>  <InChIKey>
KVDKNVPAAQKHKD-UHFFFAOYSA-N

>  <SMILES>
c1cc(ccc1C2(SCCS2)CCCN3CCC(CC3)(c4ccc(cc4)Cl)O)F

$$$$
