1AID_THK_B_201


 30 33  0  0  0  0  0  0  0  0999 V2000
   62.3192   38.3669    0.0134 N   0  0  0  0  0  0  0  0  0  0  0  0
   61.4374   39.2404   -0.7856 C   0  0  0  0  0  0  0  0  0  0  0  0
   61.3933   38.8208   -2.2601 C   0  0  0  0  0  0  0  0  0  0  0  0
   62.7978   38.6513   -2.8705 C   0  0  0  0  0  0  0  0  0  0  0  0
   63.4915   39.8904   -2.7585 O   0  0  0  0  0  0  0  0  0  0  0  0
   63.5611   37.6236   -2.0174 C   0  0  0  0  0  0  0  0  0  0  0  0
   63.6501   38.0886   -0.5612 C   0  0  0  0  0  0  0  0  0  0  0  0
   63.5615   40.1384   -1.8233 H   0  0  0  0  0  0  0  0  0  0  0  0
   62.7403   38.3637   -4.2709 C   0  0  0  0  0  0  0  0  0  0  0  0
   61.4950   38.3690   -4.9283 C   0  0  0  0  0  0  0  0  0  0  0  0
   61.3806   38.0027   -6.2710 C   0  0  0  0  0  0  0  0  0  0  0  0
   62.5183   37.6404   -6.9928 C   0  0  0  0  0  0  0  0  0  0  0  0
   62.3435   37.0943   -8.6444 Cl  0  0  0  0  0  0  0  0  0  0  0  0
   63.7748   37.6731   -6.3649 C   0  0  0  0  0  0  0  0  0  0  0  0
   63.8901   38.0465   -5.0160 C   0  0  0  0  0  0  0  0  0  0  0  0
   62.5211   38.8883    1.3812 C   0  0  0  0  0  0  0  0  0  0  0  0
   62.2694   37.8311    2.4622 C   0  0  0  0  0  0  0  0  0  0  0  0
   63.3377   38.0034    3.5552 C   0  0  0  0  0  0  0  0  0  0  0  0
   62.7353   38.3882    4.9215 C   0  0  0  0  0  0  0  0  0  0  0  0
   63.4608   37.3007    6.1878 S   0  0  0  0  0  0  0  0  0  0  0  0
   61.9336   36.9125    7.0957 C   0  0  0  0  0  0  0  0  0  0  0  0
   60.6418   37.3412    6.3944 C   0  0  0  0  0  0  0  0  0  0  0  0
   60.9264   38.1157    4.7898 S   0  0  0  0  0  0  0  0  0  0  0  0
   62.9803   39.7664    5.2050 C   0  0  0  0  0  0  0  0  0  0  0  0
   61.9224   40.6910    5.1651 C   0  0  0  0  0  0  0  0  0  0  0  0
   62.1517   42.0622    5.3136 C   0  0  0  0  0  0  0  0  0  0  0  0
   63.4505   42.5285    5.5171 C   0  0  0  0  0  0  0  0  0  0  0  0
   63.6960   43.8692    5.6008 F   0  0  0  0  0  0  0  0  0  0  0  0
   64.5028   41.6129    5.6039 C   0  0  0  0  0  0  0  0  0  0  0  0
   64.2756   40.2394    5.4602 C   0  0  0  0  0  0  0  0  0  0  0  0
  1  2  1  0  0  0
  1  7  1  0  0  0
  1 16  1  0  0  0
  2  3  1  0  0  0
  3  4  1  0  0  0
  4  5  1  0  0  0
  4  6  1  0  0  0
  4  9  1  0  0  0
  6  7  1  0  0  0
 16 17  1  0  0  0
 17 18  1  0  0  0
 18 19  1  0  0  0
 19 24  1  0  0  0
 19 20  1  0  0  0
 19 23  1  0  0  0
 24 25  2  0  0  0
 24 30  1  0  0  0
 25 26  1  0  0  0
 26 27  2  0  0  0
 27 28  1  0  0  0
 27 29  1  0  0  0
 29 30  2  0  0  0
  9 10  2  0  0  0
  9 15  1  0  0  0
 10 11  1  0  0  0
 11 12  2  0  0  0
 12 13  1  0  0  0
 12 14  1  0  0  0
 14 15  2  0  0  0
 20 21  1  0  0  0
 21 22  1  0  0  0
 22 23  1  0  0  0
  5  8  1  0  0  0
M  END
> <minimizedAffinity>
-8.03177

$$$$
1AID_THK_B_201


 30 33  0  0  0  0  0  0  0  0999 V2000
   63.9266   42.4494    2.7254 N   0  0  0  0  0  0  0  0  0  0  0  0
   63.9960   42.7127    4.1762 C   0  0  0  0  0  0  0  0  0  0  0  0
   63.8173   41.4335    5.0031 C   0  0  0  0  0  0  0  0  0  0  0  0
   62.5699   40.6295    4.5893 C   0  0  0  0  0  0  0  0  0  0  0  0
   61.4228   41.4575    4.7567 O   0  0  0  0  0  0  0  0  0  0  0  0
   62.6891   40.3149    3.0882 C   0  0  0  0  0  0  0  0  0  0  0  0
   62.8033   41.6057    2.2723 C   0  0  0  0  0  0  0  0  0  0  0  0
   61.5105   42.2475    4.2007 H   0  0  0  0  0  0  0  0  0  0  0  0
   62.3586   39.4971    5.4380 C   0  0  0  0  0  0  0  0  0  0  0  0
   63.3222   39.1725    6.4121 C   0  0  0  0  0  0  0  0  0  0  0  0
   63.2032   38.0240    7.1975 C   0  0  0  0  0  0  0  0  0  0  0  0
   62.1019   37.1825    7.0374 C   0  0  0  0  0  0  0  0  0  0  0  0
   62.0176   35.7012    7.9621 Cl  0  0  0  0  0  0  0  0  0  0  0  0
   61.1081   37.5153    6.1016 C   0  0  0  0  0  0  0  0  0  0  0  0
   61.2255   38.6730    5.3155 C   0  0  0  0  0  0  0  0  0  0  0  0
   63.8949   43.6993    1.9379 C   0  0  0  0  0  0  0  0  0  0  0  0
   64.8458   43.6675    0.7360 C   0  0  0  0  0  0  0  0  0  0  0  0
   66.1605   43.0082    1.1859 C   0  0  0  0  0  0  0  0  0  0  0  0
   66.4497   41.6884    0.4426 C   0  0  0  0  0  0  0  0  0  0  0  0
   68.1305   41.7835   -0.2489 S   0  0  0  0  0  0  0  0  0  0  0  0
   67.7664   41.1084   -1.8978 C   0  0  0  0  0  0  0  0  0  0  0  0
   66.2761   40.9771   -2.2242 C   0  0  0  0  0  0  0  0  0  0  0  0
   65.2026   41.5592   -0.8960 S   0  0  0  0  0  0  0  0  0  0  0  0
   66.3036   40.5756    1.3258 C   0  0  0  0  0  0  0  0  0  0  0  0
   65.5994   39.4336    0.9069 C   0  0  0  0  0  0  0  0  0  0  0  0
   65.3321   38.3824    1.7891 C   0  0  0  0  0  0  0  0  0  0  0  0
   65.7791   38.4554    3.1083 C   0  0  0  0  0  0  0  0  0  0  0  0
   65.4707   37.4648    3.9962 F   0  0  0  0  0  0  0  0  0  0  0  0
   66.5196   39.5663    3.5216 C   0  0  0  0  0  0  0  0  0  0  0  0
   66.7927   40.6180    2.6395 C   0  0  0  0  0  0  0  0  0  0  0  0
  1  2  1  0  0  0
  1  7  1  0  0  0
  1 16  1  0  0  0
  2  3  1  0  0  0
  3  4  1  0  0  0
  4  5  1  0  0  0
  4  6  1  0  0  0
  4  9  1  0  0  0
  6  7  1  0  0  0
 16 17  1  0  0  0
 17 18  1  0  0  0
 18 19  1  0  0  0
 19 24  1  0  0  0
 19 20  1  0  0  0
 19 23  1  0  0  0
 24 25  2  0  0  0
 24 30  1  0  0  0
 25 26  1  0  0  0
 26 27  2  0  0  0
 27 28  1  0  0  0
 27 29  1  0  0  0
 29 30  2  0  0  0
  9 10  2  0  0  0
  9 15  1  0  0  0
 10 11  1  0  0  0
 11 12  2  0  0  0
 12 13  1  0  0  0
 12 14  1  0  0  0
 14 15  2  0  0  0
 20 21  1  0  0  0
 21 22  1  0  0  0
 22 23  1  0  0  0
  5  8  1  0  0  0
M  END
> <minimizedAffinity>
-8.02990

$$$$
1AID_THK_B_201


 30 33  0  0  0  0  0  0  0  0999 V2000
   61.7063   38.7410   -0.5942 N   0  0  0  0  0  0  0  0  0  0  0  0
   60.8171   39.4928   -1.5013 C   0  0  0  0  0  0  0  0  0  0  0  0
   60.9266   39.0042   -2.9510 C   0  0  0  0  0  0  0  0  0  0  0  0
   62.3844   38.9367   -3.4453 C   0  0  0  0  0  0  0  0  0  0  0  0
   62.9554   40.2380   -3.3469 O   0  0  0  0  0  0  0  0  0  0  0  0
   63.1653   38.0231   -2.4850 C   0  0  0  0  0  0  0  0  0  0  0  0
   63.0978   38.5601   -1.0525 C   0  0  0  0  0  0  0  0  0  0  0  0
   62.9293   40.5336   -2.4234 H   0  0  0  0  0  0  0  0  0  0  0  0
   62.4632   38.5816   -4.8290 C   0  0  0  0  0  0  0  0  0  0  0  0
   61.2903   38.2191   -5.5188 C   0  0  0  0  0  0  0  0  0  0  0  0
   61.3333   37.7756   -6.8422 C   0  0  0  0  0  0  0  0  0  0  0  0
   62.5547   37.7036   -7.5127 C   0  0  0  0  0  0  0  0  0  0  0  0
   62.6006   37.0570   -9.1363 Cl  0  0  0  0  0  0  0  0  0  0  0  0
   63.7293   38.1045   -6.8542 C   0  0  0  0  0  0  0  0  0  0  0  0
   63.6851   38.5554   -5.5249 C   0  0  0  0  0  0  0  0  0  0  0  0
   61.7530   39.3404    0.7557 C   0  0  0  0  0  0  0  0  0  0  0  0
   62.4983   38.4639    1.7685 C   0  0  0  0  0  0  0  0  0  0  0  0
   61.6713   38.4251    3.0647 C   0  0  0  0  0  0  0  0  0  0  0  0
   62.2749   39.2990    4.1827 C   0  0  0  0  0  0  0  0  0  0  0  0
   61.3907   40.8897    4.1989 S   0  0  0  0  0  0  0  0  0  0  0  0
   62.8350   41.9824    4.3640 C   0  0  0  0  0  0  0  0  0  0  0  0
   64.1879   41.2959    4.1567 C   0  0  0  0  0  0  0  0  0  0  0  0
   64.0424   39.5422    3.7582 S   0  0  0  0  0  0  0  0  0  0  0  0
   62.1848   38.6312    5.4419 C   0  0  0  0  0  0  0  0  0  0  0  0
   63.1686   38.8449    6.4227 C   0  0  0  0  0  0  0  0  0  0  0  0
   63.1765   38.1124    7.6136 C   0  0  0  0  0  0  0  0  0  0  0  0
   62.1862   37.1577    7.8454 C   0  0  0  0  0  0  0  0  0  0  0  0
   62.2186   36.3918    8.9755 F   0  0  0  0  0  0  0  0  0  0  0  0
   61.1777   36.9705    6.8962 C   0  0  0  0  0  0  0  0  0  0  0  0
   61.1646   37.7056    5.7053 C   0  0  0  0  0  0  0  0  0  0  0  0
  1  2  1  0  0  0
  1  7  1  0  0  0
  1 16  1  0  0  0
  2  3  1  0  0  0
  3  4  1  0  0  0
  4  5  1  0  0  0
  4  6  1  0  0  0
  4  9  1  0  0  0
  6  7  1  0  0  0
 16 17  1  0  0  0
 17 18  1  0  0  0
 18 19  1  0  0  0
 19 24  1  0  0  0
 19 20  1  0  0  0
 19 23  1  0  0  0
 24 25  2  0  0  0
 24 30  1  0  0  0
 25 26  1  0  0  0
 26 27  2  0  0  0
 27 28  1  0  0  0
 27 29  1  0  0  0
 29 30  2  0  0  0
  9 10  2  0  0  0
  9 15  1  0  0  0
 10 11  1  0  0  0
 11 12  2  0  0  0
 12 13  1  0  0  0
 12 14  1  0  0  0
 14 15  2  0  0  0
 20 21  1  0  0  0
 21 22  1  0  0  0
 22 23  1  0  0  0
  5  8  1  0  0  0
M  END
> <minimizedAffinity>
-8.02954

$$$$
1AID_THK_B_201


 30 33  0  0  0  0  0  0  0  0999 V2000
   66.2186   41.2970    1.3775 N   0  0  0  0  0  0  0  0  0  0  0  0
   65.8898   41.9890    0.1158 C   0  0  0  0  0  0  0  0  0  0  0  0
   66.2755   41.1582   -1.1144 C   0  0  0  0  0  0  0  0  0  0  0  0
   67.7306   40.6549   -1.0573 C   0  0  0  0  0  0  0  0  0  0  0  0
   68.5955   41.7832   -0.9662 O   0  0  0  0  0  0  0  0  0  0  0  0
   67.8987   39.8465    0.2406 C   0  0  0  0  0  0  0  0  0  0  0  0
   67.5702   40.7098    1.4621 C   0  0  0  0  0  0  0  0  0  0  0  0
   68.3851   42.2880   -0.1650 H   0  0  0  0  0  0  0  0  0  0  0  0
   68.1073   39.9729   -2.2574 C   0  0  0  0  0  0  0  0  0  0  0  0
   67.5549   40.3793   -3.4873 C   0  0  0  0  0  0  0  0  0  0  0  0
   67.8210   39.6838   -4.6686 C   0  0  0  0  0  0  0  0  0  0  0  0
   68.6651   38.5731   -4.6471 C   0  0  0  0  0  0  0  0  0  0  0  0
   68.9112   37.6592   -6.1170 Cl  0  0  0  0  0  0  0  0  0  0  0  0
   69.2607   38.1810   -3.4365 C   0  0  0  0  0  0  0  0  0  0  0  0
   68.9970   38.8838   -2.2496 C   0  0  0  0  0  0  0  0  0  0  0  0
   66.0364   42.1744    2.5524 C   0  0  0  0  0  0  0  0  0  0  0  0
   65.5310   41.4172    3.7856 C   0  0  0  0  0  0  0  0  0  0  0  0
   64.1621   40.8062    3.4417 C   0  0  0  0  0  0  0  0  0  0  0  0
   64.1636   39.2656    3.5090 C   0  0  0  0  0  0  0  0  0  0  0  0
   65.7589   38.7297    4.2020 S   0  0  0  0  0  0  0  0  0  0  0  0
   66.0994   37.3737    3.0390 C   0  0  0  0  0  0  0  0  0  0  0  0
   65.1793   37.3292    1.8159 C   0  0  0  0  0  0  0  0  0  0  0  0
   63.9698   38.6677    1.7860 S   0  0  0  0  0  0  0  0  0  0  0  0
   63.0637   38.7990    4.2915 C   0  0  0  0  0  0  0  0  0  0  0  0
   63.2774   38.3475    5.6053 C   0  0  0  0  0  0  0  0  0  0  0  0
   62.2453   37.7692    6.3503 C   0  0  0  0  0  0  0  0  0  0  0  0
   60.9737   37.6446    5.7905 C   0  0  0  0  0  0  0  0  0  0  0  0
   59.9735   37.0251    6.4836 F   0  0  0  0  0  0  0  0  0  0  0  0
   60.7404   38.1321    4.5017 C   0  0  0  0  0  0  0  0  0  0  0  0
   61.7705   38.7158    3.7554 C   0  0  0  0  0  0  0  0  0  0  0  0
  1  2  1  0  0  0
  1  7  1  0  0  0
  1 16  1  0  0  0
  2  3  1  0  0  0
  3  4  1  0  0  0
  4  5  1  0  0  0
  4  6  1  0  0  0
  4  9  1  0  0  0
  6  7  1  0  0  0
 16 17  1  0  0  0
 17 18  1  0  0  0
 18 19  1  0  0  0
 19 24  1  0  0  0
 19 20  1  0  0  0
 19 23  1  0  0  0
 24 25  2  0  0  0
 24 30  1  0  0  0
 25 26  1  0  0  0
 26 27  2  0  0  0
 27 28  1  0  0  0
 27 29  1  0  0  0
 29 30  2  0  0  0
  9 10  2  0  0  0
  9 15  1  0  0  0
 10 11  1  0  0  0
 11 12  2  0  0  0
 12 13  1  0  0  0
 12 14  1  0  0  0
 14 15  2  0  0  0
 20 21  1  0  0  0
 21 22  1  0  0  0
 22 23  1  0  0  0
  5  8  1  0  0  0
M  END
> <minimizedAffinity>
-7.90535

$$$$
1AID_THK_B_201


 30 33  0  0  0  0  0  0  0  0999 V2000
   64.8067   41.7552    3.5640 N   0  0  0  0  0  0  0  0  0  0  0  0
   64.1884   42.5488    2.4839 C   0  0  0  0  0  0  0  0  0  0  0  0
   64.6516   42.0913    1.0953 C   0  0  0  0  0  0  0  0  0  0  0  0
   66.1854   41.9999    0.9822 C   0  0  0  0  0  0  0  0  0  0  0  0
   66.7359   43.2845    1.2580 O   0  0  0  0  0  0  0  0  0  0  0  0
   66.6827   41.0460    2.0819 C   0  0  0  0  0  0  0  0  0  0  0  0
   66.2654   41.5514    3.4659 C   0  0  0  0  0  0  0  0  0  0  0  0
   66.4829   43.5593    2.1532 H   0  0  0  0  0  0  0  0  0  0  0  0
   66.6046   41.6751   -0.3466 C   0  0  0  0  0  0  0  0  0  0  0  0
   65.7275   41.9027   -1.4245 C   0  0  0  0  0  0  0  0  0  0  0  0
   66.0577   41.5143   -2.7246 C   0  0  0  0  0  0  0  0  0  0  0  0
   67.2869   40.9046   -2.9777 C   0  0  0  0  0  0  0  0  0  0  0  0
   67.6432   40.3402   -4.5935 Cl  0  0  0  0  0  0  0  0  0  0  0  0
   68.1928   40.7110   -1.9214 C   0  0  0  0  0  0  0  0  0  0  0  0
   67.8625   41.1063   -0.6150 C   0  0  0  0  0  0  0  0  0  0  0  0
   64.5218   42.3220    4.8986 C   0  0  0  0  0  0  0  0  0  0  0  0
   63.9553   41.2850    5.8750 C   0  0  0  0  0  0  0  0  0  0  0  0
   62.7398   40.6180    5.2094 C   0  0  0  0  0  0  0  0  0  0  0  0
   62.7820   39.0791    5.2982 C   0  0  0  0  0  0  0  0  0  0  0  0
   61.0795   38.4550    5.1414 S   0  0  0  0  0  0  0  0  0  0  0  0
   61.1339   37.2268    6.4815 C   0  0  0  0  0  0  0  0  0  0  0  0
   62.3608   37.3229    7.3925 C   0  0  0  0  0  0  0  0  0  0  0  0
   63.4749   38.6702    6.9463 S   0  0  0  0  0  0  0  0  0  0  0  0
   63.6365   38.5440    4.2866 C   0  0  0  0  0  0  0  0  0  0  0  0
   64.8768   37.9841    4.6383 C   0  0  0  0  0  0  0  0  0  0  0  0
   65.7873   37.5676    3.6624 C   0  0  0  0  0  0  0  0  0  0  0  0
   65.4615   37.6961    2.3122 C   0  0  0  0  0  0  0  0  0  0  0  0
   66.3664   37.3517    1.3493 F   0  0  0  0  0  0  0  0  0  0  0  0
   64.2120   38.2092    1.9535 C   0  0  0  0  0  0  0  0  0  0  0  0
   63.2968   38.6226    2.9282 C   0  0  0  0  0  0  0  0  0  0  0  0
  1  2  1  0  0  0
  1  7  1  0  0  0
  1 16  1  0  0  0
  2  3  1  0  0  0
  3  4  1  0  0  0
  4  5  1  0  0  0
  4  6  1  0  0  0
  4  9  1  0  0  0
  6  7  1  0  0  0
 16 17  1  0  0  0
 17 18  1  0  0  0
 18 19  1  0  0  0
 19 24  1  0  0  0
 19 20  1  0  0  0
 19 23  1  0  0  0
 24 25  2  0  0  0
 24 30  1  0  0  0
 25 26  1  0  0  0
 26 27  2  0  0  0
 27 28  1  0  0  0
 27 29  1  0  0  0
 29 30  2  0  0  0
  9 10  2  0  0  0
  9 15  1  0  0  0
 10 11  1  0  0  0
 11 12  2  0  0  0
 12 13  1  0  0  0
 12 14  1  0  0  0
 14 15  2  0  0  0
 20 21  1  0  0  0
 21 22  1  0  0  0
 22 23  1  0  0  0
  5  8  1  0  0  0
M  END
> <minimizedAffinity>
-7.89560

$$$$
1AID_THK_B_201


 30 33  0  0  0  0  0  0  0  0999 V2000
   66.2700   41.0998    1.4163 N   0  0  0  0  0  0  0  0  0  0  0  0
   65.8546   41.7663    0.1665 C   0  0  0  0  0  0  0  0  0  0  0  0
   66.2539   40.9609   -1.0761 C   0  0  0  0  0  0  0  0  0  0  0  0
   67.7403   40.5554   -1.0673 C   0  0  0  0  0  0  0  0  0  0  0  0
   68.5310   41.7386   -1.0041 O   0  0  0  0  0  0  0  0  0  0  0  0
   68.0043   39.7621    0.2240 C   0  0  0  0  0  0  0  0  0  0  0  0
   67.6597   40.6037    1.4560 C   0  0  0  0  0  0  0  0  0  0  0  0
   68.3140   42.2297   -0.1962 H   0  0  0  0  0  0  0  0  0  0  0  0
   68.1217   39.8978   -2.2794 C   0  0  0  0  0  0  0  0  0  0  0  0
   67.5711   40.3266   -3.5026 C   0  0  0  0  0  0  0  0  0  0  0  0
   67.8418   39.6548   -4.6965 C   0  0  0  0  0  0  0  0  0  0  0  0
   68.6889   38.5462   -4.6946 C   0  0  0  0  0  0  0  0  0  0  0  0
   68.9409   37.6617   -6.1814 Cl  0  0  0  0  0  0  0  0  0  0  0  0
   69.2827   38.1322   -3.4904 C   0  0  0  0  0  0  0  0  0  0  0  0
   69.0143   38.8111   -2.2907 C   0  0  0  0  0  0  0  0  0  0  0  0
   66.0689   41.9652    2.5971 C   0  0  0  0  0  0  0  0  0  0  0  0
   65.5084   41.2026    3.8029 C   0  0  0  0  0  0  0  0  0  0  0  0
   64.1435   40.6167    3.4037 C   0  0  0  0  0  0  0  0  0  0  0  0
   63.0075   41.0549    4.3500 C   0  0  0  0  0  0  0  0  0  0  0  0
   61.7447   41.9141    3.3603 S   0  0  0  0  0  0  0  0  0  0  0  0
   61.4496   43.3138    4.4834 C   0  0  0  0  0  0  0  0  0  0  0  0
   62.4639   43.4493    5.6223 C   0  0  0  0  0  0  0  0  0  0  0  0
   63.7590   42.1940    5.5753 S   0  0  0  0  0  0  0  0  0  0  0  0
   62.4643   39.9252    5.0346 C   0  0  0  0  0  0  0  0  0  0  0  0
   63.1762   39.3361    6.0936 C   0  0  0  0  0  0  0  0  0  0  0  0
   62.7316   38.1568    6.6989 C   0  0  0  0  0  0  0  0  0  0  0  0
   61.5542   37.5535    6.2569 C   0  0  0  0  0  0  0  0  0  0  0  0
   61.1424   36.3687    6.7967 F   0  0  0  0  0  0  0  0  0  0  0  0
   60.8155   38.1566    5.2353 C   0  0  0  0  0  0  0  0  0  0  0  0
   61.2556   39.3396    4.6307 C   0  0  0  0  0  0  0  0  0  0  0  0
  1  2  1  0  0  0
  1  7  1  0  0  0
  1 16  1  0  0  0
  2  3  1  0  0  0
  3  4  1  0  0  0
  4  5  1  0  0  0
  4  6  1  0  0  0
  4  9  1  0  0  0
  6  7  1  0  0  0
 16 17  1  0  0  0
 17 18  1  0  0  0
 18 19  1  0  0  0
 19 24  1  0  0  0
 19 20  1  0  0  0
 19 23  1  0  0  0
 24 25  2  0  0  0
 24 30  1  0  0  0
 25 26  1  0  0  0
 26 27  2  0  0  0
 27 28  1  0  0  0
 27 29  1  0  0  0
 29 30  2  0  0  0
  9 10  2  0  0  0
  9 15  1  0  0  0
 10 11  1  0  0  0
 11 12  2  0  0  0
 12 13  1  0  0  0
 12 14  1  0  0  0
 14 15  2  0  0  0
 20 21  1  0  0  0
 21 22  1  0  0  0
 22 23  1  0  0  0
  5  8  1  0  0  0
M  END
> <minimizedAffinity>
-7.86911

$$$$
1AID_THK_B_201


 30 33  0  0  0  0  0  0  0  0999 V2000
   63.3867   40.2269   -0.6508 N   0  0  0  0  0  0  0  0  0  0  0  0
   62.2234   39.3804   -0.9811 C   0  0  0  0  0  0  0  0  0  0  0  0
   62.3320   38.7748   -2.3859 C   0  0  0  0  0  0  0  0  0  0  0  0
   62.6425   39.8305   -3.4643 C   0  0  0  0  0  0  0  0  0  0  0  0
   61.6032   40.8048   -3.4551 O   0  0  0  0  0  0  0  0  0  0  0  0
   63.9422   40.5477   -3.0607 C   0  0  0  0  0  0  0  0  0  0  0  0
   63.7949   41.1999   -1.6830 C   0  0  0  0  0  0  0  0  0  0  0  0
   61.5599   41.2230   -2.5810 H   0  0  0  0  0  0  0  0  0  0  0  0
   62.6359   39.2682   -4.7799 C   0  0  0  0  0  0  0  0  0  0  0  0
   61.5223   38.5197   -5.2074 C   0  0  0  0  0  0  0  0  0  0  0  0
   61.5124   37.8748   -6.4459 C   0  0  0  0  0  0  0  0  0  0  0  0
   62.6142   37.9818   -7.2951 C   0  0  0  0  0  0  0  0  0  0  0  0
   62.6225   37.0911   -8.7994 Cl  0  0  0  0  0  0  0  0  0  0  0  0
   63.7153   38.7618   -6.9036 C   0  0  0  0  0  0  0  0  0  0  0  0
   63.7229   39.4145   -5.6602 C   0  0  0  0  0  0  0  0  0  0  0  0
   63.1893   40.9688    0.6118 C   0  0  0  0  0  0  0  0  0  0  0  0
   63.5625   40.1441    1.8489 C   0  0  0  0  0  0  0  0  0  0  0  0
   62.3033   39.9940    2.7192 C   0  0  0  0  0  0  0  0  0  0  0  0
   62.5358   40.4224    4.1822 C   0  0  0  0  0  0  0  0  0  0  0  0
   61.5330   41.9066    4.5048 S   0  0  0  0  0  0  0  0  0  0  0  0
   62.7886   42.8735    5.3970 C   0  0  0  0  0  0  0  0  0  0  0  0
   64.2081   42.3035    5.3279 C   0  0  0  0  0  0  0  0  0  0  0  0
   64.3238   40.7997    4.3377 S   0  0  0  0  0  0  0  0  0  0  0  0
   62.2044   39.3565    5.0732 C   0  0  0  0  0  0  0  0  0  0  0  0
   63.1587   38.8856    5.9913 C   0  0  0  0  0  0  0  0  0  0  0  0
   62.9073   37.7641    6.7875 C   0  0  0  0  0  0  0  0  0  0  0  0
   61.6844   37.1013    6.6829 C   0  0  0  0  0  0  0  0  0  0  0  0
   61.4505   35.9684    7.4086 F   0  0  0  0  0  0  0  0  0  0  0  0
   60.7120   37.5894    5.8058 C   0  0  0  0  0  0  0  0  0  0  0  0
   60.9590   38.7145    5.0110 C   0  0  0  0  0  0  0  0  0  0  0  0
  1  2  1  0  0  0
  1  7  1  0  0  0
  1 16  1  0  0  0
  2  3  1  0  0  0
  3  4  1  0  0  0
  4  5  1  0  0  0
  4  6  1  0  0  0
  4  9  1  0  0  0
  6  7  1  0  0  0
 16 17  1  0  0  0
 17 18  1  0  0  0
 18 19  1  0  0  0
 19 24  1  0  0  0
 19 20  1  0  0  0
 19 23  1  0  0  0
 24 25  2  0  0  0
 24 30  1  0  0  0
 25 26  1  0  0  0
 26 27  2  0  0  0
 27 28  1  0  0  0
 27 29  1  0  0  0
 29 30  2  0  0  0
  9 10  2  0  0  0
  9 15  1  0  0  0
 10 11  1  0  0  0
 11 12  2  0  0  0
 12 13  1  0  0  0
 12 14  1  0  0  0
 14 15  2  0  0  0
 20 21  1  0  0  0
 21 22  1  0  0  0
 22 23  1  0  0  0
  5  8  1  0  0  0
M  END
> <minimizedAffinity>
-7.70936

$$$$
1AID_THK_B_201


 30 33  0  0  0  0  0  0  0  0999 V2000
   67.3244   40.1139   -0.9375 N   0  0  0  0  0  0  0  0  0  0  0  0
   67.7896   39.0162   -0.0671 C   0  0  0  0  0  0  0  0  0  0  0  0
   66.9879   38.9366    1.2380 C   0  0  0  0  0  0  0  0  0  0  0  0
   66.8997   40.2931    1.9632 C   0  0  0  0  0  0  0  0  0  0  0  0
   68.2219   40.7366    2.2540 O   0  0  0  0  0  0  0  0  0  0  0  0
   66.2830   41.3097    0.9872 C   0  0  0  0  0  0  0  0  0  0  0  0
   67.1304   41.4228   -0.2833 C   0  0  0  0  0  0  0  0  0  0  0  0
   68.7202   40.8318    1.4272 H   0  0  0  0  0  0  0  0  0  0  0  0
   66.2410   40.1806    3.2283 C   0  0  0  0  0  0  0  0  0  0  0  0
   66.2308   38.9406    3.8958 C   0  0  0  0  0  0  0  0  0  0  0  0
   65.5212   38.7615    5.0851 C   0  0  0  0  0  0  0  0  0  0  0  0
   64.8194   39.8298    5.6444 C   0  0  0  0  0  0  0  0  0  0  0  0
   63.8605   39.5624    7.0816 Cl  0  0  0  0  0  0  0  0  0  0  0  0
   64.8561   41.0857    5.0157 C   0  0  0  0  0  0  0  0  0  0  0  0
   65.5740   41.2669    3.8224 C   0  0  0  0  0  0  0  0  0  0  0  0
   68.2205   40.3191   -2.0944 C   0  0  0  0  0  0  0  0  0  0  0  0
   67.4639   40.3902   -3.4256 C   0  0  0  0  0  0  0  0  0  0  0  0
   66.2084   39.5097   -3.3077 C   0  0  0  0  0  0  0  0  0  0  0  0
   66.3296   38.1909   -4.0977 C   0  0  0  0  0  0  0  0  0  0  0  0
   66.2840   36.8122   -2.9104 S   0  0  0  0  0  0  0  0  0  0  0  0
   67.6465   35.8301   -3.6079 C   0  0  0  0  0  0  0  0  0  0  0  0
   68.4838   36.5528   -4.6667 C   0  0  0  0  0  0  0  0  0  0  0  0
   67.9445   38.2485   -4.9650 S   0  0  0  0  0  0  0  0  0  0  0  0
   65.2835   38.0904   -5.0649 C   0  0  0  0  0  0  0  0  0  0  0  0
   64.9811   39.1877   -5.8896 C   0  0  0  0  0  0  0  0  0  0  0  0
   63.8841   39.1629   -6.7561 C   0  0  0  0  0  0  0  0  0  0  0  0
   63.0764   38.0274   -6.8177 C   0  0  0  0  0  0  0  0  0  0  0  0
   61.9662   38.0138   -7.6127 F   0  0  0  0  0  0  0  0  0  0  0  0
   63.3960   36.9145   -6.0351 C   0  0  0  0  0  0  0  0  0  0  0  0
   64.4962   36.9346   -5.1702 C   0  0  0  0  0  0  0  0  0  0  0  0
  1  2  1  0  0  0
  1  7  1  0  0  0
  1 16  1  0  0  0
  2  3  1  0  0  0
  3  4  1  0  0  0
  4  5  1  0  0  0
  4  6  1  0  0  0
  4  9  1  0  0  0
  6  7  1  0  0  0
 16 17  1  0  0  0
 17 18  1  0  0  0
 18 19  1  0  0  0
 19 24  1  0  0  0
 19 20  1  0  0  0
 19 23  1  0  0  0
 24 25  2  0  0  0
 24 30  1  0  0  0
 25 26  1  0  0  0
 26 27  2  0  0  0
 27 28  1  0  0  0
 27 29  1  0  0  0
 29 30  2  0  0  0
  9 10  2  0  0  0
  9 15  1  0  0  0
 10 11  1  0  0  0
 11 12  2  0  0  0
 12 13  1  0  0  0
 12 14  1  0  0  0
 14 15  2  0  0  0
 20 21  1  0  0  0
 21 22  1  0  0  0
 22 23  1  0  0  0
  5  8  1  0  0  0
M  END
> <minimizedAffinity>
-7.64978

$$$$
1AID_THK_B_201


 30 33  0  0  0  0  0  0  0  0999 V2000
   63.6279   38.6363   -0.0227 N   0  0  0  0  0  0  0  0  0  0  0  0
   63.9395   39.7105    0.9406 C   0  0  0  0  0  0  0  0  0  0  0  0
   63.8410   39.2281    2.3931 C   0  0  0  0  0  0  0  0  0  0  0  0
   62.5103   38.5108    2.6906 C   0  0  0  0  0  0  0  0  0  0  0  0
   61.4411   39.4140    2.4252 O   0  0  0  0  0  0  0  0  0  0  0  0
   62.3743   37.3411    1.7007 C   0  0  0  0  0  0  0  0  0  0  0  0
   62.4116   37.8477    0.2561 C   0  0  0  0  0  0  0  0  0  0  0  0
   61.4723   39.6876    1.4951 H   0  0  0  0  0  0  0  0  0  0  0  0
   62.3893   38.1613    4.0727 C   0  0  0  0  0  0  0  0  0  0  0  0
   63.5503   37.8957    4.8240 C   0  0  0  0  0  0  0  0  0  0  0  0
   63.4748   37.4602    6.1487 C   0  0  0  0  0  0  0  0  0  0  0  0
   62.2303   37.2993    6.7585 C   0  0  0  0  0  0  0  0  0  0  0  0
   62.1524   36.6634    8.3851 Cl  0  0  0  0  0  0  0  0  0  0  0  0
   61.0631   37.6033    6.0379 C   0  0  0  0  0  0  0  0  0  0  0  0
   61.1395   38.0461    4.7074 C   0  0  0  0  0  0  0  0  0  0  0  0
   63.5240   39.1473   -1.4053 C   0  0  0  0  0  0  0  0  0  0  0  0
   64.8897   39.3073   -2.0828 C   0  0  0  0  0  0  0  0  0  0  0  0
   65.3064   37.9376   -2.6446 C   0  0  0  0  0  0  0  0  0  0  0  0
   65.9351   38.0362   -4.0492 C   0  0  0  0  0  0  0  0  0  0  0  0
   67.1010   36.6527   -4.2471 S   0  0  0  0  0  0  0  0  0  0  0  0
   68.4719   37.5804   -5.0002 C   0  0  0  0  0  0  0  0  0  0  0  0
   68.3223   39.1034   -4.9495 C   0  0  0  0  0  0  0  0  0  0  0  0
   66.8165   39.6432   -4.1148 S   0  0  0  0  0  0  0  0  0  0  0  0
   64.9195   38.0194   -5.0532 C   0  0  0  0  0  0  0  0  0  0  0  0
   64.1386   36.8664   -5.2437 C   0  0  0  0  0  0  0  0  0  0  0  0
   63.2251   36.7754   -6.2982 C   0  0  0  0  0  0  0  0  0  0  0  0
   63.0714   37.8491   -7.1752 C   0  0  0  0  0  0  0  0  0  0  0  0
   62.2291   37.7494   -8.2454 F   0  0  0  0  0  0  0  0  0  0  0  0
   63.8102   39.0169   -6.9666 C   0  0  0  0  0  0  0  0  0  0  0  0
   64.7220   39.1126   -5.9092 C   0  0  0  0  0  0  0  0  0  0  0  0
  1  2  1  0  0  0
  1  7  1  0  0  0
  1 16  1  0  0  0
  2  3  1  0  0  0
  3  4  1  0  0  0
  4  5  1  0  0  0
  4  6  1  0  0  0
  4  9  1  0  0  0
  6  7  1  0  0  0
 16 17  1  0  0  0
 17 18  1  0  0  0
 18 19  1  0  0  0
 19 24  1  0  0  0
 19 20  1  0  0  0
 19 23  1  0  0  0
 24 25  2  0  0  0
 24 30  1  0  0  0
 25 26  1  0  0  0
 26 27  2  0  0  0
 27 28  1  0  0  0
 27 29  1  0  0  0
 29 30  2  0  0  0
  9 10  2  0  0  0
  9 15  1  0  0  0
 10 11  1  0  0  0
 11 12  2  0  0  0
 12 13  1  0  0  0
 12 14  1  0  0  0
 14 15  2  0  0  0
 20 21  1  0  0  0
 21 22  1  0  0  0
 22 23  1  0  0  0
  5  8  1  0  0  0
M  END
> <minimizedAffinity>
-7.54074

$$$$
1AID_THK_B_201


 30 33  0  0  0  0  0  0  0  0999 V2000
   67.6205   40.6098    1.7524 N   0  0  0  0  0  0  0  0  0  0  0  0
   66.4209   41.3888    2.1170 C   0  0  0  0  0  0  0  0  0  0  0  0
   65.8198   40.9302    3.4514 C   0  0  0  0  0  0  0  0  0  0  0  0
   65.5972   39.4067    3.5088 C   0  0  0  0  0  0  0  0  0  0  0  0
   64.7184   39.0384    2.4499 O   0  0  0  0  0  0  0  0  0  0  0  0
   66.9482   38.7228    3.2377 C   0  0  0  0  0  0  0  0  0  0  0  0
   67.5035   39.1434    1.8739 C   0  0  0  0  0  0  0  0  0  0  0  0
   65.1146   39.2861    1.5999 H   0  0  0  0  0  0  0  0  0  0  0  0
   64.9397   39.0081    4.7154 C   0  0  0  0  0  0  0  0  0  0  0  0
   64.6315   37.6494    4.9198 C   0  0  0  0  0  0  0  0  0  0  0  0
   63.9079   37.2285    6.0375 C   0  0  0  0  0  0  0  0  0  0  0  0
   63.4923   38.1606    6.9888 C   0  0  0  0  0  0  0  0  0  0  0  0
   62.5071   37.6288    8.3316 Cl  0  0  0  0  0  0  0  0  0  0  0  0
   63.8302   39.5143    6.8237 C   0  0  0  0  0  0  0  0  0  0  0  0
   64.5624   39.9365    5.7022 C   0  0  0  0  0  0  0  0  0  0  0  0
   68.0787   40.9110    0.3801 C   0  0  0  0  0  0  0  0  0  0  0  0
   67.2610   40.1817   -0.6918 C   0  0  0  0  0  0  0  0  0  0  0  0
   68.2436   39.5188   -1.6718 C   0  0  0  0  0  0  0  0  0  0  0  0
   67.9685   38.0137   -1.8643 C   0  0  0  0  0  0  0  0  0  0  0  0
   66.2538   37.6806   -1.3532 S   0  0  0  0  0  0  0  0  0  0  0  0
   66.5629   36.1653   -0.3963 C   0  0  0  0  0  0  0  0  0  0  0  0
   68.0394   35.8700   -0.1187 C   0  0  0  0  0  0  0  0  0  0  0  0
   69.1533   37.1241   -0.7835 S   0  0  0  0  0  0  0  0  0  0  0  0
   68.1989   37.6337   -3.2217 C   0  0  0  0  0  0  0  0  0  0  0  0
   68.9257   38.4816   -4.0752 C   0  0  0  0  0  0  0  0  0  0  0  0
   69.0596   38.1974   -5.4376 C   0  0  0  0  0  0  0  0  0  0  0  0
   68.4737   37.0467   -5.9653 C   0  0  0  0  0  0  0  0  0  0  0  0
   68.5437   36.7902   -7.3048 F   0  0  0  0  0  0  0  0  0  0  0  0
   67.7880   36.1742   -5.1158 C   0  0  0  0  0  0  0  0  0  0  0  0
   67.6562   36.4537   -3.7509 C   0  0  0  0  0  0  0  0  0  0  0  0
  1  2  1  0  0  0
  1  7  1  0  0  0
  1 16  1  0  0  0
  2  3  1  0  0  0
  3  4  1  0  0  0
  4  5  1  0  0  0
  4  6  1  0  0  0
  4  9  1  0  0  0
  6  7  1  0  0  0
 16 17  1  0  0  0
 17 18  1  0  0  0
 18 19  1  0  0  0
 19 24  1  0  0  0
 19 20  1  0  0  0
 19 23  1  0  0  0
 24 25  2  0  0  0
 24 30  1  0  0  0
 25 26  1  0  0  0
 26 27  2  0  0  0
 27 28  1  0  0  0
 27 29  1  0  0  0
 29 30  2  0  0  0
  9 10  2  0  0  0
  9 15  1  0  0  0
 10 11  1  0  0  0
 11 12  2  0  0  0
 12 13  1  0  0  0
 12 14  1  0  0  0
 14 15  2  0  0  0
 20 21  1  0  0  0
 21 22  1  0  0  0
 22 23  1  0  0  0
  5  8  1  0  0  0
M  END
> <minimizedAffinity>
-7.36483

$$$$
