4JN2_4CC_A_301
  RCSB PDB12061713123D
Coordinates from PDB:4JN2:A:301 Model:1 without hydrogens
 35 38  0  0  0  0            999 V2000
  -39.6410   53.7380    3.5670   N 0  0  0  0  0  0  0  0  0  0  0  0
  -39.1680   55.3150    5.4820   C 0  0  0  0  0  0  0  0  0  0  0  0
  -38.7090   57.1600    3.4110   C 0  0  0  0  0  0  0  0  0  0  0  0
  -39.6760   53.9330    2.2230   C 0  0  0  0  0  0  0  0  0  0  0  0
  -39.8480   52.5090    4.3280   C 0  0  0  0  0  0  0  0  0  0  0  0
  -38.5660   57.5290    4.7600   C 0  0  0  0  0  0  0  0  0  0  0  0
  -36.2080   58.1760    6.4670   C 0  0  0  0  0  0  0  0  0  0  0  0
  -37.0130   52.6210    1.3800   C 0  0  0  0  0  0  0  0  0  0  0  0
  -35.4870   57.5720    5.4260   C 0  0  0  0  0  0  0  0  0  0  0  0
  -35.4690   52.8040   -0.9370   C 0  0  0  0  0  0  0  0  0  0  0  0
  -34.4590   56.6870    5.7430   C 0  0  0  0  0  0  0  0  0  0  0  0
  -35.7670   62.5420    6.4030   C 0  0  0  0  0  0  0  0  0  0  0  0
  -39.3240   54.9390    4.1530   C 0  0  0  0  0  0  0  0  0  0  0  0
  -39.1060   55.8450    3.1040   C 0  0  0  0  0  0  0  0  0  0  0  0
  -39.3420   55.1590    1.9430   N 0  0  0  0  0  0  0  0  0  0  0  0
  -38.8100   56.6030    5.7830   C 0  0  0  0  0  0  0  0  0  0  0  0
  -39.9370   52.8580    1.1890   C 0  0  0  0  0  0  0  0  0  0  0  0
  -38.0740   58.8830    5.1270   C 0  0  0  0  0  0  0  0  0  0  0  0
  -39.0170   53.0290    0.0480   N 0  0  0  0  0  0  0  0  0  0  0  0
  -37.2980   59.0420    6.2420   N 0  0  0  0  0  0  0  0  0  0  0  0
  -38.3480   59.8250    4.4020   O 0  0  0  0  0  0  0  0  0  0  0  0
  -37.6250   52.8690    0.1470   C 0  0  0  0  0  0  0  0  0  0  0  0
  -37.0810   60.4290    6.6980   C 0  0  0  0  0  0  0  0  0  0  0  0
  -36.8470   52.9600   -1.0150   C 0  0  0  0  0  0  0  0  0  0  0  0
  -35.9100   57.8630    7.7270   N 0  0  0  0  0  0  0  0  0  0  0  0
  -36.1000   61.1930    5.8010   C 0  0  0  0  0  0  0  0  0  0  0  0
  -35.6350   52.4810    1.4670   C 0  0  0  0  0  0  0  0  0  0  0  0
  -34.9190   57.0470    8.0620   C 0  0  0  0  0  0  0  0  0  0  0  0
  -34.8580   52.5560    0.3050   C 0  0  0  0  0  0  0  0  0  0  0  0
  -34.1630   56.4250    7.0800   C 0  0  0  0  0  0  0  0  0  0  0  0
  -35.1340   63.3580    5.7540   O 0  0  0  0  0  0  0  0  0  0  0  0
  -36.1230   62.8150    7.5380   O 0  0  0  0  0  0  0  0  0  0  0  0
  -33.3830   52.3730    0.4070   C 0  0  0  0  0  0  0  0  0  0  0  0
  -32.8710   51.7260    1.4570   N 0  0  0  0  0  0  0  0  0  0  0  0
  -32.6080   52.8440   -0.5580   N 0  0  0  0  0  0  0  0  0  0  0  0
 31 12  2  0  0  0  0
 32 12  1  0  0  0  0
 12 26  1  0  0  0  0
 26 23  1  0  0  0  0
 23 20  1  0  0  0  0
  9 11  2  0  0  0  0
  9  7  1  0  0  0  0
 11 30  1  0  0  0  0
 21 18  2  0  0  0  0
 20  7  1  0  0  0  0
 20 18  1  0  0  0  0
  7 25  2  0  0  0  0
 18  6  1  0  0  0  0
 30 28  2  0  0  0  0
 25 28  1  0  0  0  0
  3  6  2  0  0  0  0
  3 14  1  0  0  0  0
  6 16  1  0  0  0  0
 14 15  1  0  0  0  0
 14 13  2  0  0  0  0
 16  2  2  0  0  0  0
 15  4  2  0  0  0  0
  8 27  2  0  0  0  0
  8 22  1  0  0  0  0
 27 29  1  0  0  0  0
 13  2  1  0  0  0  0
 13  1  1  0  0  0  0
 19 22  1  0  0  0  0
 19 17  1  0  0  0  0
 22 24  2  0  0  0  0
  4  1  1  0  0  0  0
  4 17  1  0  0  0  0
 35 33  2  0  0  0  0
 29 33  1  0  0  0  0
 29 10  2  0  0  0  0
 33 34  1  0  0  0  0
  1  5  1  0  0  0  0
 24 10  1  0  0  0  0
A    1
N3
A    2
C4
A    3
C5
A    4
C7
A    5
C8
A    6
C10
A    7
C17
A    8
C20
A    9
C21
A   10
C24
A   11
C26
A   12
C28
A   13
C1
A   14
C2
A   15
N6
A   16
C9
A   17
C11
A   18
C12
A   19
N13
A   20
N14
A   21
O15
A   22
C16
A   23
C18
A   24
C19
A   25
N22
A   26
C23
A   27
C25
A   28
C27
A   29
C29
A   30
C30
A   31
O31
A   32
O32
A   33
C33
A   34
N34
A   35
N35
M  END
>  <InstanceId>
4JN2_4CC_A_301

>  <ChemCompId>
4CC

>  <PdbId>
4JN2

>  <ChainId>
A

>  <ResidueNumber>
301

>  <InsertionCode>


>  <Model>
1

>  <AltIds>


>  <MissingHeavyAtoms>
0

>  <ObservedFormula>
C25 N7 O3

>  <Name>
N-[(2-{[(4-carbamimidoylphenyl)amino]methyl}-1-methyl-1H-benzimidazol-5-yl)carbonyl]-N-pyridin-2-yl-beta-alanine

>  <SystematicName>
3-[[2-[[(4-carbamimidoylphenyl)amino]methyl]-1-methyl-benzimidazol-5-yl]carbonyl-pyridin-2-yl-amino]propanoic acid

>  <Synonyms>


>  <Type>
NON-POLYMER

>  <Formula>
C25 H25 N7 O3

>  <MolecularWeight>
471.511

>  <ModifiedDate>
2015-03-06

>  <Parent>


>  <OneLetterCode>


>  <SubcomponentList>


>  <AmbiguousFlag>
N

>  <InChI>
InChI=1S/C25H25N7O3/c1-31-20-10-7-17(25(35)32(13-11-23(33)34)21-4-2-3-12-28-21)14-19(20)30-22(31)15-29-18-8-5-16(6-9-18)24(26)27/h2-10,12,14,29H,11,13,15H2,1H3,(H3,26,27)(H,33,34)

>  <InChIKey>
YBSJFWOBGCMAKL-UHFFFAOYSA-N

>  <SMILES>
[H]/N=C(\c1ccc(cc1)NCc2nc3cc(ccc3n2C)C(=O)N(CCC(=O)O)c4ccccn4)/N

$$$$
