3D4Y_MVL_A_1049


 18 19  0  0  0  0  0  0  0  0999 V2000
   30.2223   65.6047   10.3372 C   0  0  0  0  0  0  0  0  0  0  0  0
   29.2746   65.9043    9.3516 N   0  0  0  0  0  0  0  0  0  0  0  0
   32.1512   66.1011    8.7464 C   0  0  0  0  0  0  0  0  0  0  0  0
   31.0939   65.8947    7.6503 C   0  0  0  0  0  0  0  0  0  0  0  0
   29.6447   66.2622    7.9767 C   0  0  0  0  0  0  0  0  0  0  0  0
   28.2396   65.6165   11.2600 C   0  0  0  0  0  0  0  0  0  0  0  0
   28.0640   65.9284    9.9573 C   0  0  0  0  0  0  0  0  0  0  0  0
   29.5395   65.4345   11.4913 N   0  0  0  0  0  0  0  0  0  0  0  0
   33.3954   65.6254    8.2940 O   0  0  0  0  0  0  0  0  0  0  0  0
   32.5139   64.4215   10.3903 O   0  0  0  0  0  0  0  0  0  0  0  0
   31.4179   66.8264    6.6111 O   0  0  0  0  0  0  0  0  0  0  0  0
   31.7618   65.5815   10.0799 C   0  0  0  0  0  0  0  0  0  0  0  0
   33.3368   64.6709    8.1313 H   0  0  0  0  0  0  0  0  0  0  0  0
   32.2517   64.0902   11.2635 H   0  0  0  0  0  0  0  0  0  0  0  0
   31.3414   67.7311    6.9526 H   0  0  0  0  0  0  0  0  0  0  0  0
   28.7225   65.6466    6.9571 C   0  0  0  0  0  0  0  0  0  0  0  0
   29.2721   64.4337    6.4743 O   0  0  0  0  0  0  0  0  0  0  0  0
   30.1296   64.6108    6.0570 H   0  0  0  0  0  0  0  0  0  0  0  0
  1  2  1  0  0  0
  1  8  2  0  0  0
  1 12  1  0  0  0
  2  5  1  0  0  0
  2  7  1  0  0  0
  3  4  1  0  0  0
  3  9  1  0  0  0
  3 12  1  0  0  0
  4  5  1  0  0  0
  4 11  1  0  0  0
  5 16  1  0  0  0
 16 17  1  0  0  0
  6  7  2  0  0  0
  6  8  1  0  0  0
 10 12  1  0  0  0
  9 13  1  0  0  0
 10 14  1  0  0  0
 11 15  1  0  0  0
 17 18  1  0  0  0
M  END
> <minimizedAffinity>
-8.33963

$$$$
3D4Y_MVL_A_1049


 18 19  0  0  0  0  0  0  0  0999 V2000
   29.5976   65.8094    7.7217 C   0  0  0  0  0  0  0  0  0  0  0  0
   29.0969   65.4165    8.9685 N   0  0  0  0  0  0  0  0  0  0  0  0
   31.9975   65.3616    8.4550 C   0  0  0  0  0  0  0  0  0  0  0  0
   31.4167   65.4627    9.8743 C   0  0  0  0  0  0  0  0  0  0  0  0
   29.9655   65.0257   10.0857 C   0  0  0  0  0  0  0  0  0  0  0  0
   27.4160   65.7205    7.5980 C   0  0  0  0  0  0  0  0  0  0  0  0
   27.7498   65.3471    8.8528 C   0  0  0  0  0  0  0  0  0  0  0  0
   28.5284   65.9862    6.9138 N   0  0  0  0  0  0  0  0  0  0  0  0
   33.3013   65.8897    8.4426 O   0  0  0  0  0  0  0  0  0  0  0  0
   31.6574   67.1238    6.8948 O   0  0  0  0  0  0  0  0  0  0  0  0
   32.1398   64.5103   10.6637 O   0  0  0  0  0  0  0  0  0  0  0  0
   31.1202   65.9109    7.3927 C   0  0  0  0  0  0  0  0  0  0  0  0
   33.2707   66.8319    8.6710 H   0  0  0  0  0  0  0  0  0  0  0  0
   31.0766   67.4742    6.2014 H   0  0  0  0  0  0  0  0  0  0  0  0
   31.9767   63.6171   10.3223 H   0  0  0  0  0  0  0  0  0  0  0  0
   29.4659   65.5459   11.4081 C   0  0  0  0  0  0  0  0  0  0  0  0
   29.5087   64.5185   12.3821 O   0  0  0  0  0  0  0  0  0  0  0  0
   28.9444   63.7817   12.0999 H   0  0  0  0  0  0  0  0  0  0  0  0
  1  2  1  0  0  0
  1  8  2  0  0  0
  1 12  1  0  0  0
  2  5  1  0  0  0
  2  7  1  0  0  0
  3  4  1  0  0  0
  3  9  1  0  0  0
  3 12  1  0  0  0
  4  5  1  0  0  0
  4 11  1  0  0  0
  5 16  1  0  0  0
 16 17  1  0  0  0
  6  7  2  0  0  0
  6  8  1  0  0  0
 10 12  1  0  0  0
  9 13  1  0  0  0
 10 14  1  0  0  0
 11 15  1  0  0  0
 17 18  1  0  0  0
M  END
> <minimizedAffinity>
-7.44637

$$$$
3D4Y_MVL_A_1049


 18 19  0  0  0  0  0  0  0  0999 V2000
   26.5356   64.0934   10.4633 C   0  0  0  0  0  0  0  0  0  0  0  0
   27.1555   65.0033    9.5988 N   0  0  0  0  0  0  0  0  0  0  0  0
   28.3839   64.3602   12.1982 C   0  0  0  0  0  0  0  0  0  0  0  0
   29.2026   64.8980   11.0139 C   0  0  0  0  0  0  0  0  0  0  0  0
   28.4510   65.6262    9.8974 C   0  0  0  0  0  0  0  0  0  0  0  0
   25.1786   64.5056    8.7985 C   0  0  0  0  0  0  0  0  0  0  0  0
   26.2832   65.2565    8.5948 C   0  0  0  0  0  0  0  0  0  0  0  0
   25.3253   63.8157    9.9293 N   0  0  0  0  0  0  0  0  0  0  0  0
   29.2296   63.6487   13.0687 O   0  0  0  0  0  0  0  0  0  0  0  0
   27.3351   62.2305   12.0585 O   0  0  0  0  0  0  0  0  0  0  0  0
   30.0332   65.9357   11.5492 O   0  0  0  0  0  0  0  0  0  0  0  0
   27.1616   63.6148   11.8108 C   0  0  0  0  0  0  0  0  0  0  0  0
   29.5981   62.8804   12.6053 H   0  0  0  0  0  0  0  0  0  0  0  0
   26.5308   61.7529   11.8019 H   0  0  0  0  0  0  0  0  0  0  0  0
   29.4756   66.6507   11.8939 H   0  0  0  0  0  0  0  0  0  0  0  0
   29.3297   65.7320    8.6786 C   0  0  0  0  0  0  0  0  0  0  0  0
   29.9092   64.4730    8.3865 O   0  0  0  0  0  0  0  0  0  0  0  0
   30.4481   64.1828    9.1390 H   0  0  0  0  0  0  0  0  0  0  0  0
  1  2  1  0  0  0
  1  8  2  0  0  0
  1 12  1  0  0  0
  2  5  1  0  0  0
  2  7  1  0  0  0
  3  4  1  0  0  0
  3  9  1  0  0  0
  3 12  1  0  0  0
  4  5  1  0  0  0
  4 11  1  0  0  0
  5 16  1  0  0  0
 16 17  1  0  0  0
  6  7  2  0  0  0
  6  8  1  0  0  0
 10 12  1  0  0  0
  9 13  1  0  0  0
 10 14  1  0  0  0
 11 15  1  0  0  0
 17 18  1  0  0  0
M  END
> <minimizedAffinity>
-6.26530

$$$$
3D4Y_MVL_A_1049


 18 19  0  0  0  0  0  0  0  0999 V2000
   28.2632   63.9828   11.5069 C   0  0  0  0  0  0  0  0  0  0  0  0
   26.8635   63.9680   11.5192 N   0  0  0  0  0  0  0  0  0  0  0  0
   28.3096   65.3461    9.3536 C   0  0  0  0  0  0  0  0  0  0  0  0
   26.8699   64.8356    9.1843 C   0  0  0  0  0  0  0  0  0  0  0  0
   26.0537   64.5655   10.4502 C   0  0  0  0  0  0  0  0  0  0  0  0
   27.5937   63.1222   13.4027 C   0  0  0  0  0  0  0  0  0  0  0  0
   26.4810   63.4541   12.7119 C   0  0  0  0  0  0  0  0  0  0  0  0
   28.6659   63.4521   12.6831 N   0  0  0  0  0  0  0  0  0  0  0  0
   28.9232   65.4471    8.0917 O   0  0  0  0  0  0  0  0  0  0  0  0
   30.0916   63.8089    9.6955 O   0  0  0  0  0  0  0  0  0  0  0  0
   26.1414   65.9086    8.5752 O   0  0  0  0  0  0  0  0  0  0  0  0
   29.1128   64.5970   10.3504 C   0  0  0  0  0  0  0  0  0  0  0  0
   28.9791   64.5669    7.6880 H   0  0  0  0  0  0  0  0  0  0  0  0
   30.6107   63.3237   10.3558 H   0  0  0  0  0  0  0  0  0  0  0  0
   26.1335   66.6736    9.1716 H   0  0  0  0  0  0  0  0  0  0  0  0
   24.8489   63.7283   10.1090 C   0  0  0  0  0  0  0  0  0  0  0  0
   25.1032   62.9625    8.9449 O   0  0  0  0  0  0  0  0  0  0  0  0
   25.2944   63.5566    8.2024 H   0  0  0  0  0  0  0  0  0  0  0  0
  1  2  1  0  0  0
  1  8  2  0  0  0
  1 12  1  0  0  0
  2  5  1  0  0  0
  2  7  1  0  0  0
  3  4  1  0  0  0
  3  9  1  0  0  0
  3 12  1  0  0  0
  4  5  1  0  0  0
  4 11  1  0  0  0
  5 16  1  0  0  0
 16 17  1  0  0  0
  6  7  2  0  0  0
  6  8  1  0  0  0
 10 12  1  0  0  0
  9 13  1  0  0  0
 10 14  1  0  0  0
 11 15  1  0  0  0
 17 18  1  0  0  0
M  END
> <minimizedAffinity>
-6.15892

$$$$
3D4Y_MVL_A_1049


 18 19  0  0  0  0  0  0  0  0999 V2000
   26.5090   62.8359   11.4537 C   0  0  0  0  0  0  0  0  0  0  0  0
   25.4123   62.9074   12.3207 N   0  0  0  0  0  0  0  0  0  0  0  0
   28.1520   62.8460   13.4025 C   0  0  0  0  0  0  0  0  0  0  0  0
   26.9710   63.4342   14.1908 C   0  0  0  0  0  0  0  0  0  0  0  0
   25.5576   63.0181   13.7775 C   0  0  0  0  0  0  0  0  0  0  0  0
   24.6800   62.5707   10.2844 C   0  0  0  0  0  0  0  0  0  0  0  0
   24.3002   62.7155   11.5729 C   0  0  0  0  0  0  0  0  0  0  0  0
   26.0095   62.6303   10.2146 N   0  0  0  0  0  0  0  0  0  0  0  0
   29.3538   63.4116   13.8659 O   0  0  0  0  0  0  0  0  0  0  0  0
   28.8703   63.8717   11.3809 O   0  0  0  0  0  0  0  0  0  0  0  0
   27.0732   62.8935   15.5138 O   0  0  0  0  0  0  0  0  0  0  0  0
   27.9944   62.9020   11.9288 C   0  0  0  0  0  0  0  0  0  0  0  0
   29.3473   64.3670   13.6981 H   0  0  0  0  0  0  0  0  0  0  0  0
   28.7593   63.9002   10.4177 H   0  0  0  0  0  0  0  0  0  0  0  0
   26.9752   61.9291   15.4774 H   0  0  0  0  0  0  0  0  0  0  0  0
   24.5525   63.9627   14.3827 C   0  0  0  0  0  0  0  0  0  0  0  0
   24.1199   63.4725   15.6391 O   0  0  0  0  0  0  0  0  0  0  0  0
   23.7047   62.6038   15.5217 H   0  0  0  0  0  0  0  0  0  0  0  0
  1  2  1  0  0  0
  1  8  2  0  0  0
  1 12  1  0  0  0
  2  5  1  0  0  0
  2  7  1  0  0  0
  3  4  1  0  0  0
  3  9  1  0  0  0
  3 12  1  0  0  0
  4  5  1  0  0  0
  4 11  1  0  0  0
  5 16  1  0  0  0
 16 17  1  0  0  0
  6  7  2  0  0  0
  6  8  1  0  0  0
 10 12  1  0  0  0
  9 13  1  0  0  0
 10 14  1  0  0  0
 11 15  1  0  0  0
 17 18  1  0  0  0
M  END
> <minimizedAffinity>
-6.12843

$$$$
3D4Y_MVL_A_1049


 18 19  0  0  0  0  0  0  0  0999 V2000
   24.6696   64.3285    9.9162 C   0  0  0  0  0  0  0  0  0  0  0  0
   25.7945   64.6930   10.6654 N   0  0  0  0  0  0  0  0  0  0  0  0
   25.2001   61.8490   10.1775 C   0  0  0  0  0  0  0  0  0  0  0  0
   26.6165   62.3472   10.5056 C   0  0  0  0  0  0  0  0  0  0  0  0
   26.7550   63.7115   11.1846 C   0  0  0  0  0  0  0  0  0  0  0  0
   24.5906   66.4826   10.2856 C   0  0  0  0  0  0  0  0  0  0  0  0
   25.7040   66.0237   10.8980 C   0  0  0  0  0  0  0  0  0  0  0  0
   23.9616   65.4606    9.7059 N   0  0  0  0  0  0  0  0  0  0  0  0
   25.2811   60.6299    9.4801 O   0  0  0  0  0  0  0  0  0  0  0  0
   24.1344   62.5171    8.1593 O   0  0  0  0  0  0  0  0  0  0  0  0
   27.1249   61.4560   11.5058 O   0  0  0  0  0  0  0  0  0  0  0  0
   24.3322   62.8566    9.5207 C   0  0  0  0  0  0  0  0  0  0  0  0
   25.7361   60.7705    8.6351 H   0  0  0  0  0  0  0  0  0  0  0  0
   23.5661   63.1818    7.7396 H   0  0  0  0  0  0  0  0  0  0  0  0
   26.5781   61.5207   12.3045 H   0  0  0  0  0  0  0  0  0  0  0  0
   28.1787   64.1911   11.0754 C   0  0  0  0  0  0  0  0  0  0  0  0
   28.9469   63.2668   10.3260 O   0  0  0  0  0  0  0  0  0  0  0  0
   28.9382   62.4043   10.7699 H   0  0  0  0  0  0  0  0  0  0  0  0
  1  2  1  0  0  0
  1  8  2  0  0  0
  1 12  1  0  0  0
  2  5  1  0  0  0
  2  7  1  0  0  0
  3  4  1  0  0  0
  3  9  1  0  0  0
  3 12  1  0  0  0
  4  5  1  0  0  0
  4 11  1  0  0  0
  5 16  1  0  0  0
 16 17  1  0  0  0
  6  7  2  0  0  0
  6  8  1  0  0  0
 10 12  1  0  0  0
  9 13  1  0  0  0
 10 14  1  0  0  0
 11 15  1  0  0  0
 17 18  1  0  0  0
M  END
> <minimizedAffinity>
-6.04785

$$$$
3D4Y_MVL_A_1049


 18 19  0  0  0  0  0  0  0  0999 V2000
   26.7160   64.0101   10.3676 C   0  0  0  0  0  0  0  0  0  0  0  0
   26.3753   63.2255   11.4756 N   0  0  0  0  0  0  0  0  0  0  0  0
   28.9365   64.6806   11.4246 C   0  0  0  0  0  0  0  0  0  0  0  0
   28.2618   64.2521   12.7372 C   0  0  0  0  0  0  0  0  0  0  0  0
   27.2195   63.1334   12.6732 C   0  0  0  0  0  0  0  0  0  0  0  0
   24.9006   62.8870    9.8923 C   0  0  0  0  0  0  0  0  0  0  0  0
   25.2652   62.5259   11.1421 C   0  0  0  0  0  0  0  0  0  0  0  0
   25.7807   63.7702    9.4216 N   0  0  0  0  0  0  0  0  0  0  0  0
   29.7886   65.7728   11.6696 O   0  0  0  0  0  0  0  0  0  0  0  0
   27.8904   66.2785   10.0077 O   0  0  0  0  0  0  0  0  0  0  0  0
   29.2945   63.6610   13.5354 O   0  0  0  0  0  0  0  0  0  0  0  0
   27.9997   64.8952   10.2949 C   0  0  0  0  0  0  0  0  0  0  0  0
   29.2651   66.5280   11.9802 H   0  0  0  0  0  0  0  0  0  0  0  0
   27.2760   66.4076    9.2683 H   0  0  0  0  0  0  0  0  0  0  0  0
   29.6371   62.8715   13.0880 H   0  0  0  0  0  0  0  0  0  0  0  0
   26.4107   63.1194   13.9439 C   0  0  0  0  0  0  0  0  0  0  0  0
   27.1549   62.5161   14.9871 O   0  0  0  0  0  0  0  0  0  0  0  0
   27.3731   61.6032   14.7426 H   0  0  0  0  0  0  0  0  0  0  0  0
  1  2  1  0  0  0
  1  8  2  0  0  0
  1 12  1  0  0  0
  2  5  1  0  0  0
  2  7  1  0  0  0
  3  4  1  0  0  0
  3  9  1  0  0  0
  3 12  1  0  0  0
  4  5  1  0  0  0
  4 11  1  0  0  0
  5 16  1  0  0  0
 16 17  1  0  0  0
  6  7  2  0  0  0
  6  8  1  0  0  0
 10 12  1  0  0  0
  9 13  1  0  0  0
 10 14  1  0  0  0
 11 15  1  0  0  0
 17 18  1  0  0  0
M  END
> <minimizedAffinity>
-5.97090

$$$$
3D4Y_MVL_A_1049


 18 19  0  0  0  0  0  0  0  0999 V2000
   25.5241   64.6792   11.5712 C   0  0  0  0  0  0  0  0  0  0  0  0
   24.9172   63.4370   11.3516 N   0  0  0  0  0  0  0  0  0  0  0  0
   25.4381   65.2499    9.0884 C   0  0  0  0  0  0  0  0  0  0  0  0
   25.2816   63.7320    8.9053 C   0  0  0  0  0  0  0  0  0  0  0  0
   24.5716   62.9480   10.0111 C   0  0  0  0  0  0  0  0  0  0  0  0
   25.0592   63.7801   13.5099 C   0  0  0  0  0  0  0  0  0  0  0  0
   24.6201   62.9185   12.5664 C   0  0  0  0  0  0  0  0  0  0  0  0
   25.5914   64.8451   12.9111 N   0  0  0  0  0  0  0  0  0  0  0  0
   26.1896   65.7763    8.0221 O   0  0  0  0  0  0  0  0  0  0  0  0
   27.2670   66.1225   10.3330 O   0  0  0  0  0  0  0  0  0  0  0  0
   24.3956   63.5596    7.7925 O   0  0  0  0  0  0  0  0  0  0  0  0
   25.9313   65.6587   10.4261 C   0  0  0  0  0  0  0  0  0  0  0  0
   27.0813   65.3947    8.0355 H   0  0  0  0  0  0  0  0  0  0  0  0
   27.5795   66.3870   11.2124 H   0  0  0  0  0  0  0  0  0  0  0  0
   23.5292   63.9393    8.0071 H   0  0  0  0  0  0  0  0  0  0  0  0
   24.8497   61.4765    9.8494 C   0  0  0  0  0  0  0  0  0  0  0  0
   24.0557   60.9436    8.8046 O   0  0  0  0  0  0  0  0  0  0  0  0
   23.1172   61.0652    9.0175 H   0  0  0  0  0  0  0  0  0  0  0  0
  1  2  1  0  0  0
  1  8  2  0  0  0
  1 12  1  0  0  0
  2  5  1  0  0  0
  2  7  1  0  0  0
  3  4  1  0  0  0
  3  9  1  0  0  0
  3 12  1  0  0  0
  4  5  1  0  0  0
  4 11  1  0  0  0
  5 16  1  0  0  0
 16 17  1  0  0  0
  6  7  2  0  0  0
  6  8  1  0  0  0
 10 12  1  0  0  0
  9 13  1  0  0  0
 10 14  1  0  0  0
 11 15  1  0  0  0
 17 18  1  0  0  0
M  END
> <minimizedAffinity>
-5.83307

$$$$
3D4Y_MVL_A_1049


 18 19  0  0  0  0  0  0  0  0999 V2000
   28.3137   64.1192   12.1998 C   0  0  0  0  0  0  0  0  0  0  0  0
   27.0973   64.1552   11.5080 N   0  0  0  0  0  0  0  0  0  0  0  0
   27.2625   62.8474   14.1428 C   0  0  0  0  0  0  0  0  0  0  0  0
   25.9400   63.3870   13.5755 C   0  0  0  0  0  0  0  0  0  0  0  0
   25.8506   63.6160   12.0651 C   0  0  0  0  0  0  0  0  0  0  0  0
   28.6782   64.9093   10.1934 C   0  0  0  0  0  0  0  0  0  0  0  0
   27.3596   64.6242   10.2653 C   0  0  0  0  0  0  0  0  0  0  0  0
   29.2544   64.5934   11.3528 N   0  0  0  0  0  0  0  0  0  0  0  0
   27.1827   62.7902   15.5461 O   0  0  0  0  0  0  0  0  0  0  0  0
   29.0377   64.3409   14.6657 O   0  0  0  0  0  0  0  0  0  0  0  0
   24.9713   62.3521   13.7846 O   0  0  0  0  0  0  0  0  0  0  0  0
   28.4736   63.5412   13.6410 C   0  0  0  0  0  0  0  0  0  0  0  0
   27.0655   63.6857   15.9001 H   0  0  0  0  0  0  0  0  0  0  0  0
   29.8283   64.7897   14.3273 H   0  0  0  0  0  0  0  0  0  0  0  0
   25.2278   61.5629   13.2824 H   0  0  0  0  0  0  0  0  0  0  0  0
   24.6610   64.4856   11.7527 C   0  0  0  0  0  0  0  0  0  0  0  0
   23.5219   63.6807   11.5064 O   0  0  0  0  0  0  0  0  0  0  0  0
   23.6944   63.0992   10.7494 H   0  0  0  0  0  0  0  0  0  0  0  0
  1  2  1  0  0  0
  1  8  2  0  0  0
  1 12  1  0  0  0
  2  5  1  0  0  0
  2  7  1  0  0  0
  3  4  1  0  0  0
  3  9  1  0  0  0
  3 12  1  0  0  0
  4  5  1  0  0  0
  4 11  1  0  0  0
  5 16  1  0  0  0
 16 17  1  0  0  0
  6  7  2  0  0  0
  6  8  1  0  0  0
 10 12  1  0  0  0
  9 13  1  0  0  0
 10 14  1  0  0  0
 11 15  1  0  0  0
 17 18  1  0  0  0
M  END
> <minimizedAffinity>
-5.81061

$$$$
3D4Y_MVL_A_1049


 18 19  0  0  0  0  0  0  0  0999 V2000
   28.2834   65.3156    8.8180 C   0  0  0  0  0  0  0  0  0  0  0  0
   29.4229   65.7528    8.1325 N   0  0  0  0  0  0  0  0  0  0  0  0
   29.5660   65.1631   11.0155 C   0  0  0  0  0  0  0  0  0  0  0  0
   30.8061   65.1302   10.1082 C   0  0  0  0  0  0  0  0  0  0  0  0
   30.7368   65.8788    8.7754 C   0  0  0  0  0  0  0  0  0  0  0  0
   27.6938   65.9104    6.7977 C   0  0  0  0  0  0  0  0  0  0  0  0
   29.0222   66.1360    6.8974 C   0  0  0  0  0  0  0  0  0  0  0  0
   27.2471   65.4289    7.9574 N   0  0  0  0  0  0  0  0  0  0  0  0
   29.7871   64.3502   12.1421 O   0  0  0  0  0  0  0  0  0  0  0  0
   27.8011   63.6036   10.6863 O   0  0  0  0  0  0  0  0  0  0  0  0
   31.8260   65.8514   10.8101 O   0  0  0  0  0  0  0  0  0  0  0  0
   28.2878   64.8823   10.3176 C   0  0  0  0  0  0  0  0  0  0  0  0
   29.9078   63.4305   11.8586 H   0  0  0  0  0  0  0  0  0  0  0  0
   26.9657   63.4302   10.2248 H   0  0  0  0  0  0  0  0  0  0  0  0
   31.5483   66.7735   10.9262 H   0  0  0  0  0  0  0  0  0  0  0  0
   31.8586   65.4247    7.8786 C   0  0  0  0  0  0  0  0  0  0  0  0
   33.1071   65.7872    8.4405 O   0  0  0  0  0  0  0  0  0  0  0  0
   33.1510   66.7515    8.5360 H   0  0  0  0  0  0  0  0  0  0  0  0
  1  2  1  0  0  0
  1  8  2  0  0  0
  1 12  1  0  0  0
  2  5  1  0  0  0
  2  7  1  0  0  0
  3  4  1  0  0  0
  3  9  1  0  0  0
  3 12  1  0  0  0
  4  5  1  0  0  0
  4 11  1  0  0  0
  5 16  1  0  0  0
 16 17  1  0  0  0
  6  7  2  0  0  0
  6  8  1  0  0  0
 10 12  1  0  0  0
  9 13  1  0  0  0
 10 14  1  0  0  0
 11 15  1  0  0  0
 17 18  1  0  0  0
M  END
> <minimizedAffinity>
-5.80534

$$$$
