3RYV_RYV_B_1
  RCSB PDB12061710383D
Coordinates from PDB:3RYV:B:1 Model:1 without hydrogens
 15 15  0  0  0  0            999 V2000
   15.0830   -0.0050   16.8010   S 0  0  0  0  0  0  0  0  0  0  0  0
   18.6830    4.7570   13.6040   N 0  0  0  0  0  0  0  0  0  0  0  0
   16.6900    5.7540   13.6820   O 0  0  0  0  0  0  0  0  0  0  0  0
   16.8540    3.6010   14.6440   C 0  0  0  0  0  0  0  0  0  0  0  0
   14.9090    2.4100   15.5030   C 0  0  0  0  0  0  0  0  0  0  0  0
   15.4640    3.5180   14.8420   C 0  0  0  0  0  0  0  0  0  0  0  0
   15.7320    1.3580   15.9510   C 0  0  0  0  0  0  0  0  0  0  0  0
   17.6880    2.5520   15.1200   C 0  0  0  0  0  0  0  0  0  0  0  0
   17.1360    1.4600   15.7910   C 0  0  0  0  0  0  0  0  0  0  0  0
   17.4400    4.7600   13.9120   C 0  0  0  0  0  0  0  0  0  0  0  0
   19.2990    5.8870   12.8630   C 0  0  0  0  0  0  0  0  0  0  0  0
   13.6680    0.0790   16.6480   O 0  0  0  0  0  0  0  0  0  0  0  0
   19.4690    6.9820   13.9400   C 0  0  0  0  0  0  0  0  0  0  0  0
   15.5900    0.0490   18.1750   O 0  0  0  0  0  0  0  0  0  0  0  0
   15.6990   -1.3180   16.0630   N 0  0  0  0  0  0  0  0  0  0  0  0
  7  1  1  0  0  0  0
 15  1  1  0  0  0  0
 12  1  2  0  0  0  0
  1 14  2  0  0  0  0
 11  2  1  0  0  0  0
  2 10  1  0  0  0  0
  3 10  2  0  0  0  0
 10  4  1  0  0  0  0
  4  6  2  0  0  0  0
  4  8  1  0  0  0  0
  6  5  1  0  0  0  0
  5  7  2  0  0  0  0
  9  7  1  0  0  0  0
  8  9  2  0  0  0  0
 11 13  1  0  0  0  0
A    1
S
A    2
N'
A    3
O'
A    4
C1
A    5
C2
A    6
C3
A    7
C4
A    8
C5
A    9
C6
A   10
C7
A   11
C1'
A   12
O1S
A   13
C2'
A   14
O2S
A   15
N3S
M  END
>  <InstanceId>
3RYV_RYV_B_1

>  <ChemCompId>
RYV

>  <PdbId>
3RYV

>  <ChainId>
B

>  <ResidueNumber>
1

>  <InsertionCode>


>  <Model>
1

>  <AltIds>


>  <MissingHeavyAtoms>
0

>  <ObservedFormula>
C9 N2 O3 S

>  <Name>
N-ethyl-4-sulfamoylbenzamide

>  <SystematicName>
N-ethyl-4-sulfamoyl-benzamide

>  <Synonyms>


>  <Type>
NON-POLYMER

>  <Formula>
C9 H12 N2 O3 S

>  <MolecularWeight>
228.268

>  <ModifiedDate>
2011-08-05

>  <Parent>


>  <OneLetterCode>


>  <SubcomponentList>


>  <AmbiguousFlag>
N

>  <InChI>
InChI=1S/C9H12N2O3S/c1-2-11-9(12)7-3-5-8(6-4-7)15(10,13)14/h3-6H,2H2,1H3,(H,11,12)(H2,10,13,14)

>  <InChIKey>
TVIHIVRFUPNIRD-UHFFFAOYSA-N

>  <SMILES>
CCNC(=O)c1ccc(cc1)S(=O)(=O)N

$$$$
