4E3G_PHB_A_303


 12 12  0  0  0  0  0  0  0  0999 V2000
   16.2156    2.3613   15.3762 C   0  0  0  0  0  0  0  0  0  0  0  0
   17.4552    3.0105   15.1444 C   0  0  0  0  0  0  0  0  0  0  0  0
   17.5762    4.3150   14.5790 C   0  0  0  0  0  0  0  0  0  0  0  0
   16.3123    4.8543   14.1849 C   0  0  0  0  0  0  0  0  0  0  0  0
   15.0830    4.2113   14.4036 C   0  0  0  0  0  0  0  0  0  0  0  0
   15.0245    2.9916   15.0594 C   0  0  0  0  0  0  0  0  0  0  0  0
   16.2348    6.1012   13.5491 O   0  0  0  0  0  0  0  0  0  0  0  0
   17.0167    6.5860   13.3717 H   0  0  0  0  0  0  0  0  0  0  0  0
   16.2306    1.0946   16.0119 C   0  0  0  0  0  0  0  0  0  0  0  0
   17.2798    0.3754   16.0018 O   0  0  0  0  0  0  0  0  0  0  0  0
   15.1966    0.5288   16.4496 O   0  0  0  0  0  0  0  0  0  0  0  0
   14.3861    0.9975   16.4865 H   0  0  0  0  0  0  0  0  0  0  0  0
  9 10  2  0  0  0
  9 11  1  0  0  0
  9  1  1  0  0  0
  1  2  1  0  0  0
  1  6  2  0  0  0
  2  3  2  0  0  0
  3  4  1  0  0  0
  4  5  2  0  0  0
  4  7  1  0  0  0
  5  6  1  0  0  0
 11 12  1  0  0  0
  7  8  1  0  0  0
M  END
> <minimizedAffinity>
-5.20394

$$$$
4E3G_PHB_A_303


 12 12  0  0  0  0  0  0  0  0999 V2000
   15.3494    2.8939   15.1129 C   0  0  0  0  0  0  0  0  0  0  0  0
   14.2408    2.7074   15.9778 C   0  0  0  0  0  0  0  0  0  0  0  0
   14.1667    1.6802   16.9654 C   0  0  0  0  0  0  0  0  0  0  0  0
   15.2941    0.8024   16.9202 C   0  0  0  0  0  0  0  0  0  0  0  0
   16.3898    0.9774   16.0593 C   0  0  0  0  0  0  0  0  0  0  0  0
   16.4522    2.0614   15.1977 C   0  0  0  0  0  0  0  0  0  0  0  0
   15.3690   -0.3083   17.7720 O   0  0  0  0  0  0  0  0  0  0  0  0
   14.6724   -0.4857   18.3730 H   0  0  0  0  0  0  0  0  0  0  0  0
   15.3287    3.9983   14.2248 C   0  0  0  0  0  0  0  0  0  0  0  0
   15.8753    3.9203   13.0788 O   0  0  0  0  0  0  0  0  0  0  0  0
   14.9520    5.1494   14.5622 O   0  0  0  0  0  0  0  0  0  0  0  0
   14.5408    5.2829   15.3935 H   0  0  0  0  0  0  0  0  0  0  0  0
  9 10  2  0  0  0
  9 11  1  0  0  0
  9  1  1  0  0  0
  1  2  1  0  0  0
  1  6  2  0  0  0
  2  3  2  0  0  0
  3  4  1  0  0  0
  4  5  2  0  0  0
  4  7  1  0  0  0
  5  6  1  0  0  0
 11 12  1  0  0  0
  7  8  1  0  0  0
M  END
> <minimizedAffinity>
-5.04597

$$$$
4E3G_PHB_A_303


 12 12  0  0  0  0  0  0  0  0999 V2000
   17.7328    1.7760   11.1504 C   0  0  0  0  0  0  0  0  0  0  0  0
   17.8041    3.0851   11.6918 C   0  0  0  0  0  0  0  0  0  0  0  0
   19.0043    3.8537   11.7586 C   0  0  0  0  0  0  0  0  0  0  0  0
   20.1442    3.1194   11.3057 C   0  0  0  0  0  0  0  0  0  0  0  0
   20.0802    1.8196   10.7775 C   0  0  0  0  0  0  0  0  0  0  0  0
   18.8652    1.1675   10.6368 C   0  0  0  0  0  0  0  0  0  0  0  0
   21.4253    3.6858   11.3573 O   0  0  0  0  0  0  0  0  0  0  0  0
   21.5417    4.5508   11.6983 H   0  0  0  0  0  0  0  0  0  0  0  0
   16.4638    1.1491   11.0764 C   0  0  0  0  0  0  0  0  0  0  0  0
   16.3694   -0.1059   10.8910 O   0  0  0  0  0  0  0  0  0  0  0  0
   15.3820    1.7854   11.0009 O   0  0  0  0  0  0  0  0  0  0  0  0
   15.3749    2.7139   11.1265 H   0  0  0  0  0  0  0  0  0  0  0  0
  9 10  2  0  0  0
  9 11  1  0  0  0
  9  1  1  0  0  0
  1  2  1  0  0  0
  1  6  2  0  0  0
  2  3  2  0  0  0
  3  4  1  0  0  0
  4  5  2  0  0  0
  4  7  1  0  0  0
  5  6  1  0  0  0
 11 12  1  0  0  0
  7  8  1  0  0  0
M  END
> <minimizedAffinity>
-4.92144

$$$$
4E3G_PHB_A_303


 12 12  0  0  0  0  0  0  0  0999 V2000
   17.3932    2.1785   11.1230 C   0  0  0  0  0  0  0  0  0  0  0  0
   18.7246    1.7611   10.8678 C   0  0  0  0  0  0  0  0  0  0  0  0
   19.1140    0.3975   10.7101 C   0  0  0  0  0  0  0  0  0  0  0  0
   18.0284   -0.5055   10.9327 C   0  0  0  0  0  0  0  0  0  0  0  0
   16.7104   -0.0974   11.1950 C   0  0  0  0  0  0  0  0  0  0  0  0
   16.3744    1.2470   11.2261 C   0  0  0  0  0  0  0  0  0  0  0  0
   18.2315   -1.8917   10.8864 O   0  0  0  0  0  0  0  0  0  0  0  0
   19.0867   -2.2344   10.7159 H   0  0  0  0  0  0  0  0  0  0  0  0
   17.1269    3.5692   11.1861 C   0  0  0  0  0  0  0  0  0  0  0  0
   17.3925    4.2341   12.2375 O   0  0  0  0  0  0  0  0  0  0  0  0
   16.4614    4.1855   10.3154 O   0  0  0  0  0  0  0  0  0  0  0  0
   16.2287    3.7585    9.5144 H   0  0  0  0  0  0  0  0  0  0  0  0
  9 10  2  0  0  0
  9 11  1  0  0  0
  9  1  1  0  0  0
  1  2  1  0  0  0
  1  6  2  0  0  0
  2  3  2  0  0  0
  3  4  1  0  0  0
  4  5  2  0  0  0
  4  7  1  0  0  0
  5  6  1  0  0  0
 11 12  1  0  0  0
  7  8  1  0  0  0
M  END
> <minimizedAffinity>
-4.86556

$$$$
4E3G_PHB_A_303


 12 12  0  0  0  0  0  0  0  0999 V2000
   17.6613    2.1441   10.9569 C   0  0  0  0  0  0  0  0  0  0  0  0
   18.5673    1.0587   10.8430 C   0  0  0  0  0  0  0  0  0  0  0  0
   19.8638    1.1633   10.2567 C   0  0  0  0  0  0  0  0  0  0  0  0
   20.1091    2.4620    9.7116 C   0  0  0  0  0  0  0  0  0  0  0  0
   19.2114    3.5372    9.8135 C   0  0  0  0  0  0  0  0  0  0  0  0
   18.0117    3.4008   10.4940 C   0  0  0  0  0  0  0  0  0  0  0  0
   21.3054    2.7384    9.0354 O   0  0  0  0  0  0  0  0  0  0  0  0
   21.9502    2.0667    8.9304 H   0  0  0  0  0  0  0  0  0  0  0  0
   16.4318    1.9239   11.6268 C   0  0  0  0  0  0  0  0  0  0  0  0
   16.4095    1.6441   12.8676 O   0  0  0  0  0  0  0  0  0  0  0  0
   15.3313    1.8057   11.0304 O   0  0  0  0  0  0  0  0  0  0  0  0
   15.2720    1.9950   10.1146 H   0  0  0  0  0  0  0  0  0  0  0  0
  9 10  2  0  0  0
  9 11  1  0  0  0
  9  1  1  0  0  0
  1  2  1  0  0  0
  1  6  2  0  0  0
  2  3  2  0  0  0
  3  4  1  0  0  0
  4  5  2  0  0  0
  4  7  1  0  0  0
  5  6  1  0  0  0
 11 12  1  0  0  0
  7  8  1  0  0  0
M  END
> <minimizedAffinity>
-4.77322

$$$$
4E3G_PHB_A_303


 12 12  0  0  0  0  0  0  0  0999 V2000
   16.9930    3.4833   14.9964 C   0  0  0  0  0  0  0  0  0  0  0  0
   15.8842    4.2081   14.4895 C   0  0  0  0  0  0  0  0  0  0  0  0
   15.9967    5.4443   13.7859 C   0  0  0  0  0  0  0  0  0  0  0  0
   17.3448    5.9171   13.7329 C   0  0  0  0  0  0  0  0  0  0  0  0
   18.4449    5.2076   14.2416 C   0  0  0  0  0  0  0  0  0  0  0  0
   18.2812    3.9573   14.8170 C   0  0  0  0  0  0  0  0  0  0  0  0
   17.6463    7.1502   13.1385 O   0  0  0  0  0  0  0  0  0  0  0  0
   16.9602    7.6768   12.7781 H   0  0  0  0  0  0  0  0  0  0  0  0
   16.7500    2.2305   15.6131 C   0  0  0  0  0  0  0  0  0  0  0  0
   17.7093    1.5443   16.0895 O   0  0  0  0  0  0  0  0  0  0  0  0
   15.6400    1.6415   15.5674 O   0  0  0  0  0  0  0  0  0  0  0  0
   14.8877    2.0854   15.2283 H   0  0  0  0  0  0  0  0  0  0  0  0
  9 10  2  0  0  0
  9 11  1  0  0  0
  9  1  1  0  0  0
  1  2  1  0  0  0
  1  6  2  0  0  0
  2  3  2  0  0  0
  3  4  1  0  0  0
  4  5  2  0  0  0
  4  7  1  0  0  0
  5  6  1  0  0  0
 11 12  1  0  0  0
  7  8  1  0  0  0
M  END
> <minimizedAffinity>
-4.56435

$$$$
4E3G_PHB_A_303


 12 12  0  0  0  0  0  0  0  0999 V2000
   16.2796    5.6447   13.4757 C   0  0  0  0  0  0  0  0  0  0  0  0
   17.5215    6.3296   13.4569 C   0  0  0  0  0  0  0  0  0  0  0  0
   18.7310    5.7980   13.9957 C   0  0  0  0  0  0  0  0  0  0  0  0
   18.5294    4.5384   14.6410 C   0  0  0  0  0  0  0  0  0  0  0  0
   17.2996    3.8607   14.6705 C   0  0  0  0  0  0  0  0  0  0  0  0
   16.1850    4.3803   14.0311 C   0  0  0  0  0  0  0  0  0  0  0  0
   19.5900    3.8897   15.2884 O   0  0  0  0  0  0  0  0  0  0  0  0
   20.4392    4.2851   15.3076 H   0  0  0  0  0  0  0  0  0  0  0  0
   15.1683    6.2537   12.8408 C   0  0  0  0  0  0  0  0  0  0  0  0
   14.0049    6.1713   13.3485 O   0  0  0  0  0  0  0  0  0  0  0  0
   15.2144    6.7370   11.6809 O   0  0  0  0  0  0  0  0  0  0  0  0
   16.0382    6.8281   11.2438 H   0  0  0  0  0  0  0  0  0  0  0  0
  9 10  2  0  0  0
  9 11  1  0  0  0
  9  1  1  0  0  0
  1  2  1  0  0  0
  1  6  2  0  0  0
  2  3  2  0  0  0
  3  4  1  0  0  0
  4  5  2  0  0  0
  4  7  1  0  0  0
  5  6  1  0  0  0
 11 12  1  0  0  0
  7  8  1  0  0  0
M  END
> <minimizedAffinity>
-4.55399

$$$$
4E3G_PHB_A_303


 12 12  0  0  0  0  0  0  0  0999 V2000
   17.0056    2.6120   12.4844 C   0  0  0  0  0  0  0  0  0  0  0  0
   16.5968    2.9614   13.7969 C   0  0  0  0  0  0  0  0  0  0  0  0
   17.1420    4.0538   14.5353 C   0  0  0  0  0  0  0  0  0  0  0  0
   18.2128    4.6972   13.8402 C   0  0  0  0  0  0  0  0  0  0  0  0
   18.6275    4.3490   12.5444 C   0  0  0  0  0  0  0  0  0  0  0  0
   17.9821    3.3480   11.8354 C   0  0  0  0  0  0  0  0  0  0  0  0
   18.9180    5.7527   14.4348 O   0  0  0  0  0  0  0  0  0  0  0  0
   18.6942    6.0376   15.2989 H   0  0  0  0  0  0  0  0  0  0  0  0
   16.3321    1.5485   11.8330 C   0  0  0  0  0  0  0  0  0  0  0  0
   16.7180    0.3459   11.9847 O   0  0  0  0  0  0  0  0  0  0  0  0
   15.4600    1.7241   10.9445 O   0  0  0  0  0  0  0  0  0  0  0  0
   15.1284    2.5842   10.7769 H   0  0  0  0  0  0  0  0  0  0  0  0
  9 10  2  0  0  0
  9 11  1  0  0  0
  9  1  1  0  0  0
  1  2  1  0  0  0
  1  6  2  0  0  0
  2  3  2  0  0  0
  3  4  1  0  0  0
  4  5  2  0  0  0
  4  7  1  0  0  0
  5  6  1  0  0  0
 11 12  1  0  0  0
  7  8  1  0  0  0
M  END
> <minimizedAffinity>
-4.51288

$$$$
4E3G_PHB_A_303


 12 12  0  0  0  0  0  0  0  0999 V2000
   17.8990   -0.3157   11.0857 C   0  0  0  0  0  0  0  0  0  0  0  0
   16.6767    0.3966   11.1895 C   0  0  0  0  0  0  0  0  0  0  0  0
   16.5574    1.8044   10.9905 C   0  0  0  0  0  0  0  0  0  0  0  0
   17.8237    2.4298   10.7688 C   0  0  0  0  0  0  0  0  0  0  0  0
   19.0378    1.7301   10.6746 C   0  0  0  0  0  0  0  0  0  0  0  0
   19.0716    0.3476   10.7672 C   0  0  0  0  0  0  0  0  0  0  0  0
   17.9168    3.8202   10.6171 O   0  0  0  0  0  0  0  0  0  0  0  0
   17.1455    4.3497   10.6685 H   0  0  0  0  0  0  0  0  0  0  0  0
   17.8687   -1.7248   11.2349 C   0  0  0  0  0  0  0  0  0  0  0  0
   16.8354   -2.3069   11.6950 O   0  0  0  0  0  0  0  0  0  0  0  0
   18.8844   -2.4551   11.1088 O   0  0  0  0  0  0  0  0  0  0  0  0
   19.6824   -2.0943   10.7757 H   0  0  0  0  0  0  0  0  0  0  0  0
  9 10  2  0  0  0
  9 11  1  0  0  0
  9  1  1  0  0  0
  1  2  1  0  0  0
  1  6  2  0  0  0
  2  3  2  0  0  0
  3  4  1  0  0  0
  4  5  2  0  0  0
  4  7  1  0  0  0
  5  6  1  0  0  0
 11 12  1  0  0  0
  7  8  1  0  0  0
M  END
> <minimizedAffinity>
-4.48006

$$$$
4E3G_PHB_A_303


 12 12  0  0  0  0  0  0  0  0999 V2000
   17.6890    0.9891   11.1911 C   0  0  0  0  0  0  0  0  0  0  0  0
   18.8200    1.7595   10.8178 C   0  0  0  0  0  0  0  0  0  0  0  0
   19.0912    3.0678   11.3181 C   0  0  0  0  0  0  0  0  0  0  0  0
   18.0457    3.5522   12.1643 C   0  0  0  0  0  0  0  0  0  0  0  0
   16.9194    2.7968   12.5293 C   0  0  0  0  0  0  0  0  0  0  0  0
   16.7691    1.4886   12.0970 C   0  0  0  0  0  0  0  0  0  0  0  0
   18.1020    4.8465   12.6996 O   0  0  0  0  0  0  0  0  0  0  0  0
   18.8260    5.4059   12.4976 H   0  0  0  0  0  0  0  0  0  0  0  0
   17.5746   -0.3268   10.6771 C   0  0  0  0  0  0  0  0  0  0  0  0
   17.2728   -1.2982   11.4408 O   0  0  0  0  0  0  0  0  0  0  0  0
   17.9340   -0.6488    9.5160 O   0  0  0  0  0  0  0  0  0  0  0  0
   18.1713    0.0145    8.8982 H   0  0  0  0  0  0  0  0  0  0  0  0
  9 10  2  0  0  0
  9 11  1  0  0  0
  9  1  1  0  0  0
  1  2  1  0  0  0
  1  6  2  0  0  0
  2  3  2  0  0  0
  3  4  1  0  0  0
  4  5  2  0  0  0
  4  7  1  0  0  0
  5  6  1  0  0  0
 11 12  1  0  0  0
  7  8  1  0  0  0
M  END
> <minimizedAffinity>
-4.44203

$$$$
