4IBJ_1D9_A_401


 40 43  0  0  0  0  0  0  0  0999 V2000
    2.2754   21.3342    0.5846 C   0  0  0  0  0  0  0  0  0  0  0  0
    1.5263   20.6458   -0.3114 N   0  0  0  0  0  0  0  0  0  0  0  0
    2.1413   19.4908   -0.5926 C   0  0  0  0  0  0  0  0  0  0  0  0
    1.6666   18.5288   -1.4532 O   0  0  0  0  0  0  0  0  0  0  0  0
    3.3293   19.4269    0.1117 C   0  0  0  0  0  0  0  0  0  0  0  0
    4.2467   18.4002    0.0718 O   0  0  0  0  0  0  0  0  0  0  0  0
    3.4459   20.6078    0.8473 C   0  0  0  0  0  0  0  0  0  0  0  0
    4.0797   17.6429   -0.4541 H   0  0  0  0  0  0  0  0  0  0  0  0
    1.1529   24.2992    2.6059 C   0  0  0  0  0  0  0  0  0  0  0  0
    1.6905   23.5159    1.6000 C   0  0  0  0  0  0  0  0  0  0  0  0
    0.6157   23.6923    3.7338 C   0  0  0  0  0  0  0  0  0  0  0  0
    0.6127   22.3080    3.8523 C   0  0  0  0  0  0  0  0  0  0  0  0
    1.1524   21.5313    2.8354 C   0  0  0  0  0  0  0  0  0  0  0  0
    1.7067   22.1367    1.7125 C   0  0  0  0  0  0  0  0  0  0  0  0
    1.3503   26.1126    1.1880 F   0  0  0  0  0  0  0  0  0  0  0  0
    1.1752   25.7884    2.4652 C   0  0  0  0  0  0  0  0  0  0  0  0
    0.0463   26.3436    2.8961 F   0  0  0  0  0  0  0  0  0  0  0  0
    2.1950   26.2539    3.1710 F   0  0  0  0  0  0  0  0  0  0  0  0
    0.4676   21.1257   -1.1692 C   0  0  0  0  0  0  0  0  0  0  0  0
   -0.7924   20.5503   -1.0699 C   0  0  0  0  0  0  0  0  0  0  0  0
   -1.8329   20.9624   -1.8937 C   0  0  0  0  0  0  0  0  0  0  0  0
   -1.6091   21.9610   -2.8332 C   0  0  0  0  0  0  0  0  0  0  0  0
   -0.3507   22.5361   -2.9404 C   0  0  0  0  0  0  0  0  0  0  0  0
    0.6877   22.1180   -2.1150 C   0  0  0  0  0  0  0  0  0  0  0  0
   -3.1775   20.3270   -1.7576 C   0  0  0  0  0  0  0  0  0  0  0  0
   -3.6757   20.1192   -0.6181 O   0  0  0  0  0  0  0  0  0  0  0  0
   -3.8199   19.9986   -2.7904 O   0  0  0  0  0  0  0  0  0  0  0  0
   -3.4528   20.1515   -3.6388 H   0  0  0  0  0  0  0  0  0  0  0  0
    4.7656   21.2212    1.1925 C   0  0  0  0  0  0  0  0  0  0  0  0
    4.6279   22.5811    1.3208 O   0  0  0  0  0  0  0  0  0  0  0  0
    5.3485   20.6798    2.4586 C   0  0  0  0  0  0  0  0  0  0  0  0
    6.7141   20.8325    2.6691 C   0  0  0  0  0  0  0  0  0  0  0  0
    7.3161   20.3607    3.8232 C   0  0  0  0  0  0  0  0  0  0  0  0
    6.5411   19.7253    4.7836 C   0  0  0  0  0  0  0  0  0  0  0  0
    5.1742   19.5655    4.5885 C   0  0  0  0  0  0  0  0  0  0  0  0
    4.5739   20.0438    3.4261 C   0  0  0  0  0  0  0  0  0  0  0  0
    8.7859   20.5426    4.0025 C   0  0  0  0  0  0  0  0  0  0  0  0
    9.1436   21.6963    3.4483 F   0  0  0  0  0  0  0  0  0  0  0  0
    9.1036   20.5426    5.2944 F   0  0  0  0  0  0  0  0  0  0  0  0
    9.4201   19.5469    3.3953 F   0  0  0  0  0  0  0  0  0  0  0  0
 23 22  2  0  0  0
 23 24  1  0  0  0
 22 21  1  0  0  0
 26 25  2  0  0  0
 24 19  2  0  0  0
 21 25  1  0  0  0
 21 20  2  0  0  0
 25 27  1  0  0  0
 19 20  1  0  0  0
 19  2  1  0  0  0
  4  3  2  0  0  0
  2  3  1  0  0  0
  2  1  1  0  0  0
  3  5  1  0  0  0
  1  7  1  0  0  0
  1 14  1  0  0  0
  5  7  2  0  0  0
  5  6  1  0  0  0
  7 29  1  0  0  0
 14 10  2  0  0  0
 14 13  1  0  0  0
 30 29  2  0  0  0
 10  9  1  0  0  0
 29 31  1  0  0  0
 15 16  1  0  0  0
 13 12  2  0  0  0
 17 16  1  0  0  0
 31 32  2  0  0  0
 31 36  1  0  0  0
  9 16  1  0  0  0
  9 11  2  0  0  0
 32 33  1  0  0  0
 16 18  1  0  0  0
 40 37  1  0  0  0
 12 11  1  0  0  0
 38 37  1  0  0  0
 36 35  2  0  0  0
 33 37  1  0  0  0
 33 34  2  0  0  0
 37 39  1  0  0  0
 35 34  1  0  0  0
 27 28  1  0  0  0
  6  8  1  0  0  0
M  END
> <minimizedAffinity>
-10.03448

$$$$
4IBJ_1D9_A_401


 40 43  0  0  0  0  0  0  0  0999 V2000
    2.5008   20.7996    1.0669 C   0  0  0  0  0  0  0  0  0  0  0  0
    1.6899   19.9851    0.3480 N   0  0  0  0  0  0  0  0  0  0  0  0
    2.3106   18.8146    0.1583 C   0  0  0  0  0  0  0  0  0  0  0  0
    1.7847   17.7386   -0.5178 O   0  0  0  0  0  0  0  0  0  0  0  0
    3.5631   18.8662    0.7416 C   0  0  0  0  0  0  0  0  0  0  0  0
    4.5041   17.8604    0.7428 O   0  0  0  0  0  0  0  0  0  0  0  0
    3.7137   20.1360    1.3021 C   0  0  0  0  0  0  0  0  0  0  0  0
    4.3106   17.0372    0.3392 H   0  0  0  0  0  0  0  0  0  0  0  0
    1.4693   23.9820    2.7831 C   0  0  0  0  0  0  0  0  0  0  0  0
    1.9314   23.0830    1.8383 C   0  0  0  0  0  0  0  0  0  0  0  0
    1.0816   23.5217    4.0349 C   0  0  0  0  0  0  0  0  0  0  0  0
    1.1520   22.1676    4.3379 C   0  0  0  0  0  0  0  0  0  0  0  0
    1.6146   21.2736    3.3811 C   0  0  0  0  0  0  0  0  0  0  0  0
    2.0199   21.7336    2.1327 C   0  0  0  0  0  0  0  0  0  0  0  0
    0.2252   25.9287    2.7871 F   0  0  0  0  0  0  0  0  0  0  0  0
    1.4111   25.4374    2.4419 C   0  0  0  0  0  0  0  0  0  0  0  0
    2.3590   26.1306    3.0658 F   0  0  0  0  0  0  0  0  0  0  0  0
    1.5628   25.5600    1.1316 F   0  0  0  0  0  0  0  0  0  0  0  0
    0.5380   20.3278   -0.4537 C   0  0  0  0  0  0  0  0  0  0  0  0
    0.7200   21.0783   -1.6078 C   0  0  0  0  0  0  0  0  0  0  0  0
   -0.3624   21.4533   -2.3943 C   0  0  0  0  0  0  0  0  0  0  0  0
   -1.6457   21.0762   -2.0191 C   0  0  0  0  0  0  0  0  0  0  0  0
   -1.8343   20.3304   -0.8640 C   0  0  0  0  0  0  0  0  0  0  0  0
   -0.7475   19.9600   -0.0793 C   0  0  0  0  0  0  0  0  0  0  0  0
   -0.1318   22.2559   -3.6324 C   0  0  0  0  0  0  0  0  0  0  0  0
   -1.0068   23.0655   -4.0436 O   0  0  0  0  0  0  0  0  0  0  0  0
    0.9471   22.1244   -4.2694 O   0  0  0  0  0  0  0  0  0  0  0  0
    1.5996   21.5238   -3.9668 H   0  0  0  0  0  0  0  0  0  0  0  0
    5.0408   20.8139    1.4299 C   0  0  0  0  0  0  0  0  0  0  0  0
    4.8789   22.1745    1.3450 O   0  0  0  0  0  0  0  0  0  0  0  0
    5.7382   20.4963    2.7139 C   0  0  0  0  0  0  0  0  0  0  0  0
    7.1069   20.7268    2.7907 C   0  0  0  0  0  0  0  0  0  0  0  0
    7.8120   20.4612    3.9523 C   0  0  0  0  0  0  0  0  0  0  0  0
    7.1387   19.9563    5.0562 C   0  0  0  0  0  0  0  0  0  0  0  0
    5.7701   19.7211    4.9958 C   0  0  0  0  0  0  0  0  0  0  0  0
    5.0658   19.9919    3.8248 C   0  0  0  0  0  0  0  0  0  0  0  0
    9.2808   20.7194    3.9857 C   0  0  0  0  0  0  0  0  0  0  0  0
    9.5292   21.8545    3.3407 F   0  0  0  0  0  0  0  0  0  0  0  0
    9.7124   20.8077    5.2411 F   0  0  0  0  0  0  0  0  0  0  0  0
    9.9075   19.7203    3.3762 F   0  0  0  0  0  0  0  0  0  0  0  0
 23 22  2  0  0  0
 23 24  1  0  0  0
 22 21  1  0  0  0
 26 25  2  0  0  0
 24 19  2  0  0  0
 21 25  1  0  0  0
 21 20  2  0  0  0
 25 27  1  0  0  0
 19 20  1  0  0  0
 19  2  1  0  0  0
  4  3  2  0  0  0
  2  3  1  0  0  0
  2  1  1  0  0  0
  3  5  1  0  0  0
  1  7  1  0  0  0
  1 14  1  0  0  0
  5  7  2  0  0  0
  5  6  1  0  0  0
  7 29  1  0  0  0
 14 10  2  0  0  0
 14 13  1  0  0  0
 30 29  2  0  0  0
 10  9  1  0  0  0
 29 31  1  0  0  0
 15 16  1  0  0  0
 13 12  2  0  0  0
 17 16  1  0  0  0
 31 32  2  0  0  0
 31 36  1  0  0  0
  9 16  1  0  0  0
  9 11  2  0  0  0
 32 33  1  0  0  0
 16 18  1  0  0  0
 40 37  1  0  0  0
 12 11  1  0  0  0
 38 37  1  0  0  0
 36 35  2  0  0  0
 33 37  1  0  0  0
 33 34  2  0  0  0
 37 39  1  0  0  0
 35 34  1  0  0  0
 27 28  1  0  0  0
  6  8  1  0  0  0
M  END
> <minimizedAffinity>
-9.50093

$$$$
4IBJ_1D9_A_401


 40 43  0  0  0  0  0  0  0  0999 V2000
    2.2923   21.3089    0.5864 C   0  0  0  0  0  0  0  0  0  0  0  0
    1.5428   20.6379   -0.3223 N   0  0  0  0  0  0  0  0  0  0  0  0
    2.1498   19.4814   -0.6143 C   0  0  0  0  0  0  0  0  0  0  0  0
    1.6721   18.5341   -1.4894 O   0  0  0  0  0  0  0  0  0  0  0  0
    3.3331   19.3988    0.0960 C   0  0  0  0  0  0  0  0  0  0  0  0
    4.2421   18.3650    0.0486 O   0  0  0  0  0  0  0  0  0  0  0  0
    3.4552   20.5696    0.8467 C   0  0  0  0  0  0  0  0  0  0  0  0
    4.0719   17.6156   -0.4875 H   0  0  0  0  0  0  0  0  0  0  0  0
    1.1811   24.2581    2.6369 C   0  0  0  0  0  0  0  0  0  0  0  0
    1.7181   23.4828    1.6245 C   0  0  0  0  0  0  0  0  0  0  0  0
    0.6340   23.6420    3.7550 C   0  0  0  0  0  0  0  0  0  0  0  0
    0.6206   22.2565    3.8572 C   0  0  0  0  0  0  0  0  0  0  0  0
    1.1597   21.4878    2.8338 C   0  0  0  0  0  0  0  0  0  0  0  0
    1.7239   22.1023    1.7209 C   0  0  0  0  0  0  0  0  0  0  0  0
    0.1000   26.2630    3.0234 F   0  0  0  0  0  0  0  0  0  0  0  0
    1.2147   25.7486    2.5137 C   0  0  0  0  0  0  0  0  0  0  0  0
    2.2576   26.2747    3.1492 F   0  0  0  0  0  0  0  0  0  0  0  0
    1.2804   26.0546    1.2265 F   0  0  0  0  0  0  0  0  0  0  0  0
    0.4931   21.1372   -1.1801 C   0  0  0  0  0  0  0  0  0  0  0  0
   -0.7703   20.5664   -1.1003 C   0  0  0  0  0  0  0  0  0  0  0  0
   -1.8023   20.9971   -1.9252 C   0  0  0  0  0  0  0  0  0  0  0  0
   -1.5665   22.0103   -2.8460 C   0  0  0  0  0  0  0  0  0  0  0  0
   -0.3046   22.5811   -2.9337 C   0  0  0  0  0  0  0  0  0  0  0  0
    0.7253   22.1442   -2.1074 C   0  0  0  0  0  0  0  0  0  0  0  0
   -3.1509   20.3660   -1.8103 C   0  0  0  0  0  0  0  0  0  0  0  0
   -3.7686   19.9822   -2.8404 O   0  0  0  0  0  0  0  0  0  0  0  0
   -3.6739   20.2137   -0.6744 O   0  0  0  0  0  0  0  0  0  0  0  0
   -3.2178   20.4977    0.0933 H   0  0  0  0  0  0  0  0  0  0  0  0
    4.7780   21.1676    1.2070 C   0  0  0  0  0  0  0  0  0  0  0  0
    4.6821   22.5370    1.2197 O   0  0  0  0  0  0  0  0  0  0  0  0
    5.2816   20.7129    2.5396 C   0  0  0  0  0  0  0  0  0  0  0  0
    4.4817   19.8538    3.2841 C   0  0  0  0  0  0  0  0  0  0  0  0
    4.8915   19.3895    4.5225 C   0  0  0  0  0  0  0  0  0  0  0  0
    6.1214   19.7904    5.0261 C   0  0  0  0  0  0  0  0  0  0  0  0
    6.9333   20.6484    4.2935 C   0  0  0  0  0  0  0  0  0  0  0  0
    6.5162   21.1108    3.0475 C   0  0  0  0  0  0  0  0  0  0  0  0
    3.9967   18.4734    5.2875 C   0  0  0  0  0  0  0  0  0  0  0  0
    3.6213   19.0813    6.4081 F   0  0  0  0  0  0  0  0  0  0  0  0
    2.9262   18.1533    4.5653 F   0  0  0  0  0  0  0  0  0  0  0  0
    4.6680   17.3686    5.5893 F   0  0  0  0  0  0  0  0  0  0  0  0
 23 22  2  0  0  0
 23 24  1  0  0  0
 22 21  1  0  0  0
 26 25  2  0  0  0
 24 19  2  0  0  0
 21 25  1  0  0  0
 21 20  2  0  0  0
 25 27  1  0  0  0
 19 20  1  0  0  0
 19  2  1  0  0  0
  4  3  2  0  0  0
  2  3  1  0  0  0
  2  1  1  0  0  0
  3  5  1  0  0  0
  1  7  1  0  0  0
  1 14  1  0  0  0
  5  7  2  0  0  0
  5  6  1  0  0  0
  7 29  1  0  0  0
 14 10  2  0  0  0
 14 13  1  0  0  0
 30 29  2  0  0  0
 10  9  1  0  0  0
 29 31  1  0  0  0
 15 16  1  0  0  0
 13 12  2  0  0  0
 17 16  1  0  0  0
 31 32  2  0  0  0
 31 36  1  0  0  0
  9 16  1  0  0  0
  9 11  2  0  0  0
 32 33  1  0  0  0
 16 18  1  0  0  0
 40 37  1  0  0  0
 12 11  1  0  0  0
 38 37  1  0  0  0
 36 35  2  0  0  0
 33 37  1  0  0  0
 33 34  2  0  0  0
 37 39  1  0  0  0
 35 34  1  0  0  0
 27 28  1  0  0  0
  6  8  1  0  0  0
M  END
> <minimizedAffinity>
-9.43544

$$$$
4IBJ_1D9_A_401


 40 43  0  0  0  0  0  0  0  0999 V2000
    2.2335   21.4825    0.5208 C   0  0  0  0  0  0  0  0  0  0  0  0
    1.4018   20.7650   -0.2739 N   0  0  0  0  0  0  0  0  0  0  0  0
    1.8835   19.5220   -0.3936 C   0  0  0  0  0  0  0  0  0  0  0  0
    1.2952   18.5099   -1.1154 O   0  0  0  0  0  0  0  0  0  0  0  0
    3.0667   19.4244    0.3148 C   0  0  0  0  0  0  0  0  0  0  0  0
    3.8661   18.3074    0.4171 O   0  0  0  0  0  0  0  0  0  0  0  0
    3.3212   20.6745    0.8822 C   0  0  0  0  0  0  0  0  0  0  0  0
    3.6105   17.5085   -0.0006 H   0  0  0  0  0  0  0  0  0  0  0  0
    1.0421   22.9465    3.7726 C   0  0  0  0  0  0  0  0  0  0  0  0
    1.4510   22.0506    2.8007 C   0  0  0  0  0  0  0  0  0  0  0  0
    0.9624   24.2992    3.4675 C   0  0  0  0  0  0  0  0  0  0  0  0
    1.2947   24.7534    2.1973 C   0  0  0  0  0  0  0  0  0  0  0  0
    1.7068   23.8458    1.2302 C   0  0  0  0  0  0  0  0  0  0  0  0
    1.7709   22.4885    1.5275 C   0  0  0  0  0  0  0  0  0  0  0  0
    0.7889   23.4195    6.0197 F   0  0  0  0  0  0  0  0  0  0  0  0
    0.6779   22.4371    5.1312 C   0  0  0  0  0  0  0  0  0  0  0  0
   -0.5654   21.9670    5.1670 F   0  0  0  0  0  0  0  0  0  0  0  0
    1.5260   21.4707    5.4501 F   0  0  0  0  0  0  0  0  0  0  0  0
    0.3904   21.2371   -1.1910 C   0  0  0  0  0  0  0  0  0  0  0  0
   -0.8677   20.6498   -1.1663 C   0  0  0  0  0  0  0  0  0  0  0  0
   -1.8623   21.0541   -2.0486 C   0  0  0  0  0  0  0  0  0  0  0  0
   -1.5937   22.0571   -2.9715 C   0  0  0  0  0  0  0  0  0  0  0  0
   -0.3367   22.6442   -3.0042 C   0  0  0  0  0  0  0  0  0  0  0  0
    0.6558   22.2338   -2.1205 C   0  0  0  0  0  0  0  0  0  0  0  0
   -3.2065   20.4059   -1.9923 C   0  0  0  0  0  0  0  0  0  0  0  0
   -3.8957   20.4503   -0.9372 O   0  0  0  0  0  0  0  0  0  0  0  0
   -3.6561   19.8122   -3.0084 O   0  0  0  0  0  0  0  0  0  0  0  0
   -3.1467   19.7772   -3.7941 H   0  0  0  0  0  0  0  0  0  0  0  0
    4.7044   21.1804    1.1425 C   0  0  0  0  0  0  0  0  0  0  0  0
    4.6986   22.5526    1.1830 O   0  0  0  0  0  0  0  0  0  0  0  0
    5.2829   20.6684    2.4228 C   0  0  0  0  0  0  0  0  0  0  0  0
    6.6491   20.8185    2.6309 C   0  0  0  0  0  0  0  0  0  0  0  0
    7.2471   20.3731    3.7976 C   0  0  0  0  0  0  0  0  0  0  0  0
    6.4674   19.7672    4.7731 C   0  0  0  0  0  0  0  0  0  0  0  0
    5.0998   19.6104    4.5805 C   0  0  0  0  0  0  0  0  0  0  0  0
    4.5035   20.0620    3.4054 C   0  0  0  0  0  0  0  0  0  0  0  0
    8.7177   20.5510    3.9739 C   0  0  0  0  0  0  0  0  0  0  0  0
    8.9913   20.5781    5.2742 F   0  0  0  0  0  0  0  0  0  0  0  0
    9.3829   19.5569    3.3915 F   0  0  0  0  0  0  0  0  0  0  0  0
    9.0811   21.7031    3.4233 F   0  0  0  0  0  0  0  0  0  0  0  0
 23 22  2  0  0  0
 23 24  1  0  0  0
 22 21  1  0  0  0
 26 25  2  0  0  0
 24 19  2  0  0  0
 21 25  1  0  0  0
 21 20  2  0  0  0
 25 27  1  0  0  0
 19 20  1  0  0  0
 19  2  1  0  0  0
  4  3  2  0  0  0
  2  3  1  0  0  0
  2  1  1  0  0  0
  3  5  1  0  0  0
  1  7  1  0  0  0
  1 14  1  0  0  0
  5  7  2  0  0  0
  5  6  1  0  0  0
  7 29  1  0  0  0
 14 10  2  0  0  0
 14 13  1  0  0  0
 30 29  2  0  0  0
 10  9  1  0  0  0
 29 31  1  0  0  0
 15 16  1  0  0  0
 13 12  2  0  0  0
 17 16  1  0  0  0
 31 32  2  0  0  0
 31 36  1  0  0  0
  9 16  1  0  0  0
  9 11  2  0  0  0
 32 33  1  0  0  0
 16 18  1  0  0  0
 40 37  1  0  0  0
 12 11  1  0  0  0
 38 37  1  0  0  0
 36 35  2  0  0  0
 33 37  1  0  0  0
 33 34  2  0  0  0
 37 39  1  0  0  0
 35 34  1  0  0  0
 27 28  1  0  0  0
  6  8  1  0  0  0
M  END
> <minimizedAffinity>
-9.41814

$$$$
4IBJ_1D9_A_401


 40 43  0  0  0  0  0  0  0  0999 V2000
    2.1483   21.0207    1.6350 C   0  0  0  0  0  0  0  0  0  0  0  0
    3.3776   20.4565    1.5438 N   0  0  0  0  0  0  0  0  0  0  0  0
    3.3559   19.5250    0.5830 C   0  0  0  0  0  0  0  0  0  0  0  0
    4.4295   18.7554    0.2003 O   0  0  0  0  0  0  0  0  0  0  0  0
    2.0831   19.4562    0.0474 C   0  0  0  0  0  0  0  0  0  0  0  0
    1.6637   18.6058   -0.9518 O   0  0  0  0  0  0  0  0  0  0  0  0
    1.2908   20.3840    0.7261 C   0  0  0  0  0  0  0  0  0  0  0  0
    2.2721   18.0148   -1.3499 H   0  0  0  0  0  0  0  0  0  0  0  0
    1.0649   24.1839    3.3546 C   0  0  0  0  0  0  0  0  0  0  0  0
    1.2849   22.8490    3.0651 C   0  0  0  0  0  0  0  0  0  0  0  0
    1.4856   25.1578    2.4581 C   0  0  0  0  0  0  0  0  0  0  0  0
    2.1273   24.7974    1.2797 C   0  0  0  0  0  0  0  0  0  0  0  0
    2.3456   23.4546    1.0004 C   0  0  0  0  0  0  0  0  0  0  0  0
    1.9101   22.4763    1.8880 C   0  0  0  0  0  0  0  0  0  0  0  0
   -0.9413   24.6692    4.3924 F   0  0  0  0  0  0  0  0  0  0  0  0
    0.3625   24.5518    4.6231 C   0  0  0  0  0  0  0  0  0  0  0  0
    0.5479   23.6409    5.5740 F   0  0  0  0  0  0  0  0  0  0  0  0
    0.8341   25.7204    5.0316 F   0  0  0  0  0  0  0  0  0  0  0  0
    4.4615   20.4815    2.4985 C   0  0  0  0  0  0  0  0  0  0  0  0
    4.4306   19.6050    3.5752 C   0  0  0  0  0  0  0  0  0  0  0  0
    5.4382   19.6129    4.5321 C   0  0  0  0  0  0  0  0  0  0  0  0
    6.4896   20.5131    4.4129 C   0  0  0  0  0  0  0  0  0  0  0  0
    6.5232   21.3948    3.3419 C   0  0  0  0  0  0  0  0  0  0  0  0
    5.5106   21.3842    2.3885 C   0  0  0  0  0  0  0  0  0  0  0  0
    5.3779   18.6534    5.6749 C   0  0  0  0  0  0  0  0  0  0  0  0
    6.0645   17.5959    5.6606 O   0  0  0  0  0  0  0  0  0  0  0  0
    4.6368   18.9046    6.6622 O   0  0  0  0  0  0  0  0  0  0  0  0
    4.1252   19.6895    6.6762 H   0  0  0  0  0  0  0  0  0  0  0  0
   -0.1786   20.1976    0.9338 C   0  0  0  0  0  0  0  0  0  0  0  0
   -0.6107   21.0057    1.9560 O   0  0  0  0  0  0  0  0  0  0  0  0
   -0.9851   20.5024   -0.2879 C   0  0  0  0  0  0  0  0  0  0  0  0
   -0.3844   21.2381   -1.3029 C   0  0  0  0  0  0  0  0  0  0  0  0
   -1.0727   21.5486   -2.4635 C   0  0  0  0  0  0  0  0  0  0  0  0
   -2.3835   21.1172   -2.6129 C   0  0  0  0  0  0  0  0  0  0  0  0
   -2.9981   20.3799   -1.6075 C   0  0  0  0  0  0  0  0  0  0  0  0
   -2.3000   20.0691   -0.4429 C   0  0  0  0  0  0  0  0  0  0  0  0
   -0.3884   22.3453   -3.5230 C   0  0  0  0  0  0  0  0  0  0  0  0
   -1.2585   23.2088   -4.0362 F   0  0  0  0  0  0  0  0  0  0  0  0
    0.6543   22.9989   -3.0174 F   0  0  0  0  0  0  0  0  0  0  0  0
    0.0307   21.5227   -4.4770 F   0  0  0  0  0  0  0  0  0  0  0  0
 23 22  2  0  0  0
 23 24  1  0  0  0
 22 21  1  0  0  0
 26 25  2  0  0  0
 24 19  2  0  0  0
 21 25  1  0  0  0
 21 20  2  0  0  0
 25 27  1  0  0  0
 19 20  1  0  0  0
 19  2  1  0  0  0
  4  3  2  0  0  0
  2  3  1  0  0  0
  2  1  1  0  0  0
  3  5  1  0  0  0
  1  7  1  0  0  0
  1 14  1  0  0  0
  5  7  2  0  0  0
  5  6  1  0  0  0
  7 29  1  0  0  0
 14 10  2  0  0  0
 14 13  1  0  0  0
 30 29  2  0  0  0
 10  9  1  0  0  0
 29 31  1  0  0  0
 15 16  1  0  0  0
 13 12  2  0  0  0
 17 16  1  0  0  0
 31 32  2  0  0  0
 31 36  1  0  0  0
  9 16  1  0  0  0
  9 11  2  0  0  0
 32 33  1  0  0  0
 16 18  1  0  0  0
 40 37  1  0  0  0
 12 11  1  0  0  0
 38 37  1  0  0  0
 36 35  2  0  0  0
 33 37  1  0  0  0
 33 34  2  0  0  0
 37 39  1  0  0  0
 35 34  1  0  0  0
 27 28  1  0  0  0
  6  8  1  0  0  0
M  END
> <minimizedAffinity>
-9.11088

$$$$
4IBJ_1D9_A_401


 40 43  0  0  0  0  0  0  0  0999 V2000
    5.4956   19.3708    3.5112 C   0  0  0  0  0  0  0  0  0  0  0  0
    6.4401   19.1184    4.4504 N   0  0  0  0  0  0  0  0  0  0  0  0
    7.3551   20.0946    4.4170 C   0  0  0  0  0  0  0  0  0  0  0  0
    8.4549   20.1788    5.2384 O   0  0  0  0  0  0  0  0  0  0  0  0
    7.0216   20.9943    3.4216 C   0  0  0  0  0  0  0  0  0  0  0  0
    7.7297   22.1228    3.0718 O   0  0  0  0  0  0  0  0  0  0  0  0
    5.8524   20.5337    2.8132 C   0  0  0  0  0  0  0  0  0  0  0  0
    8.5073   22.3523    3.5415 H   0  0  0  0  0  0  0  0  0  0  0  0
    1.8956   19.9314    4.4401 C   0  0  0  0  0  0  0  0  0  0  0  0
    3.2563   20.1119    4.2659 C   0  0  0  0  0  0  0  0  0  0  0  0
    1.3048   18.7414    4.0350 C   0  0  0  0  0  0  0  0  0  0  0  0
    2.0716   17.7388    3.4545 C   0  0  0  0  0  0  0  0  0  0  0  0
    3.4361   17.9316    3.2818 C   0  0  0  0  0  0  0  0  0  0  0  0
    4.0335   19.1152    3.7022 C   0  0  0  0  0  0  0  0  0  0  0  0
   -0.2059   20.7425    4.9534 F   0  0  0  0  0  0  0  0  0  0  0  0
    1.0886   21.0181    5.0771 C   0  0  0  0  0  0  0  0  0  0  0  0
    1.3748   21.1555    6.3684 F   0  0  0  0  0  0  0  0  0  0  0  0
    1.3497   22.1514    4.4428 F   0  0  0  0  0  0  0  0  0  0  0  0
    6.7325   17.8800    5.1344 C   0  0  0  0  0  0  0  0  0  0  0  0
    6.3503   17.7375    6.4618 C   0  0  0  0  0  0  0  0  0  0  0  0
    6.6351   16.5741    7.1663 C   0  0  0  0  0  0  0  0  0  0  0  0
    7.3156   15.5400    6.5357 C   0  0  0  0  0  0  0  0  0  0  0  0
    7.7045   15.6787    5.2108 C   0  0  0  0  0  0  0  0  0  0  0  0
    7.4190   16.8464    4.5113 C   0  0  0  0  0  0  0  0  0  0  0  0
    6.2053   16.4505    8.5912 C   0  0  0  0  0  0  0  0  0  0  0  0
    6.9954   15.9941    9.4615 O   0  0  0  0  0  0  0  0  0  0  0  0
    5.0447   16.8079    8.9261 O   0  0  0  0  0  0  0  0  0  0  0  0
    4.4549   17.1476    8.2821 H   0  0  0  0  0  0  0  0  0  0  0  0
    5.5296   20.7933    1.3761 C   0  0  0  0  0  0  0  0  0  0  0  0
    5.7105   19.6465    0.6435 O   0  0  0  0  0  0  0  0  0  0  0  0
    4.1291   21.2749    1.1692 C   0  0  0  0  0  0  0  0  0  0  0  0
    3.8300   22.5878    1.5142 C   0  0  0  0  0  0  0  0  0  0  0  0
    2.5549   23.0990    1.3414 C   0  0  0  0  0  0  0  0  0  0  0  0
    1.5613   22.2848    0.8154 C   0  0  0  0  0  0  0  0  0  0  0  0
    1.8445   20.9699    0.4647 C   0  0  0  0  0  0  0  0  0  0  0  0
    3.1297   20.4618    0.6393 C   0  0  0  0  0  0  0  0  0  0  0  0
    2.2798   24.5124    1.7312 C   0  0  0  0  0  0  0  0  0  0  0  0
    1.5103   25.0692    0.8017 F   0  0  0  0  0  0  0  0  0  0  0  0
    1.6708   24.5622    2.9130 F   0  0  0  0  0  0  0  0  0  0  0  0
    3.4302   25.1709    1.8030 F   0  0  0  0  0  0  0  0  0  0  0  0
 23 22  2  0  0  0
 23 24  1  0  0  0
 22 21  1  0  0  0
 26 25  2  0  0  0
 24 19  2  0  0  0
 21 25  1  0  0  0
 21 20  2  0  0  0
 25 27  1  0  0  0
 19 20  1  0  0  0
 19  2  1  0  0  0
  4  3  2  0  0  0
  2  3  1  0  0  0
  2  1  1  0  0  0
  3  5  1  0  0  0
  1  7  1  0  0  0
  1 14  1  0  0  0
  5  7  2  0  0  0
  5  6  1  0  0  0
  7 29  1  0  0  0
 14 10  2  0  0  0
 14 13  1  0  0  0
 30 29  2  0  0  0
 10  9  1  0  0  0
 29 31  1  0  0  0
 15 16  1  0  0  0
 13 12  2  0  0  0
 17 16  1  0  0  0
 31 32  2  0  0  0
 31 36  1  0  0  0
  9 16  1  0  0  0
  9 11  2  0  0  0
 32 33  1  0  0  0
 16 18  1  0  0  0
 40 37  1  0  0  0
 12 11  1  0  0  0
 38 37  1  0  0  0
 36 35  2  0  0  0
 33 37  1  0  0  0
 33 34  2  0  0  0
 37 39  1  0  0  0
 35 34  1  0  0  0
 27 28  1  0  0  0
  6  8  1  0  0  0
M  END
> <minimizedAffinity>
-9.04265

$$$$
4IBJ_1D9_A_401


 40 43  0  0  0  0  0  0  0  0999 V2000
    1.5509   20.9117    0.8615 C   0  0  0  0  0  0  0  0  0  0  0  0
    2.2761   22.0211    1.1463 N   0  0  0  0  0  0  0  0  0  0  0  0
    3.5752   21.6989    1.1525 C   0  0  0  0  0  0  0  0  0  0  0  0
    4.6082   22.5750    1.3907 O   0  0  0  0  0  0  0  0  0  0  0  0
    3.7081   20.3478    0.8913 C   0  0  0  0  0  0  0  0  0  0  0  0
    4.8890   19.6412    0.8313 O   0  0  0  0  0  0  0  0  0  0  0  0
    2.4245   19.8224    0.7308 C   0  0  0  0  0  0  0  0  0  0  0  0
    5.7062   20.0833    0.9522 H   0  0  0  0  0  0  0  0  0  0  0  0
   -0.7078   21.5187   -2.0824 C   0  0  0  0  0  0  0  0  0  0  0  0
    0.3901   21.5178   -1.2405 C   0  0  0  0  0  0  0  0  0  0  0  0
   -1.8801   20.8917   -1.6803 C   0  0  0  0  0  0  0  0  0  0  0  0
   -1.9516   20.2631   -0.4433 C   0  0  0  0  0  0  0  0  0  0  0  0
   -0.8426   20.2658    0.3927 C   0  0  0  0  0  0  0  0  0  0  0  0
    0.3272   20.9078    0.0001 C   0  0  0  0  0  0  0  0  0  0  0  0
    0.4593   22.9927   -3.4251 F   0  0  0  0  0  0  0  0  0  0  0  0
   -0.6151   22.2103   -3.4057 C   0  0  0  0  0  0  0  0  0  0  0  0
   -0.5319   21.3450   -4.4120 F   0  0  0  0  0  0  0  0  0  0  0  0
   -1.6965   22.9607   -3.5554 F   0  0  0  0  0  0  0  0  0  0  0  0
    1.8394   23.2644    1.7383 C   0  0  0  0  0  0  0  0  0  0  0  0
    0.9878   23.2256    2.8345 C   0  0  0  0  0  0  0  0  0  0  0  0
    0.5216   24.3970    3.4188 C   0  0  0  0  0  0  0  0  0  0  0  0
    0.9090   25.6247    2.8968 C   0  0  0  0  0  0  0  0  0  0  0  0
    1.7558   25.6697    1.7983 C   0  0  0  0  0  0  0  0  0  0  0  0
    2.2173   24.4941    1.2160 C   0  0  0  0  0  0  0  0  0  0  0  0
   -0.3888   24.3205    4.6002 C   0  0  0  0  0  0  0  0  0  0  0  0
   -1.6402   24.3125    4.4454 O   0  0  0  0  0  0  0  0  0  0  0  0
    0.0983   24.2608    5.7605 O   0  0  0  0  0  0  0  0  0  0  0  0
    1.0277   24.2665    5.8793 H   0  0  0  0  0  0  0  0  0  0  0  0
    2.0772   18.4098    1.0784 C   0  0  0  0  0  0  0  0  0  0  0  0
    3.1419   17.5875    0.8049 O   0  0  0  0  0  0  0  0  0  0  0  0
    1.6986   18.2373    2.5147 C   0  0  0  0  0  0  0  0  0  0  0  0
    2.6741   18.4566    3.4804 C   0  0  0  0  0  0  0  0  0  0  0  0
    2.3881   18.3210    4.8283 C   0  0  0  0  0  0  0  0  0  0  0  0
    1.1059   17.9600    5.2185 C   0  0  0  0  0  0  0  0  0  0  0  0
    0.1190   17.7380    4.2652 C   0  0  0  0  0  0  0  0  0  0  0  0
    0.4123   17.8775    2.9106 C   0  0  0  0  0  0  0  0  0  0  0  0
    3.4689   18.5613    5.8281 C   0  0  0  0  0  0  0  0  0  0  0  0
    2.9787   19.3021    6.8165 F   0  0  0  0  0  0  0  0  0  0  0  0
    3.9261   17.4084    6.3096 F   0  0  0  0  0  0  0  0  0  0  0  0
    4.4629   19.2150    5.2389 F   0  0  0  0  0  0  0  0  0  0  0  0
 23 22  2  0  0  0
 23 24  1  0  0  0
 22 21  1  0  0  0
 26 25  2  0  0  0
 24 19  2  0  0  0
 21 25  1  0  0  0
 21 20  2  0  0  0
 25 27  1  0  0  0
 19 20  1  0  0  0
 19  2  1  0  0  0
  4  3  2  0  0  0
  2  3  1  0  0  0
  2  1  1  0  0  0
  3  5  1  0  0  0
  1  7  1  0  0  0
  1 14  1  0  0  0
  5  7  2  0  0  0
  5  6  1  0  0  0
  7 29  1  0  0  0
 14 10  2  0  0  0
 14 13  1  0  0  0
 30 29  2  0  0  0
 10  9  1  0  0  0
 29 31  1  0  0  0
 15 16  1  0  0  0
 13 12  2  0  0  0
 17 16  1  0  0  0
 31 32  2  0  0  0
 31 36  1  0  0  0
  9 16  1  0  0  0
  9 11  2  0  0  0
 32 33  1  0  0  0
 16 18  1  0  0  0
 40 37  1  0  0  0
 12 11  1  0  0  0
 38 37  1  0  0  0
 36 35  2  0  0  0
 33 37  1  0  0  0
 33 34  2  0  0  0
 37 39  1  0  0  0
 35 34  1  0  0  0
 27 28  1  0  0  0
  6  8  1  0  0  0
M  END
> <minimizedAffinity>
-9.03343

$$$$
4IBJ_1D9_A_401


 40 43  0  0  0  0  0  0  0  0999 V2000
    0.5274   20.9771    2.8449 C   0  0  0  0  0  0  0  0  0  0  0  0
   -0.3016   20.1602    2.1497 N   0  0  0  0  0  0  0  0  0  0  0  0
   -0.2639   18.9391    2.6961 C   0  0  0  0  0  0  0  0  0  0  0  0
   -0.9887   17.8537    2.2625 O   0  0  0  0  0  0  0  0  0  0  0  0
    0.6243   18.9440    3.7557 C   0  0  0  0  0  0  0  0  0  0  0  0
    0.9459   17.8694    4.5551 O   0  0  0  0  0  0  0  0  0  0  0  0
    1.1609   20.2296    3.8482 C   0  0  0  0  0  0  0  0  0  0  0  0
    0.5305   17.0412    4.4162 H   0  0  0  0  0  0  0  0  0  0  0  0
    0.7346   24.7306    2.7745 C   0  0  0  0  0  0  0  0  0  0  0  0
    0.9893   23.3910    2.5403 C   0  0  0  0  0  0  0  0  0  0  0  0
   -0.3021   25.0924    3.6251 C   0  0  0  0  0  0  0  0  0  0  0  0
   -1.0827   24.1182    4.2348 C   0  0  0  0  0  0  0  0  0  0  0  0
   -0.8201   22.7765    3.9904 C   0  0  0  0  0  0  0  0  0  0  0  0
    0.2283   22.4107    3.1528 C   0  0  0  0  0  0  0  0  0  0  0  0
    2.2293   25.2241    1.0835 F   0  0  0  0  0  0  0  0  0  0  0  0
    1.5929   25.7648    2.1176 C   0  0  0  0  0  0  0  0  0  0  0  0
    0.8786   26.8001    1.6860 F   0  0  0  0  0  0  0  0  0  0  0  0
    2.4864   26.1817    3.0025 F   0  0  0  0  0  0  0  0  0  0  0  0
   -0.8577   20.3415    0.8288 C   0  0  0  0  0  0  0  0  0  0  0  0
   -0.0734   20.9248   -0.1577 C   0  0  0  0  0  0  0  0  0  0  0  0
   -0.5765   21.1428   -1.4345 C   0  0  0  0  0  0  0  0  0  0  0  0
   -1.8840   20.7763   -1.7280 C   0  0  0  0  0  0  0  0  0  0  0  0
   -2.6742   20.1977   -0.7447 C   0  0  0  0  0  0  0  0  0  0  0  0
   -2.1662   19.9842    0.5322 C   0  0  0  0  0  0  0  0  0  0  0  0
    0.2950   21.7672   -2.4742 C   0  0  0  0  0  0  0  0  0  0  0  0
    0.3466   21.2878   -3.6393 O   0  0  0  0  0  0  0  0  0  0  0  0
    0.9820   22.7828   -2.1848 O   0  0  0  0  0  0  0  0  0  0  0  0
    0.9461   23.1417   -1.3200 H   0  0  0  0  0  0  0  0  0  0  0  0
    2.5390   20.4979    4.3639 C   0  0  0  0  0  0  0  0  0  0  0  0
    2.9116   19.5051    5.2357 O   0  0  0  0  0  0  0  0  0  0  0  0
    3.5627   20.5870    3.2776 C   0  0  0  0  0  0  0  0  0  0  0  0
    4.8961   20.7295    3.6437 C   0  0  0  0  0  0  0  0  0  0  0  0
    5.8946   20.8106    2.6879 C   0  0  0  0  0  0  0  0  0  0  0  0
    5.5556   20.7488    1.3433 C   0  0  0  0  0  0  0  0  0  0  0  0
    4.2269   20.6056    0.9609 C   0  0  0  0  0  0  0  0  0  0  0  0
    3.2269   20.5228    1.9271 C   0  0  0  0  0  0  0  0  0  0  0  0
    7.3110   20.9686    3.1286 C   0  0  0  0  0  0  0  0  0  0  0  0
    7.4990   22.2255    3.5175 F   0  0  0  0  0  0  0  0  0  0  0  0
    7.5849   20.1382    4.1312 F   0  0  0  0  0  0  0  0  0  0  0  0
    8.1128   20.6996    2.1053 F   0  0  0  0  0  0  0  0  0  0  0  0
 23 22  2  0  0  0
 23 24  1  0  0  0
 22 21  1  0  0  0
 26 25  2  0  0  0
 24 19  2  0  0  0
 21 25  1  0  0  0
 21 20  2  0  0  0
 25 27  1  0  0  0
 19 20  1  0  0  0
 19  2  1  0  0  0
  4  3  2  0  0  0
  2  3  1  0  0  0
  2  1  1  0  0  0
  3  5  1  0  0  0
  1  7  1  0  0  0
  1 14  1  0  0  0
  5  7  2  0  0  0
  5  6  1  0  0  0
  7 29  1  0  0  0
 14 10  2  0  0  0
 14 13  1  0  0  0
 30 29  2  0  0  0
 10  9  1  0  0  0
 29 31  1  0  0  0
 15 16  1  0  0  0
 13 12  2  0  0  0
 17 16  1  0  0  0
 31 32  2  0  0  0
 31 36  1  0  0  0
  9 16  1  0  0  0
  9 11  2  0  0  0
 32 33  1  0  0  0
 16 18  1  0  0  0
 40 37  1  0  0  0
 12 11  1  0  0  0
 38 37  1  0  0  0
 36 35  2  0  0  0
 33 37  1  0  0  0
 33 34  2  0  0  0
 37 39  1  0  0  0
 35 34  1  0  0  0
 27 28  1  0  0  0
  6  8  1  0  0  0
M  END
> <minimizedAffinity>
-8.91444

$$$$
4IBJ_1D9_A_401


 40 43  0  0  0  0  0  0  0  0999 V2000
    2.2270   21.2976    0.6793 C   0  0  0  0  0  0  0  0  0  0  0  0
    1.5099   20.5953   -0.2321 N   0  0  0  0  0  0  0  0  0  0  0  0
    2.1879   19.4877   -0.5555 C   0  0  0  0  0  0  0  0  0  0  0  0
    1.7610   18.5274   -1.4426 O   0  0  0  0  0  0  0  0  0  0  0  0
    3.3848   19.4708    0.1364 C   0  0  0  0  0  0  0  0  0  0  0  0
    4.3597   18.5011    0.0558 O   0  0  0  0  0  0  0  0  0  0  0  0
    3.4403   20.6327    0.9086 C   0  0  0  0  0  0  0  0  0  0  0  0
    4.2316   17.7524   -0.4928 H   0  0  0  0  0  0  0  0  0  0  0  0
    0.8963   21.9836    4.1283 C   0  0  0  0  0  0  0  0  0  0  0  0
    1.4276   21.3433    3.0228 C   0  0  0  0  0  0  0  0  0  0  0  0
    0.5675   23.3306    4.0476 C   0  0  0  0  0  0  0  0  0  0  0  0
    0.7737   24.0343    2.8675 C   0  0  0  0  0  0  0  0  0  0  0  0
    1.3103   23.3825    1.7648 C   0  0  0  0  0  0  0  0  0  0  0  0
    1.6244   22.0295    1.8372 C   0  0  0  0  0  0  0  0  0  0  0  0
    1.0854   19.9547    5.2170 F   0  0  0  0  0  0  0  0  0  0  0  0
    0.6714   21.2064    5.3866 C   0  0  0  0  0  0  0  0  0  0  0  0
    1.3219   21.7356    6.4186 F   0  0  0  0  0  0  0  0  0  0  0  0
   -0.6289   21.1990    5.6397 F   0  0  0  0  0  0  0  0  0  0  0  0
    0.4164   21.0397   -1.0651 C   0  0  0  0  0  0  0  0  0  0  0  0
   -0.8155   20.4087   -0.9522 C   0  0  0  0  0  0  0  0  0  0  0  0
   -1.8872   20.7855   -1.7524 C   0  0  0  0  0  0  0  0  0  0  0  0
   -1.7235   21.8050   -2.6819 C   0  0  0  0  0  0  0  0  0  0  0  0
   -0.4933   22.4358   -2.8027 C   0  0  0  0  0  0  0  0  0  0  0  0
    0.5766   22.0527   -2.0009 C   0  0  0  0  0  0  0  0  0  0  0  0
   -3.2004   20.0904   -1.6021 C   0  0  0  0  0  0  0  0  0  0  0  0
   -4.2230   20.7264   -1.2283 O   0  0  0  0  0  0  0  0  0  0  0  0
   -3.2870   18.8590   -1.8537 O   0  0  0  0  0  0  0  0  0  0  0  0
   -2.5292   18.3832   -2.1317 H   0  0  0  0  0  0  0  0  0  0  0  0
    4.7257   21.3107    1.2623 C   0  0  0  0  0  0  0  0  0  0  0  0
    4.5272   22.6659    1.3552 O   0  0  0  0  0  0  0  0  0  0  0  0
    5.3075   20.8249    2.5512 C   0  0  0  0  0  0  0  0  0  0  0  0
    4.5556   19.9425    3.3182 C   0  0  0  0  0  0  0  0  0  0  0  0
    5.0385   19.4489    4.5184 C   0  0  0  0  0  0  0  0  0  0  0  0
    6.2937   19.8436    4.9603 C   0  0  0  0  0  0  0  0  0  0  0  0
    7.0583   20.7247    4.2045 C   0  0  0  0  0  0  0  0  0  0  0  0
    6.5678   21.2166    2.9971 C   0  0  0  0  0  0  0  0  0  0  0  0
    4.1932   18.5085    5.3099 C   0  0  0  0  0  0  0  0  0  0  0  0
    4.9588   17.5165    5.7529 F   0  0  0  0  0  0  0  0  0  0  0  0
    3.6279   19.1379    6.3367 F   0  0  0  0  0  0  0  0  0  0  0  0
    3.2450   18.0151    4.5225 F   0  0  0  0  0  0  0  0  0  0  0  0
 23 22  2  0  0  0
 23 24  1  0  0  0
 22 21  1  0  0  0
 26 25  2  0  0  0
 24 19  2  0  0  0
 21 25  1  0  0  0
 21 20  2  0  0  0
 25 27  1  0  0  0
 19 20  1  0  0  0
 19  2  1  0  0  0
  4  3  2  0  0  0
  2  3  1  0  0  0
  2  1  1  0  0  0
  3  5  1  0  0  0
  1  7  1  0  0  0
  1 14  1  0  0  0
  5  7  2  0  0  0
  5  6  1  0  0  0
  7 29  1  0  0  0
 14 10  2  0  0  0
 14 13  1  0  0  0
 30 29  2  0  0  0
 10  9  1  0  0  0
 29 31  1  0  0  0
 15 16  1  0  0  0
 13 12  2  0  0  0
 17 16  1  0  0  0
 31 32  2  0  0  0
 31 36  1  0  0  0
  9 16  1  0  0  0
  9 11  2  0  0  0
 32 33  1  0  0  0
 16 18  1  0  0  0
 40 37  1  0  0  0
 12 11  1  0  0  0
 38 37  1  0  0  0
 36 35  2  0  0  0
 33 37  1  0  0  0
 33 34  2  0  0  0
 37 39  1  0  0  0
 35 34  1  0  0  0
 27 28  1  0  0  0
  6  8  1  0  0  0
M  END
> <minimizedAffinity>
-8.84731

$$$$
4IBJ_1D9_A_401


 40 43  0  0  0  0  0  0  0  0999 V2000
    1.6017   21.5558    1.1130 C   0  0  0  0  0  0  0  0  0  0  0  0
    2.6323   20.6819    1.2233 N   0  0  0  0  0  0  0  0  0  0  0  0
    2.6790   19.9267    0.1193 C   0  0  0  0  0  0  0  0  0  0  0  0
    3.6041   18.9394   -0.1273 O   0  0  0  0  0  0  0  0  0  0  0  0
    1.6460   20.2923   -0.7238 C   0  0  0  0  0  0  0  0  0  0  0  0
    1.3559   19.7322   -1.9483 O   0  0  0  0  0  0  0  0  0  0  0  0
    0.9300   21.3118   -0.0937 C   0  0  0  0  0  0  0  0  0  0  0  0
    1.8976   19.0489   -2.2912 H   0  0  0  0  0  0  0  0  0  0  0  0
    0.8141   24.6548    3.0911 C   0  0  0  0  0  0  0  0  0  0  0  0
    0.7897   23.3610    2.6013 C   0  0  0  0  0  0  0  0  0  0  0  0
    1.7187   25.5690    2.5666 C   0  0  0  0  0  0  0  0  0  0  0  0
    2.5974   25.1889    1.5599 C   0  0  0  0  0  0  0  0  0  0  0  0
    2.5663   23.8869    1.0776 C   0  0  0  0  0  0  0  0  0  0  0  0
    1.6499   22.9739    1.5886 C   0  0  0  0  0  0  0  0  0  0  0  0
    0.5259   25.4488    5.2414 F   0  0  0  0  0  0  0  0  0  0  0  0
   -0.1473   25.0483    4.1675 C   0  0  0  0  0  0  0  0  0  0  0  0
   -0.9529   26.0315    3.7769 F   0  0  0  0  0  0  0  0  0  0  0  0
   -0.8695   23.9839    4.4846 F   0  0  0  0  0  0  0  0  0  0  0  0
    3.3549   20.2745    2.4059 C   0  0  0  0  0  0  0  0  0  0  0  0
    4.6243   20.7911    2.6307 C   0  0  0  0  0  0  0  0  0  0  0  0
    5.3659   20.4063    3.7410 C   0  0  0  0  0  0  0  0  0  0  0  0
    4.8324   19.4886    4.6372 C   0  0  0  0  0  0  0  0  0  0  0  0
    3.5665   18.9651    4.4152 C   0  0  0  0  0  0  0  0  0  0  0  0
    2.8297   19.3519    3.3008 C   0  0  0  0  0  0  0  0  0  0  0  0
    6.7257   20.9848    3.9565 C   0  0  0  0  0  0  0  0  0  0  0  0
    7.4450   20.5914    4.9146 O   0  0  0  0  0  0  0  0  0  0  0  0
    7.1581   21.8712    3.1727 O   0  0  0  0  0  0  0  0  0  0  0  0
    6.6264   22.1659    2.4597 H   0  0  0  0  0  0  0  0  0  0  0  0
   -0.5347   21.5260   -0.3077 C   0  0  0  0  0  0  0  0  0  0  0  0
   -0.7710   21.8511   -1.6203 O   0  0  0  0  0  0  0  0  0  0  0  0
   -1.3579   20.3277    0.0420 C   0  0  0  0  0  0  0  0  0  0  0  0
   -2.0884   19.7163   -0.9704 C   0  0  0  0  0  0  0  0  0  0  0  0
   -2.8654   18.5989   -0.7159 C   0  0  0  0  0  0  0  0  0  0  0  0
   -2.9140   18.0834    0.5719 C   0  0  0  0  0  0  0  0  0  0  0  0
   -2.1888   18.6826    1.5952 C   0  0  0  0  0  0  0  0  0  0  0  0
   -1.4074   19.8056    1.3326 C   0  0  0  0  0  0  0  0  0  0  0  0
   -3.6364   17.9803   -1.8332 C   0  0  0  0  0  0  0  0  0  0  0  0
   -3.6427   18.8200   -2.8633 F   0  0  0  0  0  0  0  0  0  0  0  0
   -3.0892   16.8230   -2.1953 F   0  0  0  0  0  0  0  0  0  0  0  0
   -4.8834   17.7683   -1.4302 F   0  0  0  0  0  0  0  0  0  0  0  0
 23 22  2  0  0  0
 23 24  1  0  0  0
 22 21  1  0  0  0
 26 25  2  0  0  0
 24 19  2  0  0  0
 21 25  1  0  0  0
 21 20  2  0  0  0
 25 27  1  0  0  0
 19 20  1  0  0  0
 19  2  1  0  0  0
  4  3  2  0  0  0
  2  3  1  0  0  0
  2  1  1  0  0  0
  3  5  1  0  0  0
  1  7  1  0  0  0
  1 14  1  0  0  0
  5  7  2  0  0  0
  5  6  1  0  0  0
  7 29  1  0  0  0
 14 10  2  0  0  0
 14 13  1  0  0  0
 30 29  2  0  0  0
 10  9  1  0  0  0
 29 31  1  0  0  0
 15 16  1  0  0  0
 13 12  2  0  0  0
 17 16  1  0  0  0
 31 32  2  0  0  0
 31 36  1  0  0  0
  9 16  1  0  0  0
  9 11  2  0  0  0
 32 33  1  0  0  0
 16 18  1  0  0  0
 40 37  1  0  0  0
 12 11  1  0  0  0
 38 37  1  0  0  0
 36 35  2  0  0  0
 33 37  1  0  0  0
 33 34  2  0  0  0
 37 39  1  0  0  0
 35 34  1  0  0  0
 27 28  1  0  0  0
  6  8  1  0  0  0
M  END
> <minimizedAffinity>
-8.79849

$$$$
