5F1X_ATP_A_501


 39 41  0  0  0  0  0  0  0  0999 V2000
   18.0346   -4.9080    5.7738 C   0  0  0  0  0  0  0  0  0  0  0  0
   17.1020   -5.8247    5.1587 O   0  0  0  0  0  0  0  0  0  0  0  0
   18.6332   -5.6472    6.9661 C   0  0  0  0  0  0  0  0  0  0  0  0
   18.0312   -5.1652    8.1425 O   0  0  0  0  0  0  0  0  0  0  0  0
   18.2180   -7.1044    6.6879 C   0  0  0  0  0  0  0  0  0  0  0  0
   18.1974   -7.8533    7.8834 O   0  0  0  0  0  0  0  0  0  0  0  0
   16.8418   -6.8622    6.0473 C   0  0  0  0  0  0  0  0  0  0  0  0
   17.0677   -5.2521    8.0717 H   0  0  0  0  0  0  0  0  0  0  0  0
   17.6271   -7.4114    8.5319 H   0  0  0  0  0  0  0  0  0  0  0  0
   16.2731   -8.0705    5.3618 N   0  0  0  0  0  0  0  0  0  0  0  0
   16.6898   -8.6447    4.2097 C   0  0  0  0  0  0  0  0  0  0  0  0
   15.9271   -9.7039    3.9622 N   0  0  0  0  0  0  0  0  0  0  0  0
   15.0009   -9.8065    4.9155 C   0  0  0  0  0  0  0  0  0  0  0  0
   13.9329  -10.6895    5.2009 C   0  0  0  0  0  0  0  0  0  0  0  0
   13.6810  -11.7518    4.3377 N   0  0  0  0  0  0  0  0  0  0  0  0
   13.1822  -10.5057    6.2875 N   0  0  0  0  0  0  0  0  0  0  0  0
   13.4181   -9.4959    7.1135 C   0  0  0  0  0  0  0  0  0  0  0  0
   14.4020   -8.6428    6.8972 N   0  0  0  0  0  0  0  0  0  0  0  0
   15.2221   -8.7588    5.8340 C   0  0  0  0  0  0  0  0  0  0  0  0
   14.2406  -11.8796    3.5379 H   0  0  0  0  0  0  0  0  0  0  0  0
   12.9431  -12.3756    4.5270 H   0  0  0  0  0  0  0  0  0  0  0  0
   19.0795   -4.4958    4.7327 C   0  0  0  0  0  0  0  0  0  0  0  0
   18.4630   -3.5968    3.7926 O   0  0  0  0  0  0  0  0  0  0  0  0
   19.1515   -3.0822    2.4618 P   0  0  0  0  0  0  0  0  0  0  0  0
   18.0441   -2.5647    1.6013 O   0  0  0  0  0  0  0  0  0  0  0  0
   19.9437   -4.2328    1.8711 O   0  0  0  0  0  0  0  0  0  0  0  0
   20.3758   -3.9415    1.0530 H   0  0  0  0  0  0  0  0  0  0  0  0
   20.0944   -1.9198    3.0770 O   0  0  0  0  0  0  0  0  0  0  0  0
   20.6475   -0.5376    2.4360 P   0  0  0  0  0  0  0  0  0  0  0  0
   20.6127   -0.5899    0.9094 O   0  0  0  0  0  0  0  0  0  0  0  0
   22.0378   -0.3626    2.9537 O   0  0  0  0  0  0  0  0  0  0  0  0
   22.4152    0.4564    2.5964 H   0  0  0  0  0  0  0  0  0  0  0  0
   19.5911    0.4718    3.0667 O   0  0  0  0  0  0  0  0  0  0  0  0
   19.8294    1.4819    4.2938 P   0  0  0  0  0  0  0  0  0  0  0  0
   20.8018    0.7497    5.1781 O   0  0  0  0  0  0  0  0  0  0  0  0
   20.3622    2.7708    3.6942 O   0  0  0  0  0  0  0  0  0  0  0  0
   18.4939    1.5750    5.0043 O   0  0  0  0  0  0  0  0  0  0  0  0
   20.5220    3.4148    4.4018 H   0  0  0  0  0  0  0  0  0  0  0  0
   18.5720    2.1757    5.7619 H   0  0  0  0  0  0  0  0  0  0  0  0
 34 35  2  0  0  0
 34 36  1  0  0  0
 34 37  1  0  0  0
 34 33  1  0  0  0
 29 30  2  0  0  0
 29 31  1  0  0  0
 29 33  1  0  0  0
 29 28  1  0  0  0
 24 25  2  0  0  0
 24 26  1  0  0  0
 24 28  1  0  0  0
 24 23  1  0  0  0
 23 22  1  0  0  0
 22  1  1  0  0  0
  1  2  1  0  0  0
  1  3  1  0  0  0
  2  7  1  0  0  0
  3  4  1  0  0  0
  3  5  1  0  0  0
  5  6  1  0  0  0
  5  7  1  0  0  0
  7 10  1  0  0  0
 10 11  1  0  0  0
 10 19  1  0  0  0
 11 12  2  0  0  0
 12 13  1  0  0  0
 13 14  1  0  0  0
 13 19  2  0  0  0
 14 15  1  0  0  0
 14 16  2  0  0  0
 16 17  1  0  0  0
 17 18  2  0  0  0
 18 19  1  0  0  0
 36 38  1  0  0  0
 37 39  1  0  0  0
 31 32  1  0  0  0
 26 27  1  0  0  0
  4  8  1  0  0  0
  6  9  1  0  0  0
 15 20  1  0  0  0
 15 21  1  0  0  0
M  END
> <minimizedAffinity>
-12.26232

$$$$
5F1X_ATP_A_501


 39 41  0  0  0  0  0  0  0  0999 V2000
   18.3991   -4.8361    5.3146 C   0  0  0  0  0  0  0  0  0  0  0  0
   17.4256   -5.7632    4.7841 O   0  0  0  0  0  0  0  0  0  0  0  0
   18.9604   -5.4848    6.5757 C   0  0  0  0  0  0  0  0  0  0  0  0
   18.3797   -4.8649    7.6969 O   0  0  0  0  0  0  0  0  0  0  0  0
   18.4779   -6.9410    6.4354 C   0  0  0  0  0  0  0  0  0  0  0  0
   18.4202   -7.5702    7.6969 O   0  0  0  0  0  0  0  0  0  0  0  0
   17.1156   -6.6976    5.7662 C   0  0  0  0  0  0  0  0  0  0  0  0
   17.4133   -4.9134    7.6288 H   0  0  0  0  0  0  0  0  0  0  0  0
   17.8702   -7.0423    8.2967 H   0  0  0  0  0  0  0  0  0  0  0  0
   16.4921   -7.9383    5.1958 N   0  0  0  0  0  0  0  0  0  0  0  0
   16.8883   -8.6435    4.1112 C   0  0  0  0  0  0  0  0  0  0  0  0
   16.0750   -9.6831    3.9595 N   0  0  0  0  0  0  0  0  0  0  0  0
   15.1375   -9.6450    4.9066 C   0  0  0  0  0  0  0  0  0  0  0  0
   14.0242  -10.4416    5.2639 C   0  0  0  0  0  0  0  0  0  0  0  0
   13.7258  -11.5704    4.5064 N   0  0  0  0  0  0  0  0  0  0  0  0
   13.2753  -10.1144    6.3175 N   0  0  0  0  0  0  0  0  0  0  0  0
   13.5554   -9.0406    7.0430 C   0  0  0  0  0  0  0  0  0  0  0  0
   14.5827   -8.2627    6.7563 N   0  0  0  0  0  0  0  0  0  0  0  0
   15.4041   -8.5237    5.7201 C   0  0  0  0  0  0  0  0  0  0  0  0
   14.2844  -11.8041    3.7302 H   0  0  0  0  0  0  0  0  0  0  0  0
   12.9560  -12.1351    4.7468 H   0  0  0  0  0  0  0  0  0  0  0  0
   19.4639   -4.5745    4.2453 C   0  0  0  0  0  0  0  0  0  0  0  0
   19.5987   -3.1524    4.0680 O   0  0  0  0  0  0  0  0  0  0  0  0
   19.5055   -2.4111    2.6710 P   0  0  0  0  0  0  0  0  0  0  0  0
   18.2727   -2.9374    2.0094 O   0  0  0  0  0  0  0  0  0  0  0  0
   20.7988   -2.6649    1.9206 O   0  0  0  0  0  0  0  0  0  0  0  0
   20.7657   -2.2198    1.0594 H   0  0  0  0  0  0  0  0  0  0  0  0
   19.3659   -0.8828    3.1845 O   0  0  0  0  0  0  0  0  0  0  0  0
   20.4826    0.2538    3.4819 P   0  0  0  0  0  0  0  0  0  0  0  0
   21.8784   -0.2377    3.1017 O   0  0  0  0  0  0  0  0  0  0  0  0
   20.3826    0.5682    4.9388 O   0  0  0  0  0  0  0  0  0  0  0  0
   21.0353    1.2481    5.1683 H   0  0  0  0  0  0  0  0  0  0  0  0
   19.9281    1.4047    2.5328 O   0  0  0  0  0  0  0  0  0  0  0  0
   18.3987    1.8686    2.3643 P   0  0  0  0  0  0  0  0  0  0  0  0
   18.5056    3.2874    1.8751 O   0  0  0  0  0  0  0  0  0  0  0  0
   17.7612    0.9038    1.3807 O   0  0  0  0  0  0  0  0  0  0  0  0
   17.8226    1.8748    3.7661 O   0  0  0  0  0  0  0  0  0  0  0  0
   16.8315    1.1459    1.2467 H   0  0  0  0  0  0  0  0  0  0  0  0
   16.8928    2.1490    3.7323 H   0  0  0  0  0  0  0  0  0  0  0  0
 34 35  2  0  0  0
 34 36  1  0  0  0
 34 37  1  0  0  0
 34 33  1  0  0  0
 29 30  2  0  0  0
 29 31  1  0  0  0
 29 33  1  0  0  0
 29 28  1  0  0  0
 24 25  2  0  0  0
 24 26  1  0  0  0
 24 28  1  0  0  0
 24 23  1  0  0  0
 23 22  1  0  0  0
 22  1  1  0  0  0
  1  2  1  0  0  0
  1  3  1  0  0  0
  2  7  1  0  0  0
  3  4  1  0  0  0
  3  5  1  0  0  0
  5  6  1  0  0  0
  5  7  1  0  0  0
  7 10  1  0  0  0
 10 11  1  0  0  0
 10 19  1  0  0  0
 11 12  2  0  0  0
 12 13  1  0  0  0
 13 14  1  0  0  0
 13 19  2  0  0  0
 14 15  1  0  0  0
 14 16  2  0  0  0
 16 17  1  0  0  0
 17 18  2  0  0  0
 18 19  1  0  0  0
 36 38  1  0  0  0
 37 39  1  0  0  0
 31 32  1  0  0  0
 26 27  1  0  0  0
  4  8  1  0  0  0
  6  9  1  0  0  0
 15 20  1  0  0  0
 15 21  1  0  0  0
M  END
> <minimizedAffinity>
-12.00228

$$$$
5F1X_ATP_A_501


 39 41  0  0  0  0  0  0  0  0999 V2000
   18.0655   -4.9291    5.6583 C   0  0  0  0  0  0  0  0  0  0  0  0
   16.8244   -5.6560    5.5176 O   0  0  0  0  0  0  0  0  0  0  0  0
   18.8703   -5.6651    6.7246 C   0  0  0  0  0  0  0  0  0  0  0  0
   18.7952   -4.9381    7.9264 O   0  0  0  0  0  0  0  0  0  0  0  0
   18.1149   -7.0028    6.8377 C   0  0  0  0  0  0  0  0  0  0  0  0
   18.3467   -7.6009    8.0943 O   0  0  0  0  0  0  0  0  0  0  0  0
   16.6780   -6.5073    6.6075 C   0  0  0  0  0  0  0  0  0  0  0  0
   17.8647   -4.8009    8.1636 H   0  0  0  0  0  0  0  0  0  0  0  0
   18.1187   -6.9735    8.7980 H   0  0  0  0  0  0  0  0  0  0  0  0
   15.6940   -7.6092    6.3416 N   0  0  0  0  0  0  0  0  0  0  0  0
   14.5442   -7.8737    7.0040 C   0  0  0  0  0  0  0  0  0  0  0  0
   13.9601   -8.9248    6.4393 N   0  0  0  0  0  0  0  0  0  0  0  0
   14.7282   -9.3680    5.4439 C   0  0  0  0  0  0  0  0  0  0  0  0
   14.6578  -10.4188    4.4993 C   0  0  0  0  0  0  0  0  0  0  0  0
   13.5634  -11.2785    4.5203 N   0  0  0  0  0  0  0  0  0  0  0  0
   15.6276  -10.5774    3.5981 N   0  0  0  0  0  0  0  0  0  0  0  0
   16.6719   -9.7610    3.5731 C   0  0  0  0  0  0  0  0  0  0  0  0
   16.7885   -8.7630    4.4293 N   0  0  0  0  0  0  0  0  0  0  0  0
   15.8501   -8.5163    5.3647 C   0  0  0  0  0  0  0  0  0  0  0  0
   12.8521  -11.1537    5.1894 H   0  0  0  0  0  0  0  0  0  0  0  0
   13.5006  -12.0114    3.8660 H   0  0  0  0  0  0  0  0  0  0  0  0
   18.7666   -4.8834    4.2974 C   0  0  0  0  0  0  0  0  0  0  0  0
   18.4151   -3.6522    3.6396 O   0  0  0  0  0  0  0  0  0  0  0  0
   19.1222   -3.1011    2.3334 P   0  0  0  0  0  0  0  0  0  0  0  0
   18.0286   -2.5462    1.4786 O   0  0  0  0  0  0  0  0  0  0  0  0
   19.9107   -4.2390    1.7140 O   0  0  0  0  0  0  0  0  0  0  0  0
   20.3540   -3.9254    0.9103 H   0  0  0  0  0  0  0  0  0  0  0  0
   20.0685   -1.9676    2.9957 O   0  0  0  0  0  0  0  0  0  0  0  0
   20.6395   -0.5700    2.4060 P   0  0  0  0  0  0  0  0  0  0  0  0
   20.6010   -0.5642    0.8786 O   0  0  0  0  0  0  0  0  0  0  0  0
   22.0330   -0.4338    2.9265 O   0  0  0  0  0  0  0  0  0  0  0  0
   22.4210    0.3928    2.5994 H   0  0  0  0  0  0  0  0  0  0  0  0
   19.5984    0.4293    3.0768 O   0  0  0  0  0  0  0  0  0  0  0  0
   19.8526    1.3884    4.3410 P   0  0  0  0  0  0  0  0  0  0  0  0
   20.5628    2.5773    3.7527 O   0  0  0  0  0  0  0  0  0  0  0  0
   18.4882    1.6925    4.9331 O   0  0  0  0  0  0  0  0  0  0  0  0
   20.8171    0.6325    5.2329 O   0  0  0  0  0  0  0  0  0  0  0  0
   18.5921    2.2722    5.7039 H   0  0  0  0  0  0  0  0  0  0  0  0
   21.0124    1.1632    6.0210 H   0  0  0  0  0  0  0  0  0  0  0  0
 34 35  2  0  0  0
 34 36  1  0  0  0
 34 37  1  0  0  0
 34 33  1  0  0  0
 29 30  2  0  0  0
 29 31  1  0  0  0
 29 33  1  0  0  0
 29 28  1  0  0  0
 24 25  2  0  0  0
 24 26  1  0  0  0
 24 28  1  0  0  0
 24 23  1  0  0  0
 23 22  1  0  0  0
 22  1  1  0  0  0
  1  2  1  0  0  0
  1  3  1  0  0  0
  2  7  1  0  0  0
  3  4  1  0  0  0
  3  5  1  0  0  0
  5  6  1  0  0  0
  5  7  1  0  0  0
  7 10  1  0  0  0
 10 11  1  0  0  0
 10 19  1  0  0  0
 11 12  2  0  0  0
 12 13  1  0  0  0
 13 14  1  0  0  0
 13 19  2  0  0  0
 14 15  1  0  0  0
 14 16  2  0  0  0
 16 17  1  0  0  0
 17 18  2  0  0  0
 18 19  1  0  0  0
 36 38  1  0  0  0
 37 39  1  0  0  0
 31 32  1  0  0  0
 26 27  1  0  0  0
  4  8  1  0  0  0
  6  9  1  0  0  0
 15 20  1  0  0  0
 15 21  1  0  0  0
M  END
> <minimizedAffinity>
-11.87794

$$$$
5F1X_ATP_A_501


 39 41  0  0  0  0  0  0  0  0999 V2000
   20.7255   -1.6694    2.8506 C   0  0  0  0  0  0  0  0  0  0  0  0
   20.3218   -2.7273    3.7485 O   0  0  0  0  0  0  0  0  0  0  0  0
   19.8274   -1.7876    1.6236 C   0  0  0  0  0  0  0  0  0  0  0  0
   20.5640   -2.3810    0.5826 O   0  0  0  0  0  0  0  0  0  0  0  0
   18.7156   -2.7297    2.1231 C   0  0  0  0  0  0  0  0  0  0  0  0
   18.0929   -3.3838    1.0392 O   0  0  0  0  0  0  0  0  0  0  0  0
   19.5440   -3.6399    3.0441 C   0  0  0  0  0  0  0  0  0  0  0  0
   20.9265   -3.2283    0.8852 H   0  0  0  0  0  0  0  0  0  0  0  0
   18.7647   -3.8360    0.5053 H   0  0  0  0  0  0  0  0  0  0  0  0
   18.7125   -4.4996    3.9512 N   0  0  0  0  0  0  0  0  0  0  0  0
   17.6195   -4.1411    4.6634 C   0  0  0  0  0  0  0  0  0  0  0  0
   17.1725   -5.2052    5.3213 N   0  0  0  0  0  0  0  0  0  0  0  0
   17.9770   -6.2394    5.0754 C   0  0  0  0  0  0  0  0  0  0  0  0
   18.0329   -7.5969    5.4699 C   0  0  0  0  0  0  0  0  0  0  0  0
   17.0641   -8.0922    6.3379 N   0  0  0  0  0  0  0  0  0  0  0  0
   19.0005   -8.3904    5.0095 N   0  0  0  0  0  0  0  0  0  0  0  0
   19.9254   -7.9241    4.1820 C   0  0  0  0  0  0  0  0  0  0  0  0
   19.9209   -6.6668    3.7797 N   0  0  0  0  0  0  0  0  0  0  0  0
   18.9731   -5.7963    4.1800 C   0  0  0  0  0  0  0  0  0  0  0  0
   16.3535   -7.4988    6.6727 H   0  0  0  0  0  0  0  0  0  0  0  0
   17.0896   -9.0359    6.6172 H   0  0  0  0  0  0  0  0  0  0  0  0
   20.5839   -0.3275    3.5753 C   0  0  0  0  0  0  0  0  0  0  0  0
   19.4222    0.3515    3.0638 O   0  0  0  0  0  0  0  0  0  0  0  0
   18.8790    1.7347    3.6132 P   0  0  0  0  0  0  0  0  0  0  0  0
   19.2026    1.7514    5.0724 O   0  0  0  0  0  0  0  0  0  0  0  0
   17.4023    1.8221    3.2787 O   0  0  0  0  0  0  0  0  0  0  0  0
   17.0459    2.6629    3.6060 H   0  0  0  0  0  0  0  0  0  0  0  0
   19.7839    2.7488    2.7348 O   0  0  0  0  0  0  0  0  0  0  0  0
   19.3960    3.7608    1.5295 P   0  0  0  0  0  0  0  0  0  0  0  0
   20.0893    5.1110    1.7042 O   0  0  0  0  0  0  0  0  0  0  0  0
   17.9083    3.8933    1.5563 O   0  0  0  0  0  0  0  0  0  0  0  0
   17.6243    4.4931    0.8488 H   0  0  0  0  0  0  0  0  0  0  0  0
   19.9473    2.9116    0.3017 O   0  0  0  0  0  0  0  0  0  0  0  0
   19.2128    1.6884   -0.4379 P   0  0  0  0  0  0  0  0  0  0  0  0
   18.7556    2.2804   -1.7434 O   0  0  0  0  0  0  0  0  0  0  0  0
   20.2438    0.5817   -0.5686 O   0  0  0  0  0  0  0  0  0  0  0  0
   17.9973    1.3752    0.4115 O   0  0  0  0  0  0  0  0  0  0  0  0
   19.8434   -0.1824   -1.0121 H   0  0  0  0  0  0  0  0  0  0  0  0
   17.5067    0.6384    0.0147 H   0  0  0  0  0  0  0  0  0  0  0  0
 34 35  2  0  0  0
 34 36  1  0  0  0
 34 37  1  0  0  0
 34 33  1  0  0  0
 29 30  2  0  0  0
 29 31  1  0  0  0
 29 33  1  0  0  0
 29 28  1  0  0  0
 24 25  2  0  0  0
 24 26  1  0  0  0
 24 28  1  0  0  0
 24 23  1  0  0  0
 23 22  1  0  0  0
 22  1  1  0  0  0
  1  2  1  0  0  0
  1  3  1  0  0  0
  2  7  1  0  0  0
  3  4  1  0  0  0
  3  5  1  0  0  0
  5  6  1  0  0  0
  5  7  1  0  0  0
  7 10  1  0  0  0
 10 11  1  0  0  0
 10 19  1  0  0  0
 11 12  2  0  0  0
 12 13  1  0  0  0
 13 14  1  0  0  0
 13 19  2  0  0  0
 14 15  1  0  0  0
 14 16  2  0  0  0
 16 17  1  0  0  0
 17 18  2  0  0  0
 18 19  1  0  0  0
 36 38  1  0  0  0
 37 39  1  0  0  0
 31 32  1  0  0  0
 26 27  1  0  0  0
  4  8  1  0  0  0
  6  9  1  0  0  0
 15 20  1  0  0  0
 15 21  1  0  0  0
M  END
> <minimizedAffinity>
-11.35930

$$$$
5F1X_ATP_A_501


 39 41  0  0  0  0  0  0  0  0999 V2000
   18.7062   -2.8166    1.2789 C   0  0  0  0  0  0  0  0  0  0  0  0
   18.9435   -1.6300    2.0689 O   0  0  0  0  0  0  0  0  0  0  0  0
   18.8519   -2.3924   -0.1789 C   0  0  0  0  0  0  0  0  0  0  0  0
   17.5688   -2.2701   -0.7421 O   0  0  0  0  0  0  0  0  0  0  0  0
   19.5348   -1.0175   -0.0516 C   0  0  0  0  0  0  0  0  0  0  0  0
   19.2878   -0.2308   -1.1965 O   0  0  0  0  0  0  0  0  0  0  0  0
   18.8668   -0.5167    1.2391 C   0  0  0  0  0  0  0  0  0  0  0  0
   17.0381   -1.6587   -0.2078 H   0  0  0  0  0  0  0  0  0  0  0  0
   18.3314   -0.1693   -1.3462 H   0  0  0  0  0  0  0  0  0  0  0  0
   19.5346    0.6871    1.8375 N   0  0  0  0  0  0  0  0  0  0  0  0
   20.6237    0.7198    2.6396 C   0  0  0  0  0  0  0  0  0  0  0  0
   20.8985    1.9862    2.9324 N   0  0  0  0  0  0  0  0  0  0  0  0
   19.9860    2.7734    2.3623 C   0  0  0  0  0  0  0  0  0  0  0  0
   19.7404    4.1655    2.3064 C   0  0  0  0  0  0  0  0  0  0  0  0
   20.5916    5.0330    2.9847 N   0  0  0  0  0  0  0  0  0  0  0  0
   18.7078    4.6373    1.6072 N   0  0  0  0  0  0  0  0  0  0  0  0
   17.8942    3.8157    0.9586 C   0  0  0  0  0  0  0  0  0  0  0  0
   18.0769    2.5084    0.9748 N   0  0  0  0  0  0  0  0  0  0  0  0
   19.1026    1.9427    1.6413 C   0  0  0  0  0  0  0  0  0  0  0  0
   21.3515    4.6754    3.4984 H   0  0  0  0  0  0  0  0  0  0  0  0
   20.4338    6.0042    2.9507 H   0  0  0  0  0  0  0  0  0  0  0  0
   19.7099   -3.8954    1.6967 C   0  0  0  0  0  0  0  0  0  0  0  0
   19.0525   -4.8154    2.5875 O   0  0  0  0  0  0  0  0  0  0  0  0
   18.7897   -4.5399    4.1254 P   0  0  0  0  0  0  0  0  0  0  0  0
   17.3569   -4.1264    4.2285 O   0  0  0  0  0  0  0  0  0  0  0  0
   19.7951   -3.5050    4.5927 O   0  0  0  0  0  0  0  0  0  0  0  0
   19.6539   -3.3190    5.5341 H   0  0  0  0  0  0  0  0  0  0  0  0
   19.0848   -6.0162    4.7190 O   0  0  0  0  0  0  0  0  0  0  0  0
   18.6087   -7.4846    4.2247 P   0  0  0  0  0  0  0  0  0  0  0  0
   19.4897   -8.5774    4.8282 O   0  0  0  0  0  0  0  0  0  0  0  0
   18.6864   -7.4700    2.7330 O   0  0  0  0  0  0  0  0  0  0  0  0
   18.4095   -8.3326    2.3863 H   0  0  0  0  0  0  0  0  0  0  0  0
   17.1230   -7.4718    4.7947 O   0  0  0  0  0  0  0  0  0  0  0  0
   16.6705   -7.2092    6.3143 P   0  0  0  0  0  0  0  0  0  0  0  0
   15.4409   -8.0613    6.4752 O   0  0  0  0  0  0  0  0  0  0  0  0
   17.8430   -7.6142    7.1895 O   0  0  0  0  0  0  0  0  0  0  0  0
   16.2667   -5.7494    6.3681 O   0  0  0  0  0  0  0  0  0  0  0  0
   17.6149   -7.4723    8.1216 H   0  0  0  0  0  0  0  0  0  0  0  0
   15.9806   -5.5260    7.2676 H   0  0  0  0  0  0  0  0  0  0  0  0
 34 35  2  0  0  0
 34 36  1  0  0  0
 34 37  1  0  0  0
 34 33  1  0  0  0
 29 30  2  0  0  0
 29 31  1  0  0  0
 29 33  1  0  0  0
 29 28  1  0  0  0
 24 25  2  0  0  0
 24 26  1  0  0  0
 24 28  1  0  0  0
 24 23  1  0  0  0
 23 22  1  0  0  0
 22  1  1  0  0  0
  1  2  1  0  0  0
  1  3  1  0  0  0
  2  7  1  0  0  0
  3  4  1  0  0  0
  3  5  1  0  0  0
  5  6  1  0  0  0
  5  7  1  0  0  0
  7 10  1  0  0  0
 10 11  1  0  0  0
 10 19  1  0  0  0
 11 12  2  0  0  0
 12 13  1  0  0  0
 13 14  1  0  0  0
 13 19  2  0  0  0
 14 15  1  0  0  0
 14 16  2  0  0  0
 16 17  1  0  0  0
 17 18  2  0  0  0
 18 19  1  0  0  0
 36 38  1  0  0  0
 37 39  1  0  0  0
 31 32  1  0  0  0
 26 27  1  0  0  0
  4  8  1  0  0  0
  6  9  1  0  0  0
 15 20  1  0  0  0
 15 21  1  0  0  0
M  END
> <minimizedAffinity>
-11.12248

$$$$
5F1X_ATP_A_501


 39 41  0  0  0  0  0  0  0  0999 V2000
   18.8939   -3.1625    2.5796 C   0  0  0  0  0  0  0  0  0  0  0  0
   18.9144   -1.7821    3.0069 O   0  0  0  0  0  0  0  0  0  0  0  0
   19.7107   -3.2210    1.2928 C   0  0  0  0  0  0  0  0  0  0  0  0
   18.8264   -3.3081    0.2024 O   0  0  0  0  0  0  0  0  0  0  0  0
   20.4403   -1.8644    1.3079 C   0  0  0  0  0  0  0  0  0  0  0  0
   20.8174   -1.4872    0.0018 O   0  0  0  0  0  0  0  0  0  0  0  0
   19.3484   -0.9919    1.9480 C   0  0  0  0  0  0  0  0  0  0  0  0
   18.1995   -2.5686    0.2347 H   0  0  0  0  0  0  0  0  0  0  0  0
   20.0373   -1.4943   -0.5748 H   0  0  0  0  0  0  0  0  0  0  0  0
   19.8382    0.3520    2.4033 N   0  0  0  0  0  0  0  0  0  0  0  0
   20.8341    0.6199    3.2790 C   0  0  0  0  0  0  0  0  0  0  0  0
   20.9593    1.9379    3.3907 N   0  0  0  0  0  0  0  0  0  0  0  0
   20.0388    2.5292    2.6289 C   0  0  0  0  0  0  0  0  0  0  0  0
   19.6714    3.8632    2.3338 C   0  0  0  0  0  0  0  0  0  0  0  0
   20.3663    4.9080    2.9362 N   0  0  0  0  0  0  0  0  0  0  0  0
   18.6742    4.1126    1.4845 N   0  0  0  0  0  0  0  0  0  0  0  0
   18.0094    3.1213    0.9074 C   0  0  0  0  0  0  0  0  0  0  0  0
   18.3105    1.8581    1.1447 N   0  0  0  0  0  0  0  0  0  0  0  0
   19.3129    1.5109    1.9760 C   0  0  0  0  0  0  0  0  0  0  0  0
   21.1011    4.7142    3.5620 H   0  0  0  0  0  0  0  0  0  0  0  0
   20.1229    5.8408    2.7364 H   0  0  0  0  0  0  0  0  0  0  0  0
   19.4697   -4.0335    3.7001 C   0  0  0  0  0  0  0  0  0  0  0  0
   19.4046   -5.4121    3.2911 O   0  0  0  0  0  0  0  0  0  0  0  0
   19.0740   -6.6197    4.2618 P   0  0  0  0  0  0  0  0  0  0  0  0
   20.2998   -7.4749    4.2842 O   0  0  0  0  0  0  0  0  0  0  0  0
   17.8207   -7.3020    3.7479 O   0  0  0  0  0  0  0  0  0  0  0  0
   17.5973   -8.0470    4.3275 H   0  0  0  0  0  0  0  0  0  0  0  0
   18.8263   -5.8020    5.6362 O   0  0  0  0  0  0  0  0  0  0  0  0
   17.5173   -5.6688    6.5826 P   0  0  0  0  0  0  0  0  0  0  0  0
   16.8742   -7.0338    6.8223 O   0  0  0  0  0  0  0  0  0  0  0  0
   16.5875   -4.7326    5.8823 O   0  0  0  0  0  0  0  0  0  0  0  0
   15.7831   -4.6191    6.4123 H   0  0  0  0  0  0  0  0  0  0  0  0
   18.2054   -5.0487    7.8767 O   0  0  0  0  0  0  0  0  0  0  0  0
   19.5080   -5.5999    8.6396 P   0  0  0  0  0  0  0  0  0  0  0  0
   20.5829   -4.6124    8.2742 O   0  0  0  0  0  0  0  0  0  0  0  0
   19.1581   -5.6405   10.1163 O   0  0  0  0  0  0  0  0  0  0  0  0
   19.8231   -6.9317    7.9884 O   0  0  0  0  0  0  0  0  0  0  0  0
   19.9192   -5.9691   10.6200 H   0  0  0  0  0  0  0  0  0  0  0  0
   20.6068   -7.3195    8.4082 H   0  0  0  0  0  0  0  0  0  0  0  0
 34 35  2  0  0  0
 34 36  1  0  0  0
 34 37  1  0  0  0
 34 33  1  0  0  0
 29 30  2  0  0  0
 29 31  1  0  0  0
 29 33  1  0  0  0
 29 28  1  0  0  0
 24 25  2  0  0  0
 24 26  1  0  0  0
 24 28  1  0  0  0
 24 23  1  0  0  0
 23 22  1  0  0  0
 22  1  1  0  0  0
  1  2  1  0  0  0
  1  3  1  0  0  0
  2  7  1  0  0  0
  3  4  1  0  0  0
  3  5  1  0  0  0
  5  6  1  0  0  0
  5  7  1  0  0  0
  7 10  1  0  0  0
 10 11  1  0  0  0
 10 19  1  0  0  0
 11 12  2  0  0  0
 12 13  1  0  0  0
 13 14  1  0  0  0
 13 19  2  0  0  0
 14 15  1  0  0  0
 14 16  2  0  0  0
 16 17  1  0  0  0
 17 18  2  0  0  0
 18 19  1  0  0  0
 36 38  1  0  0  0
 37 39  1  0  0  0
 31 32  1  0  0  0
 26 27  1  0  0  0
  4  8  1  0  0  0
  6  9  1  0  0  0
 15 20  1  0  0  0
 15 21  1  0  0  0
M  END
> <minimizedAffinity>
-10.88303

$$$$
5F1X_ATP_A_501


 39 41  0  0  0  0  0  0  0  0999 V2000
   18.4883   -4.5495    4.9230 C   0  0  0  0  0  0  0  0  0  0  0  0
   17.4413   -5.4968    4.6151 O   0  0  0  0  0  0  0  0  0  0  0  0
   19.4228   -5.2524    5.9022 C   0  0  0  0  0  0  0  0  0  0  0  0
   19.1729   -4.7588    7.1955 O   0  0  0  0  0  0  0  0  0  0  0  0
   18.9816   -6.7229    5.7752 C   0  0  0  0  0  0  0  0  0  0  0  0
   19.3244   -7.4477    6.9361 O   0  0  0  0  0  0  0  0  0  0  0  0
   17.4736   -6.5212    5.5550 C   0  0  0  0  0  0  0  0  0  0  0  0
   18.2323   -4.8664    7.4064 H   0  0  0  0  0  0  0  0  0  0  0  0
   18.9540   -7.0043    7.7153 H   0  0  0  0  0  0  0  0  0  0  0  0
   16.7621   -7.7541    5.0788 N   0  0  0  0  0  0  0  0  0  0  0  0
   17.1059   -8.5679    4.0540 C   0  0  0  0  0  0  0  0  0  0  0  0
   16.2198   -9.5548    3.9788 N   0  0  0  0  0  0  0  0  0  0  0  0
   15.2878   -9.3762    4.9151 C   0  0  0  0  0  0  0  0  0  0  0  0
   14.1201  -10.0606    5.3271 C   0  0  0  0  0  0  0  0  0  0  0  0
   13.7407  -11.2202    4.6574 N   0  0  0  0  0  0  0  0  0  0  0  0
   13.3971   -9.5998    6.3483 N   0  0  0  0  0  0  0  0  0  0  0  0
   13.7542   -8.4961    6.9903 C   0  0  0  0  0  0  0  0  0  0  0  0
   14.8348   -7.8187    6.6498 N   0  0  0  0  0  0  0  0  0  0  0  0
   15.6348   -8.2175    5.6411 C   0  0  0  0  0  0  0  0  0  0  0  0
   14.2807  -11.5529    3.9045 H   0  0  0  0  0  0  0  0  0  0  0  0
   12.9323  -11.7078    4.9367 H   0  0  0  0  0  0  0  0  0  0  0  0
   19.1789   -4.1376    3.6195 C   0  0  0  0  0  0  0  0  0  0  0  0
   19.9789   -2.9679    3.8720 O   0  0  0  0  0  0  0  0  0  0  0  0
   20.2240   -1.8068    2.8224 P   0  0  0  0  0  0  0  0  0  0  0  0
   21.5787   -1.2550    3.1307 O   0  0  0  0  0  0  0  0  0  0  0  0
   19.0811   -0.8174    2.9455 O   0  0  0  0  0  0  0  0  0  0  0  0
   19.2091   -0.0950    2.3109 H   0  0  0  0  0  0  0  0  0  0  0  0
   20.1680   -2.6650    1.4516 O   0  0  0  0  0  0  0  0  0  0  0  0
   19.6376   -2.2820   -0.0314 P   0  0  0  0  0  0  0  0  0  0  0  0
   18.1514   -2.6034   -0.1809 O   0  0  0  0  0  0  0  0  0  0  0  0
   20.4738   -3.0646   -0.9904 O   0  0  0  0  0  0  0  0  0  0  0  0
   20.1935   -2.8689   -1.8982 H   0  0  0  0  0  0  0  0  0  0  0  0
   19.9578   -0.7232   -0.0175 O   0  0  0  0  0  0  0  0  0  0  0  0
   19.0530    0.4572   -0.6266 P   0  0  0  0  0  0  0  0  0  0  0  0
   20.0218    1.5936   -0.8109 O   0  0  0  0  0  0  0  0  0  0  0  0
   18.4519   -0.0801   -1.9129 O   0  0  0  0  0  0  0  0  0  0  0  0
   18.0729    0.8208    0.4707 O   0  0  0  0  0  0  0  0  0  0  0  0
   17.8941    0.6019   -2.3187 H   0  0  0  0  0  0  0  0  0  0  0  0
   17.4929    1.5347    0.1627 H   0  0  0  0  0  0  0  0  0  0  0  0
 34 35  2  0  0  0
 34 36  1  0  0  0
 34 37  1  0  0  0
 34 33  1  0  0  0
 29 30  2  0  0  0
 29 31  1  0  0  0
 29 33  1  0  0  0
 29 28  1  0  0  0
 24 25  2  0  0  0
 24 26  1  0  0  0
 24 28  1  0  0  0
 24 23  1  0  0  0
 23 22  1  0  0  0
 22  1  1  0  0  0
  1  2  1  0  0  0
  1  3  1  0  0  0
  2  7  1  0  0  0
  3  4  1  0  0  0
  3  5  1  0  0  0
  5  6  1  0  0  0
  5  7  1  0  0  0
  7 10  1  0  0  0
 10 11  1  0  0  0
 10 19  1  0  0  0
 11 12  2  0  0  0
 12 13  1  0  0  0
 13 14  1  0  0  0
 13 19  2  0  0  0
 14 15  1  0  0  0
 14 16  2  0  0  0
 16 17  1  0  0  0
 17 18  2  0  0  0
 18 19  1  0  0  0
 36 38  1  0  0  0
 37 39  1  0  0  0
 31 32  1  0  0  0
 26 27  1  0  0  0
  4  8  1  0  0  0
  6  9  1  0  0  0
 15 20  1  0  0  0
 15 21  1  0  0  0
M  END
> <minimizedAffinity>
-10.77856

$$$$
5F1X_ATP_A_501


 39 41  0  0  0  0  0  0  0  0999 V2000
   18.4673   -4.9652    4.2079 C   0  0  0  0  0  0  0  0  0  0  0  0
   18.3773   -3.6300    3.6624 O   0  0  0  0  0  0  0  0  0  0  0  0
   19.3253   -5.7654    3.2333 C   0  0  0  0  0  0  0  0  0  0  0  0
   18.4832   -6.5888    2.4642 O   0  0  0  0  0  0  0  0  0  0  0  0
   19.9567   -4.6572    2.3695 C   0  0  0  0  0  0  0  0  0  0  0  0
   20.3463   -5.1666    1.1127 O   0  0  0  0  0  0  0  0  0  0  0  0
   18.7870   -3.6605    2.3339 C   0  0  0  0  0  0  0  0  0  0  0  0
   17.8051   -6.0452    2.0334 H   0  0  0  0  0  0  0  0  0  0  0  0
   19.5868   -5.5951    0.6880 H   0  0  0  0  0  0  0  0  0  0  0  0
   19.1668   -2.3009    1.8234 N   0  0  0  0  0  0  0  0  0  0  0  0
   19.9002   -1.3531    2.4512 C   0  0  0  0  0  0  0  0  0  0  0  0
   20.0190   -0.3038    1.6451 N   0  0  0  0  0  0  0  0  0  0  0  0
   19.3462   -0.5409    0.5188 C   0  0  0  0  0  0  0  0  0  0  0  0
   19.0984    0.1649   -0.6820 C   0  0  0  0  0  0  0  0  0  0  0  0
   19.6305    1.4410   -0.8419 N   0  0  0  0  0  0  0  0  0  0  0  0
   18.3676   -0.3912   -1.6488 N   0  0  0  0  0  0  0  0  0  0  0  0
   17.8589   -1.6067   -1.5022 C   0  0  0  0  0  0  0  0  0  0  0  0
   18.0596   -2.3110   -0.4039 N   0  0  0  0  0  0  0  0  0  0  0  0
   18.7982   -1.8370    0.6190 C   0  0  0  0  0  0  0  0  0  0  0  0
   20.1689    1.8435   -0.1226 H   0  0  0  0  0  0  0  0  0  0  0  0
   19.4686    1.9411   -1.6743 H   0  0  0  0  0  0  0  0  0  0  0  0
   19.0682   -4.8834    5.6143 C   0  0  0  0  0  0  0  0  0  0  0  0
   18.2359   -5.6369    6.5151 O   0  0  0  0  0  0  0  0  0  0  0  0
   18.7054   -6.9333    7.2956 P   0  0  0  0  0  0  0  0  0  0  0  0
   18.9870   -6.4895    8.6949 O   0  0  0  0  0  0  0  0  0  0  0  0
   19.8909   -7.5208    6.5541 O   0  0  0  0  0  0  0  0  0  0  0  0
   20.1972   -8.3179    7.0142 H   0  0  0  0  0  0  0  0  0  0  0  0
   17.3674   -7.8327    7.1554 O   0  0  0  0  0  0  0  0  0  0  0  0
   16.1822   -7.8252    6.0497 P   0  0  0  0  0  0  0  0  0  0  0  0
   16.7409   -8.0607    4.6472 O   0  0  0  0  0  0  0  0  0  0  0  0
   15.5114   -6.4954    6.1637 O   0  0  0  0  0  0  0  0  0  0  0  0
   14.7895   -6.4410    5.5181 H   0  0  0  0  0  0  0  0  0  0  0  0
   15.3133   -9.0374    6.6050 O   0  0  0  0  0  0  0  0  0  0  0  0
   13.8678   -9.5108    6.0863 P   0  0  0  0  0  0  0  0  0  0  0  0
   14.1747  -10.3128    4.8507 O   0  0  0  0  0  0  0  0  0  0  0  0
   13.2415  -10.3038    7.2191 O   0  0  0  0  0  0  0  0  0  0  0  0
   13.1491   -8.2397    5.6804 O   0  0  0  0  0  0  0  0  0  0  0  0
   12.3620  -10.6122    6.9503 H   0  0  0  0  0  0  0  0  0  0  0  0
   12.2621   -8.4596    5.3552 H   0  0  0  0  0  0  0  0  0  0  0  0
 34 35  2  0  0  0
 34 36  1  0  0  0
 34 37  1  0  0  0
 34 33  1  0  0  0
 29 30  2  0  0  0
 29 31  1  0  0  0
 29 33  1  0  0  0
 29 28  1  0  0  0
 24 25  2  0  0  0
 24 26  1  0  0  0
 24 28  1  0  0  0
 24 23  1  0  0  0
 23 22  1  0  0  0
 22  1  1  0  0  0
  1  2  1  0  0  0
  1  3  1  0  0  0
  2  7  1  0  0  0
  3  4  1  0  0  0
  3  5  1  0  0  0
  5  6  1  0  0  0
  5  7  1  0  0  0
  7 10  1  0  0  0
 10 11  1  0  0  0
 10 19  1  0  0  0
 11 12  2  0  0  0
 12 13  1  0  0  0
 13 14  1  0  0  0
 13 19  2  0  0  0
 14 15  1  0  0  0
 14 16  2  0  0  0
 16 17  1  0  0  0
 17 18  2  0  0  0
 18 19  1  0  0  0
 36 38  1  0  0  0
 37 39  1  0  0  0
 31 32  1  0  0  0
 26 27  1  0  0  0
  4  8  1  0  0  0
  6  9  1  0  0  0
 15 20  1  0  0  0
 15 21  1  0  0  0
M  END
> <minimizedAffinity>
-10.68113

$$$$
5F1X_ATP_A_501


 39 41  0  0  0  0  0  0  0  0999 V2000
   18.9857   -3.9703    1.7661 C   0  0  0  0  0  0  0  0  0  0  0  0
   18.2939   -2.7674    1.3624 O   0  0  0  0  0  0  0  0  0  0  0  0
   20.3327   -3.9460    1.0510 C   0  0  0  0  0  0  0  0  0  0  0  0
   20.2826   -4.8409   -0.0331 O   0  0  0  0  0  0  0  0  0  0  0  0
   20.4160   -2.4875    0.5625 C   0  0  0  0  0  0  0  0  0  0  0  0
   21.2881   -2.3811   -0.5414 O   0  0  0  0  0  0  0  0  0  0  0  0
   18.9326   -2.2364    0.2471 C   0  0  0  0  0  0  0  0  0  0  0  0
   19.5321   -4.6148   -0.6045 H   0  0  0  0  0  0  0  0  0  0  0  0
   21.0095   -3.0000   -1.2344 H   0  0  0  0  0  0  0  0  0  0  0  0
   18.5967   -0.7891    0.0334 N   0  0  0  0  0  0  0  0  0  0  0  0
   18.1276   -0.2028   -1.0921 C   0  0  0  0  0  0  0  0  0  0  0  0
   17.9454    1.0914   -0.8534 N   0  0  0  0  0  0  0  0  0  0  0  0
   18.3208    1.3611    0.3970 C   0  0  0  0  0  0  0  0  0  0  0  0
   18.3689    2.5146    1.2149 C   0  0  0  0  0  0  0  0  0  0  0  0
   17.9546    3.7359    0.6915 N   0  0  0  0  0  0  0  0  0  0  0  0
   18.8018    2.4277    2.4730 N   0  0  0  0  0  0  0  0  0  0  0  0
   19.1970    1.2668    2.9769 C   0  0  0  0  0  0  0  0  0  0  0  0
   19.1718    0.1588    2.2599 N   0  0  0  0  0  0  0  0  0  0  0  0
   18.7351    0.1474    0.9849 C   0  0  0  0  0  0  0  0  0  0  0  0
   17.6364    3.7903   -0.2386 H   0  0  0  0  0  0  0  0  0  0  0  0
   17.9796    4.5453    1.2513 H   0  0  0  0  0  0  0  0  0  0  0  0
   19.1126   -3.9770    3.2923 C   0  0  0  0  0  0  0  0  0  0  0  0
   19.7675   -5.1941    3.6946 O   0  0  0  0  0  0  0  0  0  0  0  0
   19.0169   -6.5536    4.0084 P   0  0  0  0  0  0  0  0  0  0  0  0
   20.0001   -7.4034    4.7470 O   0  0  0  0  0  0  0  0  0  0  0  0
   18.5255   -7.1296    2.6942 O   0  0  0  0  0  0  0  0  0  0  0  0
   18.0612   -7.9648    2.8608 H   0  0  0  0  0  0  0  0  0  0  0  0
   17.8164   -5.9916    4.9368 O   0  0  0  0  0  0  0  0  0  0  0  0
   17.3457   -6.3888    6.4361 P   0  0  0  0  0  0  0  0  0  0  0  0
   17.5910   -7.8714    6.7120 O   0  0  0  0  0  0  0  0  0  0  0  0
   15.8960   -6.0400    6.5263 O   0  0  0  0  0  0  0  0  0  0  0  0
   15.5649   -6.2603    7.4110 H   0  0  0  0  0  0  0  0  0  0  0  0
   18.2969   -5.4173    7.2633 O   0  0  0  0  0  0  0  0  0  0  0  0
   19.4931   -5.8411    8.2494 P   0  0  0  0  0  0  0  0  0  0  0  0
   20.4931   -4.7268    8.1004 O   0  0  0  0  0  0  0  0  0  0  0  0
   18.8854   -5.9682    9.6348 O   0  0  0  0  0  0  0  0  0  0  0  0
   20.0765   -7.1070    7.6546 O   0  0  0  0  0  0  0  0  0  0  0  0
   19.5743   -6.2241   10.2678 H   0  0  0  0  0  0  0  0  0  0  0  0
   20.8099   -7.4165    8.2088 H   0  0  0  0  0  0  0  0  0  0  0  0
 34 35  2  0  0  0
 34 36  1  0  0  0
 34 37  1  0  0  0
 34 33  1  0  0  0
 29 30  2  0  0  0
 29 31  1  0  0  0
 29 33  1  0  0  0
 29 28  1  0  0  0
 24 25  2  0  0  0
 24 26  1  0  0  0
 24 28  1  0  0  0
 24 23  1  0  0  0
 23 22  1  0  0  0
 22  1  1  0  0  0
  1  2  1  0  0  0
  1  3  1  0  0  0
  2  7  1  0  0  0
  3  4  1  0  0  0
  3  5  1  0  0  0
  5  6  1  0  0  0
  5  7  1  0  0  0
  7 10  1  0  0  0
 10 11  1  0  0  0
 10 19  1  0  0  0
 11 12  2  0  0  0
 12 13  1  0  0  0
 13 14  1  0  0  0
 13 19  2  0  0  0
 14 15  1  0  0  0
 14 16  2  0  0  0
 16 17  1  0  0  0
 17 18  2  0  0  0
 18 19  1  0  0  0
 36 38  1  0  0  0
 37 39  1  0  0  0
 31 32  1  0  0  0
 26 27  1  0  0  0
  4  8  1  0  0  0
  6  9  1  0  0  0
 15 20  1  0  0  0
 15 21  1  0  0  0
M  END
> <minimizedAffinity>
-10.59713

$$$$
5F1X_ATP_A_501


 39 41  0  0  0  0  0  0  0  0999 V2000
   18.9344   -3.9560    2.3326 C   0  0  0  0  0  0  0  0  0  0  0  0
   18.2480   -2.7855    1.8353 O   0  0  0  0  0  0  0  0  0  0  0  0
   20.2562   -4.0272    1.5750 C   0  0  0  0  0  0  0  0  0  0  0  0
   20.1550   -5.0227    0.5865 O   0  0  0  0  0  0  0  0  0  0  0  0
   20.3454   -2.6252    0.9428 C   0  0  0  0  0  0  0  0  0  0  0  0
   21.1806   -2.6438   -0.1942 O   0  0  0  0  0  0  0  0  0  0  0  0
   18.8561   -2.3783    0.6528 C   0  0  0  0  0  0  0  0  0  0  0  0
   19.3889   -4.8396    0.0204 H   0  0  0  0  0  0  0  0  0  0  0  0
   20.8688   -3.3223   -0.8133 H   0  0  0  0  0  0  0  0  0  0  0  0
   18.5356   -0.9528    0.3088 N   0  0  0  0  0  0  0  0  0  0  0  0
   18.0460   -0.4696   -0.8563 C   0  0  0  0  0  0  0  0  0  0  0  0
   17.8886    0.8444   -0.7391 N   0  0  0  0  0  0  0  0  0  0  0  0
   18.3001    1.2267    0.4699 C   0  0  0  0  0  0  0  0  0  0  0  0
   18.3859    2.4524    1.1713 C   0  0  0  0  0  0  0  0  0  0  0  0
   17.9757    3.6245    0.5428 N   0  0  0  0  0  0  0  0  0  0  0  0
   18.8499    2.4795    2.4210 N   0  0  0  0  0  0  0  0  0  0  0  0
   19.2413    1.3660    3.0248 C   0  0  0  0  0  0  0  0  0  0  0  0
   19.1816    0.1947    2.4188 N   0  0  0  0  0  0  0  0  0  0  0  0
   18.7120    0.0683    1.1618 C   0  0  0  0  0  0  0  0  0  0  0  0
   17.6345    3.5947   -0.3802 H   0  0  0  0  0  0  0  0  0  0  0  0
   18.0268    4.4835    1.0212 H   0  0  0  0  0  0  0  0  0  0  0  0
   19.1136   -3.8156    3.8471 C   0  0  0  0  0  0  0  0  0  0  0  0
   17.9904   -4.4327    4.5027 O   0  0  0  0  0  0  0  0  0  0  0  0
   18.1049   -5.4178    5.7382 P   0  0  0  0  0  0  0  0  0  0  0  0
   17.9048   -4.5734    6.9554 O   0  0  0  0  0  0  0  0  0  0  0  0
   19.4469   -6.1192    5.6531 O   0  0  0  0  0  0  0  0  0  0  0  0
   19.5407   -6.7296    6.4011 H   0  0  0  0  0  0  0  0  0  0  0  0
   16.8601   -6.4006    5.4168 O   0  0  0  0  0  0  0  0  0  0  0  0
   16.5998   -7.9567    5.7884 P   0  0  0  0  0  0  0  0  0  0  0  0
   15.1938   -8.1570    6.3516 O   0  0  0  0  0  0  0  0  0  0  0  0
   17.6531   -8.3327    6.7787 O   0  0  0  0  0  0  0  0  0  0  0  0
   17.5397   -9.2615    7.0343 H   0  0  0  0  0  0  0  0  0  0  0  0
   16.8098   -8.5973    4.3468 O   0  0  0  0  0  0  0  0  0  0  0  0
   18.1727   -8.6441    3.4966 P   0  0  0  0  0  0  0  0  0  0  0  0
   17.9616   -9.7882    2.5424 O   0  0  0  0  0  0  0  0  0  0  0  0
   18.3162   -7.2846    2.8365 O   0  0  0  0  0  0  0  0  0  0  0  0
   19.2535   -9.0252    4.4883 O   0  0  0  0  0  0  0  0  0  0  0  0
   19.1301   -7.2655    2.3091 H   0  0  0  0  0  0  0  0  0  0  0  0
   20.1088   -9.0707    4.0329 H   0  0  0  0  0  0  0  0  0  0  0  0
 34 35  2  0  0  0
 34 36  1  0  0  0
 34 37  1  0  0  0
 34 33  1  0  0  0
 29 30  2  0  0  0
 29 31  1  0  0  0
 29 33  1  0  0  0
 29 28  1  0  0  0
 24 25  2  0  0  0
 24 26  1  0  0  0
 24 28  1  0  0  0
 24 23  1  0  0  0
 23 22  1  0  0  0
 22  1  1  0  0  0
  1  2  1  0  0  0
  1  3  1  0  0  0
  2  7  1  0  0  0
  3  4  1  0  0  0
  3  5  1  0  0  0
  5  6  1  0  0  0
  5  7  1  0  0  0
  7 10  1  0  0  0
 10 11  1  0  0  0
 10 19  1  0  0  0
 11 12  2  0  0  0
 12 13  1  0  0  0
 13 14  1  0  0  0
 13 19  2  0  0  0
 14 15  1  0  0  0
 14 16  2  0  0  0
 16 17  1  0  0  0
 17 18  2  0  0  0
 18 19  1  0  0  0
 36 38  1  0  0  0
 37 39  1  0  0  0
 31 32  1  0  0  0
 26 27  1  0  0  0
  4  8  1  0  0  0
  6  9  1  0  0  0
 15 20  1  0  0  0
 15 21  1  0  0  0
M  END
> <minimizedAffinity>
-10.51807

$$$$
