5FNU_L6I_A_1615


 40 44  0  0  0  0  0  0  0  0999 V2000
   16.8432   64.2591   28.0191 C   0  0  0  0  0  0  0  0  0  0  0  0
   17.8697   63.7253   28.7859 C   0  0  0  0  0  0  0  0  0  0  0  0
   17.8921   63.9029   30.1593 C   0  0  0  0  0  0  0  0  0  0  0  0
   16.8855   64.6225   30.8040 C   0  0  0  0  0  0  0  0  0  0  0  0
   16.9390   64.7985   32.3005 C   0  0  0  0  0  0  0  0  0  0  0  0
   15.8440   65.1673   30.0428 C   0  0  0  0  0  0  0  0  0  0  0  0
   15.8444   64.9750   28.6651 C   0  0  0  0  0  0  0  0  0  0  0  0
   16.8148   64.0659   26.5110 C   0  0  0  0  0  0  0  0  0  0  0  0
   13.4558   63.7458   24.6629 C   0  0  0  0  0  0  0  0  0  0  0  0
   14.6856   64.2348   25.0971 C   0  0  0  0  0  0  0  0  0  0  0  0
   15.4669   63.5420   26.0266 C   0  0  0  0  0  0  0  0  0  0  0  0
   14.9826   62.3259   26.5215 C   0  0  0  0  0  0  0  0  0  0  0  0
   13.7301   61.8231   26.0822 C   0  0  0  0  0  0  0  0  0  0  0  0
   13.0510   60.6839   26.4070 N   0  0  0  0  0  0  0  0  0  0  0  0
   11.9128   60.6454   25.7357 N   0  0  0  0  0  0  0  0  0  0  0  0
   11.8592   61.7691   24.9720 N   0  0  0  0  0  0  0  0  0  0  0  0
   10.7116   62.0166   24.1088 C   0  0  0  0  0  0  0  0  0  0  0  0
   12.9791   62.5249   25.1664 C   0  0  0  0  0  0  0  0  0  0  0  0
   13.1880   64.7750   22.5104 C   0  0  0  0  0  0  0  0  0  0  0  0
   12.6309   64.3611   23.7572 O   0  0  0  0  0  0  0  0  0  0  0  0
   17.2980   65.3443   25.8154 C   0  0  0  0  0  0  0  0  0  0  0  0
   17.7675   65.1594   24.3772 C   0  0  0  0  0  0  0  0  0  0  0  0
   17.6599   66.1436   23.6114 O   0  0  0  0  0  0  0  0  0  0  0  0
   18.2308   64.0502   24.0347 O   0  0  0  0  0  0  0  0  0  0  0  0
   18.2844   63.3523   24.6576 H   0  0  0  0  0  0  0  0  0  0  0  0
   14.7243   65.9566   30.6813 C   0  0  0  0  0  0  0  0  0  0  0  0
   13.7986   65.1112   31.4652 N   0  0  0  0  0  0  0  0  0  0  0  0
   13.2532   63.9142   30.7717 C   0  0  0  0  0  0  0  0  0  0  0  0
   12.1252   64.2383   29.7927 C   0  0  0  0  0  0  0  0  0  0  0  0
   11.7360   63.0216   28.9559 C   0  0  0  0  0  0  0  0  0  0  0  0
   10.9547   64.6832   30.4970 O   0  0  0  0  0  0  0  0  0  0  0  0
   10.8329   66.0464   30.7521 C   0  0  0  0  0  0  0  0  0  0  0  0
    9.8759   66.7575   30.0399 C   0  0  0  0  0  0  0  0  0  0  0  0
    9.7224   68.1143   30.2637 C   0  0  0  0  0  0  0  0  0  0  0  0
   10.5162   68.7629   31.1913 C   0  0  0  0  0  0  0  0  0  0  0  0
   11.4731   68.0597   31.9053 C   0  0  0  0  0  0  0  0  0  0  0  0
   11.6344   66.6930   31.6870 C   0  0  0  0  0  0  0  0  0  0  0  0
   12.8514   65.7900   32.5935 S   0  0  0  0  0  0  0  0  0  0  0  0
   12.1920   64.7396   33.3039 O   0  0  0  0  0  0  0  0  0  0  0  0
   13.6479   66.7184   33.3387 O   0  0  0  0  0  0  0  0  0  0  0  0
 19 20  1  0  0  0
 20  9  1  0  0  0
  9 18  2  0  0  0
  9 10  1  0  0  0
 10 11  2  0  0  0
 11 12  1  0  0  0
 11  8  1  0  0  0
 13 12  2  0  0  0
 18 13  1  0  0  0
 13 14  1  0  0  0
 15 14  2  0  0  0
 16 15  1  0  0  0
 17 16  1  0  0  0
 16 18  1  0  0  0
 21  8  1  0  0  0
  8  1  1  0  0  0
 22 21  1  0  0  0
 23 22  2  0  0  0
 24 22  1  0  0  0
  1  7  2  0  0  0
  1  2  1  0  0  0
  2  3  2  0  0  0
  3  4  1  0  0  0
  6  4  2  0  0  0
  4  5  1  0  0  0
  7  6  1  0  0  0
  6 26  1  0  0  0
 26 27  1  0  0  0
 28 27  1  0  0  0
 27 38  1  0  0  0
 29 28  1  0  0  0
 30 29  1  0  0  0
 29 31  1  0  0  0
 31 32  1  0  0  0
 33 32  2  0  0  0
 32 37  1  0  0  0
 33 34  1  0  0  0
 34 35  2  0  0  0
 35 36  1  0  0  0
 37 36  2  0  0  0
 37 38  1  0  0  0
 38 40  2  0  0  0
 38 39  2  0  0  0
 24 25  1  0  0  0
M  END
> <minimizedAffinity>
-12.28336

$$$$
5FNU_L6I_A_1615


 40 44  0  0  0  0  0  0  0  0999 V2000
   16.7847   64.3305   28.0220 C   0  0  0  0  0  0  0  0  0  0  0  0
   17.8153   63.7503   28.7485 C   0  0  0  0  0  0  0  0  0  0  0  0
   17.8683   63.8788   30.1265 C   0  0  0  0  0  0  0  0  0  0  0  0
   16.8892   64.5944   30.8164 C   0  0  0  0  0  0  0  0  0  0  0  0
   16.9757   64.7163   32.3168 C   0  0  0  0  0  0  0  0  0  0  0  0
   15.8440   65.1856   30.0962 C   0  0  0  0  0  0  0  0  0  0  0  0
   15.8132   65.0422   28.7129 C   0  0  0  0  0  0  0  0  0  0  0  0
   16.7226   64.1913   26.5089 C   0  0  0  0  0  0  0  0  0  0  0  0
   13.2563   63.0282   25.3123 C   0  0  0  0  0  0  0  0  0  0  0  0
   14.5664   63.0134   25.7847 C   0  0  0  0  0  0  0  0  0  0  0  0
   15.2877   64.1929   25.9926 C   0  0  0  0  0  0  0  0  0  0  0  0
   14.6578   65.4108   25.7129 C   0  0  0  0  0  0  0  0  0  0  0  0
   13.3228   65.4314   25.2314 C   0  0  0  0  0  0  0  0  0  0  0  0
   12.5021   66.4684   24.8915 N   0  0  0  0  0  0  0  0  0  0  0  0
   11.3355   65.9917   24.4922 N   0  0  0  0  0  0  0  0  0  0  0  0
   11.4058   64.6364   24.5763 N   0  0  0  0  0  0  0  0  0  0  0  0
   10.2615   63.8167   24.1999 C   0  0  0  0  0  0  0  0  0  0  0  0
   12.6341   64.2558   25.0342 C   0  0  0  0  0  0  0  0  0  0  0  0
   12.5198   60.8611   26.0374 C   0  0  0  0  0  0  0  0  0  0  0  0
   12.4820   61.9206   25.0822 O   0  0  0  0  0  0  0  0  0  0  0  0
   17.6450   65.2273   25.8548 C   0  0  0  0  0  0  0  0  0  0  0  0
   17.8553   65.0500   24.3556 C   0  0  0  0  0  0  0  0  0  0  0  0
   18.2096   63.9167   23.9598 O   0  0  0  0  0  0  0  0  0  0  0  0
   17.6672   66.0300   23.6028 O   0  0  0  0  0  0  0  0  0  0  0  0
   17.4019   66.8533   23.9630 H   0  0  0  0  0  0  0  0  0  0  0  0
   14.7530   65.9733   30.7846 C   0  0  0  0  0  0  0  0  0  0  0  0
   13.8079   65.1158   31.5313 N   0  0  0  0  0  0  0  0  0  0  0  0
   13.2800   63.9304   30.8053 C   0  0  0  0  0  0  0  0  0  0  0  0
   12.1769   64.2706   29.8037 C   0  0  0  0  0  0  0  0  0  0  0  0
   11.8087   63.0677   28.9380 C   0  0  0  0  0  0  0  0  0  0  0  0
   10.9891   64.7046   30.4856 O   0  0  0  0  0  0  0  0  0  0  0  0
   10.8610   66.0636   30.7595 C   0  0  0  0  0  0  0  0  0  0  0  0
    9.9222   66.7865   30.0351 C   0  0  0  0  0  0  0  0  0  0  0  0
    9.7632   68.1396   30.2768 C   0  0  0  0  0  0  0  0  0  0  0  0
   10.5335   68.7728   31.2342 C   0  0  0  0  0  0  0  0  0  0  0  0
   11.4722   68.0579   31.9606 C   0  0  0  0  0  0  0  0  0  0  0  0
   11.6389   66.6948   31.7244 C   0  0  0  0  0  0  0  0  0  0  0  0
   12.8329   65.7768   32.6464 S   0  0  0  0  0  0  0  0  0  0  0  0
   12.1559   64.7154   33.3231 O   0  0  0  0  0  0  0  0  0  0  0  0
   13.6105   66.6928   33.4261 O   0  0  0  0  0  0  0  0  0  0  0  0
 19 20  1  0  0  0
 20  9  1  0  0  0
  9 18  2  0  0  0
  9 10  1  0  0  0
 10 11  2  0  0  0
 11 12  1  0  0  0
 11  8  1  0  0  0
 13 12  2  0  0  0
 18 13  1  0  0  0
 13 14  1  0  0  0
 15 14  2  0  0  0
 16 15  1  0  0  0
 17 16  1  0  0  0
 16 18  1  0  0  0
 21  8  1  0  0  0
  8  1  1  0  0  0
 22 21  1  0  0  0
 23 22  2  0  0  0
 24 22  1  0  0  0
  1  7  2  0  0  0
  1  2  1  0  0  0
  2  3  2  0  0  0
  3  4  1  0  0  0
  6  4  2  0  0  0
  4  5  1  0  0  0
  7  6  1  0  0  0
  6 26  1  0  0  0
 26 27  1  0  0  0
 28 27  1  0  0  0
 27 38  1  0  0  0
 29 28  1  0  0  0
 30 29  1  0  0  0
 29 31  1  0  0  0
 31 32  1  0  0  0
 33 32  2  0  0  0
 32 37  1  0  0  0
 33 34  1  0  0  0
 34 35  2  0  0  0
 35 36  1  0  0  0
 37 36  2  0  0  0
 37 38  1  0  0  0
 38 40  2  0  0  0
 38 39  2  0  0  0
 24 25  1  0  0  0
M  END
> <minimizedAffinity>
-10.84675

$$$$
5FNU_L6I_A_1615


 40 44  0  0  0  0  0  0  0  0999 V2000
   13.4618   65.4565   31.4451 C   0  0  0  0  0  0  0  0  0  0  0  0
   12.5360   64.6935   32.1431 C   0  0  0  0  0  0  0  0  0  0  0  0
   11.5455   63.9955   31.4722 C   0  0  0  0  0  0  0  0  0  0  0  0
   11.4540   64.0435   30.0808 C   0  0  0  0  0  0  0  0  0  0  0  0
   10.3638   63.2726   29.3803 C   0  0  0  0  0  0  0  0  0  0  0  0
   12.3810   64.8098   29.3637 C   0  0  0  0  0  0  0  0  0  0  0  0
   13.3661   65.5016   30.0608 C   0  0  0  0  0  0  0  0  0  0  0  0
   14.5511   66.2239   32.1780 C   0  0  0  0  0  0  0  0  0  0  0  0
   17.6862   64.1892   31.2661 C   0  0  0  0  0  0  0  0  0  0  0  0
   16.5057   64.9203   31.1575 C   0  0  0  0  0  0  0  0  0  0  0  0
   15.8443   65.4223   32.2823 C   0  0  0  0  0  0  0  0  0  0  0  0
   16.4002   65.1729   33.5420 C   0  0  0  0  0  0  0  0  0  0  0  0
   17.6030   64.4285   33.6582 C   0  0  0  0  0  0  0  0  0  0  0  0
   18.3328   64.0578   34.7511 N   0  0  0  0  0  0  0  0  0  0  0  0
   19.3887   63.3655   34.3592 N   0  0  0  0  0  0  0  0  0  0  0  0
   19.3382   63.2905   33.0025 N   0  0  0  0  0  0  0  0  0  0  0  0
   20.3773   62.5818   32.2669 C   0  0  0  0  0  0  0  0  0  0  0  0
   18.2349   63.9442   32.5351 C   0  0  0  0  0  0  0  0  0  0  0  0
   18.0238   64.0471   28.8933 C   0  0  0  0  0  0  0  0  0  0  0  0
   18.3947   63.6636   30.2168 O   0  0  0  0  0  0  0  0  0  0  0  0
   14.7052   67.6202   31.5627 C   0  0  0  0  0  0  0  0  0  0  0  0
   14.0428   68.7479   32.3454 C   0  0  0  0  0  0  0  0  0  0  0  0
   12.8405   68.9874   32.0930 O   0  0  0  0  0  0  0  0  0  0  0  0
   14.7211   69.3717   33.1900 O   0  0  0  0  0  0  0  0  0  0  0  0
   15.6185   69.1426   33.3318 H   0  0  0  0  0  0  0  0  0  0  0  0
   12.3356   64.9024   27.8558 C   0  0  0  0  0  0  0  0  0  0  0  0
   13.5859   64.4442   27.2132 N   0  0  0  0  0  0  0  0  0  0  0  0
   14.3409   65.4653   26.4396 C   0  0  0  0  0  0  0  0  0  0  0  0
   13.7415   65.7535   25.0636 C   0  0  0  0  0  0  0  0  0  0  0  0
   14.4186   66.9453   24.3904 C   0  0  0  0  0  0  0  0  0  0  0  0
   13.8874   64.6156   24.1986 O   0  0  0  0  0  0  0  0  0  0  0  0
   12.8700   63.6653   24.2034 C   0  0  0  0  0  0  0  0  0  0  0  0
   12.0486   63.5875   23.0863 C   0  0  0  0  0  0  0  0  0  0  0  0
   11.0257   62.6564   23.0507 C   0  0  0  0  0  0  0  0  0  0  0  0
   10.8189   61.8056   24.1205 C   0  0  0  0  0  0  0  0  0  0  0  0
   11.6345   61.8776   25.2383 C   0  0  0  0  0  0  0  0  0  0  0  0
   12.6674   62.8118   25.2827 C   0  0  0  0  0  0  0  0  0  0  0  0
   13.7113   62.9094   26.7037 S   0  0  0  0  0  0  0  0  0  0  0  0
   15.0603   62.6945   26.2834 O   0  0  0  0  0  0  0  0  0  0  0  0
   13.1742   62.0598   27.7242 O   0  0  0  0  0  0  0  0  0  0  0  0
 19 20  1  0  0  0
 20  9  1  0  0  0
  9 18  2  0  0  0
  9 10  1  0  0  0
 10 11  2  0  0  0
 11 12  1  0  0  0
 11  8  1  0  0  0
 13 12  2  0  0  0
 18 13  1  0  0  0
 13 14  1  0  0  0
 15 14  2  0  0  0
 16 15  1  0  0  0
 17 16  1  0  0  0
 16 18  1  0  0  0
 21  8  1  0  0  0
  8  1  1  0  0  0
 22 21  1  0  0  0
 23 22  2  0  0  0
 24 22  1  0  0  0
  1  7  2  0  0  0
  1  2  1  0  0  0
  2  3  2  0  0  0
  3  4  1  0  0  0
  6  4  2  0  0  0
  4  5  1  0  0  0
  7  6  1  0  0  0
  6 26  1  0  0  0
 26 27  1  0  0  0
 28 27  1  0  0  0
 27 38  1  0  0  0
 29 28  1  0  0  0
 30 29  1  0  0  0
 29 31  1  0  0  0
 31 32  1  0  0  0
 33 32  2  0  0  0
 32 37  1  0  0  0
 33 34  1  0  0  0
 34 35  2  0  0  0
 35 36  1  0  0  0
 37 36  2  0  0  0
 37 38  1  0  0  0
 38 40  2  0  0  0
 38 39  2  0  0  0
 24 25  1  0  0  0
M  END
> <minimizedAffinity>
-9.62187

$$$$
5FNU_L6I_A_1615


 40 44  0  0  0  0  0  0  0  0999 V2000
   13.1950   65.5443   31.0788 C   0  0  0  0  0  0  0  0  0  0  0  0
   12.2189   64.7802   31.7033 C   0  0  0  0  0  0  0  0  0  0  0  0
   11.2657   64.1051   30.9589 C   0  0  0  0  0  0  0  0  0  0  0  0
   11.2632   64.1776   29.5655 C   0  0  0  0  0  0  0  0  0  0  0  0
   10.2116   63.4314   28.7840 C   0  0  0  0  0  0  0  0  0  0  0  0
   12.2417   64.9454   28.9221 C   0  0  0  0  0  0  0  0  0  0  0  0
   13.1878   65.6139   29.6922 C   0  0  0  0  0  0  0  0  0  0  0  0
   14.2435   66.2865   31.8926 C   0  0  0  0  0  0  0  0  0  0  0  0
   17.4502   64.3367   31.0465 C   0  0  0  0  0  0  0  0  0  0  0  0
   16.2711   65.0659   30.9127 C   0  0  0  0  0  0  0  0  0  0  0  0
   15.5361   65.4881   32.0245 C   0  0  0  0  0  0  0  0  0  0  0  0
   16.0155   65.1593   33.2974 C   0  0  0  0  0  0  0  0  0  0  0  0
   17.2166   64.4164   33.4393 C   0  0  0  0  0  0  0  0  0  0  0  0
   17.8812   63.9788   34.5489 N   0  0  0  0  0  0  0  0  0  0  0  0
   18.9664   63.3207   34.1791 N   0  0  0  0  0  0  0  0  0  0  0  0
   19.0009   63.3355   32.8199 N   0  0  0  0  0  0  0  0  0  0  0  0
   20.0909   62.6837   32.1056 C   0  0  0  0  0  0  0  0  0  0  0  0
   17.9218   64.0116   32.3284 C   0  0  0  0  0  0  0  0  0  0  0  0
   18.1247   64.5499   28.7522 C   0  0  0  0  0  0  0  0  0  0  0  0
   18.2278   63.8863   30.0113 O   0  0  0  0  0  0  0  0  0  0  0  0
   14.4162   67.7076   31.3425 C   0  0  0  0  0  0  0  0  0  0  0  0
   13.7940   68.8094   32.1923 C   0  0  0  0  0  0  0  0  0  0  0  0
   12.5457   68.8224   32.2839 O   0  0  0  0  0  0  0  0  0  0  0  0
   14.5479   69.6362   32.7494 O   0  0  0  0  0  0  0  0  0  0  0  0
   15.4763   69.5712   32.6406 H   0  0  0  0  0  0  0  0  0  0  0  0
   12.2930   65.0641   27.4162 C   0  0  0  0  0  0  0  0  0  0  0  0
   12.5903   63.7794   26.7475 N   0  0  0  0  0  0  0  0  0  0  0  0
   13.3193   62.7685   27.5584 C   0  0  0  0  0  0  0  0  0  0  0  0
   14.8166   63.0495   27.6801 C   0  0  0  0  0  0  0  0  0  0  0  0
   15.4881   62.1128   28.6821 C   0  0  0  0  0  0  0  0  0  0  0  0
   15.4690   62.8805   26.4112 O   0  0  0  0  0  0  0  0  0  0  0  0
   15.5491   63.9890   25.5729 C   0  0  0  0  0  0  0  0  0  0  0  0
   16.7927   64.5816   25.3965 C   0  0  0  0  0  0  0  0  0  0  0  0
   16.9156   65.6853   24.5711 C   0  0  0  0  0  0  0  0  0  0  0  0
   15.8077   66.1990   23.9231 C   0  0  0  0  0  0  0  0  0  0  0  0
   14.5639   65.6130   24.0945 C   0  0  0  0  0  0  0  0  0  0  0  0
   14.4307   64.5009   24.9234 C   0  0  0  0  0  0  0  0  0  0  0  0
   12.8488   63.7483   25.1465 S   0  0  0  0  0  0  0  0  0  0  0  0
   12.9432   62.3805   24.7429 O   0  0  0  0  0  0  0  0  0  0  0  0
   11.8583   64.5738   24.5229 O   0  0  0  0  0  0  0  0  0  0  0  0
 19 20  1  0  0  0
 20  9  1  0  0  0
  9 18  2  0  0  0
  9 10  1  0  0  0
 10 11  2  0  0  0
 11 12  1  0  0  0
 11  8  1  0  0  0
 13 12  2  0  0  0
 18 13  1  0  0  0
 13 14  1  0  0  0
 15 14  2  0  0  0
 16 15  1  0  0  0
 17 16  1  0  0  0
 16 18  1  0  0  0
 21  8  1  0  0  0
  8  1  1  0  0  0
 22 21  1  0  0  0
 23 22  2  0  0  0
 24 22  1  0  0  0
  1  7  2  0  0  0
  1  2  1  0  0  0
  2  3  2  0  0  0
  3  4  1  0  0  0
  6  4  2  0  0  0
  4  5  1  0  0  0
  7  6  1  0  0  0
  6 26  1  0  0  0
 26 27  1  0  0  0
 28 27  1  0  0  0
 27 38  1  0  0  0
 29 28  1  0  0  0
 30 29  1  0  0  0
 29 31  1  0  0  0
 31 32  1  0  0  0
 33 32  2  0  0  0
 32 37  1  0  0  0
 33 34  1  0  0  0
 34 35  2  0  0  0
 35 36  1  0  0  0
 37 36  2  0  0  0
 37 38  1  0  0  0
 38 40  2  0  0  0
 38 39  2  0  0  0
 24 25  1  0  0  0
M  END
> <minimizedAffinity>
-9.34814

$$$$
5FNU_L6I_A_1615


 40 44  0  0  0  0  0  0  0  0999 V2000
   14.7681   63.8224   27.7239 C   0  0  0  0  0  0  0  0  0  0  0  0
   15.9278   63.0813   27.9050 C   0  0  0  0  0  0  0  0  0  0  0  0
   16.7272   63.2802   29.0185 C   0  0  0  0  0  0  0  0  0  0  0  0
   16.3871   64.2295   29.9828 C   0  0  0  0  0  0  0  0  0  0  0  0
   17.2788   64.4223   31.1833 C   0  0  0  0  0  0  0  0  0  0  0  0
   15.2203   64.9847   29.8127 C   0  0  0  0  0  0  0  0  0  0  0  0
   14.4345   64.7662   28.6859 C   0  0  0  0  0  0  0  0  0  0  0  0
   13.8875   63.6066   26.5030 C   0  0  0  0  0  0  0  0  0  0  0  0
   13.2698   66.1705   23.7021 C   0  0  0  0  0  0  0  0  0  0  0  0
   13.0584   65.1884   24.6668 C   0  0  0  0  0  0  0  0  0  0  0  0
   14.1046   64.6821   25.4438 C   0  0  0  0  0  0  0  0  0  0  0  0
   15.3913   65.1897   25.2314 C   0  0  0  0  0  0  0  0  0  0  0  0
   15.6120   66.1907   24.2497 C   0  0  0  0  0  0  0  0  0  0  0  0
   16.7501   66.8363   23.8593 N   0  0  0  0  0  0  0  0  0  0  0  0
   16.4589   67.6966   22.8987 N   0  0  0  0  0  0  0  0  0  0  0  0
   15.1218   67.6042   22.6693 N   0  0  0  0  0  0  0  0  0  0  0  0
   14.4914   68.4377   21.6539 C   0  0  0  0  0  0  0  0  0  0  0  0
   14.5649   66.6723   23.4967 C   0  0  0  0  0  0  0  0  0  0  0  0
   11.3076   67.5407   23.5104 C   0  0  0  0  0  0  0  0  0  0  0  0
   12.3019   66.7186   22.9008 O   0  0  0  0  0  0  0  0  0  0  0  0
   14.0417   62.1658   26.0008 C   0  0  0  0  0  0  0  0  0  0  0  0
   12.7337   61.4156   25.7785 C   0  0  0  0  0  0  0  0  0  0  0  0
   11.8473   61.9995   25.1151 O   0  0  0  0  0  0  0  0  0  0  0  0
   12.6090   60.2697   26.2620 O   0  0  0  0  0  0  0  0  0  0  0  0
   13.3121   59.8881   26.7499 H   0  0  0  0  0  0  0  0  0  0  0  0
   14.7971   66.0280   30.8211 C   0  0  0  0  0  0  0  0  0  0  0  0
   13.9567   65.4740   31.9041 N   0  0  0  0  0  0  0  0  0  0  0  0
   13.4040   64.1124   31.6772 C   0  0  0  0  0  0  0  0  0  0  0  0
   12.2004   64.0923   30.7354 C   0  0  0  0  0  0  0  0  0  0  0  0
   11.7941   62.6669   30.3677 C   0  0  0  0  0  0  0  0  0  0  0  0
   11.0678   64.7311   31.3464 O   0  0  0  0  0  0  0  0  0  0  0  0
   10.9193   66.1024   31.1573 C   0  0  0  0  0  0  0  0  0  0  0  0
    9.8920   66.5364   30.3296 C   0  0  0  0  0  0  0  0  0  0  0  0
    9.7099   67.8912   30.1154 C   0  0  0  0  0  0  0  0  0  0  0  0
   10.5446   68.8119   30.7208 C   0  0  0  0  0  0  0  0  0  0  0  0
   11.5717   68.3861   31.5478 C   0  0  0  0  0  0  0  0  0  0  0  0
   11.7623   67.0237   31.7697 C   0  0  0  0  0  0  0  0  0  0  0  0
   13.0687   66.4733   32.8227 S   0  0  0  0  0  0  0  0  0  0  0  0
   12.4954   65.7038   33.8819 O   0  0  0  0  0  0  0  0  0  0  0  0
   13.8841   67.5998   33.1657 O   0  0  0  0  0  0  0  0  0  0  0  0
 19 20  1  0  0  0
 20  9  1  0  0  0
  9 18  2  0  0  0
  9 10  1  0  0  0
 10 11  2  0  0  0
 11 12  1  0  0  0
 11  8  1  0  0  0
 13 12  2  0  0  0
 18 13  1  0  0  0
 13 14  1  0  0  0
 15 14  2  0  0  0
 16 15  1  0  0  0
 17 16  1  0  0  0
 16 18  1  0  0  0
 21  8  1  0  0  0
  8  1  1  0  0  0
 22 21  1  0  0  0
 23 22  2  0  0  0
 24 22  1  0  0  0
  1  7  2  0  0  0
  1  2  1  0  0  0
  2  3  2  0  0  0
  3  4  1  0  0  0
  6  4  2  0  0  0
  4  5  1  0  0  0
  7  6  1  0  0  0
  6 26  1  0  0  0
 26 27  1  0  0  0
 28 27  1  0  0  0
 27 38  1  0  0  0
 29 28  1  0  0  0
 30 29  1  0  0  0
 29 31  1  0  0  0
 31 32  1  0  0  0
 33 32  2  0  0  0
 32 37  1  0  0  0
 33 34  1  0  0  0
 34 35  2  0  0  0
 35 36  1  0  0  0
 37 36  2  0  0  0
 37 38  1  0  0  0
 38 40  2  0  0  0
 38 39  2  0  0  0
 24 25  1  0  0  0
M  END
> <minimizedAffinity>
-9.33600

$$$$
