2ZQ2_13U_A_501
  RCSB PDB12061707463D
Coordinates from PDB:2ZQ2:A:501 Model:1 without hydrogens
 30 32  0  0  0  0            999 V2000
   18.1440   -9.2160   12.0880   C 0  0  0  0  0  0  0  0  0  0  0  0
   18.2090   -8.3550   11.1860   O 0  0  0  0  0  0  0  0  0  0  0  0
   19.1360  -10.3680   12.3490   C 0  0  0  0  0  0  0  0  0  0  0  0
   19.6170  -11.1920   11.2710   N 0  0  0  0  0  0  0  0  0  0  0  0
   18.9480  -12.3840   10.7680   C 0  0  0  0  0  0  0  0  0  0  0  0
   17.4640  -12.2730   11.0760   C 0  0  0  0  0  0  0  0  0  0  0  0
   16.4050  -12.6450   10.0700   C 0  0  0  0  0  0  0  0  0  0  0  0
   15.8690  -13.9960    9.6210   C 0  0  0  0  0  0  0  0  0  0  0  0
   16.7480  -14.8180    8.6800   C 0  0  0  0  0  0  0  0  0  0  0  0
   18.1820  -14.8970    9.1880   C 0  0  0  0  0  0  0  0  0  0  0  0
   19.2410  -13.9450    8.6070   C 0  0  0  0  0  0  0  0  0  0  0  0
   19.5170  -12.6340    9.3730   C 0  0  0  0  0  0  0  0  0  0  0  0
   17.0770   -9.1690   12.9290   N 0  0  0  0  0  0  0  0  0  0  0  0
   16.1240   -8.1230   12.8880   C 0  0  0  0  0  0  0  0  0  0  0  0
   16.6770   -6.7160   12.8730   C 0  0  0  0  0  0  0  0  0  0  0  0
   17.6510   -6.4370   13.5740   O 0  0  0  0  0  0  0  0  0  0  0  0
   15.2700   -8.3010   14.1440   C 0  0  0  0  0  0  0  0  0  0  0  0
   15.6350   -9.6200   14.8050   C 0  0  0  0  0  0  0  0  0  0  0  0
   16.9800   -9.9810   14.1930   C 0  0  0  0  0  0  0  0  0  0  0  0
   16.0940   -5.8290   12.1060   N 0  0  0  0  0  0  0  0  0  0  0  0
   16.4830   -4.4560   12.0400   C 0  0  0  0  0  0  0  0  0  0  0  0
   17.1400   -4.2180   10.7210   C 0  0  0  0  0  0  0  0  0  0  0  0
   18.2830   -4.9340   10.3640   C 0  0  0  0  0  0  0  0  0  0  0  0
   18.8740   -4.7050    9.1490   C 0  0  0  0  0  0  0  0  0  0  0  0
   18.3670   -3.7720    8.2440   C 0  0  0  0  0  0  0  0  0  0  0  0
   19.0080   -3.5050    6.8910   C 0  0  0  0  0  0  0  0  0  0  0  0
   18.1940   -3.1330    5.9020   N 0  0  0  0  0  0  0  0  0  0  0  0
   20.3180   -3.6390    6.7170   N 0  0  0  0  0  0  0  0  0  0  0  0
   17.2220   -3.0650    8.6120   C 0  0  0  0  0  0  0  0  0  0  0  0
   16.6200   -3.2920    9.8430   C 0  0  0  0  0  0  0  0  0  0  0  0
 16 15  2  0  0  0  0
 15 20  1  0  0  0  0
 15 14  1  0  0  0  0
 20 21  1  0  0  0  0
 21 22  1  0  0  0  0
 22 30  2  0  0  0  0
 22 23  1  0  0  0  0
 30 29  1  0  0  0  0
 29 25  2  0  0  0  0
 25 26  1  0  0  0  0
 25 24  1  0  0  0  0
 26 27  2  0  0  0  0
 26 28  1  0  0  0  0
 24 23  2  0  0  0  0
 14 17  1  0  0  0  0
 14 13  1  0  0  0  0
 17 18  1  0  0  0  0
 18 19  1  0  0  0  0
 19 13  1  0  0  0  0
 13  1  1  0  0  0  0
  1  2  2  0  0  0  0
  1  3  1  0  0  0  0
  3  4  1  0  0  0  0
  4  5  1  0  0  0  0
  5  6  1  0  0  0  0
  5 12  1  0  0  0  0
  6  7  1  0  0  0  0
  7  8  1  0  0  0  0
  8  9  1  0  0  0  0
  9 10  1  0  0  0  0
 10 11  1  0  0  0  0
 11 12  1  0  0  0  0
A    1
C14
A    2
O32
A    3
C5
A    4
N21
A    5
C49
A    6
C48
A    7
C47
A    8
C46
A    9
C45
A   10
C44
A   11
C43
A   12
C42
A   13
N1
A   14
C1
A   15
C7
A   16
O22
A   17
C2
A   18
C3
A   19
C4
A   20
N23
A   21
C24
A   22
C25
A   23
C30
A   24
C29
A   25
C28
A   26
C21
A   27
N46
A   28
N47
A   29
C27
A   30
C26
M  END
>  <InstanceId>
2ZQ2_13U_A_501

>  <ChemCompId>
13U

>  <PdbId>
2ZQ2

>  <ChainId>
A

>  <ResidueNumber>
501

>  <InsertionCode>


>  <Model>
1

>  <AltIds>


>  <MissingHeavyAtoms>
0

>  <ObservedFormula>
C23 N5 O2

>  <Name>
N-cyclooctylglycyl-N-(4-carbamimidoylbenzyl)-L-prolinamide

>  <SystematicName>
(2S)-N-[(4-carbamimidoylphenyl)methyl]-1-[2-(cyclooctylamino)ethanoyl]pyrrolidine-2-carboxamide

>  <Synonyms>
(2S)-N-[(4-carbamimidoylphenyl)methyl]-1-[2-(cyclooctylamino)ethanoyl]pyrrolidine-2-carboxamide

>  <Type>
NON-POLYMER

>  <Formula>
C23 H35 N5 O2

>  <MolecularWeight>
413.556

>  <ModifiedDate>
2012-01-05

>  <Parent>


>  <OneLetterCode>


>  <SubcomponentList>
CNG PRO 00S

>  <AmbiguousFlag>
N

>  <InChI>
InChI=1S/C23H35N5O2/c24-22(25)18-12-10-17(11-13-18)15-27-23(30)20-9-6-14-28(20)21(29)16-26-19-7-4-2-1-3-5-8-19/h10-13,19-20,26H,1-9,14-16H2,(H3,24,25)(H,27,30)/t20-/m0/s1

>  <InChIKey>
MMLOIDMSBRJZAE-FQEVSTJZSA-N

>  <SMILES>
[H]/N=C(/c1ccc(cc1)CNC(=O)[C@@H]2CCCN2C(=O)CNC3CCCCCCC3)\N

$$$$
