2ZQ2_13U_A_501


 35 37  0  0  0  0  0  0  0  0999 V2000
   17.8629   -9.2884   12.4751 C   0  0  0  0  0  0  0  0  0  0  0  0
   17.9640   -8.3509   11.6565 O   0  0  0  0  0  0  0  0  0  0  0  0
   16.6947   -9.4037   13.1607 N   0  0  0  0  0  0  0  0  0  0  0  0
   15.6602   -8.4422   13.0644 C   0  0  0  0  0  0  0  0  0  0  0  0
   14.6689   -8.7985   14.1730 C   0  0  0  0  0  0  0  0  0  0  0  0
   15.0675  -10.1337   14.7798 C   0  0  0  0  0  0  0  0  0  0  0  0
   16.5097  -10.3262   14.3360 C   0  0  0  0  0  0  0  0  0  0  0  0
   16.0739   -6.9975   13.2297 C   0  0  0  0  0  0  0  0  0  0  0  0
   16.3877   -6.5776   14.3446 O   0  0  0  0  0  0  0  0  0  0  0  0
   16.0840   -6.2303   12.1684 N   0  0  0  0  0  0  0  0  0  0  0  0
   15.8590   -6.6370   11.3005 H   0  0  0  0  0  0  0  0  0  0  0  0
   16.4026   -4.8380   12.1963 C   0  0  0  0  0  0  0  0  0  0  0  0
   17.0123   -4.4704   10.8844 C   0  0  0  0  0  0  0  0  0  0  0  0
   16.3418   -3.6130   10.0115 C   0  0  0  0  0  0  0  0  0  0  0  0
   16.9152   -3.2840    8.8112 C   0  0  0  0  0  0  0  0  0  0  0  0
   18.1613   -3.7796    8.4262 C   0  0  0  0  0  0  0  0  0  0  0  0
   18.8225   -4.6335    9.3094 C   0  0  0  0  0  0  0  0  0  0  0  0
   18.2450   -4.9716   10.5265 C   0  0  0  0  0  0  0  0  0  0  0  0
   18.8142   -3.4249    7.0993 C   0  0  0  0  0  0  0  0  0  0  0  0
   20.1444   -3.5040    7.0426 N   0  0  0  0  0  0  0  0  0  0  0  0
   18.0818   -3.0564    6.0542 N   0  0  0  0  0  0  0  0  0  0  0  0
   20.6554   -3.7810    7.8372 H   0  0  0  0  0  0  0  0  0  0  0  0
   17.1016   -3.0090    6.1322 H   0  0  0  0  0  0  0  0  0  0  0  0
   18.5193   -2.8305    5.2016 H   0  0  0  0  0  0  0  0  0  0  0  0
   18.9169  -10.3707   12.7863 C   0  0  0  0  0  0  0  0  0  0  0  0
   19.3428  -11.3043   11.7766 N   0  0  0  0  0  0  0  0  0  0  0  0
   19.8445  -12.0372   12.2781 H   0  0  0  0  0  0  0  0  0  0  0  0
   18.4554  -12.0014   10.8558 C   0  0  0  0  0  0  0  0  0  0  0  0
   19.3000  -12.6876    9.7950 C   0  0  0  0  0  0  0  0  0  0  0  0
   19.0187  -14.0935    9.3300 C   0  0  0  0  0  0  0  0  0  0  0  0
   17.9710  -14.6517    8.3788 C   0  0  0  0  0  0  0  0  0  0  0  0
   16.5417  -14.7687    8.9053 C   0  0  0  0  0  0  0  0  0  0  0  0
   16.0917  -13.4789    9.5796 C   0  0  0  0  0  0  0  0  0  0  0  0
   16.1607  -13.3657   11.1119 C   0  0  0  0  0  0  0  0  0  0  0  0
   17.4209  -12.7167   11.7221 C   0  0  0  0  0  0  0  0  0  0  0  0
  9  8  2  0  0  0
  8 10  1  0  0  0
  8  4  1  0  0  0
 10 12  1  0  0  0
 12 13  1  0  0  0
 13 18  2  0  0  0
 13 14  1  0  0  0
 18 17  1  0  0  0
 17 16  2  0  0  0
 16 19  1  0  0  0
 16 15  1  0  0  0
 19 20  2  0  0  0
 19 21  1  0  0  0
 15 14  2  0  0  0
  4  5  1  0  0  0
  4  3  1  0  0  0
  5  6  1  0  0  0
  6  7  1  0  0  0
  7  3  1  0  0  0
  3  1  1  0  0  0
  1  2  2  0  0  0
  1 25  1  0  0  0
 25 26  1  0  0  0
 26 28  1  0  0  0
 28 29  1  0  0  0
 28 35  1  0  0  0
 29 30  1  0  0  0
 30 31  1  0  0  0
 31 32  1  0  0  0
 32 33  1  0  0  0
 33 34  1  0  0  0
 34 35  1  0  0  0
 26 27  1  0  0  0
 10 11  1  0  0  0
 20 22  1  0  0  0
 21 23  1  0  0  0
 21 24  1  0  0  0
M  END
> <minimizedAffinity>
-9.63956

$$$$
2ZQ2_13U_A_501


 35 37  0  0  0  0  0  0  0  0999 V2000
   17.7200   -9.3438   12.5073 C   0  0  0  0  0  0  0  0  0  0  0  0
   17.8661   -8.4134   11.6875 O   0  0  0  0  0  0  0  0  0  0  0  0
   16.5417   -9.4107   13.1819 N   0  0  0  0  0  0  0  0  0  0  0  0
   15.5472   -8.4091   13.0733 C   0  0  0  0  0  0  0  0  0  0  0  0
   14.5320   -8.7226   14.1732 C   0  0  0  0  0  0  0  0  0  0  0  0
   14.8714  -10.0709   14.7870 C   0  0  0  0  0  0  0  0  0  0  0  0
   16.3089  -10.3218   14.3576 C   0  0  0  0  0  0  0  0  0  0  0  0
   16.0163   -6.9815   13.2390 C   0  0  0  0  0  0  0  0  0  0  0  0
   16.3972   -6.5900   14.3434 O   0  0  0  0  0  0  0  0  0  0  0  0
   16.0010   -6.1983   12.1896 N   0  0  0  0  0  0  0  0  0  0  0  0
   15.7211   -6.5834   11.3279 H   0  0  0  0  0  0  0  0  0  0  0  0
   16.3669   -4.8177   12.2221 C   0  0  0  0  0  0  0  0  0  0  0  0
   17.0049   -4.4713   10.9179 C   0  0  0  0  0  0  0  0  0  0  0  0
   18.2589   -4.9866   10.5883 C   0  0  0  0  0  0  0  0  0  0  0  0
   18.8310   -4.6602    9.3866 C   0  0  0  0  0  0  0  0  0  0  0  0
   18.1966   -3.8228    8.4685 C   0  0  0  0  0  0  0  0  0  0  0  0
   16.9419   -3.3167    8.8091 C   0  0  0  0  0  0  0  0  0  0  0  0
   16.3583   -3.6430   10.0265 C   0  0  0  0  0  0  0  0  0  0  0  0
   18.8149   -3.4503    7.1299 C   0  0  0  0  0  0  0  0  0  0  0  0
   20.1411   -3.5519    7.0301 N   0  0  0  0  0  0  0  0  0  0  0  0
   18.0577   -3.0455    6.1164 N   0  0  0  0  0  0  0  0  0  0  0  0
   20.6710   -3.8556    7.8023 H   0  0  0  0  0  0  0  0  0  0  0  0
   17.0814   -2.9824    6.2259 H   0  0  0  0  0  0  0  0  0  0  0  0
   18.4729   -2.8085    5.2558 H   0  0  0  0  0  0  0  0  0  0  0  0
   18.7272  -10.4662   12.8313 C   0  0  0  0  0  0  0  0  0  0  0  0
   19.4513  -11.1388   11.7846 N   0  0  0  0  0  0  0  0  0  0  0  0
   20.3571  -11.3756   12.1893 H   0  0  0  0  0  0  0  0  0  0  0  0
   19.0041  -12.3448   11.1012 C   0  0  0  0  0  0  0  0  0  0  0  0
   17.4859  -12.3931   11.1476 C   0  0  0  0  0  0  0  0  0  0  0  0
   16.6578  -12.7820    9.9497 C   0  0  0  0  0  0  0  0  0  0  0  0
   16.3481  -14.1380    9.3335 C   0  0  0  0  0  0  0  0  0  0  0  0
   17.4545  -14.8023    8.5160 C   0  0  0  0  0  0  0  0  0  0  0  0
   18.7813  -14.7891    9.2643 C   0  0  0  0  0  0  0  0  0  0  0  0
   19.8202  -13.7031    8.9375 C   0  0  0  0  0  0  0  0  0  0  0  0
   19.8252  -12.4347    9.8167 C   0  0  0  0  0  0  0  0  0  0  0  0
  9  8  2  0  0  0
  8 10  1  0  0  0
  8  4  1  0  0  0
 10 12  1  0  0  0
 12 13  1  0  0  0
 13 18  2  0  0  0
 13 14  1  0  0  0
 18 17  1  0  0  0
 17 16  2  0  0  0
 16 19  1  0  0  0
 16 15  1  0  0  0
 19 20  2  0  0  0
 19 21  1  0  0  0
 15 14  2  0  0  0
  4  5  1  0  0  0
  4  3  1  0  0  0
  5  6  1  0  0  0
  6  7  1  0  0  0
  7  3  1  0  0  0
  3  1  1  0  0  0
  1  2  2  0  0  0
  1 25  1  0  0  0
 25 26  1  0  0  0
 26 28  1  0  0  0
 28 29  1  0  0  0
 28 35  1  0  0  0
 29 30  1  0  0  0
 30 31  1  0  0  0
 31 32  1  0  0  0
 32 33  1  0  0  0
 33 34  1  0  0  0
 34 35  1  0  0  0
 26 27  1  0  0  0
 10 11  1  0  0  0
 20 22  1  0  0  0
 21 23  1  0  0  0
 21 24  1  0  0  0
M  END
> <minimizedAffinity>
-9.51872

$$$$
2ZQ2_13U_A_501


 35 37  0  0  0  0  0  0  0  0999 V2000
   17.0225   -9.1619   13.1125 C   0  0  0  0  0  0  0  0  0  0  0  0
   15.8272   -8.8729   13.3294 O   0  0  0  0  0  0  0  0  0  0  0  0
   17.9715   -8.4903   13.8170 N   0  0  0  0  0  0  0  0  0  0  0  0
   17.6558   -7.4132   14.6798 C   0  0  0  0  0  0  0  0  0  0  0  0
   18.9982   -6.7812   15.0498 C   0  0  0  0  0  0  0  0  0  0  0  0
   20.1193   -7.6681   14.5334 C   0  0  0  0  0  0  0  0  0  0  0  0
   19.4421   -8.5578   13.5020 C   0  0  0  0  0  0  0  0  0  0  0  0
   16.7563   -6.3411   14.1079 C   0  0  0  0  0  0  0  0  0  0  0  0
   15.8435   -5.8812   14.7958 O   0  0  0  0  0  0  0  0  0  0  0  0
   16.9797   -5.9324   12.8839 N   0  0  0  0  0  0  0  0  0  0  0  0
   17.7487   -6.3133   12.4013 H   0  0  0  0  0  0  0  0  0  0  0  0
   16.1731   -4.9663   12.2081 C   0  0  0  0  0  0  0  0  0  0  0  0
   16.8669   -4.5776   10.9450 C   0  0  0  0  0  0  0  0  0  0  0  0
   18.1068   -5.1308   10.6235 C   0  0  0  0  0  0  0  0  0  0  0  0
   18.7307   -4.7647    9.4596 C   0  0  0  0  0  0  0  0  0  0  0  0
   18.1634   -3.8493    8.5725 C   0  0  0  0  0  0  0  0  0  0  0  0
   16.9221   -3.3059    8.9045 C   0  0  0  0  0  0  0  0  0  0  0  0
   16.2862   -3.6722   10.0838 C   0  0  0  0  0  0  0  0  0  0  0  0
   18.8398   -3.4319    7.2760 C   0  0  0  0  0  0  0  0  0  0  0  0
   20.1735   -3.4294    7.2663 N   0  0  0  0  0  0  0  0  0  0  0  0
   18.1236   -3.0893    6.2110 N   0  0  0  0  0  0  0  0  0  0  0  0
   20.6721   -3.6893    8.0744 H   0  0  0  0  0  0  0  0  0  0  0  0
   17.1401   -3.1027    6.2541 H   0  0  0  0  0  0  0  0  0  0  0  0
   18.5762   -2.8220    5.3786 H   0  0  0  0  0  0  0  0  0  0  0  0
   17.5602  -10.2327   12.1412 C   0  0  0  0  0  0  0  0  0  0  0  0
   17.4339  -11.6355   12.4388 N   0  0  0  0  0  0  0  0  0  0  0  0
   16.4777  -11.7577   12.7723 H   0  0  0  0  0  0  0  0  0  0  0  0
   17.6537  -12.7148   11.4858 C   0  0  0  0  0  0  0  0  0  0  0  0
   16.3029  -13.2397   11.0284 C   0  0  0  0  0  0  0  0  0  0  0  0
   16.0128  -13.5598    9.5843 C   0  0  0  0  0  0  0  0  0  0  0  0
   16.3936  -14.7508    8.7180 C   0  0  0  0  0  0  0  0  0  0  0  0
   17.8364  -14.8194    8.2207 C   0  0  0  0  0  0  0  0  0  0  0  0
   18.8258  -14.5804    9.3541 C   0  0  0  0  0  0  0  0  0  0  0  0
   19.4374  -13.1813    9.5382 C   0  0  0  0  0  0  0  0  0  0  0  0
   18.7494  -12.2293   10.5392 C   0  0  0  0  0  0  0  0  0  0  0  0
  9  8  2  0  0  0
  8 10  1  0  0  0
  8  4  1  0  0  0
 10 12  1  0  0  0
 12 13  1  0  0  0
 13 18  2  0  0  0
 13 14  1  0  0  0
 18 17  1  0  0  0
 17 16  2  0  0  0
 16 19  1  0  0  0
 16 15  1  0  0  0
 19 20  2  0  0  0
 19 21  1  0  0  0
 15 14  2  0  0  0
  4  5  1  0  0  0
  4  3  1  0  0  0
  5  6  1  0  0  0
  6  7  1  0  0  0
  7  3  1  0  0  0
  3  1  1  0  0  0
  1  2  2  0  0  0
  1 25  1  0  0  0
 25 26  1  0  0  0
 26 28  1  0  0  0
 28 29  1  0  0  0
 28 35  1  0  0  0
 29 30  1  0  0  0
 30 31  1  0  0  0
 31 32  1  0  0  0
 32 33  1  0  0  0
 33 34  1  0  0  0
 34 35  1  0  0  0
 26 27  1  0  0  0
 10 11  1  0  0  0
 20 22  1  0  0  0
 21 23  1  0  0  0
 21 24  1  0  0  0
M  END
> <minimizedAffinity>
-8.59601

$$$$
2ZQ2_13U_A_501


 35 37  0  0  0  0  0  0  0  0999 V2000
   17.8507   -9.2642   12.2923 C   0  0  0  0  0  0  0  0  0  0  0  0
   17.9098   -8.3231   11.4739 O   0  0  0  0  0  0  0  0  0  0  0  0
   16.7242   -9.3755   13.0451 N   0  0  0  0  0  0  0  0  0  0  0  0
   15.6925   -8.4066   13.0148 C   0  0  0  0  0  0  0  0  0  0  0  0
   14.7658   -8.7623   14.1781 C   0  0  0  0  0  0  0  0  0  0  0  0
   15.1902  -10.1033   14.7537 C   0  0  0  0  0  0  0  0  0  0  0  0
   16.6024  -10.3030   14.2246 C   0  0  0  0  0  0  0  0  0  0  0  0
   16.1252   -6.9656   13.1625 C   0  0  0  0  0  0  0  0  0  0  0  0
   16.5536   -6.5665   14.2465 O   0  0  0  0  0  0  0  0  0  0  0  0
   16.0280   -6.1792   12.1199 N   0  0  0  0  0  0  0  0  0  0  0  0
   15.7134   -6.5697   11.2726 H   0  0  0  0  0  0  0  0  0  0  0  0
   16.3517   -4.7880   12.1399 C   0  0  0  0  0  0  0  0  0  0  0  0
   16.9916   -4.4370   10.8378 C   0  0  0  0  0  0  0  0  0  0  0  0
   16.3450   -3.5845    9.9424 C   0  0  0  0  0  0  0  0  0  0  0  0
   16.9460   -3.2708    8.7514 C   0  0  0  0  0  0  0  0  0  0  0  0
   18.1971   -3.7773    8.3983 C   0  0  0  0  0  0  0  0  0  0  0  0
   18.8342   -4.6260    9.3038 C   0  0  0  0  0  0  0  0  0  0  0  0
   18.2288   -4.9486   10.5116 C   0  0  0  0  0  0  0  0  0  0  0  0
   18.8804   -3.4396    7.0822 C   0  0  0  0  0  0  0  0  0  0  0  0
   18.0968   -3.0222    6.0868 N   0  0  0  0  0  0  0  0  0  0  0  0
   20.1962   -3.5586    6.9450 N   0  0  0  0  0  0  0  0  0  0  0  0
   17.1250   -2.9459    6.2241 H   0  0  0  0  0  0  0  0  0  0  0  0
   20.7438   -3.8699    7.7016 H   0  0  0  0  0  0  0  0  0  0  0  0
   20.6238   -3.3354    6.0868 H   0  0  0  0  0  0  0  0  0  0  0  0
   18.9137  -10.3552   12.5354 C   0  0  0  0  0  0  0  0  0  0  0  0
   20.2275  -10.2537   11.9558 N   0  0  0  0  0  0  0  0  0  0  0  0
   20.8452   -9.9961   12.7255 H   0  0  0  0  0  0  0  0  0  0  0  0
   20.9141  -11.3266   11.2493 C   0  0  0  0  0  0  0  0  0  0  0  0
   20.3259  -11.4409    9.8527 C   0  0  0  0  0  0  0  0  0  0  0  0
   21.1883  -11.6300    8.6311 C   0  0  0  0  0  0  0  0  0  0  0  0
   21.8921  -12.8573    8.0721 C   0  0  0  0  0  0  0  0  0  0  0  0
   23.1669  -13.3137    8.7795 C   0  0  0  0  0  0  0  0  0  0  0  0
   22.9674  -13.3900   10.2878 C   0  0  0  0  0  0  0  0  0  0  0  0
   23.4405  -12.2230   11.1707 C   0  0  0  0  0  0  0  0  0  0  0  0
   22.4020  -11.1426   11.5397 C   0  0  0  0  0  0  0  0  0  0  0  0
  9  8  2  0  0  0
  8 10  1  0  0  0
  8  4  1  0  0  0
 10 12  1  0  0  0
 12 13  1  0  0  0
 13 18  2  0  0  0
 13 14  1  0  0  0
 18 17  1  0  0  0
 17 16  2  0  0  0
 16 19  1  0  0  0
 16 15  1  0  0  0
 19 20  2  0  0  0
 19 21  1  0  0  0
 15 14  2  0  0  0
  4  5  1  0  0  0
  4  3  1  0  0  0
  5  6  1  0  0  0
  6  7  1  0  0  0
  7  3  1  0  0  0
  3  1  1  0  0  0
  1  2  2  0  0  0
  1 25  1  0  0  0
 25 26  1  0  0  0
 26 28  1  0  0  0
 28 29  1  0  0  0
 28 35  1  0  0  0
 29 30  1  0  0  0
 30 31  1  0  0  0
 31 32  1  0  0  0
 32 33  1  0  0  0
 33 34  1  0  0  0
 34 35  1  0  0  0
 26 27  1  0  0  0
 10 11  1  0  0  0
 20 22  1  0  0  0
 21 23  1  0  0  0
 21 24  1  0  0  0
M  END
> <minimizedAffinity>
-8.24498

$$$$
2ZQ2_13U_A_501


 35 37  0  0  0  0  0  0  0  0999 V2000
   18.2551   -9.2960   11.8297 C   0  0  0  0  0  0  0  0  0  0  0  0
   18.1308   -8.3457   11.0292 O   0  0  0  0  0  0  0  0  0  0  0  0
   17.2709   -9.4785   12.7494 N   0  0  0  0  0  0  0  0  0  0  0  0
   16.1955   -8.5704   12.9005 C   0  0  0  0  0  0  0  0  0  0  0  0
   15.4872   -8.9891   14.1895 C   0  0  0  0  0  0  0  0  0  0  0  0
   16.0715  -10.3086   14.6664 C   0  0  0  0  0  0  0  0  0  0  0  0
   17.3901  -10.4220   13.9165 C   0  0  0  0  0  0  0  0  0  0  0  0
   16.5657   -7.1082   13.0036 C   0  0  0  0  0  0  0  0  0  0  0  0
   17.2345   -6.7154   13.9608 O   0  0  0  0  0  0  0  0  0  0  0  0
   16.1570   -6.2973   12.0600 N   0  0  0  0  0  0  0  0  0  0  0  0
   15.6584   -6.6812   11.3029 H   0  0  0  0  0  0  0  0  0  0  0  0
   16.3922   -4.8882   12.0651 C   0  0  0  0  0  0  0  0  0  0  0  0
   17.0506   -4.5185   10.7775 C   0  0  0  0  0  0  0  0  0  0  0  0
   18.3455   -4.9559   10.4975 C   0  0  0  0  0  0  0  0  0  0  0  0
   18.9360   -4.6090    9.3105 C   0  0  0  0  0  0  0  0  0  0  0  0
   18.2807   -3.8265    8.3593 C   0  0  0  0  0  0  0  0  0  0  0  0
   16.9853   -3.3982    8.6504 C   0  0  0  0  0  0  0  0  0  0  0  0
   16.3828   -3.7455    9.8527 C   0  0  0  0  0  0  0  0  0  0  0  0
   18.9189   -3.4325    7.0363 C   0  0  0  0  0  0  0  0  0  0  0  0
   18.0961   -3.0258    6.0684 N   0  0  0  0  0  0  0  0  0  0  0  0
   20.2348   -3.4945    6.8670 N   0  0  0  0  0  0  0  0  0  0  0  0
   17.1254   -2.9923    6.2293 H   0  0  0  0  0  0  0  0  0  0  0  0
   20.8121   -3.7997    7.6038 H   0  0  0  0  0  0  0  0  0  0  0  0
   20.6330   -3.2354    6.0047 H   0  0  0  0  0  0  0  0  0  0  0  0
   19.4021  -10.3260   11.8815 C   0  0  0  0  0  0  0  0  0  0  0  0
   20.7416   -9.9655   11.4966 N   0  0  0  0  0  0  0  0  0  0  0  0
   20.6391   -9.1653   10.8724 H   0  0  0  0  0  0  0  0  0  0  0  0
   21.8074   -9.6031   12.4207 C   0  0  0  0  0  0  0  0  0  0  0  0
   22.5694   -8.4223   11.8423 C   0  0  0  0  0  0  0  0  0  0  0  0
   22.9930   -7.2482   12.6873 C   0  0  0  0  0  0  0  0  0  0  0  0
   24.1384   -7.0749   13.6732 C   0  0  0  0  0  0  0  0  0  0  0  0
   23.9852   -7.7321   15.0438 C   0  0  0  0  0  0  0  0  0  0  0  0
   23.5373   -9.1826   14.9165 C   0  0  0  0  0  0  0  0  0  0  0  0
   22.0493   -9.5300   15.0907 C   0  0  0  0  0  0  0  0  0  0  0  0
   21.1852   -9.6210   13.8152 C   0  0  0  0  0  0  0  0  0  0  0  0
  9  8  2  0  0  0
  8 10  1  0  0  0
  8  4  1  0  0  0
 10 12  1  0  0  0
 12 13  1  0  0  0
 13 18  2  0  0  0
 13 14  1  0  0  0
 18 17  1  0  0  0
 17 16  2  0  0  0
 16 19  1  0  0  0
 16 15  1  0  0  0
 19 20  2  0  0  0
 19 21  1  0  0  0
 15 14  2  0  0  0
  4  5  1  0  0  0
  4  3  1  0  0  0
  5  6  1  0  0  0
  6  7  1  0  0  0
  7  3  1  0  0  0
  3  1  1  0  0  0
  1  2  2  0  0  0
  1 25  1  0  0  0
 25 26  1  0  0  0
 26 28  1  0  0  0
 28 29  1  0  0  0
 28 35  1  0  0  0
 29 30  1  0  0  0
 30 31  1  0  0  0
 31 32  1  0  0  0
 32 33  1  0  0  0
 33 34  1  0  0  0
 34 35  1  0  0  0
 26 27  1  0  0  0
 10 11  1  0  0  0
 20 22  1  0  0  0
 21 23  1  0  0  0
 21 24  1  0  0  0
M  END
> <minimizedAffinity>
-7.57232

$$$$
2ZQ2_13U_A_501


 35 37  0  0  0  0  0  0  0  0999 V2000
   18.2058   -8.4528   13.0605 C   0  0  0  0  0  0  0  0  0  0  0  0
   18.5370   -9.0023   14.1318 O   0  0  0  0  0  0  0  0  0  0  0  0
   17.6633   -7.2084   13.1316 N   0  0  0  0  0  0  0  0  0  0  0  0
   17.3579   -6.5829   14.3643 C   0  0  0  0  0  0  0  0  0  0  0  0
   16.5341   -5.3470   14.0005 C   0  0  0  0  0  0  0  0  0  0  0  0
   16.5545   -5.1680   12.4914 C   0  0  0  0  0  0  0  0  0  0  0  0
   17.0059   -6.5216   11.9642 C   0  0  0  0  0  0  0  0  0  0  0  0
   16.5760   -7.4116   15.3580 C   0  0  0  0  0  0  0  0  0  0  0  0
   16.9564   -7.4787   16.5279 O   0  0  0  0  0  0  0  0  0  0  0  0
   15.5070   -8.0395   14.9362 N   0  0  0  0  0  0  0  0  0  0  0  0
   15.2357   -7.9140   13.9982 H   0  0  0  0  0  0  0  0  0  0  0  0
   14.7115   -8.8958   15.7575 C   0  0  0  0  0  0  0  0  0  0  0  0
   15.1461  -10.3047   15.5247 C   0  0  0  0  0  0  0  0  0  0  0  0
   15.4389  -10.7474   14.2344 C   0  0  0  0  0  0  0  0  0  0  0  0
   15.8379  -12.0435   14.0370 C   0  0  0  0  0  0  0  0  0  0  0  0
   15.9656  -12.9470   15.0925 C   0  0  0  0  0  0  0  0  0  0  0  0
   15.6727  -12.4907   16.3779 C   0  0  0  0  0  0  0  0  0  0  0  0
   15.2662  -11.1785   16.5833 C   0  0  0  0  0  0  0  0  0  0  0  0
   16.4081  -14.3883   14.8934 C   0  0  0  0  0  0  0  0  0  0  0  0
   17.1443  -14.6482   13.8119 N   0  0  0  0  0  0  0  0  0  0  0  0
   16.0708  -15.3332   15.7638 N   0  0  0  0  0  0  0  0  0  0  0  0
   17.3755  -13.9227   13.1878 H   0  0  0  0  0  0  0  0  0  0  0  0
   15.5260  -15.1051   16.5515 H   0  0  0  0  0  0  0  0  0  0  0  0
   16.3655  -16.2617   15.6213 H   0  0  0  0  0  0  0  0  0  0  0  0
   18.3690   -9.0180   11.6346 C   0  0  0  0  0  0  0  0  0  0  0  0
   19.4395   -9.9255   11.3139 N   0  0  0  0  0  0  0  0  0  0  0  0
   20.0493   -9.9265   12.1315 H   0  0  0  0  0  0  0  0  0  0  0  0
   19.2677  -11.3268   10.9558 C   0  0  0  0  0  0  0  0  0  0  0  0
   17.8015  -11.6919   11.1178 C   0  0  0  0  0  0  0  0  0  0  0  0
   17.0641  -12.5247   10.1006 C   0  0  0  0  0  0  0  0  0  0  0  0
   17.0614  -14.0220    9.8323 C   0  0  0  0  0  0  0  0  0  0  0  0
   18.2764  -14.6043    9.1121 C   0  0  0  0  0  0  0  0  0  0  0  0
   19.5775  -14.1254    9.7433 C   0  0  0  0  0  0  0  0  0  0  0  0
   20.3359  -12.9488    9.1063 C   0  0  0  0  0  0  0  0  0  0  0  0
   20.0663  -11.5382    9.6713 C   0  0  0  0  0  0  0  0  0  0  0  0
  9  8  2  0  0  0
  8 10  1  0  0  0
  8  4  1  0  0  0
 10 12  1  0  0  0
 12 13  1  0  0  0
 13 18  2  0  0  0
 13 14  1  0  0  0
 18 17  1  0  0  0
 17 16  2  0  0  0
 16 19  1  0  0  0
 16 15  1  0  0  0
 19 20  2  0  0  0
 19 21  1  0  0  0
 15 14  2  0  0  0
  4  5  1  0  0  0
  4  3  1  0  0  0
  5  6  1  0  0  0
  6  7  1  0  0  0
  7  3  1  0  0  0
  3  1  1  0  0  0
  1  2  2  0  0  0
  1 25  1  0  0  0
 25 26  1  0  0  0
 26 28  1  0  0  0
 28 29  1  0  0  0
 28 35  1  0  0  0
 29 30  1  0  0  0
 30 31  1  0  0  0
 31 32  1  0  0  0
 32 33  1  0  0  0
 33 34  1  0  0  0
 34 35  1  0  0  0
 26 27  1  0  0  0
 10 11  1  0  0  0
 20 22  1  0  0  0
 21 23  1  0  0  0
 21 24  1  0  0  0
M  END
> <minimizedAffinity>
-6.88011

$$$$
2ZQ2_13U_A_501


 35 37  0  0  0  0  0  0  0  0999 V2000
   18.2435   -8.7305   12.9260 C   0  0  0  0  0  0  0  0  0  0  0  0
   17.9255   -9.2955   13.9932 O   0  0  0  0  0  0  0  0  0  0  0  0
   17.7173   -7.5010   12.6822 N   0  0  0  0  0  0  0  0  0  0  0  0
   16.7466   -6.9101   13.5263 C   0  0  0  0  0  0  0  0  0  0  0  0
   16.2360   -5.6862   12.7649 C   0  0  0  0  0  0  0  0  0  0  0  0
   17.1037   -5.4737   11.5353 C   0  0  0  0  0  0  0  0  0  0  0  0
   17.8173   -6.8044   11.3514 C   0  0  0  0  0  0  0  0  0  0  0  0
   15.5656   -7.7786   13.8960 C   0  0  0  0  0  0  0  0  0  0  0  0
   14.7399   -8.0830   13.0338 O   0  0  0  0  0  0  0  0  0  0  0  0
   15.4579   -8.1829   15.1370 N   0  0  0  0  0  0  0  0  0  0  0  0
   16.1717   -7.9360   15.7684 H   0  0  0  0  0  0  0  0  0  0  0  0
   14.3652   -8.9612   15.6280 C   0  0  0  0  0  0  0  0  0  0  0  0
   14.8605  -10.3418   15.9052 C   0  0  0  0  0  0  0  0  0  0  0  0
   15.0040  -10.7881   17.2192 C   0  0  0  0  0  0  0  0  0  0  0  0
   15.4588  -12.0587   17.4574 C   0  0  0  0  0  0  0  0  0  0  0  0
   15.7856  -12.9337   16.4210 C   0  0  0  0  0  0  0  0  0  0  0  0
   15.6348  -12.4760   15.1118 C   0  0  0  0  0  0  0  0  0  0  0  0
   15.1758  -11.1885   14.8648 C   0  0  0  0  0  0  0  0  0  0  0  0
   16.2904  -14.3473   16.6654 C   0  0  0  0  0  0  0  0  0  0  0  0
   17.0364  -14.5404   17.7542 N   0  0  0  0  0  0  0  0  0  0  0  0
   15.9940  -15.3335   15.8265 N   0  0  0  0  0  0  0  0  0  0  0  0
   17.2363  -13.7858   18.3541 H   0  0  0  0  0  0  0  0  0  0  0  0
   15.4404  -15.1544   15.0323 H   0  0  0  0  0  0  0  0  0  0  0  0
   16.3278  -16.2435   15.9989 H   0  0  0  0  0  0  0  0  0  0  0  0
   19.2052   -9.2602   11.8425 C   0  0  0  0  0  0  0  0  0  0  0  0
   19.4030  -10.6734   11.6522 N   0  0  0  0  0  0  0  0  0  0  0  0
   19.3987  -11.0771   12.5888 H   0  0  0  0  0  0  0  0  0  0  0  0
   18.5444  -11.5370   10.8531 C   0  0  0  0  0  0  0  0  0  0  0  0
   19.4002  -12.2455    9.8163 C   0  0  0  0  0  0  0  0  0  0  0  0
   19.2341  -13.7106    9.5033 C   0  0  0  0  0  0  0  0  0  0  0  0
   18.2013  -14.4542    8.6700 C   0  0  0  0  0  0  0  0  0  0  0  0
   16.8164  -14.6481    9.2850 C   0  0  0  0  0  0  0  0  0  0  0  0
   16.2766  -13.3440    9.8582 C   0  0  0  0  0  0  0  0  0  0  0  0
   16.4065  -13.0727   11.3664 C   0  0  0  0  0  0  0  0  0  0  0  0
   17.6257  -12.2538   11.8403 C   0  0  0  0  0  0  0  0  0  0  0  0
  9  8  2  0  0  0
  8 10  1  0  0  0
  8  4  1  0  0  0
 10 12  1  0  0  0
 12 13  1  0  0  0
 13 18  2  0  0  0
 13 14  1  0  0  0
 18 17  1  0  0  0
 17 16  2  0  0  0
 16 19  1  0  0  0
 16 15  1  0  0  0
 19 20  2  0  0  0
 19 21  1  0  0  0
 15 14  2  0  0  0
  4  5  1  0  0  0
  4  3  1  0  0  0
  5  6  1  0  0  0
  6  7  1  0  0  0
  7  3  1  0  0  0
  3  1  1  0  0  0
  1  2  2  0  0  0
  1 25  1  0  0  0
 25 26  1  0  0  0
 26 28  1  0  0  0
 28 29  1  0  0  0
 28 35  1  0  0  0
 29 30  1  0  0  0
 30 31  1  0  0  0
 31 32  1  0  0  0
 32 33  1  0  0  0
 33 34  1  0  0  0
 34 35  1  0  0  0
 26 27  1  0  0  0
 10 11  1  0  0  0
 20 22  1  0  0  0
 21 23  1  0  0  0
 21 24  1  0  0  0
M  END
> <minimizedAffinity>
-6.81042

$$$$
2ZQ2_13U_A_501


 35 37  0  0  0  0  0  0  0  0999 V2000
   17.2959  -10.2167   15.1495 C   0  0  0  0  0  0  0  0  0  0  0  0
   17.4760  -11.2935   14.5434 O   0  0  0  0  0  0  0  0  0  0  0  0
   16.7662   -9.1794   14.4485 N   0  0  0  0  0  0  0  0  0  0  0  0
   16.5324   -9.2468   13.0539 C   0  0  0  0  0  0  0  0  0  0  0  0
   16.1987   -7.8166   12.6276 C   0  0  0  0  0  0  0  0  0  0  0  0
   16.0422   -6.9559   13.8705 C   0  0  0  0  0  0  0  0  0  0  0  0
   16.7101   -7.7681   14.9696 C   0  0  0  0  0  0  0  0  0  0  0  0
   17.6801   -9.7497   12.2079 C   0  0  0  0  0  0  0  0  0  0  0  0
   18.6901   -9.0563   12.0777 O   0  0  0  0  0  0  0  0  0  0  0  0
   17.5602  -10.9204   11.6336 N   0  0  0  0  0  0  0  0  0  0  0  0
   16.7431  -11.4410   11.8086 H   0  0  0  0  0  0  0  0  0  0  0  0
   18.5457  -11.4864   10.7680 C   0  0  0  0  0  0  0  0  0  0  0  0
   17.9366  -12.6533   10.0641 C   0  0  0  0  0  0  0  0  0  0  0  0
   16.5496  -12.7819    9.9839 C   0  0  0  0  0  0  0  0  0  0  0  0
   16.0055  -13.8582    9.3332 C   0  0  0  0  0  0  0  0  0  0  0  0
   16.7976  -14.8411    8.7389 C   0  0  0  0  0  0  0  0  0  0  0  0
   18.1828  -14.6989    8.8237 C   0  0  0  0  0  0  0  0  0  0  0  0
   18.7395  -13.6108    9.4835 C   0  0  0  0  0  0  0  0  0  0  0  0
   16.2123  -16.0416    8.0116 C   0  0  0  0  0  0  0  0  0  0  0  0
   15.2019  -15.8042    7.1738 N   0  0  0  0  0  0  0  0  0  0  0  0
   16.6950  -17.2630    8.2102 N   0  0  0  0  0  0  0  0  0  0  0  0
   14.8696  -14.8856    7.0511 H   0  0  0  0  0  0  0  0  0  0  0  0
   17.4420  -17.4013    8.8364 H   0  0  0  0  0  0  0  0  0  0  0  0
   16.3057  -18.0301    7.7313 H   0  0  0  0  0  0  0  0  0  0  0  0
   17.5821   -9.9263   16.6371 C   0  0  0  0  0  0  0  0  0  0  0  0
   17.0418  -10.7655   17.6745 N   0  0  0  0  0  0  0  0  0  0  0  0
   17.5533  -10.5151   18.5208 H   0  0  0  0  0  0  0  0  0  0  0  0
   15.6399  -10.8107   18.0672 C   0  0  0  0  0  0  0  0  0  0  0  0
   15.0573   -9.4125   17.9447 C   0  0  0  0  0  0  0  0  0  0  0  0
   13.6983   -9.1585   17.3443 C   0  0  0  0  0  0  0  0  0  0  0  0
   12.2965   -9.3304   17.9098 C   0  0  0  0  0  0  0  0  0  0  0  0
   11.7519  -10.7545   18.0047 C   0  0  0  0  0  0  0  0  0  0  0  0
   12.7627  -11.6930   18.6513 C   0  0  0  0  0  0  0  0  0  0  0  0
   13.6474  -12.5790   17.7582 C   0  0  0  0  0  0  0  0  0  0  0  0
   15.0492  -12.0469   17.3927 C   0  0  0  0  0  0  0  0  0  0  0  0
  9  8  2  0  0  0
  8 10  1  0  0  0
  8  4  1  0  0  0
 10 12  1  0  0  0
 12 13  1  0  0  0
 13 18  2  0  0  0
 13 14  1  0  0  0
 18 17  1  0  0  0
 17 16  2  0  0  0
 16 19  1  0  0  0
 16 15  1  0  0  0
 19 20  2  0  0  0
 19 21  1  0  0  0
 15 14  2  0  0  0
  4  5  1  0  0  0
  4  3  1  0  0  0
  5  6  1  0  0  0
  6  7  1  0  0  0
  7  3  1  0  0  0
  3  1  1  0  0  0
  1  2  2  0  0  0
  1 25  1  0  0  0
 25 26  1  0  0  0
 26 28  1  0  0  0
 28 29  1  0  0  0
 28 35  1  0  0  0
 29 30  1  0  0  0
 30 31  1  0  0  0
 31 32  1  0  0  0
 32 33  1  0  0  0
 33 34  1  0  0  0
 34 35  1  0  0  0
 26 27  1  0  0  0
 10 11  1  0  0  0
 20 22  1  0  0  0
 21 23  1  0  0  0
 21 24  1  0  0  0
M  END
> <minimizedAffinity>
-6.73210

$$$$
