4G0P_U5P_A_801
  RCSB PDB12061712383D
Coordinates from PDB:4G0P:A:801 Model:1 without hydrogens
 21 22  0  0  0  0            999 V2000
   28.6990   29.2940   37.7390   N 0  0  0  0  0  0  0  0  0  0  0  0
   28.3450   27.8800   37.5700   C 0  0  0  0  0  0  0  0  0  0  0  0
   28.1870   27.3230   36.2050   N 0  0  0  0  0  0  0  0  0  0  0  0
   28.5410   28.1140   35.0440   C 0  0  0  0  0  0  0  0  0  0  0  0
   28.8120   29.5920   35.1920   C 0  0  0  0  0  0  0  0  0  0  0  0
   28.8820   30.1800   36.5800   C 0  0  0  0  0  0  0  0  0  0  0  0
   28.1100   27.1920   38.5520   O 0  0  0  0  0  0  0  0  0  0  0  0
   28.5460   27.5870   33.9430   O 0  0  0  0  0  0  0  0  0  0  0  0
   28.7280   29.9910   38.9830   C 0  0  0  0  0  0  0  0  0  0  0  0
   29.9400   30.7840   39.2230   C 0  0  0  0  0  0  0  0  0  0  0  0
   31.0760   30.0830   39.6360   O 0  0  0  0  0  0  0  0  0  0  0  0
   29.4770   31.8720   40.1160   C 0  0  0  0  0  0  0  0  0  0  0  0
   28.0180   32.0320   39.8140   C 0  0  0  0  0  0  0  0  0  0  0  0
   30.1320   32.2800   41.3560   O 0  0  0  0  0  0  0  0  0  0  0  0
   27.5820   30.8440   39.1720   O 0  0  0  0  0  0  0  0  0  0  0  0
   27.3900   33.3410   39.4520   C 0  0  0  0  0  0  0  0  0  0  0  0
   26.0640   33.2460   39.0960   O 0  0  0  0  0  0  0  0  0  0  0  0
   25.3660   34.3980   38.3100   P 0  0  0  0  0  0  0  0  0  0  0  0
   25.9180   35.7390   38.7160   O 0  0  0  0  0  0  0  0  0  0  0  0
   25.6470   34.1770   36.8000   O 0  0  0  0  0  0  0  0  0  0  0  0
   23.8370   34.3230   38.6030   O 0  0  0  0  0  0  0  0  0  0  0  0
  1  2  1  0  0  0  0
  1  6  1  0  0  0  0
  1  9  1  0  0  0  0
  2  3  1  0  0  0  0
  2  7  2  0  0  0  0
  3  4  1  0  0  0  0
  4  5  1  0  0  0  0
  4  8  2  0  0  0  0
  5  6  2  0  0  0  0
  9 10  1  0  0  0  0
  9 15  1  0  0  0  0
 10 11  1  0  0  0  0
 10 12  1  0  0  0  0
 12 13  1  0  0  0  0
 12 14  1  0  0  0  0
 13 15  1  0  0  0  0
 13 16  1  0  0  0  0
 16 17  1  0  0  0  0
 17 18  1  0  0  0  0
 18 19  2  0  0  0  0
 18 20  1  0  0  0  0
 18 21  1  0  0  0  0
A    1
N1
A    2
C2
A    3
N3
A    4
C4
A    5
C5
A    6
C6
A    7
O2
A    8
O4
A    9
C1'
A   10
C2'
A   11
O2'
A   12
C3'
A   13
C4'
A   14
O3'
A   15
O4'
A   16
C5'
A   17
O5'
A   18
P
A   19
O1P
A   20
O2P
A   21
O3P
M  END
>  <InstanceId>
4G0P_U5P_A_801

>  <ChemCompId>
U5P

>  <PdbId>
4G0P

>  <ChainId>
A

>  <ResidueNumber>
801

>  <InsertionCode>


>  <Model>
1

>  <AltIds>


>  <MissingHeavyAtoms>
0

>  <ObservedFormula>
C9 N2 O9 P

>  <Name>
URIDINE-5'-MONOPHOSPHATE

>  <SystematicName>
[(2R,3S,4R,5R)-5-(2,4-dioxopyrimidin-1-yl)-3,4-dihydroxy-oxolan-2-yl]methyl dihydrogen phosphate

>  <Synonyms>


>  <Type>
NON-POLYMER

>  <Formula>
C9 H13 N2 O9 P

>  <MolecularWeight>
324.181

>  <ModifiedDate>
2011-06-04

>  <Parent>


>  <OneLetterCode>


>  <SubcomponentList>


>  <AmbiguousFlag>
N

>  <InChI>
InChI=1S/C9H13N2O9P/c12-5-1-2-11(9(15)10-5)8-7(14)6(13)4(20-8)3-19-21(16,17)18/h1-2,4,6-8,13-14H,3H2,(H,10,12,15)(H2,16,17,18)/t4-,6-,7-,8-/m1/s1

>  <InChIKey>
DJJCXFVJDGTHFX-XVFCMESISA-N

>  <SMILES>
C1=CN(C(=O)NC1=O)[C@H]2[C@@H]([C@@H]([C@H](O2)COP(=O)(O)O)O)O

$$$$
