2OIQ_STI_A_1001
  RCSB PDB12061706313D
Coordinates from PDB:2OIQ:A:1001 Model:1 without hydrogens
 37 41  0  0  0  0            999 V2000
  -11.1220  -38.3790    4.6200   C 0  0  0  0  0  0  0  0  0  0  0  0
   -9.7790  -38.3860    5.1300   C 0  0  0  0  0  0  0  0  0  0  0  0
   -9.2980  -37.3120    5.9840   C 0  0  0  0  0  0  0  0  0  0  0  0
  -10.2170  -36.2370    6.3060   C 0  0  0  0  0  0  0  0  0  0  0  0
  -11.5040  -36.2560    5.8020   N 0  0  0  0  0  0  0  0  0  0  0  0
  -11.9780  -37.2840    4.9760   C 0  0  0  0  0  0  0  0  0  0  0  0
   -7.9150  -37.2720    6.5440   C 0  0  0  0  0  0  0  0  0  0  0  0
   -6.8940  -38.2340    6.2310   C 0  0  0  0  0  0  0  0  0  0  0  0
   -5.6290  -38.0610    6.8560   C 0  0  0  0  0  0  0  0  0  0  0  0
   -5.4180  -37.0020    7.7260   N 0  0  0  0  0  0  0  0  0  0  0  0
   -6.4260  -36.0960    8.0030   C 0  0  0  0  0  0  0  0  0  0  0  0
   -7.6360  -36.2430    7.4180   N 0  0  0  0  0  0  0  0  0  0  0  0
   -6.2570  -35.0200    8.8790   N 0  0  0  0  0  0  0  0  0  0  0  0
   -5.0470  -34.7870    9.5530   C 0  0  0  0  0  0  0  0  0  0  0  0
   -4.7380  -35.4710   10.8230   C 0  0  0  0  0  0  0  0  0  0  0  0
   -3.4860  -35.1870   11.4650   C 0  0  0  0  0  0  0  0  0  0  0  0
   -2.5540  -34.2550   10.8850   C 0  0  0  0  0  0  0  0  0  0  0  0
   -2.8490  -33.5860    9.6540   C 0  0  0  0  0  0  0  0  0  0  0  0
   -4.1170  -33.8700    8.9950   C 0  0  0  0  0  0  0  0  0  0  0  0
   -1.8690  -32.6710    9.1410   N 0  0  0  0  0  0  0  0  0  0  0  0
   -1.9080  -31.9060    7.9800   C 0  0  0  0  0  0  0  0  0  0  0  0
   -0.8600  -30.8410    7.8060   C 0  0  0  0  0  0  0  0  0  0  0  0
   -1.0090  -29.7530    6.8310   C 0  0  0  0  0  0  0  0  0  0  0  0
    0.0370  -28.7610    6.6940   C 0  0  0  0  0  0  0  0  0  0  0  0
    1.2290  -28.8560    7.5320   C 0  0  0  0  0  0  0  0  0  0  0  0
    1.3410  -29.9390    8.4860   C 0  0  0  0  0  0  0  0  0  0  0  0
    0.3270  -30.9070    8.6230   C 0  0  0  0  0  0  0  0  0  0  0  0
    2.3970  -27.8610    7.4480   C 0  0  0  0  0  0  0  0  0  0  0  0
    3.7840  -28.4040    7.2950   N 0  0  0  0  0  0  0  0  0  0  0  0
    3.8780  -29.3120    6.1010   C 0  0  0  0  0  0  0  0  0  0  0  0
    5.3100  -29.8900    5.9360   C 0  0  0  0  0  0  0  0  0  0  0  0
    6.3280  -28.7710    5.8300   N 0  0  0  0  0  0  0  0  0  0  0  0
    7.7060  -29.2570    5.6640   C 0  0  0  0  0  0  0  0  0  0  0  0
    6.2650  -27.8480    7.0440   C 0  0  0  0  0  0  0  0  0  0  0  0
    4.8180  -27.2860    7.1930   C 0  0  0  0  0  0  0  0  0  0  0  0
   -2.7290  -32.0460    7.0730   O 0  0  0  0  0  0  0  0  0  0  0  0
   -5.6940  -36.4790   11.5050   C 0  0  0  0  0  0  0  0  0  0  0  0
  1  2  2  0  0  0  0
  1  6  1  0  0  0  0
  2  3  1  0  0  0  0
  3  4  2  0  0  0  0
  3  7  1  0  0  0  0
  4  5  1  0  0  0  0
  5  6  2  0  0  0  0
  7  8  2  0  0  0  0
  7 12  1  0  0  0  0
  8  9  1  0  0  0  0
  9 10  2  0  0  0  0
 10 11  1  0  0  0  0
 11 12  2  0  0  0  0
 11 13  1  0  0  0  0
 13 14  1  0  0  0  0
 14 15  2  0  0  0  0
 14 19  1  0  0  0  0
 15 16  1  0  0  0  0
 15 37  1  0  0  0  0
 16 17  2  0  0  0  0
 17 18  1  0  0  0  0
 18 19  2  0  0  0  0
 18 20  1  0  0  0  0
 20 21  1  0  0  0  0
 21 22  1  0  0  0  0
 21 36  2  0  0  0  0
 22 23  2  0  0  0  0
 22 27  1  0  0  0  0
 23 24  1  0  0  0  0
 24 25  2  0  0  0  0
 25 26  1  0  0  0  0
 25 28  1  0  0  0  0
 26 27  2  0  0  0  0
 28 29  1  0  0  0  0
 29 30  1  0  0  0  0
 29 35  1  0  0  0  0
 30 31  1  0  0  0  0
 31 32  1  0  0  0  0
 32 33  1  0  0  0  0
 32 34  1  0  0  0  0
 34 35  1  0  0  0  0
A    1
C1
A    2
C6
A    3
C5
A    4
C4
A    5
N3
A    6
C2
A    7
C7
A    8
C12
A    9
C11
A   10
N10
A   11
C9
A   12
N8
A   13
N13
A   14
C14
A   15
C19
A   16
C18
A   17
C17
A   18
C16
A   19
C15
A   20
N21
A   21
C22
A   22
C23
A   23
C25
A   24
C26
A   25
C27
A   26
C28
A   27
C29
A   28
C46
A   29
N48
A   30
C53
A   31
C52
A   32
N51
A   33
C54
A   34
C50
A   35
C49
A   36
O29
A   37
C20
M  END
>  <InstanceId>
2OIQ_STI_A_1001

>  <ChemCompId>
STI

>  <PdbId>
2OIQ

>  <ChainId>
A

>  <ResidueNumber>
1001

>  <InsertionCode>


>  <Model>
1

>  <AltIds>


>  <MissingHeavyAtoms>
0

>  <ObservedFormula>
C29 N7 O

>  <Name>
4-(4-METHYL-PIPERAZIN-1-YLMETHYL)-N-[4-METHYL-3-(4-PYRIDIN-3-YL-PYRIMIDIN-2-YLAMINO)-PHENYL]-BENZAMIDE

>  <SystematicName>
4-[(4-methylpiperazin-1-yl)methyl]-N-[4-methyl-3-[(4-pyridin-3-ylpyrimidin-2-yl)amino]phenyl]benzamide

>  <Synonyms>
STI-571;IMATINIB

>  <Type>
NON-POLYMER

>  <Formula>
C29 H31 N7 O

>  <MolecularWeight>
493.603

>  <ModifiedDate>
2011-06-04

>  <Parent>


>  <OneLetterCode>


>  <SubcomponentList>


>  <AmbiguousFlag>
N

>  <InChI>
InChI=1S/C29H31N7O/c1-21-5-10-25(18-27(21)34-29-31-13-11-26(33-29)24-4-3-12-30-19-24)32-28(37)23-8-6-22(7-9-23)20-36-16-14-35(2)15-17-36/h3-13,18-19H,14-17,20H2,1-2H3,(H,32,37)(H,31,33,34)

>  <InChIKey>
KTUFNOKKBVMGRW-UHFFFAOYSA-N

>  <SMILES>
Cc1ccc(cc1Nc2nccc(n2)c3cccnc3)NC(=O)c4ccc(cc4)CN5CCN(CC5)C

$$$$
