2OIQ_STI_A_1001


 39 43  0  0  0  0  0  0  0  0999 V2000
   -5.1011  -34.8547    9.3472 C   0  0  0  0  0  0  0  0  0  0  0  0
   -4.7890  -35.4143   10.6760 C   0  0  0  0  0  0  0  0  0  0  0  0
   -3.5433  -35.0564   11.2928 C   0  0  0  0  0  0  0  0  0  0  0  0
   -2.6204  -34.1703   10.6318 C   0  0  0  0  0  0  0  0  0  0  0  0
   -2.9185  -33.6218    9.3433 C   0  0  0  0  0  0  0  0  0  0  0  0
   -4.1801  -33.9816    8.7096 C   0  0  0  0  0  0  0  0  0  0  0  0
   -5.7354  -36.3669   11.4455 C   0  0  0  0  0  0  0  0  0  0  0  0
   -1.9477  -32.7459    8.7508 N   0  0  0  0  0  0  0  0  0  0  0  0
   -2.1510  -31.5899    8.0045 C   0  0  0  0  0  0  0  0  0  0  0  0
   -3.2362  -31.2300    7.5473 O   0  0  0  0  0  0  0  0  0  0  0  0
   -1.0068  -32.9987    8.8924 H   0  0  0  0  0  0  0  0  0  0  0  0
   -0.9567  -30.7223    7.7153 C   0  0  0  0  0  0  0  0  0  0  0  0
    0.3470  -30.9543    8.3503 C   0  0  0  0  0  0  0  0  0  0  0  0
    1.4610  -30.0801    8.0471 C   0  0  0  0  0  0  0  0  0  0  0  0
    1.2718  -28.9771    7.1092 C   0  0  0  0  0  0  0  0  0  0  0  0
   -0.0256  -28.7802    6.4980 C   0  0  0  0  0  0  0  0  0  0  0  0
   -1.1127  -29.6270    6.7897 C   0  0  0  0  0  0  0  0  0  0  0  0
    2.3884  -27.9890    6.7375 C   0  0  0  0  0  0  0  0  0  0  0  0
    3.7877  -28.3024    7.1683 N   0  0  0  0  0  0  0  0  0  0  0  0
    4.5195  -29.0705    6.1037 C   0  0  0  0  0  0  0  0  0  0  0  0
    5.9702  -29.4105    6.5417 C   0  0  0  0  0  0  0  0  0  0  0  0
    6.7298  -28.1473    6.8981 N   0  0  0  0  0  0  0  0  0  0  0  0
    8.1164  -28.4048    7.3147 C   0  0  0  0  0  0  0  0  0  0  0  0
    6.0149  -27.3617    7.9943 C   0  0  0  0  0  0  0  0  0  0  0  0
    4.5602  -27.0382    7.5350 C   0  0  0  0  0  0  0  0  0  0  0  0
   -6.3053  -35.1643    8.6940 N   0  0  0  0  0  0  0  0  0  0  0  0
   -7.0872  -34.5833    8.8368 H   0  0  0  0  0  0  0  0  0  0  0  0
   -7.8436  -37.4953    6.3547 C   0  0  0  0  0  0  0  0  0  0  0  0
   -6.8096  -38.4678    6.1289 C   0  0  0  0  0  0  0  0  0  0  0  0
   -5.5786  -38.2736    6.8129 C   0  0  0  0  0  0  0  0  0  0  0  0
   -5.4112  -37.1852    7.6556 N   0  0  0  0  0  0  0  0  0  0  0  0
   -6.4305  -36.2699    7.8481 C   0  0  0  0  0  0  0  0  0  0  0  0
   -7.6086  -36.4368    7.2060 N   0  0  0  0  0  0  0  0  0  0  0  0
  -10.9383  -38.6545    4.2832 C   0  0  0  0  0  0  0  0  0  0  0  0
   -9.6234  -38.6434    4.8617 C   0  0  0  0  0  0  0  0  0  0  0  0
   -9.1955  -37.5544    5.7248 C   0  0  0  0  0  0  0  0  0  0  0  0
  -10.1383  -36.4831    5.9846 C   0  0  0  0  0  0  0  0  0  0  0  0
  -11.3974  -36.5196    5.4153 N   0  0  0  0  0  0  0  0  0  0  0  0
  -11.8201  -37.5623    4.5799 C   0  0  0  0  0  0  0  0  0  0  0  0
 34 35  2  0  0  0
 34 39  1  0  0  0
 35 36  1  0  0  0
 36 37  2  0  0  0
 36 28  1  0  0  0
 37 38  1  0  0  0
 38 39  2  0  0  0
 28 29  2  0  0  0
 28 33  1  0  0  0
 29 30  1  0  0  0
 30 31  2  0  0  0
 31 32  1  0  0  0
 32 33  2  0  0  0
 32 26  1  0  0  0
 26  1  1  0  0  0
  1  2  2  0  0  0
  1  6  1  0  0  0
  2  3  1  0  0  0
  2  7  1  0  0  0
  3  4  2  0  0  0
  4  5  1  0  0  0
  5  6  2  0  0  0
  5  8  1  0  0  0
  8  9  1  0  0  0
  9 12  1  0  0  0
  9 10  2  0  0  0
 12 13  2  0  0  0
 12 17  1  0  0  0
 13 14  1  0  0  0
 14 15  2  0  0  0
 15 16  1  0  0  0
 15 18  1  0  0  0
 16 17  2  0  0  0
 18 19  1  0  0  0
 19 20  1  0  0  0
 19 25  1  0  0  0
 20 21  1  0  0  0
 21 22  1  0  0  0
 22 23  1  0  0  0
 22 24  1  0  0  0
 24 25  1  0  0  0
 26 27  1  0  0  0
  8 11  1  0  0  0
M  END
> <minimizedAffinity>
-11.89654

$$$$
2OIQ_STI_A_1001


 39 43  0  0  0  0  0  0  0  0999 V2000
   -3.8691  -37.0097    8.6764 C   0  0  0  0  0  0  0  0  0  0  0  0
   -4.8276  -36.7907    9.7761 C   0  0  0  0  0  0  0  0  0  0  0  0
   -4.8570  -35.5037   10.4109 C   0  0  0  0  0  0  0  0  0  0  0  0
   -3.9735  -34.4498    9.9836 C   0  0  0  0  0  0  0  0  0  0  0  0
   -3.0427  -34.6551    8.9152 C   0  0  0  0  0  0  0  0  0  0  0  0
   -3.0053  -35.9593    8.2668 C   0  0  0  0  0  0  0  0  0  0  0  0
   -5.8087  -37.8751   10.2828 C   0  0  0  0  0  0  0  0  0  0  0  0
   -2.1967  -33.5552    8.5475 N   0  0  0  0  0  0  0  0  0  0  0  0
   -2.5367  -32.3587    7.9250 C   0  0  0  0  0  0  0  0  0  0  0  0
   -3.6217  -32.1277    7.3906 O   0  0  0  0  0  0  0  0  0  0  0  0
   -1.2429  -33.6627    8.7665 H   0  0  0  0  0  0  0  0  0  0  0  0
   -1.4987  -31.2708    7.8814 C   0  0  0  0  0  0  0  0  0  0  0  0
   -0.1509  -31.4571    8.4341 C   0  0  0  0  0  0  0  0  0  0  0  0
    0.8061  -30.3718    8.3786 C   0  0  0  0  0  0  0  0  0  0  0  0
    0.4164  -29.1031    7.7697 C   0  0  0  0  0  0  0  0  0  0  0  0
   -0.9189  -28.9556    7.2305 C   0  0  0  0  0  0  0  0  0  0  0  0
   -1.8540  -30.0076    7.2823 C   0  0  0  0  0  0  0  0  0  0  0  0
    1.3562  -27.8907    7.6786 C   0  0  0  0  0  0  0  0  0  0  0  0
    2.7479  -28.1065    7.1701 N   0  0  0  0  0  0  0  0  0  0  0  0
    3.6032  -28.7752    8.2095 C   0  0  0  0  0  0  0  0  0  0  0  0
    5.0529  -28.9966    7.6981 C   0  0  0  0  0  0  0  0  0  0  0  0
    5.0485  -29.8072    6.4165 N   0  0  0  0  0  0  0  0  0  0  0  0
    6.3971  -30.0569    5.8859 C   0  0  0  0  0  0  0  0  0  0  0  0
    4.2026  -29.1347    5.3386 C   0  0  0  0  0  0  0  0  0  0  0  0
    2.7552  -28.9169    5.8768 C   0  0  0  0  0  0  0  0  0  0  0  0
   -3.7952  -38.2457    8.0135 N   0  0  0  0  0  0  0  0  0  0  0  0
   -3.1264  -38.9050    8.3089 H   0  0  0  0  0  0  0  0  0  0  0  0
   -6.7655  -38.2250    5.9041 C   0  0  0  0  0  0  0  0  0  0  0  0
   -6.4357  -39.1557    4.8596 C   0  0  0  0  0  0  0  0  0  0  0  0
   -5.1567  -39.7729    4.9234 C   0  0  0  0  0  0  0  0  0  0  0  0
   -4.2862  -39.4721    5.9601 N   0  0  0  0  0  0  0  0  0  0  0  0
   -4.6396  -38.5707    6.9481 C   0  0  0  0  0  0  0  0  0  0  0  0
   -5.8514  -37.9726    6.9047 N   0  0  0  0  0  0  0  0  0  0  0  0
  -10.4941  -37.1918    5.4125 C   0  0  0  0  0  0  0  0  0  0  0  0
   -9.2649  -37.9251    5.2895 C   0  0  0  0  0  0  0  0  0  0  0  0
   -8.0662  -37.4983    5.9931 C   0  0  0  0  0  0  0  0  0  0  0  0
   -8.1522  -36.3123    6.8237 C   0  0  0  0  0  0  0  0  0  0  0  0
   -9.3480  -35.6263    6.9244 N   0  0  0  0  0  0  0  0  0  0  0  0
  -10.5089  -36.0263    6.2491 C   0  0  0  0  0  0  0  0  0  0  0  0
 34 35  2  0  0  0
 34 39  1  0  0  0
 35 36  1  0  0  0
 36 37  2  0  0  0
 36 28  1  0  0  0
 37 38  1  0  0  0
 38 39  2  0  0  0
 28 29  2  0  0  0
 28 33  1  0  0  0
 29 30  1  0  0  0
 30 31  2  0  0  0
 31 32  1  0  0  0
 32 33  2  0  0  0
 32 26  1  0  0  0
 26  1  1  0  0  0
  1  2  2  0  0  0
  1  6  1  0  0  0
  2  3  1  0  0  0
  2  7  1  0  0  0
  3  4  2  0  0  0
  4  5  1  0  0  0
  5  6  2  0  0  0
  5  8  1  0  0  0
  8  9  1  0  0  0
  9 12  1  0  0  0
  9 10  2  0  0  0
 12 13  2  0  0  0
 12 17  1  0  0  0
 13 14  1  0  0  0
 14 15  2  0  0  0
 15 16  1  0  0  0
 15 18  1  0  0  0
 16 17  2  0  0  0
 18 19  1  0  0  0
 19 20  1  0  0  0
 19 25  1  0  0  0
 20 21  1  0  0  0
 21 22  1  0  0  0
 22 23  1  0  0  0
 22 24  1  0  0  0
 24 25  1  0  0  0
 26 27  1  0  0  0
  8 11  1  0  0  0
M  END
> <minimizedAffinity>
-11.03730

$$$$
2OIQ_STI_A_1001


 39 43  0  0  0  0  0  0  0  0999 V2000
   -5.4877  -35.3062    8.5912 C   0  0  0  0  0  0  0  0  0  0  0  0
   -4.9591  -36.3991    9.4293 C   0  0  0  0  0  0  0  0  0  0  0  0
   -3.5660  -36.3828    9.7746 C   0  0  0  0  0  0  0  0  0  0  0  0
   -2.7044  -35.3240    9.3161 C   0  0  0  0  0  0  0  0  0  0  0  0
   -3.2117  -34.2591    8.5046 C   0  0  0  0  0  0  0  0  0  0  0  0
   -4.6244  -34.2691    8.1482 C   0  0  0  0  0  0  0  0  0  0  0  0
   -5.8276  -37.5646    9.9609 C   0  0  0  0  0  0  0  0  0  0  0  0
   -2.2896  -33.2406    8.0884 N   0  0  0  0  0  0  0  0  0  0  0  0
   -2.5147  -31.8819    7.8935 C   0  0  0  0  0  0  0  0  0  0  0  0
   -3.6255  -31.3521    7.8519 O   0  0  0  0  0  0  0  0  0  0  0  0
   -1.3697  -33.5465    7.9170 H   0  0  0  0  0  0  0  0  0  0  0  0
   -1.3168  -30.9932    7.6990 C   0  0  0  0  0  0  0  0  0  0  0  0
   -0.0067  -31.3126    8.2807 C   0  0  0  0  0  0  0  0  0  0  0  0
    1.1107  -30.4150    8.0743 C   0  0  0  0  0  0  0  0  0  0  0  0
    0.9186  -29.2010    7.2860 C   0  0  0  0  0  0  0  0  0  0  0  0
   -0.3851  -28.9193    6.7234 C   0  0  0  0  0  0  0  0  0  0  0  0
   -1.4756  -29.7886    6.9215 C   0  0  0  0  0  0  0  0  0  0  0  0
    2.0387  -28.1816    7.0260 C   0  0  0  0  0  0  0  0  0  0  0  0
    3.4576  -28.6206    7.2155 N   0  0  0  0  0  0  0  0  0  0  0  0
    4.0276  -29.1667    5.9366 C   0  0  0  0  0  0  0  0  0  0  0  0
    5.4969  -29.6348    6.1216 C   0  0  0  0  0  0  0  0  0  0  0  0
    6.3572  -28.4989    6.6407 N   0  0  0  0  0  0  0  0  0  0  0  0
    7.7650  -28.8798    6.8295 C   0  0  0  0  0  0  0  0  0  0  0  0
    5.8084  -27.9429    7.9519 C   0  0  0  0  0  0  0  0  0  0  0  0
    4.3319  -27.4864    7.7433 C   0  0  0  0  0  0  0  0  0  0  0  0
   -6.8424  -35.2643    8.2229 N   0  0  0  0  0  0  0  0  0  0  0  0
   -7.4255  -34.5836    8.6303 H   0  0  0  0  0  0  0  0  0  0  0  0
   -6.9999  -38.0102    5.8339 C   0  0  0  0  0  0  0  0  0  0  0  0
   -8.3731  -38.0011    5.4097 C   0  0  0  0  0  0  0  0  0  0  0  0
   -9.2215  -37.0169    5.9863 C   0  0  0  0  0  0  0  0  0  0  0  0
   -8.7188  -36.1172    6.9140 N   0  0  0  0  0  0  0  0  0  0  0  0
   -7.3902  -36.1569    7.2973 C   0  0  0  0  0  0  0  0  0  0  0  0
   -6.5674  -37.0860    6.7609 N   0  0  0  0  0  0  0  0  0  0  0  0
   -3.8579  -40.3044    5.5565 C   0  0  0  0  0  0  0  0  0  0  0  0
   -4.8128  -39.3755    6.0942 C   0  0  0  0  0  0  0  0  0  0  0  0
   -5.9756  -38.9679    5.3223 C   0  0  0  0  0  0  0  0  0  0  0  0
   -6.1415  -39.5306    3.9957 C   0  0  0  0  0  0  0  0  0  0  0  0
   -5.2075  -40.4229    3.5036 N   0  0  0  0  0  0  0  0  0  0  0  0
   -4.0817  -40.8211    4.2369 C   0  0  0  0  0  0  0  0  0  0  0  0
 34 35  2  0  0  0
 34 39  1  0  0  0
 35 36  1  0  0  0
 36 37  2  0  0  0
 36 28  1  0  0  0
 37 38  1  0  0  0
 38 39  2  0  0  0
 28 29  2  0  0  0
 28 33  1  0  0  0
 29 30  1  0  0  0
 30 31  2  0  0  0
 31 32  1  0  0  0
 32 33  2  0  0  0
 32 26  1  0  0  0
 26  1  1  0  0  0
  1  2  2  0  0  0
  1  6  1  0  0  0
  2  3  1  0  0  0
  2  7  1  0  0  0
  3  4  2  0  0  0
  4  5  1  0  0  0
  5  6  2  0  0  0
  5  8  1  0  0  0
  8  9  1  0  0  0
  9 12  1  0  0  0
  9 10  2  0  0  0
 12 13  2  0  0  0
 12 17  1  0  0  0
 13 14  1  0  0  0
 14 15  2  0  0  0
 15 16  1  0  0  0
 15 18  1  0  0  0
 16 17  2  0  0  0
 18 19  1  0  0  0
 19 20  1  0  0  0
 19 25  1  0  0  0
 20 21  1  0  0  0
 21 22  1  0  0  0
 22 23  1  0  0  0
 22 24  1  0  0  0
 24 25  1  0  0  0
 26 27  1  0  0  0
  8 11  1  0  0  0
M  END
> <minimizedAffinity>
-10.92783

$$$$
2OIQ_STI_A_1001


 39 43  0  0  0  0  0  0  0  0999 V2000
   -0.2719  -30.4535    8.3204 C   0  0  0  0  0  0  0  0  0  0  0  0
   -1.0004  -29.1825    8.1471 C   0  0  0  0  0  0  0  0  0  0  0  0
   -2.4001  -29.2346    7.8330 C   0  0  0  0  0  0  0  0  0  0  0  0
   -3.0783  -30.4971    7.6924 C   0  0  0  0  0  0  0  0  0  0  0  0
   -2.3775  -31.7341    7.8618 C   0  0  0  0  0  0  0  0  0  0  0  0
   -0.9561  -31.6900    8.1791 C   0  0  0  0  0  0  0  0  0  0  0  0
   -0.3371  -27.7914    8.2888 C   0  0  0  0  0  0  0  0  0  0  0  0
   -3.1242  -32.9502    7.7061 N   0  0  0  0  0  0  0  0  0  0  0  0
   -3.5474  -33.8489    8.6797 C   0  0  0  0  0  0  0  0  0  0  0  0
   -3.1643  -33.8497    9.8500 O   0  0  0  0  0  0  0  0  0  0  0  0
   -3.3713  -33.1801    6.7813 H   0  0  0  0  0  0  0  0  0  0  0  0
   -4.5303  -34.9125    8.2730 C   0  0  0  0  0  0  0  0  0  0  0  0
   -4.2146  -36.3434    8.3696 C   0  0  0  0  0  0  0  0  0  0  0  0
   -5.1924  -37.3261    7.9512 C   0  0  0  0  0  0  0  0  0  0  0  0
   -6.4844  -36.8785    7.4388 C   0  0  0  0  0  0  0  0  0  0  0  0
   -6.7641  -35.4602    7.3615 C   0  0  0  0  0  0  0  0  0  0  0  0
   -5.8165  -34.5000    7.7665 C   0  0  0  0  0  0  0  0  0  0  0  0
   -7.5780  -37.8445    6.9571 C   0  0  0  0  0  0  0  0  0  0  0  0
   -7.7355  -38.0626    5.4841 N   0  0  0  0  0  0  0  0  0  0  0  0
   -6.7238  -39.0506    4.9750 C   0  0  0  0  0  0  0  0  0  0  0  0
   -6.8700  -39.2791    3.4458 C   0  0  0  0  0  0  0  0  0  0  0  0
   -8.2746  -39.7395    3.1071 N   0  0  0  0  0  0  0  0  0  0  0  0
   -8.4731  -39.9806    1.6700 C   0  0  0  0  0  0  0  0  0  0  0  0
   -9.3185  -38.7391    3.5962 C   0  0  0  0  0  0  0  0  0  0  0  0
   -9.1478  -38.5209    5.1309 C   0  0  0  0  0  0  0  0  0  0  0  0
    1.0975  -30.4682    8.6322 N   0  0  0  0  0  0  0  0  0  0  0  0
    1.3921  -30.9097    9.4614 H   0  0  0  0  0  0  0  0  0  0  0  0
    4.2356  -28.9003    7.6488 C   0  0  0  0  0  0  0  0  0  0  0  0
    4.0591  -28.6609    6.2426 C   0  0  0  0  0  0  0  0  0  0  0  0
    2.8239  -29.0663    5.6676 C   0  0  0  0  0  0  0  0  0  0  0  0
    1.8495  -29.6633    6.4531 N   0  0  0  0  0  0  0  0  0  0  0  0
    2.0560  -29.8770    7.8042 C   0  0  0  0  0  0  0  0  0  0  0  0
    3.2244  -29.4991    8.3697 N   0  0  0  0  0  0  0  0  0  0  0  0
    7.2825  -26.9173    9.0616 C   0  0  0  0  0  0  0  0  0  0  0  0
    6.1023  -27.2263    8.3031 C   0  0  0  0  0  0  0  0  0  0  0  0
    5.4645  -28.5286    8.4100 C   0  0  0  0  0  0  0  0  0  0  0  0
    6.0556  -29.5027    9.3076 C   0  0  0  0  0  0  0  0  0  0  0  0
    7.1913  -29.1783   10.0259 N   0  0  0  0  0  0  0  0  0  0  0  0
    7.8162  -27.9278    9.9291 C   0  0  0  0  0  0  0  0  0  0  0  0
 34 35  2  0  0  0
 34 39  1  0  0  0
 35 36  1  0  0  0
 36 37  2  0  0  0
 36 28  1  0  0  0
 37 38  1  0  0  0
 38 39  2  0  0  0
 28 29  2  0  0  0
 28 33  1  0  0  0
 29 30  1  0  0  0
 30 31  2  0  0  0
 31 32  1  0  0  0
 32 33  2  0  0  0
 32 26  1  0  0  0
 26  1  1  0  0  0
  1  2  2  0  0  0
  1  6  1  0  0  0
  2  3  1  0  0  0
  2  7  1  0  0  0
  3  4  2  0  0  0
  4  5  1  0  0  0
  5  6  2  0  0  0
  5  8  1  0  0  0
  8  9  1  0  0  0
  9 12  1  0  0  0
  9 10  2  0  0  0
 12 13  2  0  0  0
 12 17  1  0  0  0
 13 14  1  0  0  0
 14 15  2  0  0  0
 15 16  1  0  0  0
 15 18  1  0  0  0
 16 17  2  0  0  0
 18 19  1  0  0  0
 19 20  1  0  0  0
 19 25  1  0  0  0
 20 21  1  0  0  0
 21 22  1  0  0  0
 22 23  1  0  0  0
 22 24  1  0  0  0
 24 25  1  0  0  0
 26 27  1  0  0  0
  8 11  1  0  0  0
M  END
> <minimizedAffinity>
-10.55105

$$$$
2OIQ_STI_A_1001


 39 43  0  0  0  0  0  0  0  0999 V2000
    2.2108  -30.1603    7.7099 C   0  0  0  0  0  0  0  0  0  0  0  0
    1.7541  -28.7616    7.8167 C   0  0  0  0  0  0  0  0  0  0  0  0
    0.3695  -28.5150    8.1033 C   0  0  0  0  0  0  0  0  0  0  0  0
   -0.5523  -29.6063    8.2847 C   0  0  0  0  0  0  0  0  0  0  0  0
   -0.1149  -30.9659    8.1849 C   0  0  0  0  0  0  0  0  0  0  0  0
    1.2887  -31.2250    7.8924 C   0  0  0  0  0  0  0  0  0  0  0  0
    2.6896  -27.5416    7.6390 C   0  0  0  0  0  0  0  0  0  0  0  0
   -1.0943  -31.9973    8.3793 N   0  0  0  0  0  0  0  0  0  0  0  0
   -2.4088  -32.0534    7.9279 C   0  0  0  0  0  0  0  0  0  0  0  0
   -3.0265  -31.1051    7.4424 O   0  0  0  0  0  0  0  0  0  0  0  0
   -0.7938  -32.7732    8.9056 H   0  0  0  0  0  0  0  0  0  0  0  0
   -3.1403  -33.3613    8.0583 C   0  0  0  0  0  0  0  0  0  0  0  0
   -2.4970  -34.5627    8.6056 C   0  0  0  0  0  0  0  0  0  0  0  0
   -3.2429  -35.8006    8.6961 C   0  0  0  0  0  0  0  0  0  0  0  0
   -4.6301  -35.8363    8.2418 C   0  0  0  0  0  0  0  0  0  0  0  0
   -5.2343  -34.6323    7.7120 C   0  0  0  0  0  0  0  0  0  0  0  0
   -4.5134  -33.4257    7.6210 C   0  0  0  0  0  0  0  0  0  0  0  0
   -5.4959  -37.1052    8.2837 C   0  0  0  0  0  0  0  0  0  0  0  0
   -6.2034  -37.5248    7.0326 N   0  0  0  0  0  0  0  0  0  0  0  0
   -5.5335  -38.7173    6.4094 C   0  0  0  0  0  0  0  0  0  0  0  0
   -6.2521  -39.1575    5.1049 C   0  0  0  0  0  0  0  0  0  0  0  0
   -7.7143  -39.4547    5.3756 N   0  0  0  0  0  0  0  0  0  0  0  0
   -8.4483  -39.8852    4.1762 C   0  0  0  0  0  0  0  0  0  0  0  0
   -8.4204  -38.2486    5.9892 C   0  0  0  0  0  0  0  0  0  0  0  0
   -7.6779  -37.8212    7.2922 C   0  0  0  0  0  0  0  0  0  0  0  0
    3.5538  -30.4662    7.4352 N   0  0  0  0  0  0  0  0  0  0  0  0
    3.8682  -30.4336    6.5028 H   0  0  0  0  0  0  0  0  0  0  0  0
    5.2728  -32.5394    9.8887 C   0  0  0  0  0  0  0  0  0  0  0  0
    6.2223  -31.6356   10.4781 C   0  0  0  0  0  0  0  0  0  0  0  0
    6.2358  -30.3015    9.9875 C   0  0  0  0  0  0  0  0  0  0  0  0
    5.3592  -29.9165    8.9843 N   0  0  0  0  0  0  0  0  0  0  0  0
    4.4587  -30.8154    8.4416 C   0  0  0  0  0  0  0  0  0  0  0  0
    4.4308  -32.0891    8.8943 N   0  0  0  0  0  0  0  0  0  0  0  0
    5.6631  -35.9438   11.7513 C   0  0  0  0  0  0  0  0  0  0  0  0
    5.8498  -34.5633   11.4006 C   0  0  0  0  0  0  0  0  0  0  0  0
    5.1201  -33.9682   10.2926 C   0  0  0  0  0  0  0  0  0  0  0  0
    4.1973  -34.8109    9.5564 C   0  0  0  0  0  0  0  0  0  0  0  0
    4.0367  -36.1359    9.9161 N   0  0  0  0  0  0  0  0  0  0  0  0
    4.7362  -36.7213   10.9799 C   0  0  0  0  0  0  0  0  0  0  0  0
 34 35  2  0  0  0
 34 39  1  0  0  0
 35 36  1  0  0  0
 36 37  2  0  0  0
 36 28  1  0  0  0
 37 38  1  0  0  0
 38 39  2  0  0  0
 28 29  2  0  0  0
 28 33  1  0  0  0
 29 30  1  0  0  0
 30 31  2  0  0  0
 31 32  1  0  0  0
 32 33  2  0  0  0
 32 26  1  0  0  0
 26  1  1  0  0  0
  1  2  2  0  0  0
  1  6  1  0  0  0
  2  3  1  0  0  0
  2  7  1  0  0  0
  3  4  2  0  0  0
  4  5  1  0  0  0
  5  6  2  0  0  0
  5  8  1  0  0  0
  8  9  1  0  0  0
  9 12  1  0  0  0
  9 10  2  0  0  0
 12 13  2  0  0  0
 12 17  1  0  0  0
 13 14  1  0  0  0
 14 15  2  0  0  0
 15 16  1  0  0  0
 15 18  1  0  0  0
 16 17  2  0  0  0
 18 19  1  0  0  0
 19 20  1  0  0  0
 19 25  1  0  0  0
 20 21  1  0  0  0
 21 22  1  0  0  0
 22 23  1  0  0  0
 22 24  1  0  0  0
 24 25  1  0  0  0
 26 27  1  0  0  0
  8 11  1  0  0  0
M  END
> <minimizedAffinity>
-10.35518

$$$$
2OIQ_STI_A_1001


 39 43  0  0  0  0  0  0  0  0999 V2000
   -3.5228  -35.9921    8.8189 C   0  0  0  0  0  0  0  0  0  0  0  0
   -4.9049  -35.5040    8.9857 C   0  0  0  0  0  0  0  0  0  0  0  0
   -5.1540  -34.0972    8.8475 C   0  0  0  0  0  0  0  0  0  0  0  0
   -4.0812  -33.1835    8.5510 C   0  0  0  0  0  0  0  0  0  0  0  0
   -2.7382  -33.6511    8.3855 C   0  0  0  0  0  0  0  0  0  0  0  0
   -2.4765  -35.0775    8.5259 C   0  0  0  0  0  0  0  0  0  0  0  0
   -6.1055  -36.4288    9.2994 C   0  0  0  0  0  0  0  0  0  0  0  0
   -1.7249  -32.6779    8.0906 N   0  0  0  0  0  0  0  0  0  0  0  0
   -1.8690  -31.3292    7.7828 C   0  0  0  0  0  0  0  0  0  0  0  0
   -2.9368  -30.7809    7.5081 O   0  0  0  0  0  0  0  0  0  0  0  0
   -0.7989  -33.0117    8.1088 H   0  0  0  0  0  0  0  0  0  0  0  0
   -0.6292  -30.4776    7.7635 C   0  0  0  0  0  0  0  0  0  0  0  0
    0.4740  -30.6857    8.7102 C   0  0  0  0  0  0  0  0  0  0  0  0
    1.6395  -29.8279    8.6572 C   0  0  0  0  0  0  0  0  0  0  0  0
    1.7022  -28.7651    7.6579 C   0  0  0  0  0  0  0  0  0  0  0  0
    0.5988  -28.5910    6.7372 C   0  0  0  0  0  0  0  0  0  0  0  0
   -0.5375  -29.4220    6.7846 C   0  0  0  0  0  0  0  0  0  0  0  0
    2.8887  -27.7963    7.5345 C   0  0  0  0  0  0  0  0  0  0  0  0
    4.2743  -28.3636    7.5492 N   0  0  0  0  0  0  0  0  0  0  0  0
    4.6048  -29.0115    6.2339 C   0  0  0  0  0  0  0  0  0  0  0  0
    6.0367  -29.6127    6.2387 C   0  0  0  0  0  0  0  0  0  0  0  0
    7.0617  -28.5468    6.5747 N   0  0  0  0  0  0  0  0  0  0  0  0
    8.4416  -29.0552    6.5872 C   0  0  0  0  0  0  0  0  0  0  0  0
    6.7576  -27.8899    7.9185 C   0  0  0  0  0  0  0  0  0  0  0  0
    5.3141  -27.3003    7.8920 C   0  0  0  0  0  0  0  0  0  0  0  0
   -3.2161  -37.3576    8.9383 N   0  0  0  0  0  0  0  0  0  0  0  0
   -2.8885  -37.6980    9.8020 H   0  0  0  0  0  0  0  0  0  0  0  0
   -4.7892  -39.0827    6.1415 C   0  0  0  0  0  0  0  0  0  0  0  0
   -3.7775  -40.0098    5.7137 C   0  0  0  0  0  0  0  0  0  0  0  0
   -2.5488  -40.0014    6.4285 C   0  0  0  0  0  0  0  0  0  0  0  0
   -2.3625  -39.1271    7.4886 N   0  0  0  0  0  0  0  0  0  0  0  0
   -3.3605  -38.2491    7.8715 C   0  0  0  0  0  0  0  0  0  0  0  0
   -4.5361  -38.2412    7.2038 N   0  0  0  0  0  0  0  0  0  0  0  0
   -7.7257  -39.2513    3.5802 C   0  0  0  0  0  0  0  0  0  0  0  0
   -6.4093  -39.3794    4.1410 C   0  0  0  0  0  0  0  0  0  0  0  0
   -6.1360  -38.9677    5.5085 C   0  0  0  0  0  0  0  0  0  0  0  0
   -7.2338  -38.4274    6.2874 C   0  0  0  0  0  0  0  0  0  0  0  0
   -8.4906  -38.3160    5.7226 N   0  0  0  0  0  0  0  0  0  0  0  0
   -8.7654  -38.7068    4.4053 C   0  0  0  0  0  0  0  0  0  0  0  0
 34 35  2  0  0  0
 34 39  1  0  0  0
 35 36  1  0  0  0
 36 37  2  0  0  0
 36 28  1  0  0  0
 37 38  1  0  0  0
 38 39  2  0  0  0
 28 29  2  0  0  0
 28 33  1  0  0  0
 29 30  1  0  0  0
 30 31  2  0  0  0
 31 32  1  0  0  0
 32 33  2  0  0  0
 32 26  1  0  0  0
 26  1  1  0  0  0
  1  2  2  0  0  0
  1  6  1  0  0  0
  2  3  1  0  0  0
  2  7  1  0  0  0
  3  4  2  0  0  0
  4  5  1  0  0  0
  5  6  2  0  0  0
  5  8  1  0  0  0
  8  9  1  0  0  0
  9 12  1  0  0  0
  9 10  2  0  0  0
 12 13  2  0  0  0
 12 17  1  0  0  0
 13 14  1  0  0  0
 14 15  2  0  0  0
 15 16  1  0  0  0
 15 18  1  0  0  0
 16 17  2  0  0  0
 18 19  1  0  0  0
 19 20  1  0  0  0
 19 25  1  0  0  0
 20 21  1  0  0  0
 21 22  1  0  0  0
 22 23  1  0  0  0
 22 24  1  0  0  0
 24 25  1  0  0  0
 26 27  1  0  0  0
  8 11  1  0  0  0
M  END
> <minimizedAffinity>
-9.85905

$$$$
2OIQ_STI_A_1001


 39 43  0  0  0  0  0  0  0  0999 V2000
   -6.6617  -40.0514    4.5793 C   0  0  0  0  0  0  0  0  0  0  0  0
   -6.4137  -39.9991    3.1261 C   0  0  0  0  0  0  0  0  0  0  0  0
   -5.0832  -40.2519    2.6504 C   0  0  0  0  0  0  0  0  0  0  0  0
   -4.0156  -40.5517    3.5692 C   0  0  0  0  0  0  0  0  0  0  0  0
   -4.2503  -40.6065    4.9805 C   0  0  0  0  0  0  0  0  0  0  0  0
   -5.5976  -40.3493    5.4717 C   0  0  0  0  0  0  0  0  0  0  0  0
   -7.5134  -39.6885    2.0824 C   0  0  0  0  0  0  0  0  0  0  0  0
   -3.1346  -40.9123    5.8305 N   0  0  0  0  0  0  0  0  0  0  0  0
   -2.0045  -41.6740    5.5523 C   0  0  0  0  0  0  0  0  0  0  0  0
   -1.8702  -42.3982    4.5655 O   0  0  0  0  0  0  0  0  0  0  0  0
   -3.1749  -40.5296    6.7367 H   0  0  0  0  0  0  0  0  0  0  0  0
   -0.8679  -41.6284    6.5366 C   0  0  0  0  0  0  0  0  0  0  0  0
   -1.0639  -41.2256    7.9351 C   0  0  0  0  0  0  0  0  0  0  0  0
    0.0677  -41.1854    8.8379 C   0  0  0  0  0  0  0  0  0  0  0  0
    1.3924  -41.5492    8.3432 C   0  0  0  0  0  0  0  0  0  0  0  0
    1.5488  -41.9459    6.9598 C   0  0  0  0  0  0  0  0  0  0  0  0
    0.4519  -41.9861    6.0772 C   0  0  0  0  0  0  0  0  0  0  0  0
    2.6539  -41.5222    9.2204 C   0  0  0  0  0  0  0  0  0  0  0  0
    3.3252  -40.2054    9.4599 N   0  0  0  0  0  0  0  0  0  0  0  0
    3.8492  -40.1161   10.8658 C   0  0  0  0  0  0  0  0  0  0  0  0
    4.5401  -38.7507   11.1308 C   0  0  0  0  0  0  0  0  0  0  0  0
    5.6590  -38.5167   10.1343 N   0  0  0  0  0  0  0  0  0  0  0  0
    6.3582  -37.2394   10.3396 C   0  0  0  0  0  0  0  0  0  0  0  0
    5.1447  -38.5813    8.6987 C   0  0  0  0  0  0  0  0  0  0  0  0
    4.4500  -39.9567    8.4586 C   0  0  0  0  0  0  0  0  0  0  0  0
   -7.9425  -39.8169    5.1058 N   0  0  0  0  0  0  0  0  0  0  0  0
   -8.5900  -40.5581    5.1303 H   0  0  0  0  0  0  0  0  0  0  0  0
   -7.7119  -36.6475    6.8875 C   0  0  0  0  0  0  0  0  0  0  0  0
   -8.9946  -36.0427    6.6537 C   0  0  0  0  0  0  0  0  0  0  0  0
   -9.9198  -36.7747    5.8607 C   0  0  0  0  0  0  0  0  0  0  0  0
   -9.5733  -38.0161    5.3490 N   0  0  0  0  0  0  0  0  0  0  0  0
   -8.3284  -38.5662    5.5962 C   0  0  0  0  0  0  0  0  0  0  0  0
   -7.4341  -37.8852    6.3476 N   0  0  0  0  0  0  0  0  0  0  0  0
   -5.2332  -34.0572    8.4233 C   0  0  0  0  0  0  0  0  0  0  0  0
   -6.2802  -34.6125    7.6113 C   0  0  0  0  0  0  0  0  0  0  0  0
   -6.6309  -36.0206    7.7038 C   0  0  0  0  0  0  0  0  0  0  0  0
   -5.8930  -36.8441    8.6425 C   0  0  0  0  0  0  0  0  0  0  0  0
   -4.8908  -36.2833    9.4119 N   0  0  0  0  0  0  0  0  0  0  0  0
   -4.5420  -34.9286    9.3296 C   0  0  0  0  0  0  0  0  0  0  0  0
 34 35  2  0  0  0
 34 39  1  0  0  0
 35 36  1  0  0  0
 36 37  2  0  0  0
 36 28  1  0  0  0
 37 38  1  0  0  0
 38 39  2  0  0  0
 28 29  2  0  0  0
 28 33  1  0  0  0
 29 30  1  0  0  0
 30 31  2  0  0  0
 31 32  1  0  0  0
 32 33  2  0  0  0
 32 26  1  0  0  0
 26  1  1  0  0  0
  1  2  2  0  0  0
  1  6  1  0  0  0
  2  3  1  0  0  0
  2  7  1  0  0  0
  3  4  2  0  0  0
  4  5  1  0  0  0
  5  6  2  0  0  0
  5  8  1  0  0  0
  8  9  1  0  0  0
  9 12  1  0  0  0
  9 10  2  0  0  0
 12 13  2  0  0  0
 12 17  1  0  0  0
 13 14  1  0  0  0
 14 15  2  0  0  0
 15 16  1  0  0  0
 15 18  1  0  0  0
 16 17  2  0  0  0
 18 19  1  0  0  0
 19 20  1  0  0  0
 19 25  1  0  0  0
 20 21  1  0  0  0
 21 22  1  0  0  0
 22 23  1  0  0  0
 22 24  1  0  0  0
 24 25  1  0  0  0
 26 27  1  0  0  0
  8 11  1  0  0  0
M  END
> <minimizedAffinity>
-9.84707

$$$$
2OIQ_STI_A_1001


 39 43  0  0  0  0  0  0  0  0999 V2000
   -4.0468  -37.1130    8.6764 C   0  0  0  0  0  0  0  0  0  0  0  0
   -5.0982  -36.8671    9.6815 C   0  0  0  0  0  0  0  0  0  0  0  0
   -5.1404  -35.5856   10.3266 C   0  0  0  0  0  0  0  0  0  0  0  0
   -4.1809  -34.5628    9.9995 C   0  0  0  0  0  0  0  0  0  0  0  0
   -3.1596  -34.7943    9.0231 C   0  0  0  0  0  0  0  0  0  0  0  0
   -3.1088  -36.0931    8.3649 C   0  0  0  0  0  0  0  0  0  0  0  0
   -6.1636  -37.9174   10.0778 C   0  0  0  0  0  0  0  0  0  0  0  0
   -2.2414  -33.7246    8.7523 N   0  0  0  0  0  0  0  0  0  0  0  0
   -2.4615  -32.5333    8.0688 C   0  0  0  0  0  0  0  0  0  0  0  0
   -3.4589  -32.2859    7.3903 O   0  0  0  0  0  0  0  0  0  0  0  0
   -1.3287  -33.8519    9.0986 H   0  0  0  0  0  0  0  0  0  0  0  0
   -1.3966  -31.4736    8.1450 C   0  0  0  0  0  0  0  0  0  0  0  0
    0.0143  -31.8027    8.3851 C   0  0  0  0  0  0  0  0  0  0  0  0
    0.9975  -30.7423    8.4633 C   0  0  0  0  0  0  0  0  0  0  0  0
    0.5704  -29.3556    8.2998 C   0  0  0  0  0  0  0  0  0  0  0  0
   -0.8278  -29.0675    8.0598 C   0  0  0  0  0  0  0  0  0  0  0  0
   -1.7884  -30.0948    7.9835 C   0  0  0  0  0  0  0  0  0  0  0  0
    1.5365  -28.1634    8.3819 C   0  0  0  0  0  0  0  0  0  0  0  0
    1.7545  -27.3389    7.1512 N   0  0  0  0  0  0  0  0  0  0  0  0
    2.5687  -28.0913    6.1364 C   0  0  0  0  0  0  0  0  0  0  0  0
    2.8105  -27.2435    4.8578 C   0  0  0  0  0  0  0  0  0  0  0  0
    1.4918  -26.8009    4.2539 N   0  0  0  0  0  0  0  0  0  0  0  0
    1.6557  -25.9984    3.0326 C   0  0  0  0  0  0  0  0  0  0  0  0
    0.6570  -26.0152    5.2616 C   0  0  0  0  0  0  0  0  0  0  0  0
    0.4334  -26.8830    6.5378 C   0  0  0  0  0  0  0  0  0  0  0  0
   -3.9557  -38.3450    8.0081 N   0  0  0  0  0  0  0  0  0  0  0  0
   -3.3125  -39.0161    8.3327 H   0  0  0  0  0  0  0  0  0  0  0  0
   -6.8512  -38.3445    5.7971 C   0  0  0  0  0  0  0  0  0  0  0  0
   -6.4433  -39.2020    4.7181 C   0  0  0  0  0  0  0  0  0  0  0  0
   -5.1398  -39.7637    4.7957 C   0  0  0  0  0  0  0  0  0  0  0  0
   -4.3196  -39.4803    5.8773 N   0  0  0  0  0  0  0  0  0  0  0  0
   -4.7477  -38.6500    6.8976 C   0  0  0  0  0  0  0  0  0  0  0  0
   -5.9840  -38.1054    6.8418 N   0  0  0  0  0  0  0  0  0  0  0  0
   -9.7294  -35.8610    6.6688 C   0  0  0  0  0  0  0  0  0  0  0  0
   -8.4245  -36.4604    6.6275 C   0  0  0  0  0  0  0  0  0  0  0  0
   -8.1867  -37.6828    5.8770 C   0  0  0  0  0  0  0  0  0  0  0  0
   -9.3067  -38.2747    5.1705 C   0  0  0  0  0  0  0  0  0  0  0  0
  -10.5515  -37.6763    5.2270 N   0  0  0  0  0  0  0  0  0  0  0  0
  -10.7934  -36.4999    5.9490 C   0  0  0  0  0  0  0  0  0  0  0  0
 34 35  2  0  0  0
 34 39  1  0  0  0
 35 36  1  0  0  0
 36 37  2  0  0  0
 36 28  1  0  0  0
 37 38  1  0  0  0
 38 39  2  0  0  0
 28 29  2  0  0  0
 28 33  1  0  0  0
 29 30  1  0  0  0
 30 31  2  0  0  0
 31 32  1  0  0  0
 32 33  2  0  0  0
 32 26  1  0  0  0
 26  1  1  0  0  0
  1  2  2  0  0  0
  1  6  1  0  0  0
  2  3  1  0  0  0
  2  7  1  0  0  0
  3  4  2  0  0  0
  4  5  1  0  0  0
  5  6  2  0  0  0
  5  8  1  0  0  0
  8  9  1  0  0  0
  9 12  1  0  0  0
  9 10  2  0  0  0
 12 13  2  0  0  0
 12 17  1  0  0  0
 13 14  1  0  0  0
 14 15  2  0  0  0
 15 16  1  0  0  0
 15 18  1  0  0  0
 16 17  2  0  0  0
 18 19  1  0  0  0
 19 20  1  0  0  0
 19 25  1  0  0  0
 20 21  1  0  0  0
 21 22  1  0  0  0
 22 23  1  0  0  0
 22 24  1  0  0  0
 24 25  1  0  0  0
 26 27  1  0  0  0
  8 11  1  0  0  0
M  END
> <minimizedAffinity>
-9.81725

$$$$
2OIQ_STI_A_1001


 39 43  0  0  0  0  0  0  0  0999 V2000
   -0.5934  -30.7994    8.7002 C   0  0  0  0  0  0  0  0  0  0  0  0
   -1.1462  -29.5134    8.2345 C   0  0  0  0  0  0  0  0  0  0  0  0
   -2.4288  -29.5143    7.5902 C   0  0  0  0  0  0  0  0  0  0  0  0
   -3.1604  -30.7406    7.4044 C   0  0  0  0  0  0  0  0  0  0  0  0
   -2.6306  -31.9916    7.8563 C   0  0  0  0  0  0  0  0  0  0  0  0
   -1.3285  -31.9996    8.5098 C   0  0  0  0  0  0  0  0  0  0  0  0
   -0.4181  -28.1585    8.4057 C   0  0  0  0  0  0  0  0  0  0  0  0
   -3.4209  -33.1694    7.6347 N   0  0  0  0  0  0  0  0  0  0  0  0
   -4.0551  -33.9864    8.5646 C   0  0  0  0  0  0  0  0  0  0  0  0
   -3.8683  -33.9439    9.7810 O   0  0  0  0  0  0  0  0  0  0  0  0
   -3.5290  -33.4359    6.6931 H   0  0  0  0  0  0  0  0  0  0  0  0
   -5.0271  -35.0125    8.0496 C   0  0  0  0  0  0  0  0  0  0  0  0
   -6.3538  -34.6426    7.5403 C   0  0  0  0  0  0  0  0  0  0  0  0
   -7.2567  -35.6720    7.0691 C   0  0  0  0  0  0  0  0  0  0  0  0
   -6.8325  -37.0688    7.1055 C   0  0  0  0  0  0  0  0  0  0  0  0
   -5.5159  -37.3974    7.6097 C   0  0  0  0  0  0  0  0  0  0  0  0
   -4.6340  -36.4003    8.0699 C   0  0  0  0  0  0  0  0  0  0  0  0
   -7.7252  -38.2307    6.6424 C   0  0  0  0  0  0  0  0  0  0  0  0
   -7.9373  -38.4222    5.1726 N   0  0  0  0  0  0  0  0  0  0  0  0
   -6.8267  -39.2362    4.5700 C   0  0  0  0  0  0  0  0  0  0  0  0
   -7.0295  -39.4346    3.0431 C   0  0  0  0  0  0  0  0  0  0  0  0
   -8.3715  -40.0829    2.7629 N   0  0  0  0  0  0  0  0  0  0  0  0
   -8.6186  -40.3043    1.3302 C   0  0  0  0  0  0  0  0  0  0  0  0
   -9.5167  -39.2607    3.3478 C   0  0  0  0  0  0  0  0  0  0  0  0
   -9.2880  -39.0692    4.8784 C   0  0  0  0  0  0  0  0  0  0  0  0
    0.6548  -30.8633    9.3410 N   0  0  0  0  0  0  0  0  0  0  0  0
    0.6853  -31.0604   10.3051 H   0  0  0  0  0  0  0  0  0  0  0  0
    3.1006  -29.2322    7.1892 C   0  0  0  0  0  0  0  0  0  0  0  0
    4.2185  -30.1351    7.2158 C   0  0  0  0  0  0  0  0  0  0  0  0
    4.0824  -31.3100    8.0044 C   0  0  0  0  0  0  0  0  0  0  0  0
    2.9104  -31.5492    8.7060 N   0  0  0  0  0  0  0  0  0  0  0  0
    1.8551  -30.6562    8.6554 C   0  0  0  0  0  0  0  0  0  0  0  0
    1.9654  -29.5326    7.9115 N   0  0  0  0  0  0  0  0  0  0  0  0
    2.6112  -26.6372    4.3189 C   0  0  0  0  0  0  0  0  0  0  0  0
    2.6213  -27.8873    5.0267 C   0  0  0  0  0  0  0  0  0  0  0  0
    3.0736  -27.9615    6.4066 C   0  0  0  0  0  0  0  0  0  0  0  0
    3.5106  -26.7346    7.0450 C   0  0  0  0  0  0  0  0  0  0  0  0
    3.4898  -25.5455    6.3404 N   0  0  0  0  0  0  0  0  0  0  0  0
    3.0587  -25.4620    5.0097 C   0  0  0  0  0  0  0  0  0  0  0  0
 34 35  2  0  0  0
 34 39  1  0  0  0
 35 36  1  0  0  0
 36 37  2  0  0  0
 36 28  1  0  0  0
 37 38  1  0  0  0
 38 39  2  0  0  0
 28 29  2  0  0  0
 28 33  1  0  0  0
 29 30  1  0  0  0
 30 31  2  0  0  0
 31 32  1  0  0  0
 32 33  2  0  0  0
 32 26  1  0  0  0
 26  1  1  0  0  0
  1  2  2  0  0  0
  1  6  1  0  0  0
  2  3  1  0  0  0
  2  7  1  0  0  0
  3  4  2  0  0  0
  4  5  1  0  0  0
  5  6  2  0  0  0
  5  8  1  0  0  0
  8  9  1  0  0  0
  9 12  1  0  0  0
  9 10  2  0  0  0
 12 13  2  0  0  0
 12 17  1  0  0  0
 13 14  1  0  0  0
 14 15  2  0  0  0
 15 16  1  0  0  0
 15 18  1  0  0  0
 16 17  2  0  0  0
 18 19  1  0  0  0
 19 20  1  0  0  0
 19 25  1  0  0  0
 20 21  1  0  0  0
 21 22  1  0  0  0
 22 23  1  0  0  0
 22 24  1  0  0  0
 24 25  1  0  0  0
 26 27  1  0  0  0
  8 11  1  0  0  0
M  END
> <minimizedAffinity>
-9.76535

$$$$
2OIQ_STI_A_1001


 39 43  0  0  0  0  0  0  0  0999 V2000
   -6.0963  -36.4239    7.9656 C   0  0  0  0  0  0  0  0  0  0  0  0
   -6.1788  -37.0019    9.3204 C   0  0  0  0  0  0  0  0  0  0  0  0
   -5.4980  -36.3318   10.3918 C   0  0  0  0  0  0  0  0  0  0  0  0
   -4.7537  -35.1228   10.1513 C   0  0  0  0  0  0  0  0  0  0  0  0
   -4.6718  -34.5554    8.8393 C   0  0  0  0  0  0  0  0  0  0  0  0
   -5.3586  -35.2303    7.7459 C   0  0  0  0  0  0  0  0  0  0  0  0
   -6.9642  -38.2936    9.6516 C   0  0  0  0  0  0  0  0  0  0  0  0
   -3.9112  -33.3482    8.6813 N   0  0  0  0  0  0  0  0  0  0  0  0
   -2.5350  -33.1902    8.5556 C   0  0  0  0  0  0  0  0  0  0  0  0
   -1.7036  -34.0734    8.7676 O   0  0  0  0  0  0  0  0  0  0  0  0
   -4.4369  -32.5161    8.6588 H   0  0  0  0  0  0  0  0  0  0  0  0
   -2.0183  -31.8368    8.1503 C   0  0  0  0  0  0  0  0  0  0  0  0
   -2.8907  -30.8152    7.5573 C   0  0  0  0  0  0  0  0  0  0  0  0
   -2.3389  -29.5331    7.1718 C   0  0  0  0  0  0  0  0  0  0  0  0
   -0.9174  -29.2727    7.3807 C   0  0  0  0  0  0  0  0  0  0  0  0
   -0.0873  -30.3007    7.9720 C   0  0  0  0  0  0  0  0  0  0  0  0
   -0.6186  -31.5497    8.3483 C   0  0  0  0  0  0  0  0  0  0  0  0
   -0.2388  -27.9505    6.9901 C   0  0  0  0  0  0  0  0  0  0  0  0
    1.2154  -27.9757    6.6338 N   0  0  0  0  0  0  0  0  0  0  0  0
    2.0478  -28.4276    7.8008 C   0  0  0  0  0  0  0  0  0  0  0  0
    3.5600  -28.4493    7.4477 C   0  0  0  0  0  0  0  0  0  0  0  0
    3.8138  -29.3352    6.2433 N   0  0  0  0  0  0  0  0  0  0  0  0
    5.2331  -29.4023    5.8640 C   0  0  0  0  0  0  0  0  0  0  0  0
    2.9941  -28.8807    5.0387 C   0  0  0  0  0  0  0  0  0  0  0  0
    1.4819  -28.8603    5.4189 C   0  0  0  0  0  0  0  0  0  0  0  0
   -6.7438  -37.0309    6.8771 N   0  0  0  0  0  0  0  0  0  0  0  0
   -6.2275  -37.6284    6.2891 H   0  0  0  0  0  0  0  0  0  0  0  0
  -10.0753  -37.6341    5.5317 C   0  0  0  0  0  0  0  0  0  0  0  0
  -10.8203  -36.4841    5.9656 C   0  0  0  0  0  0  0  0  0  0  0  0
  -10.1220  -35.5136    6.7346 C   0  0  0  0  0  0  0  0  0  0  0  0
   -8.7807  -35.6941    7.0368 N   0  0  0  0  0  0  0  0  0  0  0  0
   -8.0968  -36.8147    6.6008 C   0  0  0  0  0  0  0  0  0  0  0  0
   -8.7435  -37.7495    5.8688 N   0  0  0  0  0  0  0  0  0  0  0  0
  -10.4782  -40.9223    3.4732 C   0  0  0  0  0  0  0  0  0  0  0  0
   -9.8740  -39.8821    4.2584 C   0  0  0  0  0  0  0  0  0  0  0  0
  -10.6514  -38.7396    4.7108 C   0  0  0  0  0  0  0  0  0  0  0  0
  -12.0544  -38.6858    4.3468 C   0  0  0  0  0  0  0  0  0  0  0  0
  -12.6100  -39.7010    3.5909 N   0  0  0  0  0  0  0  0  0  0  0  0
  -11.8705  -40.8054    3.1469 C   0  0  0  0  0  0  0  0  0  0  0  0
 34 35  2  0  0  0
 34 39  1  0  0  0
 35 36  1  0  0  0
 36 37  2  0  0  0
 36 28  1  0  0  0
 37 38  1  0  0  0
 38 39  2  0  0  0
 28 29  2  0  0  0
 28 33  1  0  0  0
 29 30  1  0  0  0
 30 31  2  0  0  0
 31 32  1  0  0  0
 32 33  2  0  0  0
 32 26  1  0  0  0
 26  1  1  0  0  0
  1  2  2  0  0  0
  1  6  1  0  0  0
  2  3  1  0  0  0
  2  7  1  0  0  0
  3  4  2  0  0  0
  4  5  1  0  0  0
  5  6  2  0  0  0
  5  8  1  0  0  0
  8  9  1  0  0  0
  9 12  1  0  0  0
  9 10  2  0  0  0
 12 13  2  0  0  0
 12 17  1  0  0  0
 13 14  1  0  0  0
 14 15  2  0  0  0
 15 16  1  0  0  0
 15 18  1  0  0  0
 16 17  2  0  0  0
 18 19  1  0  0  0
 19 20  1  0  0  0
 19 25  1  0  0  0
 20 21  1  0  0  0
 21 22  1  0  0  0
 22 23  1  0  0  0
 22 24  1  0  0  0
 24 25  1  0  0  0
 26 27  1  0  0  0
  8 11  1  0  0  0
M  END
> <minimizedAffinity>
-9.51380

$$$$
