5OA2_9PW_C_604
  RCSB PDB05121802173D
Coordinates from PDB:5OA2:C:604 Model:1 without hydrogens
 50 54  0  0  0  0            999 V2000
   90.3300   16.8190   77.1100   C 0  0  0  0  0  0  0  0  0  0  0  0
   91.7550   16.7100   77.7180   C 0  0  0  0  0  0  0  0  0  0  0  0
   92.5830   17.9730   77.4340   C 0  0  0  0  0  0  0  0  0  0  0  0
   89.4560   15.6280   77.5370   C 0  0  0  0  0  0  0  0  0  0  0  0
   95.9090    4.4960   82.6280   C 0  0  0  0  0  0  0  0  0  0  0  0
   95.3830    3.2260   82.4180   C 0  0  0  0  0  0  0  0  0  0  0  0
   94.3240    2.7670   83.1960   C 0  0  0  0  0  0  0  0  0  0  0  0
   93.8360    1.5440   82.9670   N 0  3  0  0  0  0  0  0  0  0  0  0
   93.0890    1.3200   81.7450   O 0  0  0  0  0  0  0  0  0  0  0  0
   94.0790    0.4630   83.9610   O 0  0  0  0  0  0  0  0  0  0  0  0
   93.7860    3.5900   84.1930   C 0  0  0  0  0  0  0  0  0  0  0  0
   94.3150    4.8690   84.4080   C 0  0  0  0  0  0  0  0  0  0  0  0
   95.3760    5.3330   83.6150   C 0  0  0  0  0  0  0  0  0  0  0  0
   95.9470    6.5730   83.7870   C 0  0  0  0  0  0  0  0  0  0  0  0
   94.9380    7.5720   84.0830   O 0  0  0  0  0  0  0  0  0  0  0  0
   95.5860    8.7680   84.5000   C 0  0  0  0  0  0  0  0  0  0  0  0
   94.7120    9.9560   84.0900   C 0  0  0  0  0  0  0  0  0  0  0  0
   95.0810   10.9810   83.3330   C 0  0  0  0  0  0  0  0  0  0  0  0
   93.4560   10.1440   84.4640   N 0  0  0  0  0  0  0  0  0  0  0  0
   93.0790   11.2260   83.9480   N 0  0  0  0  0  0  0  0  0  0  0  0
   94.0060   11.7600   83.2540   N 0  0  0  0  0  0  0  0  0  0  0  0
   93.8830   13.0760   82.5450   C 0  0  0  0  0  0  0  0  0  0  0  0
   92.5490   13.2940   81.8170   C 0  0  0  0  0  0  0  0  0  0  0  0
   92.5310   12.4960   80.6320   O 0  0  0  0  0  0  0  0  0  0  0  0
   94.0360   14.0510   83.6140   O 0  0  0  0  0  0  0  0  0  0  0  0
   94.0180   15.4010   83.1410   C 0  0  0  0  0  0  0  0  0  0  0  0
   94.4320   16.3560   84.2640   C 0  0  0  0  0  0  0  0  0  0  0  0
   93.5610   16.1940   85.3710   O 0  0  0  0  0  0  0  0  0  0  0  0
   92.6160   15.6850   82.6090   C 0  0  0  0  0  0  0  0  0  0  0  0
   92.4870   17.0570   82.1910   O 0  0  0  0  0  0  0  0  0  0  0  0
   92.3860   14.7720   81.4190   C 0  0  0  0  0  0  0  0  0  0  0  0
   91.0520   15.0070   80.9230   O 0  0  0  0  0  0  0  0  0  0  0  0
   91.0040   15.2800   79.5010   C 0  0  0  0  0  0  0  0  0  0  0  0
   89.5440   15.3810   79.0600   C 0  0  0  0  0  0  0  0  0  0  0  0
   88.8950   14.1500   79.3740   O 0  0  0  0  0  0  0  0  0  0  0  0
   91.6840   16.5080   79.1640   O 0  0  0  0  0  0  0  0  0  0  0  0
   91.8820   19.1280   77.8930   O 0  0  0  0  0  0  0  0  0  0  0  0
   90.4350   16.8600   75.6760   O 0  0  0  0  0  0  0  0  0  0  0  0
   88.0640   15.8850   77.1730   O 0  0  0  0  0  0  0  0  0  0  0  0
   87.4500   14.7380   76.5390   C 0  0  0  0  0  0  0  0  0  0  0  0
   88.0660   14.4760   75.2630   O 0  0  0  0  0  0  0  0  0  0  0  0
   87.6180   13.2410   74.7110   C 0  0  0  0  0  0  0  0  0  0  0  0
   88.4820   12.9680   73.4680   C 0  0  0  0  0  0  0  0  0  0  0  0
   88.6710   14.1890   72.7300   O 0  0  0  0  0  0  0  0  0  0  0  0
   86.1420   13.4160   74.3640   C 0  0  0  0  0  0  0  0  0  0  0  0
   85.5990   12.2160   73.7550   O 0  0  0  0  0  0  0  0  0  0  0  0
   85.3510   13.7530   75.6150   C 0  0  0  0  0  0  0  0  0  0  0  0
   84.0200   14.0950   75.2230   O 0  0  0  0  0  0  0  0  0  0  0  0
   85.9560   14.9670   76.3250   C 0  0  0  0  0  0  0  0  0  0  0  0
   85.3320   15.1620   77.5780   O 0  0  0  0  0  0  0  0  0  0  0  0
 44 43  1  0  0  0  0
 43 42  1  0  0  0  0
 46 45  1  0  0  0  0
 45 42  1  0  0  0  0
 45 47  1  0  0  0  0
 42 41  1  0  0  0  0
 48 47  1  0  0  0  0
 41 40  1  0  0  0  0
 47 49  1  0  0  0  0
 38  1  1  0  0  0  0
 49 40  1  0  0  0  0
 49 50  1  0  0  0  0
 40 39  1  0  0  0  0
  1  4  1  0  0  0  0
  1  2  1  0  0  0  0
 39  4  1  0  0  0  0
  3  2  1  0  0  0  0
  3 37  1  0  0  0  0
  4 34  1  0  0  0  0
  2 36  1  0  0  0  0
 34 35  1  0  0  0  0
 34 33  1  0  0  0  0
 36 33  1  0  0  0  0
 33 32  1  0  0  0  0
 24 23  1  0  0  0  0
 32 31  1  0  0  0  0
 31 23  1  0  0  0  0
 31 29  1  0  0  0  0
  9  8  1  0  0  0  0
 23 22  1  0  0  0  0
 30 29  1  0  0  0  0
  6  5  2  0  0  0  0
  6  7  1  0  0  0  0
 22 21  1  0  0  0  0
 22 25  1  0  0  0  0
 29 26  1  0  0  0  0
  5 13  1  0  0  0  0
  8  7  1  0  0  0  0
  8 10  2  0  0  0  0
 26 25  1  0  0  0  0
 26 27  1  0  0  0  0
  7 11  2  0  0  0  0
 21 18  1  0  0  0  0
 21 20  1  0  0  0  0
 18 17  2  0  0  0  0
 13 14  1  0  0  0  0
 13 12  2  0  0  0  0
 14 15  1  0  0  0  0
 20 19  2  0  0  0  0
 15 16  1  0  0  0  0
 17 19  1  0  0  0  0
 17 16  1  0  0  0  0
 11 12  1  0  0  0  0
 27 28  1  0  0  0  0
M  CHG  1   8   1
A    1
C4
A    2
C5
A    3
C6
A    4
C3
A    5
CBQ
A    6
CBP
A    7
CBU
A    8
NBV
A    9
OBX
A   10
OBW
A   11
CBT
A   12
CBS
A   13
CBR
A   14
CBN
A   15
OBO
A   16
CBM
A   17
CBL
A   18
CBH
A   19
NBK
A   20
NBJ
A   21
NBI
A   22
CAG
A   23
CAK
A   24
OBA
A   25
OAY
A   26
CAI
A   27
CAJ
A   28
OBB
A   29
CAH
A   30
OAZ
A   31
CAL
A   32
O1
A   33
C1
A   34
C2
A   35
O2
A   36
O5
A   37
O6
A   38
O4
A   39
O3
A   40
CAM
A   41
OBD
A   42
CAO
A   43
CAP
A   44
OBG
A   45
CAN
A   46
OBE
A   47
CAR
A   48
OBC
A   49
CAQ
A   50
OBF
M  END
>  <InstanceId>
5OA2_9PW_C_604

>  <ChemCompId>
9PW

>  <PdbId>
5OA2

>  <ChainId>
C

>  <ResidueNumber>
604

>  <InsertionCode>


>  <Model>
1

>  <AltIds>


>  <MissingHeavyAtoms>
0

>  <ObservedFormula>
C28 N4 O18

>  <Name>
[4-[[1-[(2~{R},3~{R},4~{S},5~{R},6~{R})-6-(hydroxymethyl)-4-[(2~{S},3~{R},4~{S},5~{R},6~{R})-6-(hydroxymethyl)-4-[(2~{S},3~{R},4~{S},5~{S},6~{R})-6-(hydroxymethyl)-3,4,5-tris(oxidanyl)oxan-2-yl]oxy-3,5-bis(oxidanyl)oxan-2-yl]oxy-3,5-bis(oxidanyl)oxan-2-yl]-1,2,3-triazol-4-yl]methoxymethyl]phenyl]-oxidanyl-oxidanylidene-azanium

>  <SystematicName>
[4-[[1-[(2~{R},3~{R},4~{S},5~{R},6~{R})-6-(hydroxymethyl)-4-[(2~{S},3~{R},4~{S},5~{R},6~{R})-6-(hydroxymethyl)-4-[(2~{S},3~{R},4~{S},5~{S},6~{R})-6-(hydroxymethyl)-3,4,5-tris(oxidanyl)oxan-2-yl]oxy-3,5-bis(oxidanyl)oxan-2-yl]oxy-3,5-bis(oxidanyl)oxan-2-yl]-1,2,3-triazol-4-yl]methoxymethyl]phenyl]-oxidanyl-oxidanylidene-azanium

>  <Synonyms>


>  <Type>
NON-POLYMER

>  <Formula>
C28 H41 N4 O18

>  <MolecularWeight>
721.641

>  <ModifiedDate>
2018-04-27

>  <Parent>


>  <OneLetterCode>


>  <SubcomponentList>


>  <AmbiguousFlag>
N

>  <InChI>
InChI=1S/C28H41N4O18/c33-6-14-17(36)20(39)21(40)27(47-14)50-25-19(38)16(8-35)48-28(23(25)42)49-24-18(37)15(7-34)46-26(22(24)41)31-5-12(29-30-31)10-45-9-11-1-3-13(4-2-11)32(43)44/h1-5,14-28,33-42H,6-10H2,(H,43,44)/q+1/t14-,15-,16-,17-,18-,19-,20+,21-,22-,23-,24+,25+,26-,27+,28+/m1/s1

>  <InChIKey>
ZVBWPZDXYFMQRY-ZJLPYKFYSA-N

>  <SMILES>
c1cc(ccc1COCc2cn(nn2)[C@H]3[C@@H]([C@H]([C@@H]([C@H](O3)CO)O)O[C@H]4[C@@H]([C@H]([C@@H]([C@H](O4)CO)O)O[C@H]5[C@@H]([C@H]([C@@H]([C@H](O5)CO)O)O)O)O)O)[N+](=O)O

$$$$
