5OA2_9PW_C_604


 61 65  0  0  0  0  0  0  0  0999 V2000
   93.9309   13.2564   82.5501 C   0  0  0  0  0  0  0  0  0  0  0  0
   92.5956   13.4494   81.8175 C   0  0  0  0  0  0  0  0  0  0  0  0
   92.6064   12.6706   80.6197 O   0  0  0  0  0  0  0  0  0  0  0  0
   94.0507   14.2177   83.6356 O   0  0  0  0  0  0  0  0  0  0  0  0
   93.9981   15.5742   83.1843 C   0  0  0  0  0  0  0  0  0  0  0  0
   92.5918   15.8281   82.6483 C   0  0  0  0  0  0  0  0  0  0  0  0
   92.4273   17.2026   82.2517 O   0  0  0  0  0  0  0  0  0  0  0  0
   92.3940   14.9286   81.4423 C   0  0  0  0  0  0  0  0  0  0  0  0
   93.3333   12.9653   80.0490 H   0  0  0  0  0  0  0  0  0  0  0  0
   93.0696   17.4179   81.5574 H   0  0  0  0  0  0  0  0  0  0  0  0
   94.7928   10.0707   83.9347 C   0  0  0  0  0  0  0  0  0  0  0  0
   95.0801   11.0603   83.0993 C   0  0  0  0  0  0  0  0  0  0  0  0
   93.6676   10.3699   84.5650 N   0  0  0  0  0  0  0  0  0  0  0  0
   93.2859   11.4826   84.1233 N   0  0  0  0  0  0  0  0  0  0  0  0
   94.0862   11.9329   83.2385 N   0  0  0  0  0  0  0  0  0  0  0  0
   95.6259    8.8080   84.1686 C   0  0  0  0  0  0  0  0  0  0  0  0
   95.9398    8.2393   82.9028 O   0  0  0  0  0  0  0  0  0  0  0  0
   94.9340    7.2473   82.5742 C   0  0  0  0  0  0  0  0  0  0  0  0
   95.8757    6.4717   80.5321 C   0  0  0  0  0  0  0  0  0  0  0  0
   96.4482    5.4700   79.7559 C   0  0  0  0  0  0  0  0  0  0  0  0
   96.6456    4.1978   80.2851 C   0  0  0  0  0  0  0  0  0  0  0  0
   96.2637    3.9269   81.6047 C   0  0  0  0  0  0  0  0  0  0  0  0
   95.6884    4.9344   82.3895 C   0  0  0  0  0  0  0  0  0  0  0  0
   95.4811    6.2133   81.8498 C   0  0  0  0  0  0  0  0  0  0  0  0
   97.1930    3.2541   79.5130 N   0  0  0  0  0  0  0  0  0  0  0  0
   98.4968    2.7372   79.8797 O   0  0  0  0  0  0  0  0  0  0  0  0
   96.4504    2.7663   78.3188 O   0  0  0  0  0  0  0  0  0  0  0  0
   98.9354    3.0680   80.6388 H   0  0  0  0  0  0  0  0  0  0  0  0
   94.3790   16.5219   84.3251 C   0  0  0  0  0  0  0  0  0  0  0  0
   93.2345   16.7997   85.1145 O   0  0  0  0  0  0  0  0  0  0  0  0
   92.5548   17.2174   84.5628 H   0  0  0  0  0  0  0  0  0  0  0  0
   91.0569   15.1348   80.9420 O   0  0  0  0  0  0  0  0  0  0  0  0
   90.3346   16.7360   77.0358 C   0  0  0  0  0  0  0  0  0  0  0  0
   91.7632   16.6308   77.6360 C   0  0  0  0  0  0  0  0  0  0  0  0
   89.4393   15.5920   77.5402 C   0  0  0  0  0  0  0  0  0  0  0  0
   90.9999   15.3250   79.5069 C   0  0  0  0  0  0  0  0  0  0  0  0
   89.5379   15.4328   79.0742 C   0  0  0  0  0  0  0  0  0  0  0  0
   88.8654   14.2372   79.4660 O   0  0  0  0  0  0  0  0  0  0  0  0
   91.7030   16.5155   79.0920 O   0  0  0  0  0  0  0  0  0  0  0  0
   90.4254   16.6905   75.6010 O   0  0  0  0  0  0  0  0  0  0  0  0
   89.2852   13.4749   79.0376 H   0  0  0  0  0  0  0  0  0  0  0  0
   90.8245   15.8494   75.3287 H   0  0  0  0  0  0  0  0  0  0  0  0
   92.6157   17.8560   77.2706 C   0  0  0  0  0  0  0  0  0  0  0  0
   91.7749   18.9909   77.0674 O   0  0  0  0  0  0  0  0  0  0  0  0
   91.1553   18.8088   76.3436 H   0  0  0  0  0  0  0  0  0  0  0  0
   88.0495   15.8585   77.1746 O   0  0  0  0  0  0  0  0  0  0  0  0
   87.4464   14.7368   76.4870 C   0  0  0  0  0  0  0  0  0  0  0  0
   88.1967   14.4081   75.3016 O   0  0  0  0  0  0  0  0  0  0  0  0
   87.7423   13.1904   74.7174 C   0  0  0  0  0  0  0  0  0  0  0  0
   86.3343   13.4473   74.1871 C   0  0  0  0  0  0  0  0  0  0  0  0
   85.7950   12.2690   73.5340 O   0  0  0  0  0  0  0  0  0  0  0  0
   85.4185   13.8610   75.3249 C   0  0  0  0  0  0  0  0  0  0  0  0
   84.1703   14.2747   74.7654 O   0  0  0  0  0  0  0  0  0  0  0  0
   86.0076   15.0519   76.0857 C   0  0  0  0  0  0  0  0  0  0  0  0
   85.2480   15.3137   77.2483 O   0  0  0  0  0  0  0  0  0  0  0  0
   85.7353   11.5431   74.1746 H   0  0  0  0  0  0  0  0  0  0  0  0
   84.3169   15.0229   74.1657 H   0  0  0  0  0  0  0  0  0  0  0  0
   85.2645   14.5357   77.8274 H   0  0  0  0  0  0  0  0  0  0  0  0
   88.7334   12.8362   73.5956 C   0  0  0  0  0  0  0  0  0  0  0  0
   89.9578   13.5698   73.7797 O   0  0  0  0  0  0  0  0  0  0  0  0
   90.3484   13.3372   74.6366 H   0  0  0  0  0  0  0  0  0  0  0  0
 60 59  1  0  0  0
 59 49  1  0  0  0
 51 50  1  0  0  0
 50 49  1  0  0  0
 50 52  1  0  0  0
 49 48  1  0  0  0
 53 52  1  0  0  0
 48 47  1  0  0  0
 52 54  1  0  0  0
 40 33  1  0  0  0
 54 47  1  0  0  0
 54 55  1  0  0  0
 47 46  1  0  0  0
 33 35  1  0  0  0
 33 34  1  0  0  0
 46 35  1  0  0  0
 43 34  1  0  0  0
 43 44  1  0  0  0
 35 37  1  0  0  0
 34 39  1  0  0  0
 37 38  1  0  0  0
 37 36  1  0  0  0
 39 36  1  0  0  0
 36 32  1  0  0  0
  3  2  1  0  0  0
 32  8  1  0  0  0
  8  2  1  0  0  0
  8  6  1  0  0  0
 26 25  1  0  0  0
  2  1  1  0  0  0
  7  6  1  0  0  0
 20 19  2  0  0  0
 20 21  1  0  0  0
  1 15  1  0  0  0
  1  4  1  0  0  0
  6  5  1  0  0  0
 19 24  1  0  0  0
 25 21  1  0  0  0
 25 27  2  0  0  0
  5  4  1  0  0  0
  5 29  1  0  0  0
 21 22  2  0  0  0
 15 12  1  0  0  0
 15 14  1  0  0  0
 12 11  2  0  0  0
 24 18  1  0  0  0
 24 23  2  0  0  0
 18 17  1  0  0  0
 14 13  2  0  0  0
 17 16  1  0  0  0
 11 13  1  0  0  0
 11 16  1  0  0  0
 22 23  1  0  0  0
 29 30  1  0  0  0
 26 28  1  0  0  0
  3  9  1  0  0  0
 30 31  1  0  0  0
  7 10  1  0  0  0
 38 41  1  0  0  0
 44 45  1  0  0  0
 40 42  1  0  0  0
 60 61  1  0  0  0
 51 56  1  0  0  0
 53 57  1  0  0  0
 55 58  1  0  0  0
M  CHG 1  25   1
M  END
> <minimizedAffinity>
-10.66472

$$$$
5OA2_9PW_C_604


 61 65  0  0  0  0  0  0  0  0999 V2000
   93.9631   12.8828   82.4631 C   0  0  0  0  0  0  0  0  0  0  0  0
   92.7759   12.8338   81.4909 C   0  0  0  0  0  0  0  0  0  0  0  0
   93.0848   11.9328   80.4260 O   0  0  0  0  0  0  0  0  0  0  0  0
   93.7854   13.9668   83.4172 O   0  0  0  0  0  0  0  0  0  0  0  0
   93.6883   15.2486   82.7896 C   0  0  0  0  0  0  0  0  0  0  0  0
   92.3892   15.2733   81.9890 C   0  0  0  0  0  0  0  0  0  0  0  0
   92.1707   16.5658   81.3928 O   0  0  0  0  0  0  0  0  0  0  0  0
   92.5072   14.2276   80.8956 C   0  0  0  0  0  0  0  0  0  0  0  0
   93.8739   12.2456   79.9565 H   0  0  0  0  0  0  0  0  0  0  0  0
   92.9077   16.7765   80.7984 H   0  0  0  0  0  0  0  0  0  0  0  0
   94.7914    9.9029   84.2638 C   0  0  0  0  0  0  0  0  0  0  0  0
   95.0586   10.7392   83.2694 C   0  0  0  0  0  0  0  0  0  0  0  0
   93.7267   10.3504   84.9111 N   0  0  0  0  0  0  0  0  0  0  0  0
   93.3600   11.4017   84.3286 N   0  0  0  0  0  0  0  0  0  0  0  0
   94.1131   11.6722   83.3358 N   0  0  0  0  0  0  0  0  0  0  0  0
   95.5873    8.6492   84.6356 C   0  0  0  0  0  0  0  0  0  0  0  0
   95.9164    7.9574   83.4368 O   0  0  0  0  0  0  0  0  0  0  0  0
   95.6754    6.5408   83.6339 C   0  0  0  0  0  0  0  0  0  0  0  0
   95.8843    4.5358   82.3709 C   0  0  0  0  0  0  0  0  0  0  0  0
   95.7571    3.8237   81.1833 C   0  0  0  0  0  0  0  0  0  0  0  0
   95.2776    4.4502   80.0366 C   0  0  0  0  0  0  0  0  0  0  0  0
   94.9238    5.8043   80.0806 C   0  0  0  0  0  0  0  0  0  0  0  0
   95.0490    6.5237   81.2759 C   0  0  0  0  0  0  0  0  0  0  0  0
   95.5427    5.8919   82.4278 C   0  0  0  0  0  0  0  0  0  0  0  0
   95.1718    3.7412   78.9086 N   0  0  0  0  0  0  0  0  0  0  0  0
   93.8606    3.5990   78.3069 O   0  0  0  0  0  0  0  0  0  0  0  0
   96.3921    3.1333   78.3111 O   0  0  0  0  0  0  0  0  0  0  0  0
   93.1141    3.9956   78.7111 H   0  0  0  0  0  0  0  0  0  0  0  0
   93.7569   16.3561   83.8447 C   0  0  0  0  0  0  0  0  0  0  0  0
   94.9040   16.1686   84.6567 O   0  0  0  0  0  0  0  0  0  0  0  0
   94.8502   15.3065   85.0982 H   0  0  0  0  0  0  0  0  0  0  0  0
   91.2735   14.2174   80.1481 O   0  0  0  0  0  0  0  0  0  0  0  0
   90.4914   15.6646   76.1937 C   0  0  0  0  0  0  0  0  0  0  0  0
   91.1943   16.5362   77.2700 C   0  0  0  0  0  0  0  0  0  0  0  0
   90.8337   14.1770   76.3794 C   0  0  0  0  0  0  0  0  0  0  0  0
   91.4213   14.6794   78.7829 C   0  0  0  0  0  0  0  0  0  0  0  0
   90.6597   13.7375   77.8508 C   0  0  0  0  0  0  0  0  0  0  0  0
   91.1882   12.4224   78.0133 O   0  0  0  0  0  0  0  0  0  0  0  0
   90.9185   16.0216   78.6101 O   0  0  0  0  0  0  0  0  0  0  0  0
   90.9096   16.1042   74.8895 O   0  0  0  0  0  0  0  0  0  0  0  0
   92.1320   12.4232   77.7891 H   0  0  0  0  0  0  0  0  0  0  0  0
   91.8704   16.0006   74.8061 H   0  0  0  0  0  0  0  0  0  0  0  0
   90.7307   17.9994   77.1958 C   0  0  0  0  0  0  0  0  0  0  0  0
   91.8623   18.8652   77.1186 O   0  0  0  0  0  0  0  0  0  0  0  0
   92.4140   18.7474   77.9077 H   0  0  0  0  0  0  0  0  0  0  0  0
   89.9652   13.3636   75.5306 O   0  0  0  0  0  0  0  0  0  0  0  0
   88.5641   13.6094   75.7970 C   0  0  0  0  0  0  0  0  0  0  0  0
   88.1033   12.7811   76.8823 O   0  0  0  0  0  0  0  0  0  0  0  0
   86.7880   13.1439   77.2935 C   0  0  0  0  0  0  0  0  0  0  0  0
   85.8464   12.7844   76.1473 C   0  0  0  0  0  0  0  0  0  0  0  0
   84.4673   13.0822   76.4865 O   0  0  0  0  0  0  0  0  0  0  0  0
   86.2376   13.5482   74.8951 C   0  0  0  0  0  0  0  0  0  0  0  0
   85.4616   13.0460   73.8052 O   0  0  0  0  0  0  0  0  0  0  0  0
   87.7143   13.3187   74.5627 C   0  0  0  0  0  0  0  0  0  0  0  0
   88.1170   14.1719   73.5103 O   0  0  0  0  0  0  0  0  0  0  0  0
   84.3730   14.0334   76.6513 H   0  0  0  0  0  0  0  0  0  0  0  0
   85.6413   12.0999   73.6892 H   0  0  0  0  0  0  0  0  0  0  0  0
   87.9988   15.0961   73.7801 H   0  0  0  0  0  0  0  0  0  0  0  0
   86.4836   12.3448   78.5721 C   0  0  0  0  0  0  0  0  0  0  0  0
   85.7446   11.1560   78.2377 O   0  0  0  0  0  0  0  0  0  0  0  0
   86.2706   10.6071   77.6352 H   0  0  0  0  0  0  0  0  0  0  0  0
 60 59  1  0  0  0
 59 49  1  0  0  0
 51 50  1  0  0  0
 50 49  1  0  0  0
 50 52  1  0  0  0
 49 48  1  0  0  0
 53 52  1  0  0  0
 48 47  1  0  0  0
 52 54  1  0  0  0
 40 33  1  0  0  0
 54 47  1  0  0  0
 54 55  1  0  0  0
 47 46  1  0  0  0
 33 35  1  0  0  0
 33 34  1  0  0  0
 46 35  1  0  0  0
 43 34  1  0  0  0
 43 44  1  0  0  0
 35 37  1  0  0  0
 34 39  1  0  0  0
 37 38  1  0  0  0
 37 36  1  0  0  0
 39 36  1  0  0  0
 36 32  1  0  0  0
  3  2  1  0  0  0
 32  8  1  0  0  0
  8  2  1  0  0  0
  8  6  1  0  0  0
 26 25  1  0  0  0
  2  1  1  0  0  0
  7  6  1  0  0  0
 20 19  2  0  0  0
 20 21  1  0  0  0
  1 15  1  0  0  0
  1  4  1  0  0  0
  6  5  1  0  0  0
 19 24  1  0  0  0
 25 21  1  0  0  0
 25 27  2  0  0  0
  5  4  1  0  0  0
  5 29  1  0  0  0
 21 22  2  0  0  0
 15 12  1  0  0  0
 15 14  1  0  0  0
 12 11  2  0  0  0
 24 18  1  0  0  0
 24 23  2  0  0  0
 18 17  1  0  0  0
 14 13  2  0  0  0
 17 16  1  0  0  0
 11 13  1  0  0  0
 11 16  1  0  0  0
 22 23  1  0  0  0
 29 30  1  0  0  0
 26 28  1  0  0  0
  3  9  1  0  0  0
 30 31  1  0  0  0
  7 10  1  0  0  0
 38 41  1  0  0  0
 44 45  1  0  0  0
 40 42  1  0  0  0
 60 61  1  0  0  0
 51 56  1  0  0  0
 53 57  1  0  0  0
 55 58  1  0  0  0
M  CHG 1  25   1
M  END
> <minimizedAffinity>
-10.34071

$$$$
5OA2_9PW_C_604


 61 65  0  0  0  0  0  0  0  0999 V2000
   91.5768   16.5980   85.6827 C   0  0  0  0  0  0  0  0  0  0  0  0
   92.1470   16.7149   84.2620 C   0  0  0  0  0  0  0  0  0  0  0  0
   93.5731   16.6588   84.3281 O   0  0  0  0  0  0  0  0  0  0  0  0
   90.1531   16.8976   85.6778 O   0  0  0  0  0  0  0  0  0  0  0  0
   89.8648   18.2163   85.2041 C   0  0  0  0  0  0  0  0  0  0  0  0
   90.2361   18.2668   83.7247 C   0  0  0  0  0  0  0  0  0  0  0  0
   89.8942   19.5406   83.1464 O   0  0  0  0  0  0  0  0  0  0  0  0
   91.7350   18.0533   83.6230 C   0  0  0  0  0  0  0  0  0  0  0  0
   93.9009   17.3942   84.8690 H   0  0  0  0  0  0  0  0  0  0  0  0
   90.3708   20.2455   83.6121 H   0  0  0  0  0  0  0  0  0  0  0  0
   91.3051   13.1960   86.7601 C   0  0  0  0  0  0  0  0  0  0  0  0
   90.8239   14.1998   86.0386 C   0  0  0  0  0  0  0  0  0  0  0  0
   92.3928   13.6163   87.3870 N   0  0  0  0  0  0  0  0  0  0  0  0
   92.5555   14.8210   87.0690 N   0  0  0  0  0  0  0  0  0  0  0  0
   91.6410   15.2219   86.2759 N   0  0  0  0  0  0  0  0  0  0  0  0
   90.7339   11.7780   86.8392 C   0  0  0  0  0  0  0  0  0  0  0  0
   91.0379   11.1056   85.6228 O   0  0  0  0  0  0  0  0  0  0  0  0
   92.3926   10.5930   85.6986 C   0  0  0  0  0  0  0  0  0  0  0  0
   94.3057   10.2650   84.3235 C   0  0  0  0  0  0  0  0  0  0  0  0
   94.8929   10.0569   83.0803 C   0  0  0  0  0  0  0  0  0  0  0  0
   94.1044    9.9735   81.9363 C   0  0  0  0  0  0  0  0  0  0  0  0
   92.7138   10.1018   82.0395 C   0  0  0  0  0  0  0  0  0  0  0  0
   92.1195   10.3097   83.2907 C   0  0  0  0  0  0  0  0  0  0  0  0
   92.9180   10.4037   84.4411 C   0  0  0  0  0  0  0  0  0  0  0  0
   94.6978    9.7786   80.7547 N   0  0  0  0  0  0  0  0  0  0  0  0
   94.2672   10.5833   79.6284 O   0  0  0  0  0  0  0  0  0  0  0  0
   95.7741    8.7570   80.6379 O   0  0  0  0  0  0  0  0  0  0  0  0
   93.5862   11.2173   79.7388 H   0  0  0  0  0  0  0  0  0  0  0  0
   88.3936   18.5554   85.4593 C   0  0  0  0  0  0  0  0  0  0  0  0
   88.2279   19.9634   85.4855 O   0  0  0  0  0  0  0  0  0  0  0  0
   88.7725   20.3398   86.1945 H   0  0  0  0  0  0  0  0  0  0  0  0
   92.0977   18.0679   82.2269 O   0  0  0  0  0  0  0  0  0  0  0  0
   92.4677   14.6312   79.6979 C   0  0  0  0  0  0  0  0  0  0  0  0
   92.6302   14.5452   81.2401 C   0  0  0  0  0  0  0  0  0  0  0  0
   91.4602   15.7263   79.3100 C   0  0  0  0  0  0  0  0  0  0  0  0
   91.8664   16.8045   81.5566 C   0  0  0  0  0  0  0  0  0  0  0  0
   91.7520   17.0500   80.0523 C   0  0  0  0  0  0  0  0  0  0  0  0
   90.6774   17.9609   79.8274 O   0  0  0  0  0  0  0  0  0  0  0  0
   92.9316   15.8613   81.8005 O   0  0  0  0  0  0  0  0  0  0  0  0
   92.0205   13.3569   79.2028 O   0  0  0  0  0  0  0  0  0  0  0  0
   89.8531   17.5786   80.1671 H   0  0  0  0  0  0  0  0  0  0  0  0
   91.1642   13.1373   79.6019 H   0  0  0  0  0  0  0  0  0  0  0  0
   93.7523   13.5710   81.6314 C   0  0  0  0  0  0  0  0  0  0  0  0
   94.4760   13.1698   80.4689 O   0  0  0  0  0  0  0  0  0  0  0  0
   93.8741   12.7276   79.8500 H   0  0  0  0  0  0  0  0  0  0  0  0
   91.5214   15.9616   77.8688 O   0  0  0  0  0  0  0  0  0  0  0  0
   90.3443   15.4647   77.1891 C   0  0  0  0  0  0  0  0  0  0  0  0
   89.7653   14.3657   77.9193 O   0  0  0  0  0  0  0  0  0  0  0  0
   88.5009   13.9895   77.3804 C   0  0  0  0  0  0  0  0  0  0  0  0
   88.7625   13.3990   75.9974 C   0  0  0  0  0  0  0  0  0  0  0  0
   87.5311   12.9468   75.3771 O   0  0  0  0  0  0  0  0  0  0  0  0
   89.4285   14.4337   75.1086 C   0  0  0  0  0  0  0  0  0  0  0  0
   89.8278   13.7905   73.8966 O   0  0  0  0  0  0  0  0  0  0  0  0
   90.6871   14.9908   75.7791 C   0  0  0  0  0  0  0  0  0  0  0  0
   91.1971   16.0786   75.0348 O   0  0  0  0  0  0  0  0  0  0  0  0
   86.9315   13.7005   75.2616 H   0  0  0  0  0  0  0  0  0  0  0  0
   90.4501   13.0748   74.1001 H   0  0  0  0  0  0  0  0  0  0  0  0
   90.5304   16.7818   74.9918 H   0  0  0  0  0  0  0  0  0  0  0  0
   87.8908   12.9617   78.3486 C   0  0  0  0  0  0  0  0  0  0  0  0
   88.0550   11.6350   77.8156 O   0  0  0  0  0  0  0  0  0  0  0  0
   88.9998   11.4465   77.7029 H   0  0  0  0  0  0  0  0  0  0  0  0
 60 59  1  0  0  0
 59 49  1  0  0  0
 51 50  1  0  0  0
 50 49  1  0  0  0
 50 52  1  0  0  0
 49 48  1  0  0  0
 53 52  1  0  0  0
 48 47  1  0  0  0
 52 54  1  0  0  0
 40 33  1  0  0  0
 54 47  1  0  0  0
 54 55  1  0  0  0
 47 46  1  0  0  0
 33 35  1  0  0  0
 33 34  1  0  0  0
 46 35  1  0  0  0
 43 34  1  0  0  0
 43 44  1  0  0  0
 35 37  1  0  0  0
 34 39  1  0  0  0
 37 38  1  0  0  0
 37 36  1  0  0  0
 39 36  1  0  0  0
 36 32  1  0  0  0
  3  2  1  0  0  0
 32  8  1  0  0  0
  8  2  1  0  0  0
  8  6  1  0  0  0
 26 25  1  0  0  0
  2  1  1  0  0  0
  7  6  1  0  0  0
 20 19  2  0  0  0
 20 21  1  0  0  0
  1 15  1  0  0  0
  1  4  1  0  0  0
  6  5  1  0  0  0
 19 24  1  0  0  0
 25 21  1  0  0  0
 25 27  2  0  0  0
  5  4  1  0  0  0
  5 29  1  0  0  0
 21 22  2  0  0  0
 15 12  1  0  0  0
 15 14  1  0  0  0
 12 11  2  0  0  0
 24 18  1  0  0  0
 24 23  2  0  0  0
 18 17  1  0  0  0
 14 13  2  0  0  0
 17 16  1  0  0  0
 11 13  1  0  0  0
 11 16  1  0  0  0
 22 23  1  0  0  0
 29 30  1  0  0  0
 26 28  1  0  0  0
  3  9  1  0  0  0
 30 31  1  0  0  0
  7 10  1  0  0  0
 38 41  1  0  0  0
 44 45  1  0  0  0
 40 42  1  0  0  0
 60 61  1  0  0  0
 51 56  1  0  0  0
 53 57  1  0  0  0
 55 58  1  0  0  0
M  CHG 1  25   1
M  END
> <minimizedAffinity>
-10.24397

$$$$
5OA2_9PW_C_604


 61 65  0  0  0  0  0  0  0  0999 V2000
   94.3522   11.9593   82.6656 C   0  0  0  0  0  0  0  0  0  0  0  0
   93.7772   12.1276   81.2521 C   0  0  0  0  0  0  0  0  0  0  0  0
   94.8425   12.0396   80.3041 O   0  0  0  0  0  0  0  0  0  0  0  0
   93.3422   12.2877   83.6601 O   0  0  0  0  0  0  0  0  0  0  0  0
   92.8660   13.6317   83.5451 C   0  0  0  0  0  0  0  0  0  0  0  0
   92.1046   13.7403   82.2268 C   0  0  0  0  0  0  0  0  0  0  0  0
   91.5152   15.0452   82.0733 O   0  0  0  0  0  0  0  0  0  0  0  0
   93.0981   13.5012   81.1051 C   0  0  0  0  0  0  0  0  0  0  0  0
   95.4875   12.7434   80.4762 H   0  0  0  0  0  0  0  0  0  0  0  0
   92.2129   15.7189   82.0872 H   0  0  0  0  0  0  0  0  0  0  0  0
   94.8103    8.4657   83.2930 C   0  0  0  0  0  0  0  0  0  0  0  0
   94.0251    9.4506   82.8769 C   0  0  0  0  0  0  0  0  0  0  0  0
   95.9750    8.9833   83.6512 N   0  0  0  0  0  0  0  0  0  0  0  0
   95.8943   10.2244   83.4714 N   0  0  0  0  0  0  0  0  0  0  0  0
   94.7484   10.5572   83.0218 N   0  0  0  0  0  0  0  0  0  0  0  0
   94.4591    6.9762   83.3273 C   0  0  0  0  0  0  0  0  0  0  0  0
   95.5730    6.2433   82.8309 O   0  0  0  0  0  0  0  0  0  0  0  0
   95.3367    5.9221   81.4363 C   0  0  0  0  0  0  0  0  0  0  0  0
   96.6214    4.8279   79.7598 C   0  0  0  0  0  0  0  0  0  0  0  0
   97.3931    3.7585   79.3187 C   0  0  0  0  0  0  0  0  0  0  0  0
   97.6449    2.6795   80.1611 C   0  0  0  0  0  0  0  0  0  0  0  0
   97.1165    2.6718   81.4579 C   0  0  0  0  0  0  0  0  0  0  0  0
   96.3404    3.7484   81.9056 C   0  0  0  0  0  0  0  0  0  0  0  0
   96.0795    4.8302   81.0502 C   0  0  0  0  0  0  0  0  0  0  0  0
   98.3854    1.6637   79.7071 N   0  0  0  0  0  0  0  0  0  0  0  0
   97.7325    0.6344   78.9223 O   0  0  0  0  0  0  0  0  0  0  0  0
   99.8415    1.6273   80.0138 O   0  0  0  0  0  0  0  0  0  0  0  0
   96.8133    0.6899   78.7489 H   0  0  0  0  0  0  0  0  0  0  0  0
   92.0048   13.9891   84.7597 C   0  0  0  0  0  0  0  0  0  0  0  0
   92.1983   13.0238   85.7800 O   0  0  0  0  0  0  0  0  0  0  0  0
   91.9417   12.1485   85.4500 H   0  0  0  0  0  0  0  0  0  0  0  0
   92.3870   13.5704   79.8520 O   0  0  0  0  0  0  0  0  0  0  0  0
   88.8666   11.4440   78.6566 C   0  0  0  0  0  0  0  0  0  0  0  0
   90.0437   10.7482   79.3930 C   0  0  0  0  0  0  0  0  0  0  0  0
   88.7266   12.9091   79.1023 C   0  0  0  0  0  0  0  0  0  0  0  0
   91.1350   12.8414   79.8571 C   0  0  0  0  0  0  0  0  0  0  0  0
   90.0887   13.6387   79.0786 C   0  0  0  0  0  0  0  0  0  0  0  0
   89.9475   14.9164   79.6973 O   0  0  0  0  0  0  0  0  0  0  0  0
   91.2697   11.5333   79.2616 O   0  0  0  0  0  0  0  0  0  0  0  0
   87.6507   10.7286   78.9372 O   0  0  0  0  0  0  0  0  0  0  0  0
   89.6627   14.8005   80.6172 H   0  0  0  0  0  0  0  0  0  0  0  0
   87.4813   10.7409   79.8922 H   0  0  0  0  0  0  0  0  0  0  0  0
   90.2963    9.3379   78.8374 C   0  0  0  0  0  0  0  0  0  0  0  0
   91.1472    8.6111   79.7228 O   0  0  0  0  0  0  0  0  0  0  0  0
   91.9952    9.0741   79.8089 H   0  0  0  0  0  0  0  0  0  0  0  0
   87.7950   13.6049   78.2168 O   0  0  0  0  0  0  0  0  0  0  0  0
   88.0995   13.3727   76.8211 C   0  0  0  0  0  0  0  0  0  0  0  0
   88.8703   14.4650   76.2835 O   0  0  0  0  0  0  0  0  0  0  0  0
   89.3499   14.1707   74.9744 C   0  0  0  0  0  0  0  0  0  0  0  0
   88.1325   14.1088   74.0559 C   0  0  0  0  0  0  0  0  0  0  0  0
   88.5225   13.8505   72.6823 O   0  0  0  0  0  0  0  0  0  0  0  0
   87.1818   13.0229   74.5265 C   0  0  0  0  0  0  0  0  0  0  0  0
   85.9771   13.1232   73.7644 O   0  0  0  0  0  0  0  0  0  0  0  0
   86.8208   13.2237   76.0007 C   0  0  0  0  0  0  0  0  0  0  0  0
   86.0880   12.1145   76.4803 O   0  0  0  0  0  0  0  0  0  0  0  0
   88.9694   12.9913   72.6291 H   0  0  0  0  0  0  0  0  0  0  0  0
   85.5797   13.9974   73.9014 H   0  0  0  0  0  0  0  0  0  0  0  0
   86.6260   11.3116   76.3983 H   0  0  0  0  0  0  0  0  0  0  0  0
   90.3164   15.3032   74.5879 C   0  0  0  0  0  0  0  0  0  0  0  0
   91.1198   14.8945   73.4659 O   0  0  0  0  0  0  0  0  0  0  0  0
   90.5438   14.6944   72.7116 H   0  0  0  0  0  0  0  0  0  0  0  0
 60 59  1  0  0  0
 59 49  1  0  0  0
 51 50  1  0  0  0
 50 49  1  0  0  0
 50 52  1  0  0  0
 49 48  1  0  0  0
 53 52  1  0  0  0
 48 47  1  0  0  0
 52 54  1  0  0  0
 40 33  1  0  0  0
 54 47  1  0  0  0
 54 55  1  0  0  0
 47 46  1  0  0  0
 33 35  1  0  0  0
 33 34  1  0  0  0
 46 35  1  0  0  0
 43 34  1  0  0  0
 43 44  1  0  0  0
 35 37  1  0  0  0
 34 39  1  0  0  0
 37 38  1  0  0  0
 37 36  1  0  0  0
 39 36  1  0  0  0
 36 32  1  0  0  0
  3  2  1  0  0  0
 32  8  1  0  0  0
  8  2  1  0  0  0
  8  6  1  0  0  0
 26 25  1  0  0  0
  2  1  1  0  0  0
  7  6  1  0  0  0
 20 19  2  0  0  0
 20 21  1  0  0  0
  1 15  1  0  0  0
  1  4  1  0  0  0
  6  5  1  0  0  0
 19 24  1  0  0  0
 25 21  1  0  0  0
 25 27  2  0  0  0
  5  4  1  0  0  0
  5 29  1  0  0  0
 21 22  2  0  0  0
 15 12  1  0  0  0
 15 14  1  0  0  0
 12 11  2  0  0  0
 24 18  1  0  0  0
 24 23  2  0  0  0
 18 17  1  0  0  0
 14 13  2  0  0  0
 17 16  1  0  0  0
 11 13  1  0  0  0
 11 16  1  0  0  0
 22 23  1  0  0  0
 29 30  1  0  0  0
 26 28  1  0  0  0
  3  9  1  0  0  0
 30 31  1  0  0  0
  7 10  1  0  0  0
 38 41  1  0  0  0
 44 45  1  0  0  0
 40 42  1  0  0  0
 60 61  1  0  0  0
 51 56  1  0  0  0
 53 57  1  0  0  0
 55 58  1  0  0  0
M  CHG 1  25   1
M  END
> <minimizedAffinity>
-10.09256

$$$$
5OA2_9PW_C_604


 61 65  0  0  0  0  0  0  0  0999 V2000
   93.1318   12.0076   80.9140 C   0  0  0  0  0  0  0  0  0  0  0  0
   92.7950   10.8424   81.8552 C   0  0  0  0  0  0  0  0  0  0  0  0
   93.9589   10.5058   82.6123 O   0  0  0  0  0  0  0  0  0  0  0  0
   92.0512   12.2110   79.9612 O   0  0  0  0  0  0  0  0  0  0  0  0
   91.8021   11.0592   79.1501 C   0  0  0  0  0  0  0  0  0  0  0  0
   91.2604    9.9614   80.0614 C   0  0  0  0  0  0  0  0  0  0  0  0
   90.9001    8.7897   79.3058 O   0  0  0  0  0  0  0  0  0  0  0  0
   92.3563    9.6065   81.0492 C   0  0  0  0  0  0  0  0  0  0  0  0
   94.6706   10.2388   82.0097 H   0  0  0  0  0  0  0  0  0  0  0  0
   91.6814    8.4520   78.8406 H   0  0  0  0  0  0  0  0  0  0  0  0
   92.9843   15.3341   82.2262 C   0  0  0  0  0  0  0  0  0  0  0  0
   92.5180   14.4270   81.3778 C   0  0  0  0  0  0  0  0  0  0  0  0
   93.9616   14.7842   82.9299 N   0  0  0  0  0  0  0  0  0  0  0  0
   94.0886   13.6036   82.5186 N   0  0  0  0  0  0  0  0  0  0  0  0
   93.2597   13.3428   81.5853 N   0  0  0  0  0  0  0  0  0  0  0  0
   92.4696   16.7653   82.3998 C   0  0  0  0  0  0  0  0  0  0  0  0
   91.2927   16.9149   81.6145 O   0  0  0  0  0  0  0  0  0  0  0  0
   91.5661   17.8454   80.5361 C   0  0  0  0  0  0  0  0  0  0  0  0
   92.2633   17.6044   78.2745 C   0  0  0  0  0  0  0  0  0  0  0  0
   92.1484   17.0183   77.0187 C   0  0  0  0  0  0  0  0  0  0  0  0
   91.1727   16.0547   76.7800 C   0  0  0  0  0  0  0  0  0  0  0  0
   90.3026   15.6765   77.8099 C   0  0  0  0  0  0  0  0  0  0  0  0
   90.4171   16.2638   79.0763 C   0  0  0  0  0  0  0  0  0  0  0  0
   91.3952   17.2426   79.3110 C   0  0  0  0  0  0  0  0  0  0  0  0
   91.0831   15.5133   75.5613 N   0  0  0  0  0  0  0  0  0  0  0  0
   90.2755   14.3208   75.3969 O   0  0  0  0  0  0  0  0  0  0  0  0
   91.8029   16.1503   74.4247 O   0  0  0  0  0  0  0  0  0  0  0  0
   89.8362   13.9470   76.1354 H   0  0  0  0  0  0  0  0  0  0  0  0
   90.8402   11.4161   78.0134 C   0  0  0  0  0  0  0  0  0  0  0  0
   91.4140   12.4305   77.2060 O   0  0  0  0  0  0  0  0  0  0  0  0
   91.5800   13.2187   77.7464 H   0  0  0  0  0  0  0  0  0  0  0  0
   91.8486    8.5902   81.9383 O   0  0  0  0  0  0  0  0  0  0  0  0
   95.4620    6.3194   82.2996 C   0  0  0  0  0  0  0  0  0  0  0  0
   94.7493    6.9423   83.5310 C   0  0  0  0  0  0  0  0  0  0  0  0
   94.4446    5.9179   81.2187 C   0  0  0  0  0  0  0  0  0  0  0  0
   92.8131    7.5521   82.2398 C   0  0  0  0  0  0  0  0  0  0  0  0
   93.4413    7.0591   80.9365 C   0  0  0  0  0  0  0  0  0  0  0  0
   92.3993    6.5701   80.0937 O   0  0  0  0  0  0  0  0  0  0  0  0
   93.8576    8.0242   83.1173 O   0  0  0  0  0  0  0  0  0  0  0  0
   96.2063    5.1643   82.7246 O   0  0  0  0  0  0  0  0  0  0  0  0
   91.9385    5.8418   80.5388 H   0  0  0  0  0  0  0  0  0  0  0  0
   95.5993    4.5109   83.1061 H   0  0  0  0  0  0  0  0  0  0  0  0
   95.7635    7.4959   84.5441 C   0  0  0  0  0  0  0  0  0  0  0  0
   95.8995    8.9063   84.3756 O   0  0  0  0  0  0  0  0  0  0  0  0
   96.2132    9.0959   83.4775 H   0  0  0  0  0  0  0  0  0  0  0  0
   95.1483    5.5821   79.9825 O   0  0  0  0  0  0  0  0  0  0  0  0
   95.3575    4.1563   79.8493 C   0  0  0  0  0  0  0  0  0  0  0  0
   96.7572    3.8373   79.9732 O   0  0  0  0  0  0  0  0  0  0  0  0
   96.9673    2.4296   80.0442 C   0  0  0  0  0  0  0  0  0  0  0  0
   96.5903    1.8523   78.6825 C   0  0  0  0  0  0  0  0  0  0  0  0
   96.8079    0.4183   78.6407 O   0  0  0  0  0  0  0  0  0  0  0  0
   95.1346    2.1541   78.3758 C   0  0  0  0  0  0  0  0  0  0  0  0
   94.8742    1.7698   77.0242 O   0  0  0  0  0  0  0  0  0  0  0  0
   94.8577    3.6550   78.4968 C   0  0  0  0  0  0  0  0  0  0  0  0
   93.4709    3.9065   78.3920 O   0  0  0  0  0  0  0  0  0  0  0  0
   96.2468   -0.0134   79.3037 H   0  0  0  0  0  0  0  0  0  0  0  0
   95.4521    2.2716   76.4283 H   0  0  0  0  0  0  0  0  0  0  0  0
   93.0038    3.4454   79.1062 H   0  0  0  0  0  0  0  0  0  0  0  0
   98.4536    2.2163   80.3780 C   0  0  0  0  0  0  0  0  0  0  0  0
   99.2388    3.2725   79.7956 O   0  0  0  0  0  0  0  0  0  0  0  0
   98.9497    4.1260   80.1547 H   0  0  0  0  0  0  0  0  0  0  0  0
 60 59  1  0  0  0
 59 49  1  0  0  0
 51 50  1  0  0  0
 50 49  1  0  0  0
 50 52  1  0  0  0
 49 48  1  0  0  0
 53 52  1  0  0  0
 48 47  1  0  0  0
 52 54  1  0  0  0
 40 33  1  0  0  0
 54 47  1  0  0  0
 54 55  1  0  0  0
 47 46  1  0  0  0
 33 35  1  0  0  0
 33 34  1  0  0  0
 46 35  1  0  0  0
 43 34  1  0  0  0
 43 44  1  0  0  0
 35 37  1  0  0  0
 34 39  1  0  0  0
 37 38  1  0  0  0
 37 36  1  0  0  0
 39 36  1  0  0  0
 36 32  1  0  0  0
  3  2  1  0  0  0
 32  8  1  0  0  0
  8  2  1  0  0  0
  8  6  1  0  0  0
 26 25  1  0  0  0
  2  1  1  0  0  0
  7  6  1  0  0  0
 20 19  2  0  0  0
 20 21  1  0  0  0
  1 15  1  0  0  0
  1  4  1  0  0  0
  6  5  1  0  0  0
 19 24  1  0  0  0
 25 21  1  0  0  0
 25 27  2  0  0  0
  5  4  1  0  0  0
  5 29  1  0  0  0
 21 22  2  0  0  0
 15 12  1  0  0  0
 15 14  1  0  0  0
 12 11  2  0  0  0
 24 18  1  0  0  0
 24 23  2  0  0  0
 18 17  1  0  0  0
 14 13  2  0  0  0
 17 16  1  0  0  0
 11 13  1  0  0  0
 11 16  1  0  0  0
 22 23  1  0  0  0
 29 30  1  0  0  0
 26 28  1  0  0  0
  3  9  1  0  0  0
 30 31  1  0  0  0
  7 10  1  0  0  0
 38 41  1  0  0  0
 44 45  1  0  0  0
 40 42  1  0  0  0
 60 61  1  0  0  0
 51 56  1  0  0  0
 53 57  1  0  0  0
 55 58  1  0  0  0
M  CHG 1  25   1
M  END
> <minimizedAffinity>
-9.98691

$$$$
5OA2_9PW_C_604


 61 65  0  0  0  0  0  0  0  0999 V2000
   92.0208   15.1477   80.0884 C   0  0  0  0  0  0  0  0  0  0  0  0
   90.5096   15.3516   80.2667 C   0  0  0  0  0  0  0  0  0  0  0  0
   89.9425   14.1619   80.8182 O   0  0  0  0  0  0  0  0  0  0  0  0
   92.5850   16.2374   79.3067 O   0  0  0  0  0  0  0  0  0  0  0  0
   92.0068   16.3425   78.0024 C   0  0  0  0  0  0  0  0  0  0  0  0
   90.5484   16.7576   78.1761 C   0  0  0  0  0  0  0  0  0  0  0  0
   89.9137   16.9712   76.9013 O   0  0  0  0  0  0  0  0  0  0  0  0
   89.8390   15.6351   78.9105 C   0  0  0  0  0  0  0  0  0  0  0  0
   90.0991   13.4191   80.2143 H   0  0  0  0  0  0  0  0  0  0  0  0
   89.9454   16.1519   76.3830 H   0  0  0  0  0  0  0  0  0  0  0  0
   93.6815   15.7295   83.2048 C   0  0  0  0  0  0  0  0  0  0  0  0
   92.8955   16.1808   82.2361 C   0  0  0  0  0  0  0  0  0  0  0  0
   94.0342   14.4875   82.9118 N   0  0  0  0  0  0  0  0  0  0  0  0
   93.4964   14.2046   81.8119 N   0  0  0  0  0  0  0  0  0  0  0  0
   92.8157   15.1836   81.3598 N   0  0  0  0  0  0  0  0  0  0  0  0
   94.0927   16.4882   84.4692 C   0  0  0  0  0  0  0  0  0  0  0  0
   93.2563   16.0613   85.5380 O   0  0  0  0  0  0  0  0  0  0  0  0
   92.7633   17.2304   86.2407 C   0  0  0  0  0  0  0  0  0  0  0  0
   91.3002   18.8412   85.2799 C   0  0  0  0  0  0  0  0  0  0  0  0
   90.0467   19.2292   84.8196 C   0  0  0  0  0  0  0  0  0  0  0  0
   88.9732   18.3449   84.8760 C   0  0  0  0  0  0  0  0  0  0  0  0
   89.1580   17.0598   85.4006 C   0  0  0  0  0  0  0  0  0  0  0  0
   90.4199   16.6657   85.8634 C   0  0  0  0  0  0  0  0  0  0  0  0
   91.4979   17.5631   85.8148 C   0  0  0  0  0  0  0  0  0  0  0  0
   87.7792   18.7482   84.4311 N   0  0  0  0  0  0  0  0  0  0  0  0
   87.6063   20.1491   84.1010 O   0  0  0  0  0  0  0  0  0  0  0  0
   86.6806   17.7545   84.2852 O   0  0  0  0  0  0  0  0  0  0  0  0
   88.3205   20.7467   84.2054 H   0  0  0  0  0  0  0  0  0  0  0  0
   92.8084   17.3311   77.1512 C   0  0  0  0  0  0  0  0  0  0  0  0
   92.2069   18.6133   77.2186 O   0  0  0  0  0  0  0  0  0  0  0  0
   91.2984   18.5623   76.8825 H   0  0  0  0  0  0  0  0  0  0  0  0
   88.4648   16.0258   79.1096 O   0  0  0  0  0  0  0  0  0  0  0  0
   86.6377   12.5464   77.4070 C   0  0  0  0  0  0  0  0  0  0  0  0
   86.8543   12.7028   78.9370 C   0  0  0  0  0  0  0  0  0  0  0  0
   86.3846   13.9106   76.7439 C   0  0  0  0  0  0  0  0  0  0  0  0
   87.5119   15.0067   78.7194 C   0  0  0  0  0  0  0  0  0  0  0  0
   87.4273   14.9588   77.1940 C   0  0  0  0  0  0  0  0  0  0  0  0
   87.0297   16.2467   76.7267 O   0  0  0  0  0  0  0  0  0  0  0  0
   87.8852   13.7020   79.2118 O   0  0  0  0  0  0  0  0  0  0  0  0
   85.5154   11.6759   77.1798 O   0  0  0  0  0  0  0  0  0  0  0  0
   86.1648   16.4742   77.1023 H   0  0  0  0  0  0  0  0  0  0  0  0
   84.7198   12.0638   77.5766 H   0  0  0  0  0  0  0  0  0  0  0  0
   87.2697   11.3715   79.5825 C   0  0  0  0  0  0  0  0  0  0  0  0
   87.8827   10.5284   78.6081 O   0  0  0  0  0  0  0  0  0  0  0  0
   87.2527   10.3503   77.8924 H   0  0  0  0  0  0  0  0  0  0  0  0
   86.4445   13.7688   75.2905 O   0  0  0  0  0  0  0  0  0  0  0  0
   85.2042   14.1621   74.6570 C   0  0  0  0  0  0  0  0  0  0  0  0
   84.8806   15.5276   74.9840 O   0  0  0  0  0  0  0  0  0  0  0  0
   83.7755   15.9998   74.2182 C   0  0  0  0  0  0  0  0  0  0  0  0
   82.5463   15.2225   74.6813 C   0  0  0  0  0  0  0  0  0  0  0  0
   81.3525   15.6612   73.9827 O   0  0  0  0  0  0  0  0  0  0  0  0
   82.7535   13.7368   74.4487 C   0  0  0  0  0  0  0  0  0  0  0  0
   81.6729   13.0334   75.0648 O   0  0  0  0  0  0  0  0  0  0  0  0
   84.0536   13.2643   75.1047 C   0  0  0  0  0  0  0  0  0  0  0  0
   84.3333   11.9303   74.7312 O   0  0  0  0  0  0  0  0  0  0  0  0
   81.4564   15.4994   73.0320 H   0  0  0  0  0  0  0  0  0  0  0  0
   81.6632   13.2244   76.0157 H   0  0  0  0  0  0  0  0  0  0  0  0
   84.4343   11.8786   73.7679 H   0  0  0  0  0  0  0  0  0  0  0  0
   83.6518   17.5077   74.4957 C   0  0  0  0  0  0  0  0  0  0  0  0
   83.0367   18.1600   73.3699 O   0  0  0  0  0  0  0  0  0  0  0  0
   82.1527   17.7882   73.2241 H   0  0  0  0  0  0  0  0  0  0  0  0
 60 59  1  0  0  0
 59 49  1  0  0  0
 51 50  1  0  0  0
 50 49  1  0  0  0
 50 52  1  0  0  0
 49 48  1  0  0  0
 53 52  1  0  0  0
 48 47  1  0  0  0
 52 54  1  0  0  0
 40 33  1  0  0  0
 54 47  1  0  0  0
 54 55  1  0  0  0
 47 46  1  0  0  0
 33 35  1  0  0  0
 33 34  1  0  0  0
 46 35  1  0  0  0
 43 34  1  0  0  0
 43 44  1  0  0  0
 35 37  1  0  0  0
 34 39  1  0  0  0
 37 38  1  0  0  0
 37 36  1  0  0  0
 39 36  1  0  0  0
 36 32  1  0  0  0
  3  2  1  0  0  0
 32  8  1  0  0  0
  8  2  1  0  0  0
  8  6  1  0  0  0
 26 25  1  0  0  0
  2  1  1  0  0  0
  7  6  1  0  0  0
 20 19  2  0  0  0
 20 21  1  0  0  0
  1 15  1  0  0  0
  1  4  1  0  0  0
  6  5  1  0  0  0
 19 24  1  0  0  0
 25 21  1  0  0  0
 25 27  2  0  0  0
  5  4  1  0  0  0
  5 29  1  0  0  0
 21 22  2  0  0  0
 15 12  1  0  0  0
 15 14  1  0  0  0
 12 11  2  0  0  0
 24 18  1  0  0  0
 24 23  2  0  0  0
 18 17  1  0  0  0
 14 13  2  0  0  0
 17 16  1  0  0  0
 11 13  1  0  0  0
 11 16  1  0  0  0
 22 23  1  0  0  0
 29 30  1  0  0  0
 26 28  1  0  0  0
  3  9  1  0  0  0
 30 31  1  0  0  0
  7 10  1  0  0  0
 38 41  1  0  0  0
 44 45  1  0  0  0
 40 42  1  0  0  0
 60 61  1  0  0  0
 51 56  1  0  0  0
 53 57  1  0  0  0
 55 58  1  0  0  0
M  CHG 1  25   1
M  END
> <minimizedAffinity>
-9.93751

$$$$
5OA2_9PW_C_604


 61 65  0  0  0  0  0  0  0  0999 V2000
   94.2254   12.8167   82.1828 C   0  0  0  0  0  0  0  0  0  0  0  0
   92.9868   12.8573   81.2765 C   0  0  0  0  0  0  0  0  0  0  0  0
   93.2885   12.1931   80.0480 O   0  0  0  0  0  0  0  0  0  0  0  0
   94.0357   13.6905   83.3305 O   0  0  0  0  0  0  0  0  0  0  0  0
   93.8168   15.0547   82.9596 C   0  0  0  0  0  0  0  0  0  0  0  0
   92.4725   15.1276   82.2408 C   0  0  0  0  0  0  0  0  0  0  0  0
   92.1340   16.4873   81.9087 O   0  0  0  0  0  0  0  0  0  0  0  0
   92.5917   14.3124   80.9665 C   0  0  0  0  0  0  0  0  0  0  0  0
   94.0254   12.6455   79.6083 H   0  0  0  0  0  0  0  0  0  0  0  0
   92.8181   16.8586   81.3298 H   0  0  0  0  0  0  0  0  0  0  0  0
   94.3763    9.5022   83.5245 C   0  0  0  0  0  0  0  0  0  0  0  0
   93.6591   10.4700   82.9688 C   0  0  0  0  0  0  0  0  0  0  0  0
   95.6215    9.9308   83.6608 N   0  0  0  0  0  0  0  0  0  0  0  0
   95.6536   11.1068   83.2191 N   0  0  0  0  0  0  0  0  0  0  0  0
   94.5072   11.4813   82.8049 N   0  0  0  0  0  0  0  0  0  0  0  0
   93.8750    8.1098   83.9158 C   0  0  0  0  0  0  0  0  0  0  0  0
   93.9051    7.2828   82.7585 O   0  0  0  0  0  0  0  0  0  0  0  0
   95.2863    7.0799   82.3652 C   0  0  0  0  0  0  0  0  0  0  0  0
   95.7517    4.8956   81.5460 C   0  0  0  0  0  0  0  0  0  0  0  0
   96.1630    3.5818   81.7415 C   0  0  0  0  0  0  0  0  0  0  0  0
   96.5253    3.1408   83.0110 C   0  0  0  0  0  0  0  0  0  0  0  0
   96.4730    4.0252   84.0954 C   0  0  0  0  0  0  0  0  0  0  0  0
   96.0608    5.3497   83.9012 C   0  0  0  0  0  0  0  0  0  0  0  0
   95.6862    5.7886   82.6218 C   0  0  0  0  0  0  0  0  0  0  0  0
   96.9110    1.8708   83.1687 N   0  0  0  0  0  0  0  0  0  0  0  0
   97.6855    1.2516   82.1112 O   0  0  0  0  0  0  0  0  0  0  0  0
   96.5417    1.1449   84.4146 O   0  0  0  0  0  0  0  0  0  0  0  0
   97.8997    1.7392   81.3403 H   0  0  0  0  0  0  0  0  0  0  0  0
   93.8771   15.9516   84.1992 C   0  0  0  0  0  0  0  0  0  0  0  0
   95.2301   16.1728   84.5606 O   0  0  0  0  0  0  0  0  0  0  0  0
   95.6553   15.3233   84.7571 H   0  0  0  0  0  0  0  0  0  0  0  0
   91.3181   14.3463   80.2901 O   0  0  0  0  0  0  0  0  0  0  0  0
   90.3780   15.8643   76.3971 C   0  0  0  0  0  0  0  0  0  0  0  0
   91.2291   16.6700   77.4162 C   0  0  0  0  0  0  0  0  0  0  0  0
   90.6043   14.3525   76.5634 C   0  0  0  0  0  0  0  0  0  0  0  0
   91.4055   14.7972   78.9160 C   0  0  0  0  0  0  0  0  0  0  0  0
   90.5005   13.9261   78.0451 C   0  0  0  0  0  0  0  0  0  0  0  0
   90.9249   12.5702   78.1741 O   0  0  0  0  0  0  0  0  0  0  0  0
   91.0082   16.1778   78.7748 O   0  0  0  0  0  0  0  0  0  0  0  0
   90.7366   16.2694   75.0643 O   0  0  0  0  0  0  0  0  0  0  0  0
   91.8465   12.4907   77.8821 H   0  0  0  0  0  0  0  0  0  0  0  0
   91.6765   16.0841   74.9119 H   0  0  0  0  0  0  0  0  0  0  0  0
   90.8883   18.1677   77.3701 C   0  0  0  0  0  0  0  0  0  0  0  0
   92.0850   18.9358   77.2511 O   0  0  0  0  0  0  0  0  0  0  0  0
   92.6565   18.7645   78.0159 H   0  0  0  0  0  0  0  0  0  0  0  0
   89.6102   13.6184   75.7829 O   0  0  0  0  0  0  0  0  0  0  0  0
   88.3166   14.2669   75.8075 C   0  0  0  0  0  0  0  0  0  0  0  0
   87.6612   14.0393   77.0704 O   0  0  0  0  0  0  0  0  0  0  0  0
   86.4802   14.8269   77.1949 C   0  0  0  0  0  0  0  0  0  0  0  0
   85.4786   14.2949   76.1735 C   0  0  0  0  0  0  0  0  0  0  0  0
   84.2194   15.0122   76.2487 O   0  0  0  0  0  0  0  0  0  0  0  0
   86.0503   14.4183   74.7727 C   0  0  0  0  0  0  0  0  0  0  0  0
   85.1728   13.7407   73.8711 O   0  0  0  0  0  0  0  0  0  0  0  0
   87.4212   13.7420   74.6881 C   0  0  0  0  0  0  0  0  0  0  0  0
   88.0266   14.0179   73.4412 O   0  0  0  0  0  0  0  0  0  0  0  0
   84.3685   15.9492   76.0472 H   0  0  0  0  0  0  0  0  0  0  0  0
   85.1076   12.8066   74.1241 H   0  0  0  0  0  0  0  0  0  0  0  0
   88.1458   14.9757   73.3445 H   0  0  0  0  0  0  0  0  0  0  0  0
   85.9835   14.6613   78.6412 C   0  0  0  0  0  0  0  0  0  0  0  0
   84.8490   15.5177   78.8664 O   0  0  0  0  0  0  0  0  0  0  0  0
   84.1361   15.2775   78.2540 H   0  0  0  0  0  0  0  0  0  0  0  0
 60 59  1  0  0  0
 59 49  1  0  0  0
 51 50  1  0  0  0
 50 49  1  0  0  0
 50 52  1  0  0  0
 49 48  1  0  0  0
 53 52  1  0  0  0
 48 47  1  0  0  0
 52 54  1  0  0  0
 40 33  1  0  0  0
 54 47  1  0  0  0
 54 55  1  0  0  0
 47 46  1  0  0  0
 33 35  1  0  0  0
 33 34  1  0  0  0
 46 35  1  0  0  0
 43 34  1  0  0  0
 43 44  1  0  0  0
 35 37  1  0  0  0
 34 39  1  0  0  0
 37 38  1  0  0  0
 37 36  1  0  0  0
 39 36  1  0  0  0
 36 32  1  0  0  0
  3  2  1  0  0  0
 32  8  1  0  0  0
  8  2  1  0  0  0
  8  6  1  0  0  0
 26 25  1  0  0  0
  2  1  1  0  0  0
  7  6  1  0  0  0
 20 19  2  0  0  0
 20 21  1  0  0  0
  1 15  1  0  0  0
  1  4  1  0  0  0
  6  5  1  0  0  0
 19 24  1  0  0  0
 25 21  1  0  0  0
 25 27  2  0  0  0
  5  4  1  0  0  0
  5 29  1  0  0  0
 21 22  2  0  0  0
 15 12  1  0  0  0
 15 14  1  0  0  0
 12 11  2  0  0  0
 24 18  1  0  0  0
 24 23  2  0  0  0
 18 17  1  0  0  0
 14 13  2  0  0  0
 17 16  1  0  0  0
 11 13  1  0  0  0
 11 16  1  0  0  0
 22 23  1  0  0  0
 29 30  1  0  0  0
 26 28  1  0  0  0
  3  9  1  0  0  0
 30 31  1  0  0  0
  7 10  1  0  0  0
 38 41  1  0  0  0
 44 45  1  0  0  0
 40 42  1  0  0  0
 60 61  1  0  0  0
 51 56  1  0  0  0
 53 57  1  0  0  0
 55 58  1  0  0  0
M  CHG 1  25   1
M  END
> <minimizedAffinity>
-9.65645

$$$$
5OA2_9PW_C_604


 61 65  0  0  0  0  0  0  0  0999 V2000
   91.6113   15.1866   79.6950 C   0  0  0  0  0  0  0  0  0  0  0  0
   90.0967   15.1690   79.4447 C   0  0  0  0  0  0  0  0  0  0  0  0
   89.5878   13.8737   79.7681 O   0  0  0  0  0  0  0  0  0  0  0  0
   92.1961   16.4007   79.1465 O   0  0  0  0  0  0  0  0  0  0  0  0
   91.9900   16.5284   77.7366 C   0  0  0  0  0  0  0  0  0  0  0  0
   90.4946   16.7268   77.5048 C   0  0  0  0  0  0  0  0  0  0  0  0
   90.2103   16.9517   76.1111 O   0  0  0  0  0  0  0  0  0  0  0  0
   89.7901   15.4643   77.9655 C   0  0  0  0  0  0  0  0  0  0  0  0
   90.0156   13.2087   79.2063 H   0  0  0  0  0  0  0  0  0  0  0  0
   90.5078   16.1874   75.5930 H   0  0  0  0  0  0  0  0  0  0  0  0
   92.6999   15.8202   83.0449 C   0  0  0  0  0  0  0  0  0  0  0  0
   92.5749   16.2418   81.7934 C   0  0  0  0  0  0  0  0  0  0  0  0
   92.1983   14.5977   83.1257 N   0  0  0  0  0  0  0  0  0  0  0  0
   91.7992   14.2895   81.9747 N   0  0  0  0  0  0  0  0  0  0  0  0
   92.0106   15.2302   81.1401 N   0  0  0  0  0  0  0  0  0  0  0  0
   93.2888   16.6111   84.2158 C   0  0  0  0  0  0  0  0  0  0  0  0
   92.4703   16.3927   85.3588 O   0  0  0  0  0  0  0  0  0  0  0  0
   91.9140   17.6627   85.7845 C   0  0  0  0  0  0  0  0  0  0  0  0
   89.7564   16.7106   85.4735 C   0  0  0  0  0  0  0  0  0  0  0  0
   88.4322   16.7998   85.0585 C   0  0  0  0  0  0  0  0  0  0  0  0
   87.9446   17.9854   84.5163 C   0  0  0  0  0  0  0  0  0  0  0  0
   88.7933   19.0917   84.3874 C   0  0  0  0  0  0  0  0  0  0  0  0
   90.1271   19.0053   84.8063 C   0  0  0  0  0  0  0  0  0  0  0  0
   90.6187   17.8052   85.3430 C   0  0  0  0  0  0  0  0  0  0  0  0
   86.6689   18.0391   84.1212 N   0  0  0  0  0  0  0  0  0  0  0  0
   86.1326   16.9173   83.3760 O   0  0  0  0  0  0  0  0  0  0  0  0
   85.8488   19.2337   84.4616 O   0  0  0  0  0  0  0  0  0  0  0  0
   86.6784   16.1814   83.1796 H   0  0  0  0  0  0  0  0  0  0  0  0
   92.8347   17.6803   77.1851 C   0  0  0  0  0  0  0  0  0  0  0  0
   92.0762   18.8781   77.2053 O   0  0  0  0  0  0  0  0  0  0  0  0
   91.2840   18.7684   76.6563 H   0  0  0  0  0  0  0  0  0  0  0  0
   88.3713   15.6482   77.7810 O   0  0  0  0  0  0  0  0  0  0  0  0
   86.3920   13.6053   74.5790 C   0  0  0  0  0  0  0  0  0  0  0  0
   87.8981   13.3909   74.8918 C   0  0  0  0  0  0  0  0  0  0  0  0
   85.5999   13.9058   75.8624 C   0  0  0  0  0  0  0  0  0  0  0  0
   87.7605   14.6323   76.9480 C   0  0  0  0  0  0  0  0  0  0  0  0
   86.2942   14.9939   76.7122 C   0  0  0  0  0  0  0  0  0  0  0  0
   85.6457   15.0843   77.9796 O   0  0  0  0  0  0  0  0  0  0  0  0
   88.4260   14.5080   75.6731 O   0  0  0  0  0  0  0  0  0  0  0  0
   85.8719   12.4217   73.9485 O   0  0  0  0  0  0  0  0  0  0  0  0
   85.7099   14.2315   78.4373 H   0  0  0  0  0  0  0  0  0  0  0  0
   85.9685   11.6663   74.5493 H   0  0  0  0  0  0  0  0  0  0  0  0
   88.7236   13.2536   73.6030 C   0  0  0  0  0  0  0  0  0  0  0  0
   89.6341   12.1614   73.7222 O   0  0  0  0  0  0  0  0  0  0  0  0
   90.2344   12.3208   74.4673 H   0  0  0  0  0  0  0  0  0  0  0  0
   84.2537   14.3562   75.5144 O   0  0  0  0  0  0  0  0  0  0  0  0
   83.2351   13.4702   76.0358 C   0  0  0  0  0  0  0  0  0  0  0  0
   83.8194   12.2238   76.4617 O   0  0  0  0  0  0  0  0  0  0  0  0
   82.8746   11.4154   77.1579 C   0  0  0  0  0  0  0  0  0  0  0  0
   81.8203   10.9850   76.1417 C   0  0  0  0  0  0  0  0  0  0  0  0
   80.8266   10.1194   76.7493 O   0  0  0  0  0  0  0  0  0  0  0  0
   81.1377   12.2062   75.5527 C   0  0  0  0  0  0  0  0  0  0  0  0
   80.3012   11.7750   74.4774 O   0  0  0  0  0  0  0  0  0  0  0  0
   82.1723   13.1784   74.9796 C   0  0  0  0  0  0  0  0  0  0  0  0
   81.5488   14.3891   74.6015 O   0  0  0  0  0  0  0  0  0  0  0  0
   80.3683   10.5999   77.4564 H   0  0  0  0  0  0  0  0  0  0  0  0
   80.8425   11.3368   73.8022 H   0  0  0  0  0  0  0  0  0  0  0  0
   81.1360   14.7968   75.3788 H   0  0  0  0  0  0  0  0  0  0  0  0
   83.6505   10.2200   77.7367 C   0  0  0  0  0  0  0  0  0  0  0  0
   83.4496    9.0622   76.9060 O   0  0  0  0  0  0  0  0  0  0  0  0
   83.7704    9.2478   76.0096 H   0  0  0  0  0  0  0  0  0  0  0  0
 60 59  1  0  0  0
 59 49  1  0  0  0
 51 50  1  0  0  0
 50 49  1  0  0  0
 50 52  1  0  0  0
 49 48  1  0  0  0
 53 52  1  0  0  0
 48 47  1  0  0  0
 52 54  1  0  0  0
 40 33  1  0  0  0
 54 47  1  0  0  0
 54 55  1  0  0  0
 47 46  1  0  0  0
 33 35  1  0  0  0
 33 34  1  0  0  0
 46 35  1  0  0  0
 43 34  1  0  0  0
 43 44  1  0  0  0
 35 37  1  0  0  0
 34 39  1  0  0  0
 37 38  1  0  0  0
 37 36  1  0  0  0
 39 36  1  0  0  0
 36 32  1  0  0  0
  3  2  1  0  0  0
 32  8  1  0  0  0
  8  2  1  0  0  0
  8  6  1  0  0  0
 26 25  1  0  0  0
  2  1  1  0  0  0
  7  6  1  0  0  0
 20 19  2  0  0  0
 20 21  1  0  0  0
  1 15  1  0  0  0
  1  4  1  0  0  0
  6  5  1  0  0  0
 19 24  1  0  0  0
 25 21  1  0  0  0
 25 27  2  0  0  0
  5  4  1  0  0  0
  5 29  1  0  0  0
 21 22  2  0  0  0
 15 12  1  0  0  0
 15 14  1  0  0  0
 12 11  2  0  0  0
 24 18  1  0  0  0
 24 23  2  0  0  0
 18 17  1  0  0  0
 14 13  2  0  0  0
 17 16  1  0  0  0
 11 13  1  0  0  0
 11 16  1  0  0  0
 22 23  1  0  0  0
 29 30  1  0  0  0
 26 28  1  0  0  0
  3  9  1  0  0  0
 30 31  1  0  0  0
  7 10  1  0  0  0
 38 41  1  0  0  0
 44 45  1  0  0  0
 40 42  1  0  0  0
 60 61  1  0  0  0
 51 56  1  0  0  0
 53 57  1  0  0  0
 55 58  1  0  0  0
M  CHG 1  25   1
M  END
> <minimizedAffinity>
-9.59436

$$$$
5OA2_9PW_C_604


 61 65  0  0  0  0  0  0  0  0999 V2000
   94.2095   12.9145   82.3259 C   0  0  0  0  0  0  0  0  0  0  0  0
   92.9752   12.8945   81.4130 C   0  0  0  0  0  0  0  0  0  0  0  0
   93.2699   12.1173   80.2509 O   0  0  0  0  0  0  0  0  0  0  0  0
   94.0308   13.8913   83.3893 O   0  0  0  0  0  0  0  0  0  0  0  0
   93.8374   15.2201   82.8959 C   0  0  0  0  0  0  0  0  0  0  0  0
   92.4972   15.2510   82.1663 C   0  0  0  0  0  0  0  0  0  0  0  0
   92.1839   16.5808   81.7113 O   0  0  0  0  0  0  0  0  0  0  0  0
   92.6069   14.3223   80.9712 C   0  0  0  0  0  0  0  0  0  0  0  0
   94.0162   12.5155   79.7763 H   0  0  0  0  0  0  0  0  0  0  0  0
   92.8765   16.8867   81.1049 H   0  0  0  0  0  0  0  0  0  0  0  0
   94.2817    9.8847   84.2295 C   0  0  0  0  0  0  0  0  0  0  0  0
   93.6106   10.9551   83.8249 C   0  0  0  0  0  0  0  0  0  0  0  0
   95.4947    9.9279   83.7007 N   0  0  0  0  0  0  0  0  0  0  0  0
   95.5584   10.9808   83.0177 N   0  0  0  0  0  0  0  0  0  0  0  0
   94.4655   11.6360   83.0672 N   0  0  0  0  0  0  0  0  0  0  0  0
   93.7498    8.7637   85.1259 C   0  0  0  0  0  0  0  0  0  0  0  0
   93.3764    7.6688   84.2976 O   0  0  0  0  0  0  0  0  0  0  0  0
   91.9299    7.6316   84.1968 C   0  0  0  0  0  0  0  0  0  0  0  0
   90.3686    8.9459   82.9748 C   0  0  0  0  0  0  0  0  0  0  0  0
   89.9032    9.4936   81.7844 C   0  0  0  0  0  0  0  0  0  0  0  0
   90.5729    9.2478   80.5891 C   0  0  0  0  0  0  0  0  0  0  0  0
   91.7193    8.4437   80.5872 C   0  0  0  0  0  0  0  0  0  0  0  0
   92.1914    7.8922   81.7851 C   0  0  0  0  0  0  0  0  0  0  0  0
   91.5080    8.1333   82.9871 C   0  0  0  0  0  0  0  0  0  0  0  0
   90.0985    9.7834   79.4602 N   0  0  0  0  0  0  0  0  0  0  0  0
   90.7572    9.4510   78.2123 O   0  0  0  0  0  0  0  0  0  0  0  0
   88.9183   10.6884   79.5211 O   0  0  0  0  0  0  0  0  0  0  0  0
   91.4981    8.8775   78.2119 H   0  0  0  0  0  0  0  0  0  0  0  0
   93.9087   16.2239   84.0500 C   0  0  0  0  0  0  0  0  0  0  0  0
   95.1826   16.1481   84.6678 O   0  0  0  0  0  0  0  0  0  0  0  0
   95.3223   15.2520   85.0118 H   0  0  0  0  0  0  0  0  0  0  0  0
   91.3367   14.3170   80.2877 O   0  0  0  0  0  0  0  0  0  0  0  0
   90.3695   15.8705   76.4154 C   0  0  0  0  0  0  0  0  0  0  0  0
   91.2168   16.6723   77.4408 C   0  0  0  0  0  0  0  0  0  0  0  0
   90.6100   14.3589   76.5637 C   0  0  0  0  0  0  0  0  0  0  0  0
   91.4153   14.7842   78.9186 C   0  0  0  0  0  0  0  0  0  0  0  0
   90.5152   13.9148   78.0409 C   0  0  0  0  0  0  0  0  0  0  0  0
   90.9523   12.5615   78.1530 O   0  0  0  0  0  0  0  0  0  0  0  0
   91.0050   16.1627   78.7944 O   0  0  0  0  0  0  0  0  0  0  0  0
   90.7199   16.2939   75.0861 O   0  0  0  0  0  0  0  0  0  0  0  0
   91.8736   12.4937   77.8570 H   0  0  0  0  0  0  0  0  0  0  0  0
   91.6608   16.1189   74.9285 H   0  0  0  0  0  0  0  0  0  0  0  0
   90.8622   18.1672   77.4129 C   0  0  0  0  0  0  0  0  0  0  0  0
   91.8233   18.9095   78.1622 O   0  0  0  0  0  0  0  0  0  0  0  0
   91.8241   18.6014   79.0820 H   0  0  0  0  0  0  0  0  0  0  0  0
   89.6200   13.6248   75.7782 O   0  0  0  0  0  0  0  0  0  0  0  0
   88.3228   14.2660   75.8072 C   0  0  0  0  0  0  0  0  0  0  0  0
   87.6761   14.0407   77.0750 O   0  0  0  0  0  0  0  0  0  0  0  0
   86.4913   14.8222   77.2026 C   0  0  0  0  0  0  0  0  0  0  0  0
   85.4869   14.2795   76.1896 C   0  0  0  0  0  0  0  0  0  0  0  0
   84.2240   14.9899   76.2687 O   0  0  0  0  0  0  0  0  0  0  0  0
   86.0497   14.3994   74.7849 C   0  0  0  0  0  0  0  0  0  0  0  0
   85.1710   13.7124   73.8917 O   0  0  0  0  0  0  0  0  0  0  0  0
   87.4240   13.7305   74.6956 C   0  0  0  0  0  0  0  0  0  0  0  0
   88.0206   14.0039   73.4439 O   0  0  0  0  0  0  0  0  0  0  0  0
   84.3666   15.9268   76.0618 H   0  0  0  0  0  0  0  0  0  0  0  0
   85.1126   12.7792   74.1495 H   0  0  0  0  0  0  0  0  0  0  0  0
   88.1337   14.9618   73.3419 H   0  0  0  0  0  0  0  0  0  0  0  0
   86.0040   14.6607   78.6526 C   0  0  0  0  0  0  0  0  0  0  0  0
   84.8748   15.5224   78.8844 O   0  0  0  0  0  0  0  0  0  0  0  0
   84.1566   15.2846   78.2774 H   0  0  0  0  0  0  0  0  0  0  0  0
 60 59  1  0  0  0
 59 49  1  0  0  0
 51 50  1  0  0  0
 50 49  1  0  0  0
 50 52  1  0  0  0
 49 48  1  0  0  0
 53 52  1  0  0  0
 48 47  1  0  0  0
 52 54  1  0  0  0
 40 33  1  0  0  0
 54 47  1  0  0  0
 54 55  1  0  0  0
 47 46  1  0  0  0
 33 35  1  0  0  0
 33 34  1  0  0  0
 46 35  1  0  0  0
 43 34  1  0  0  0
 43 44  1  0  0  0
 35 37  1  0  0  0
 34 39  1  0  0  0
 37 38  1  0  0  0
 37 36  1  0  0  0
 39 36  1  0  0  0
 36 32  1  0  0  0
  3  2  1  0  0  0
 32  8  1  0  0  0
  8  2  1  0  0  0
  8  6  1  0  0  0
 26 25  1  0  0  0
  2  1  1  0  0  0
  7  6  1  0  0  0
 20 19  2  0  0  0
 20 21  1  0  0  0
  1 15  1  0  0  0
  1  4  1  0  0  0
  6  5  1  0  0  0
 19 24  1  0  0  0
 25 21  1  0  0  0
 25 27  2  0  0  0
  5  4  1  0  0  0
  5 29  1  0  0  0
 21 22  2  0  0  0
 15 12  1  0  0  0
 15 14  1  0  0  0
 12 11  2  0  0  0
 24 18  1  0  0  0
 24 23  2  0  0  0
 18 17  1  0  0  0
 14 13  2  0  0  0
 17 16  1  0  0  0
 11 13  1  0  0  0
 11 16  1  0  0  0
 22 23  1  0  0  0
 29 30  1  0  0  0
 26 28  1  0  0  0
  3  9  1  0  0  0
 30 31  1  0  0  0
  7 10  1  0  0  0
 38 41  1  0  0  0
 44 45  1  0  0  0
 40 42  1  0  0  0
 60 61  1  0  0  0
 51 56  1  0  0  0
 53 57  1  0  0  0
 55 58  1  0  0  0
M  CHG 1  25   1
M  END
> <minimizedAffinity>
-9.54932

$$$$
5OA2_9PW_C_604


 61 65  0  0  0  0  0  0  0  0999 V2000
   89.7111   15.4440   85.4349 C   0  0  0  0  0  0  0  0  0  0  0  0
   90.0900   14.2458   84.5529 C   0  0  0  0  0  0  0  0  0  0  0  0
   89.1107   14.0994   83.5229 O   0  0  0  0  0  0  0  0  0  0  0  0
   90.5424   15.4707   86.6286 O   0  0  0  0  0  0  0  0  0  0  0  0
   90.4092   14.2895   87.4246 C   0  0  0  0  0  0  0  0  0  0  0  0
   90.9871   13.1258   86.6240 C   0  0  0  0  0  0  0  0  0  0  0  0
   90.9710   11.9079   87.3923 O   0  0  0  0  0  0  0  0  0  0  0  0
   90.1270   12.9520   85.3860 C   0  0  0  0  0  0  0  0  0  0  0  0
   88.2412   13.9433   83.9234 H   0  0  0  0  0  0  0  0  0  0  0  0
   90.0578   11.6937   87.6395 H   0  0  0  0  0  0  0  0  0  0  0  0
   90.6047   18.3727   83.5821 C   0  0  0  0  0  0  0  0  0  0  0  0
   90.7557   17.0711   83.7898 C   0  0  0  0  0  0  0  0  0  0  0  0
   89.7164   18.8335   84.4488 N   0  0  0  0  0  0  0  0  0  0  0  0
   89.3555   17.8591   85.1554 N   0  0  0  0  0  0  0  0  0  0  0  0
   89.9536   16.7866   84.8118 N   0  0  0  0  0  0  0  0  0  0  0  0
   91.3035   19.2083   82.5066 C   0  0  0  0  0  0  0  0  0  0  0  0
   90.8438   18.7714   81.2330 O   0  0  0  0  0  0  0  0  0  0  0  0
   91.9224   18.0710   80.5624 C   0  0  0  0  0  0  0  0  0  0  0  0
   92.3863   17.4949   78.3014 C   0  0  0  0  0  0  0  0  0  0  0  0
   92.0114   16.9401   77.0827 C   0  0  0  0  0  0  0  0  0  0  0  0
   90.7410   16.3950   76.9203 C   0  0  0  0  0  0  0  0  0  0  0  0
   89.8371   16.4078   77.9897 C   0  0  0  0  0  0  0  0  0  0  0  0
   90.2126   16.9644   79.2190 C   0  0  0  0  0  0  0  0  0  0  0  0
   91.4906   17.5226   79.3766 C   0  0  0  0  0  0  0  0  0  0  0  0
   90.4076   15.8740   75.7355 N   0  0  0  0  0  0  0  0  0  0  0  0
   91.4015   15.8749   74.6803 O   0  0  0  0  0  0  0  0  0  0  0  0
   89.0433   15.3104   75.5436 O   0  0  0  0  0  0  0  0  0  0  0  0
   92.2508   16.2385   74.8370 H   0  0  0  0  0  0  0  0  0  0  0  0
   91.1048   14.4853   88.7746 C   0  0  0  0  0  0  0  0  0  0  0  0
   92.4903   14.2162   88.6389 O   0  0  0  0  0  0  0  0  0  0  0  0
   92.6144   13.3009   88.3428 H   0  0  0  0  0  0  0  0  0  0  0  0
   90.6791   11.8741   84.6024 O   0  0  0  0  0  0  0  0  0  0  0  0
   93.5628   12.0250   81.4393 C   0  0  0  0  0  0  0  0  0  0  0  0
   92.2960   12.9236   81.4480 C   0  0  0  0  0  0  0  0  0  0  0  0
   94.0530   11.7496   82.8706 C   0  0  0  0  0  0  0  0  0  0  0  0
   91.7319   12.2955   83.7008 C   0  0  0  0  0  0  0  0  0  0  0  0
   92.8923   11.3045   83.7887 C   0  0  0  0  0  0  0  0  0  0  0  0
   93.3496   11.2688   85.1395 O   0  0  0  0  0  0  0  0  0  0  0  0
   91.2751   12.3661   82.3332 O   0  0  0  0  0  0  0  0  0  0  0  0
   94.5970   12.6814   80.6853 O   0  0  0  0  0  0  0  0  0  0  0  0
   93.6455   12.1539   85.4042 H   0  0  0  0  0  0  0  0  0  0  0  0
   94.8113   13.5308   81.1020 H   0  0  0  0  0  0  0  0  0  0  0  0
   91.7033   13.0693   80.0377 C   0  0  0  0  0  0  0  0  0  0  0  0
   92.3847   14.1026   79.3277 O   0  0  0  0  0  0  0  0  0  0  0  0
   92.2828   14.9424   79.8024 H   0  0  0  0  0  0  0  0  0  0  0  0
   95.0736   10.7036   82.8474 O   0  0  0  0  0  0  0  0  0  0  0  0
   94.5170    9.4123   82.5052 C   0  0  0  0  0  0  0  0  0  0  0  0
   94.5129    8.5432   83.6546 O   0  0  0  0  0  0  0  0  0  0  0  0
   93.7924    7.3410   83.3972 C   0  0  0  0  0  0  0  0  0  0  0  0
   94.5903    6.5552   82.3602 C   0  0  0  0  0  0  0  0  0  0  0  0
   93.9538    5.2868   82.0575 O   0  0  0  0  0  0  0  0  0  0  0  0
   94.7306    7.3696   81.0869 C   0  0  0  0  0  0  0  0  0  0  0  0
   95.6374    6.6874   80.2183 O   0  0  0  0  0  0  0  0  0  0  0  0
   95.3221    8.7485   81.3909 C   0  0  0  0  0  0  0  0  0  0  0  0
   95.2790    9.5644   80.2377 O   0  0  0  0  0  0  0  0  0  0  0  0
   93.0732    5.4479   81.6841 H   0  0  0  0  0  0  0  0  0  0  0  0
   96.4990    6.5993   80.6550 H   0  0  0  0  0  0  0  0  0  0  0  0
   94.3578    9.6764   79.9552 H   0  0  0  0  0  0  0  0  0  0  0  0
   93.6789    6.5931   84.7365 C   0  0  0  0  0  0  0  0  0  0  0  0
   94.8170    5.7293   84.9086 O   0  0  0  0  0  0  0  0  0  0  0  0
   95.6290    6.2600   84.9065 H   0  0  0  0  0  0  0  0  0  0  0  0
 60 59  1  0  0  0
 59 49  1  0  0  0
 51 50  1  0  0  0
 50 49  1  0  0  0
 50 52  1  0  0  0
 49 48  1  0  0  0
 53 52  1  0  0  0
 48 47  1  0  0  0
 52 54  1  0  0  0
 40 33  1  0  0  0
 54 47  1  0  0  0
 54 55  1  0  0  0
 47 46  1  0  0  0
 33 35  1  0  0  0
 33 34  1  0  0  0
 46 35  1  0  0  0
 43 34  1  0  0  0
 43 44  1  0  0  0
 35 37  1  0  0  0
 34 39  1  0  0  0
 37 38  1  0  0  0
 37 36  1  0  0  0
 39 36  1  0  0  0
 36 32  1  0  0  0
  3  2  1  0  0  0
 32  8  1  0  0  0
  8  2  1  0  0  0
  8  6  1  0  0  0
 26 25  1  0  0  0
  2  1  1  0  0  0
  7  6  1  0  0  0
 20 19  2  0  0  0
 20 21  1  0  0  0
  1 15  1  0  0  0
  1  4  1  0  0  0
  6  5  1  0  0  0
 19 24  1  0  0  0
 25 21  1  0  0  0
 25 27  2  0  0  0
  5  4  1  0  0  0
  5 29  1  0  0  0
 21 22  2  0  0  0
 15 12  1  0  0  0
 15 14  1  0  0  0
 12 11  2  0  0  0
 24 18  1  0  0  0
 24 23  2  0  0  0
 18 17  1  0  0  0
 14 13  2  0  0  0
 17 16  1  0  0  0
 11 13  1  0  0  0
 11 16  1  0  0  0
 22 23  1  0  0  0
 29 30  1  0  0  0
 26 28  1  0  0  0
  3  9  1  0  0  0
 30 31  1  0  0  0
  7 10  1  0  0  0
 38 41  1  0  0  0
 44 45  1  0  0  0
 40 42  1  0  0  0
 60 61  1  0  0  0
 51 56  1  0  0  0
 53 57  1  0  0  0
 55 58  1  0  0  0
M  CHG 1  25   1
M  END
> <minimizedAffinity>
-9.30253

$$$$
