4QGI_ROC_A_101
  RCSB PDB12061714253D
Coordinates from PDB:4QGI:A:101 Model:1 without hydrogens
 49 53  0  0  0  0            999 V2000
   18.0540   -7.6480  -12.8680   C 0  0  0  0  0  0  0  0  0  0  0  0
   18.0980   -6.7230  -13.6860   O 0  0  0  0  0  0  0  0  0  0  0  0
   19.6820   -9.7140  -11.8010   N 0  0  0  0  0  0  0  0  0  0  0  0
   19.1700   -8.6420  -12.4450   C 0  0  0  0  0  0  0  0  0  0  0  0
   20.3880   -8.0130  -12.6400   C 0  0  0  0  0  0  0  0  0  0  0  0
   21.6420   -8.6630  -12.6740   C 0  0  0  0  0  0  0  0  0  0  0  0
   22.9080  -10.2820  -11.5540   C 0  0  0  0  0  0  0  0  0  0  0  0
   23.1490  -11.2970  -10.6620   C 0  0  0  0  0  0  0  0  0  0  0  0
   21.8430  -11.7360  -10.4170   C 0  0  0  0  0  0  0  0  0  0  0  0
   20.5050  -11.7380  -10.7940   C 0  0  0  0  0  0  0  0  0  0  0  0
   21.6950   -9.9560  -12.1700   C 0  0  0  0  0  0  0  0  0  0  0  0
   20.6060  -10.7150  -11.7310   C 0  0  0  0  0  0  0  0  0  0  0  0
   16.9130   -8.5150  -12.5710   N 0  0  0  0  0  0  0  0  0  0  0  0
   15.5740   -8.0410  -12.9510   C 0  0  0  0  0  0  0  0  0  0  0  0
   14.9790   -8.0250  -11.5500   C 0  0  0  0  0  0  0  0  0  0  0  0
   14.5340   -9.1160  -11.2300   O 0  0  0  0  0  0  0  0  0  0  0  0
   14.9080   -9.0950  -13.7930   C 0  0  0  0  0  0  0  0  0  0  0  0
   15.4000   -8.5090  -15.0970   C 0  0  0  0  0  0  0  0  0  0  0  0
   15.6660   -7.4100  -15.5490   O 0  0  0  0  0  0  0  0  0  0  0  0
   16.1320   -9.3010  -16.0660   N 0  0  0  0  0  0  0  0  0  0  0  0
   13.5950   -5.8570   -9.3840   C 0  0  0  0  0  0  0  0  0  0  0  0
   13.8760   -4.5050   -9.4820   O 0  0  0  0  0  0  0  0  0  0  0  0
   14.6960   -6.9110   -9.3730   C 0  0  0  0  0  0  0  0  0  0  0  0
   15.3610   -6.8670  -10.6910   N 0  0  0  0  0  0  0  0  0  0  0  0
   15.7830   -6.3360   -8.4850   C 0  0  0  0  0  0  0  0  0  0  0  0
   17.1550   -6.9260   -8.6260   C 0  0  0  0  0  0  0  0  0  0  0  0
   17.1000   -8.1260   -7.9340   C 0  0  0  0  0  0  0  0  0  0  0  0
   18.4560   -6.5330   -8.9200   C 0  0  0  0  0  0  0  0  0  0  0  0
   18.0400   -9.1600   -8.0720   C 0  0  0  0  0  0  0  0  0  0  0  0
   19.2360   -7.6480   -9.2320   C 0  0  0  0  0  0  0  0  0  0  0  0
   19.2960   -8.8490   -8.5450   C 0  0  0  0  0  0  0  0  0  0  0  0
   11.7540   -6.9490   -8.6480   N 0  0  0  0  0  0  0  0  0  0  0  0
   12.7170   -5.8960   -8.1480   C 0  0  0  0  0  0  0  0  0  0  0  0
   10.9310   -7.3020   -7.4550   C 0  0  0  0  0  0  0  0  0  0  0  0
   12.0210   -7.8020   -6.4830   C 0  0  0  0  0  0  0  0  0  0  0  0
   12.5780   -8.8450   -6.7780   O 0  0  0  0  0  0  0  0  0  0  0  0
    9.7640   -8.2880   -7.6990   C 0  0  0  0  0  0  0  0  0  0  0  0
    8.4910   -7.9420   -8.5150   C 0  0  0  0  0  0  0  0  0  0  0  0
    7.6780   -9.0590   -9.1460   C 0  0  0  0  0  0  0  0  0  0  0  0
    8.4100  -10.2250   -9.7930   C 0  0  0  0  0  0  0  0  0  0  0  0
    9.1110   -9.5060  -10.9240   C 0  0  0  0  0  0  0  0  0  0  0  0
   10.0420   -8.4350  -10.3830   C 0  0  0  0  0  0  0  0  0  0  0  0
    9.1580   -7.3890   -9.7400   C 0  0  0  0  0  0  0  0  0  0  0  0
   10.4940   -6.6810   -9.4180   C 0  0  0  0  0  0  0  0  0  0  0  0
   11.5420   -7.4610   -5.1210   N 0  0  0  0  0  0  0  0  0  0  0  0
   12.2130   -8.0490   -3.9190   C 0  0  0  0  0  0  0  0  0  0  0  0
   13.6020   -7.4140   -3.9640   C 0  0  0  0  0  0  0  0  0  0  0  0
   12.5450   -9.5270   -3.8700   C 0  0  0  0  0  0  0  0  0  0  0  0
   11.5800   -7.4290   -2.7150   C 0  0  0  0  0  0  0  0  0  0  0  0
  2  1  2  0  0  0  0
  1  4  1  0  0  0  0
  3  4  2  0  0  0  0
  3 12  1  0  0  0  0
  4  5  1  0  0  0  0
  5  6  2  0  0  0  0
  6 11  1  0  0  0  0
 11  7  2  0  0  0  0
 11 12  1  0  0  0  0
  7  8  1  0  0  0  0
  8  9  2  0  0  0  0
  9 10  1  0  0  0  0
 10 12  2  0  0  0  0
 13 14  1  0  0  0  0
 14 15  1  0  0  0  0
 14 17  1  0  0  0  0
 15 16  2  0  0  0  0
 17 18  1  0  0  0  0
 18 19  2  0  0  0  0
 18 20  1  0  0  0  0
 21 22  1  0  0  0  0
 21 23  1  0  0  0  0
 23 24  1  0  0  0  0
 23 25  1  0  0  0  0
 25 26  1  0  0  0  0
 26 27  2  0  0  0  0
 26 28  1  0  0  0  0
 27 29  1  0  0  0  0
 28 30  2  0  0  0  0
 29 31  2  0  0  0  0
 30 31  1  0  0  0  0
 32 33  1  0  0  0  0
 32 34  1  0  0  0  0
 32 44  1  0  0  0  0
 34 35  1  0  0  0  0
 34 37  1  0  0  0  0
 35 36  2  0  0  0  0
 37 38  1  0  0  0  0
 38 39  1  0  0  0  0
 38 43  1  0  0  0  0
 39 40  1  0  0  0  0
 40 41  1  0  0  0  0
 41 42  1  0  0  0  0
 42 43  1  0  0  0  0
 43 44  1  0  0  0  0
 45 46  1  0  0  0  0
 46 47  1  0  0  0  0
 46 48  1  0  0  0  0
 46 49  1  0  0  0  0
  1 13  1  0  0  0  0
 15 24  1  0  0  0  0
 21 33  1  0  0  0  0
 35 45  1  0  0  0  0
A    1
C
A    2
O
A    3
N1
A    4
C2
A    5
C3
A    6
C4
A    7
C5
A    8
C6
A    9
C7
A   10
C8
A   11
C4A
A   12
C8A
A   13
N
A   14
CA
A   15
C1
A   16
O1
A   17
CB
A   18
CG
A   19
OD1
A   20
ND2
A   21
C9
A   22
O2
A   23
CA1
A   24
N2
A   25
CB1
A   26
CG1
A   27
CD1
A   28
CD2
A   29
CE1
A   30
CE2
A   31
CZ
A   32
N11
A   33
CM
A   34
C21
A   35
CC
A   36
O3
A   37
C31
A   38
C3A
A   39
C41
A   40
C51
A   41
C61
A   42
C71
A   43
C7A
A   44
C81
A   45
N3
A   46
CD
A   47
C11
A   48
C22
A   49
C32
M  END
>  <InstanceId>
4QGI_ROC_A_101

>  <ChemCompId>
ROC

>  <PdbId>
4QGI

>  <ChainId>
A

>  <ResidueNumber>
101

>  <InsertionCode>


>  <Model>
1

>  <AltIds>


>  <MissingHeavyAtoms>
0

>  <ObservedFormula>
C38 N6 O5

>  <Name>
(2S)-N-[(2S,3R)-4-[(2S,3S,4aS,8aS)-3-(tert-butylcarbamoyl)-3,4,4a,5,6,7,8,8a-octahydro-1H-isoquinolin-2-yl]-3-hydroxy-1-phenyl-butan-2-yl]-2-(quinolin-2-ylcarbonylamino)butanediamide

>  <SystematicName>
(2S)-N-[(2S,3R)-4-[(2S,3S,4aS,8aS)-3-(tert-butylcarbamoyl)-3,4,4a,5,6,7,8,8a-octahydro-1H-isoquinolin-2-yl]-3-hydroxy-1-phenyl-butan-2-yl]-2-(quinolin-2-ylcarbonylamino)butanediamide

>  <Synonyms>
Fortovase; SAQUINAVIR,RO 31-8959

>  <Type>
peptide-like

>  <Formula>
C38 H50 N6 O5

>  <MolecularWeight>
670.841

>  <ModifiedDate>
2011-11-17

>  <Parent>


>  <OneLetterCode>


>  <SubcomponentList>
QNC ASN HP0 NTB

>  <AmbiguousFlag>
N

>  <InChI>
InChI=1S/C38H50N6O5/c1-38(2,3)43-37(49)32-20-26-14-7-8-15-27(26)22-44(32)23-33(45)30(19-24-11-5-4-6-12-24)41-36(48)31(21-34(39)46)42-35(47)29-18-17-25-13-9-10-16-28(25)40-29/h4-6,9-13,16-18,26-27,30-33,45H,7-8,14-15,19-23H2,1-3H3,(H2,39,46)(H,41,48)(H,42,47)(H,43,49)/t26-,27+,30-,31-,32-,33+/m0/s1

>  <InChIKey>
QWAXKHKRTORLEM-UGJKXSETSA-N

>  <SMILES>
CC(C)(C)NC(=O)[C@@H]1C[C@@H]2CCCC[C@@H]2C[N@]1C[C@H]([C@H](Cc3ccccc3)NC(=O)[C@H](CC(=O)N)NC(=O)c4ccc5ccccc5n4)O

$$$$
