4QGI_ROC_A_101


 55 59  0  0  0  0  0  0  0  0999 V2000
   14.6882   -7.0222   -9.4029 C   0  0  0  0  0  0  0  0  0  0  0  0
   14.8628   -7.9080  -11.6932 C   0  0  0  0  0  0  0  0  0  0  0  0
   14.1694   -8.9002  -11.5338 O   0  0  0  0  0  0  0  0  0  0  0  0
   15.4319   -6.9751  -10.6780 N   0  0  0  0  0  0  0  0  0  0  0  0
   16.2116   -6.3960  -10.8390 H   0  0  0  0  0  0  0  0  0  0  0  0
   15.5307   -7.8933  -13.0609 C   0  0  0  0  0  0  0  0  0  0  0  0
   18.0027   -7.6646  -12.6758 C   0  0  0  0  0  0  0  0  0  0  0  0
   18.1685   -6.6177  -13.3109 O   0  0  0  0  0  0  0  0  0  0  0  0
   16.8029   -8.5020  -12.6450 N   0  0  0  0  0  0  0  0  0  0  0  0
   16.8462   -9.4419  -12.3553 H   0  0  0  0  0  0  0  0  0  0  0  0
   19.4949   -9.8541  -11.6576 N   0  0  0  0  0  0  0  0  0  0  0  0
   19.0278   -8.7791  -12.3302 C   0  0  0  0  0  0  0  0  0  0  0  0
   20.2648   -8.3719  -12.8005 C   0  0  0  0  0  0  0  0  0  0  0  0
   21.3881   -9.2127  -12.9663 C   0  0  0  0  0  0  0  0  0  0  0  0
   22.6000  -10.9005  -11.8890 C   0  0  0  0  0  0  0  0  0  0  0  0
   22.8570  -11.8535  -10.9351 C   0  0  0  0  0  0  0  0  0  0  0  0
   21.5700  -12.0553  -10.4239 C   0  0  0  0  0  0  0  0  0  0  0  0
   20.1985  -11.8804  -10.5682 C   0  0  0  0  0  0  0  0  0  0  0  0
   21.3520  -10.4452  -12.3273 C   0  0  0  0  0  0  0  0  0  0  0  0
   20.2672  -10.9779  -11.6244 C   0  0  0  0  0  0  0  0  0  0  0  0
   14.8272   -8.8353  -13.9997 C   0  0  0  0  0  0  0  0  0  0  0  0
   15.5393   -8.3083  -15.2248 C   0  0  0  0  0  0  0  0  0  0  0  0
   15.9762   -7.2452  -15.6272 O   0  0  0  0  0  0  0  0  0  0  0  0
   16.2986   -9.1765  -16.1034 N   0  0  0  0  0  0  0  0  0  0  0  0
   16.1870  -10.1530  -16.0472 H   0  0  0  0  0  0  0  0  0  0  0  0
   16.9257   -8.7894  -16.7562 H   0  0  0  0  0  0  0  0  0  0  0  0
   13.5598   -6.0018   -9.4968 C   0  0  0  0  0  0  0  0  0  0  0  0
   13.8015   -4.6643   -9.7597 O   0  0  0  0  0  0  0  0  0  0  0  0
   14.2089   -4.2506   -8.9827 H   0  0  0  0  0  0  0  0  0  0  0  0
   12.7232   -5.9170   -8.2347 C   0  0  0  0  0  0  0  0  0  0  0  0
   11.7007   -6.9585   -8.6297 N   0  0  0  0  0  0  0  0  0  0  0  0
   10.9924   -7.2900   -7.3594 C   0  0  0  0  0  0  0  0  0  0  0  0
    9.7927   -8.2594   -7.4803 C   0  0  0  0  0  0  0  0  0  0  0  0
    8.4517   -7.8995   -8.1719 C   0  0  0  0  0  0  0  0  0  0  0  0
    7.5648   -9.0082   -8.7112 C   0  0  0  0  0  0  0  0  0  0  0  0
    8.2131  -10.1901   -9.4160 C   0  0  0  0  0  0  0  0  0  0  0  0
    8.8114   -9.4903  -10.6160 C   0  0  0  0  0  0  0  0  0  0  0  0
    9.8063   -8.4301  -10.1773 C   0  0  0  0  0  0  0  0  0  0  0  0
    9.0046   -7.3658   -9.4606 C   0  0  0  0  0  0  0  0  0  0  0  0
   10.3759   -6.6764   -9.2760 C   0  0  0  0  0  0  0  0  0  0  0  0
   12.1642   -7.7999   -6.4935 C   0  0  0  0  0  0  0  0  0  0  0  0
   12.5655   -8.9264   -6.7277 O   0  0  0  0  0  0  0  0  0  0  0  0
   11.9342   -7.2555   -5.1327 N   0  0  0  0  0  0  0  0  0  0  0  0
   11.2631   -6.5489   -4.9933 H   0  0  0  0  0  0  0  0  0  0  0  0
   12.7205   -7.7783   -3.9712 C   0  0  0  0  0  0  0  0  0  0  0  0
   12.2355   -6.9047   -2.8153 C   0  0  0  0  0  0  0  0  0  0  0  0
   14.2216   -7.5789   -3.9068 C   0  0  0  0  0  0  0  0  0  0  0  0
   12.1751   -9.1312   -3.6445 C   0  0  0  0  0  0  0  0  0  0  0  0
   15.7010   -6.4038   -8.4582 C   0  0  0  0  0  0  0  0  0  0  0  0
   17.1000   -6.9416   -8.5190 C   0  0  0  0  0  0  0  0  0  0  0  0
   17.0396   -8.1666   -7.8727 C   0  0  0  0  0  0  0  0  0  0  0  0
   18.4035   -6.4946   -8.7050 C   0  0  0  0  0  0  0  0  0  0  0  0
   18.0240   -9.1626   -7.9764 C   0  0  0  0  0  0  0  0  0  0  0  0
   19.2437   -7.5708   -8.9964 C   0  0  0  0  0  0  0  0  0  0  0  0
   19.2983   -8.7927   -8.3469 C   0  0  0  0  0  0  0  0  0  0  0  0
  8  7  2  0  0  0
  7 12  1  0  0  0
 11 12  2  0  0  0
 11 20  1  0  0  0
 12 13  1  0  0  0
 13 14  2  0  0  0
 14 19  1  0  0  0
 19 15  2  0  0  0
 19 20  1  0  0  0
 15 16  1  0  0  0
 16 17  2  0  0  0
 17 18  1  0  0  0
 18 20  2  0  0  0
  9  6  1  0  0  0
  6  2  1  0  0  0
  6 21  1  0  0  0
  2  3  2  0  0  0
 21 22  1  0  0  0
 22 23  2  0  0  0
 22 24  1  0  0  0
 27 28  1  0  0  0
 27  1  1  0  0  0
  1  4  1  0  0  0
  1 49  1  0  0  0
 49 50  1  0  0  0
 50 51  2  0  0  0
 50 52  1  0  0  0
 51 53  1  0  0  0
 52 54  2  0  0  0
 53 55  2  0  0  0
 54 55  1  0  0  0
 31 30  1  0  0  0
 31 32  1  0  0  0
 31 40  1  0  0  0
 32 41  1  0  0  0
 32 33  1  0  0  0
 41 42  2  0  0  0
 33 34  1  0  0  0
 34 35  1  0  0  0
 34 39  1  0  0  0
 35 36  1  0  0  0
 36 37  1  0  0  0
 37 38  1  0  0  0
 38 39  1  0  0  0
 39 40  1  0  0  0
 43 45  1  0  0  0
 45 46  1  0  0  0
 45 47  1  0  0  0
 45 48  1  0  0  0
  7  9  1  0  0  0
  2  4  1  0  0  0
 27 30  1  0  0  0
 41 43  1  0  0  0
  9 10  1  0  0  0
 24 25  1  0  0  0
 24 26  1  0  0  0
 28 29  1  0  0  0
  4  5  1  0  0  0
 43 44  1  0  0  0
M  END
> <minimizedAffinity>
-12.17875

$$$$
4QGI_ROC_A_101


 55 59  0  0  0  0  0  0  0  0999 V2000
   11.8184   -7.1401   -8.8606 C   0  0  0  0  0  0  0  0  0  0  0  0
   12.3849   -7.5246   -6.4959 C   0  0  0  0  0  0  0  0  0  0  0  0
   13.1781   -8.4366   -6.6682 O   0  0  0  0  0  0  0  0  0  0  0  0
   11.4240   -6.9088   -7.4562 N   0  0  0  0  0  0  0  0  0  0  0  0
   10.6212   -6.4071   -7.1857 H   0  0  0  0  0  0  0  0  0  0  0  0
   12.0917   -7.2956   -5.0199 C   0  0  0  0  0  0  0  0  0  0  0  0
    9.8420   -6.7698   -4.0331 C   0  0  0  0  0  0  0  0  0  0  0  0
   10.2255   -6.5075   -2.8882 O   0  0  0  0  0  0  0  0  0  0  0  0
   10.6262   -7.3649   -5.1160 N   0  0  0  0  0  0  0  0  0  0  0  0
   10.1869   -7.7974   -5.8836 H   0  0  0  0  0  0  0  0  0  0  0  0
    7.4077   -8.1051   -4.6236 N   0  0  0  0  0  0  0  0  0  0  0  0
    8.4456   -7.2461   -4.5186 C   0  0  0  0  0  0  0  0  0  0  0  0
    8.1181   -6.5077   -5.6431 C   0  0  0  0  0  0  0  0  0  0  0  0
    6.8243   -6.4092   -6.2023 C   0  0  0  0  0  0  0  0  0  0  0  0
    4.9665   -7.7080   -6.7854 C   0  0  0  0  0  0  0  0  0  0  0  0
    4.1819   -8.8332   -6.8344 C   0  0  0  0  0  0  0  0  0  0  0  0
    4.7168   -9.5631   -5.7670 C   0  0  0  0  0  0  0  0  0  0  0  0
    5.5074   -9.5805   -4.6237 C   0  0  0  0  0  0  0  0  0  0  0  0
    5.8892   -7.3522   -5.7959 C   0  0  0  0  0  0  0  0  0  0  0  0
    6.0738   -8.3234   -4.8073 C   0  0  0  0  0  0  0  0  0  0  0  0
   12.5790   -8.4594   -4.2004 C   0  0  0  0  0  0  0  0  0  0  0  0
   13.6354   -7.6462   -3.4873 C   0  0  0  0  0  0  0  0  0  0  0  0
   14.8415   -7.4874   -3.5420 O   0  0  0  0  0  0  0  0  0  0  0  0
   13.3110   -6.4307   -2.7666 N   0  0  0  0  0  0  0  0  0  0  0  0
   12.3745   -6.2274   -2.5408 H   0  0  0  0  0  0  0  0  0  0  0  0
   14.0271   -5.8087   -2.5030 H   0  0  0  0  0  0  0  0  0  0  0  0
   13.0168   -6.2437   -9.1497 C   0  0  0  0  0  0  0  0  0  0  0  0
   12.9058   -4.8646   -9.1962 O   0  0  0  0  0  0  0  0  0  0  0  0
   12.4264   -4.6056   -9.9987 H   0  0  0  0  0  0  0  0  0  0  0  0
   13.6783   -6.5403  -10.4818 C   0  0  0  0  0  0  0  0  0  0  0  0
   14.8648   -7.2950   -9.9261 N   0  0  0  0  0  0  0  0  0  0  0  0
   15.8622   -7.2960  -11.0353 C   0  0  0  0  0  0  0  0  0  0  0  0
   17.2455   -7.9069  -10.7082 C   0  0  0  0  0  0  0  0  0  0  0  0
   18.2730   -7.2619   -9.7416 C   0  0  0  0  0  0  0  0  0  0  0  0
   19.3246   -8.1320   -9.0753 C   0  0  0  0  0  0  0  0  0  0  0  0
   18.9241   -9.5084   -8.5663 C   0  0  0  0  0  0  0  0  0  0  0  0
   17.9372   -9.1181   -7.4887 C   0  0  0  0  0  0  0  0  0  0  0  0
   16.7794   -8.3337   -8.0808 C   0  0  0  0  0  0  0  0  0  0  0  0
   17.3600   -7.0267   -8.5743 C   0  0  0  0  0  0  0  0  0  0  0  0
   15.9079   -6.7247   -9.0101 C   0  0  0  0  0  0  0  0  0  0  0  0
   15.0693   -8.0214  -12.1434 C   0  0  0  0  0  0  0  0  0  0  0  0
   14.5631   -9.0883  -11.8425 O   0  0  0  0  0  0  0  0  0  0  0  0
   15.8049   -7.7666  -13.4063 N   0  0  0  0  0  0  0  0  0  0  0  0
   16.5095   -7.0796  -13.4342 H   0  0  0  0  0  0  0  0  0  0  0  0
   15.4782   -8.5517  -14.6381 C   0  0  0  0  0  0  0  0  0  0  0  0
   14.7338   -7.5328  -15.4997 C   0  0  0  0  0  0  0  0  0  0  0  0
   14.4871   -9.6969  -14.5795 C   0  0  0  0  0  0  0  0  0  0  0  0
   16.7609   -8.7674  -15.3750 C   0  0  0  0  0  0  0  0  0  0  0  0
   10.6577   -6.4947   -9.5935 C   0  0  0  0  0  0  0  0  0  0  0  0
    9.4238   -7.3283   -9.7746 C   0  0  0  0  0  0  0  0  0  0  0  0
    9.7549   -8.2462  -10.7593 C   0  0  0  0  0  0  0  0  0  0  0  0
    8.0560   -7.2693   -9.5313 C   0  0  0  0  0  0  0  0  0  0  0  0
    9.0316   -9.4219  -11.0171 C   0  0  0  0  0  0  0  0  0  0  0  0
    7.4953   -8.5442   -9.6273 C   0  0  0  0  0  0  0  0  0  0  0  0
    7.7138   -9.4845  -10.6204 C   0  0  0  0  0  0  0  0  0  0  0  0
  8  7  2  0  0  0
  7 12  1  0  0  0
 11 12  2  0  0  0
 11 20  1  0  0  0
 12 13  1  0  0  0
 13 14  2  0  0  0
 14 19  1  0  0  0
 19 15  2  0  0  0
 19 20  1  0  0  0
 15 16  1  0  0  0
 16 17  2  0  0  0
 17 18  1  0  0  0
 18 20  2  0  0  0
  9  6  1  0  0  0
  6  2  1  0  0  0
  6 21  1  0  0  0
  2  3  2  0  0  0
 21 22  1  0  0  0
 22 23  2  0  0  0
 22 24  1  0  0  0
 27 28  1  0  0  0
 27  1  1  0  0  0
  1  4  1  0  0  0
  1 49  1  0  0  0
 49 50  1  0  0  0
 50 51  2  0  0  0
 50 52  1  0  0  0
 51 53  1  0  0  0
 52 54  2  0  0  0
 53 55  2  0  0  0
 54 55  1  0  0  0
 31 30  1  0  0  0
 31 32  1  0  0  0
 31 40  1  0  0  0
 32 41  1  0  0  0
 32 33  1  0  0  0
 41 42  2  0  0  0
 33 34  1  0  0  0
 34 35  1  0  0  0
 34 39  1  0  0  0
 35 36  1  0  0  0
 36 37  1  0  0  0
 37 38  1  0  0  0
 38 39  1  0  0  0
 39 40  1  0  0  0
 43 45  1  0  0  0
 45 46  1  0  0  0
 45 47  1  0  0  0
 45 48  1  0  0  0
  7  9  1  0  0  0
  2  4  1  0  0  0
 27 30  1  0  0  0
 41 43  1  0  0  0
  9 10  1  0  0  0
 24 25  1  0  0  0
 24 26  1  0  0  0
 28 29  1  0  0  0
  4  5  1  0  0  0
 43 44  1  0  0  0
M  END
> <minimizedAffinity>
-11.58333

$$$$
4QGI_ROC_A_101


 55 59  0  0  0  0  0  0  0  0999 V2000
   14.9984   -7.0238   -9.6171 C   0  0  0  0  0  0  0  0  0  0  0  0
   15.2240   -7.9115  -11.9022 C   0  0  0  0  0  0  0  0  0  0  0  0
   14.8125   -9.0387  -11.6768 O   0  0  0  0  0  0  0  0  0  0  0  0
   15.6141   -6.8350  -10.9462 N   0  0  0  0  0  0  0  0  0  0  0  0
   16.2117   -6.0867  -11.1745 H   0  0  0  0  0  0  0  0  0  0  0  0
   15.7679   -7.7759  -13.3174 C   0  0  0  0  0  0  0  0  0  0  0  0
   18.2343   -7.6159  -12.8665 C   0  0  0  0  0  0  0  0  0  0  0  0
   18.3788   -6.4296  -13.1803 O   0  0  0  0  0  0  0  0  0  0  0  0
   17.0522   -8.4517  -13.0807 N   0  0  0  0  0  0  0  0  0  0  0  0
   17.1148   -9.4341  -13.0668 H   0  0  0  0  0  0  0  0  0  0  0  0
   20.1941   -9.6059  -13.3726 N   0  0  0  0  0  0  0  0  0  0  0  0
   19.2820   -8.7622  -12.8412 C   0  0  0  0  0  0  0  0  0  0  0  0
   19.0434   -9.5238  -11.7098 C   0  0  0  0  0  0  0  0  0  0  0  0
   19.9451  -10.4593  -11.1549 C   0  0  0  0  0  0  0  0  0  0  0  0
   21.3920  -12.1997  -11.7515 C   0  0  0  0  0  0  0  0  0  0  0  0
   22.1128  -13.0035  -12.5990 C   0  0  0  0  0  0  0  0  0  0  0  0
   22.1403  -12.2033  -13.7468 C   0  0  0  0  0  0  0  0  0  0  0  0
   21.9467  -10.9529  -14.3224 C   0  0  0  0  0  0  0  0  0  0  0  0
   20.9975  -10.8739  -11.9606 C   0  0  0  0  0  0  0  0  0  0  0  0
   21.3116  -10.3747  -13.2282 C   0  0  0  0  0  0  0  0  0  0  0  0
   14.9544   -8.6035  -14.2748 C   0  0  0  0  0  0  0  0  0  0  0  0
   15.8958   -8.3714  -15.4349 C   0  0  0  0  0  0  0  0  0  0  0  0
   16.6814   -7.5166  -15.8023 O   0  0  0  0  0  0  0  0  0  0  0  0
   16.4066   -9.4645  -16.2387 N   0  0  0  0  0  0  0  0  0  0  0  0
   15.9841  -10.3523  -16.1877 H   0  0  0  0  0  0  0  0  0  0  0  0
   17.1759   -9.3191  -16.8355 H   0  0  0  0  0  0  0  0  0  0  0  0
   13.7460   -6.1564   -9.5690 C   0  0  0  0  0  0  0  0  0  0  0  0
   13.7829   -4.8004   -9.8455 O   0  0  0  0  0  0  0  0  0  0  0  0
   14.2221   -4.3338   -9.1173 H   0  0  0  0  0  0  0  0  0  0  0  0
   13.0588   -6.1723   -8.2171 C   0  0  0  0  0  0  0  0  0  0  0  0
   11.9576   -7.1391   -8.5896 N   0  0  0  0  0  0  0  0  0  0  0  0
   11.1254   -7.2535   -7.3569 C   0  0  0  0  0  0  0  0  0  0  0  0
    9.8367   -8.1006   -7.4801 C   0  0  0  0  0  0  0  0  0  0  0  0
    8.5988   -7.6819   -8.3158 C   0  0  0  0  0  0  0  0  0  0  0  0
    7.6350   -8.7452   -8.8131 C   0  0  0  0  0  0  0  0  0  0  0  0
    8.1966  -10.0584   -9.3367 C   0  0  0  0  0  0  0  0  0  0  0  0
    8.9559   -9.5609  -10.5464 C   0  0  0  0  0  0  0  0  0  0  0  0
   10.0287   -8.5677  -10.1348 C   0  0  0  0  0  0  0  0  0  0  0  0
    9.3010   -7.3536   -9.6005 C   0  0  0  0  0  0  0  0  0  0  0  0
   10.7238   -6.7941   -9.3712 C   0  0  0  0  0  0  0  0  0  0  0  0
   12.1660   -7.7837   -6.3475 C   0  0  0  0  0  0  0  0  0  0  0  0
   12.4722   -8.9591   -6.4465 O   0  0  0  0  0  0  0  0  0  0  0  0
   11.8796   -7.0950   -5.0651 N   0  0  0  0  0  0  0  0  0  0  0  0
   11.2721   -6.3204   -5.0486 H   0  0  0  0  0  0  0  0  0  0  0  0
   12.5122   -7.5752   -3.7963 C   0  0  0  0  0  0  0  0  0  0  0  0
   12.1257   -9.0530   -3.7652 C   0  0  0  0  0  0  0  0  0  0  0  0
   12.0053   -7.0898   -2.4529 C   0  0  0  0  0  0  0  0  0  0  0  0
   13.9894   -7.6012   -4.0241 C   0  0  0  0  0  0  0  0  0  0  0  0
   16.0045   -6.3125   -8.7324 C   0  0  0  0  0  0  0  0  0  0  0  0
   17.3510   -6.9571   -8.5847 C   0  0  0  0  0  0  0  0  0  0  0  0
   17.1247   -8.0813   -7.8057 C   0  0  0  0  0  0  0  0  0  0  0  0
   18.7000   -6.6365   -8.6887 C   0  0  0  0  0  0  0  0  0  0  0  0
   18.0240   -9.1533   -7.6879 C   0  0  0  0  0  0  0  0  0  0  0  0
   19.4666   -7.8010   -8.7613 C   0  0  0  0  0  0  0  0  0  0  0  0
   19.3544   -8.9304   -7.9676 C   0  0  0  0  0  0  0  0  0  0  0  0
  8  7  2  0  0  0
  7 12  1  0  0  0
 11 12  2  0  0  0
 11 20  1  0  0  0
 12 13  1  0  0  0
 13 14  2  0  0  0
 14 19  1  0  0  0
 19 15  2  0  0  0
 19 20  1  0  0  0
 15 16  1  0  0  0
 16 17  2  0  0  0
 17 18  1  0  0  0
 18 20  2  0  0  0
  9  6  1  0  0  0
  6  2  1  0  0  0
  6 21  1  0  0  0
  2  3  2  0  0  0
 21 22  1  0  0  0
 22 23  2  0  0  0
 22 24  1  0  0  0
 27 28  1  0  0  0
 27  1  1  0  0  0
  1  4  1  0  0  0
  1 49  1  0  0  0
 49 50  1  0  0  0
 50 51  2  0  0  0
 50 52  1  0  0  0
 51 53  1  0  0  0
 52 54  2  0  0  0
 53 55  2  0  0  0
 54 55  1  0  0  0
 31 30  1  0  0  0
 31 32  1  0  0  0
 31 40  1  0  0  0
 32 41  1  0  0  0
 32 33  1  0  0  0
 41 42  2  0  0  0
 33 34  1  0  0  0
 34 35  1  0  0  0
 34 39  1  0  0  0
 35 36  1  0  0  0
 36 37  1  0  0  0
 37 38  1  0  0  0
 38 39  1  0  0  0
 39 40  1  0  0  0
 43 45  1  0  0  0
 45 46  1  0  0  0
 45 47  1  0  0  0
 45 48  1  0  0  0
  7  9  1  0  0  0
  2  4  1  0  0  0
 27 30  1  0  0  0
 41 43  1  0  0  0
  9 10  1  0  0  0
 24 25  1  0  0  0
 24 26  1  0  0  0
 28 29  1  0  0  0
  4  5  1  0  0  0
 43 44  1  0  0  0
M  END
> <minimizedAffinity>
-11.28601

$$$$
4QGI_ROC_A_101


 55 59  0  0  0  0  0  0  0  0999 V2000
   14.5903   -8.2614   -9.2530 C   0  0  0  0  0  0  0  0  0  0  0  0
   14.9668   -7.4083  -11.5313 C   0  0  0  0  0  0  0  0  0  0  0  0
   14.2219   -6.4431  -11.4653 O   0  0  0  0  0  0  0  0  0  0  0  0
   15.0993   -8.5696  -10.6047 N   0  0  0  0  0  0  0  0  0  0  0  0
   15.4811   -9.4393  -10.8638 H   0  0  0  0  0  0  0  0  0  0  0  0
   15.5130   -7.6114  -12.9375 C   0  0  0  0  0  0  0  0  0  0  0  0
   17.9981   -7.5147  -12.5823 C   0  0  0  0  0  0  0  0  0  0  0  0
   18.2088   -6.4666  -13.2018 O   0  0  0  0  0  0  0  0  0  0  0  0
   16.7578   -8.2908  -12.5492 N   0  0  0  0  0  0  0  0  0  0  0  0
   16.7570   -9.2366  -12.2760 H   0  0  0  0  0  0  0  0  0  0  0  0
   19.4313   -9.7468  -11.5718 N   0  0  0  0  0  0  0  0  0  0  0  0
   18.9696   -8.6855  -12.2694 C   0  0  0  0  0  0  0  0  0  0  0  0
   20.1680   -8.4188  -12.9094 C   0  0  0  0  0  0  0  0  0  0  0  0
   21.1957   -9.3615  -13.1360 C   0  0  0  0  0  0  0  0  0  0  0  0
   22.3969  -11.0670  -12.0746 C   0  0  0  0  0  0  0  0  0  0  0  0
   22.6940  -11.9695  -11.0841 C   0  0  0  0  0  0  0  0  0  0  0  0
   21.4667  -12.0251  -10.4140 C   0  0  0  0  0  0  0  0  0  0  0  0
   20.1052  -11.7447  -10.4132 C   0  0  0  0  0  0  0  0  0  0  0  0
   21.1434  -10.5389  -12.4014 C   0  0  0  0  0  0  0  0  0  0  0  0
   20.1142  -10.9272  -11.5385 C   0  0  0  0  0  0  0  0  0  0  0  0
   14.6510   -8.5793  -13.7016 C   0  0  0  0  0  0  0  0  0  0  0  0
   15.2324   -8.1954  -15.0434 C   0  0  0  0  0  0  0  0  0  0  0  0
   15.7944   -7.2374  -15.5426 O   0  0  0  0  0  0  0  0  0  0  0  0
   15.6439   -9.1907  -16.0140 N   0  0  0  0  0  0  0  0  0  0  0  0
   15.3536  -10.1260  -15.9133 H   0  0  0  0  0  0  0  0  0  0  0  0
   16.2136   -8.9312  -16.7739 H   0  0  0  0  0  0  0  0  0  0  0  0
   13.1745   -7.7201   -9.4128 C   0  0  0  0  0  0  0  0  0  0  0  0
   12.8087   -6.4730   -8.9359 O   0  0  0  0  0  0  0  0  0  0  0  0
   12.7683   -6.4964   -7.9670 H   0  0  0  0  0  0  0  0  0  0  0  0
   12.1195   -8.6082   -8.7815 C   0  0  0  0  0  0  0  0  0  0  0  0
   12.2499   -8.0663   -7.3760 N   0  0  0  0  0  0  0  0  0  0  0  0
   10.9988   -8.4998   -6.6889 C   0  0  0  0  0  0  0  0  0  0  0  0
   10.9058   -8.1827   -5.1775 C   0  0  0  0  0  0  0  0  0  0  0  0
   11.7774   -8.8662   -4.0915 C   0  0  0  0  0  0  0  0  0  0  0  0
   12.0130   -8.1625   -2.7664 C   0  0  0  0  0  0  0  0  0  0  0  0
   12.2628   -6.6619   -2.7659 C   0  0  0  0  0  0  0  0  0  0  0  0
   13.5702   -6.6084   -3.5244 C   0  0  0  0  0  0  0  0  0  0  0  0
   13.4065   -7.1920   -4.9169 C   0  0  0  0  0  0  0  0  0  0  0  0
   13.1209   -8.6658   -4.7289 C   0  0  0  0  0  0  0  0  0  0  0  0
   13.0532   -8.6913   -6.2731 C   0  0  0  0  0  0  0  0  0  0  0  0
    9.9287   -7.8202   -7.5697 C   0  0  0  0  0  0  0  0  0  0  0  0
    9.4796   -6.7625   -7.1638 O   0  0  0  0  0  0  0  0  0  0  0  0
    9.1091   -8.9184   -8.1381 N   0  0  0  0  0  0  0  0  0  0  0  0
    9.4215   -9.8496   -8.0712 H   0  0  0  0  0  0  0  0  0  0  0  0
    7.8082   -8.6138   -8.8131 C   0  0  0  0  0  0  0  0  0  0  0  0
    7.5974   -9.8358   -9.7057 C   0  0  0  0  0  0  0  0  0  0  0  0
    7.7070   -7.4761   -9.8093 C   0  0  0  0  0  0  0  0  0  0  0  0
    6.7360   -8.7422   -7.7793 C   0  0  0  0  0  0  0  0  0  0  0  0
   15.4361   -7.0535   -8.8975 C   0  0  0  0  0  0  0  0  0  0  0  0
   16.9020   -7.2920   -8.6860 C   0  0  0  0  0  0  0  0  0  0  0  0
   16.9682   -8.4363   -7.9062 C   0  0  0  0  0  0  0  0  0  0  0  0
   18.1090   -6.6034   -8.7354 C   0  0  0  0  0  0  0  0  0  0  0  0
   18.1273   -9.2112   -7.7393 C   0  0  0  0  0  0  0  0  0  0  0  0
   19.1754   -7.5039   -8.7636 C   0  0  0  0  0  0  0  0  0  0  0  0
   19.3517   -8.6210   -7.9642 C   0  0  0  0  0  0  0  0  0  0  0  0
  8  7  2  0  0  0
  7 12  1  0  0  0
 11 12  2  0  0  0
 11 20  1  0  0  0
 12 13  1  0  0  0
 13 14  2  0  0  0
 14 19  1  0  0  0
 19 15  2  0  0  0
 19 20  1  0  0  0
 15 16  1  0  0  0
 16 17  2  0  0  0
 17 18  1  0  0  0
 18 20  2  0  0  0
  9  6  1  0  0  0
  6  2  1  0  0  0
  6 21  1  0  0  0
  2  3  2  0  0  0
 21 22  1  0  0  0
 22 23  2  0  0  0
 22 24  1  0  0  0
 27 28  1  0  0  0
 27  1  1  0  0  0
  1  4  1  0  0  0
  1 49  1  0  0  0
 49 50  1  0  0  0
 50 51  2  0  0  0
 50 52  1  0  0  0
 51 53  1  0  0  0
 52 54  2  0  0  0
 53 55  2  0  0  0
 54 55  1  0  0  0
 31 30  1  0  0  0
 31 32  1  0  0  0
 31 40  1  0  0  0
 32 41  1  0  0  0
 32 33  1  0  0  0
 41 42  2  0  0  0
 33 34  1  0  0  0
 34 35  1  0  0  0
 34 39  1  0  0  0
 35 36  1  0  0  0
 36 37  1  0  0  0
 37 38  1  0  0  0
 38 39  1  0  0  0
 39 40  1  0  0  0
 43 45  1  0  0  0
 45 46  1  0  0  0
 45 47  1  0  0  0
 45 48  1  0  0  0
  7  9  1  0  0  0
  2  4  1  0  0  0
 27 30  1  0  0  0
 41 43  1  0  0  0
  9 10  1  0  0  0
 24 25  1  0  0  0
 24 26  1  0  0  0
 28 29  1  0  0  0
  4  5  1  0  0  0
 43 44  1  0  0  0
M  END
> <minimizedAffinity>
-10.46873

$$$$
4QGI_ROC_A_101


 55 59  0  0  0  0  0  0  0  0999 V2000
   17.9519   -7.9003  -11.6799 C   0  0  0  0  0  0  0  0  0  0  0  0
   16.2735   -7.9145   -9.8790 C   0  0  0  0  0  0  0  0  0  0  0  0
   15.6492   -8.8958  -10.2505 O   0  0  0  0  0  0  0  0  0  0  0  0
   17.3135   -7.1234  -10.5982 N   0  0  0  0  0  0  0  0  0  0  0  0
   17.5470   -6.1927  -10.3777 H   0  0  0  0  0  0  0  0  0  0  0  0
   15.5937   -7.2156   -8.7101 C   0  0  0  0  0  0  0  0  0  0  0  0
   13.5833   -6.1344   -9.7595 C   0  0  0  0  0  0  0  0  0  0  0  0
   13.9146   -4.9593   -9.5692 O   0  0  0  0  0  0  0  0  0  0  0  0
   14.2154   -7.3338   -9.2084 N   0  0  0  0  0  0  0  0  0  0  0  0
   13.7336   -8.1916   -9.1726 H   0  0  0  0  0  0  0  0  0  0  0  0
   10.8523   -6.9060   -9.6991 N   0  0  0  0  0  0  0  0  0  0  0  0
   12.1665   -6.7369   -9.9646 C   0  0  0  0  0  0  0  0  0  0  0  0
   12.3123   -7.9238  -10.6626 C   0  0  0  0  0  0  0  0  0  0  0  0
   11.2678   -8.6169  -11.3143 C   0  0  0  0  0  0  0  0  0  0  0  0
    9.0571   -9.3238  -11.0115 C   0  0  0  0  0  0  0  0  0  0  0  0
    7.8317   -9.3982  -10.3977 C   0  0  0  0  0  0  0  0  0  0  0  0
    7.8748   -8.2472   -9.6030 C   0  0  0  0  0  0  0  0  0  0  0  0
    8.4804   -7.0293   -9.3160 C   0  0  0  0  0  0  0  0  0  0  0  0
    9.9687   -8.2633  -10.9735 C   0  0  0  0  0  0  0  0  0  0  0  0
    9.5947   -7.2148  -10.1277 C   0  0  0  0  0  0  0  0  0  0  0  0
   15.7276   -8.0367   -7.4566 C   0  0  0  0  0  0  0  0  0  0  0  0
   14.4879   -7.4513   -6.8190 C   0  0  0  0  0  0  0  0  0  0  0  0
   13.3755   -7.8275   -6.4967 O   0  0  0  0  0  0  0  0  0  0  0  0
   14.5400   -6.2632   -5.9898 N   0  0  0  0  0  0  0  0  0  0  0  0
   15.3396   -5.6889   -6.0022 H   0  0  0  0  0  0  0  0  0  0  0  0
   13.7758   -6.0307   -5.4143 H   0  0  0  0  0  0  0  0  0  0  0  0
   19.4356   -7.5513  -11.6756 C   0  0  0  0  0  0  0  0  0  0  0  0
   19.8809   -6.2461  -11.5543 O   0  0  0  0  0  0  0  0  0  0  0  0
   19.6954   -5.7636  -12.3750 H   0  0  0  0  0  0  0  0  0  0  0  0
   20.1605   -8.0044  -12.9283 C   0  0  0  0  0  0  0  0  0  0  0  0
   20.5277   -9.3843  -12.4311 N   0  0  0  0  0  0  0  0  0  0  0  0
   21.6770   -9.7984  -13.2872 C   0  0  0  0  0  0  0  0  0  0  0  0
   22.3487  -11.1437  -12.9232 C   0  0  0  0  0  0  0  0  0  0  0  0
   23.1815  -11.3782  -11.6357 C   0  0  0  0  0  0  0  0  0  0  0  0
   23.3462  -12.7882  -11.0955 C   0  0  0  0  0  0  0  0  0  0  0  0
   22.1509  -13.7287  -11.1208 C   0  0  0  0  0  0  0  0  0  0  0  0
   21.2218  -13.0057  -10.1712 C   0  0  0  0  0  0  0  0  0  0  0  0
   20.9045  -11.6133  -10.6879 C   0  0  0  0  0  0  0  0  0  0  0  0
   22.2014  -10.8358  -10.6375 C   0  0  0  0  0  0  0  0  0  0  0  0
   21.3506   -9.6796  -11.2113 C   0  0  0  0  0  0  0  0  0  0  0  0
   21.0342   -9.7434  -14.6896 C   0  0  0  0  0  0  0  0  0  0  0  0
   20.2370  -10.6248  -14.9591 O   0  0  0  0  0  0  0  0  0  0  0  0
   22.0952   -9.2605  -15.6071 N   0  0  0  0  0  0  0  0  0  0  0  0
   22.9244   -8.8767  -15.2404 H   0  0  0  0  0  0  0  0  0  0  0  0
   21.9078   -9.3553  -17.0892 C   0  0  0  0  0  0  0  0  0  0  0  0
   23.0007   -8.4328  -17.6269 C   0  0  0  0  0  0  0  0  0  0  0  0
   20.6657   -8.7860  -17.7450 C   0  0  0  0  0  0  0  0  0  0  0  0
   22.3610  -10.7184  -17.5032 C   0  0  0  0  0  0  0  0  0  0  0  0
   17.3870   -7.2042  -12.9035 C   0  0  0  0  0  0  0  0  0  0  0  0
   16.1923   -7.8385  -13.5521 C   0  0  0  0  0  0  0  0  0  0  0  0
   16.5896   -8.0984  -14.8546 C   0  0  0  0  0  0  0  0  0  0  0  0
   14.8162   -7.9377  -13.3789 C   0  0  0  0  0  0  0  0  0  0  0  0
   15.9206   -8.9756  -15.7233 C   0  0  0  0  0  0  0  0  0  0  0  0
   14.3082   -8.9816  -14.1541 C   0  0  0  0  0  0  0  0  0  0  0  0
   14.5941   -9.2579  -15.4808 C   0  0  0  0  0  0  0  0  0  0  0  0
  8  7  2  0  0  0
  7 12  1  0  0  0
 11 12  2  0  0  0
 11 20  1  0  0  0
 12 13  1  0  0  0
 13 14  2  0  0  0
 14 19  1  0  0  0
 19 15  2  0  0  0
 19 20  1  0  0  0
 15 16  1  0  0  0
 16 17  2  0  0  0
 17 18  1  0  0  0
 18 20  2  0  0  0
  9  6  1  0  0  0
  6  2  1  0  0  0
  6 21  1  0  0  0
  2  3  2  0  0  0
 21 22  1  0  0  0
 22 23  2  0  0  0
 22 24  1  0  0  0
 27 28  1  0  0  0
 27  1  1  0  0  0
  1  4  1  0  0  0
  1 49  1  0  0  0
 49 50  1  0  0  0
 50 51  2  0  0  0
 50 52  1  0  0  0
 51 53  1  0  0  0
 52 54  2  0  0  0
 53 55  2  0  0  0
 54 55  1  0  0  0
 31 30  1  0  0  0
 31 32  1  0  0  0
 31 40  1  0  0  0
 32 41  1  0  0  0
 32 33  1  0  0  0
 41 42  2  0  0  0
 33 34  1  0  0  0
 34 35  1  0  0  0
 34 39  1  0  0  0
 35 36  1  0  0  0
 36 37  1  0  0  0
 37 38  1  0  0  0
 38 39  1  0  0  0
 39 40  1  0  0  0
 43 45  1  0  0  0
 45 46  1  0  0  0
 45 47  1  0  0  0
 45 48  1  0  0  0
  7  9  1  0  0  0
  2  4  1  0  0  0
 27 30  1  0  0  0
 41 43  1  0  0  0
  9 10  1  0  0  0
 24 25  1  0  0  0
 24 26  1  0  0  0
 28 29  1  0  0  0
  4  5  1  0  0  0
 43 44  1  0  0  0
M  END
> <minimizedAffinity>
-10.18140

$$$$
4QGI_ROC_A_101


 55 59  0  0  0  0  0  0  0  0999 V2000
    9.9412   -7.4735   -6.1487 C   0  0  0  0  0  0  0  0  0  0  0  0
   10.8608   -7.9537   -8.3812 C   0  0  0  0  0  0  0  0  0  0  0  0
   11.4868   -8.9586   -8.0831 O   0  0  0  0  0  0  0  0  0  0  0  0
   10.2191   -6.9383   -7.4969 N   0  0  0  0  0  0  0  0  0  0  0  0
   10.0060   -6.0194   -7.7787 H   0  0  0  0  0  0  0  0  0  0  0  0
   11.1395   -7.5119   -9.8110 C   0  0  0  0  0  0  0  0  0  0  0  0
   13.1921   -6.2703   -9.0649 C   0  0  0  0  0  0  0  0  0  0  0  0
   12.6632   -5.1647   -8.9073 O   0  0  0  0  0  0  0  0  0  0  0  0
   12.6042   -7.4520   -9.6971 N   0  0  0  0  0  0  0  0  0  0  0  0
   13.1708   -8.1827  -10.0351 H   0  0  0  0  0  0  0  0  0  0  0  0
   16.0117   -6.5929   -9.1179 N   0  0  0  0  0  0  0  0  0  0  0  0
   14.6797   -6.6191   -9.3438 C   0  0  0  0  0  0  0  0  0  0  0  0
   14.7801   -6.9966  -10.6722 C   0  0  0  0  0  0  0  0  0  0  0  0
   15.8789   -7.6772  -11.2427 C   0  0  0  0  0  0  0  0  0  0  0  0
   18.2189   -7.6780  -11.2954 C   0  0  0  0  0  0  0  0  0  0  0  0
   19.4873   -7.3220  -10.9102 C   0  0  0  0  0  0  0  0  0  0  0  0
   19.2306   -6.8063   -9.6348 C   0  0  0  0  0  0  0  0  0  0  0  0
   18.3518   -6.6770   -8.5656 C   0  0  0  0  0  0  0  0  0  0  0  0
   17.0599   -7.6904  -10.5121 C   0  0  0  0  0  0  0  0  0  0  0  0
   17.2352   -7.1874   -9.2195 C   0  0  0  0  0  0  0  0  0  0  0  0
   10.7733   -8.6036  -10.7794 C   0  0  0  0  0  0  0  0  0  0  0  0
    9.2889   -8.3344  -10.6791 C   0  0  0  0  0  0  0  0  0  0  0  0
    8.5582   -7.4334  -10.3087 O   0  0  0  0  0  0  0  0  0  0  0  0
    8.3236   -9.0462  -11.4936 N   0  0  0  0  0  0  0  0  0  0  0  0
    8.5893   -9.8677  -11.9668 H   0  0  0  0  0  0  0  0  0  0  0  0
    7.4024   -8.7082  -11.5736 H   0  0  0  0  0  0  0  0  0  0  0  0
    8.5916   -6.9183   -5.7086 C   0  0  0  0  0  0  0  0  0  0  0  0
    8.3996   -5.5698   -5.4613 O   0  0  0  0  0  0  0  0  0  0  0  0
    8.8506   -5.3245   -4.6384 H   0  0  0  0  0  0  0  0  0  0  0  0
    8.0798   -7.5388   -4.4229 C   0  0  0  0  0  0  0  0  0  0  0  0
    7.2870   -8.6533   -5.0675 N   0  0  0  0  0  0  0  0  0  0  0  0
    5.9458   -8.5842   -4.4181 C   0  0  0  0  0  0  0  0  0  0  0  0
    4.8692   -9.5471   -4.9725 C   0  0  0  0  0  0  0  0  0  0  0  0
    4.2302   -9.4176   -6.3799 C   0  0  0  0  0  0  0  0  0  0  0  0
    3.6160  -10.6398   -7.0401 C   0  0  0  0  0  0  0  0  0  0  0  0
    4.3267  -11.9787   -6.9124 C   0  0  0  0  0  0  0  0  0  0  0  0
    5.6043  -11.6758   -7.6630 C   0  0  0  0  0  0  0  0  0  0  0  0
    6.3536  -10.5301   -7.0054 C   0  0  0  0  0  0  0  0  0  0  0  0
    5.4912   -9.3001   -7.1846 C   0  0  0  0  0  0  0  0  0  0  0  0
    6.6222   -8.5842   -6.4112 C   0  0  0  0  0  0  0  0  0  0  0  0
    6.3240   -8.8039   -2.9377 C   0  0  0  0  0  0  0  0  0  0  0  0
    6.6841   -9.9261   -2.6276 O   0  0  0  0  0  0  0  0  0  0  0  0
    5.3806   -7.9755   -2.1474 N   0  0  0  0  0  0  0  0  0  0  0  0
    4.8237   -7.3002   -2.5980 H   0  0  0  0  0  0  0  0  0  0  0  0
    5.2738   -8.1640   -0.6662 C   0  0  0  0  0  0  0  0  0  0  0  0
    5.3156   -6.7301   -0.1401 C   0  0  0  0  0  0  0  0  0  0  0  0
    6.4012   -8.8158    0.1091 C   0  0  0  0  0  0  0  0  0  0  0  0
    3.8745   -8.6050   -0.3792 C   0  0  0  0  0  0  0  0  0  0  0  0
   10.9659   -6.7178   -5.3243 C   0  0  0  0  0  0  0  0  0  0  0  0
   11.9991   -7.5384   -4.6107 C   0  0  0  0  0  0  0  0  0  0  0  0
   13.2127   -6.9670   -4.9609 C   0  0  0  0  0  0  0  0  0  0  0  0
   12.1429   -8.7916   -4.0255 C   0  0  0  0  0  0  0  0  0  0  0  0
   14.4179   -7.1932   -4.2768 C   0  0  0  0  0  0  0  0  0  0  0  0
   13.2779   -8.8153   -3.2130 C   0  0  0  0  0  0  0  0  0  0  0  0
   14.5411   -8.3390   -3.5218 C   0  0  0  0  0  0  0  0  0  0  0  0
  8  7  2  0  0  0
  7 12  1  0  0  0
 11 12  2  0  0  0
 11 20  1  0  0  0
 12 13  1  0  0  0
 13 14  2  0  0  0
 14 19  1  0  0  0
 19 15  2  0  0  0
 19 20  1  0  0  0
 15 16  1  0  0  0
 16 17  2  0  0  0
 17 18  1  0  0  0
 18 20  2  0  0  0
  9  6  1  0  0  0
  6  2  1  0  0  0
  6 21  1  0  0  0
  2  3  2  0  0  0
 21 22  1  0  0  0
 22 23  2  0  0  0
 22 24  1  0  0  0
 27 28  1  0  0  0
 27  1  1  0  0  0
  1  4  1  0  0  0
  1 49  1  0  0  0
 49 50  1  0  0  0
 50 51  2  0  0  0
 50 52  1  0  0  0
 51 53  1  0  0  0
 52 54  2  0  0  0
 53 55  2  0  0  0
 54 55  1  0  0  0
 31 30  1  0  0  0
 31 32  1  0  0  0
 31 40  1  0  0  0
 32 41  1  0  0  0
 32 33  1  0  0  0
 41 42  2  0  0  0
 33 34  1  0  0  0
 34 35  1  0  0  0
 34 39  1  0  0  0
 35 36  1  0  0  0
 36 37  1  0  0  0
 37 38  1  0  0  0
 38 39  1  0  0  0
 39 40  1  0  0  0
 43 45  1  0  0  0
 45 46  1  0  0  0
 45 47  1  0  0  0
 45 48  1  0  0  0
  7  9  1  0  0  0
  2  4  1  0  0  0
 27 30  1  0  0  0
 41 43  1  0  0  0
  9 10  1  0  0  0
 24 25  1  0  0  0
 24 26  1  0  0  0
 28 29  1  0  0  0
  4  5  1  0  0  0
 43 44  1  0  0  0
M  END
> <minimizedAffinity>
-9.58016

$$$$
4QGI_ROC_A_101


 55 59  0  0  0  0  0  0  0  0999 V2000
   14.6544   -8.4998   -9.5347 C   0  0  0  0  0  0  0  0  0  0  0  0
   15.6565   -8.5142  -11.7832 C   0  0  0  0  0  0  0  0  0  0  0  0
   16.8020   -8.7686  -11.4458 O   0  0  0  0  0  0  0  0  0  0  0  0
   14.4900   -8.1054  -10.9484 N   0  0  0  0  0  0  0  0  0  0  0  0
   13.7030   -7.6286  -11.2986 H   0  0  0  0  0  0  0  0  0  0  0  0
   15.5571   -8.1972  -13.2688 C   0  0  0  0  0  0  0  0  0  0  0  0
   18.0263   -7.9114  -13.6342 C   0  0  0  0  0  0  0  0  0  0  0  0
   18.0455   -6.6760  -13.6451 O   0  0  0  0  0  0  0  0  0  0  0  0
   16.8486   -8.7797  -13.6624 N   0  0  0  0  0  0  0  0  0  0  0  0
   16.9187   -9.7228  -13.9360 H   0  0  0  0  0  0  0  0  0  0  0  0
   20.2329   -9.4919  -14.4647 N   0  0  0  0  0  0  0  0  0  0  0  0
   19.0258   -8.9172  -14.2679 C   0  0  0  0  0  0  0  0  0  0  0  0
   18.4713   -9.3692  -15.4533 C   0  0  0  0  0  0  0  0  0  0  0  0
   18.9036  -10.5070  -16.1708 C   0  0  0  0  0  0  0  0  0  0  0  0
   20.8411  -11.5822  -16.9246 C   0  0  0  0  0  0  0  0  0  0  0  0
   22.1881  -11.8266  -17.0239 C   0  0  0  0  0  0  0  0  0  0  0  0
   22.6493  -11.1832  -15.8699 C   0  0  0  0  0  0  0  0  0  0  0  0
   22.3567  -10.6087  -14.6383 C   0  0  0  0  0  0  0  0  0  0  0  0
   20.1520  -11.0204  -15.8445 C   0  0  0  0  0  0  0  0  0  0  0  0
   20.9756  -10.5852  -14.8019 C   0  0  0  0  0  0  0  0  0  0  0  0
   14.4518   -8.9960  -13.9040 C   0  0  0  0  0  0  0  0  0  0  0  0
   14.8307   -8.5926  -15.3110 C   0  0  0  0  0  0  0  0  0  0  0  0
   15.2353   -9.1304  -16.3259 O   0  0  0  0  0  0  0  0  0  0  0  0
   14.3319   -7.3754  -15.9206 N   0  0  0  0  0  0  0  0  0  0  0  0
   13.9165   -6.6794  -15.3617 H   0  0  0  0  0  0  0  0  0  0  0  0
   14.4084   -7.2449  -16.8934 H   0  0  0  0  0  0  0  0  0  0  0  0
   13.2595   -8.6371   -8.9359 C   0  0  0  0  0  0  0  0  0  0  0  0
   12.3053   -9.4757   -9.4861 O   0  0  0  0  0  0  0  0  0  0  0  0
   11.9885   -9.1002  -10.3225 H   0  0  0  0  0  0  0  0  0  0  0  0
   12.5057   -7.3228   -8.8675 C   0  0  0  0  0  0  0  0  0  0  0  0
   12.4186   -7.2469   -7.3599 N   0  0  0  0  0  0  0  0  0  0  0  0
   11.3544   -8.2266   -6.9955 C   0  0  0  0  0  0  0  0  0  0  0  0
   11.1249   -8.4529   -5.4823 C   0  0  0  0  0  0  0  0  0  0  0  0
   12.1404   -9.1587   -4.5460 C   0  0  0  0  0  0  0  0  0  0  0  0
   12.1032   -8.8803   -3.0533 C   0  0  0  0  0  0  0  0  0  0  0  0
   11.8596   -7.4560   -2.5777 C   0  0  0  0  0  0  0  0  0  0  0  0
   13.1007   -6.7789   -3.1150 C   0  0  0  0  0  0  0  0  0  0  0  0
   13.1691   -6.9064   -4.6268 C   0  0  0  0  0  0  0  0  0  0  0  0
   13.3654   -8.3775   -4.9205 C   0  0  0  0  0  0  0  0  0  0  0  0
   13.3502   -7.9257   -6.3989 C   0  0  0  0  0  0  0  0  0  0  0  0
   10.1467   -7.6487   -7.7638 C   0  0  0  0  0  0  0  0  0  0  0  0
    9.4745   -6.8179   -7.1780 O   0  0  0  0  0  0  0  0  0  0  0  0
    9.5906   -8.7725   -8.5566 N   0  0  0  0  0  0  0  0  0  0  0  0
   10.1070   -9.6044   -8.6587 H   0  0  0  0  0  0  0  0  0  0  0  0
    8.2459   -8.6443   -9.2018 C   0  0  0  0  0  0  0  0  0  0  0  0
    8.2643   -9.7612  -10.2442 C   0  0  0  0  0  0  0  0  0  0  0  0
    7.9113   -7.4315  -10.0470 C   0  0  0  0  0  0  0  0  0  0  0  0
    7.2338   -9.1086   -8.2044 C   0  0  0  0  0  0  0  0  0  0  0  0
   15.2126   -7.2193   -8.9436 C   0  0  0  0  0  0  0  0  0  0  0  0
   16.6749   -7.2091   -8.6093 C   0  0  0  0  0  0  0  0  0  0  0  0
   16.9125   -8.4368   -8.0108 C   0  0  0  0  0  0  0  0  0  0  0  0
   17.7154   -6.3066   -8.4185 C   0  0  0  0  0  0  0  0  0  0  0  0
   18.1889   -8.9955   -7.8362 C   0  0  0  0  0  0  0  0  0  0  0  0
   18.9424   -6.9709   -8.4650 C   0  0  0  0  0  0  0  0  0  0  0  0
   19.2803   -8.1548   -7.8309 C   0  0  0  0  0  0  0  0  0  0  0  0
  8  7  2  0  0  0
  7 12  1  0  0  0
 11 12  2  0  0  0
 11 20  1  0  0  0
 12 13  1  0  0  0
 13 14  2  0  0  0
 14 19  1  0  0  0
 19 15  2  0  0  0
 19 20  1  0  0  0
 15 16  1  0  0  0
 16 17  2  0  0  0
 17 18  1  0  0  0
 18 20  2  0  0  0
  9  6  1  0  0  0
  6  2  1  0  0  0
  6 21  1  0  0  0
  2  3  2  0  0  0
 21 22  1  0  0  0
 22 23  2  0  0  0
 22 24  1  0  0  0
 27 28  1  0  0  0
 27  1  1  0  0  0
  1  4  1  0  0  0
  1 49  1  0  0  0
 49 50  1  0  0  0
 50 51  2  0  0  0
 50 52  1  0  0  0
 51 53  1  0  0  0
 52 54  2  0  0  0
 53 55  2  0  0  0
 54 55  1  0  0  0
 31 30  1  0  0  0
 31 32  1  0  0  0
 31 40  1  0  0  0
 32 41  1  0  0  0
 32 33  1  0  0  0
 41 42  2  0  0  0
 33 34  1  0  0  0
 34 35  1  0  0  0
 34 39  1  0  0  0
 35 36  1  0  0  0
 36 37  1  0  0  0
 37 38  1  0  0  0
 38 39  1  0  0  0
 39 40  1  0  0  0
 43 45  1  0  0  0
 45 46  1  0  0  0
 45 47  1  0  0  0
 45 48  1  0  0  0
  7  9  1  0  0  0
  2  4  1  0  0  0
 27 30  1  0  0  0
 41 43  1  0  0  0
  9 10  1  0  0  0
 24 25  1  0  0  0
 24 26  1  0  0  0
 28 29  1  0  0  0
  4  5  1  0  0  0
 43 44  1  0  0  0
M  END
> <minimizedAffinity>
-9.53282

$$$$
4QGI_ROC_A_101


 55 59  0  0  0  0  0  0  0  0999 V2000
   12.8720   -7.9543  -10.0151 C   0  0  0  0  0  0  0  0  0  0  0  0
   14.1974   -8.7714  -11.9219 C   0  0  0  0  0  0  0  0  0  0  0  0
   14.5885   -9.8092  -11.4113 O   0  0  0  0  0  0  0  0  0  0  0  0
   13.5234   -7.5992  -11.2922 N   0  0  0  0  0  0  0  0  0  0  0  0
   13.5140   -6.6952  -11.6819 H   0  0  0  0  0  0  0  0  0  0  0  0
   14.8548   -8.5171  -13.2711 C   0  0  0  0  0  0  0  0  0  0  0  0
   17.2189   -7.6894  -13.4653 C   0  0  0  0  0  0  0  0  0  0  0  0
   17.1144   -7.1630  -14.5782 O   0  0  0  0  0  0  0  0  0  0  0  0
   16.2477   -8.5604  -12.8021 N   0  0  0  0  0  0  0  0  0  0  0  0
   16.5181   -9.1558  -12.0661 H   0  0  0  0  0  0  0  0  0  0  0  0
   19.4261   -8.2620  -11.7749 N   0  0  0  0  0  0  0  0  0  0  0  0
   18.4862   -8.2257  -12.7451 C   0  0  0  0  0  0  0  0  0  0  0  0
   19.2334   -8.9262  -13.6768 C   0  0  0  0  0  0  0  0  0  0  0  0
   20.2834   -9.8204  -13.3701 C   0  0  0  0  0  0  0  0  0  0  0  0
   22.1779  -10.0401  -12.0133 C   0  0  0  0  0  0  0  0  0  0  0  0
   23.0487   -9.7132  -11.0040 C   0  0  0  0  0  0  0  0  0  0  0  0
   22.2368   -8.8786  -10.2277 C   0  0  0  0  0  0  0  0  0  0  0  0
   20.9615   -8.4131   -9.9289 C   0  0  0  0  0  0  0  0  0  0  0  0
   20.8098   -9.7570  -12.0866 C   0  0  0  0  0  0  0  0  0  0  0  0
   20.3298   -8.9685  -11.0366 C   0  0  0  0  0  0  0  0  0  0  0  0
   14.6195   -9.6787  -14.1978 C   0  0  0  0  0  0  0  0  0  0  0  0
   14.8948   -8.8705  -15.4455 C   0  0  0  0  0  0  0  0  0  0  0  0
   15.2399   -9.0750  -16.5953 O   0  0  0  0  0  0  0  0  0  0  0  0
   14.3331   -7.5485  -15.6426 N   0  0  0  0  0  0  0  0  0  0  0  0
   13.9434   -7.0608  -14.8813 H   0  0  0  0  0  0  0  0  0  0  0  0
   14.3413   -7.1386  -16.5376 H   0  0  0  0  0  0  0  0  0  0  0  0
   11.4539   -7.3971  -10.0580 C   0  0  0  0  0  0  0  0  0  0  0  0
   11.0312   -6.5461  -11.0648 O   0  0  0  0  0  0  0  0  0  0  0  0
   11.4469   -5.6773  -10.9496 H   0  0  0  0  0  0  0  0  0  0  0  0
   11.0836   -6.6074   -8.8173 C   0  0  0  0  0  0  0  0  0  0  0  0
    9.9413   -7.4948   -8.3769 N   0  0  0  0  0  0  0  0  0  0  0  0
    9.8461   -7.2810   -6.9037 C   0  0  0  0  0  0  0  0  0  0  0  0
    8.6686   -7.9836   -6.1872 C   0  0  0  0  0  0  0  0  0  0  0  0
    7.1797   -7.5900   -6.3731 C   0  0  0  0  0  0  0  0  0  0  0  0
    6.0925   -8.6106   -6.0844 C   0  0  0  0  0  0  0  0  0  0  0  0
    6.3070  -10.0538   -6.5145 C   0  0  0  0  0  0  0  0  0  0  0  0
    6.3525   -9.8811   -8.0164 C   0  0  0  0  0  0  0  0  0  0  0  0
    7.4901   -8.9575   -8.4156 C   0  0  0  0  0  0  0  0  0  0  0  0
    7.1373   -7.5900   -7.8729 C   0  0  0  0  0  0  0  0  0  0  0  0
    8.4830   -7.1635   -8.5031 C   0  0  0  0  0  0  0  0  0  0  0  0
   11.2521   -7.7283   -6.4499 C   0  0  0  0  0  0  0  0  0  0  0  0
   11.6137   -8.8360   -6.8070 O   0  0  0  0  0  0  0  0  0  0  0  0
   11.4316   -7.1865   -5.0806 N   0  0  0  0  0  0  0  0  0  0  0  0
   10.8043   -6.5119   -4.7332 H   0  0  0  0  0  0  0  0  0  0  0  0
   12.5643   -7.6632   -4.2260 C   0  0  0  0  0  0  0  0  0  0  0  0
   12.4374   -6.7886   -2.9796 C   0  0  0  0  0  0  0  0  0  0  0  0
   13.9999   -7.4110   -4.6416 C   0  0  0  0  0  0  0  0  0  0  0  0
   12.2020   -9.0288   -3.7377 C   0  0  0  0  0  0  0  0  0  0  0  0
   13.6205   -7.0527   -9.0520 C   0  0  0  0  0  0  0  0  0  0  0  0
   15.0078   -7.4755   -8.6682 C   0  0  0  0  0  0  0  0  0  0  0  0
   15.8195   -6.4150   -9.0403 C   0  0  0  0  0  0  0  0  0  0  0  0
   15.7272   -8.6318   -8.3877 C   0  0  0  0  0  0  0  0  0  0  0  0
   17.1328   -6.2275   -8.5800 C   0  0  0  0  0  0  0  0  0  0  0  0
   16.9268   -8.3089   -7.7508 C   0  0  0  0  0  0  0  0  0  0  0  0
   17.8277   -7.3200   -8.1095 C   0  0  0  0  0  0  0  0  0  0  0  0
  8  7  2  0  0  0
  7 12  1  0  0  0
 11 12  2  0  0  0
 11 20  1  0  0  0
 12 13  1  0  0  0
 13 14  2  0  0  0
 14 19  1  0  0  0
 19 15  2  0  0  0
 19 20  1  0  0  0
 15 16  1  0  0  0
 16 17  2  0  0  0
 17 18  1  0  0  0
 18 20  2  0  0  0
  9  6  1  0  0  0
  6  2  1  0  0  0
  6 21  1  0  0  0
  2  3  2  0  0  0
 21 22  1  0  0  0
 22 23  2  0  0  0
 22 24  1  0  0  0
 27 28  1  0  0  0
 27  1  1  0  0  0
  1  4  1  0  0  0
  1 49  1  0  0  0
 49 50  1  0  0  0
 50 51  2  0  0  0
 50 52  1  0  0  0
 51 53  1  0  0  0
 52 54  2  0  0  0
 53 55  2  0  0  0
 54 55  1  0  0  0
 31 30  1  0  0  0
 31 32  1  0  0  0
 31 40  1  0  0  0
 32 41  1  0  0  0
 32 33  1  0  0  0
 41 42  2  0  0  0
 33 34  1  0  0  0
 34 35  1  0  0  0
 34 39  1  0  0  0
 35 36  1  0  0  0
 36 37  1  0  0  0
 37 38  1  0  0  0
 38 39  1  0  0  0
 39 40  1  0  0  0
 43 45  1  0  0  0
 45 46  1  0  0  0
 45 47  1  0  0  0
 45 48  1  0  0  0
  7  9  1  0  0  0
  2  4  1  0  0  0
 27 30  1  0  0  0
 41 43  1  0  0  0
  9 10  1  0  0  0
 24 25  1  0  0  0
 24 26  1  0  0  0
 28 29  1  0  0  0
  4  5  1  0  0  0
 43 44  1  0  0  0
M  END
> <minimizedAffinity>
-9.32160

$$$$
