4LM0_5NI_A_900


 13 14  0  0  0  0  0  0  0  0999 V2000
    3.3842   13.6984   45.8807 C   0  0  0  0  0  0  0  0  0  0  0  0
    3.6916   12.7737   46.8806 C   0  0  0  0  0  0  0  0  0  0  0  0
    4.7291   11.8774   46.6045 C   0  0  0  0  0  0  0  0  0  0  0  0
    5.4216   11.9021   45.3937 C   0  0  0  0  0  0  0  0  0  0  0  0
    5.1115   12.8253   44.3972 C   0  0  0  0  0  0  0  0  0  0  0  0
    4.0747   13.7273   44.6600 C   0  0  0  0  0  0  0  0  0  0  0  0
    5.2743   10.8794   47.3370 N   0  0  0  0  0  0  0  0  0  0  0  0
    6.2536   10.2876   46.6481 N   0  0  0  0  0  0  0  0  0  0  0  0
    6.3762   10.8909   45.4459 C   0  0  0  0  0  0  0  0  0  0  0  0
    4.9907   10.6262   48.2452 H   0  0  0  0  0  0  0  0  0  0  0  0
    3.7578   14.6290   43.6979 N   0  0  0  0  0  0  0  0  0  0  0  0
    3.0349   14.3092   42.7518 O   0  0  0  0  0  0  0  0  0  0  0  0
    4.1976   15.7667   43.7587 O   0  0  0  0  0  0  0  0  0  0  0  0
  1  2  2  0  0  0
  1  6  1  0  0  0
  2  3  1  0  0  0
  3  4  2  0  0  0
  3  7  1  0  0  0
  4  5  1  0  0  0
  4  9  1  0  0  0
  5  6  2  0  0  0
  6 11  1  0  0  0
  7  8  1  0  0  0
  8  9  2  0  0  0
 11 12  1  0  0  0
 11 13  2  0  0  0
  7 10  1  0  0  0
M  CHG 1  11   1
M  CHG 1  12  -1
M  END
> <minimizedAffinity>
-6.40209

$$$$
4LM0_5NI_A_900


 13 14  0  0  0  0  0  0  0  0999 V2000
    2.9948   14.5728   44.1133 C   0  0  0  0  0  0  0  0  0  0  0  0
    2.8630   14.5076   45.5017 C   0  0  0  0  0  0  0  0  0  0  0  0
    3.5907   13.5054   46.1515 C   0  0  0  0  0  0  0  0  0  0  0  0
    4.4052   12.6148   45.4518 C   0  0  0  0  0  0  0  0  0  0  0  0
    4.5335   12.6815   44.0660 C   0  0  0  0  0  0  0  0  0  0  0  0
    3.8100   13.6790   43.4032 C   0  0  0  0  0  0  0  0  0  0  0  0
    3.6938   13.1724   47.4585 N   0  0  0  0  0  0  0  0  0  0  0  0
    4.5161   12.1298   47.6024 N   0  0  0  0  0  0  0  0  0  0  0  0
    4.9765   11.7583   46.3882 C   0  0  0  0  0  0  0  0  0  0  0  0
    3.2304   13.6315   48.1960 H   0  0  0  0  0  0  0  0  0  0  0  0
    3.9207   13.7539   42.0536 N   0  0  0  0  0  0  0  0  0  0  0  0
    3.7806   14.8316   41.4715 O   0  0  0  0  0  0  0  0  0  0  0  0
    4.1512   12.7464   41.4031 O   0  0  0  0  0  0  0  0  0  0  0  0
  1  2  2  0  0  0
  1  6  1  0  0  0
  2  3  1  0  0  0
  3  4  2  0  0  0
  3  7  1  0  0  0
  4  5  1  0  0  0
  4  9  1  0  0  0
  5  6  2  0  0  0
  6 11  1  0  0  0
  7  8  1  0  0  0
  8  9  2  0  0  0
 11 12  1  0  0  0
 11 13  2  0  0  0
  7 10  1  0  0  0
M  CHG 1  11   1
M  CHG 1  12  -1
M  END
> <minimizedAffinity>
-6.39324

$$$$
4LM0_5NI_A_900


 13 14  0  0  0  0  0  0  0  0999 V2000
    3.3698   14.0070   45.5651 C   0  0  0  0  0  0  0  0  0  0  0  0
    3.0717   14.6160   44.3447 C   0  0  0  0  0  0  0  0  0  0  0  0
    3.5205   13.9605   43.1937 C   0  0  0  0  0  0  0  0  0  0  0  0
    4.2307   12.7615   43.2581 C   0  0  0  0  0  0  0  0  0  0  0  0
    4.5280   12.1569   44.4778 C   0  0  0  0  0  0  0  0  0  0  0  0
    4.0857   12.8027   45.6374 C   0  0  0  0  0  0  0  0  0  0  0  0
    3.4020   14.2651   41.8811 N   0  0  0  0  0  0  0  0  0  0  0  0
    4.0003   13.3305   41.1379 N   0  0  0  0  0  0  0  0  0  0  0  0
    4.5216   12.3857   41.9501 C   0  0  0  0  0  0  0  0  0  0  0  0
    2.9419   15.0596   41.5255 H   0  0  0  0  0  0  0  0  0  0  0  0
    4.3714   12.2291   46.8326 N   0  0  0  0  0  0  0  0  0  0  0  0
    5.3554   11.4969   46.9579 O   0  0  0  0  0  0  0  0  0  0  0  0
    3.6455   12.4279   47.7943 O   0  0  0  0  0  0  0  0  0  0  0  0
  1  2  2  0  0  0
  1  6  1  0  0  0
  2  3  1  0  0  0
  3  4  2  0  0  0
  3  7  1  0  0  0
  4  5  1  0  0  0
  4  9  1  0  0  0
  5  6  2  0  0  0
  6 11  1  0  0  0
  7  8  1  0  0  0
  8  9  2  0  0  0
 11 12  1  0  0  0
 11 13  2  0  0  0
  7 10  1  0  0  0
M  CHG 1  11   1
M  CHG 1  12  -1
M  END
> <minimizedAffinity>
-6.36561

$$$$
4LM0_5NI_A_900


 13 14  0  0  0  0  0  0  0  0999 V2000
    4.4848   12.2437   46.7169 C   0  0  0  0  0  0  0  0  0  0  0  0
    3.6172   13.3221   46.5337 C   0  0  0  0  0  0  0  0  0  0  0  0
    3.4629   13.7836   45.2226 C   0  0  0  0  0  0  0  0  0  0  0  0
    4.1402   13.2002   44.1515 C   0  0  0  0  0  0  0  0  0  0  0  0
    5.0066   12.1249   44.3377 C   0  0  0  0  0  0  0  0  0  0  0  0
    5.1710   11.6539   45.6449 C   0  0  0  0  0  0  0  0  0  0  0  0
    2.7139   14.7830   44.7031 N   0  0  0  0  0  0  0  0  0  0  0  0
    2.8946   14.8518   43.3815 N   0  0  0  0  0  0  0  0  0  0  0  0
    3.7655   13.8914   43.0032 C   0  0  0  0  0  0  0  0  0  0  0  0
    2.1220   15.3734   45.2231 H   0  0  0  0  0  0  0  0  0  0  0  0
    6.0146   10.6107   45.8430 N   0  0  0  0  0  0  0  0  0  0  0  0
    6.1733   10.1376   46.9704 O   0  0  0  0  0  0  0  0  0  0  0  0
    6.6328   10.1381   44.9019 O   0  0  0  0  0  0  0  0  0  0  0  0
  1  2  2  0  0  0
  1  6  1  0  0  0
  2  3  1  0  0  0
  3  4  2  0  0  0
  3  7  1  0  0  0
  4  5  1  0  0  0
  4  9  1  0  0  0
  5  6  2  0  0  0
  6 11  1  0  0  0
  7  8  1  0  0  0
  8  9  2  0  0  0
 11 12  1  0  0  0
 11 13  2  0  0  0
  7 10  1  0  0  0
M  CHG 1  11   1
M  CHG 1  12  -1
M  END
> <minimizedAffinity>
-6.21934

$$$$
4LM0_5NI_A_900


 13 14  0  0  0  0  0  0  0  0999 V2000
    5.4140   12.4531   43.2856 C   0  0  0  0  0  0  0  0  0  0  0  0
    5.9558   11.8608   44.4279 C   0  0  0  0  0  0  0  0  0  0  0  0
    5.2645   12.0673   45.6260 C   0  0  0  0  0  0  0  0  0  0  0  0
    4.0953   12.8264   45.6807 C   0  0  0  0  0  0  0  0  0  0  0  0
    3.5578   13.4175   44.5392 C   0  0  0  0  0  0  0  0  0  0  0  0
    4.2401   13.2197   43.3338 C   0  0  0  0  0  0  0  0  0  0  0  0
    5.5045   11.6425   46.8877 N   0  0  0  0  0  0  0  0  0  0  0  0
    4.5585   12.0989   47.7126 N   0  0  0  0  0  0  0  0  0  0  0  0
    3.6706   12.8313   47.0060 C   0  0  0  0  0  0  0  0  0  0  0  0
    6.2653   11.0794   47.1583 H   0  0  0  0  0  0  0  0  0  0  0  0
    3.7320   13.7926   42.2145 N   0  0  0  0  0  0  0  0  0  0  0  0
    2.8799   14.6800   42.2954 O   0  0  0  0  0  0  0  0  0  0  0  0
    4.1108   13.4235   41.1138 O   0  0  0  0  0  0  0  0  0  0  0  0
  1  2  2  0  0  0
  1  6  1  0  0  0
  2  3  1  0  0  0
  3  4  2  0  0  0
  3  7  1  0  0  0
  4  5  1  0  0  0
  4  9  1  0  0  0
  5  6  2  0  0  0
  6 11  1  0  0  0
  7  8  1  0  0  0
  8  9  2  0  0  0
 11 12  1  0  0  0
 11 13  2  0  0  0
  7 10  1  0  0  0
M  CHG 1  11   1
M  CHG 1  12  -1
M  END
> <minimizedAffinity>
-6.16428

$$$$
4LM0_5NI_A_900


 13 14  0  0  0  0  0  0  0  0999 V2000
    5.4442   11.0813   44.2479 C   0  0  0  0  0  0  0  0  0  0  0  0
    5.0673   11.6073   43.0107 C   0  0  0  0  0  0  0  0  0  0  0  0
    4.2879   12.7682   43.0371 C   0  0  0  0  0  0  0  0  0  0  0  0
    3.9036   13.3707   44.2353 C   0  0  0  0  0  0  0  0  0  0  0  0
    4.2801   12.8425   45.4685 C   0  0  0  0  0  0  0  0  0  0  0  0
    5.0594   11.6806   45.4565 C   0  0  0  0  0  0  0  0  0  0  0  0
    3.7668   13.5246   42.0440 N   0  0  0  0  0  0  0  0  0  0  0  0
    3.0828   14.5495   42.5593 N   0  0  0  0  0  0  0  0  0  0  0  0
    3.1452   14.4904   43.9071 C   0  0  0  0  0  0  0  0  0  0  0  0
    3.8759   13.3457   41.0820 H   0  0  0  0  0  0  0  0  0  0  0  0
    5.4299   11.1516   46.6490 N   0  0  0  0  0  0  0  0  0  0  0  0
    6.2249   10.2105   46.6981 O   0  0  0  0  0  0  0  0  0  0  0  0
    4.9676   11.6007   47.6862 O   0  0  0  0  0  0  0  0  0  0  0  0
  1  2  2  0  0  0
  1  6  1  0  0  0
  2  3  1  0  0  0
  3  4  2  0  0  0
  3  7  1  0  0  0
  4  5  1  0  0  0
  4  9  1  0  0  0
  5  6  2  0  0  0
  6 11  1  0  0  0
  7  8  1  0  0  0
  8  9  2  0  0  0
 11 12  1  0  0  0
 11 13  2  0  0  0
  7 10  1  0  0  0
M  CHG 1  11   1
M  CHG 1  12  -1
M  END
> <minimizedAffinity>
-5.96202

$$$$
4LM0_5NI_A_900


 13 14  0  0  0  0  0  0  0  0999 V2000
    5.8375   11.8221   43.7877 C   0  0  0  0  0  0  0  0  0  0  0  0
    5.0517   12.8353   43.2351 C   0  0  0  0  0  0  0  0  0  0  0  0
    4.1592   13.4756   44.1009 C   0  0  0  0  0  0  0  0  0  0  0  0
    4.0557   13.1218   45.4463 C   0  0  0  0  0  0  0  0  0  0  0  0
    4.8402   12.1092   45.9945 C   0  0  0  0  0  0  0  0  0  0  0  0
    5.7368   11.4595   45.1391 C   0  0  0  0  0  0  0  0  0  0  0  0
    3.2749   14.4794   43.8999 N   0  0  0  0  0  0  0  0  0  0  0  0
    2.6323   14.7584   45.0370 N   0  0  0  0  0  0  0  0  0  0  0  0
    3.0870   13.9441   46.0139 C   0  0  0  0  0  0  0  0  0  0  0  0
    3.1268   14.9373   43.0410 H   0  0  0  0  0  0  0  0  0  0  0  0
    6.5041   10.4684   45.6568 N   0  0  0  0  0  0  0  0  0  0  0  0
    7.3918    9.9440   44.9806 O   0  0  0  0  0  0  0  0  0  0  0  0
    6.3122   10.0808   46.7988 O   0  0  0  0  0  0  0  0  0  0  0  0
  1  2  2  0  0  0
  1  6  1  0  0  0
  2  3  1  0  0  0
  3  4  2  0  0  0
  3  7  1  0  0  0
  4  5  1  0  0  0
  4  9  1  0  0  0
  5  6  2  0  0  0
  6 11  1  0  0  0
  7  8  1  0  0  0
  8  9  2  0  0  0
 11 12  1  0  0  0
 11 13  2  0  0  0
  7 10  1  0  0  0
M  CHG 1  11   1
M  CHG 1  12  -1
M  END
> <minimizedAffinity>
-5.80185

$$$$
4LM0_5NI_A_900


 13 14  0  0  0  0  0  0  0  0999 V2000
    3.3921   14.3231   43.6315 C   0  0  0  0  0  0  0  0  0  0  0  0
    3.7278   13.7508   42.4031 C   0  0  0  0  0  0  0  0  0  0  0  0
    4.3436   12.4958   42.4465 C   0  0  0  0  0  0  0  0  0  0  0  0
    4.6115   11.8477   43.6525 C   0  0  0  0  0  0  0  0  0  0  0  0
    4.2765   12.4222   44.8769 C   0  0  0  0  0  0  0  0  0  0  0  0
    3.6607   13.6782   44.8480 C   0  0  0  0  0  0  0  0  0  0  0  0
    4.7847   11.6760   41.4651 N   0  0  0  0  0  0  0  0  0  0  0  0
    5.3112   10.5688   41.9951 N   0  0  0  0  0  0  0  0  0  0  0  0
    5.2214   10.6363   43.3411 C   0  0  0  0  0  0  0  0  0  0  0  0
    4.7263   11.8674   40.5012 H   0  0  0  0  0  0  0  0  0  0  0  0
    3.3328   14.2527   46.0319 N   0  0  0  0  0  0  0  0  0  0  0  0
    2.8198   15.3733   46.0648 O   0  0  0  0  0  0  0  0  0  0  0  0
    3.5545   13.6637   47.0785 O   0  0  0  0  0  0  0  0  0  0  0  0
  1  2  2  0  0  0
  1  6  1  0  0  0
  2  3  1  0  0  0
  3  4  2  0  0  0
  3  7  1  0  0  0
  4  5  1  0  0  0
  4  9  1  0  0  0
  5  6  2  0  0  0
  6 11  1  0  0  0
  7  8  1  0  0  0
  8  9  2  0  0  0
 11 12  1  0  0  0
 11 13  2  0  0  0
  7 10  1  0  0  0
M  CHG 1  11   1
M  CHG 1  12  -1
M  END
> <minimizedAffinity>
-5.79088

$$$$
4LM0_5NI_A_900


 13 14  0  0  0  0  0  0  0  0999 V2000
    4.5625   12.2631   42.4548 C   0  0  0  0  0  0  0  0  0  0  0  0
    5.3468   11.2028   42.9131 C   0  0  0  0  0  0  0  0  0  0  0  0
    5.5167   11.1050   44.2978 C   0  0  0  0  0  0  0  0  0  0  0  0
    4.9359   12.0184   45.1779 C   0  0  0  0  0  0  0  0  0  0  0  0
    4.1548   13.0764   44.7173 C   0  0  0  0  0  0  0  0  0  0  0  0
    3.9774   13.1866   43.3339 C   0  0  0  0  0  0  0  0  0  0  0  0
    6.1950   10.2171   45.0603 N   0  0  0  0  0  0  0  0  0  0  0  0
    6.0705   10.5330   46.3520 N   0  0  0  0  0  0  0  0  0  0  0  0
    5.2999   11.6364   46.4656 C   0  0  0  0  0  0  0  0  0  0  0  0
    6.7058    9.4501   44.7137 H   0  0  0  0  0  0  0  0  0  0  0  0
    3.2236   14.2139   42.8697 N   0  0  0  0  0  0  0  0  0  0  0  0
    3.1557   14.4460   41.6607 O   0  0  0  0  0  0  0  0  0  0  0  0
    2.6124   14.9250   43.6521 O   0  0  0  0  0  0  0  0  0  0  0  0
  1  2  2  0  0  0
  1  6  1  0  0  0
  2  3  1  0  0  0
  3  4  2  0  0  0
  3  7  1  0  0  0
  4  5  1  0  0  0
  4  9  1  0  0  0
  5  6  2  0  0  0
  6 11  1  0  0  0
  7  8  1  0  0  0
  8  9  2  0  0  0
 11 12  1  0  0  0
 11 13  2  0  0  0
  7 10  1  0  0  0
M  CHG 1  11   1
M  CHG 1  12  -1
M  END
> <minimizedAffinity>
-5.77593

$$$$
4LM0_5NI_A_900


 13 14  0  0  0  0  0  0  0  0999 V2000
    5.8223   12.4768   43.9251 C   0  0  0  0  0  0  0  0  0  0  0  0
    6.8715   11.5716   43.7546 C   0  0  0  0  0  0  0  0  0  0  0  0
    7.0079   10.5824   44.7338 C   0  0  0  0  0  0  0  0  0  0  0  0
    6.1436   10.5025   45.8260 C   0  0  0  0  0  0  0  0  0  0  0  0
    5.0983   11.4083   45.9941 C   0  0  0  0  0  0  0  0  0  0  0  0
    4.9510   12.4039   45.0221 C   0  0  0  0  0  0  0  0  0  0  0  0
    7.8919    9.5676   44.8703 N   0  0  0  0  0  0  0  0  0  0  0  0
    7.6265    8.8748   45.9808 N   0  0  0  0  0  0  0  0  0  0  0  0
    6.5546    9.4190   46.5966 C   0  0  0  0  0  0  0  0  0  0  0  0
    8.6239    9.3689   44.2427 H   0  0  0  0  0  0  0  0  0  0  0  0
    3.9411   13.2960   45.1742 N   0  0  0  0  0  0  0  0  0  0  0  0
    3.4197   13.4715   46.2776 O   0  0  0  0  0  0  0  0  0  0  0  0
    3.5335   13.9269   44.2112 O   0  0  0  0  0  0  0  0  0  0  0  0
  1  2  2  0  0  0
  1  6  1  0  0  0
  2  3  1  0  0  0
  3  4  2  0  0  0
  3  7  1  0  0  0
  4  5  1  0  0  0
  4  9  1  0  0  0
  5  6  2  0  0  0
  6 11  1  0  0  0
  7  8  1  0  0  0
  8  9  2  0  0  0
 11 12  1  0  0  0
 11 13  2  0  0  0
  7 10  1  0  0  0
M  CHG 1  11   1
M  CHG 1  12  -1
M  END
> <minimizedAffinity>
-5.49003

$$$$
