1HVK_A79_A_800


 64 67  0  0  0  0  0  0  0  0999 V2000
    4.5723    0.0066   15.4141 C   0  0  0  0  0  0  0  0  0  0  0  0
    4.5253    1.2826   16.0161 O   0  0  0  0  0  0  0  0  0  0  0  0
    5.4205    1.6536   16.0578 H   0  0  0  0  0  0  0  0  0  0  0  0
    5.2380   -0.8162   17.6256 O   0  0  0  0  0  0  0  0  0  0  0  0
    5.3397   -1.0276   16.2363 C   0  0  0  0  0  0  0  0  0  0  0  0
    5.5577    0.0738   17.8415 H   0  0  0  0  0  0  0  0  0  0  0  0
    4.8236   -2.4452   15.9444 C   0  0  0  0  0  0  0  0  0  0  0  0
    5.8009   -3.4101   16.4210 N   0  0  0  0  0  0  0  0  0  0  0  0
    6.5626   -4.1548   15.6277 C   0  0  0  0  0  0  0  0  0  0  0  0
    6.4608   -4.1662   14.4141 O   0  0  0  0  0  0  0  0  0  0  0  0
    5.9048   -3.5185   17.3939 H   0  0  0  0  0  0  0  0  0  0  0  0
    7.5911   -4.9636   16.3947 C   0  0  0  0  0  0  0  0  0  0  0  0
    7.0692   -6.2487   16.8539 N   0  0  0  0  0  0  0  0  0  0  0  0
    6.7912   -6.5491   18.1247 C   0  0  0  0  0  0  0  0  0  0  0  0
    7.0121   -5.7600   19.0347 O   0  0  0  0  0  0  0  0  0  0  0  0
    6.2493   -7.7801   18.3429 N   0  0  0  0  0  0  0  0  0  0  0  0
    5.9117   -8.6838   17.2399 C   0  0  0  0  0  0  0  0  0  0  0  0
    6.9108   -6.9448   16.1759 H   0  0  0  0  0  0  0  0  0  0  0  0
    5.8637   -8.2077   19.6905 C   0  0  0  0  0  0  0  0  0  0  0  0
    4.4853   -7.7118   20.0799 C   0  0  0  0  0  0  0  0  0  0  0  0
    3.3465   -8.4237   19.6793 C   0  0  0  0  0  0  0  0  0  0  0  0
    4.4278   -6.5870   20.8098 N   0  0  0  0  0  0  0  0  0  0  0  0
    2.0855   -7.9415   20.0490 C   0  0  0  0  0  0  0  0  0  0  0  0
    3.2088   -6.1364   21.1575 C   0  0  0  0  0  0  0  0  0  0  0  0
    2.0143   -6.7782   20.8068 C   0  0  0  0  0  0  0  0  0  0  0  0
    8.9022   -5.0968   15.6237 C   0  0  0  0  0  0  0  0  0  0  0  0
    9.8115   -6.0725   16.3882 C   0  0  0  0  0  0  0  0  0  0  0  0
    9.5905   -3.7328   15.4657 C   0  0  0  0  0  0  0  0  0  0  0  0
    3.4375   -2.7679   16.5225 C   0  0  0  0  0  0  0  0  0  0  0  0
    2.9950   -4.1631   16.1616 C   0  0  0  0  0  0  0  0  0  0  0  0
    2.3530   -4.3953   14.9402 C   0  0  0  0  0  0  0  0  0  0  0  0
    2.0170   -5.7075   14.5651 C   0  0  0  0  0  0  0  0  0  0  0  0
    2.3239   -6.7815   15.4087 C   0  0  0  0  0  0  0  0  0  0  0  0
    2.9484   -6.5534   16.6372 C   0  0  0  0  0  0  0  0  0  0  0  0
    3.2821   -5.2497   17.0231 C   0  0  0  0  0  0  0  0  0  0  0  0
    5.1405    0.2036   13.9829 C   0  0  0  0  0  0  0  0  0  0  0  0
    3.4795    0.5167   12.1870 C   0  0  0  0  0  0  0  0  0  0  0  0
    3.6177   -0.6282   11.7887 O   0  0  0  0  0  0  0  0  0  0  0  0
    4.1980    1.0223   13.1841 N   0  0  0  0  0  0  0  0  0  0  0  0
    4.1005    1.9778   13.4004 H   0  0  0  0  0  0  0  0  0  0  0  0
    2.4817    1.4923   11.5751 C   0  0  0  0  0  0  0  0  0  0  0  0
    3.5280    3.5194   10.6907 C   0  0  0  0  0  0  0  0  0  0  0  0
    3.2658    4.1221   11.7211 O   0  0  0  0  0  0  0  0  0  0  0  0
    4.2156    4.1022    9.7023 N   0  0  0  0  0  0  0  0  0  0  0  0
    4.6752    3.3573    8.5345 C   0  0  0  0  0  0  0  0  0  0  0  0
    3.1346    2.2610   10.4978 N   0  0  0  0  0  0  0  0  0  0  0  0
    3.2821    1.8368    9.6217 H   0  0  0  0  0  0  0  0  0  0  0  0
    4.6032    5.5117    9.8629 C   0  0  0  0  0  0  0  0  0  0  0  0
    5.9578    5.7103   10.4927 C   0  0  0  0  0  0  0  0  0  0  0  0
    7.0781    5.7300    9.6742 C   0  0  0  0  0  0  0  0  0  0  0  0
    6.0119    5.8878   11.8129 N   0  0  0  0  0  0  0  0  0  0  0  0
    8.2995    5.9573   10.2897 C   0  0  0  0  0  0  0  0  0  0  0  0
    7.1845    6.1051   12.3885 C   0  0  0  0  0  0  0  0  0  0  0  0
    8.3617    6.1488   11.6671 C   0  0  0  0  0  0  0  0  0  0  0  0
    1.1532    0.8029   11.1319 C   0  0  0  0  0  0  0  0  0  0  0  0
    0.2935    1.6966   10.2060 C   0  0  0  0  0  0  0  0  0  0  0  0
    0.3204    0.3522   12.3325 C   0  0  0  0  0  0  0  0  0  0  0  0
    6.5563    0.7830   13.9490 C   0  0  0  0  0  0  0  0  0  0  0  0
    7.1232    0.9253   12.5653 C   0  0  0  0  0  0  0  0  0  0  0  0
    7.7935   -0.1558   11.9736 C   0  0  0  0  0  0  0  0  0  0  0  0
    8.3222   -0.0167   10.6854 C   0  0  0  0  0  0  0  0  0  0  0  0
    8.1679    1.1902    9.9906 C   0  0  0  0  0  0  0  0  0  0  0  0
    7.4993    2.2663   10.5806 C   0  0  0  0  0  0  0  0  0  0  0  0
    6.9764    2.1371   11.8728 C   0  0  0  0  0  0  0  0  0  0  0  0
 42 43  2  0  0  0
 42 44  1  0  0  0
 42 46  1  0  0  0
 44 45  1  0  0  0
 44 48  1  0  0  0
 48 49  1  0  0  0
 49 50  1  0  0  0
 49 51  2  0  0  0
 50 52  2  0  0  0
 51 53  1  0  0  0
 52 54  1  0  0  0
 53 54  2  0  0  0
 46 41  1  0  0  0
 41 37  1  0  0  0
 41 55  1  0  0  0
 37 38  2  0  0  0
 37 39  1  0  0  0
 55 56  1  0  0  0
 55 57  1  0  0  0
 39 36  1  0  0  0
 36 58  1  0  0  0
 36  1  1  0  0  0
 58 59  1  0  0  0
 59 60  2  0  0  0
 59 64  1  0  0  0
 60 61  1  0  0  0
 61 62  2  0  0  0
 62 63  1  0  0  0
 63 64  2  0  0  0
  1  2  1  0  0  0
  1  5  1  0  0  0
  4  5  1  0  0  0
  5  7  1  0  0  0
  8  7  1  0  0  0
  8  9  1  0  0  0
  7 29  1  0  0  0
 29 30  1  0  0  0
 30 31  2  0  0  0
 30 35  1  0  0  0
 31 32  1  0  0  0
 32 33  2  0  0  0
 33 34  1  0  0  0
 34 35  2  0  0  0
 13 12  1  0  0  0
 13 14  1  0  0  0
 12  9  1  0  0  0
 12 26  1  0  0  0
  9 10  2  0  0  0
 26 27  1  0  0  0
 26 28  1  0  0  0
 14 15  2  0  0  0
 14 16  1  0  0  0
 16 17  1  0  0  0
 16 19  1  0  0  0
 19 20  1  0  0  0
 20 21  1  0  0  0
 20 22  2  0  0  0
 21 23  2  0  0  0
 22 24  1  0  0  0
 23 25  1  0  0  0
 24 25  2  0  0  0
 46 47  1  0  0  0
 39 40  1  0  0  0
  2  3  1  0  0  0
  4  6  1  0  0  0
  8 11  1  0  0  0
 13 18  1  0  0  0
M  END
> <minimizedAffinity>
-11.80001

$$$$
1HVK_A79_A_800


 64 67  0  0  0  0  0  0  0  0999 V2000
    5.3822   -1.0147   16.2436 C   0  0  0  0  0  0  0  0  0  0  0  0
    5.2801   -0.8337   17.6399 O   0  0  0  0  0  0  0  0  0  0  0  0
    4.3612   -0.9732   17.9176 H   0  0  0  0  0  0  0  0  0  0  0  0
    4.5713    1.2917   16.0589 O   0  0  0  0  0  0  0  0  0  0  0  0
    4.6122    0.0286   15.4355 C   0  0  0  0  0  0  0  0  0  0  0  0
    4.1751    1.2047   16.9400 H   0  0  0  0  0  0  0  0  0  0  0  0
    5.2453    0.2170   14.0481 C   0  0  0  0  0  0  0  0  0  0  0  0
    4.3317    0.9787   13.2125 N   0  0  0  0  0  0  0  0  0  0  0  0
    3.5807    0.4500   12.2532 C   0  0  0  0  0  0  0  0  0  0  0  0
    3.6427   -0.7192   11.9177 O   0  0  0  0  0  0  0  0  0  0  0  0
    4.2655    1.9487   13.3676 H   0  0  0  0  0  0  0  0  0  0  0  0
    2.6181    1.4514   11.6444 C   0  0  0  0  0  0  0  0  0  0  0  0
    3.2406    2.2747   10.6103 N   0  0  0  0  0  0  0  0  0  0  0  0
    3.5437    3.5680   10.7444 C   0  0  0  0  0  0  0  0  0  0  0  0
    3.2627    4.1920   11.7601 O   0  0  0  0  0  0  0  0  0  0  0  0
    4.1815    4.1449    9.6876 N   0  0  0  0  0  0  0  0  0  0  0  0
    4.5875    3.3705    8.5118 C   0  0  0  0  0  0  0  0  0  0  0  0
    3.4524    1.8438    9.7508 H   0  0  0  0  0  0  0  0  0  0  0  0
    4.6020    5.5480    9.7333 C   0  0  0  0  0  0  0  0  0  0  0  0
    5.9641    5.7206   10.3755 C   0  0  0  0  0  0  0  0  0  0  0  0
    7.1211    5.6717    9.5862 C   0  0  0  0  0  0  0  0  0  0  0  0
    5.9896    5.9188   11.7027 N   0  0  0  0  0  0  0  0  0  0  0  0
    8.3666    5.8300   10.2053 C   0  0  0  0  0  0  0  0  0  0  0  0
    7.1939    6.0694   12.2829 C   0  0  0  0  0  0  0  0  0  0  0  0
    8.4046    6.0377   11.5794 C   0  0  0  0  0  0  0  0  0  0  0  0
    1.3252    0.7878   11.1763 C   0  0  0  0  0  0  0  0  0  0  0  0
    0.5775    1.7795   10.2703 C   0  0  0  0  0  0  0  0  0  0  0  0
    0.4478    0.3850   12.3709 C   0  0  0  0  0  0  0  0  0  0  0  0
    6.6340    0.8736   14.0473 C   0  0  0  0  0  0  0  0  0  0  0  0
    7.1926    0.9923   12.6521 C   0  0  0  0  0  0  0  0  0  0  0  0
    7.8139   -0.1104   12.0554 C   0  0  0  0  0  0  0  0  0  0  0  0
    8.2585   -0.0272   10.7246 C   0  0  0  0  0  0  0  0  0  0  0  0
    8.0801    1.1541    9.9952 C   0  0  0  0  0  0  0  0  0  0  0  0
    7.4769    2.2637   10.5919 C   0  0  0  0  0  0  0  0  0  0  0  0
    7.0358    2.1934   11.9187 C   0  0  0  0  0  0  0  0  0  0  0  0
    4.9452   -2.4740   15.9447 C   0  0  0  0  0  0  0  0  0  0  0  0
    6.7193   -4.1816   15.8066 C   0  0  0  0  0  0  0  0  0  0  0  0
    6.6372   -4.2431   14.5909 O   0  0  0  0  0  0  0  0  0  0  0  0
    5.9208   -3.4158   16.5429 N   0  0  0  0  0  0  0  0  0  0  0  0
    5.9795   -3.4765   17.5238 H   0  0  0  0  0  0  0  0  0  0  0  0
    7.7331   -4.9862   16.6106 C   0  0  0  0  0  0  0  0  0  0  0  0
    6.7929   -6.6135   18.1771 C   0  0  0  0  0  0  0  0  0  0  0  0
    6.9981   -5.8540   19.1124 O   0  0  0  0  0  0  0  0  0  0  0  0
    6.1862   -7.7915   18.3607 N   0  0  0  0  0  0  0  0  0  0  0  0
    5.7902   -8.6415   17.2424 C   0  0  0  0  0  0  0  0  0  0  0  0
    7.1710   -6.3114   16.9356 N   0  0  0  0  0  0  0  0  0  0  0  0
    7.0737   -6.9837   16.2231 H   0  0  0  0  0  0  0  0  0  0  0  0
    5.8192   -8.1777   19.7315 C   0  0  0  0  0  0  0  0  0  0  0  0
    4.3579   -7.9971   20.0522 C   0  0  0  0  0  0  0  0  0  0  0  0
    3.9065   -6.7387   20.4235 C   0  0  0  0  0  0  0  0  0  0  0  0
    3.5578   -9.0571   19.9346 N   0  0  0  0  0  0  0  0  0  0  0  0
    2.5482   -6.6077   20.6688 C   0  0  0  0  0  0  0  0  0  0  0  0
    2.2623   -8.9186   20.1707 C   0  0  0  0  0  0  0  0  0  0  0  0
    1.7070   -7.7096   20.5425 C   0  0  0  0  0  0  0  0  0  0  0  0
    9.1340   -5.0543   15.9254 C   0  0  0  0  0  0  0  0  0  0  0  0
   10.1172   -5.9949   16.6626 C   0  0  0  0  0  0  0  0  0  0  0  0
    9.7603   -3.6673   15.7765 C   0  0  0  0  0  0  0  0  0  0  0  0
    3.5138   -2.7969   16.3784 C   0  0  0  0  0  0  0  0  0  0  0  0
    3.1011   -4.2159   16.1092 C   0  0  0  0  0  0  0  0  0  0  0  0
    2.5034   -4.5459   14.8837 C   0  0  0  0  0  0  0  0  0  0  0  0
    2.1183   -5.8690   14.6393 C   0  0  0  0  0  0  0  0  0  0  0  0
    2.3435   -6.8552   15.6087 C   0  0  0  0  0  0  0  0  0  0  0  0
    2.9397   -6.5256   16.8290 C   0  0  0  0  0  0  0  0  0  0  0  0
    3.3186   -5.2021   17.0836 C   0  0  0  0  0  0  0  0  0  0  0  0
 42 43  2  0  0  0
 42 44  1  0  0  0
 42 46  1  0  0  0
 44 45  1  0  0  0
 44 48  1  0  0  0
 48 49  1  0  0  0
 49 50  1  0  0  0
 49 51  2  0  0  0
 50 52  2  0  0  0
 51 53  1  0  0  0
 52 54  1  0  0  0
 53 54  2  0  0  0
 46 41  1  0  0  0
 41 37  1  0  0  0
 41 55  1  0  0  0
 37 38  2  0  0  0
 37 39  1  0  0  0
 55 56  1  0  0  0
 55 57  1  0  0  0
 39 36  1  0  0  0
 36 58  1  0  0  0
 36  1  1  0  0  0
 58 59  1  0  0  0
 59 60  2  0  0  0
 59 64  1  0  0  0
 60 61  1  0  0  0
 61 62  2  0  0  0
 62 63  1  0  0  0
 63 64  2  0  0  0
  1  2  1  0  0  0
  1  5  1  0  0  0
  4  5  1  0  0  0
  5  7  1  0  0  0
  8  7  1  0  0  0
  8  9  1  0  0  0
  7 29  1  0  0  0
 29 30  1  0  0  0
 30 31  2  0  0  0
 30 35  1  0  0  0
 31 32  1  0  0  0
 32 33  2  0  0  0
 33 34  1  0  0  0
 34 35  2  0  0  0
 13 12  1  0  0  0
 13 14  1  0  0  0
 12  9  1  0  0  0
 12 26  1  0  0  0
  9 10  2  0  0  0
 26 27  1  0  0  0
 26 28  1  0  0  0
 14 15  2  0  0  0
 14 16  1  0  0  0
 16 17  1  0  0  0
 16 19  1  0  0  0
 19 20  1  0  0  0
 20 21  1  0  0  0
 20 22  2  0  0  0
 21 23  2  0  0  0
 22 24  1  0  0  0
 23 25  1  0  0  0
 24 25  2  0  0  0
 46 47  1  0  0  0
 39 40  1  0  0  0
  2  3  1  0  0  0
  4  6  1  0  0  0
  8 11  1  0  0  0
 13 18  1  0  0  0
M  END
> <minimizedAffinity>
-11.65445

$$$$
1HVK_A79_A_800


 64 67  0  0  0  0  0  0  0  0999 V2000
    4.5052   -0.6710   15.0144 C   0  0  0  0  0  0  0  0  0  0  0  0
    3.5283    0.2769   15.3887 O   0  0  0  0  0  0  0  0  0  0  0  0
    3.9427    1.1489   15.4816 H   0  0  0  0  0  0  0  0  0  0  0  0
    5.1216   -0.6042   17.3864 O   0  0  0  0  0  0  0  0  0  0  0  0
    5.5703   -0.9040   16.0848 C   0  0  0  0  0  0  0  0  0  0  0  0
    4.8216    0.3176   17.4207 H   0  0  0  0  0  0  0  0  0  0  0  0
    6.0335   -2.3691   16.0804 C   0  0  0  0  0  0  0  0  0  0  0  0
    4.8645   -3.2332   16.0893 N   0  0  0  0  0  0  0  0  0  0  0  0
    4.4244   -3.9043   15.0311 C   0  0  0  0  0  0  0  0  0  0  0  0
    4.9082   -3.7985   13.9184 O   0  0  0  0  0  0  0  0  0  0  0  0
    4.3672   -3.3268   16.9338 H   0  0  0  0  0  0  0  0  0  0  0  0
    3.2767   -4.8376   15.3657 C   0  0  0  0  0  0  0  0  0  0  0  0
    3.4604   -5.5210   16.6441 N   0  0  0  0  0  0  0  0  0  0  0  0
    3.8944   -6.7759   16.7829 C   0  0  0  0  0  0  0  0  0  0  0  0
    4.1264   -7.4867   15.8130 O   0  0  0  0  0  0  0  0  0  0  0  0
    4.0623   -7.2118   18.0628 N   0  0  0  0  0  0  0  0  0  0  0  0
    3.8621   -6.3279   19.2142 C   0  0  0  0  0  0  0  0  0  0  0  0
    3.2483   -5.0188   17.4639 H   0  0  0  0  0  0  0  0  0  0  0  0
    4.5729   -8.5568   18.3420 C   0  0  0  0  0  0  0  0  0  0  0  0
    6.0788   -8.6439   18.1921 C   0  0  0  0  0  0  0  0  0  0  0  0
    6.9089   -7.8471   18.9922 C   0  0  0  0  0  0  0  0  0  0  0  0
    6.5497   -9.5052   17.2768 N   0  0  0  0  0  0  0  0  0  0  0  0
    8.2959   -7.9442   18.8305 C   0  0  0  0  0  0  0  0  0  0  0  0
    7.8848   -9.5873   17.1334 C   0  0  0  0  0  0  0  0  0  0  0  0
    8.7947   -8.8347   17.8866 C   0  0  0  0  0  0  0  0  0  0  0  0
    1.9232   -4.1398   15.2549 C   0  0  0  0  0  0  0  0  0  0  0  0
    0.9502   -5.0909   14.5395 C   0  0  0  0  0  0  0  0  0  0  0  0
    2.0459   -2.8171   14.4838 C   0  0  0  0  0  0  0  0  0  0  0  0
    6.9672   -2.7557   14.9235 C   0  0  0  0  0  0  0  0  0  0  0  0
    8.1717   -3.5194   15.4119 C   0  0  0  0  0  0  0  0  0  0  0  0
    9.2959   -2.8250   15.8725 C   0  0  0  0  0  0  0  0  0  0  0  0
   10.3852   -3.5340   16.4075 C   0  0  0  0  0  0  0  0  0  0  0  0
   10.3478   -4.9313   16.4818 C   0  0  0  0  0  0  0  0  0  0  0  0
    9.2356   -5.6303   16.0067 C   0  0  0  0  0  0  0  0  0  0  0  0
    8.1477   -4.9342   15.4666 C   0  0  0  0  0  0  0  0  0  0  0  0
    5.0883   -0.2045   13.6534 C   0  0  0  0  0  0  0  0  0  0  0  0
    3.3683    0.3440   11.9732 C   0  0  0  0  0  0  0  0  0  0  0  0
    3.4704   -0.7470   11.4368 O   0  0  0  0  0  0  0  0  0  0  0  0
    4.1325    0.7169   12.9946 N   0  0  0  0  0  0  0  0  0  0  0  0
    4.0609    1.6410   13.3264 H   0  0  0  0  0  0  0  0  0  0  0  0
    2.3670    1.3997   11.5206 C   0  0  0  0  0  0  0  0  0  0  0  0
    3.3761    3.4771   10.7130 C   0  0  0  0  0  0  0  0  0  0  0  0
    3.1687    4.0144   11.7910 O   0  0  0  0  0  0  0  0  0  0  0  0
    4.0156    4.1199    9.7295 N   0  0  0  0  0  0  0  0  0  0  0  0
    4.4127    3.4492    8.4957 C   0  0  0  0  0  0  0  0  0  0  0  0
    2.9682    2.2337   10.4619 N   0  0  0  0  0  0  0  0  0  0  0  0
    3.0696    1.8651    9.5547 H   0  0  0  0  0  0  0  0  0  0  0  0
    4.4168    5.5162    9.9581 C   0  0  0  0  0  0  0  0  0  0  0  0
    5.8576    5.6843   10.3666 C   0  0  0  0  0  0  0  0  0  0  0  0
    6.1705    5.7018   11.7183 C   0  0  0  0  0  0  0  0  0  0  0  0
    6.7725    5.7797    9.4016 N   0  0  0  0  0  0  0  0  0  0  0  0
    7.5121    5.8160   12.0492 C   0  0  0  0  0  0  0  0  0  0  0  0
    8.0506    5.8874    9.7308 C   0  0  0  0  0  0  0  0  0  0  0  0
    8.4725    5.9106   11.0460 C   0  0  0  0  0  0  0  0  0  0  0  0
    0.9834    0.7939   11.1266 C   0  0  0  0  0  0  0  0  0  0  0  0
    0.0636    1.8135   10.4130 C   0  0  0  0  0  0  0  0  0  0  0  0
    0.2581    0.2030   12.3362 C   0  0  0  0  0  0  0  0  0  0  0  0
    6.4854    0.4117   13.7526 C   0  0  0  0  0  0  0  0  0  0  0  0
    7.1008    0.7430   12.4230 C   0  0  0  0  0  0  0  0  0  0  0  0
    7.9071   -0.2043   11.7743 C   0  0  0  0  0  0  0  0  0  0  0  0
    8.4802    0.1108   10.5371 C   0  0  0  0  0  0  0  0  0  0  0  0
    8.2357    1.3584    9.9484 C   0  0  0  0  0  0  0  0  0  0  0  0
    7.4316    2.3011   10.5949 C   0  0  0  0  0  0  0  0  0  0  0  0
    6.8630    1.9960   11.8373 C   0  0  0  0  0  0  0  0  0  0  0  0
 42 43  2  0  0  0
 42 44  1  0  0  0
 42 46  1  0  0  0
 44 45  1  0  0  0
 44 48  1  0  0  0
 48 49  1  0  0  0
 49 50  1  0  0  0
 49 51  2  0  0  0
 50 52  2  0  0  0
 51 53  1  0  0  0
 52 54  1  0  0  0
 53 54  2  0  0  0
 46 41  1  0  0  0
 41 37  1  0  0  0
 41 55  1  0  0  0
 37 38  2  0  0  0
 37 39  1  0  0  0
 55 56  1  0  0  0
 55 57  1  0  0  0
 39 36  1  0  0  0
 36 58  1  0  0  0
 36  1  1  0  0  0
 58 59  1  0  0  0
 59 60  2  0  0  0
 59 64  1  0  0  0
 60 61  1  0  0  0
 61 62  2  0  0  0
 62 63  1  0  0  0
 63 64  2  0  0  0
  1  2  1  0  0  0
  1  5  1  0  0  0
  4  5  1  0  0  0
  5  7  1  0  0  0
  8  7  1  0  0  0
  8  9  1  0  0  0
  7 29  1  0  0  0
 29 30  1  0  0  0
 30 31  2  0  0  0
 30 35  1  0  0  0
 31 32  1  0  0  0
 32 33  2  0  0  0
 33 34  1  0  0  0
 34 35  2  0  0  0
 13 12  1  0  0  0
 13 14  1  0  0  0
 12  9  1  0  0  0
 12 26  1  0  0  0
  9 10  2  0  0  0
 26 27  1  0  0  0
 26 28  1  0  0  0
 14 15  2  0  0  0
 14 16  1  0  0  0
 16 17  1  0  0  0
 16 19  1  0  0  0
 19 20  1  0  0  0
 20 21  1  0  0  0
 20 22  2  0  0  0
 21 23  2  0  0  0
 22 24  1  0  0  0
 23 25  1  0  0  0
 24 25  2  0  0  0
 46 47  1  0  0  0
 39 40  1  0  0  0
  2  3  1  0  0  0
  4  6  1  0  0  0
  8 11  1  0  0  0
 13 18  1  0  0  0
M  END
> <minimizedAffinity>
-10.12958

$$$$
1HVK_A79_A_800


 64 67  0  0  0  0  0  0  0  0999 V2000
    4.0059   -0.1025   15.1603 C   0  0  0  0  0  0  0  0  0  0  0  0
    4.2826    1.0211   15.9689 O   0  0  0  0  0  0  0  0  0  0  0  0
    4.9762    1.5562   15.5524 H   0  0  0  0  0  0  0  0  0  0  0  0
    6.1195   -0.9308   16.0864 O   0  0  0  0  0  0  0  0  0  0  0  0
    5.1775   -1.0768   15.0487 C   0  0  0  0  0  0  0  0  0  0  0  0
    6.4530   -0.0200   16.0945 H   0  0  0  0  0  0  0  0  0  0  0  0
    4.6798   -2.5303   15.0760 C   0  0  0  0  0  0  0  0  0  0  0  0
    5.6578   -3.3505   15.7717 N   0  0  0  0  0  0  0  0  0  0  0  0
    6.5001   -4.1811   15.1678 C   0  0  0  0  0  0  0  0  0  0  0  0
    6.4827   -4.4042   13.9706 O   0  0  0  0  0  0  0  0  0  0  0  0
    5.6983   -3.2863   16.7532 H   0  0  0  0  0  0  0  0  0  0  0  0
    7.5032   -4.7956   16.1250 C   0  0  0  0  0  0  0  0  0  0  0  0
    7.0584   -6.0809   16.6589 N   0  0  0  0  0  0  0  0  0  0  0  0
    6.8750   -6.3465   17.9544 C   0  0  0  0  0  0  0  0  0  0  0  0
    7.1267   -5.5197   18.8219 O   0  0  0  0  0  0  0  0  0  0  0  0
    6.3926   -7.5866   18.2475 N   0  0  0  0  0  0  0  0  0  0  0  0
    6.0159   -8.5385   17.1991 C   0  0  0  0  0  0  0  0  0  0  0  0
    6.8809   -6.8048   16.0157 H   0  0  0  0  0  0  0  0  0  0  0  0
    6.1114   -7.9803   19.6308 C   0  0  0  0  0  0  0  0  0  0  0  0
    4.6485   -7.8134   19.9913 C   0  0  0  0  0  0  0  0  0  0  0  0
    4.1835   -6.5839   20.4771 C   0  0  0  0  0  0  0  0  0  0  0  0
    3.8544   -8.8816   19.8190 N   0  0  0  0  0  0  0  0  0  0  0  0
    2.8287   -6.4580   20.8062 C   0  0  0  0  0  0  0  0  0  0  0  0
    2.5550   -8.7449   20.1395 C   0  0  0  0  0  0  0  0  0  0  0  0
    1.9966   -7.5577   20.6299 C   0  0  0  0  0  0  0  0  0  0  0  0
    8.9043   -4.8567   15.5212 C   0  0  0  0  0  0  0  0  0  0  0  0
    9.8041   -5.6572   16.4766 C   0  0  0  0  0  0  0  0  0  0  0  0
    9.4728   -3.4466   15.3028 C   0  0  0  0  0  0  0  0  0  0  0  0
    3.2870   -2.7326   15.6916 C   0  0  0  0  0  0  0  0  0  0  0  0
    2.9266   -4.1935   15.7848 C   0  0  0  0  0  0  0  0  0  0  0  0
    2.3341   -4.8349   14.6914 C   0  0  0  0  0  0  0  0  0  0  0  0
    2.0762   -6.2155   14.7461 C   0  0  0  0  0  0  0  0  0  0  0  0
    2.4114   -6.9497   15.8896 C   0  0  0  0  0  0  0  0  0  0  0  0
    2.9864   -6.3109   16.9908 C   0  0  0  0  0  0  0  0  0  0  0  0
    3.2422   -4.9352   16.9490 C   0  0  0  0  0  0  0  0  0  0  0  0
    3.5184    0.4377   13.7890 C   0  0  0  0  0  0  0  0  0  0  0  0
    4.8625    1.7635   12.2022 C   0  0  0  0  0  0  0  0  0  0  0  0
    4.0342    2.6586   12.1683 O   0  0  0  0  0  0  0  0  0  0  0  0
    4.6827    0.6440   12.8954 N   0  0  0  0  0  0  0  0  0  0  0  0
    5.3487   -0.0762   12.8122 H   0  0  0  0  0  0  0  0  0  0  0  0
    6.1818    1.8258   11.4423 C   0  0  0  0  0  0  0  0  0  0  0  0
    6.9170    3.9400   10.4545 C   0  0  0  0  0  0  0  0  0  0  0  0
    6.7185    3.5013    9.3312 O   0  0  0  0  0  0  0  0  0  0  0  0
    7.3248    5.1997   10.6449 N   0  0  0  0  0  0  0  0  0  0  0  0
    7.4161    5.7916   11.9757 C   0  0  0  0  0  0  0  0  0  0  0  0
    6.7478    3.1852   11.5395 N   0  0  0  0  0  0  0  0  0  0  0  0
    7.0047    3.5405   12.4210 H   0  0  0  0  0  0  0  0  0  0  0  0
    7.5834    6.0326    9.4608 C   0  0  0  0  0  0  0  0  0  0  0  0
    9.0449    6.2080    9.1379 C   0  0  0  0  0  0  0  0  0  0  0  0
    9.6320    5.3534    8.2158 C   0  0  0  0  0  0  0  0  0  0  0  0
    9.7011    7.2020    9.7369 N   0  0  0  0  0  0  0  0  0  0  0  0
   10.9673    5.5765    7.9169 C   0  0  0  0  0  0  0  0  0  0  0  0
   10.9759    7.4052    9.4420 C   0  0  0  0  0  0  0  0  0  0  0  0
   11.6565    6.6161    8.5350 C   0  0  0  0  0  0  0  0  0  0  0  0
    7.1799    0.7032   11.8669 C   0  0  0  0  0  0  0  0  0  0  0  0
    8.0303    1.0918   13.1001 C   0  0  0  0  0  0  0  0  0  0  0  0
    8.0984    0.2956   10.7144 C   0  0  0  0  0  0  0  0  0  0  0  0
    2.4460   -0.4279   13.1240 C   0  0  0  0  0  0  0  0  0  0  0  0
    1.4461    0.3524   12.3193 C   0  0  0  0  0  0  0  0  0  0  0  0
    1.5081    0.3257   10.9180 C   0  0  0  0  0  0  0  0  0  0  0  0
    0.5758    1.0568   10.1732 C   0  0  0  0  0  0  0  0  0  0  0  0
   -0.4188    1.7963   10.8267 C   0  0  0  0  0  0  0  0  0  0  0  0
   -0.4803    1.8216   12.2227 C   0  0  0  0  0  0  0  0  0  0  0  0
    0.4553    1.1002   12.9739 C   0  0  0  0  0  0  0  0  0  0  0  0
 42 43  2  0  0  0
 42 44  1  0  0  0
 42 46  1  0  0  0
 44 45  1  0  0  0
 44 48  1  0  0  0
 48 49  1  0  0  0
 49 50  1  0  0  0
 49 51  2  0  0  0
 50 52  2  0  0  0
 51 53  1  0  0  0
 52 54  1  0  0  0
 53 54  2  0  0  0
 46 41  1  0  0  0
 41 37  1  0  0  0
 41 55  1  0  0  0
 37 38  2  0  0  0
 37 39  1  0  0  0
 55 56  1  0  0  0
 55 57  1  0  0  0
 39 36  1  0  0  0
 36 58  1  0  0  0
 36  1  1  0  0  0
 58 59  1  0  0  0
 59 60  2  0  0  0
 59 64  1  0  0  0
 60 61  1  0  0  0
 61 62  2  0  0  0
 62 63  1  0  0  0
 63 64  2  0  0  0
  1  2  1  0  0  0
  1  5  1  0  0  0
  4  5  1  0  0  0
  5  7  1  0  0  0
  8  7  1  0  0  0
  8  9  1  0  0  0
  7 29  1  0  0  0
 29 30  1  0  0  0
 30 31  2  0  0  0
 30 35  1  0  0  0
 31 32  1  0  0  0
 32 33  2  0  0  0
 33 34  1  0  0  0
 34 35  2  0  0  0
 13 12  1  0  0  0
 13 14  1  0  0  0
 12  9  1  0  0  0
 12 26  1  0  0  0
  9 10  2  0  0  0
 26 27  1  0  0  0
 26 28  1  0  0  0
 14 15  2  0  0  0
 14 16  1  0  0  0
 16 17  1  0  0  0
 16 19  1  0  0  0
 19 20  1  0  0  0
 20 21  1  0  0  0
 20 22  2  0  0  0
 21 23  2  0  0  0
 22 24  1  0  0  0
 23 25  1  0  0  0
 24 25  2  0  0  0
 46 47  1  0  0  0
 39 40  1  0  0  0
  2  3  1  0  0  0
  4  6  1  0  0  0
  8 11  1  0  0  0
 13 18  1  0  0  0
M  END
> <minimizedAffinity>
-10.12489

$$$$
1HVK_A79_A_800


 64 67  0  0  0  0  0  0  0  0999 V2000
    4.5252   -0.6771   14.9756 C   0  0  0  0  0  0  0  0  0  0  0  0
    3.5294    0.2428   15.3692 O   0  0  0  0  0  0  0  0  0  0  0  0
    3.9260    1.1210   15.4799 H   0  0  0  0  0  0  0  0  0  0  0  0
    5.1336   -0.6714   17.3506 O   0  0  0  0  0  0  0  0  0  0  0  0
    5.5953   -0.9103   16.0409 C   0  0  0  0  0  0  0  0  0  0  0  0
    4.8019    0.2378   17.4157 H   0  0  0  0  0  0  0  0  0  0  0  0
    6.1089   -2.3575   15.9874 C   0  0  0  0  0  0  0  0  0  0  0  0
    4.9738   -3.2560   15.8554 N   0  0  0  0  0  0  0  0  0  0  0  0
    4.6355   -3.8704   14.7275 C   0  0  0  0  0  0  0  0  0  0  0  0
    5.1945   -3.6777   13.6627 O   0  0  0  0  0  0  0  0  0  0  0  0
    4.4204   -3.4195   16.6530 H   0  0  0  0  0  0  0  0  0  0  0  0
    3.5006   -4.8584   14.9168 C   0  0  0  0  0  0  0  0  0  0  0  0
    3.3767   -5.3163   16.2988 N   0  0  0  0  0  0  0  0  0  0  0  0
    3.5429   -6.5781   16.7022 C   0  0  0  0  0  0  0  0  0  0  0  0
    3.7659   -7.4828   15.9075 O   0  0  0  0  0  0  0  0  0  0  0  0
    3.4501   -6.7934   18.0444 N   0  0  0  0  0  0  0  0  0  0  0  0
    3.2662   -5.6927   18.9940 C   0  0  0  0  0  0  0  0  0  0  0  0
    3.1540   -4.6446   16.9832 H   0  0  0  0  0  0  0  0  0  0  0  0
    3.6548   -8.1292   18.6112 C   0  0  0  0  0  0  0  0  0  0  0  0
    2.3581   -8.7638   19.0734 C   0  0  0  0  0  0  0  0  0  0  0  0
    1.4828   -9.3291   18.1363 C   0  0  0  0  0  0  0  0  0  0  0  0
    2.1120   -8.7516   20.3927 N   0  0  0  0  0  0  0  0  0  0  0  0
    0.2902   -9.9051   18.5896 C   0  0  0  0  0  0  0  0  0  0  0  0
    0.9620   -9.3091   20.8129 C   0  0  0  0  0  0  0  0  0  0  0  0
    0.0260   -9.8997   19.9545 C   0  0  0  0  0  0  0  0  0  0  0  0
    2.1858   -4.3330   14.3455 C   0  0  0  0  0  0  0  0  0  0  0  0
    1.8971   -2.9653   14.9853 C   0  0  0  0  0  0  0  0  0  0  0  0
    1.0338   -5.3101   14.6236 C   0  0  0  0  0  0  0  0  0  0  0  0
    7.1406   -2.6444   14.8861 C   0  0  0  0  0  0  0  0  0  0  0  0
    8.2934   -3.4664   15.4039 C   0  0  0  0  0  0  0  0  0  0  0  0
    9.4175   -2.8281   15.9397 C   0  0  0  0  0  0  0  0  0  0  0  0
   10.4549   -3.5929   16.5005 C   0  0  0  0  0  0  0  0  0  0  0  0
   10.3659   -4.9895   16.5255 C   0  0  0  0  0  0  0  0  0  0  0  0
    9.2543   -5.6324   15.9756 C   0  0  0  0  0  0  0  0  0  0  0  0
    8.2181   -4.8804   15.4094 C   0  0  0  0  0  0  0  0  0  0  0  0
    5.0981   -0.1710   13.6244 C   0  0  0  0  0  0  0  0  0  0  0  0
    3.3545    0.4094   11.9797 C   0  0  0  0  0  0  0  0  0  0  0  0
    3.4472   -0.6719   11.4223 O   0  0  0  0  0  0  0  0  0  0  0  0
    4.1340    0.7631   12.9962 N   0  0  0  0  0  0  0  0  0  0  0  0
    4.0685    1.6812   13.3456 H   0  0  0  0  0  0  0  0  0  0  0  0
    2.3481    1.4741   11.5607 C   0  0  0  0  0  0  0  0  0  0  0  0
    3.3555    3.5318   10.7021 C   0  0  0  0  0  0  0  0  0  0  0  0
    3.2048    4.0755   11.7862 O   0  0  0  0  0  0  0  0  0  0  0  0
    3.9617    4.1609    9.6891 N   0  0  0  0  0  0  0  0  0  0  0  0
    4.2927    3.4800    8.4414 C   0  0  0  0  0  0  0  0  0  0  0  0
    2.9160    2.2948   10.4737 N   0  0  0  0  0  0  0  0  0  0  0  0
    2.9711    1.9219    9.5642 H   0  0  0  0  0  0  0  0  0  0  0  0
    4.3961    5.5508    9.8949 C   0  0  0  0  0  0  0  0  0  0  0  0
    5.8023    5.6856   10.4194 C   0  0  0  0  0  0  0  0  0  0  0  0
    6.8558    5.6725    9.5164 C   0  0  0  0  0  0  0  0  0  0  0  0
    5.9657    5.8415   11.7334 N   0  0  0  0  0  0  0  0  0  0  0  0
    8.1294    5.8416   10.0374 C   0  0  0  0  0  0  0  0  0  0  0  0
    7.1873    6.0030   12.2183 C   0  0  0  0  0  0  0  0  0  0  0  0
    8.3060    6.0101   11.4079 C   0  0  0  0  0  0  0  0  0  0  0  0
    0.9430    0.8823   11.2261 C   0  0  0  0  0  0  0  0  0  0  0  0
   -0.0367    1.9422   10.6678 C   0  0  0  0  0  0  0  0  0  0  0  0
    0.3173    0.1882   12.4365 C   0  0  0  0  0  0  0  0  0  0  0  0
    6.4927    0.4493   13.7322 C   0  0  0  0  0  0  0  0  0  0  0  0
    7.1271    0.7563   12.4058 C   0  0  0  0  0  0  0  0  0  0  0  0
    7.9521   -0.1978   11.7917 C   0  0  0  0  0  0  0  0  0  0  0  0
    8.5428    0.0947   10.5572 C   0  0  0  0  0  0  0  0  0  0  0  0
    8.2973    1.3266    9.9367 C   0  0  0  0  0  0  0  0  0  0  0  0
    7.4745    2.2762   10.5488 C   0  0  0  0  0  0  0  0  0  0  0  0
    6.8882    1.9937   11.7883 C   0  0  0  0  0  0  0  0  0  0  0  0
 42 43  2  0  0  0
 42 44  1  0  0  0
 42 46  1  0  0  0
 44 45  1  0  0  0
 44 48  1  0  0  0
 48 49  1  0  0  0
 49 50  1  0  0  0
 49 51  2  0  0  0
 50 52  2  0  0  0
 51 53  1  0  0  0
 52 54  1  0  0  0
 53 54  2  0  0  0
 46 41  1  0  0  0
 41 37  1  0  0  0
 41 55  1  0  0  0
 37 38  2  0  0  0
 37 39  1  0  0  0
 55 56  1  0  0  0
 55 57  1  0  0  0
 39 36  1  0  0  0
 36 58  1  0  0  0
 36  1  1  0  0  0
 58 59  1  0  0  0
 59 60  2  0  0  0
 59 64  1  0  0  0
 60 61  1  0  0  0
 61 62  2  0  0  0
 62 63  1  0  0  0
 63 64  2  0  0  0
  1  2  1  0  0  0
  1  5  1  0  0  0
  4  5  1  0  0  0
  5  7  1  0  0  0
  8  7  1  0  0  0
  8  9  1  0  0  0
  7 29  1  0  0  0
 29 30  1  0  0  0
 30 31  2  0  0  0
 30 35  1  0  0  0
 31 32  1  0  0  0
 32 33  2  0  0  0
 33 34  1  0  0  0
 34 35  2  0  0  0
 13 12  1  0  0  0
 13 14  1  0  0  0
 12  9  1  0  0  0
 12 26  1  0  0  0
  9 10  2  0  0  0
 26 27  1  0  0  0
 26 28  1  0  0  0
 14 15  2  0  0  0
 14 16  1  0  0  0
 16 17  1  0  0  0
 16 19  1  0  0  0
 19 20  1  0  0  0
 20 21  1  0  0  0
 20 22  2  0  0  0
 21 23  2  0  0  0
 22 24  1  0  0  0
 23 25  1  0  0  0
 24 25  2  0  0  0
 46 47  1  0  0  0
 39 40  1  0  0  0
  2  3  1  0  0  0
  4  6  1  0  0  0
  8 11  1  0  0  0
 13 18  1  0  0  0
M  END
> <minimizedAffinity>
-9.92580

$$$$
1HVK_A79_A_800


 64 67  0  0  0  0  0  0  0  0999 V2000
    4.6241   -1.6286   13.0166 C   0  0  0  0  0  0  0  0  0  0  0  0
    4.3330   -1.9649   11.6769 O   0  0  0  0  0  0  0  0  0  0  0  0
    3.7307   -2.7250   11.6578 H   0  0  0  0  0  0  0  0  0  0  0  0
    5.6623   -3.8492   12.9721 O   0  0  0  0  0  0  0  0  0  0  0  0
    5.4052   -2.7104   13.7610 C   0  0  0  0  0  0  0  0  0  0  0  0
    4.8238   -4.2158   12.6506 H   0  0  0  0  0  0  0  0  0  0  0  0
    6.7585   -2.1672   14.2454 C   0  0  0  0  0  0  0  0  0  0  0  0
    7.4177   -3.1877   15.0436 N   0  0  0  0  0  0  0  0  0  0  0  0
    7.2305   -3.3514   16.3482 C   0  0  0  0  0  0  0  0  0  0  0  0
    6.5480   -2.6067   17.0286 O   0  0  0  0  0  0  0  0  0  0  0  0
    8.0430   -3.7965   14.5879 H   0  0  0  0  0  0  0  0  0  0  0  0
    7.9322   -4.5818   16.8904 C   0  0  0  0  0  0  0  0  0  0  0  0
    7.0449   -5.7383   16.9909 N   0  0  0  0  0  0  0  0  0  0  0  0
    6.7757   -6.3975   18.1203 C   0  0  0  0  0  0  0  0  0  0  0  0
    7.3139   -6.1030   19.1802 O   0  0  0  0  0  0  0  0  0  0  0  0
    5.8703   -7.4106   18.0194 N   0  0  0  0  0  0  0  0  0  0  0  0
    5.1701   -7.7010   16.7654 C   0  0  0  0  0  0  0  0  0  0  0  0
    6.6136   -6.0549   16.1645 H   0  0  0  0  0  0  0  0  0  0  0  0
    5.4630   -8.1801   19.1982 C   0  0  0  0  0  0  0  0  0  0  0  0
    4.1779   -7.6591   19.8104 C   0  0  0  0  0  0  0  0  0  0  0  0
    2.9572   -8.2768   19.5062 C   0  0  0  0  0  0  0  0  0  0  0  0
    4.2812   -6.6059   20.6358 N   0  0  0  0  0  0  0  0  0  0  0  0
    1.7850   -7.7731   20.0821 C   0  0  0  0  0  0  0  0  0  0  0  0
    3.1459   -6.1335   21.1815 C   0  0  0  0  0  0  0  0  0  0  0  0
    1.8806   -6.6835   20.9402 C   0  0  0  0  0  0  0  0  0  0  0  0
    9.2199   -4.8861   16.1286 C   0  0  0  0  0  0  0  0  0  0  0  0
    9.6734   -6.3069   16.5011 C   0  0  0  0  0  0  0  0  0  0  0  0
   10.3164   -3.8657   16.4686 C   0  0  0  0  0  0  0  0  0  0  0  0
    7.6998   -1.6745   13.1360 C   0  0  0  0  0  0  0  0  0  0  0  0
    7.5181   -0.2027   12.8650 C   0  0  0  0  0  0  0  0  0  0  0  0
    7.3892    0.6909   13.9341 C   0  0  0  0  0  0  0  0  0  0  0  0
    7.3058    2.0717   13.6853 C   0  0  0  0  0  0  0  0  0  0  0  0
    7.3526    2.5547   12.3724 C   0  0  0  0  0  0  0  0  0  0  0  0
    7.4629    1.6658   11.3005 C   0  0  0  0  0  0  0  0  0  0  0  0
    7.5408    0.2882   11.5369 C   0  0  0  0  0  0  0  0  0  0  0  0
    3.2754   -1.2637   13.6933 C   0  0  0  0  0  0  0  0  0  0  0  0
    3.0243    1.0462   12.8669 C   0  0  0  0  0  0  0  0  0  0  0  0
    3.9457    1.4488   13.5580 O   0  0  0  0  0  0  0  0  0  0  0  0
    2.5939   -0.2105   12.9041 N   0  0  0  0  0  0  0  0  0  0  0  0
    1.7913   -0.4513   12.3873 H   0  0  0  0  0  0  0  0  0  0  0  0
    2.2596    1.9430   11.9009 C   0  0  0  0  0  0  0  0  0  0  0  0
    3.6275    3.6450   10.7973 C   0  0  0  0  0  0  0  0  0  0  0  0
    3.2427    4.4905   11.5915 O   0  0  0  0  0  0  0  0  0  0  0  0
    4.5302    3.9388    9.8548 N   0  0  0  0  0  0  0  0  0  0  0  0
    5.1198    2.9132    9.0003 C   0  0  0  0  0  0  0  0  0  0  0  0
    3.1612    2.3971   10.8245 N   0  0  0  0  0  0  0  0  0  0  0  0
    3.4225    1.7673   10.1143 H   0  0  0  0  0  0  0  0  0  0  0  0
    5.0105    5.3257    9.7612 C   0  0  0  0  0  0  0  0  0  0  0  0
    6.2580    5.6010   10.5606 C   0  0  0  0  0  0  0  0  0  0  0  0
    7.4920    5.4574    9.9426 C   0  0  0  0  0  0  0  0  0  0  0  0
    6.1136    6.0005   11.8243 N   0  0  0  0  0  0  0  0  0  0  0  0
    8.6117    5.7613   10.7017 C   0  0  0  0  0  0  0  0  0  0  0  0
    7.1909    6.2886   12.5384 C   0  0  0  0  0  0  0  0  0  0  0  0
    8.4671    6.1840   12.0201 C   0  0  0  0  0  0  0  0  0  0  0  0
    0.9439    1.2868   11.3767 C   0  0  0  0  0  0  0  0  0  0  0  0
    0.5720    1.7479    9.9470 C   0  0  0  0  0  0  0  0  0  0  0  0
   -0.2311    1.5390   12.3222 C   0  0  0  0  0  0  0  0  0  0  0  0
    2.3578   -2.4631   13.9404 C   0  0  0  0  0  0  0  0  0  0  0  0
    2.6648   -3.2147   15.2042 C   0  0  0  0  0  0  0  0  0  0  0  0
    3.0919   -2.5156   16.3430 C   0  0  0  0  0  0  0  0  0  0  0  0
    3.3792   -3.2212   17.5169 C   0  0  0  0  0  0  0  0  0  0  0  0
    3.2261   -4.6134   17.5535 C   0  0  0  0  0  0  0  0  0  0  0  0
    2.7997   -5.3089   16.4187 C   0  0  0  0  0  0  0  0  0  0  0  0
    2.5198   -4.6101   15.2383 C   0  0  0  0  0  0  0  0  0  0  0  0
 42 43  2  0  0  0
 42 44  1  0  0  0
 42 46  1  0  0  0
 44 45  1  0  0  0
 44 48  1  0  0  0
 48 49  1  0  0  0
 49 50  1  0  0  0
 49 51  2  0  0  0
 50 52  2  0  0  0
 51 53  1  0  0  0
 52 54  1  0  0  0
 53 54  2  0  0  0
 46 41  1  0  0  0
 41 37  1  0  0  0
 41 55  1  0  0  0
 37 38  2  0  0  0
 37 39  1  0  0  0
 55 56  1  0  0  0
 55 57  1  0  0  0
 39 36  1  0  0  0
 36 58  1  0  0  0
 36  1  1  0  0  0
 58 59  1  0  0  0
 59 60  2  0  0  0
 59 64  1  0  0  0
 60 61  1  0  0  0
 61 62  2  0  0  0
 62 63  1  0  0  0
 63 64  2  0  0  0
  1  2  1  0  0  0
  1  5  1  0  0  0
  4  5  1  0  0  0
  5  7  1  0  0  0
  8  7  1  0  0  0
  8  9  1  0  0  0
  7 29  1  0  0  0
 29 30  1  0  0  0
 30 31  2  0  0  0
 30 35  1  0  0  0
 31 32  1  0  0  0
 32 33  2  0  0  0
 33 34  1  0  0  0
 34 35  2  0  0  0
 13 12  1  0  0  0
 13 14  1  0  0  0
 12  9  1  0  0  0
 12 26  1  0  0  0
  9 10  2  0  0  0
 26 27  1  0  0  0
 26 28  1  0  0  0
 14 15  2  0  0  0
 14 16  1  0  0  0
 16 17  1  0  0  0
 16 19  1  0  0  0
 19 20  1  0  0  0
 20 21  1  0  0  0
 20 22  2  0  0  0
 21 23  2  0  0  0
 22 24  1  0  0  0
 23 25  1  0  0  0
 24 25  2  0  0  0
 46 47  1  0  0  0
 39 40  1  0  0  0
  2  3  1  0  0  0
  4  6  1  0  0  0
  8 11  1  0  0  0
 13 18  1  0  0  0
M  END
> <minimizedAffinity>
-9.86621

$$$$
1HVK_A79_A_800


 64 67  0  0  0  0  0  0  0  0999 V2000
    5.5843   -0.8458   16.1055 C   0  0  0  0  0  0  0  0  0  0  0  0
    5.1380   -0.5005   17.3995 O   0  0  0  0  0  0  0  0  0  0  0  0
    4.4583   -1.1305   17.6859 H   0  0  0  0  0  0  0  0  0  0  0  0
    3.5106    0.2324   15.3650 O   0  0  0  0  0  0  0  0  0  0  0  0
    4.5064   -0.7070   15.0315 C   0  0  0  0  0  0  0  0  0  0  0  0
    3.1003   -0.0168   16.2079 H   0  0  0  0  0  0  0  0  0  0  0  0
    5.1250   -0.2714   13.6941 C   0  0  0  0  0  0  0  0  0  0  0  0
    4.1915    0.6054   13.0063 N   0  0  0  0  0  0  0  0  0  0  0  0
    3.4252    0.2288   11.9890 C   0  0  0  0  0  0  0  0  0  0  0  0
    3.4870   -0.8719   11.4714 O   0  0  0  0  0  0  0  0  0  0  0  0
    4.1231    1.5380   13.3142 H   0  0  0  0  0  0  0  0  0  0  0  0
    2.4457    1.3059   11.5640 C   0  0  0  0  0  0  0  0  0  0  0  0
    2.9993    2.2040   10.5531 N   0  0  0  0  0  0  0  0  0  0  0  0
    3.3125    3.4852   10.7601 C   0  0  0  0  0  0  0  0  0  0  0  0
    3.1006    4.0331   11.8347 O   0  0  0  0  0  0  0  0  0  0  0  0
    3.8793    4.1393    9.7078 N   0  0  0  0  0  0  0  0  0  0  0  0
    4.2051    3.4533    8.4546 C   0  0  0  0  0  0  0  0  0  0  0  0
    3.1527    1.8372    9.6525 H   0  0  0  0  0  0  0  0  0  0  0  0
    4.3040    5.5368    9.8270 C   0  0  0  0  0  0  0  0  0  0  0  0
    5.6693    5.6711   10.4715 C   0  0  0  0  0  0  0  0  0  0  0  0
    6.8268    5.4737    9.7064 C   0  0  0  0  0  0  0  0  0  0  0  0
    5.6973    5.9827   11.7766 N   0  0  0  0  0  0  0  0  0  0  0  0
    8.0750    5.5998   10.3273 C   0  0  0  0  0  0  0  0  0  0  0  0
    6.9043    6.1006   12.3590 C   0  0  0  0  0  0  0  0  0  0  0  0
    8.1157    5.9242   11.6786 C   0  0  0  0  0  0  0  0  0  0  0  0
    1.0939    0.7211   11.1619 C   0  0  0  0  0  0  0  0  0  0  0  0
    0.2707    1.8324   10.4907 C   0  0  0  0  0  0  0  0  0  0  0  0
    0.3484    0.1638   12.3838 C   0  0  0  0  0  0  0  0  0  0  0  0
    6.5019    0.4014   13.7994 C   0  0  0  0  0  0  0  0  0  0  0  0
    7.1121    0.6358   12.4409 C   0  0  0  0  0  0  0  0  0  0  0  0
    6.8710    1.8388   11.7682 C   0  0  0  0  0  0  0  0  0  0  0  0
    7.5077    2.0937   10.5412 C   0  0  0  0  0  0  0  0  0  0  0  0
    8.3822    1.1488    9.9921 C   0  0  0  0  0  0  0  0  0  0  0  0
    8.6123   -0.0614   10.6506 C   0  0  0  0  0  0  0  0  0  0  0  0
    7.9788   -0.3278   11.8703 C   0  0  0  0  0  0  0  0  0  0  0  0
    6.1815   -2.2756   16.2008 C   0  0  0  0  0  0  0  0  0  0  0  0
    4.1369   -3.6431   16.3781 C   0  0  0  0  0  0  0  0  0  0  0  0
    3.9444   -3.2988   17.5326 O   0  0  0  0  0  0  0  0  0  0  0  0
    5.2008   -3.2578   15.6812 N   0  0  0  0  0  0  0  0  0  0  0  0
    5.3430   -3.6397   14.7849 H   0  0  0  0  0  0  0  0  0  0  0  0
    3.1885   -4.5626   15.6183 C   0  0  0  0  0  0  0  0  0  0  0  0
    4.1170   -6.6446   16.5068 C   0  0  0  0  0  0  0  0  0  0  0  0
    5.1971   -6.4011   15.9893 O   0  0  0  0  0  0  0  0  0  0  0  0
    3.9411   -7.7320   17.2658 N   0  0  0  0  0  0  0  0  0  0  0  0
    2.7123   -7.9602   18.0193 C   0  0  0  0  0  0  0  0  0  0  0  0
    3.0633   -5.8477   16.3327 N   0  0  0  0  0  0  0  0  0  0  0  0
    2.1862   -6.1211   16.6868 H   0  0  0  0  0  0  0  0  0  0  0  0
    5.0697   -8.6624   17.4186 C   0  0  0  0  0  0  0  0  0  0  0  0
    4.8768   -9.9847   16.7220 C   0  0  0  0  0  0  0  0  0  0  0  0
    4.9750  -11.1518   17.4661 C   0  0  0  0  0  0  0  0  0  0  0  0
    4.5901   -9.9680   15.4201 N   0  0  0  0  0  0  0  0  0  0  0  0
    4.7490  -12.3435   16.7946 C   0  0  0  0  0  0  0  0  0  0  0  0
    4.3755  -11.1130   14.7906 C   0  0  0  0  0  0  0  0  0  0  0  0
    4.4441  -12.3322   15.4365 C   0  0  0  0  0  0  0  0  0  0  0  0
    1.8164   -3.8898   15.3004 C   0  0  0  0  0  0  0  0  0  0  0  0
    0.8172   -4.8569   14.6213 C   0  0  0  0  0  0  0  0  0  0  0  0
    1.9852   -2.6357   14.4419 C   0  0  0  0  0  0  0  0  0  0  0  0
    7.5439   -2.4282   15.5211 C   0  0  0  0  0  0  0  0  0  0  0  0
    8.4444   -3.4332   16.1808 C   0  0  0  0  0  0  0  0  0  0  0  0
    9.8365   -3.2882   16.0851 C   0  0  0  0  0  0  0  0  0  0  0  0
   10.6709   -4.2291   16.6992 C   0  0  0  0  0  0  0  0  0  0  0  0
   10.1152   -5.2976   17.4151 C   0  0  0  0  0  0  0  0  0  0  0  0
    8.7282   -5.4407   17.5106 C   0  0  0  0  0  0  0  0  0  0  0  0
    7.8878   -4.5084   16.8905 C   0  0  0  0  0  0  0  0  0  0  0  0
 42 43  2  0  0  0
 42 44  1  0  0  0
 42 46  1  0  0  0
 44 45  1  0  0  0
 44 48  1  0  0  0
 48 49  1  0  0  0
 49 50  1  0  0  0
 49 51  2  0  0  0
 50 52  2  0  0  0
 51 53  1  0  0  0
 52 54  1  0  0  0
 53 54  2  0  0  0
 46 41  1  0  0  0
 41 37  1  0  0  0
 41 55  1  0  0  0
 37 38  2  0  0  0
 37 39  1  0  0  0
 55 56  1  0  0  0
 55 57  1  0  0  0
 39 36  1  0  0  0
 36 58  1  0  0  0
 36  1  1  0  0  0
 58 59  1  0  0  0
 59 60  2  0  0  0
 59 64  1  0  0  0
 60 61  1  0  0  0
 61 62  2  0  0  0
 62 63  1  0  0  0
 63 64  2  0  0  0
  1  2  1  0  0  0
  1  5  1  0  0  0
  4  5  1  0  0  0
  5  7  1  0  0  0
  8  7  1  0  0  0
  8  9  1  0  0  0
  7 29  1  0  0  0
 29 30  1  0  0  0
 30 31  2  0  0  0
 30 35  1  0  0  0
 31 32  1  0  0  0
 32 33  2  0  0  0
 33 34  1  0  0  0
 34 35  2  0  0  0
 13 12  1  0  0  0
 13 14  1  0  0  0
 12  9  1  0  0  0
 12 26  1  0  0  0
  9 10  2  0  0  0
 26 27  1  0  0  0
 26 28  1  0  0  0
 14 15  2  0  0  0
 14 16  1  0  0  0
 16 17  1  0  0  0
 16 19  1  0  0  0
 19 20  1  0  0  0
 20 21  1  0  0  0
 20 22  2  0  0  0
 21 23  2  0  0  0
 22 24  1  0  0  0
 23 25  1  0  0  0
 24 25  2  0  0  0
 46 47  1  0  0  0
 39 40  1  0  0  0
  2  3  1  0  0  0
  4  6  1  0  0  0
  8 11  1  0  0  0
 13 18  1  0  0  0
M  END
> <minimizedAffinity>
-9.81914

$$$$
1HVK_A79_A_800


 64 67  0  0  0  0  0  0  0  0999 V2000
    5.6036   -0.7074   14.2247 C   0  0  0  0  0  0  0  0  0  0  0  0
    6.1971   -0.1803   15.3920 O   0  0  0  0  0  0  0  0  0  0  0  0
    7.1023    0.1061   15.1934 H   0  0  0  0  0  0  0  0  0  0  0  0
    7.6301   -2.0807   14.0893 O   0  0  0  0  0  0  0  0  0  0  0  0
    6.2720   -1.9875   13.7255 C   0  0  0  0  0  0  0  0  0  0  0  0
    8.1095   -1.3090   13.7494 H   0  0  0  0  0  0  0  0  0  0  0  0
    5.5566   -3.2274   14.2841 C   0  0  0  0  0  0  0  0  0  0  0  0
    6.5252   -4.0554   14.9835 N   0  0  0  0  0  0  0  0  0  0  0  0
    6.9794   -3.8021   16.2056 C   0  0  0  0  0  0  0  0  0  0  0  0
    6.6929   -2.7999   16.8355 O   0  0  0  0  0  0  0  0  0  0  0  0
    6.8664   -4.8552   14.5217 H   0  0  0  0  0  0  0  0  0  0  0  0
    7.8664   -4.9094   16.7416 C   0  0  0  0  0  0  0  0  0  0  0  0
    7.1337   -6.1493   16.9877 N   0  0  0  0  0  0  0  0  0  0  0  0
    6.8191   -6.6226   18.1957 C   0  0  0  0  0  0  0  0  0  0  0  0
    7.1816   -6.0594   19.2210 O   0  0  0  0  0  0  0  0  0  0  0  0
    6.0739   -7.7631   18.2151 N   0  0  0  0  0  0  0  0  0  0  0  0
    5.5749   -8.3827   16.9846 C   0  0  0  0  0  0  0  0  0  0  0  0
    6.8509   -6.6747   16.2046 H   0  0  0  0  0  0  0  0  0  0  0  0
    5.6319   -8.3554   19.4806 C   0  0  0  0  0  0  0  0  0  0  0  0
    4.2806   -7.8294   19.9220 C   0  0  0  0  0  0  0  0  0  0  0  0
    3.1103   -8.5002   19.5416 C   0  0  0  0  0  0  0  0  0  0  0  0
    4.2773   -6.7195   20.6765 N   0  0  0  0  0  0  0  0  0  0  0  0
    1.8753   -7.9908   19.9595 C   0  0  0  0  0  0  0  0  0  0  0  0
    3.0827   -6.2424   21.0704 C   0  0  0  0  0  0  0  0  0  0  0  0
    1.8603   -6.8426   20.7430 C   0  0  0  0  0  0  0  0  0  0  0  0
    9.1074   -5.1152   15.8763 C   0  0  0  0  0  0  0  0  0  0  0  0
    9.8918   -6.3115   16.4390 C   0  0  0  0  0  0  0  0  0  0  0  0
    9.9859   -3.8553   15.8628 C   0  0  0  0  0  0  0  0  0  0  0  0
    4.3563   -2.9334   15.1966 C   0  0  0  0  0  0  0  0  0  0  0  0
    3.5074   -4.1605   15.4121 C   0  0  0  0  0  0  0  0  0  0  0  0
    2.6103   -4.5690   14.4189 C   0  0  0  0  0  0  0  0  0  0  0  0
    1.8812   -5.7595   14.5819 C   0  0  0  0  0  0  0  0  0  0  0  0
    2.0510   -6.5373   15.7332 C   0  0  0  0  0  0  0  0  0  0  0  0
    2.9317   -6.1247   16.7359 C   0  0  0  0  0  0  0  0  0  0  0  0
    3.6585   -4.9376   16.5862 C   0  0  0  0  0  0  0  0  0  0  0  0
    5.5886    0.4332   13.1716 C   0  0  0  0  0  0  0  0  0  0  0  0
    3.2531    0.5668   12.3908 C   0  0  0  0  0  0  0  0  0  0  0  0
    3.4061   -0.3594   11.6115 O   0  0  0  0  0  0  0  0  0  0  0  0
    4.2430    1.0533   13.1321 N   0  0  0  0  0  0  0  0  0  0  0  0
    4.0761    1.8567   13.6760 H   0  0  0  0  0  0  0  0  0  0  0  0
    1.9175    1.2739   12.5856 C   0  0  0  0  0  0  0  0  0  0  0  0
    2.0920    3.0628   10.9256 C   0  0  0  0  0  0  0  0  0  0  0  0
    2.8924    3.6593   11.6308 O   0  0  0  0  0  0  0  0  0  0  0  0
    1.7509    3.5270    9.7183 N   0  0  0  0  0  0  0  0  0  0  0  0
    0.9226    2.7553    8.7973 C   0  0  0  0  0  0  0  0  0  0  0  0
    1.5146    1.9311   11.3272 N   0  0  0  0  0  0  0  0  0  0  0  0
    0.8070    1.5265   10.7751 H   0  0  0  0  0  0  0  0  0  0  0  0
    2.3233    4.8087    9.2797 C   0  0  0  0  0  0  0  0  0  0  0  0
    3.2381    4.6992    8.0872 C   0  0  0  0  0  0  0  0  0  0  0  0
    4.4905    4.1262    8.2571 C   0  0  0  0  0  0  0  0  0  0  0  0
    2.7853    5.1350    6.9115 N   0  0  0  0  0  0  0  0  0  0  0  0
    5.2832    4.0068    7.1259 C   0  0  0  0  0  0  0  0  0  0  0  0
    3.5518    5.0142    5.8385 C   0  0  0  0  0  0  0  0  0  0  0  0
    4.8137    4.4551    5.8945 C   0  0  0  0  0  0  0  0  0  0  0  0
    0.8177    0.3397   13.1809 C   0  0  0  0  0  0  0  0  0  0  0  0
    1.4014   -0.7770   14.0794 C   0  0  0  0  0  0  0  0  0  0  0  0
   -0.0524   -0.2803   12.0869 C   0  0  0  0  0  0  0  0  0  0  0  0
    6.6848    1.4815   13.3731 C   0  0  0  0  0  0  0  0  0  0  0  0
    7.0991    2.1802   12.1096 C   0  0  0  0  0  0  0  0  0  0  0  0
    7.3078    1.4353   10.9393 C   0  0  0  0  0  0  0  0  0  0  0  0
    7.6965    2.0910    9.7656 C   0  0  0  0  0  0  0  0  0  0  0  0
    7.8605    3.4824    9.7612 C   0  0  0  0  0  0  0  0  0  0  0  0
    7.6515    4.2237   10.9274 C   0  0  0  0  0  0  0  0  0  0  0  0
    7.2719    3.5729   12.1073 C   0  0  0  0  0  0  0  0  0  0  0  0
 42 43  2  0  0  0
 42 44  1  0  0  0
 42 46  1  0  0  0
 44 45  1  0  0  0
 44 48  1  0  0  0
 48 49  1  0  0  0
 49 50  1  0  0  0
 49 51  2  0  0  0
 50 52  2  0  0  0
 51 53  1  0  0  0
 52 54  1  0  0  0
 53 54  2  0  0  0
 46 41  1  0  0  0
 41 37  1  0  0  0
 41 55  1  0  0  0
 37 38  2  0  0  0
 37 39  1  0  0  0
 55 56  1  0  0  0
 55 57  1  0  0  0
 39 36  1  0  0  0
 36 58  1  0  0  0
 36  1  1  0  0  0
 58 59  1  0  0  0
 59 60  2  0  0  0
 59 64  1  0  0  0
 60 61  1  0  0  0
 61 62  2  0  0  0
 62 63  1  0  0  0
 63 64  2  0  0  0
  1  2  1  0  0  0
  1  5  1  0  0  0
  4  5  1  0  0  0
  5  7  1  0  0  0
  8  7  1  0  0  0
  8  9  1  0  0  0
  7 29  1  0  0  0
 29 30  1  0  0  0
 30 31  2  0  0  0
 30 35  1  0  0  0
 31 32  1  0  0  0
 32 33  2  0  0  0
 33 34  1  0  0  0
 34 35  2  0  0  0
 13 12  1  0  0  0
 13 14  1  0  0  0
 12  9  1  0  0  0
 12 26  1  0  0  0
  9 10  2  0  0  0
 26 27  1  0  0  0
 26 28  1  0  0  0
 14 15  2  0  0  0
 14 16  1  0  0  0
 16 17  1  0  0  0
 16 19  1  0  0  0
 19 20  1  0  0  0
 20 21  1  0  0  0
 20 22  2  0  0  0
 21 23  2  0  0  0
 22 24  1  0  0  0
 23 25  1  0  0  0
 24 25  2  0  0  0
 46 47  1  0  0  0
 39 40  1  0  0  0
  2  3  1  0  0  0
  4  6  1  0  0  0
  8 11  1  0  0  0
 13 18  1  0  0  0
M  END
> <minimizedAffinity>
-9.75440

$$$$
1HVK_A79_A_800


 64 67  0  0  0  0  0  0  0  0999 V2000
    4.2083   -0.7936   15.6651 C   0  0  0  0  0  0  0  0  0  0  0  0
    5.1280   -0.4894   16.6919 O   0  0  0  0  0  0  0  0  0  0  0  0
    5.9498   -0.9840   16.5469 H   0  0  0  0  0  0  0  0  0  0  0  0
    3.2344   -2.6748   14.4307 O   0  0  0  0  0  0  0  0  0  0  0  0
    3.7445   -2.2494   15.6734 C   0  0  0  0  0  0  0  0  0  0  0  0
    2.4981   -2.0998   14.1695 H   0  0  0  0  0  0  0  0  0  0  0  0
    4.9043   -3.1869   16.0437 C   0  0  0  0  0  0  0  0  0  0  0  0
    4.3881   -4.2782   16.8535 N   0  0  0  0  0  0  0  0  0  0  0  0
    3.7877   -5.3550   16.3595 C   0  0  0  0  0  0  0  0  0  0  0  0
    3.5319   -5.5000   15.1775 O   0  0  0  0  0  0  0  0  0  0  0  0
    4.4902   -4.2151   17.8306 H   0  0  0  0  0  0  0  0  0  0  0  0
    3.4844   -6.3949   17.4209 C   0  0  0  0  0  0  0  0  0  0  0  0
    4.1789   -7.6589   17.1864 N   0  0  0  0  0  0  0  0  0  0  0  0
    3.5778   -8.8352   16.9934 C   0  0  0  0  0  0  0  0  0  0  0  0
    2.3603   -8.9526   17.0548 O   0  0  0  0  0  0  0  0  0  0  0  0
    4.3989   -9.8888   16.7249 N   0  0  0  0  0  0  0  0  0  0  0  0
    5.8466   -9.7224   16.5711 C   0  0  0  0  0  0  0  0  0  0  0  0
    5.1631   -7.6418   17.1693 H   0  0  0  0  0  0  0  0  0  0  0  0
    3.8536  -11.2219   16.4545 C   0  0  0  0  0  0  0  0  0  0  0  0
    3.4248  -11.3868   15.0099 C   0  0  0  0  0  0  0  0  0  0  0  0
    2.3488  -12.2262   14.6909 C   0  0  0  0  0  0  0  0  0  0  0  0
    4.1166  -10.6989   14.0883 N   0  0  0  0  0  0  0  0  0  0  0  0
    1.9761  -12.3636   13.3486 C   0  0  0  0  0  0  0  0  0  0  0  0
    3.7463  -10.8413   12.8028 C   0  0  0  0  0  0  0  0  0  0  0  0
    2.6848  -11.6542   12.3857 C   0  0  0  0  0  0  0  0  0  0  0  0
    3.7021   -5.8509   18.8309 C   0  0  0  0  0  0  0  0  0  0  0  0
    5.0312   -6.4120   19.3618 C   0  0  0  0  0  0  0  0  0  0  0  0
    2.5436   -6.2449   19.7592 C   0  0  0  0  0  0  0  0  0  0  0  0
    5.7003   -3.7431   14.8534 C   0  0  0  0  0  0  0  0  0  0  0  0
    7.1799   -3.7767   15.1405 C   0  0  0  0  0  0  0  0  0  0  0  0
    7.9345   -4.8964   14.7736 C   0  0  0  0  0  0  0  0  0  0  0  0
    9.3273   -4.8938   14.9628 C   0  0  0  0  0  0  0  0  0  0  0  0
    9.9607   -3.7746   15.5155 C   0  0  0  0  0  0  0  0  0  0  0  0
    9.2098   -2.6613   15.9003 C   0  0  0  0  0  0  0  0  0  0  0  0
    7.8213   -2.6559   15.7215 C   0  0  0  0  0  0  0  0  0  0  0  0
    4.8670   -0.3624   14.3271 C   0  0  0  0  0  0  0  0  0  0  0  0
    3.3912    0.3541   12.4857 C   0  0  0  0  0  0  0  0  0  0  0  0
    3.5907   -0.6724   11.8573 O   0  0  0  0  0  0  0  0  0  0  0  0
    3.9953    0.6193   13.6394 N   0  0  0  0  0  0  0  0  0  0  0  0
    3.8583    1.5020   14.0533 H   0  0  0  0  0  0  0  0  0  0  0  0
    2.4425    1.4469   12.0086 C   0  0  0  0  0  0  0  0  0  0  0  0
    3.4360    3.4166   10.9508 C   0  0  0  0  0  0  0  0  0  0  0  0
    3.2300    4.0792   11.9569 O   0  0  0  0  0  0  0  0  0  0  0  0
    4.0675    3.9392    9.8936 N   0  0  0  0  0  0  0  0  0  0  0  0
    4.4632    3.1263    8.7480 C   0  0  0  0  0  0  0  0  0  0  0  0
    3.0343    2.1499   10.8539 N   0  0  0  0  0  0  0  0  0  0  0  0
    3.1339    1.6748    9.9974 H   0  0  0  0  0  0  0  0  0  0  0  0
    4.4616    5.3549    9.9498 C   0  0  0  0  0  0  0  0  0  0  0  0
    5.8769    5.5826   10.4146 C   0  0  0  0  0  0  0  0  0  0  0  0
    6.1139    5.7595   11.7703 C   0  0  0  0  0  0  0  0  0  0  0  0
    6.8439    5.5740    9.4969 N   0  0  0  0  0  0  0  0  0  0  0  0
    7.4346    5.9238   12.1590 C   0  0  0  0  0  0  0  0  0  0  0  0
    8.1013    5.7310    9.8812 C   0  0  0  0  0  0  0  0  0  0  0  0
    8.4492    5.9104   11.2060 C   0  0  0  0  0  0  0  0  0  0  0  0
    0.9964    0.9218   11.7445 C   0  0  0  0  0  0  0  0  0  0  0  0
    0.8052    0.3900   10.3038 C   0  0  0  0  0  0  0  0  0  0  0  0
   -0.0576    1.9880   12.0451 C   0  0  0  0  0  0  0  0  0  0  0  0
    6.2961    0.1635   14.4774 C   0  0  0  0  0  0  0  0  0  0  0  0
    6.9423    0.5512   13.1780 C   0  0  0  0  0  0  0  0  0  0  0  0
    7.6032   -0.4211   12.4125 C   0  0  0  0  0  0  0  0  0  0  0  0
    8.2059   -0.0538   11.2041 C   0  0  0  0  0  0  0  0  0  0  0  0
    8.1345    1.2729   10.7597 C   0  0  0  0  0  0  0  0  0  0  0  0
    7.4751    2.2407   11.5226 C   0  0  0  0  0  0  0  0  0  0  0  0
    6.8783    1.8819   12.7371 C   0  0  0  0  0  0  0  0  0  0  0  0
 42 43  2  0  0  0
 42 44  1  0  0  0
 42 46  1  0  0  0
 44 45  1  0  0  0
 44 48  1  0  0  0
 48 49  1  0  0  0
 49 50  1  0  0  0
 49 51  2  0  0  0
 50 52  2  0  0  0
 51 53  1  0  0  0
 52 54  1  0  0  0
 53 54  2  0  0  0
 46 41  1  0  0  0
 41 37  1  0  0  0
 41 55  1  0  0  0
 37 38  2  0  0  0
 37 39  1  0  0  0
 55 56  1  0  0  0
 55 57  1  0  0  0
 39 36  1  0  0  0
 36 58  1  0  0  0
 36  1  1  0  0  0
 58 59  1  0  0  0
 59 60  2  0  0  0
 59 64  1  0  0  0
 60 61  1  0  0  0
 61 62  2  0  0  0
 62 63  1  0  0  0
 63 64  2  0  0  0
  1  2  1  0  0  0
  1  5  1  0  0  0
  4  5  1  0  0  0
  5  7  1  0  0  0
  8  7  1  0  0  0
  8  9  1  0  0  0
  7 29  1  0  0  0
 29 30  1  0  0  0
 30 31  2  0  0  0
 30 35  1  0  0  0
 31 32  1  0  0  0
 32 33  2  0  0  0
 33 34  1  0  0  0
 34 35  2  0  0  0
 13 12  1  0  0  0
 13 14  1  0  0  0
 12  9  1  0  0  0
 12 26  1  0  0  0
  9 10  2  0  0  0
 26 27  1  0  0  0
 26 28  1  0  0  0
 14 15  2  0  0  0
 14 16  1  0  0  0
 16 17  1  0  0  0
 16 19  1  0  0  0
 19 20  1  0  0  0
 20 21  1  0  0  0
 20 22  2  0  0  0
 21 23  2  0  0  0
 22 24  1  0  0  0
 23 25  1  0  0  0
 24 25  2  0  0  0
 46 47  1  0  0  0
 39 40  1  0  0  0
  2  3  1  0  0  0
  4  6  1  0  0  0
  8 11  1  0  0  0
 13 18  1  0  0  0
M  END
> <minimizedAffinity>
-9.63282

$$$$
1HVK_A79_A_800


 64 67  0  0  0  0  0  0  0  0999 V2000
    2.9841   -1.7326   15.0683 C   0  0  0  0  0  0  0  0  0  0  0  0
    3.9056   -1.2011   15.9963 O   0  0  0  0  0  0  0  0  0  0  0  0
    4.6211   -0.7514   15.5202 H   0  0  0  0  0  0  0  0  0  0  0  0
    4.8000   -2.4871   13.6040 O   0  0  0  0  0  0  0  0  0  0  0  0
    3.5697   -2.8399   14.1934 C   0  0  0  0  0  0  0  0  0  0  0  0
    4.6865   -1.6810   13.0766 H   0  0  0  0  0  0  0  0  0  0  0  0
    3.7993   -4.1176   15.0155 C   0  0  0  0  0  0  0  0  0  0  0  0
    5.0654   -4.0034   15.7206 N   0  0  0  0  0  0  0  0  0  0  0  0
    6.2450   -4.3049   15.1901 C   0  0  0  0  0  0  0  0  0  0  0  0
    6.3797   -4.7900   14.0811 O   0  0  0  0  0  0  0  0  0  0  0  0
    5.0472   -3.6819   16.6510 H   0  0  0  0  0  0  0  0  0  0  0  0
    7.4044   -3.9512   16.1016 C   0  0  0  0  0  0  0  0  0  0  0  0
    8.0677   -5.1305   16.6533 N   0  0  0  0  0  0  0  0  0  0  0  0
    7.5978   -5.8683   17.6619 C   0  0  0  0  0  0  0  0  0  0  0  0
    6.5681   -5.5676   18.2528 O   0  0  0  0  0  0  0  0  0  0  0  0
    8.3308   -6.9692   17.9889 N   0  0  0  0  0  0  0  0  0  0  0  0
    9.5150   -7.3664   17.2226 C   0  0  0  0  0  0  0  0  0  0  0  0
    8.9248   -5.4010   16.2515 H   0  0  0  0  0  0  0  0  0  0  0  0
    7.8943   -7.8792   19.0515 C   0  0  0  0  0  0  0  0  0  0  0  0
    7.0623   -9.0292   18.5195 C   0  0  0  0  0  0  0  0  0  0  0  0
    6.4290   -9.9057   19.4109 C   0  0  0  0  0  0  0  0  0  0  0  0
    6.9726   -9.1483   17.1857 N   0  0  0  0  0  0  0  0  0  0  0  0
    5.6700  -10.9617   18.8930 C   0  0  0  0  0  0  0  0  0  0  0  0
    6.2395  -10.1680   16.7033 C   0  0  0  0  0  0  0  0  0  0  0  0
    5.5687  -11.0935   17.5128 C   0  0  0  0  0  0  0  0  0  0  0  0
    8.3769   -2.9799   15.4368 C   0  0  0  0  0  0  0  0  0  0  0  0
    9.7881   -3.2723   15.9717 C   0  0  0  0  0  0  0  0  0  0  0  0
    7.9845   -1.5230   15.7243 C   0  0  0  0  0  0  0  0  0  0  0  0
    2.6756   -4.4709   16.0014 C   0  0  0  0  0  0  0  0  0  0  0  0
    2.9194   -5.7999   16.6701 C   0  0  0  0  0  0  0  0  0  0  0  0
    3.1083   -5.8573   18.0554 C   0  0  0  0  0  0  0  0  0  0  0  0
    3.2503   -7.1030   18.6908 C   0  0  0  0  0  0  0  0  0  0  0  0
    3.2019   -8.2848   17.9423 C   0  0  0  0  0  0  0  0  0  0  0  0
    3.0317   -8.2322   16.5568 C   0  0  0  0  0  0  0  0  0  0  0  0
    2.8952   -6.9965   15.9134 C   0  0  0  0  0  0  0  0  0  0  0  0
    2.4209   -0.5356   14.2558 C   0  0  0  0  0  0  0  0  0  0  0  0
    4.3792    0.8226   13.6213 C   0  0  0  0  0  0  0  0  0  0  0  0
    4.4004    1.3901   14.7011 O   0  0  0  0  0  0  0  0  0  0  0  0
    3.4450   -0.0641   13.2938 N   0  0  0  0  0  0  0  0  0  0  0  0
    3.4328   -0.4215   12.3766 H   0  0  0  0  0  0  0  0  0  0  0  0
    5.4099    1.0805   12.5290 C   0  0  0  0  0  0  0  0  0  0  0  0
    5.3199    2.7687   10.7604 C   0  0  0  0  0  0  0  0  0  0  0  0
    5.5435    1.9156    9.9143 O   0  0  0  0  0  0  0  0  0  0  0  0
    5.0956    4.0424   10.4186 N   0  0  0  0  0  0  0  0  0  0  0  0
    4.6724    5.0430   11.3931 C   0  0  0  0  0  0  0  0  0  0  0  0
    5.2988    2.4753   12.0600 N   0  0  0  0  0  0  0  0  0  0  0  0
    5.2076    3.2014   12.7186 H   0  0  0  0  0  0  0  0  0  0  0  0
    5.1796    4.4049    8.9958 C   0  0  0  0  0  0  0  0  0  0  0  0
    3.8570    4.7737    8.3748 C   0  0  0  0  0  0  0  0  0  0  0  0
    2.8359    3.8341    8.3715 C   0  0  0  0  0  0  0  0  0  0  0  0
    3.7214    6.0046    7.8806 N   0  0  0  0  0  0  0  0  0  0  0  0
    1.6231    4.2291    7.8283 C   0  0  0  0  0  0  0  0  0  0  0  0
    2.5576    6.3698    7.3654 C   0  0  0  0  0  0  0  0  0  0  0  0
    1.4738    5.5147    7.3156 C   0  0  0  0  0  0  0  0  0  0  0  0
    6.8572    0.6791   12.9538 C   0  0  0  0  0  0  0  0  0  0  0  0
    7.7727    1.9032   13.1955 C   0  0  0  0  0  0  0  0  0  0  0  0
    7.5074   -0.2584   11.9357 C   0  0  0  0  0  0  0  0  0  0  0  0
    1.0888   -0.8259   13.5612 C   0  0  0  0  0  0  0  0  0  0  0  0
    0.7217    0.1764   12.5044 C   0  0  0  0  0  0  0  0  0  0  0  0
    0.8983   -0.1443   11.1501 C   0  0  0  0  0  0  0  0  0  0  0  0
    0.5573    0.7944   10.1698 C   0  0  0  0  0  0  0  0  0  0  0  0
    0.0305    2.0379   10.5428 C   0  0  0  0  0  0  0  0  0  0  0  0
   -0.1458    2.3563   11.8922 C   0  0  0  0  0  0  0  0  0  0  0  0
    0.2023    1.4254   12.8783 C   0  0  0  0  0  0  0  0  0  0  0  0
 42 43  2  0  0  0
 42 44  1  0  0  0
 42 46  1  0  0  0
 44 45  1  0  0  0
 44 48  1  0  0  0
 48 49  1  0  0  0
 49 50  1  0  0  0
 49 51  2  0  0  0
 50 52  2  0  0  0
 51 53  1  0  0  0
 52 54  1  0  0  0
 53 54  2  0  0  0
 46 41  1  0  0  0
 41 37  1  0  0  0
 41 55  1  0  0  0
 37 38  2  0  0  0
 37 39  1  0  0  0
 55 56  1  0  0  0
 55 57  1  0  0  0
 39 36  1  0  0  0
 36 58  1  0  0  0
 36  1  1  0  0  0
 58 59  1  0  0  0
 59 60  2  0  0  0
 59 64  1  0  0  0
 60 61  1  0  0  0
 61 62  2  0  0  0
 62 63  1  0  0  0
 63 64  2  0  0  0
  1  2  1  0  0  0
  1  5  1  0  0  0
  4  5  1  0  0  0
  5  7  1  0  0  0
  8  7  1  0  0  0
  8  9  1  0  0  0
  7 29  1  0  0  0
 29 30  1  0  0  0
 30 31  2  0  0  0
 30 35  1  0  0  0
 31 32  1  0  0  0
 32 33  2  0  0  0
 33 34  1  0  0  0
 34 35  2  0  0  0
 13 12  1  0  0  0
 13 14  1  0  0  0
 12  9  1  0  0  0
 12 26  1  0  0  0
  9 10  2  0  0  0
 26 27  1  0  0  0
 26 28  1  0  0  0
 14 15  2  0  0  0
 14 16  1  0  0  0
 16 17  1  0  0  0
 16 19  1  0  0  0
 19 20  1  0  0  0
 20 21  1  0  0  0
 20 22  2  0  0  0
 21 23  2  0  0  0
 22 24  1  0  0  0
 23 25  1  0  0  0
 24 25  2  0  0  0
 46 47  1  0  0  0
 39 40  1  0  0  0
  2  3  1  0  0  0
  4  6  1  0  0  0
  8 11  1  0  0  0
 13 18  1  0  0  0
M  END
> <minimizedAffinity>
-9.44430

$$$$
