3LZU_017_A_200


 42 45  0  0  0  0  0  0  0  0999 V2000
    7.9950  -14.3889   -0.2288 C   0  0  0  0  0  0  0  0  0  0  0  0
    7.7536  -12.9955   -0.4331 O   0  0  0  0  0  0  0  0  0  0  0  0
    8.4802  -12.4815   -0.0475 H   0  0  0  0  0  0  0  0  0  0  0  0
    8.0225  -14.6949    1.2681 C   0  0  0  0  0  0  0  0  0  0  0  0
    7.9800  -16.1615    1.4293 N   0  0  0  0  0  0  0  0  0  0  0  0
    9.1329  -16.7363    2.4157 S   0  0  0  0  0  0  0  0  0  0  0  0
   10.2783  -17.1074    1.6422 O   0  0  0  0  0  0  0  0  0  0  0  0
    8.5455  -17.8716    3.0575 O   0  0  0  0  0  0  0  0  0  0  0  0
   11.0747  -12.9803    6.2311 N   0  0  0  0  0  0  0  0  0  0  0  0
   10.5787  -13.8738    5.3516 C   0  0  0  0  0  0  0  0  0  0  0  0
    9.4056  -14.5680    5.6276 C   0  0  0  0  0  0  0  0  0  0  0  0
    8.9227  -15.4963    4.7075 C   0  0  0  0  0  0  0  0  0  0  0  0
    9.6250  -15.7048    3.5245 C   0  0  0  0  0  0  0  0  0  0  0  0
   10.7977  -15.0090    3.2701 C   0  0  0  0  0  0  0  0  0  0  0  0
   11.2798  -14.0868    4.1805 C   0  0  0  0  0  0  0  0  0  0  0  0
   10.5998  -12.8049    7.0754 H   0  0  0  0  0  0  0  0  0  0  0  0
   11.9119  -12.5034    6.0290 H   0  0  0  0  0  0  0  0  0  0  0  0
    6.6370  -16.6081    1.8398 C   0  0  0  0  0  0  0  0  0  0  0  0
    5.8354  -17.0888    0.6347 C   0  0  0  0  0  0  0  0  0  0  0  0
    6.4656  -18.3279    0.0126 C   0  0  0  0  0  0  0  0  0  0  0  0
    4.3859  -17.3821    1.0176 C   0  0  0  0  0  0  0  0  0  0  0  0
    9.2897  -14.7587   -0.9410 C   0  0  0  0  0  0  0  0  0  0  0  0
    8.9273  -15.3700   -2.2001 N   0  0  0  0  0  0  0  0  0  0  0  0
    9.0765  -16.6623   -2.4530 C   0  0  0  0  0  0  0  0  0  0  0  0
    9.5230  -17.5086   -1.6813 O   0  0  0  0  0  0  0  0  0  0  0  0
    8.5502  -14.7967   -2.9060 H   0  0  0  0  0  0  0  0  0  0  0  0
    8.6383  -16.9834   -3.7964 O   0  0  0  0  0  0  0  0  0  0  0  0
    8.4533  -15.8597   -4.6386 C   0  0  0  0  0  0  0  0  0  0  0  0
    9.4319  -15.9905   -5.7865 C   0  0  0  0  0  0  0  0  0  0  0  0
    8.7612  -16.8961   -6.6587 O   0  0  0  0  0  0  0  0  0  0  0  0
    7.3489  -16.7152   -6.5568 C   0  0  0  0  0  0  0  0  0  0  0  0
    6.7264  -17.9986   -6.4844 O   0  0  0  0  0  0  0  0  0  0  0  0
    6.3114  -18.2788   -5.1570 C   0  0  0  0  0  0  0  0  0  0  0  0
    6.1180  -16.9129   -4.5081 C   0  0  0  0  0  0  0  0  0  0  0  0
    7.0739  -15.9955   -5.2546 C   0  0  0  0  0  0  0  0  0  0  0  0
   10.1780  -13.5620   -1.2644 C   0  0  0  0  0  0  0  0  0  0  0  0
   11.7582  -12.3885    0.3024 C   0  0  0  0  0  0  0  0  0  0  0  0
   12.8778  -12.3811    1.1218 C   0  0  0  0  0  0  0  0  0  0  0  0
   13.6361  -13.5345    1.2717 C   0  0  0  0  0  0  0  0  0  0  0  0
   13.2710  -14.6916    0.5976 C   0  0  0  0  0  0  0  0  0  0  0  0
   12.1494  -14.7010   -0.2211 C   0  0  0  0  0  0  0  0  0  0  0  0
   11.3928  -13.5514   -0.3730 C   0  0  0  0  0  0  0  0  0  0  0  0
  9 10  1  0  0  0
 10 11  2  0  0  0
 10 15  1  0  0  0
 11 12  1  0  0  0
 12 13  2  0  0  0
 13 14  1  0  0  0
 13  6  1  0  0  0
 14 15  2  0  0  0
  6  7  2  0  0  0
  6  8  2  0  0  0
  6  5  1  0  0  0
  5 18  1  0  0  0
  5  4  1  0  0  0
 18 19  1  0  0  0
 19 20  1  0  0  0
 19 21  1  0  0  0
  4  1  1  0  0  0
  1  2  1  0  0  0
  1 22  1  0  0  0
 22 23  1  0  0  0
 22 36  1  0  0  0
 23 24  1  0  0  0
 24 25  2  0  0  0
 24 27  1  0  0  0
 27 28  1  0  0  0
 28 29  1  0  0  0
 28 35  1  0  0  0
 29 30  1  0  0  0
 30 31  1  0  0  0
 31 32  1  0  0  0
 31 35  1  0  0  0
 32 33  1  0  0  0
 33 34  1  0  0  0
 34 35  1  0  0  0
 36 42  1  0  0  0
 37 38  2  0  0  0
 37 42  1  0  0  0
 38 39  1  0  0  0
 39 40  2  0  0  0
 40 41  1  0  0  0
 41 42  2  0  0  0
  9 16  1  0  0  0
  9 17  1  0  0  0
  2  3  1  0  0  0
 23 26  1  0  0  0
M  END
> <minimizedAffinity>
-8.91425

$$$$
3LZU_017_A_200


 42 45  0  0  0  0  0  0  0  0999 V2000
   10.1804  -16.4472    1.3589 C   0  0  0  0  0  0  0  0  0  0  0  0
   10.9176  -17.6627    1.5030 O   0  0  0  0  0  0  0  0  0  0  0  0
   11.2675  -17.7236    2.4056 H   0  0  0  0  0  0  0  0  0  0  0  0
   11.1089  -15.2516    1.5669 C   0  0  0  0  0  0  0  0  0  0  0  0
   11.6819  -14.8922    0.2549 N   0  0  0  0  0  0  0  0  0  0  0  0
   10.6816  -14.0064   -0.6657 S   0  0  0  0  0  0  0  0  0  0  0  0
   11.4482  -13.2506   -1.6086 O   0  0  0  0  0  0  0  0  0  0  0  0
    9.9883  -13.1524    0.2485 O   0  0  0  0  0  0  0  0  0  0  0  0
    7.0450  -17.2411   -3.6234 N   0  0  0  0  0  0  0  0  0  0  0  0
    7.8739  -16.4464   -2.9167 C   0  0  0  0  0  0  0  0  0  0  0  0
    7.4715  -15.1776   -2.5139 C   0  0  0  0  0  0  0  0  0  0  0  0
    8.3533  -14.3713   -1.7969 C   0  0  0  0  0  0  0  0  0  0  0  0
    9.6209  -14.8582   -1.4931 C   0  0  0  0  0  0  0  0  0  0  0  0
   10.0075  -16.1233   -1.9104 C   0  0  0  0  0  0  0  0  0  0  0  0
    9.1353  -16.9264   -2.6217 C   0  0  0  0  0  0  0  0  0  0  0  0
    6.1392  -16.9294   -3.8506 H   0  0  0  0  0  0  0  0  0  0  0  0
    7.3456  -18.1329   -3.9122 H   0  0  0  0  0  0  0  0  0  0  0  0
   12.9962  -14.2447    0.4130 C   0  0  0  0  0  0  0  0  0  0  0  0
   13.0851  -13.5225    1.7533 C   0  0  0  0  0  0  0  0  0  0  0  0
   14.4061  -13.8176    2.4515 C   0  0  0  0  0  0  0  0  0  0  0  0
   12.9171  -12.0141    1.5795 C   0  0  0  0  0  0  0  0  0  0  0  0
    9.0129  -16.4780    2.3368 C   0  0  0  0  0  0  0  0  0  0  0  0
    9.4969  -15.9658    3.5992 N   0  0  0  0  0  0  0  0  0  0  0  0
    9.2226  -14.7486    4.0457 C   0  0  0  0  0  0  0  0  0  0  0  0
    8.5342  -13.9028    3.4785 O   0  0  0  0  0  0  0  0  0  0  0  0
   10.0593  -16.5515    4.1559 H   0  0  0  0  0  0  0  0  0  0  0  0
    9.8502  -14.5121    5.3302 O   0  0  0  0  0  0  0  0  0  0  0  0
    9.0102  -14.7448    6.4466 C   0  0  0  0  0  0  0  0  0  0  0  0
    9.1683  -16.1999    6.8344 C   0  0  0  0  0  0  0  0  0  0  0  0
   10.3703  -16.1836    7.5999 O   0  0  0  0  0  0  0  0  0  0  0  0
   10.4919  -14.9399    8.2899 C   0  0  0  0  0  0  0  0  0  0  0  0
   11.8337  -14.4698    8.1544 O   0  0  0  0  0  0  0  0  0  0  0  0
   11.9001  -13.4130    7.2100 C   0  0  0  0  0  0  0  0  0  0  0  0
   10.5036  -12.8017    7.2040 C   0  0  0  0  0  0  0  0  0  0  0  0
    9.5832  -13.9453    7.6012 C   0  0  0  0  0  0  0  0  0  0  0  0
    7.8372  -15.6007    1.9197 C   0  0  0  0  0  0  0  0  0  0  0  0
    5.6741  -15.8074    0.6517 C   0  0  0  0  0  0  0  0  0  0  0  0
    4.7925  -16.5273   -0.1415 C   0  0  0  0  0  0  0  0  0  0  0  0
    5.1097  -17.8207   -0.5346 C   0  0  0  0  0  0  0  0  0  0  0  0
    6.3091  -18.3894   -0.1291 C   0  0  0  0  0  0  0  0  0  0  0  0
    7.1935  -17.6693    0.6631 C   0  0  0  0  0  0  0  0  0  0  0  0
    6.8783  -16.3799    1.0573 C   0  0  0  0  0  0  0  0  0  0  0  0
  9 10  1  0  0  0
 10 11  2  0  0  0
 10 15  1  0  0  0
 11 12  1  0  0  0
 12 13  2  0  0  0
 13 14  1  0  0  0
 13  6  1  0  0  0
 14 15  2  0  0  0
  6  7  2  0  0  0
  6  8  2  0  0  0
  6  5  1  0  0  0
  5 18  1  0  0  0
  5  4  1  0  0  0
 18 19  1  0  0  0
 19 20  1  0  0  0
 19 21  1  0  0  0
  4  1  1  0  0  0
  1  2  1  0  0  0
  1 22  1  0  0  0
 22 23  1  0  0  0
 22 36  1  0  0  0
 23 24  1  0  0  0
 24 25  2  0  0  0
 24 27  1  0  0  0
 27 28  1  0  0  0
 28 29  1  0  0  0
 28 35  1  0  0  0
 29 30  1  0  0  0
 30 31  1  0  0  0
 31 32  1  0  0  0
 31 35  1  0  0  0
 32 33  1  0  0  0
 33 34  1  0  0  0
 34 35  1  0  0  0
 36 42  1  0  0  0
 37 38  2  0  0  0
 37 42  1  0  0  0
 38 39  1  0  0  0
 39 40  2  0  0  0
 40 41  1  0  0  0
 41 42  2  0  0  0
  9 16  1  0  0  0
  9 17  1  0  0  0
  2  3  1  0  0  0
 23 26  1  0  0  0
M  END
> <minimizedAffinity>
-8.88539

$$$$
3LZU_017_A_200


 42 45  0  0  0  0  0  0  0  0999 V2000
    8.2230  -16.0132    1.5678 C   0  0  0  0  0  0  0  0  0  0  0  0
    8.5901  -17.2694    0.9944 O   0  0  0  0  0  0  0  0  0  0  0  0
    8.9502  -17.1261    0.1052 H   0  0  0  0  0  0  0  0  0  0  0  0
    7.1206  -15.3654    0.7313 C   0  0  0  0  0  0  0  0  0  0  0  0
    6.7424  -16.3177   -0.3312 N   0  0  0  0  0  0  0  0  0  0  0  0
    5.2326  -16.8915   -0.1765 S   0  0  0  0  0  0  0  0  0  0  0  0
    4.3502  -15.8195    0.1706 O   0  0  0  0  0  0  0  0  0  0  0  0
    5.3070  -17.8661    0.8677 O   0  0  0  0  0  0  0  0  0  0  0  0
    3.2595  -19.5500   -4.8106 N   0  0  0  0  0  0  0  0  0  0  0  0
    3.6999  -18.8873   -3.7221 C   0  0  0  0  0  0  0  0  0  0  0  0
    3.3137  -17.5724   -3.4851 C   0  0  0  0  0  0  0  0  0  0  0  0
    3.7951  -16.9061   -2.3599 C   0  0  0  0  0  0  0  0  0  0  0  0
    4.6507  -17.5763   -1.4910 C   0  0  0  0  0  0  0  0  0  0  0  0
    5.0313  -18.8851   -1.7481 C   0  0  0  0  0  0  0  0  0  0  0  0
    4.5555  -19.5497   -2.8633 C   0  0  0  0  0  0  0  0  0  0  0  0
    2.6487  -19.1071   -5.4429 H   0  0  0  0  0  0  0  0  0  0  0  0
    3.5488  -20.4769   -4.9730 H   0  0  0  0  0  0  0  0  0  0  0  0
    6.9722  -15.7370   -1.6660 C   0  0  0  0  0  0  0  0  0  0  0  0
    8.0017  -16.5532   -2.4406 C   0  0  0  0  0  0  0  0  0  0  0  0
    7.4811  -16.9283   -3.8218 C   0  0  0  0  0  0  0  0  0  0  0  0
    9.3209  -15.7946   -2.5730 C   0  0  0  0  0  0  0  0  0  0  0  0
    9.4761  -15.1542    1.6783 C   0  0  0  0  0  0  0  0  0  0  0  0
    9.8868  -15.1706    3.0644 N   0  0  0  0  0  0  0  0  0  0  0  0
    9.4002  -14.3443    3.9791 C   0  0  0  0  0  0  0  0  0  0  0  0
    8.5512  -13.4743    3.7965 O   0  0  0  0  0  0  0  0  0  0  0  0
   10.5630  -15.8297    3.3432 H   0  0  0  0  0  0  0  0  0  0  0  0
   10.0043  -14.5874    5.2736 O   0  0  0  0  0  0  0  0  0  0  0  0
    9.0780  -14.7764    6.3283 C   0  0  0  0  0  0  0  0  0  0  0  0
    9.1555  -16.2311    6.7412 C   0  0  0  0  0  0  0  0  0  0  0  0
   10.2989  -16.2471    7.5919 O   0  0  0  0  0  0  0  0  0  0  0  0
   10.4147  -14.9998    8.2763 C   0  0  0  0  0  0  0  0  0  0  0  0
   11.7787  -14.5785    8.2339 O   0  0  0  0  0  0  0  0  0  0  0  0
   11.9510  -13.5368    7.2862 C   0  0  0  0  0  0  0  0  0  0  0  0
   10.5813  -12.8772    7.1725 C   0  0  0  0  0  0  0  0  0  0  0  0
    9.5943  -13.9828    7.5133 C   0  0  0  0  0  0  0  0  0  0  0  0
   10.6522  -15.6725    0.8574 C   0  0  0  0  0  0  0  0  0  0  0  0
   12.8989  -14.5445    0.7602 C   0  0  0  0  0  0  0  0  0  0  0  0
   13.7172  -13.4937    0.3718 C   0  0  0  0  0  0  0  0  0  0  0  0
   13.1867  -12.4280   -0.3428 C   0  0  0  0  0  0  0  0  0  0  0  0
   11.8364  -12.4179   -0.6641 C   0  0  0  0  0  0  0  0  0  0  0  0
   11.0166  -13.4701   -0.2780 C   0  0  0  0  0  0  0  0  0  0  0  0
   11.5435  -14.5330    0.4361 C   0  0  0  0  0  0  0  0  0  0  0  0
  9 10  1  0  0  0
 10 11  2  0  0  0
 10 15  1  0  0  0
 11 12  1  0  0  0
 12 13  2  0  0  0
 13 14  1  0  0  0
 13  6  1  0  0  0
 14 15  2  0  0  0
  6  7  2  0  0  0
  6  8  2  0  0  0
  6  5  1  0  0  0
  5 18  1  0  0  0
  5  4  1  0  0  0
 18 19  1  0  0  0
 19 20  1  0  0  0
 19 21  1  0  0  0
  4  1  1  0  0  0
  1  2  1  0  0  0
  1 22  1  0  0  0
 22 23  1  0  0  0
 22 36  1  0  0  0
 23 24  1  0  0  0
 24 25  2  0  0  0
 24 27  1  0  0  0
 27 28  1  0  0  0
 28 29  1  0  0  0
 28 35  1  0  0  0
 29 30  1  0  0  0
 30 31  1  0  0  0
 31 32  1  0  0  0
 31 35  1  0  0  0
 32 33  1  0  0  0
 33 34  1  0  0  0
 34 35  1  0  0  0
 36 42  1  0  0  0
 37 38  2  0  0  0
 37 42  1  0  0  0
 38 39  1  0  0  0
 39 40  2  0  0  0
 40 41  1  0  0  0
 41 42  2  0  0  0
  9 16  1  0  0  0
  9 17  1  0  0  0
  2  3  1  0  0  0
 23 26  1  0  0  0
M  END
> <minimizedAffinity>
-8.83497

$$$$
3LZU_017_A_200


 42 45  0  0  0  0  0  0  0  0999 V2000
    9.3826  -15.1517    3.0582 C   0  0  0  0  0  0  0  0  0  0  0  0
    8.3184  -14.2121    2.8971 O   0  0  0  0  0  0  0  0  0  0  0  0
    7.5530  -14.4975    3.4203 H   0  0  0  0  0  0  0  0  0  0  0  0
    8.9521  -16.5171    2.5241 C   0  0  0  0  0  0  0  0  0  0  0  0
    8.6834  -16.3720    1.0800 N   0  0  0  0  0  0  0  0  0  0  0  0
    9.9772  -16.6747    0.1489 S   0  0  0  0  0  0  0  0  0  0  0  0
    9.5423  -17.1516   -1.1284 O   0  0  0  0  0  0  0  0  0  0  0  0
   10.7212  -17.6725    0.8537 O   0  0  0  0  0  0  0  0  0  0  0  0
   13.1383  -12.0582   -0.9144 N   0  0  0  0  0  0  0  0  0  0  0  0
   12.4189  -13.1631   -0.6324 C   0  0  0  0  0  0  0  0  0  0  0  0
   12.9183  -14.1377    0.2249 C   0  0  0  0  0  0  0  0  0  0  0  0
   12.1600  -15.2767    0.4879 C   0  0  0  0  0  0  0  0  0  0  0  0
   10.9113  -15.4116   -0.1109 C   0  0  0  0  0  0  0  0  0  0  0  0
   10.4332  -14.4328   -0.9697 C   0  0  0  0  0  0  0  0  0  0  0  0
   11.1825  -13.3011   -1.2329 C   0  0  0  0  0  0  0  0  0  0  0  0
   14.0235  -11.9288   -0.5033 H   0  0  0  0  0  0  0  0  0  0  0  0
   12.7784  -11.3807   -1.5314 H   0  0  0  0  0  0  0  0  0  0  0  0
    7.5188  -17.1799    0.6765 C   0  0  0  0  0  0  0  0  0  0  0  0
    6.2658  -16.3149    0.5871 C   0  0  0  0  0  0  0  0  0  0  0  0
    5.8069  -16.1577   -0.8565 C   0  0  0  0  0  0  0  0  0  0  0  0
    5.1325  -16.8967    1.4302 C   0  0  0  0  0  0  0  0  0  0  0  0
    9.7766  -15.1796    4.5293 C   0  0  0  0  0  0  0  0  0  0  0  0
   11.1810  -14.8443    4.6039 N   0  0  0  0  0  0  0  0  0  0  0  0
   11.7397  -13.8803    3.8866 C   0  0  0  0  0  0  0  0  0  0  0  0
   11.1685  -13.1462    3.0829 O   0  0  0  0  0  0  0  0  0  0  0  0
   11.7518  -15.3588    5.2194 H   0  0  0  0  0  0  0  0  0  0  0  0
   13.1586  -13.7816    4.1634 O   0  0  0  0  0  0  0  0  0  0  0  0
   13.6298  -12.4596    4.3544 C   0  0  0  0  0  0  0  0  0  0  0  0
   13.4581  -12.1272    5.8216 C   0  0  0  0  0  0  0  0  0  0  0  0
   14.6023  -12.7401    6.4100 O   0  0  0  0  0  0  0  0  0  0  0  0
   15.6963  -12.7110    5.4934 C   0  0  0  0  0  0  0  0  0  0  0  0
   16.3339  -13.9890    5.5000 O   0  0  0  0  0  0  0  0  0  0  0  0
   15.9915  -14.7246    4.3362 C   0  0  0  0  0  0  0  0  0  0  0  0
   15.6284  -13.6704    3.2966 C   0  0  0  0  0  0  0  0  0  0  0  0
   15.1264  -12.4874    4.1097 C   0  0  0  0  0  0  0  0  0  0  0  0
    9.0285  -14.1639    5.3863 C   0  0  0  0  0  0  0  0  0  0  0  0
    9.0121  -15.3576    7.6009 C   0  0  0  0  0  0  0  0  0  0  0  0
    9.3982  -15.4633    8.9293 C   0  0  0  0  0  0  0  0  0  0  0  0
   10.2209  -14.4969    9.4923 C   0  0  0  0  0  0  0  0  0  0  0  0
   10.6524  -13.4257    8.7222 C   0  0  0  0  0  0  0  0  0  0  0  0
   10.2686  -13.3198    7.3919 C   0  0  0  0  0  0  0  0  0  0  0  0
    9.4470  -14.2818    6.8291 C   0  0  0  0  0  0  0  0  0  0  0  0
  9 10  1  0  0  0
 10 11  2  0  0  0
 10 15  1  0  0  0
 11 12  1  0  0  0
 12 13  2  0  0  0
 13 14  1  0  0  0
 13  6  1  0  0  0
 14 15  2  0  0  0
  6  7  2  0  0  0
  6  8  2  0  0  0
  6  5  1  0  0  0
  5 18  1  0  0  0
  5  4  1  0  0  0
 18 19  1  0  0  0
 19 20  1  0  0  0
 19 21  1  0  0  0
  4  1  1  0  0  0
  1  2  1  0  0  0
  1 22  1  0  0  0
 22 23  1  0  0  0
 22 36  1  0  0  0
 23 24  1  0  0  0
 24 25  2  0  0  0
 24 27  1  0  0  0
 27 28  1  0  0  0
 28 29  1  0  0  0
 28 35  1  0  0  0
 29 30  1  0  0  0
 30 31  1  0  0  0
 31 32  1  0  0  0
 31 35  1  0  0  0
 32 33  1  0  0  0
 33 34  1  0  0  0
 34 35  1  0  0  0
 36 42  1  0  0  0
 37 38  2  0  0  0
 37 42  1  0  0  0
 38 39  1  0  0  0
 39 40  2  0  0  0
 40 41  1  0  0  0
 41 42  2  0  0  0
  9 16  1  0  0  0
  9 17  1  0  0  0
  2  3  1  0  0  0
 23 26  1  0  0  0
M  END
> <minimizedAffinity>
-8.79222

$$$$
3LZU_017_A_200


 42 45  0  0  0  0  0  0  0  0999 V2000
    9.1367  -17.1262   -0.7630 C   0  0  0  0  0  0  0  0  0  0  0  0
    9.8686  -18.3532   -0.7750 O   0  0  0  0  0  0  0  0  0  0  0  0
    9.8429  -18.7364   -1.6657 H   0  0  0  0  0  0  0  0  0  0  0  0
    7.6705  -17.3954   -1.0987 C   0  0  0  0  0  0  0  0  0  0  0  0
    6.9546  -17.6365    0.1695 N   0  0  0  0  0  0  0  0  0  0  0  0
    6.6273  -16.2782    0.9944 S   0  0  0  0  0  0  0  0  0  0  0  0
    5.5012  -16.5010    1.8490 O   0  0  0  0  0  0  0  0  0  0  0  0
    6.3400  -15.2938   -0.0027 O   0  0  0  0  0  0  0  0  0  0  0  0
   10.8327  -14.1980    4.2230 N   0  0  0  0  0  0  0  0  0  0  0  0
    9.8446  -14.7300    3.4756 C   0  0  0  0  0  0  0  0  0  0  0  0
    9.6451  -16.1057    3.4348 C   0  0  0  0  0  0  0  0  0  0  0  0
    8.6256  -16.6300    2.6428 C   0  0  0  0  0  0  0  0  0  0  0  0
    7.8218  -15.7609    1.9115 C   0  0  0  0  0  0  0  0  0  0  0  0
    8.0410  -14.3920    1.9583 C   0  0  0  0  0  0  0  0  0  0  0  0
    9.0514  -13.8680    2.7432 C   0  0  0  0  0  0  0  0  0  0  0  0
   11.4162  -14.7843    4.7568 H   0  0  0  0  0  0  0  0  0  0  0  0
   10.9706  -13.2233    4.2348 H   0  0  0  0  0  0  0  0  0  0  0  0
    5.7432  -18.4452   -0.0544 C   0  0  0  0  0  0  0  0  0  0  0  0
    5.1460  -18.1554   -1.4275 C   0  0  0  0  0  0  0  0  0  0  0  0
    4.7526  -19.4427   -2.1399 C   0  0  0  0  0  0  0  0  0  0  0  0
    3.9333  -17.2329   -1.3182 C   0  0  0  0  0  0  0  0  0  0  0  0
    9.8070  -16.1608   -1.7320 C   0  0  0  0  0  0  0  0  0  0  0  0
    9.1095  -16.2662   -2.9941 N   0  0  0  0  0  0  0  0  0  0  0  0
    8.2672  -15.3458   -3.4408 C   0  0  0  0  0  0  0  0  0  0  0  0
    7.9666  -14.2972   -2.8742 O   0  0  0  0  0  0  0  0  0  0  0  0
    9.2686  -17.0628   -3.5503 H   0  0  0  0  0  0  0  0  0  0  0  0
    7.7139  -15.7266   -4.7248 O   0  0  0  0  0  0  0  0  0  0  0  0
    8.2923  -15.0628   -5.8343 C   0  0  0  0  0  0  0  0  0  0  0  0
    9.5837  -15.7803   -6.1661 C   0  0  0  0  0  0  0  0  0  0  0  0
    9.1274  -16.8950   -6.9277 O   0  0  0  0  0  0  0  0  0  0  0  0
    7.9582  -16.5364   -7.6641 C   0  0  0  0  0  0  0  0  0  0  0  0
    6.9992  -17.5878   -7.5422 O   0  0  0  0  0  0  0  0  0  0  0  0
    5.9686  -17.2220   -6.6384 C   0  0  0  0  0  0  0  0  0  0  0  0
    5.9482  -15.6978   -6.6601 C   0  0  0  0  0  0  0  0  0  0  0  0
    7.3723  -15.3008   -7.0165 C   0  0  0  0  0  0  0  0  0  0  0  0
    9.7291  -14.7006   -1.2989 C   0  0  0  0  0  0  0  0  0  0  0  0
   11.6426  -13.0772   -1.1184 C   0  0  0  0  0  0  0  0  0  0  0  0
   12.8478  -12.6737   -0.5621 C   0  0  0  0  0  0  0  0  0  0  0  0
   13.4533  -13.4474    0.4191 C   0  0  0  0  0  0  0  0  0  0  0  0
   12.8496  -14.6249    0.8381 C   0  0  0  0  0  0  0  0  0  0  0  0
   11.6421  -15.0288    0.2838 C   0  0  0  0  0  0  0  0  0  0  0  0
   11.0376  -14.2594   -0.6958 C   0  0  0  0  0  0  0  0  0  0  0  0
  9 10  1  0  0  0
 10 11  2  0  0  0
 10 15  1  0  0  0
 11 12  1  0  0  0
 12 13  2  0  0  0
 13 14  1  0  0  0
 13  6  1  0  0  0
 14 15  2  0  0  0
  6  7  2  0  0  0
  6  8  2  0  0  0
  6  5  1  0  0  0
  5 18  1  0  0  0
  5  4  1  0  0  0
 18 19  1  0  0  0
 19 20  1  0  0  0
 19 21  1  0  0  0
  4  1  1  0  0  0
  1  2  1  0  0  0
  1 22  1  0  0  0
 22 23  1  0  0  0
 22 36  1  0  0  0
 23 24  1  0  0  0
 24 25  2  0  0  0
 24 27  1  0  0  0
 27 28  1  0  0  0
 28 29  1  0  0  0
 28 35  1  0  0  0
 29 30  1  0  0  0
 30 31  1  0  0  0
 31 32  1  0  0  0
 31 35  1  0  0  0
 32 33  1  0  0  0
 33 34  1  0  0  0
 34 35  1  0  0  0
 36 42  1  0  0  0
 37 38  2  0  0  0
 37 42  1  0  0  0
 38 39  1  0  0  0
 39 40  2  0  0  0
 40 41  1  0  0  0
 41 42  2  0  0  0
  9 16  1  0  0  0
  9 17  1  0  0  0
  2  3  1  0  0  0
 23 26  1  0  0  0
M  END
> <minimizedAffinity>
-8.74226

$$$$
3LZU_017_A_200


 42 45  0  0  0  0  0  0  0  0999 V2000
   10.6099  -15.2832   -0.3098 C   0  0  0  0  0  0  0  0  0  0  0  0
   11.3540  -16.2597    0.4212 O   0  0  0  0  0  0  0  0  0  0  0  0
   10.9241  -16.4207    1.2757 H   0  0  0  0  0  0  0  0  0  0  0  0
   10.6062  -13.9589    0.4525 C   0  0  0  0  0  0  0  0  0  0  0  0
   11.5277  -14.0951    1.5974 N   0  0  0  0  0  0  0  0  0  0  0  0
   12.8798  -13.2109    1.4467 S   0  0  0  0  0  0  0  0  0  0  0  0
   12.5433  -11.9075    0.9607 O   0  0  0  0  0  0  0  0  0  0  0  0
   13.6920  -13.9243    0.5102 O   0  0  0  0  0  0  0  0  0  0  0  0
   15.9187  -12.7094    6.2372 N   0  0  0  0  0  0  0  0  0  0  0  0
   15.1831  -12.7881    5.1100 C   0  0  0  0  0  0  0  0  0  0  0  0
   14.2472  -11.8070    4.8011 C   0  0  0  0  0  0  0  0  0  0  0  0
   13.4901  -11.9205    3.6367 C   0  0  0  0  0  0  0  0  0  0  0  0
   13.6927  -13.0149    2.8018 C   0  0  0  0  0  0  0  0  0  0  0  0
   14.6251  -13.9879    3.1304 C   0  0  0  0  0  0  0  0  0  0  0  0
   15.3784  -13.8787    4.2847 C   0  0  0  0  0  0  0  0  0  0  0  0
   15.8042  -11.9453    6.8473 H   0  0  0  0  0  0  0  0  0  0  0  0
   16.5703  -13.4160    6.4502 H   0  0  0  0  0  0  0  0  0  0  0  0
   10.8340  -13.8206    2.8682 C   0  0  0  0  0  0  0  0  0  0  0  0
   10.7103  -15.0917    3.7020 C   0  0  0  0  0  0  0  0  0  0  0  0
   11.3002  -14.8978    5.0927 C   0  0  0  0  0  0  0  0  0  0  0  0
    9.2536  -15.5376    3.8152 C   0  0  0  0  0  0  0  0  0  0  0  0
    9.2127  -15.8360   -0.5597 C   0  0  0  0  0  0  0  0  0  0  0  0
    9.1635  -16.2712   -1.9376 N   0  0  0  0  0  0  0  0  0  0  0  0
    8.7346  -15.5043   -2.9296 C   0  0  0  0  0  0  0  0  0  0  0  0
    8.3345  -14.3460   -2.8341 O   0  0  0  0  0  0  0  0  0  0  0  0
    9.4640  -17.1844   -2.1498 H   0  0  0  0  0  0  0  0  0  0  0  0
    8.7899  -16.2102   -4.1939 O   0  0  0  0  0  0  0  0  0  0  0  0
    8.4878  -15.4138   -5.3256 C   0  0  0  0  0  0  0  0  0  0  0  0
    9.4482  -15.8116   -6.4264 C   0  0  0  0  0  0  0  0  0  0  0  0
    8.8403  -16.9885   -6.9521 O   0  0  0  0  0  0  0  0  0  0  0  0
    7.4202  -16.8947   -6.8417 C   0  0  0  0  0  0  0  0  0  0  0  0
    6.9149  -18.1392   -6.3563 O   0  0  0  0  0  0  0  0  0  0  0  0
    6.5561  -18.0334   -4.9877 C   0  0  0  0  0  0  0  0  0  0  0  0
    6.2578  -16.5541   -4.7719 C   0  0  0  0  0  0  0  0  0  0  0  0
    7.1122  -15.8363   -5.8050 C   0  0  0  0  0  0  0  0  0  0  0  0
    8.8652  -17.0444    0.3034 C   0  0  0  0  0  0  0  0  0  0  0  0
    6.7597  -18.3112   -0.2365 C   0  0  0  0  0  0  0  0  0  0  0  0
    5.3838  -18.4726   -0.1624 C   0  0  0  0  0  0  0  0  0  0  0  0
    4.6127  -17.5498    0.5316 C   0  0  0  0  0  0  0  0  0  0  0  0
    5.2234  -16.4660    1.1474 C   0  0  0  0  0  0  0  0  0  0  0  0
    6.6007  -16.3043    1.0759 C   0  0  0  0  0  0  0  0  0  0  0  0
    7.3712  -17.2228    0.3831 C   0  0  0  0  0  0  0  0  0  0  0  0
  9 10  1  0  0  0
 10 11  2  0  0  0
 10 15  1  0  0  0
 11 12  1  0  0  0
 12 13  2  0  0  0
 13 14  1  0  0  0
 13  6  1  0  0  0
 14 15  2  0  0  0
  6  7  2  0  0  0
  6  8  2  0  0  0
  6  5  1  0  0  0
  5 18  1  0  0  0
  5  4  1  0  0  0
 18 19  1  0  0  0
 19 20  1  0  0  0
 19 21  1  0  0  0
  4  1  1  0  0  0
  1  2  1  0  0  0
  1 22  1  0  0  0
 22 23  1  0  0  0
 22 36  1  0  0  0
 23 24  1  0  0  0
 24 25  2  0  0  0
 24 27  1  0  0  0
 27 28  1  0  0  0
 28 29  1  0  0  0
 28 35  1  0  0  0
 29 30  1  0  0  0
 30 31  1  0  0  0
 31 32  1  0  0  0
 31 35  1  0  0  0
 32 33  1  0  0  0
 33 34  1  0  0  0
 34 35  1  0  0  0
 36 42  1  0  0  0
 37 38  2  0  0  0
 37 42  1  0  0  0
 38 39  1  0  0  0
 39 40  2  0  0  0
 40 41  1  0  0  0
 41 42  2  0  0  0
  9 16  1  0  0  0
  9 17  1  0  0  0
  2  3  1  0  0  0
 23 26  1  0  0  0
M  END
> <minimizedAffinity>
-8.73652

$$$$
3LZU_017_A_200


 42 45  0  0  0  0  0  0  0  0999 V2000
    9.9559  -16.9708    0.4128 C   0  0  0  0  0  0  0  0  0  0  0  0
   10.9250  -17.9918    0.6579 O   0  0  0  0  0  0  0  0  0  0  0  0
   11.7558  -17.7627    0.2128 H   0  0  0  0  0  0  0  0  0  0  0  0
    9.6603  -16.8873   -1.0841 C   0  0  0  0  0  0  0  0  0  0  0  0
    8.4878  -16.0089   -1.2637 N   0  0  0  0  0  0  0  0  0  0  0  0
    8.7739  -14.7404   -2.2342 S   0  0  0  0  0  0  0  0  0  0  0  0
   10.1426  -14.3427   -2.1051 O   0  0  0  0  0  0  0  0  0  0  0  0
    7.8864  -13.7142   -1.7814 O   0  0  0  0  0  0  0  0  0  0  0  0
    7.6478  -15.5615   -7.7562 N   0  0  0  0  0  0  0  0  0  0  0  0
    7.9498  -15.3924   -6.4531 C   0  0  0  0  0  0  0  0  0  0  0  0
    8.9763  -16.1197   -5.8603 C   0  0  0  0  0  0  0  0  0  0  0  0
    9.2579  -15.9358   -4.5081 C   0  0  0  0  0  0  0  0  0  0  0  0
    8.5063  -15.0197   -3.7788 C   0  0  0  0  0  0  0  0  0  0  0  0
    7.4808  -14.3092   -4.3852 C   0  0  0  0  0  0  0  0  0  0  0  0
    7.1986  -14.4887   -5.7268 C   0  0  0  0  0  0  0  0  0  0  0  0
    8.1635  -16.1979   -8.3024 H   0  0  0  0  0  0  0  0  0  0  0  0
    6.9116  -15.0487   -8.1615 H   0  0  0  0  0  0  0  0  0  0  0  0
    7.3132  -16.7812   -1.7058 C   0  0  0  0  0  0  0  0  0  0  0  0
    6.3636  -17.0359   -0.5398 C   0  0  0  0  0  0  0  0  0  0  0  0
    4.9571  -16.5459   -0.8578 C   0  0  0  0  0  0  0  0  0  0  0  0
    6.3248  -18.5184   -0.1736 C   0  0  0  0  0  0  0  0  0  0  0  0
   10.4806  -15.6647    0.9949 C   0  0  0  0  0  0  0  0  0  0  0  0
   10.5855  -15.8440    2.4257 N   0  0  0  0  0  0  0  0  0  0  0  0
    9.6040  -15.5611    3.2700 C   0  0  0  0  0  0  0  0  0  0  0  0
    8.4929  -15.1255    2.9755 O   0  0  0  0  0  0  0  0  0  0  0  0
   11.4296  -16.1945    2.7917 H   0  0  0  0  0  0  0  0  0  0  0  0
   10.0001  -15.8316    4.6374 O   0  0  0  0  0  0  0  0  0  0  0  0
    9.2235  -15.1657    5.6170 C   0  0  0  0  0  0  0  0  0  0  0  0
    8.9871  -16.1450    6.7473 C   0  0  0  0  0  0  0  0  0  0  0  0
   10.2015  -16.0564    7.4878 O   0  0  0  0  0  0  0  0  0  0  0  0
   10.7325  -14.7345    7.3969 C   0  0  0  0  0  0  0  0  0  0  0  0
   12.1370  -14.8205    7.1520 O   0  0  0  0  0  0  0  0  0  0  0  0
   12.4271  -14.5230    5.7955 C   0  0  0  0  0  0  0  0  0  0  0  0
   11.2703  -13.6469    5.3283 C   0  0  0  0  0  0  0  0  0  0  0  0
   10.0954  -14.0684    6.1969 C   0  0  0  0  0  0  0  0  0  0  0  0
   11.8668  -15.2785    0.4900 C   0  0  0  0  0  0  0  0  0  0  0  0
   13.5243  -14.1724    2.0259 C   0  0  0  0  0  0  0  0  0  0  0  0
   13.9958  -13.0617    2.7106 C   0  0  0  0  0  0  0  0  0  0  0  0
   13.3302  -11.8476    2.6064 C   0  0  0  0  0  0  0  0  0  0  0  0
   12.1920  -11.7513    1.8178 C   0  0  0  0  0  0  0  0  0  0  0  0
   11.7202  -12.8616    1.1301 C   0  0  0  0  0  0  0  0  0  0  0  0
   12.3818  -14.0736    1.2340 C   0  0  0  0  0  0  0  0  0  0  0  0
  9 10  1  0  0  0
 10 11  2  0  0  0
 10 15  1  0  0  0
 11 12  1  0  0  0
 12 13  2  0  0  0
 13 14  1  0  0  0
 13  6  1  0  0  0
 14 15  2  0  0  0
  6  7  2  0  0  0
  6  8  2  0  0  0
  6  5  1  0  0  0
  5 18  1  0  0  0
  5  4  1  0  0  0
 18 19  1  0  0  0
 19 20  1  0  0  0
 19 21  1  0  0  0
  4  1  1  0  0  0
  1  2  1  0  0  0
  1 22  1  0  0  0
 22 23  1  0  0  0
 22 36  1  0  0  0
 23 24  1  0  0  0
 24 25  2  0  0  0
 24 27  1  0  0  0
 27 28  1  0  0  0
 28 29  1  0  0  0
 28 35  1  0  0  0
 29 30  1  0  0  0
 30 31  1  0  0  0
 31 32  1  0  0  0
 31 35  1  0  0  0
 32 33  1  0  0  0
 33 34  1  0  0  0
 34 35  1  0  0  0
 36 42  1  0  0  0
 37 38  2  0  0  0
 37 42  1  0  0  0
 38 39  1  0  0  0
 39 40  2  0  0  0
 40 41  1  0  0  0
 41 42  2  0  0  0
  9 16  1  0  0  0
  9 17  1  0  0  0
  2  3  1  0  0  0
 23 26  1  0  0  0
M  END
> <minimizedAffinity>
-8.56233

$$$$
3LZU_017_A_200


 42 45  0  0  0  0  0  0  0  0999 V2000
    9.0909  -17.2236   -0.2265 C   0  0  0  0  0  0  0  0  0  0  0  0
   10.0746  -18.2573   -0.3014 O   0  0  0  0  0  0  0  0  0  0  0  0
   10.7310  -18.0305   -0.9786 H   0  0  0  0  0  0  0  0  0  0  0  0
    8.3500  -17.1175   -1.5587 C   0  0  0  0  0  0  0  0  0  0  0  0
    6.9074  -17.0106   -1.2650 N   0  0  0  0  0  0  0  0  0  0  0  0
    5.9723  -17.0758   -2.5893 S   0  0  0  0  0  0  0  0  0  0  0  0
    4.8513  -16.2019   -2.4228 O   0  0  0  0  0  0  0  0  0  0  0  0
    5.5599  -18.4416   -2.6903 O   0  0  0  0  0  0  0  0  0  0  0  0
    8.5320  -15.7666   -7.5056 N   0  0  0  0  0  0  0  0  0  0  0  0
    7.9315  -16.0352   -6.3286 C   0  0  0  0  0  0  0  0  0  0  0  0
    7.9143  -15.0919   -5.3069 C   0  0  0  0  0  0  0  0  0  0  0  0
    7.2992  -15.4010   -4.0954 C   0  0  0  0  0  0  0  0  0  0  0  0
    6.7076  -16.6502   -3.9360 C   0  0  0  0  0  0  0  0  0  0  0  0
    6.7418  -17.5814   -4.9636 C   0  0  0  0  0  0  0  0  0  0  0  0
    7.3509  -17.2784   -6.1673 C   0  0  0  0  0  0  0  0  0  0  0  0
    8.9555  -14.8902   -7.6534 H   0  0  0  0  0  0  0  0  0  0  0  0
    8.5469  -16.4468   -8.2171 H   0  0  0  0  0  0  0  0  0  0  0  0
    6.4991  -18.0062   -0.2581 C   0  0  0  0  0  0  0  0  0  0  0  0
    5.7070  -17.3453    0.8652 C   0  0  0  0  0  0  0  0  0  0  0  0
    5.9697  -15.8461    0.9163 C   0  0  0  0  0  0  0  0  0  0  0  0
    4.2094  -17.6035    0.7101 C   0  0  0  0  0  0  0  0  0  0  0  0
    9.7868  -15.9305    0.1781 C   0  0  0  0  0  0  0  0  0  0  0  0
   10.0807  -16.0251    1.5906 N   0  0  0  0  0  0  0  0  0  0  0  0
    9.5279  -15.2408    2.5046 C   0  0  0  0  0  0  0  0  0  0  0  0
    8.7057  -14.3504    2.2992 O   0  0  0  0  0  0  0  0  0  0  0  0
   10.7248  -16.7074    1.8887 H   0  0  0  0  0  0  0  0  0  0  0  0
   10.0198  -15.5596    3.8298 O   0  0  0  0  0  0  0  0  0  0  0  0
    9.3673  -14.8698    4.8807 C   0  0  0  0  0  0  0  0  0  0  0  0
    9.0271  -15.8897    5.9468 C   0  0  0  0  0  0  0  0  0  0  0  0
   10.2605  -16.0220    6.6483 O   0  0  0  0  0  0  0  0  0  0  0  0
   10.9660  -14.7812    6.6322 C   0  0  0  0  0  0  0  0  0  0  0  0
   12.3386  -15.0380    6.3324 O   0  0  0  0  0  0  0  0  0  0  0  0
   12.6324  -14.6820    4.9908 C   0  0  0  0  0  0  0  0  0  0  0  0
   11.5958  -13.6249    4.6278 C   0  0  0  0  0  0  0  0  0  0  0  0
   10.3964  -13.9471    5.5055 C   0  0  0  0  0  0  0  0  0  0  0  0
   11.1116  -15.6937   -0.5392 C   0  0  0  0  0  0  0  0  0  0  0  0
   11.2211  -13.1870   -0.3550 C   0  0  0  0  0  0  0  0  0  0  0  0
   11.8240  -12.0259    0.1067 C   0  0  0  0  0  0  0  0  0  0  0  0
   12.9697  -12.1015    0.8873 C   0  0  0  0  0  0  0  0  0  0  0  0
   13.5091  -13.3414    1.2010 C   0  0  0  0  0  0  0  0  0  0  0  0
   12.9055  -14.5045    0.7415 C   0  0  0  0  0  0  0  0  0  0  0  0
   11.7637  -14.4310   -0.0384 C   0  0  0  0  0  0  0  0  0  0  0  0
  9 10  1  0  0  0
 10 11  2  0  0  0
 10 15  1  0  0  0
 11 12  1  0  0  0
 12 13  2  0  0  0
 13 14  1  0  0  0
 13  6  1  0  0  0
 14 15  2  0  0  0
  6  7  2  0  0  0
  6  8  2  0  0  0
  6  5  1  0  0  0
  5 18  1  0  0  0
  5  4  1  0  0  0
 18 19  1  0  0  0
 19 20  1  0  0  0
 19 21  1  0  0  0
  4  1  1  0  0  0
  1  2  1  0  0  0
  1 22  1  0  0  0
 22 23  1  0  0  0
 22 36  1  0  0  0
 23 24  1  0  0  0
 24 25  2  0  0  0
 24 27  1  0  0  0
 27 28  1  0  0  0
 28 29  1  0  0  0
 28 35  1  0  0  0
 29 30  1  0  0  0
 30 31  1  0  0  0
 31 32  1  0  0  0
 31 35  1  0  0  0
 32 33  1  0  0  0
 33 34  1  0  0  0
 34 35  1  0  0  0
 36 42  1  0  0  0
 37 38  2  0  0  0
 37 42  1  0  0  0
 38 39  1  0  0  0
 39 40  2  0  0  0
 40 41  1  0  0  0
 41 42  2  0  0  0
  9 16  1  0  0  0
  9 17  1  0  0  0
  2  3  1  0  0  0
 23 26  1  0  0  0
M  END
> <minimizedAffinity>
-8.53761

$$$$
3LZU_017_A_200


 42 45  0  0  0  0  0  0  0  0999 V2000
    8.6060  -15.0220    2.7356 C   0  0  0  0  0  0  0  0  0  0  0  0
    8.5164  -13.6196    2.9940 O   0  0  0  0  0  0  0  0  0  0  0  0
    9.4052  -13.2312    2.9820 H   0  0  0  0  0  0  0  0  0  0  0  0
    9.4127  -15.7011    3.8416 C   0  0  0  0  0  0  0  0  0  0  0  0
    9.9548  -14.6443    4.7179 N   0  0  0  0  0  0  0  0  0  0  0  0
    9.0161  -14.3262    6.0025 S   0  0  0  0  0  0  0  0  0  0  0  0
    8.1704  -15.4509    6.2631 O   0  0  0  0  0  0  0  0  0  0  0  0
    8.2539  -13.1734    5.6337 O   0  0  0  0  0  0  0  0  0  0  0  0
   11.8057  -13.4337   10.8869 N   0  0  0  0  0  0  0  0  0  0  0  0
   11.1667  -13.6113    9.7130 C   0  0  0  0  0  0  0  0  0  0  0  0
   11.3047  -12.6892    8.6811 C   0  0  0  0  0  0  0  0  0  0  0  0
   10.6216  -12.8897    7.4832 C   0  0  0  0  0  0  0  0  0  0  0  0
    9.8176  -14.0166    7.3431 C   0  0  0  0  0  0  0  0  0  0  0  0
    9.6858  -14.9213    8.3863 C   0  0  0  0  0  0  0  0  0  0  0  0
   10.3622  -14.7260    9.5762 C   0  0  0  0  0  0  0  0  0  0  0  0
   12.3867  -12.6498   11.0174 H   0  0  0  0  0  0  0  0  0  0  0  0
   11.6912  -14.0880   11.6136 H   0  0  0  0  0  0  0  0  0  0  0  0
   11.3407  -14.9487    5.1158 C   0  0  0  0  0  0  0  0  0  0  0  0
   12.3337  -14.2164    4.2193 C   0  0  0  0  0  0  0  0  0  0  0  0
   11.8360  -12.8195    3.8721 C   0  0  0  0  0  0  0  0  0  0  0  0
   13.7094  -14.1271    4.8774 C   0  0  0  0  0  0  0  0  0  0  0  0
    9.2071  -15.2148    1.3493 C   0  0  0  0  0  0  0  0  0  0  0  0
    8.2202  -15.9002    0.5452 N   0  0  0  0  0  0  0  0  0  0  0  0
    8.4549  -17.0464   -0.0771 C   0  0  0  0  0  0  0  0  0  0  0  0
    9.5069  -17.6821   -0.0604 O   0  0  0  0  0  0  0  0  0  0  0  0
    7.3277  -15.4944    0.4553 H   0  0  0  0  0  0  0  0  0  0  0  0
    7.2867  -17.4879   -0.8121 O   0  0  0  0  0  0  0  0  0  0  0  0
    6.5099  -16.4407   -1.3653 C   0  0  0  0  0  0  0  0  0  0  0  0
    6.8036  -16.3973   -2.8500 C   0  0  0  0  0  0  0  0  0  0  0  0
    5.9697  -17.4356   -3.3574 O   0  0  0  0  0  0  0  0  0  0  0  0
    4.7838  -17.5372   -2.5693 C   0  0  0  0  0  0  0  0  0  0  0  0
    4.5240  -18.9171   -2.3077 O   0  0  0  0  0  0  0  0  0  0  0  0
    4.8738  -19.2474   -0.9730 C   0  0  0  0  0  0  0  0  0  0  0  0
    4.7778  -17.9345   -0.2042 C   0  0  0  0  0  0  0  0  0  0  0  0
    5.0574  -16.8605   -1.2439 C   0  0  0  0  0  0  0  0  0  0  0  0
    9.5374  -13.9088    0.6345 C   0  0  0  0  0  0  0  0  0  0  0  0
   11.8795  -14.8227    0.7304 C   0  0  0  0  0  0  0  0  0  0  0  0
   13.2528  -14.6657    0.6119 C   0  0  0  0  0  0  0  0  0  0  0  0
   13.7832  -13.4298    0.2670 C   0  0  0  0  0  0  0  0  0  0  0  0
   12.9350  -12.3539    0.0442 C   0  0  0  0  0  0  0  0  0  0  0  0
   11.5601  -12.5101    0.1602 C   0  0  0  0  0  0  0  0  0  0  0  0
   11.0293  -13.7415    0.5055 C   0  0  0  0  0  0  0  0  0  0  0  0
  9 10  1  0  0  0
 10 11  2  0  0  0
 10 15  1  0  0  0
 11 12  1  0  0  0
 12 13  2  0  0  0
 13 14  1  0  0  0
 13  6  1  0  0  0
 14 15  2  0  0  0
  6  7  2  0  0  0
  6  8  2  0  0  0
  6  5  1  0  0  0
  5 18  1  0  0  0
  5  4  1  0  0  0
 18 19  1  0  0  0
 19 20  1  0  0  0
 19 21  1  0  0  0
  4  1  1  0  0  0
  1  2  1  0  0  0
  1 22  1  0  0  0
 22 23  1  0  0  0
 22 36  1  0  0  0
 23 24  1  0  0  0
 24 25  2  0  0  0
 24 27  1  0  0  0
 27 28  1  0  0  0
 28 29  1  0  0  0
 28 35  1  0  0  0
 29 30  1  0  0  0
 30 31  1  0  0  0
 31 32  1  0  0  0
 31 35  1  0  0  0
 32 33  1  0  0  0
 33 34  1  0  0  0
 34 35  1  0  0  0
 36 42  1  0  0  0
 37 38  2  0  0  0
 37 42  1  0  0  0
 38 39  1  0  0  0
 39 40  2  0  0  0
 40 41  1  0  0  0
 41 42  2  0  0  0
  9 16  1  0  0  0
  9 17  1  0  0  0
  2  3  1  0  0  0
 23 26  1  0  0  0
M  END
> <minimizedAffinity>
-8.28050

$$$$
3LZU_017_A_200


 42 45  0  0  0  0  0  0  0  0999 V2000
   11.4557  -15.0132    1.0438 C   0  0  0  0  0  0  0  0  0  0  0  0
   12.4338  -15.9420    0.5724 O   0  0  0  0  0  0  0  0  0  0  0  0
   13.1489  -15.4606    0.1276 H   0  0  0  0  0  0  0  0  0  0  0  0
   10.8352  -14.2710   -0.1390 C   0  0  0  0  0  0  0  0  0  0  0  0
    9.7246  -15.0947   -0.6557 N   0  0  0  0  0  0  0  0  0  0  0  0
    8.2754  -14.3758   -0.5310 S   0  0  0  0  0  0  0  0  0  0  0  0
    7.8435  -13.9493   -1.8270 O   0  0  0  0  0  0  0  0  0  0  0  0
    8.4828  -13.2629    0.3432 O   0  0  0  0  0  0  0  0  0  0  0  0
    4.0691  -17.7012    1.3885 N   0  0  0  0  0  0  0  0  0  0  0  0
    5.0869  -16.9216    0.9710 C   0  0  0  0  0  0  0  0  0  0  0  0
    6.1367  -16.6036    1.8259 C   0  0  0  0  0  0  0  0  0  0  0  0
    7.1687  -15.7841    1.3731 C   0  0  0  0  0  0  0  0  0  0  0  0
    7.1290  -15.3048    0.0675 C   0  0  0  0  0  0  0  0  0  0  0  0
    6.0696  -15.6260   -0.7683 C   0  0  0  0  0  0  0  0  0  0  0  0
    5.0439  -16.4392   -0.3228 C   0  0  0  0  0  0  0  0  0  0  0  0
    4.0688  -18.0615    2.3047 H   0  0  0  0  0  0  0  0  0  0  0  0
    3.3262  -17.9101    0.7771 H   0  0  0  0  0  0  0  0  0  0  0  0
    9.9962  -15.5416   -2.0334 C   0  0  0  0  0  0  0  0  0  0  0  0
    9.5881  -16.9993   -2.2191 C   0  0  0  0  0  0  0  0  0  0  0  0
    9.4436  -17.7061   -0.8778 C   0  0  0  0  0  0  0  0  0  0  0  0
    8.2837  -17.1111   -3.0063 C   0  0  0  0  0  0  0  0  0  0  0  0
   12.1237  -14.0859    2.0508 C   0  0  0  0  0  0  0  0  0  0  0  0
   11.8450  -14.6113    3.3686 N   0  0  0  0  0  0  0  0  0  0  0  0
   10.6695  -14.4901    3.9684 C   0  0  0  0  0  0  0  0  0  0  0  0
    9.6713  -13.9387    3.5096 O   0  0  0  0  0  0  0  0  0  0  0  0
   12.5657  -15.0835    3.8450 H   0  0  0  0  0  0  0  0  0  0  0  0
   10.6897  -15.1036    5.2810 O   0  0  0  0  0  0  0  0  0  0  0  0
    9.4970  -14.9364    6.0264 C   0  0  0  0  0  0  0  0  0  0  0  0
    9.2425  -16.2323    6.7670 C   0  0  0  0  0  0  0  0  0  0  0  0
   10.1000  -16.1113    7.8988 O   0  0  0  0  0  0  0  0  0  0  0  0
   10.2131  -14.7404    8.2803 C   0  0  0  0  0  0  0  0  0  0  0  0
   11.5856  -14.4512    8.5496 O   0  0  0  0  0  0  0  0  0  0  0  0
   12.1595  -13.7125    7.4829 C   0  0  0  0  0  0  0  0  0  0  0  0
   10.9851  -13.0030    6.8185 C   0  0  0  0  0  0  0  0  0  0  0  0
    9.7891  -13.9005    7.0952 C   0  0  0  0  0  0  0  0  0  0  0  0
   13.6405  -14.0142    1.9098 C   0  0  0  0  0  0  0  0  0  0  0  0
   13.8005  -12.1730    3.6168 C   0  0  0  0  0  0  0  0  0  0  0  0
   14.3693  -11.6104    4.7502 C   0  0  0  0  0  0  0  0  0  0  0  0
   15.3936  -12.2719    5.4144 C   0  0  0  0  0  0  0  0  0  0  0  0
   15.8463  -13.4947    4.9387 C   0  0  0  0  0  0  0  0  0  0  0  0
   15.2763  -14.0601    3.8057 C   0  0  0  0  0  0  0  0  0  0  0  0
   14.2558  -13.4013    3.1411 C   0  0  0  0  0  0  0  0  0  0  0  0
  9 10  1  0  0  0
 10 11  2  0  0  0
 10 15  1  0  0  0
 11 12  1  0  0  0
 12 13  2  0  0  0
 13 14  1  0  0  0
 13  6  1  0  0  0
 14 15  2  0  0  0
  6  7  2  0  0  0
  6  8  2  0  0  0
  6  5  1  0  0  0
  5 18  1  0  0  0
  5  4  1  0  0  0
 18 19  1  0  0  0
 19 20  1  0  0  0
 19 21  1  0  0  0
  4  1  1  0  0  0
  1  2  1  0  0  0
  1 22  1  0  0  0
 22 23  1  0  0  0
 22 36  1  0  0  0
 23 24  1  0  0  0
 24 25  2  0  0  0
 24 27  1  0  0  0
 27 28  1  0  0  0
 28 29  1  0  0  0
 28 35  1  0  0  0
 29 30  1  0  0  0
 30 31  1  0  0  0
 31 32  1  0  0  0
 31 35  1  0  0  0
 32 33  1  0  0  0
 33 34  1  0  0  0
 34 35  1  0  0  0
 36 42  1  0  0  0
 37 38  2  0  0  0
 37 42  1  0  0  0
 38 39  1  0  0  0
 39 40  2  0  0  0
 40 41  1  0  0  0
 41 42  2  0  0  0
  9 16  1  0  0  0
  9 17  1  0  0  0
  2  3  1  0  0  0
 23 26  1  0  0  0
M  END
> <minimizedAffinity>
-8.21613

$$$$
