1LPK_CBB_B_301


 38 41  0  0  0  0  0  0  0  0999 V2000
    3.8422    9.4194   26.2667 C   0  0  0  0  0  0  0  0  0  0  0  0
    4.9467    8.6702   25.8183 C   0  0  0  0  0  0  0  0  0  0  0  0
    5.2566    8.6692   24.4415 C   0  0  0  0  0  0  0  0  0  0  0  0
    4.4509    9.3926   23.5022 C   0  0  0  0  0  0  0  0  0  0  0  0
    3.3526   10.1546   23.9750 C   0  0  0  0  0  0  0  0  0  0  0  0
    3.0540   10.1741   25.3594 C   0  0  0  0  0  0  0  0  0  0  0  0
    6.2614    8.0457   23.7179 N   0  0  0  0  0  0  0  0  0  0  0  0
    6.1158    8.3081   22.4037 C   0  0  0  0  0  0  0  0  0  0  0  0
    4.9947    9.1542   22.2192 C   0  0  0  0  0  0  0  0  0  0  0  0
    6.8945    7.7513   21.3920 C   0  0  0  0  0  0  0  0  0  0  0  0
    7.8952    8.2396   20.9613 O   0  0  0  0  0  0  0  0  0  0  0  0
    6.4522    6.5948   20.9444 O   0  0  0  0  0  0  0  0  0  0  0  0
    7.1084    5.9640   19.8072 C   0  0  0  0  0  0  0  0  0  0  0  0
    7.3322    4.4611   19.9583 C   0  0  0  0  0  0  0  0  0  0  0  0
    6.7724    3.6607   20.9902 C   0  0  0  0  0  0  0  0  0  0  0  0
    7.0730    2.2703   21.0541 C   0  0  0  0  0  0  0  0  0  0  0  0
    7.9246    1.6852   20.0861 C   0  0  0  0  0  0  0  0  0  0  0  0
    8.4707    2.4874   19.0471 C   0  0  0  0  0  0  0  0  0  0  0  0
    8.1653    3.8634   18.9882 C   0  0  0  0  0  0  0  0  0  0  0  0
    9.4017    1.9888   18.0369 C   0  0  0  0  0  0  0  0  0  0  0  0
    9.3244    2.4171   16.7849 N   0  0  0  0  0  0  0  0  0  0  0  0
   10.3856    1.1673   18.3909 N   0  0  0  0  0  0  0  0  0  0  0  0
    8.5983    3.0254   16.5168 H   0  0  0  0  0  0  0  0  0  0  0  0
    9.9931    2.1269   16.1232 H   0  0  0  0  0  0  0  0  0  0  0  0
   10.4484    0.8457   19.3192 H   0  0  0  0  0  0  0  0  0  0  0  0
    7.2479    7.1800   24.3275 C   0  0  0  0  0  0  0  0  0  0  0  0
    8.4953    7.8831   24.7607 C   0  0  0  0  0  0  0  0  0  0  0  0
    9.1478    8.9801   24.1258 C   0  0  0  0  0  0  0  0  0  0  0  0
   10.3321    9.5087   24.7065 C   0  0  0  0  0  0  0  0  0  0  0  0
   10.8531    8.9445   25.8971 C   0  0  0  0  0  0  0  0  0  0  0  0
   10.1569    7.8660   26.5076 C   0  0  0  0  0  0  0  0  0  0  0  0
    8.9967    7.3479   25.9256 C   0  0  0  0  0  0  0  0  0  0  0  0
   10.5487    7.2385   27.7570 C   0  0  0  0  0  0  0  0  0  0  0  0
    9.6586    6.6184   28.5298 N   0  0  0  0  0  0  0  0  0  0  0  0
   11.8641    7.3448   28.0682 N   0  0  0  0  0  0  0  0  0  0  0  0
    8.7148    6.5716   28.2536 H   0  0  0  0  0  0  0  0  0  0  0  0
    9.9445    6.2067   29.3772 H   0  0  0  0  0  0  0  0  0  0  0  0
   12.4777    7.8151   27.4586 H   0  0  0  0  0  0  0  0  0  0  0  0
  1  2  1  0  0  0
  1  6  2  0  0  0
  2  3  2  0  0  0
  3  4  1  0  0  0
  3  7  1  0  0  0
  4  5  2  0  0  0
  4  9  1  0  0  0
  5  6  1  0  0  0
  7  8  1  0  0  0
  7 26  1  0  0  0
  8  9  2  0  0  0
  8 10  1  0  0  0
 26 27  1  0  0  0
 27 28  1  0  0  0
 27 32  2  0  0  0
 28 29  2  0  0  0
 29 30  1  0  0  0
 30 31  1  0  0  0
 31 32  1  0  0  0
 31 33  1  0  0  0
 33 34  1  0  0  0
 33 35  2  0  0  0
 10 12  1  0  0  0
 10 11  2  0  0  0
 12 13  1  0  0  0
 13 14  1  0  0  0
 14 15  1  0  0  0
 14 19  1  0  0  0
 15 16  1  0  0  0
 16 17  1  0  0  0
 17 18  1  0  0  0
 18 19  1  0  0  0
 18 20  1  0  0  0
 20 21  1  0  0  0
 20 22  2  0  0  0
 34 36  1  0  0  0
 34 37  1  0  0  0
 35 38  1  0  0  0
 21 23  1  0  0  0
 21 24  1  0  0  0
 22 25  1  0  0  0
M  END
> <minimizedAffinity>
-10.60658

$$$$
1LPK_CBB_B_301


 38 41  0  0  0  0  0  0  0  0999 V2000
   10.0551    8.0700   26.6531 C   0  0  0  0  0  0  0  0  0  0  0  0
    8.8850    7.5796   26.0426 C   0  0  0  0  0  0  0  0  0  0  0  0
    8.6558    7.8648   24.6796 C   0  0  0  0  0  0  0  0  0  0  0  0
    9.5780    8.6630   23.9265 C   0  0  0  0  0  0  0  0  0  0  0  0
   10.7590    9.1339   24.5543 C   0  0  0  0  0  0  0  0  0  0  0  0
   11.0007    8.8295   25.9162 C   0  0  0  0  0  0  0  0  0  0  0  0
    7.6211    7.5235   23.8223 N   0  0  0  0  0  0  0  0  0  0  0  0
    7.8243    8.0757   22.6095 C   0  0  0  0  0  0  0  0  0  0  0  0
    9.0433    8.7973   22.6247 C   0  0  0  0  0  0  0  0  0  0  0  0
    6.9230    8.0165   21.5493 C   0  0  0  0  0  0  0  0  0  0  0  0
    6.3575    8.9612   21.0877 O   0  0  0  0  0  0  0  0  0  0  0  0
    6.7502    6.8089   21.0540 O   0  0  0  0  0  0  0  0  0  0  0  0
    7.7965    6.2086   20.2377 C   0  0  0  0  0  0  0  0  0  0  0  0
    7.7521    4.6837   20.1713 C   0  0  0  0  0  0  0  0  0  0  0  0
    6.9888    3.8592   21.0411 C   0  0  0  0  0  0  0  0  0  0  0  0
    7.0454    2.4425   20.9096 C   0  0  0  0  0  0  0  0  0  0  0  0
    7.8572    1.8566   19.9085 C   0  0  0  0  0  0  0  0  0  0  0  0
    8.6078    2.6863   19.0313 C   0  0  0  0  0  0  0  0  0  0  0  0
    8.5438    4.0892   19.1653 C   0  0  0  0  0  0  0  0  0  0  0  0
    9.5156    2.1764   18.0055 C   0  0  0  0  0  0  0  0  0  0  0  0
   10.5519    1.4221   18.3430 N   0  0  0  0  0  0  0  0  0  0  0  0
    9.2542    2.3973   16.7206 N   0  0  0  0  0  0  0  0  0  0  0  0
   10.7505    1.2549   19.2927 H   0  0  0  0  0  0  0  0  0  0  0  0
   11.1230    1.0290   17.6441 H   0  0  0  0  0  0  0  0  0  0  0  0
    8.4859    2.9567   16.4636 H   0  0  0  0  0  0  0  0  0  0  0  0
    6.4710    6.7539   24.2455 C   0  0  0  0  0  0  0  0  0  0  0  0
    5.3817    7.5711   24.8648 C   0  0  0  0  0  0  0  0  0  0  0  0
    5.4570    8.9116   25.3440 C   0  0  0  0  0  0  0  0  0  0  0  0
    4.2953    9.5122   25.9000 C   0  0  0  0  0  0  0  0  0  0  0  0
    3.0846    8.7804   25.9775 C   0  0  0  0  0  0  0  0  0  0  0  0
    3.0500    7.4543   25.4669 C   0  0  0  0  0  0  0  0  0  0  0  0
    4.1993    6.8691   24.9283 C   0  0  0  0  0  0  0  0  0  0  0  0
    1.8626    6.6194   25.4306 C   0  0  0  0  0  0  0  0  0  0  0  0
    0.7380    7.0390   24.8532 N   0  0  0  0  0  0  0  0  0  0  0  0
    1.9894    5.4099   26.0301 N   0  0  0  0  0  0  0  0  0  0  0  0
    0.7030    7.9283   24.4323 H   0  0  0  0  0  0  0  0  0  0  0  0
   -0.0581    6.4599   24.8473 H   0  0  0  0  0  0  0  0  0  0  0  0
    2.8457    5.1518   26.4416 H   0  0  0  0  0  0  0  0  0  0  0  0
  1  2  1  0  0  0
  1  6  2  0  0  0
  2  3  2  0  0  0
  3  4  1  0  0  0
  3  7  1  0  0  0
  4  5  2  0  0  0
  4  9  1  0  0  0
  5  6  1  0  0  0
  7  8  1  0  0  0
  7 26  1  0  0  0
  8  9  2  0  0  0
  8 10  1  0  0  0
 26 27  1  0  0  0
 27 28  1  0  0  0
 27 32  2  0  0  0
 28 29  2  0  0  0
 29 30  1  0  0  0
 30 31  1  0  0  0
 31 32  1  0  0  0
 31 33  1  0  0  0
 33 34  1  0  0  0
 33 35  2  0  0  0
 10 12  1  0  0  0
 10 11  2  0  0  0
 12 13  1  0  0  0
 13 14  1  0  0  0
 14 15  1  0  0  0
 14 19  1  0  0  0
 15 16  1  0  0  0
 16 17  1  0  0  0
 17 18  1  0  0  0
 18 19  1  0  0  0
 18 20  1  0  0  0
 20 21  1  0  0  0
 20 22  2  0  0  0
 34 36  1  0  0  0
 34 37  1  0  0  0
 35 38  1  0  0  0
 21 23  1  0  0  0
 21 24  1  0  0  0
 22 25  1  0  0  0
M  END
> <minimizedAffinity>
-9.91748

$$$$
1LPK_CBB_B_301


 38 41  0  0  0  0  0  0  0  0999 V2000
    9.1935    3.2495   18.0558 C   0  0  0  0  0  0  0  0  0  0  0  0
    8.1571    4.0691   18.5420 C   0  0  0  0  0  0  0  0  0  0  0  0
    7.3085    3.5684   19.5522 C   0  0  0  0  0  0  0  0  0  0  0  0
    7.4717    2.2389   20.0627 C   0  0  0  0  0  0  0  0  0  0  0  0
    8.5315    1.4346   19.5723 C   0  0  0  0  0  0  0  0  0  0  0  0
    9.3975    1.9443   18.5743 C   0  0  0  0  0  0  0  0  0  0  0  0
    6.2290    4.1284   20.2180 N   0  0  0  0  0  0  0  0  0  0  0  0
    5.7004    3.2336   21.0765 C   0  0  0  0  0  0  0  0  0  0  0  0
    6.4501    2.0330   21.0179 C   0  0  0  0  0  0  0  0  0  0  0  0
    4.5438    3.4389   21.8248 C   0  0  0  0  0  0  0  0  0  0  0  0
    3.4337    3.3095   21.4048 O   0  0  0  0  0  0  0  0  0  0  0  0
    4.7640    3.7712   23.0796 O   0  0  0  0  0  0  0  0  0  0  0  0
    3.8976    4.7451   23.7295 C   0  0  0  0  0  0  0  0  0  0  0  0
    4.3836    6.1895   23.6330 C   0  0  0  0  0  0  0  0  0  0  0  0
    3.7681    7.1978   22.8434 C   0  0  0  0  0  0  0  0  0  0  0  0
    4.3247    8.5078   22.8025 C   0  0  0  0  0  0  0  0  0  0  0  0
    5.4873    8.8064   23.5533 C   0  0  0  0  0  0  0  0  0  0  0  0
    6.0911    7.7980   24.3532 C   0  0  0  0  0  0  0  0  0  0  0  0
    5.5318    6.5035   24.3915 C   0  0  0  0  0  0  0  0  0  0  0  0
    7.3215    7.9927   25.1176 C   0  0  0  0  0  0  0  0  0  0  0  0
    7.8039    7.0147   25.8712 N   0  0  0  0  0  0  0  0  0  0  0  0
    8.0079    9.1245   24.9912 N   0  0  0  0  0  0  0  0  0  0  0  0
    7.3004    6.1743   25.9687 H   0  0  0  0  0  0  0  0  0  0  0  0
    8.6656    7.1287   26.3334 H   0  0  0  0  0  0  0  0  0  0  0  0
    7.6549    9.8545   24.4329 H   0  0  0  0  0  0  0  0  0  0  0  0
    5.7318    5.4569   19.9315 C   0  0  0  0  0  0  0  0  0  0  0  0
    6.6565    6.5586   20.3429 C   0  0  0  0  0  0  0  0  0  0  0  0
    7.6457    6.5344   21.3691 C   0  0  0  0  0  0  0  0  0  0  0  0
    8.4285    7.6974   21.6008 C   0  0  0  0  0  0  0  0  0  0  0  0
    8.2192    8.8621   20.8216 C   0  0  0  0  0  0  0  0  0  0  0  0
    7.2372    8.8334   19.7943 C   0  0  0  0  0  0  0  0  0  0  0  0
    6.4669    7.6873   19.5782 C   0  0  0  0  0  0  0  0  0  0  0  0
    6.9651    9.9346   18.8878 C   0  0  0  0  0  0  0  0  0  0  0  0
    6.1228    9.7981   17.8651 N   0  0  0  0  0  0  0  0  0  0  0  0
    7.6341   11.0826   19.1578 N   0  0  0  0  0  0  0  0  0  0  0  0
    5.6638    8.9400   17.7165 H   0  0  0  0  0  0  0  0  0  0  0  0
    5.9593   10.5555   17.2576 H   0  0  0  0  0  0  0  0  0  0  0  0
    8.2452   11.1266   19.9284 H   0  0  0  0  0  0  0  0  0  0  0  0
  1  2  1  0  0  0
  1  6  2  0  0  0
  2  3  2  0  0  0
  3  4  1  0  0  0
  3  7  1  0  0  0
  4  5  2  0  0  0
  4  9  1  0  0  0
  5  6  1  0  0  0
  7  8  1  0  0  0
  7 26  1  0  0  0
  8  9  2  0  0  0
  8 10  1  0  0  0
 26 27  1  0  0  0
 27 28  1  0  0  0
 27 32  2  0  0  0
 28 29  2  0  0  0
 29 30  1  0  0  0
 30 31  1  0  0  0
 31 32  1  0  0  0
 31 33  1  0  0  0
 33 34  1  0  0  0
 33 35  2  0  0  0
 10 12  1  0  0  0
 10 11  2  0  0  0
 12 13  1  0  0  0
 13 14  1  0  0  0
 14 15  1  0  0  0
 14 19  1  0  0  0
 15 16  1  0  0  0
 16 17  1  0  0  0
 17 18  1  0  0  0
 18 19  1  0  0  0
 18 20  1  0  0  0
 20 21  1  0  0  0
 20 22  2  0  0  0
 34 36  1  0  0  0
 34 37  1  0  0  0
 35 38  1  0  0  0
 21 23  1  0  0  0
 21 24  1  0  0  0
 22 25  1  0  0  0
M  END
> <minimizedAffinity>
-9.87717

$$$$
1LPK_CBB_B_301


 38 41  0  0  0  0  0  0  0  0999 V2000
    9.7197    8.1878   26.4485 C   0  0  0  0  0  0  0  0  0  0  0  0
    8.5329    7.8225   25.7847 C   0  0  0  0  0  0  0  0  0  0  0  0
    8.4408    8.0252   24.3912 C   0  0  0  0  0  0  0  0  0  0  0  0
    9.5203    8.6181   23.6577 C   0  0  0  0  0  0  0  0  0  0  0  0
   10.7136    8.9640   24.3410 C   0  0  0  0  0  0  0  0  0  0  0  0
   10.8154    8.7405   25.7359 C   0  0  0  0  0  0  0  0  0  0  0  0
    7.4265    7.7672   23.4819 N   0  0  0  0  0  0  0  0  0  0  0  0
    7.7907    8.1834   22.2526 C   0  0  0  0  0  0  0  0  0  0  0  0
    9.1000    8.7209   22.3118 C   0  0  0  0  0  0  0  0  0  0  0  0
    6.9638    8.1679   21.1320 C   0  0  0  0  0  0  0  0  0  0  0  0
    6.4844    9.1396   20.6307 O   0  0  0  0  0  0  0  0  0  0  0  0
    6.7601    6.9690   20.6274 O   0  0  0  0  0  0  0  0  0  0  0  0
    7.8389    6.2922   19.9205 C   0  0  0  0  0  0  0  0  0  0  0  0
    7.7839    4.7678   19.9902 C   0  0  0  0  0  0  0  0  0  0  0  0
    7.0393    4.0293   20.9489 C   0  0  0  0  0  0  0  0  0  0  0  0
    7.0841    2.6061   20.9416 C   0  0  0  0  0  0  0  0  0  0  0  0
    7.8658    1.9278   19.9754 C   0  0  0  0  0  0  0  0  0  0  0  0
    8.5976    2.6708   19.0092 C   0  0  0  0  0  0  0  0  0  0  0  0
    8.5453    4.0805   19.0205 C   0  0  0  0  0  0  0  0  0  0  0  0
    9.4749    2.0652   18.0093 C   0  0  0  0  0  0  0  0  0  0  0  0
   10.4191    1.2104   18.3762 N   0  0  0  0  0  0  0  0  0  0  0  0
    9.2714    2.3050   16.7173 N   0  0  0  0  0  0  0  0  0  0  0  0
   10.5745    1.0287   19.3312 H   0  0  0  0  0  0  0  0  0  0  0  0
   10.9649    0.7572   17.6937 H   0  0  0  0  0  0  0  0  0  0  0  0
    8.5716    2.9389   16.4385 H   0  0  0  0  0  0  0  0  0  0  0  0
    6.1485    7.2083   23.8674 C   0  0  0  0  0  0  0  0  0  0  0  0
    5.1819    8.2104   24.4144 C   0  0  0  0  0  0  0  0  0  0  0  0
    4.9466    8.5454   25.7800 C   0  0  0  0  0  0  0  0  0  0  0  0
    3.9772    9.5370   26.0902 C   0  0  0  0  0  0  0  0  0  0  0  0
    3.2556   10.1753   25.0514 C   0  0  0  0  0  0  0  0  0  0  0  0
    3.5391    9.8255   23.7031 C   0  0  0  0  0  0  0  0  0  0  0  0
    4.4893    8.8440   23.4076 C   0  0  0  0  0  0  0  0  0  0  0  0
    2.9168   10.4441   22.5463 C   0  0  0  0  0  0  0  0  0  0  0  0
    1.6694   10.9084   22.5961 N   0  0  0  0  0  0  0  0  0  0  0  0
    3.6909   10.4973   21.4344 N   0  0  0  0  0  0  0  0  0  0  0  0
    1.1529   10.8432   23.4317 H   0  0  0  0  0  0  0  0  0  0  0  0
    1.2639   11.3167   21.7973 H   0  0  0  0  0  0  0  0  0  0  0  0
    4.6073   10.1382   21.4550 H   0  0  0  0  0  0  0  0  0  0  0  0
  1  2  1  0  0  0
  1  6  2  0  0  0
  2  3  2  0  0  0
  3  4  1  0  0  0
  3  7  1  0  0  0
  4  5  2  0  0  0
  4  9  1  0  0  0
  5  6  1  0  0  0
  7  8  1  0  0  0
  7 26  1  0  0  0
  8  9  2  0  0  0
  8 10  1  0  0  0
 26 27  1  0  0  0
 27 28  1  0  0  0
 27 32  2  0  0  0
 28 29  2  0  0  0
 29 30  1  0  0  0
 30 31  1  0  0  0
 31 32  1  0  0  0
 31 33  1  0  0  0
 33 34  1  0  0  0
 33 35  2  0  0  0
 10 12  1  0  0  0
 10 11  2  0  0  0
 12 13  1  0  0  0
 13 14  1  0  0  0
 14 15  1  0  0  0
 14 19  1  0  0  0
 15 16  1  0  0  0
 16 17  1  0  0  0
 17 18  1  0  0  0
 18 19  1  0  0  0
 18 20  1  0  0  0
 20 21  1  0  0  0
 20 22  2  0  0  0
 34 36  1  0  0  0
 34 37  1  0  0  0
 35 38  1  0  0  0
 21 23  1  0  0  0
 21 24  1  0  0  0
 22 25  1  0  0  0
M  END
> <minimizedAffinity>
-9.82375

$$$$
1LPK_CBB_B_301


 38 41  0  0  0  0  0  0  0  0999 V2000
    5.7700    6.6978   16.7076 C   0  0  0  0  0  0  0  0  0  0  0  0
    6.5116    6.3137   17.8412 C   0  0  0  0  0  0  0  0  0  0  0  0
    6.0198    6.6442   19.1220 C   0  0  0  0  0  0  0  0  0  0  0  0
    4.8013    7.3829   19.2777 C   0  0  0  0  0  0  0  0  0  0  0  0
    4.0601    7.7463   18.1249 C   0  0  0  0  0  0  0  0  0  0  0  0
    4.5415    7.3957   16.8399 C   0  0  0  0  0  0  0  0  0  0  0  0
    6.5132    6.4032   20.3951 N   0  0  0  0  0  0  0  0  0  0  0  0
    5.7052    6.9628   21.3177 C   0  0  0  0  0  0  0  0  0  0  0  0
    4.6136    7.5859   20.6642 C   0  0  0  0  0  0  0  0  0  0  0  0
    5.9661    6.9967   22.6854 C   0  0  0  0  0  0  0  0  0  0  0  0
    5.4229    6.3085   23.4956 O   0  0  0  0  0  0  0  0  0  0  0  0
    6.9054    7.8505   23.0352 O   0  0  0  0  0  0  0  0  0  0  0  0
    7.1046    8.1652   24.4433 C   0  0  0  0  0  0  0  0  0  0  0  0
    8.5585    8.4154   24.8373 C   0  0  0  0  0  0  0  0  0  0  0  0
    9.4810    9.1828   24.0764 C   0  0  0  0  0  0  0  0  0  0  0  0
   10.8255    9.3263   24.5230 C   0  0  0  0  0  0  0  0  0  0  0  0
   11.2406    8.7092   25.7278 C   0  0  0  0  0  0  0  0  0  0  0  0
   10.3100    7.9544   26.4930 C   0  0  0  0  0  0  0  0  0  0  0  0
    8.9788    7.8198   26.0460 C   0  0  0  0  0  0  0  0  0  0  0  0
   10.6557    7.2355   27.7177 C   0  0  0  0  0  0  0  0  0  0  0  0
   11.9139    7.1832   28.1314 N   0  0  0  0  0  0  0  0  0  0  0  0
    9.6947    6.7039   28.4674 N   0  0  0  0  0  0  0  0  0  0  0  0
   12.6298    7.5750   27.5807 H   0  0  0  0  0  0  0  0  0  0  0  0
   12.1325    6.7526   28.9893 H   0  0  0  0  0  0  0  0  0  0  0  0
    8.7583    6.7396   28.1656 H   0  0  0  0  0  0  0  0  0  0  0  0
    7.7646    5.7178   20.6365 C   0  0  0  0  0  0  0  0  0  0  0  0
    7.6782    4.2284   20.5257 C   0  0  0  0  0  0  0  0  0  0  0  0
    6.8649    3.3393   21.2875 C   0  0  0  0  0  0  0  0  0  0  0  0
    6.9298    1.9450   21.0211 C   0  0  0  0  0  0  0  0  0  0  0  0
    7.7969    1.4533   20.0142 C   0  0  0  0  0  0  0  0  0  0  0  0
    8.5729    2.3786   19.2645 C   0  0  0  0  0  0  0  0  0  0  0  0
    8.5079    3.7477   19.5382 C   0  0  0  0  0  0  0  0  0  0  0  0
    9.4530    2.0137   18.1687 C   0  0  0  0  0  0  0  0  0  0  0  0
   10.4221    1.1142   18.3287 N   0  0  0  0  0  0  0  0  0  0  0  0
    9.2172    2.6595   17.0001 N   0  0  0  0  0  0  0  0  0  0  0  0
   10.5477    0.6757   19.2012 H   0  0  0  0  0  0  0  0  0  0  0  0
   11.0129    0.8877   17.5744 H   0  0  0  0  0  0  0  0  0  0  0  0
    8.4859    3.3158   16.9391 H   0  0  0  0  0  0  0  0  0  0  0  0
  1  2  1  0  0  0
  1  6  2  0  0  0
  2  3  2  0  0  0
  3  4  1  0  0  0
  3  7  1  0  0  0
  4  5  2  0  0  0
  4  9  1  0  0  0
  5  6  1  0  0  0
  7  8  1  0  0  0
  7 26  1  0  0  0
  8  9  2  0  0  0
  8 10  1  0  0  0
 26 27  1  0  0  0
 27 28  1  0  0  0
 27 32  2  0  0  0
 28 29  2  0  0  0
 29 30  1  0  0  0
 30 31  1  0  0  0
 31 32  1  0  0  0
 31 33  1  0  0  0
 33 34  1  0  0  0
 33 35  2  0  0  0
 10 12  1  0  0  0
 10 11  2  0  0  0
 12 13  1  0  0  0
 13 14  1  0  0  0
 14 15  1  0  0  0
 14 19  1  0  0  0
 15 16  1  0  0  0
 16 17  1  0  0  0
 17 18  1  0  0  0
 18 19  1  0  0  0
 18 20  1  0  0  0
 20 21  1  0  0  0
 20 22  2  0  0  0
 34 36  1  0  0  0
 34 37  1  0  0  0
 35 38  1  0  0  0
 21 23  1  0  0  0
 21 24  1  0  0  0
 22 25  1  0  0  0
M  END
> <minimizedAffinity>
-9.72581

$$$$
1LPK_CBB_B_301


 38 41  0  0  0  0  0  0  0  0999 V2000
    9.1308    3.3851   18.5114 C   0  0  0  0  0  0  0  0  0  0  0  0
    8.2667    4.3518   19.0602 C   0  0  0  0  0  0  0  0  0  0  0  0
    7.3194    3.9501   20.0260 C   0  0  0  0  0  0  0  0  0  0  0  0
    7.2105    2.5787   20.4285 C   0  0  0  0  0  0  0  0  0  0  0  0
    8.1006    1.6227   19.8768 C   0  0  0  0  0  0  0  0  0  0  0  0
    9.0665    2.0288   18.9239 C   0  0  0  0  0  0  0  0  0  0  0  0
    6.3592    4.6575   20.7330 N   0  0  0  0  0  0  0  0  0  0  0  0
    5.6511    3.8196   21.5164 C   0  0  0  0  0  0  0  0  0  0  0  0
    6.1522    2.5034   21.3628 C   0  0  0  0  0  0  0  0  0  0  0  0
    4.5445    4.1890   22.2771 C   0  0  0  0  0  0  0  0  0  0  0  0
    4.4318    3.9910   23.4490 O   0  0  0  0  0  0  0  0  0  0  0  0
    3.6081    4.8183   21.5984 O   0  0  0  0  0  0  0  0  0  0  0  0
    2.6613    5.6738   22.3007 C   0  0  0  0  0  0  0  0  0  0  0  0
    3.1843    7.0737   22.6146 C   0  0  0  0  0  0  0  0  0  0  0  0
    3.5241    8.0472   21.6369 C   0  0  0  0  0  0  0  0  0  0  0  0
    4.0334    9.3139   22.0414 C   0  0  0  0  0  0  0  0  0  0  0  0
    4.1951    9.6048   23.4175 C   0  0  0  0  0  0  0  0  0  0  0  0
    3.8400    8.6328   24.3925 C   0  0  0  0  0  0  0  0  0  0  0  0
    3.3327    7.3815   23.9841 C   0  0  0  0  0  0  0  0  0  0  0  0
    4.0222    8.8175   25.8308 C   0  0  0  0  0  0  0  0  0  0  0  0
    3.8084   10.0017   26.3866 N   0  0  0  0  0  0  0  0  0  0  0  0
    4.3203    7.7746   26.6001 N   0  0  0  0  0  0  0  0  0  0  0  0
    3.5874   10.7776   25.8224 H   0  0  0  0  0  0  0  0  0  0  0  0
    3.8707   10.1053   27.3637 H   0  0  0  0  0  0  0  0  0  0  0  0
    4.4801    6.8925   26.1932 H   0  0  0  0  0  0  0  0  0  0  0  0
    6.1367    6.0760   20.5531 C   0  0  0  0  0  0  0  0  0  0  0  0
    7.1576    6.9449   21.2171 C   0  0  0  0  0  0  0  0  0  0  0  0
    8.2197    7.6725   20.6050 C   0  0  0  0  0  0  0  0  0  0  0  0
    9.0859    8.4479   21.4222 C   0  0  0  0  0  0  0  0  0  0  0  0
    8.8927    8.4878   22.8252 C   0  0  0  0  0  0  0  0  0  0  0  0
    7.8070    7.7644   23.3895 C   0  0  0  0  0  0  0  0  0  0  0  0
    6.9644    6.9988   22.5789 C   0  0  0  0  0  0  0  0  0  0  0  0
    7.4627    7.7686   24.8001 C   0  0  0  0  0  0  0  0  0  0  0  0
    6.9011    6.7089   25.3794 N   0  0  0  0  0  0  0  0  0  0  0  0
    7.7444    8.9196   25.4591 N   0  0  0  0  0  0  0  0  0  0  0  0
    6.7190    5.8981   24.8514 H   0  0  0  0  0  0  0  0  0  0  0  0
    6.6681    6.7363   26.3355 H   0  0  0  0  0  0  0  0  0  0  0  0
    8.1606    9.6721   24.9797 H   0  0  0  0  0  0  0  0  0  0  0  0
  1  2  1  0  0  0
  1  6  2  0  0  0
  2  3  2  0  0  0
  3  4  1  0  0  0
  3  7  1  0  0  0
  4  5  2  0  0  0
  4  9  1  0  0  0
  5  6  1  0  0  0
  7  8  1  0  0  0
  7 26  1  0  0  0
  8  9  2  0  0  0
  8 10  1  0  0  0
 26 27  1  0  0  0
 27 28  1  0  0  0
 27 32  2  0  0  0
 28 29  2  0  0  0
 29 30  1  0  0  0
 30 31  1  0  0  0
 31 32  1  0  0  0
 31 33  1  0  0  0
 33 34  1  0  0  0
 33 35  2  0  0  0
 10 12  1  0  0  0
 10 11  2  0  0  0
 12 13  1  0  0  0
 13 14  1  0  0  0
 14 15  1  0  0  0
 14 19  1  0  0  0
 15 16  1  0  0  0
 16 17  1  0  0  0
 17 18  1  0  0  0
 18 19  1  0  0  0
 18 20  1  0  0  0
 20 21  1  0  0  0
 20 22  2  0  0  0
 34 36  1  0  0  0
 34 37  1  0  0  0
 35 38  1  0  0  0
 21 23  1  0  0  0
 21 24  1  0  0  0
 22 25  1  0  0  0
M  END
> <minimizedAffinity>
-9.59610

$$$$
1LPK_CBB_B_301


 38 41  0  0  0  0  0  0  0  0999 V2000
    8.1943    1.7272   19.6164 C   0  0  0  0  0  0  0  0  0  0  0  0
    7.3052    2.2476   20.5761 C   0  0  0  0  0  0  0  0  0  0  0  0
    7.1689    3.6475   20.6914 C   0  0  0  0  0  0  0  0  0  0  0  0
    7.9384    4.5350   19.8698 C   0  0  0  0  0  0  0  0  0  0  0  0
    8.8161    3.9918   18.8977 C   0  0  0  0  0  0  0  0  0  0  0  0
    8.9371    2.5868   18.7660 C   0  0  0  0  0  0  0  0  0  0  0  0
    6.3877    4.4377   21.5204 N   0  0  0  0  0  0  0  0  0  0  0  0
    6.6410    5.7415   21.2897 C   0  0  0  0  0  0  0  0  0  0  0  0
    7.6053    5.8529   20.2578 C   0  0  0  0  0  0  0  0  0  0  0  0
    6.1033    6.7965   22.0229 C   0  0  0  0  0  0  0  0  0  0  0  0
    4.9358    7.0230   22.1270 O   0  0  0  0  0  0  0  0  0  0  0  0
    6.9997    7.5388   22.6384 O   0  0  0  0  0  0  0  0  0  0  0  0
    7.2118    7.3733   24.0699 C   0  0  0  0  0  0  0  0  0  0  0  0
    8.5375    7.9310   24.5828 C   0  0  0  0  0  0  0  0  0  0  0  0
    9.3442    8.8685   23.8834 C   0  0  0  0  0  0  0  0  0  0  0  0
   10.5810    9.2992   24.4422 C   0  0  0  0  0  0  0  0  0  0  0  0
   11.0032    8.7978   25.6972 C   0  0  0  0  0  0  0  0  0  0  0  0
   10.1856    7.8710   26.3999 C   0  0  0  0  0  0  0  0  0  0  0  0
    8.9599    7.4518   25.8415 C   0  0  0  0  0  0  0  0  0  0  0  0
   10.5599    7.2556   27.6717 C   0  0  0  0  0  0  0  0  0  0  0  0
   11.8127    7.3131   28.1007 N   0  0  0  0  0  0  0  0  0  0  0  0
    9.6251    6.7100   28.4441 N   0  0  0  0  0  0  0  0  0  0  0  0
   12.5093    7.7158   27.5335 H   0  0  0  0  0  0  0  0  0  0  0  0
   12.0466    6.9531   28.9867 H   0  0  0  0  0  0  0  0  0  0  0  0
    8.6928    6.6644   28.1310 H   0  0  0  0  0  0  0  0  0  0  0  0
    5.5072    3.8884   22.5289 C   0  0  0  0  0  0  0  0  0  0  0  0
    4.4458    2.9836   21.9879 C   0  0  0  0  0  0  0  0  0  0  0  0
    3.7169    3.1187   20.7702 C   0  0  0  0  0  0  0  0  0  0  0  0
    2.7436    2.1388   20.4360 C   0  0  0  0  0  0  0  0  0  0  0  0
    2.5036    1.0487   21.3086 C   0  0  0  0  0  0  0  0  0  0  0  0
    3.2697    0.9424   22.5012 C   0  0  0  0  0  0  0  0  0  0  0  0
    4.2200    1.9147   22.8253 C   0  0  0  0  0  0  0  0  0  0  0  0
    3.1659   -0.1530   23.4487 C   0  0  0  0  0  0  0  0  0  0  0  0
    2.7693   -1.3653   23.0653 N   0  0  0  0  0  0  0  0  0  0  0  0
    3.4882    0.1587   24.7282 N   0  0  0  0  0  0  0  0  0  0  0  0
    2.5477   -1.5351   22.1212 H   0  0  0  0  0  0  0  0  0  0  0  0
    2.6979   -2.0917   23.7260 H   0  0  0  0  0  0  0  0  0  0  0  0
    3.7755    1.0727   24.9548 H   0  0  0  0  0  0  0  0  0  0  0  0
  1  2  1  0  0  0
  1  6  2  0  0  0
  2  3  2  0  0  0
  3  4  1  0  0  0
  3  7  1  0  0  0
  4  5  2  0  0  0
  4  9  1  0  0  0
  5  6  1  0  0  0
  7  8  1  0  0  0
  7 26  1  0  0  0
  8  9  2  0  0  0
  8 10  1  0  0  0
 26 27  1  0  0  0
 27 28  1  0  0  0
 27 32  2  0  0  0
 28 29  2  0  0  0
 29 30  1  0  0  0
 30 31  1  0  0  0
 31 32  1  0  0  0
 31 33  1  0  0  0
 33 34  1  0  0  0
 33 35  2  0  0  0
 10 12  1  0  0  0
 10 11  2  0  0  0
 12 13  1  0  0  0
 13 14  1  0  0  0
 14 15  1  0  0  0
 14 19  1  0  0  0
 15 16  1  0  0  0
 16 17  1  0  0  0
 17 18  1  0  0  0
 18 19  1  0  0  0
 18 20  1  0  0  0
 20 21  1  0  0  0
 20 22  2  0  0  0
 34 36  1  0  0  0
 34 37  1  0  0  0
 35 38  1  0  0  0
 21 23  1  0  0  0
 21 24  1  0  0  0
 22 25  1  0  0  0
M  END
> <minimizedAffinity>
-9.47510

$$$$
1LPK_CBB_B_301


 38 41  0  0  0  0  0  0  0  0999 V2000
    9.0220    3.5354   18.6214 C   0  0  0  0  0  0  0  0  0  0  0  0
    8.1317    4.4611   19.1983 C   0  0  0  0  0  0  0  0  0  0  0  0
    7.1876    4.0026   20.1417 C   0  0  0  0  0  0  0  0  0  0  0  0
    7.1084    2.6152   20.4936 C   0  0  0  0  0  0  0  0  0  0  0  0
    8.0245    1.7010   19.9144 C   0  0  0  0  0  0  0  0  0  0  0  0
    8.9870    2.1638   18.9842 C   0  0  0  0  0  0  0  0  0  0  0  0
    6.2063    4.6612   20.8665 N   0  0  0  0  0  0  0  0  0  0  0  0
    5.5129    3.7791   21.6137 C   0  0  0  0  0  0  0  0  0  0  0  0
    6.0459    2.4814   21.4164 C   0  0  0  0  0  0  0  0  0  0  0  0
    4.3927    4.0946   22.3788 C   0  0  0  0  0  0  0  0  0  0  0  0
    3.2665    3.8610   22.0589 O   0  0  0  0  0  0  0  0  0  0  0  0
    4.6699    4.6643   23.5330 O   0  0  0  0  0  0  0  0  0  0  0  0
    3.6038    5.2951   24.2993 C   0  0  0  0  0  0  0  0  0  0  0  0
    3.8097    6.7848   24.5639 C   0  0  0  0  0  0  0  0  0  0  0  0
    4.0058    7.3574   25.8495 C   0  0  0  0  0  0  0  0  0  0  0  0
    4.1571    8.7668   25.9848 C   0  0  0  0  0  0  0  0  0  0  0  0
    4.1182    9.5960   24.8378 C   0  0  0  0  0  0  0  0  0  0  0  0
    3.9363    9.0169   23.5522 C   0  0  0  0  0  0  0  0  0  0  0  0
    3.7907    7.6194   23.4258 C   0  0  0  0  0  0  0  0  0  0  0  0
    3.8267    9.7918   22.3179 C   0  0  0  0  0  0  0  0  0  0  0  0
    4.2806    9.2983   21.1745 N   0  0  0  0  0  0  0  0  0  0  0  0
    3.1923   10.9605   22.3235 N   0  0  0  0  0  0  0  0  0  0  0  0
    4.7510    8.4336   21.1638 H   0  0  0  0  0  0  0  0  0  0  0  0
    4.1472    9.7965   20.3359 H   0  0  0  0  0  0  0  0  0  0  0  0
    2.8529   11.3322   23.1696 H   0  0  0  0  0  0  0  0  0  0  0  0
    5.9515    6.0797   20.7363 C   0  0  0  0  0  0  0  0  0  0  0  0
    7.0470    6.9497   21.2663 C   0  0  0  0  0  0  0  0  0  0  0  0
    8.0210    7.6807   20.5252 C   0  0  0  0  0  0  0  0  0  0  0  0
    8.9829    8.4564   21.2268 C   0  0  0  0  0  0  0  0  0  0  0  0
    8.9702    8.4935   22.6430 C   0  0  0  0  0  0  0  0  0  0  0  0
    7.9668    7.7666   23.3398 C   0  0  0  0  0  0  0  0  0  0  0  0
    7.0291    7.0007   22.6417 C   0  0  0  0  0  0  0  0  0  0  0  0
    7.8053    7.7676   24.7828 C   0  0  0  0  0  0  0  0  0  0  0  0
    7.3551    6.6942   25.4303 N   0  0  0  0  0  0  0  0  0  0  0  0
    8.1331    8.9300   25.3991 N   0  0  0  0  0  0  0  0  0  0  0  0
    7.1322    5.8756   24.9308 H   0  0  0  0  0  0  0  0  0  0  0  0
    7.2452    6.7194   26.4083 H   0  0  0  0  0  0  0  0  0  0  0  0
    8.4613    9.6924   24.8696 H   0  0  0  0  0  0  0  0  0  0  0  0
  1  2  1  0  0  0
  1  6  2  0  0  0
  2  3  2  0  0  0
  3  4  1  0  0  0
  3  7  1  0  0  0
  4  5  2  0  0  0
  4  9  1  0  0  0
  5  6  1  0  0  0
  7  8  1  0  0  0
  7 26  1  0  0  0
  8  9  2  0  0  0
  8 10  1  0  0  0
 26 27  1  0  0  0
 27 28  1  0  0  0
 27 32  2  0  0  0
 28 29  2  0  0  0
 29 30  1  0  0  0
 30 31  1  0  0  0
 31 32  1  0  0  0
 31 33  1  0  0  0
 33 34  1  0  0  0
 33 35  2  0  0  0
 10 12  1  0  0  0
 10 11  2  0  0  0
 12 13  1  0  0  0
 13 14  1  0  0  0
 14 15  1  0  0  0
 14 19  1  0  0  0
 15 16  1  0  0  0
 16 17  1  0  0  0
 17 18  1  0  0  0
 18 19  1  0  0  0
 18 20  1  0  0  0
 20 21  1  0  0  0
 20 22  2  0  0  0
 34 36  1  0  0  0
 34 37  1  0  0  0
 35 38  1  0  0  0
 21 23  1  0  0  0
 21 24  1  0  0  0
 22 25  1  0  0  0
M  END
> <minimizedAffinity>
-9.40684

$$$$
1LPK_CBB_B_301


 38 41  0  0  0  0  0  0  0  0999 V2000
    3.8336    9.4607   26.0215 C   0  0  0  0  0  0  0  0  0  0  0  0
    4.9684    8.7012   25.6785 C   0  0  0  0  0  0  0  0  0  0  0  0
    5.3514    8.6215   24.3226 C   0  0  0  0  0  0  0  0  0  0  0  0
    4.5893    9.2754   23.2997 C   0  0  0  0  0  0  0  0  0  0  0  0
    3.4592   10.0492   23.6666 C   0  0  0  0  0  0  0  0  0  0  0  0
    3.0869   10.1481   25.0295 C   0  0  0  0  0  0  0  0  0  0  0  0
    6.4002    7.9694   23.6923 N   0  0  0  0  0  0  0  0  0  0  0  0
    6.3221    8.1499   22.3587 C   0  0  0  0  0  0  0  0  0  0  0  0
    5.2034    8.9676   22.0641 C   0  0  0  0  0  0  0  0  0  0  0  0
    7.1597    7.5439   21.4254 C   0  0  0  0  0  0  0  0  0  0  0  0
    7.7198    8.1209   20.5430 O   0  0  0  0  0  0  0  0  0  0  0  0
    7.3200    6.2493   21.6036 O   0  0  0  0  0  0  0  0  0  0  0  0
    6.5268    5.3109   20.8215 C   0  0  0  0  0  0  0  0  0  0  0  0
    5.9477    4.1480   21.6239 C   0  0  0  0  0  0  0  0  0  0  0  0
    6.3600    2.7942   21.4968 C   0  0  0  0  0  0  0  0  0  0  0  0
    5.7288    1.7823   22.2748 C   0  0  0  0  0  0  0  0  0  0  0  0
    4.6949    2.1266   23.1788 C   0  0  0  0  0  0  0  0  0  0  0  0
    4.2958    3.4846   23.3130 C   0  0  0  0  0  0  0  0  0  0  0  0
    4.9284    4.4819   22.5415 C   0  0  0  0  0  0  0  0  0  0  0  0
    3.2037    3.9312   24.1756 C   0  0  0  0  0  0  0  0  0  0  0  0
    2.4256    4.9379   23.8044 N   0  0  0  0  0  0  0  0  0  0  0  0
    2.9338    3.2712   25.2980 N   0  0  0  0  0  0  0  0  0  0  0  0
    2.6203    5.4304   22.9744 H   0  0  0  0  0  0  0  0  0  0  0  0
    1.6530    5.1932   24.3586 H   0  0  0  0  0  0  0  0  0  0  0  0
    3.5080    2.5225   25.5791 H   0  0  0  0  0  0  0  0  0  0  0  0
    7.3619    7.1561   24.4048 C   0  0  0  0  0  0  0  0  0  0  0  0
    8.5989    7.8899   24.8161 C   0  0  0  0  0  0  0  0  0  0  0  0
    9.2090    9.0068   24.1739 C   0  0  0  0  0  0  0  0  0  0  0  0
   10.3907    9.5638   24.7331 C   0  0  0  0  0  0  0  0  0  0  0  0
   10.9508    9.0080   25.9098 C   0  0  0  0  0  0  0  0  0  0  0  0
   10.2960    7.9084   26.5287 C   0  0  0  0  0  0  0  0  0  0  0  0
    9.1381    7.3625   25.9677 C   0  0  0  0  0  0  0  0  0  0  0  0
   10.7298    7.2855   27.7664 C   0  0  0  0  0  0  0  0  0  0  0  0
   12.0028    7.3305   28.1556 N   0  0  0  0  0  0  0  0  0  0  0  0
    9.7543    6.6594   28.4698 N   0  0  0  0  0  0  0  0  0  0  0  0
   12.6698    7.8002   27.6044 H   0  0  0  0  0  0  0  0  0  0  0  0
   12.2769    6.8941   28.9945 H   0  0  0  0  0  0  0  0  0  0  0  0
    8.8289    6.6579   28.1339 H   0  0  0  0  0  0  0  0  0  0  0  0
  1  2  1  0  0  0
  1  6  2  0  0  0
  2  3  2  0  0  0
  3  4  1  0  0  0
  3  7  1  0  0  0
  4  5  2  0  0  0
  4  9  1  0  0  0
  5  6  1  0  0  0
  7  8  1  0  0  0
  7 26  1  0  0  0
  8  9  2  0  0  0
  8 10  1  0  0  0
 26 27  1  0  0  0
 27 28  1  0  0  0
 27 32  2  0  0  0
 28 29  2  0  0  0
 29 30  1  0  0  0
 30 31  1  0  0  0
 31 32  1  0  0  0
 31 33  1  0  0  0
 33 34  1  0  0  0
 33 35  2  0  0  0
 10 12  1  0  0  0
 10 11  2  0  0  0
 12 13  1  0  0  0
 13 14  1  0  0  0
 14 15  1  0  0  0
 14 19  1  0  0  0
 15 16  1  0  0  0
 16 17  1  0  0  0
 17 18  1  0  0  0
 18 19  1  0  0  0
 18 20  1  0  0  0
 20 21  1  0  0  0
 20 22  2  0  0  0
 34 36  1  0  0  0
 34 37  1  0  0  0
 35 38  1  0  0  0
 21 23  1  0  0  0
 21 24  1  0  0  0
 22 25  1  0  0  0
M  END
> <minimizedAffinity>
-9.20364

$$$$
1LPK_CBB_B_301


 38 41  0  0  0  0  0  0  0  0999 V2000
    8.1836    3.4534   17.3254 C   0  0  0  0  0  0  0  0  0  0  0  0
    7.0029    3.8473   17.9835 C   0  0  0  0  0  0  0  0  0  0  0  0
    6.7072    3.2900   19.2458 C   0  0  0  0  0  0  0  0  0  0  0  0
    7.5727    2.3172   19.8451 C   0  0  0  0  0  0  0  0  0  0  0  0
    8.7655    1.9455   19.1746 C   0  0  0  0  0  0  0  0  0  0  0  0
    9.0743    2.5209   17.9179 C   0  0  0  0  0  0  0  0  0  0  0  0
    5.6467    3.4812   20.1182 N   0  0  0  0  0  0  0  0  0  0  0  0
    5.7815    2.6786   21.1928 C   0  0  0  0  0  0  0  0  0  0  0  0
    6.9788    1.9315   21.0687 C   0  0  0  0  0  0  0  0  0  0  0  0
    4.8376    2.5465   22.2083 C   0  0  0  0  0  0  0  0  0  0  0  0
    4.0702    1.6371   22.3054 O   0  0  0  0  0  0  0  0  0  0  0  0
    4.8668    3.5128   23.1021 O   0  0  0  0  0  0  0  0  0  0  0  0
    3.6265    4.1668   23.4965 C   0  0  0  0  0  0  0  0  0  0  0  0
    3.7401    5.6773   23.6893 C   0  0  0  0  0  0  0  0  0  0  0  0
    2.7738    6.6225   23.2514 C   0  0  0  0  0  0  0  0  0  0  0  0
    2.9960    8.0140   23.4563 C   0  0  0  0  0  0  0  0  0  0  0  0
    4.1768    8.4544   24.1016 C   0  0  0  0  0  0  0  0  0  0  0  0
    5.1339    7.5039   24.5509 C   0  0  0  0  0  0  0  0  0  0  0  0
    4.9050    6.1269   24.3475 C   0  0  0  0  0  0  0  0  0  0  0  0
    6.4059    7.8617   25.1755 C   0  0  0  0  0  0  0  0  0  0  0  0
    7.2295    6.9170   25.6070 N   0  0  0  0  0  0  0  0  0  0  0  0
    6.7795    9.1365   25.2347 N   0  0  0  0  0  0  0  0  0  0  0  0
    6.9587    5.9714   25.5658 H   0  0  0  0  0  0  0  0  0  0  0  0
    8.1121    7.1609   25.9687 H   0  0  0  0  0  0  0  0  0  0  0  0
    6.1722    9.8427   24.9158 H   0  0  0  0  0  0  0  0  0  0  0  0
    4.5386    4.3651   19.8268 C   0  0  0  0  0  0  0  0  0  0  0  0
    4.8248    5.8109   20.0832 C   0  0  0  0  0  0  0  0  0  0  0  0
    4.0409    6.9395   19.7038 C   0  0  0  0  0  0  0  0  0  0  0  0
    4.4929    8.2415   20.0498 C   0  0  0  0  0  0  0  0  0  0  0  0
    5.7089    8.4071   20.7577 C   0  0  0  0  0  0  0  0  0  0  0  0
    6.4465    7.2520   21.1349 C   0  0  0  0  0  0  0  0  0  0  0  0
    5.9979    5.9756   20.7842 C   0  0  0  0  0  0  0  0  0  0  0  0
    7.6729    7.2787   21.9118 C   0  0  0  0  0  0  0  0  0  0  0  0
    8.4427    8.3648   21.9541 N   0  0  0  0  0  0  0  0  0  0  0  0
    7.9667    6.1277   22.5655 N   0  0  0  0  0  0  0  0  0  0  0  0
    8.1798    9.1741   21.4590 H   0  0  0  0  0  0  0  0  0  0  0  0
    9.2746    8.3583   22.4806 H   0  0  0  0  0  0  0  0  0  0  0  0
    7.3603    5.3550   22.4984 H   0  0  0  0  0  0  0  0  0  0  0  0
  1  2  1  0  0  0
  1  6  2  0  0  0
  2  3  2  0  0  0
  3  4  1  0  0  0
  3  7  1  0  0  0
  4  5  2  0  0  0
  4  9  1  0  0  0
  5  6  1  0  0  0
  7  8  1  0  0  0
  7 26  1  0  0  0
  8  9  2  0  0  0
  8 10  1  0  0  0
 26 27  1  0  0  0
 27 28  1  0  0  0
 27 32  2  0  0  0
 28 29  2  0  0  0
 29 30  1  0  0  0
 30 31  1  0  0  0
 31 32  1  0  0  0
 31 33  1  0  0  0
 33 34  1  0  0  0
 33 35  2  0  0  0
 10 12  1  0  0  0
 10 11  2  0  0  0
 12 13  1  0  0  0
 13 14  1  0  0  0
 14 15  1  0  0  0
 14 19  1  0  0  0
 15 16  1  0  0  0
 16 17  1  0  0  0
 17 18  1  0  0  0
 18 19  1  0  0  0
 18 20  1  0  0  0
 20 21  1  0  0  0
 20 22  2  0  0  0
 34 36  1  0  0  0
 34 37  1  0  0  0
 35 38  1  0  0  0
 21 23  1  0  0  0
 21 24  1  0  0  0
 22 25  1  0  0  0
M  END
> <minimizedAffinity>
-9.06580

$$$$
