4R4T_3J0_A_201


 43 47  0  0  0  0  0  0  0  0999 V2000
   -0.1525   11.4755   -0.2598 C   0  0  0  0  0  0  0  0  0  0  0  0
   -1.3790   11.0013   -0.7383 C   0  0  0  0  0  0  0  0  0  0  0  0
   -2.5679   11.4711   -0.1627 C   0  0  0  0  0  0  0  0  0  0  0  0
   -1.3160   12.8567    1.3895 C   0  0  0  0  0  0  0  0  0  0  0  0
   -0.1173   12.3842    0.7966 C   0  0  0  0  0  0  0  0  0  0  0  0
   -2.5443   12.3848    0.9100 C   0  0  0  0  0  0  0  0  0  0  0  0
   -4.3657   11.1127   -1.9671 C   0  0  0  0  0  0  0  0  0  0  0  0
   -3.9018   10.9475   -0.6587 C   0  0  0  0  0  0  0  0  0  0  0  0
   -5.6389   10.4952   -1.9613 C   0  0  0  0  0  0  0  0  0  0  0  0
   -5.8663   10.0519   -0.7616 N   0  0  0  0  0  0  0  0  0  0  0  0
   -4.8513   10.3284    0.0185 N   0  0  0  0  0  0  0  0  0  0  0  0
   -4.8144    9.9593    1.3728 C   0  0  0  0  0  0  0  0  0  0  0  0
   -4.1473    8.7951    1.7234 C   0  0  0  0  0  0  0  0  0  0  0  0
   -4.1100    8.4098    3.0496 C   0  0  0  0  0  0  0  0  0  0  0  0
   -4.7400    9.1768    4.0282 C   0  0  0  0  0  0  0  0  0  0  0  0
   -5.4120   10.3501    3.6661 C   0  0  0  0  0  0  0  0  0  0  0  0
   -5.4532   10.7415    2.3393 C   0  0  0  0  0  0  0  0  0  0  0  0
   -4.6854    8.6878    5.6756 Cl  0  0  0  0  0  0  0  0  0  0  0  0
   -3.2815    6.9437    3.4776 Cl  0  0  0  0  0  0  0  0  0  0  0  0
   -6.6079   10.3479   -3.1370 C   0  0  0  0  0  0  0  0  0  0  0  0
   -7.7909    9.8859   -2.9467 O   0  0  0  0  0  0  0  0  0  0  0  0
   -6.1933   10.7188   -4.2811 O   0  0  0  0  0  0  0  0  0  0  0  0
   -5.3226   11.0507   -4.3790 H   0  0  0  0  0  0  0  0  0  0  0  0
    1.1967   12.8425    1.2686 C   0  0  0  0  0  0  0  0  0  0  0  0
    2.3295   11.9167    1.0045 N   0  0  0  0  0  0  0  0  0  0  0  0
    2.8717   11.9401    0.1831 H   0  0  0  0  0  0  0  0  0  0  0  0
    2.5479   10.9895    2.0691 C   0  0  0  0  0  0  0  0  0  0  0  0
    1.5434   10.8065    3.3832 S   0  0  0  0  0  0  0  0  0  0  0  0
    4.5233    8.1786    0.4686 C   0  0  0  0  0  0  0  0  0  0  0  0
    4.6846    9.8291    2.7110 C   0  0  0  0  0  0  0  0  0  0  0  0
    5.5694    8.0764    1.3564 C   0  0  0  0  0  0  0  0  0  0  0  0
    3.5305    9.1405    0.6982 C   0  0  0  0  0  0  0  0  0  0  0  0
    3.6316    9.9467    1.8086 C   0  0  0  0  0  0  0  0  0  0  0  0
    5.6561    8.8834    2.4890 C   0  0  0  0  0  0  0  0  0  0  0  0
    7.7004    5.6052   -0.0442 C   0  0  0  0  0  0  0  0  0  0  0  0
    8.2804    5.5368    1.2347 C   0  0  0  0  0  0  0  0  0  0  0  0
    7.5419    6.5072    2.0230 C   0  0  0  0  0  0  0  0  0  0  0  0
    6.6005    7.0521    1.1126 C   0  0  0  0  0  0  0  0  0  0  0  0
    6.7168    6.4865   -0.0602 O   0  0  0  0  0  0  0  0  0  0  0  0
    8.9960    3.9860   -1.2325 O   0  0  0  0  0  0  0  0  0  0  0  0
    8.0689    4.8162   -1.2695 C   0  0  0  0  0  0  0  0  0  0  0  0
    7.3887    5.0411   -2.3079 O   0  0  0  0  0  0  0  0  0  0  0  0
    9.4740    3.8526   -0.4378 H   0  0  0  0  0  0  0  0  0  0  0  0
 21 20  2  0  0  0
 20 22  1  0  0  0
 20  9  1  0  0  0
  9  7  1  0  0  0
  9 10  2  0  0  0
  7  8  2  0  0  0
 42 41  2  0  0  0
 40 41  1  0  0  0
 41 35  1  0  0  0
 10 11  1  0  0  0
  6  4  2  0  0  0
  6  3  1  0  0  0
  8  3  1  0  0  0
  8 11  1  0  0  0
  4  5  1  0  0  0
  3  2  2  0  0  0
 11 12  1  0  0  0
 35 39  1  0  0  0
 35 36  2  0  0  0
 39 38  1  0  0  0
 29 32  2  0  0  0
 29 31  1  0  0  0
 32 33  1  0  0  0
  5 24  1  0  0  0
  5  1  2  0  0  0
 36 37  1  0  0  0
 38 31  1  0  0  0
 38 37  2  0  0  0
  2  1  1  0  0  0
 12 13  2  0  0  0
 12 17  1  0  0  0
 25 24  1  0  0  0
 25 27  1  0  0  0
 31 34  2  0  0  0
 13 14  1  0  0  0
 33 27  1  0  0  0
 33 30  2  0  0  0
 17 16  2  0  0  0
 27 28  2  0  0  0
 34 30  1  0  0  0
 14 19  1  0  0  0
 14 15  2  0  0  0
 16 15  1  0  0  0
 15 18  1  0  0  0
 40 43  1  0  0  0
 25 26  1  0  0  0
 22 23  1  0  0  0
M  END
> <minimizedAffinity>
-8.50766

$$$$
4R4T_3J0_A_201


 43 47  0  0  0  0  0  0  0  0999 V2000
   -1.5186   13.1297    1.8209 C   0  0  0  0  0  0  0  0  0  0  0  0
   -2.7534   12.6667    2.2890 C   0  0  0  0  0  0  0  0  0  0  0  0
   -2.8260   11.4091    2.9043 C   0  0  0  0  0  0  0  0  0  0  0  0
   -0.4488   11.0567    2.5557 C   0  0  0  0  0  0  0  0  0  0  0  0
   -0.3808   12.3337    1.9424 C   0  0  0  0  0  0  0  0  0  0  0  0
   -1.6836   10.5930    3.0269 C   0  0  0  0  0  0  0  0  0  0  0  0
   -4.4587   10.6484    4.7407 C   0  0  0  0  0  0  0  0  0  0  0  0
   -4.1628   10.8882    3.3955 C   0  0  0  0  0  0  0  0  0  0  0  0
   -5.7853   10.1564    4.7187 C   0  0  0  0  0  0  0  0  0  0  0  0
   -6.1766   10.1078    3.4809 N   0  0  0  0  0  0  0  0  0  0  0  0
   -5.2184   10.5241    2.6910 N   0  0  0  0  0  0  0  0  0  0  0  0
   -5.3620   10.5899    1.2957 C   0  0  0  0  0  0  0  0  0  0  0  0
   -6.1907   11.5650    0.7612 C   0  0  0  0  0  0  0  0  0  0  0  0
   -6.3533   11.6381   -0.6088 C   0  0  0  0  0  0  0  0  0  0  0  0
   -5.6981   10.7395   -1.4490 C   0  0  0  0  0  0  0  0  0  0  0  0
   -4.8641    9.7575   -0.9015 C   0  0  0  0  0  0  0  0  0  0  0  0
   -4.6970    9.6789    0.4700 C   0  0  0  0  0  0  0  0  0  0  0  0
   -5.9072   10.8413   -3.1525 Cl  0  0  0  0  0  0  0  0  0  0  0  0
   -7.4025   12.8559   -1.2685 Cl  0  0  0  0  0  0  0  0  0  0  0  0
   -6.6467    9.7469    5.9158 C   0  0  0  0  0  0  0  0  0  0  0  0
   -7.8257   10.2345    6.0617 O   0  0  0  0  0  0  0  0  0  0  0  0
   -6.1499    8.9019    6.7267 O   0  0  0  0  0  0  0  0  0  0  0  0
   -5.2853    8.5694    6.5855 H   0  0  0  0  0  0  0  0  0  0  0  0
    0.8890   12.8621    1.4248 C   0  0  0  0  0  0  0  0  0  0  0  0
    1.8613   11.8414    0.9527 N   0  0  0  0  0  0  0  0  0  0  0  0
    1.6443   11.1497    0.2867 H   0  0  0  0  0  0  0  0  0  0  0  0
    3.1439   11.9708    1.5681 C   0  0  0  0  0  0  0  0  0  0  0  0
    3.5684   13.1884    2.6200 S   0  0  0  0  0  0  0  0  0  0  0  0
    6.1235    9.6526    1.9049 C   0  0  0  0  0  0  0  0  0  0  0  0
    3.6198    9.6682    0.6762 C   0  0  0  0  0  0  0  0  0  0  0  0
    5.6824    8.5764    1.1698 C   0  0  0  0  0  0  0  0  0  0  0  0
    5.2874   10.7687    2.0420 C   0  0  0  0  0  0  0  0  0  0  0  0
    4.0549   10.7538    1.4305 C   0  0  0  0  0  0  0  0  0  0  0  0
    4.4407    8.5753    0.5376 C   0  0  0  0  0  0  0  0  0  0  0  0
    7.5610    5.8130   -0.0318 C   0  0  0  0  0  0  0  0  0  0  0  0
    8.0046    5.6773    1.2954 C   0  0  0  0  0  0  0  0  0  0  0  0
    7.3417    6.7511    2.0136 C   0  0  0  0  0  0  0  0  0  0  0  0
    6.5756    7.4137    1.0207 C   0  0  0  0  0  0  0  0  0  0  0  0
    6.7184    6.8245   -0.1374 O   0  0  0  0  0  0  0  0  0  0  0  0
    7.4242    5.1930   -2.3360 O   0  0  0  0  0  0  0  0  0  0  0  0
    7.9255    4.9663   -1.2191 C   0  0  0  0  0  0  0  0  0  0  0  0
    8.7571    4.0399   -1.0143 O   0  0  0  0  0  0  0  0  0  0  0  0
    6.8099    5.8928   -2.4405 H   0  0  0  0  0  0  0  0  0  0  0  0
 21 20  2  0  0  0
 20 22  1  0  0  0
 20  9  1  0  0  0
  9  7  1  0  0  0
  9 10  2  0  0  0
  7  8  2  0  0  0
 42 41  2  0  0  0
 40 41  1  0  0  0
 41 35  1  0  0  0
 10 11  1  0  0  0
  6  4  2  0  0  0
  6  3  1  0  0  0
  8  3  1  0  0  0
  8 11  1  0  0  0
  4  5  1  0  0  0
  3  2  2  0  0  0
 11 12  1  0  0  0
 35 39  1  0  0  0
 35 36  2  0  0  0
 39 38  1  0  0  0
 29 32  2  0  0  0
 29 31  1  0  0  0
 32 33  1  0  0  0
  5 24  1  0  0  0
  5  1  2  0  0  0
 36 37  1  0  0  0
 38 31  1  0  0  0
 38 37  2  0  0  0
  2  1  1  0  0  0
 12 13  2  0  0  0
 12 17  1  0  0  0
 25 24  1  0  0  0
 25 27  1  0  0  0
 31 34  2  0  0  0
 13 14  1  0  0  0
 33 27  1  0  0  0
 33 30  2  0  0  0
 17 16  2  0  0  0
 27 28  2  0  0  0
 34 30  1  0  0  0
 14 19  1  0  0  0
 14 15  2  0  0  0
 16 15  1  0  0  0
 15 18  1  0  0  0
 40 43  1  0  0  0
 25 26  1  0  0  0
 22 23  1  0  0  0
M  END
> <minimizedAffinity>
-7.75971

$$$$
4R4T_3J0_A_201


 43 47  0  0  0  0  0  0  0  0999 V2000
   -4.5095   10.3387   -1.4710 C   0  0  0  0  0  0  0  0  0  0  0  0
   -4.2727   10.0389   -0.1249 C   0  0  0  0  0  0  0  0  0  0  0  0
   -4.7410   10.9137    0.8655 C   0  0  0  0  0  0  0  0  0  0  0  0
   -5.6488   12.4037   -0.8234 C   0  0  0  0  0  0  0  0  0  0  0  0
   -5.1802   11.5098   -1.8199 C   0  0  0  0  0  0  0  0  0  0  0  0
   -5.4146   12.1037    0.5244 C   0  0  0  0  0  0  0  0  0  0  0  0
   -5.3330    9.8689    3.1403 C   0  0  0  0  0  0  0  0  0  0  0  0
   -4.4709   10.6097    2.3264 C   0  0  0  0  0  0  0  0  0  0  0  0
   -4.6947    9.8641    4.4031 C   0  0  0  0  0  0  0  0  0  0  0  0
   -3.5982   10.5536    4.3030 N   0  0  0  0  0  0  0  0  0  0  0  0
   -3.4659   11.0108    3.0829 N   0  0  0  0  0  0  0  0  0  0  0  0
   -2.3658   11.7847    2.6793 C   0  0  0  0  0  0  0  0  0  0  0  0
   -1.1057   11.2060    2.7023 C   0  0  0  0  0  0  0  0  0  0  0  0
   -0.0099   11.9552    2.3195 C   0  0  0  0  0  0  0  0  0  0  0  0
   -0.1634   13.2815    1.9192 C   0  0  0  0  0  0  0  0  0  0  0  0
   -1.4386   13.8585    1.8995 C   0  0  0  0  0  0  0  0  0  0  0  0
   -2.5403   13.1134    2.2819 C   0  0  0  0  0  0  0  0  0  0  0  0
    1.2077   14.2034    1.4436 Cl  0  0  0  0  0  0  0  0  0  0  0  0
    1.5662   11.2251    2.3627 Cl  0  0  0  0  0  0  0  0  0  0  0  0
   -5.1718    9.1777    5.6853 C   0  0  0  0  0  0  0  0  0  0  0  0
   -6.1866    8.3912    5.6592 O   0  0  0  0  0  0  0  0  0  0  0  0
   -4.5108    9.4078    6.7476 O   0  0  0  0  0  0  0  0  0  0  0  0
   -3.7758    9.9885    6.7256 H   0  0  0  0  0  0  0  0  0  0  0  0
   -5.3936   11.7831   -3.2479 C   0  0  0  0  0  0  0  0  0  0  0  0
   -4.1602   11.8734   -4.0729 N   0  0  0  0  0  0  0  0  0  0  0  0
   -3.9609   11.2671   -4.8225 H   0  0  0  0  0  0  0  0  0  0  0  0
   -3.2947   12.9332   -3.6625 C   0  0  0  0  0  0  0  0  0  0  0  0
   -3.7713   14.5135   -3.4507 S   0  0  0  0  0  0  0  0  0  0  0  0
   -0.5031   11.8821   -1.3242 C   0  0  0  0  0  0  0  0  0  0  0  0
   -0.8844   12.3302   -4.0505 C   0  0  0  0  0  0  0  0  0  0  0  0
    0.5219   11.7108   -2.2260 C   0  0  0  0  0  0  0  0  0  0  0  0
   -1.7617   12.2790   -1.7955 C   0  0  0  0  0  0  0  0  0  0  0  0
   -1.9286   12.4911   -3.1448 C   0  0  0  0  0  0  0  0  0  0  0  0
    0.3511   11.9453   -3.5888 C   0  0  0  0  0  0  0  0  0  0  0  0
    3.2380   10.1023   -0.5997 C   0  0  0  0  0  0  0  0  0  0  0  0
    4.0361   11.1044   -1.1791 C   0  0  0  0  0  0  0  0  0  0  0  0
    3.1036   11.9239   -1.9323 C   0  0  0  0  0  0  0  0  0  0  0  0
    1.8447   11.3067   -1.7176 C   0  0  0  0  0  0  0  0  0  0  0  0
    1.9699   10.2732   -0.9270 O   0  0  0  0  0  0  0  0  0  0  0  0
    3.4480    7.7906   -0.0302 O   0  0  0  0  0  0  0  0  0  0  0  0
    3.6749    8.9722    0.2899 C   0  0  0  0  0  0  0  0  0  0  0  0
    4.2773    9.2933    1.3509 O   0  0  0  0  0  0  0  0  0  0  0  0
    2.9966    7.6000   -0.8288 H   0  0  0  0  0  0  0  0  0  0  0  0
 21 20  2  0  0  0
 20 22  1  0  0  0
 20  9  1  0  0  0
  9  7  1  0  0  0
  9 10  2  0  0  0
  7  8  2  0  0  0
 42 41  2  0  0  0
 40 41  1  0  0  0
 41 35  1  0  0  0
 10 11  1  0  0  0
  6  4  2  0  0  0
  6  3  1  0  0  0
  8  3  1  0  0  0
  8 11  1  0  0  0
  4  5  1  0  0  0
  3  2  2  0  0  0
 11 12  1  0  0  0
 35 39  1  0  0  0
 35 36  2  0  0  0
 39 38  1  0  0  0
 29 32  2  0  0  0
 29 31  1  0  0  0
 32 33  1  0  0  0
  5 24  1  0  0  0
  5  1  2  0  0  0
 36 37  1  0  0  0
 38 31  1  0  0  0
 38 37  2  0  0  0
  2  1  1  0  0  0
 12 13  2  0  0  0
 12 17  1  0  0  0
 25 24  1  0  0  0
 25 27  1  0  0  0
 31 34  2  0  0  0
 13 14  1  0  0  0
 33 27  1  0  0  0
 33 30  2  0  0  0
 17 16  2  0  0  0
 27 28  2  0  0  0
 34 30  1  0  0  0
 14 19  1  0  0  0
 14 15  2  0  0  0
 16 15  1  0  0  0
 15 18  1  0  0  0
 40 43  1  0  0  0
 25 26  1  0  0  0
 22 23  1  0  0  0
M  END
> <minimizedAffinity>
-7.49544

$$$$
4R4T_3J0_A_201


 43 47  0  0  0  0  0  0  0  0999 V2000
   -0.8383   11.9432   -1.1545 C   0  0  0  0  0  0  0  0  0  0  0  0
    0.2538   11.2222   -1.6500 C   0  0  0  0  0  0  0  0  0  0  0  0
    0.7802   11.5520   -2.9069 C   0  0  0  0  0  0  0  0  0  0  0  0
   -0.8888   13.2922   -3.1939 C   0  0  0  0  0  0  0  0  0  0  0  0
   -1.4108   12.9594   -1.9178 C   0  0  0  0  0  0  0  0  0  0  0  0
    0.2057   12.5730   -3.6902 C   0  0  0  0  0  0  0  0  0  0  0  0
    1.9264   10.0984   -4.6929 C   0  0  0  0  0  0  0  0  0  0  0  0
    1.9496   10.7628   -3.4630 C   0  0  0  0  0  0  0  0  0  0  0  0
    3.2019    9.4920   -4.7804 C   0  0  0  0  0  0  0  0  0  0  0  0
    3.8578    9.7746   -3.6953 N   0  0  0  0  0  0  0  0  0  0  0  0
    3.1195   10.5126   -2.9044 N   0  0  0  0  0  0  0  0  0  0  0  0
    3.5744   10.9784   -1.6603 C   0  0  0  0  0  0  0  0  0  0  0  0
    3.5818   10.0998   -0.5873 C   0  0  0  0  0  0  0  0  0  0  0  0
    4.0152   10.5431    0.6473 C   0  0  0  0  0  0  0  0  0  0  0  0
    4.4362   11.8607    0.8192 C   0  0  0  0  0  0  0  0  0  0  0  0
    4.4249   12.7416   -0.2687 C   0  0  0  0  0  0  0  0  0  0  0  0
    3.9917   12.3037   -1.5080 C   0  0  0  0  0  0  0  0  0  0  0  0
    4.9749   12.4004    2.3601 Cl  0  0  0  0  0  0  0  0  0  0  0  0
    4.0100    9.4382    1.9883 Cl  0  0  0  0  0  0  0  0  0  0  0  0
    3.7552    8.6488   -5.9319 C   0  0  0  0  0  0  0  0  0  0  0  0
    4.5849    9.1602   -6.7681 O   0  0  0  0  0  0  0  0  0  0  0  0
    3.3729    7.4374   -6.0004 O   0  0  0  0  0  0  0  0  0  0  0  0
    2.7658    7.1014   -5.3707 H   0  0  0  0  0  0  0  0  0  0  0  0
   -2.5626   13.6785   -1.3561 C   0  0  0  0  0  0  0  0  0  0  0  0
   -3.7865   13.6840   -2.1999 N   0  0  0  0  0  0  0  0  0  0  0  0
   -4.1444   14.4915   -2.6348 H   0  0  0  0  0  0  0  0  0  0  0  0
   -4.3881   12.3933   -2.3129 C   0  0  0  0  0  0  0  0  0  0  0  0
   -4.8031   11.6672   -3.7516 S   0  0  0  0  0  0  0  0  0  0  0  0
   -4.0344    9.4754    0.0800 C   0  0  0  0  0  0  0  0  0  0  0  0
   -4.7631   12.1663    0.1634 C   0  0  0  0  0  0  0  0  0  0  0  0
   -4.3948   10.0811    1.2617 C   0  0  0  0  0  0  0  0  0  0  0  0
   -4.0262   10.2359   -1.0969 C   0  0  0  0  0  0  0  0  0  0  0  0
   -4.3857   11.5626   -1.0324 C   0  0  0  0  0  0  0  0  0  0  0  0
   -4.7757   11.4203    1.3170 C   0  0  0  0  0  0  0  0  0  0  0  0
   -4.9556    8.7803    4.5180 C   0  0  0  0  0  0  0  0  0  0  0  0
   -4.1142    7.7255    4.1229 C   0  0  0  0  0  0  0  0  0  0  0  0
   -3.7404    8.0484    2.7574 C   0  0  0  0  0  0  0  0  0  0  0  0
   -4.4133    9.2683    2.4908 C   0  0  0  0  0  0  0  0  0  0  0  0
   -5.0841    9.6608    3.5419 O   0  0  0  0  0  0  0  0  0  0  0  0
   -5.1707    9.7527    6.6907 O   0  0  0  0  0  0  0  0  0  0  0  0
   -5.6393    8.9704    5.8431 C   0  0  0  0  0  0  0  0  0  0  0  0
   -6.6959    8.3067    6.0302 O   0  0  0  0  0  0  0  0  0  0  0  0
   -4.3825   10.2249    6.5072 H   0  0  0  0  0  0  0  0  0  0  0  0
 21 20  2  0  0  0
 20 22  1  0  0  0
 20  9  1  0  0  0
  9  7  1  0  0  0
  9 10  2  0  0  0
  7  8  2  0  0  0
 42 41  2  0  0  0
 40 41  1  0  0  0
 41 35  1  0  0  0
 10 11  1  0  0  0
  6  4  2  0  0  0
  6  3  1  0  0  0
  8  3  1  0  0  0
  8 11  1  0  0  0
  4  5  1  0  0  0
  3  2  2  0  0  0
 11 12  1  0  0  0
 35 39  1  0  0  0
 35 36  2  0  0  0
 39 38  1  0  0  0
 29 32  2  0  0  0
 29 31  1  0  0  0
 32 33  1  0  0  0
  5 24  1  0  0  0
  5  1  2  0  0  0
 36 37  1  0  0  0
 38 31  1  0  0  0
 38 37  2  0  0  0
  2  1  1  0  0  0
 12 13  2  0  0  0
 12 17  1  0  0  0
 25 24  1  0  0  0
 25 27  1  0  0  0
 31 34  2  0  0  0
 13 14  1  0  0  0
 33 27  1  0  0  0
 33 30  2  0  0  0
 17 16  2  0  0  0
 27 28  2  0  0  0
 34 30  1  0  0  0
 14 19  1  0  0  0
 14 15  2  0  0  0
 16 15  1  0  0  0
 15 18  1  0  0  0
 40 43  1  0  0  0
 25 26  1  0  0  0
 22 23  1  0  0  0
M  END
> <minimizedAffinity>
-7.32873

$$$$
4R4T_3J0_A_201


 43 47  0  0  0  0  0  0  0  0999 V2000
    1.1396   14.1292   -0.8097 C   0  0  0  0  0  0  0  0  0  0  0  0
    0.8282   14.3905   -2.1486 C   0  0  0  0  0  0  0  0  0  0  0  0
    0.3110   13.3602   -2.9464 C   0  0  0  0  0  0  0  0  0  0  0  0
    0.4474   11.8002   -1.0904 C   0  0  0  0  0  0  0  0  0  0  0  0
    0.9618   12.8494   -0.2865 C   0  0  0  0  0  0  0  0  0  0  0  0
    0.1330   12.0610   -2.4300 C   0  0  0  0  0  0  0  0  0  0  0  0
   -1.1543   14.3004   -4.8400 C   0  0  0  0  0  0  0  0  0  0  0  0
   -0.0094   13.6266   -4.4045 C   0  0  0  0  0  0  0  0  0  0  0  0
   -1.0432   14.2912   -6.2506 C   0  0  0  0  0  0  0  0  0  0  0  0
    0.0449   13.6550   -6.5650 N   0  0  0  0  0  0  0  0  0  0  0  0
    0.6542   13.2455   -5.4804 N   0  0  0  0  0  0  0  0  0  0  0  0
    1.8652   12.5355   -5.5143 C   0  0  0  0  0  0  0  0  0  0  0  0
    1.8196   11.1551   -5.6400 C   0  0  0  0  0  0  0  0  0  0  0  0
    3.0005   10.4385   -5.6638 C   0  0  0  0  0  0  0  0  0  0  0  0
    4.2276   11.0910   -5.5569 C   0  0  0  0  0  0  0  0  0  0  0  0
    4.2650   12.4845   -5.4295 C   0  0  0  0  0  0  0  0  0  0  0  0
    3.0856   13.2082   -5.4048 C   0  0  0  0  0  0  0  0  0  0  0  0
    5.6905   10.1884   -5.5892 Cl  0  0  0  0  0  0  0  0  0  0  0  0
    2.9329    8.7084   -5.8100 Cl  0  0  0  0  0  0  0  0  0  0  0  0
   -2.0069   14.9121   -7.2648 C   0  0  0  0  0  0  0  0  0  0  0  0
   -2.2580   16.1711   -7.2322 O   0  0  0  0  0  0  0  0  0  0  0  0
   -2.5165   14.1345   -8.1331 O   0  0  0  0  0  0  0  0  0  0  0  0
   -2.3083   13.2209   -8.1235 H   0  0  0  0  0  0  0  0  0  0  0  0
    1.3144   12.6252    1.1224 C   0  0  0  0  0  0  0  0  0  0  0  0
    2.6951   12.1304    1.3650 N   0  0  0  0  0  0  0  0  0  0  0  0
    3.4950   12.5201    0.9437 H   0  0  0  0  0  0  0  0  0  0  0  0
    2.7380   11.0295    2.2742 C   0  0  0  0  0  0  0  0  0  0  0  0
    1.5737   10.7027    3.4175 S   0  0  0  0  0  0  0  0  0  0  0  0
    4.6937    8.3148    0.4934 C   0  0  0  0  0  0  0  0  0  0  0  0
    4.7881    9.7160    2.9031 C   0  0  0  0  0  0  0  0  0  0  0  0
    5.6821    8.0754    1.4201 C   0  0  0  0  0  0  0  0  0  0  0  0
    3.7267    9.2906    0.7700 C   0  0  0  0  0  0  0  0  0  0  0  0
    3.7943    9.9725    1.9633 C   0  0  0  0  0  0  0  0  0  0  0  0
    5.7340    8.7564    2.6346 C   0  0  0  0  0  0  0  0  0  0  0  0
    7.7571    5.6316   -0.1071 C   0  0  0  0  0  0  0  0  0  0  0  0
    8.3187    5.4677    1.1714 C   0  0  0  0  0  0  0  0  0  0  0  0
    7.5991    6.4097    2.0099 C   0  0  0  0  0  0  0  0  0  0  0  0
    6.6857    7.0374    1.1247 C   0  0  0  0  0  0  0  0  0  0  0  0
    6.8001    6.5415   -0.0794 O   0  0  0  0  0  0  0  0  0  0  0  0
    9.1714    4.2495   -1.4494 O   0  0  0  0  0  0  0  0  0  0  0  0
    8.1178    4.9085   -1.3745 C   0  0  0  0  0  0  0  0  0  0  0  0
    7.2988    5.0060   -2.3293 O   0  0  0  0  0  0  0  0  0  0  0  0
    9.7499    4.2058   -0.7136 H   0  0  0  0  0  0  0  0  0  0  0  0
 21 20  2  0  0  0
 20 22  1  0  0  0
 20  9  1  0  0  0
  9  7  1  0  0  0
  9 10  2  0  0  0
  7  8  2  0  0  0
 42 41  2  0  0  0
 40 41  1  0  0  0
 41 35  1  0  0  0
 10 11  1  0  0  0
  6  4  2  0  0  0
  6  3  1  0  0  0
  8  3  1  0  0  0
  8 11  1  0  0  0
  4  5  1  0  0  0
  3  2  2  0  0  0
 11 12  1  0  0  0
 35 39  1  0  0  0
 35 36  2  0  0  0
 39 38  1  0  0  0
 29 32  2  0  0  0
 29 31  1  0  0  0
 32 33  1  0  0  0
  5 24  1  0  0  0
  5  1  2  0  0  0
 36 37  1  0  0  0
 38 31  1  0  0  0
 38 37  2  0  0  0
  2  1  1  0  0  0
 12 13  2  0  0  0
 12 17  1  0  0  0
 25 24  1  0  0  0
 25 27  1  0  0  0
 31 34  2  0  0  0
 13 14  1  0  0  0
 33 27  1  0  0  0
 33 30  2  0  0  0
 17 16  2  0  0  0
 27 28  2  0  0  0
 34 30  1  0  0  0
 14 19  1  0  0  0
 14 15  2  0  0  0
 16 15  1  0  0  0
 15 18  1  0  0  0
 40 43  1  0  0  0
 25 26  1  0  0  0
 22 23  1  0  0  0
M  END
> <minimizedAffinity>
-7.20570

$$$$
4R4T_3J0_A_201


 43 47  0  0  0  0  0  0  0  0999 V2000
    3.1397    9.1989    1.1354 C   0  0  0  0  0  0  0  0  0  0  0  0
    4.1863    8.5518    0.4691 C   0  0  0  0  0  0  0  0  0  0  0  0
    5.4594    8.5236    1.0555 C   0  0  0  0  0  0  0  0  0  0  0  0
    4.6593    9.8146    2.9502 C   0  0  0  0  0  0  0  0  0  0  0  0
    3.3717    9.8315    2.3557 C   0  0  0  0  0  0  0  0  0  0  0  0
    5.7072    9.1651    2.2857 C   0  0  0  0  0  0  0  0  0  0  0  0
    6.9182    6.4882    0.4677 C   0  0  0  0  0  0  0  0  0  0  0  0
    6.6058    7.8441    0.3319 C   0  0  0  0  0  0  0  0  0  0  0  0
    8.0538    6.3123   -0.3579 C   0  0  0  0  0  0  0  0  0  0  0  0
    8.3535    7.4629   -0.8813 N   0  0  0  0  0  0  0  0  0  0  0  0
    7.5121    8.3769   -0.4669 N   0  0  0  0  0  0  0  0  0  0  0  0
    7.5868    9.7175   -0.8782 C   0  0  0  0  0  0  0  0  0  0  0  0
    6.7462   10.1455   -1.8948 C   0  0  0  0  0  0  0  0  0  0  0  0
    6.8133   11.4580   -2.3207 C   0  0  0  0  0  0  0  0  0  0  0  0
    7.7190   12.3454   -1.7418 C   0  0  0  0  0  0  0  0  0  0  0  0
    8.5646   11.9053   -0.7167 C   0  0  0  0  0  0  0  0  0  0  0  0
    8.5025   10.5917   -0.2856 C   0  0  0  0  0  0  0  0  0  0  0  0
    7.7922   13.9768   -2.2792 Cl  0  0  0  0  0  0  0  0  0  0  0  0
    5.7642   11.9820   -3.6028 Cl  0  0  0  0  0  0  0  0  0  0  0  0
    8.8218    5.0148   -0.6214 C   0  0  0  0  0  0  0  0  0  0  0  0
    9.9085    4.7651    0.0156 O   0  0  0  0  0  0  0  0  0  0  0  0
    8.3249    4.2081   -1.4704 O   0  0  0  0  0  0  0  0  0  0  0  0
    7.5295    4.4270   -1.9148 H   0  0  0  0  0  0  0  0  0  0  0  0
    2.2413   10.5060    3.0088 C   0  0  0  0  0  0  0  0  0  0  0  0
    2.0879   11.9500    2.6906 N   0  0  0  0  0  0  0  0  0  0  0  0
    2.6710   12.6533    3.0575 H   0  0  0  0  0  0  0  0  0  0  0  0
    1.0047   12.2089    1.7960 C   0  0  0  0  0  0  0  0  0  0  0  0
   -0.3465   13.1003    2.1818 S   0  0  0  0  0  0  0  0  0  0  0  0
    0.5987   10.7642   -1.6845 C   0  0  0  0  0  0  0  0  0  0  0  0
    2.4497   12.2891   -0.2606 C   0  0  0  0  0  0  0  0  0  0  0  0
    1.7594   11.2105   -2.2731 C   0  0  0  0  0  0  0  0  0  0  0  0
    0.3455   11.0963   -0.3468 C   0  0  0  0  0  0  0  0  0  0  0  0
    1.2705   11.8525    0.3358 C   0  0  0  0  0  0  0  0  0  0  0  0
    2.7007   11.9603   -1.5708 C   0  0  0  0  0  0  0  0  0  0  0  0
    2.9640    9.7604   -5.2824 C   0  0  0  0  0  0  0  0  0  0  0  0
    2.1015   10.6602   -5.9329 C   0  0  0  0  0  0  0  0  0  0  0  0
    1.4643   11.3980   -4.8567 C   0  0  0  0  0  0  0  0  0  0  0  0
    2.0218   10.8437   -3.6761 C   0  0  0  0  0  0  0  0  0  0  0  0
    2.8957    9.9179   -3.9729 O   0  0  0  0  0  0  0  0  0  0  0  0
    3.6737    7.5262   -5.7486 O   0  0  0  0  0  0  0  0  0  0  0  0
    3.8798    8.7441   -5.9052 C   0  0  0  0  0  0  0  0  0  0  0  0
    4.8413    9.1965   -6.5852 O   0  0  0  0  0  0  0  0  0  0  0  0
    2.9459    7.2366   -5.2344 H   0  0  0  0  0  0  0  0  0  0  0  0
 21 20  2  0  0  0
 20 22  1  0  0  0
 20  9  1  0  0  0
  9  7  1  0  0  0
  9 10  2  0  0  0
  7  8  2  0  0  0
 42 41  2  0  0  0
 40 41  1  0  0  0
 41 35  1  0  0  0
 10 11  1  0  0  0
  6  4  2  0  0  0
  6  3  1  0  0  0
  8  3  1  0  0  0
  8 11  1  0  0  0
  4  5  1  0  0  0
  3  2  2  0  0  0
 11 12  1  0  0  0
 35 39  1  0  0  0
 35 36  2  0  0  0
 39 38  1  0  0  0
 29 32  2  0  0  0
 29 31  1  0  0  0
 32 33  1  0  0  0
  5 24  1  0  0  0
  5  1  2  0  0  0
 36 37  1  0  0  0
 38 31  1  0  0  0
 38 37  2  0  0  0
  2  1  1  0  0  0
 12 13  2  0  0  0
 12 17  1  0  0  0
 25 24  1  0  0  0
 25 27  1  0  0  0
 31 34  2  0  0  0
 13 14  1  0  0  0
 33 27  1  0  0  0
 33 30  2  0  0  0
 17 16  2  0  0  0
 27 28  2  0  0  0
 34 30  1  0  0  0
 14 19  1  0  0  0
 14 15  2  0  0  0
 16 15  1  0  0  0
 15 18  1  0  0  0
 40 43  1  0  0  0
 25 26  1  0  0  0
 22 23  1  0  0  0
M  END
> <minimizedAffinity>
-7.04424

$$$$
4R4T_3J0_A_201


 43 47  0  0  0  0  0  0  0  0999 V2000
    3.4990   11.4306   -0.6882 C   0  0  0  0  0  0  0  0  0  0  0  0
    3.1483   11.9760   -1.9282 C   0  0  0  0  0  0  0  0  0  0  0  0
    2.2126   11.3088   -2.7312 C   0  0  0  0  0  0  0  0  0  0  0  0
    2.0018    9.5375   -1.0835 C   0  0  0  0  0  0  0  0  0  0  0  0
    2.9422   10.2223   -0.2722 C   0  0  0  0  0  0  0  0  0  0  0  0
    1.6480   10.0835   -2.3238 C   0  0  0  0  0  0  0  0  0  0  0  0
    0.8433   12.8386   -4.2809 C   0  0  0  0  0  0  0  0  0  0  0  0
    1.8417   11.8795   -4.0863 C   0  0  0  0  0  0  0  0  0  0  0  0
    0.8343   13.0468   -5.6805 C   0  0  0  0  0  0  0  0  0  0  0  0
    1.7249   12.2632   -6.2102 N   0  0  0  0  0  0  0  0  0  0  0  0
    2.3143   11.5587   -5.2767 N   0  0  0  0  0  0  0  0  0  0  0  0
    3.3307   10.6310   -5.5562 C   0  0  0  0  0  0  0  0  0  0  0  0
    4.6315   11.0940   -5.6869 C   0  0  0  0  0  0  0  0  0  0  0  0
    5.6432   10.1977   -5.9730 C   0  0  0  0  0  0  0  0  0  0  0  0
    5.3636    8.8419   -6.1354 C   0  0  0  0  0  0  0  0  0  0  0  0
    4.0480    8.3827   -6.0027 C   0  0  0  0  0  0  0  0  0  0  0  0
    3.0299    9.2754   -5.7163 C   0  0  0  0  0  0  0  0  0  0  0  0
    6.6314    7.7359   -6.4898 Cl  0  0  0  0  0  0  0  0  0  0  0  0
    7.2678   10.7889   -6.1462 Cl  0  0  0  0  0  0  0  0  0  0  0  0
   -0.0469   14.0161   -6.4722 C   0  0  0  0  0  0  0  0  0  0  0  0
   -1.2811   14.1750   -6.1552 O   0  0  0  0  0  0  0  0  0  0  0  0
    0.5033   14.6550   -7.4249 O   0  0  0  0  0  0  0  0  0  0  0  0
    1.4072   14.5107   -7.6252 H   0  0  0  0  0  0  0  0  0  0  0  0
    3.3522    9.6873    1.0336 C   0  0  0  0  0  0  0  0  0  0  0  0
    4.4210   10.4505    1.7302 N   0  0  0  0  0  0  0  0  0  0  0  0
    4.4466   11.4336    1.7758 H   0  0  0  0  0  0  0  0  0  0  0  0
    5.4069    9.6061    2.3264 C   0  0  0  0  0  0  0  0  0  0  0  0
    5.4780    9.2356    3.9472 S   0  0  0  0  0  0  0  0  0  0  0  0
    7.8120    8.7540   -0.4763 C   0  0  0  0  0  0  0  0  0  0  0  0
    6.2167    7.4203    1.3826 C   0  0  0  0  0  0  0  0  0  0  0  0
    7.7757    7.3796   -0.4223 C   0  0  0  0  0  0  0  0  0  0  0  0
    7.0373    9.4889    0.4312 C   0  0  0  0  0  0  0  0  0  0  0  0
    6.2604    8.8107    1.3421 C   0  0  0  0  0  0  0  0  0  0  0  0
    6.9725    6.6990    0.4904 C   0  0  0  0  0  0  0  0  0  0  0  0
    9.5372    4.8674   -2.2101 C   0  0  0  0  0  0  0  0  0  0  0  0
    9.8961    5.9012   -3.0929 C   0  0  0  0  0  0  0  0  0  0  0  0
    9.2602    7.0862   -2.5454 C   0  0  0  0  0  0  0  0  0  0  0  0
    8.5837    6.6169   -1.3905 C   0  0  0  0  0  0  0  0  0  0  0  0
    8.7896    5.3363   -1.2274 O   0  0  0  0  0  0  0  0  0  0  0  0
    9.1214    2.5759   -2.7471 O   0  0  0  0  0  0  0  0  0  0  0  0
    9.9167    3.4149   -2.2849 C   0  0  0  0  0  0  0  0  0  0  0  0
   11.0676    3.1128   -1.8655 O   0  0  0  0  0  0  0  0  0  0  0  0
    8.2761    2.8471   -3.0470 H   0  0  0  0  0  0  0  0  0  0  0  0
 21 20  2  0  0  0
 20 22  1  0  0  0
 20  9  1  0  0  0
  9  7  1  0  0  0
  9 10  2  0  0  0
  7  8  2  0  0  0
 42 41  2  0  0  0
 40 41  1  0  0  0
 41 35  1  0  0  0
 10 11  1  0  0  0
  6  4  2  0  0  0
  6  3  1  0  0  0
  8  3  1  0  0  0
  8 11  1  0  0  0
  4  5  1  0  0  0
  3  2  2  0  0  0
 11 12  1  0  0  0
 35 39  1  0  0  0
 35 36  2  0  0  0
 39 38  1  0  0  0
 29 32  2  0  0  0
 29 31  1  0  0  0
 32 33  1  0  0  0
  5 24  1  0  0  0
  5  1  2  0  0  0
 36 37  1  0  0  0
 38 31  1  0  0  0
 38 37  2  0  0  0
  2  1  1  0  0  0
 12 13  2  0  0  0
 12 17  1  0  0  0
 25 24  1  0  0  0
 25 27  1  0  0  0
 31 34  2  0  0  0
 13 14  1  0  0  0
 33 27  1  0  0  0
 33 30  2  0  0  0
 17 16  2  0  0  0
 27 28  2  0  0  0
 34 30  1  0  0  0
 14 19  1  0  0  0
 14 15  2  0  0  0
 16 15  1  0  0  0
 15 18  1  0  0  0
 40 43  1  0  0  0
 25 26  1  0  0  0
 22 23  1  0  0  0
M  END
> <minimizedAffinity>
-6.96244

$$$$
4R4T_3J0_A_201


 43 47  0  0  0  0  0  0  0  0999 V2000
   -4.2069   12.7270   -2.8221 C   0  0  0  0  0  0  0  0  0  0  0  0
   -5.4276   12.1378   -3.1696 C   0  0  0  0  0  0  0  0  0  0  0  0
   -5.8750   11.0157   -2.4581 C   0  0  0  0  0  0  0  0  0  0  0  0
   -3.8765   11.0434   -1.0790 C   0  0  0  0  0  0  0  0  0  0  0  0
   -3.4341   12.1839   -1.7969 C   0  0  0  0  0  0  0  0  0  0  0  0
   -5.0993   10.4542   -1.4241 C   0  0  0  0  0  0  0  0  0  0  0  0
   -7.3015    9.3600   -3.8147 C   0  0  0  0  0  0  0  0  0  0  0  0
   -7.1858   10.3561   -2.8406 C   0  0  0  0  0  0  0  0  0  0  0  0
   -8.6860    9.0696   -3.8470 C   0  0  0  0  0  0  0  0  0  0  0  0
   -9.2805    9.8448   -2.9908 N   0  0  0  0  0  0  0  0  0  0  0  0
   -8.4032   10.6192   -2.4025 N   0  0  0  0  0  0  0  0  0  0  0  0
   -8.7592   11.5565   -1.4194 C   0  0  0  0  0  0  0  0  0  0  0  0
   -8.7057   11.1717   -0.0881 C   0  0  0  0  0  0  0  0  0  0  0  0
   -9.0630   12.0767    0.8927 C   0  0  0  0  0  0  0  0  0  0  0  0
   -9.4796   13.3626    0.5524 C   0  0  0  0  0  0  0  0  0  0  0  0
   -9.5317   13.7429   -0.7937 C   0  0  0  0  0  0  0  0  0  0  0  0
   -9.1751   12.8411   -1.7810 C   0  0  0  0  0  0  0  0  0  0  0  0
   -9.9205   14.4805    1.7820 Cl  0  0  0  0  0  0  0  0  0  0  0  0
   -9.0037   11.5818    2.5572 Cl  0  0  0  0  0  0  0  0  0  0  0  0
   -9.3998    8.0313   -4.7162 C   0  0  0  0  0  0  0  0  0  0  0  0
  -10.6020    7.6733   -4.4411 O   0  0  0  0  0  0  0  0  0  0  0  0
   -8.7589    7.5697   -5.7135 O   0  0  0  0  0  0  0  0  0  0  0  0
   -7.8826    7.8561   -5.8807 H   0  0  0  0  0  0  0  0  0  0  0  0
   -2.1553   12.8340   -1.4787 C   0  0  0  0  0  0  0  0  0  0  0  0
   -2.2536   14.0750   -0.6661 N   0  0  0  0  0  0  0  0  0  0  0  0
   -2.6597   14.9098   -0.9941 H   0  0  0  0  0  0  0  0  0  0  0  0
   -1.6964   13.9278    0.6409 C   0  0  0  0  0  0  0  0  0  0  0  0
   -0.5330   14.9253    1.2896 S   0  0  0  0  0  0  0  0  0  0  0  0
   -2.4388   10.9548    2.8715 C   0  0  0  0  0  0  0  0  0  0  0  0
   -3.7709   13.1827    1.8514 C   0  0  0  0  0  0  0  0  0  0  0  0
   -3.7586   11.1982    3.1748 C   0  0  0  0  0  0  0  0  0  0  0  0
   -1.7564   11.8549    2.0422 C   0  0  0  0  0  0  0  0  0  0  0  0
   -2.4318   12.9493    1.5529 C   0  0  0  0  0  0  0  0  0  0  0  0
   -4.4419   12.2984    2.6609 C   0  0  0  0  0  0  0  0  0  0  0  0
   -5.9429    9.6018    5.4748 C   0  0  0  0  0  0  0  0  0  0  0  0
   -5.2128    8.4345    5.1900 C   0  0  0  0  0  0  0  0  0  0  0  0
   -4.2143    8.8551    4.2232 C   0  0  0  0  0  0  0  0  0  0  0  0
   -4.4702   10.2377    4.0367 C   0  0  0  0  0  0  0  0  0  0  0  0
   -5.4621   10.6264    4.7942 O   0  0  0  0  0  0  0  0  0  0  0  0
   -8.1277   10.3734    6.0609 O   0  0  0  0  0  0  0  0  0  0  0  0
   -7.1048    9.7585    6.4155 C   0  0  0  0  0  0  0  0  0  0  0  0
   -6.9795    9.2327    7.5554 O   0  0  0  0  0  0  0  0  0  0  0  0
   -8.1757   10.7478    5.2033 H   0  0  0  0  0  0  0  0  0  0  0  0
 21 20  2  0  0  0
 20 22  1  0  0  0
 20  9  1  0  0  0
  9  7  1  0  0  0
  9 10  2  0  0  0
  7  8  2  0  0  0
 42 41  2  0  0  0
 40 41  1  0  0  0
 41 35  1  0  0  0
 10 11  1  0  0  0
  6  4  2  0  0  0
  6  3  1  0  0  0
  8  3  1  0  0  0
  8 11  1  0  0  0
  4  5  1  0  0  0
  3  2  2  0  0  0
 11 12  1  0  0  0
 35 39  1  0  0  0
 35 36  2  0  0  0
 39 38  1  0  0  0
 29 32  2  0  0  0
 29 31  1  0  0  0
 32 33  1  0  0  0
  5 24  1  0  0  0
  5  1  2  0  0  0
 36 37  1  0  0  0
 38 31  1  0  0  0
 38 37  2  0  0  0
  2  1  1  0  0  0
 12 13  2  0  0  0
 12 17  1  0  0  0
 25 24  1  0  0  0
 25 27  1  0  0  0
 31 34  2  0  0  0
 13 14  1  0  0  0
 33 27  1  0  0  0
 33 30  2  0  0  0
 17 16  2  0  0  0
 27 28  2  0  0  0
 34 30  1  0  0  0
 14 19  1  0  0  0
 14 15  2  0  0  0
 16 15  1  0  0  0
 15 18  1  0  0  0
 40 43  1  0  0  0
 25 26  1  0  0  0
 22 23  1  0  0  0
M  END
> <minimizedAffinity>
-6.91137

$$$$
4R4T_3J0_A_201


 43 47  0  0  0  0  0  0  0  0999 V2000
   -2.7678   12.5229   -2.7287 C   0  0  0  0  0  0  0  0  0  0  0  0
   -1.6342   12.0254   -2.0765 C   0  0  0  0  0  0  0  0  0  0  0  0
   -1.2103   12.6264   -0.8829 C   0  0  0  0  0  0  0  0  0  0  0  0
   -3.0204   14.2405   -1.0060 C   0  0  0  0  0  0  0  0  0  0  0  0
   -3.4490   13.6221   -2.2082 C   0  0  0  0  0  0  0  0  0  0  0  0
   -1.8873   13.7421   -0.3508 C   0  0  0  0  0  0  0  0  0  0  0  0
    0.0957   11.8506    1.1929 C   0  0  0  0  0  0  0  0  0  0  0  0
    0.0295   12.1093   -0.1794 C   0  0  0  0  0  0  0  0  0  0  0  0
    1.4271   11.4171    1.3974 C   0  0  0  0  0  0  0  0  0  0  0  0
    2.0430   11.4540    0.2543 N   0  0  0  0  0  0  0  0  0  0  0  0
    1.2287   11.8766   -0.6804 N   0  0  0  0  0  0  0  0  0  0  0  0
    1.6197   12.0085   -2.0226 C   0  0  0  0  0  0  0  0  0  0  0  0
    1.6920   10.8663   -2.8060 C   0  0  0  0  0  0  0  0  0  0  0  0
    2.0857   10.9748   -4.1258 C   0  0  0  0  0  0  0  0  0  0  0  0
    2.4136   12.2165   -4.6675 C   0  0  0  0  0  0  0  0  0  0  0  0
    2.3389   13.3645   -3.8700 C   0  0  0  0  0  0  0  0  0  0  0  0
    1.9454   13.2626   -2.5471 C   0  0  0  0  0  0  0  0  0  0  0  0
    2.9008   12.3391   -6.3118 Cl  0  0  0  0  0  0  0  0  0  0  0  0
    2.1843    9.5369   -5.0961 Cl  0  0  0  0  0  0  0  0  0  0  0  0
    2.0692   10.9698    2.7129 C   0  0  0  0  0  0  0  0  0  0  0  0
    1.3389   10.7361    3.7430 O   0  0  0  0  0  0  0  0  0  0  0  0
    3.3332   10.8259    2.7226 O   0  0  0  0  0  0  0  0  0  0  0  0
    3.8313   11.0067    1.9498 H   0  0  0  0  0  0  0  0  0  0  0  0
   -4.6269   14.1121   -2.9375 C   0  0  0  0  0  0  0  0  0  0  0  0
   -5.9365   13.8582   -2.2813 N   0  0  0  0  0  0  0  0  0  0  0  0
   -6.4865   14.5649   -1.8721 H   0  0  0  0  0  0  0  0  0  0  0  0
   -6.3122   12.4803   -2.3075 C   0  0  0  0  0  0  0  0  0  0  0  0
   -6.8940   11.6852   -3.6486 S   0  0  0  0  0  0  0  0  0  0  0  0
   -5.6419   11.4716    1.2840 C   0  0  0  0  0  0  0  0  0  0  0  0
   -5.3403   10.4035   -1.2747 C   0  0  0  0  0  0  0  0  0  0  0  0
   -5.1148   10.2152    1.0925 C   0  0  0  0  0  0  0  0  0  0  0  0
   -6.0419   12.2168    0.1667 C   0  0  0  0  0  0  0  0  0  0  0  0
   -5.8875   11.6692   -1.0862 C   0  0  0  0  0  0  0  0  0  0  0  0
   -4.9439    9.6740   -0.1801 C   0  0  0  0  0  0  0  0  0  0  0  0
   -4.7232    8.8232    4.3358 C   0  0  0  0  0  0  0  0  0  0  0  0
   -3.6648    8.0882    3.7734 C   0  0  0  0  0  0  0  0  0  0  0  0
   -3.6291    8.5050    2.3829 C   0  0  0  0  0  0  0  0  0  0  0  0
   -4.6847    9.4461    2.2737 C   0  0  0  0  0  0  0  0  0  0  0  0
   -5.2728    9.6113    3.4295 O   0  0  0  0  0  0  0  0  0  0  0  0
   -4.4514    9.0706    6.6974 O   0  0  0  0  0  0  0  0  0  0  0  0
   -5.2169    8.7941    5.7552 C   0  0  0  0  0  0  0  0  0  0  0  0
   -6.4288    8.4857    5.9222 O   0  0  0  0  0  0  0  0  0  0  0  0
   -3.5579    9.2941    6.5250 H   0  0  0  0  0  0  0  0  0  0  0  0
 21 20  2  0  0  0
 20 22  1  0  0  0
 20  9  1  0  0  0
  9  7  1  0  0  0
  9 10  2  0  0  0
  7  8  2  0  0  0
 42 41  2  0  0  0
 40 41  1  0  0  0
 41 35  1  0  0  0
 10 11  1  0  0  0
  6  4  2  0  0  0
  6  3  1  0  0  0
  8  3  1  0  0  0
  8 11  1  0  0  0
  4  5  1  0  0  0
  3  2  2  0  0  0
 11 12  1  0  0  0
 35 39  1  0  0  0
 35 36  2  0  0  0
 39 38  1  0  0  0
 29 32  2  0  0  0
 29 31  1  0  0  0
 32 33  1  0  0  0
  5 24  1  0  0  0
  5  1  2  0  0  0
 36 37  1  0  0  0
 38 31  1  0  0  0
 38 37  2  0  0  0
  2  1  1  0  0  0
 12 13  2  0  0  0
 12 17  1  0  0  0
 25 24  1  0  0  0
 25 27  1  0  0  0
 31 34  2  0  0  0
 13 14  1  0  0  0
 33 27  1  0  0  0
 33 30  2  0  0  0
 17 16  2  0  0  0
 27 28  2  0  0  0
 34 30  1  0  0  0
 14 19  1  0  0  0
 14 15  2  0  0  0
 16 15  1  0  0  0
 15 18  1  0  0  0
 40 43  1  0  0  0
 25 26  1  0  0  0
 22 23  1  0  0  0
M  END
> <minimizedAffinity>
-6.89971

$$$$
4R4T_3J0_A_201


 43 47  0  0  0  0  0  0  0  0999 V2000
    5.9393    7.6660    1.8534 C   0  0  0  0  0  0  0  0  0  0  0  0
    6.5422    6.9880    0.7881 C   0  0  0  0  0  0  0  0  0  0  0  0
    7.9299    6.7886    0.7993 C   0  0  0  0  0  0  0  0  0  0  0  0
    8.1230    7.9699    2.9121 C   0  0  0  0  0  0  0  0  0  0  0  0
    6.7175    8.1603    2.8989 C   0  0  0  0  0  0  0  0  0  0  0  0
    8.7275    7.2894    1.8477 C   0  0  0  0  0  0  0  0  0  0  0  0
    8.9275    4.7162   -0.3525 C   0  0  0  0  0  0  0  0  0  0  0  0
    8.5965    6.0745   -0.3605 C   0  0  0  0  0  0  0  0  0  0  0  0
    9.5397    4.5038   -1.6104 C   0  0  0  0  0  0  0  0  0  0  0  0
    9.5649    5.6382   -2.2429 N   0  0  0  0  0  0  0  0  0  0  0  0
    9.0233    6.5751   -1.5053 N   0  0  0  0  0  0  0  0  0  0  0  0
    8.9041    7.9056   -1.9381 C   0  0  0  0  0  0  0  0  0  0  0  0
    8.5517    8.1428   -3.2583 C   0  0  0  0  0  0  0  0  0  0  0  0
    8.4405    9.4453   -3.7054 C   0  0  0  0  0  0  0  0  0  0  0  0
    8.6848   10.5134   -2.8438 C   0  0  0  0  0  0  0  0  0  0  0  0
    9.0408   10.2655   -1.5129 C   0  0  0  0  0  0  0  0  0  0  0  0
    9.1540    8.9631   -1.0588 C   0  0  0  0  0  0  0  0  0  0  0  0
    8.5418   12.1300   -3.4114 Cl  0  0  0  0  0  0  0  0  0  0  0  0
    8.0098    9.7325   -5.3640 Cl  0  0  0  0  0  0  0  0  0  0  0  0
   10.0851    3.1878   -2.1704 C   0  0  0  0  0  0  0  0  0  0  0  0
   11.2194    2.7358   -1.7726 O   0  0  0  0  0  0  0  0  0  0  0  0
    9.3607    2.5718   -3.0154 O   0  0  0  0  0  0  0  0  0  0  0  0
    8.5386    2.9349   -3.2806 H   0  0  0  0  0  0  0  0  0  0  0  0
    6.0365    8.8744    3.9877 C   0  0  0  0  0  0  0  0  0  0  0  0
    4.8609    9.6886    3.5814 N   0  0  0  0  0  0  0  0  0  0  0  0
    3.9336    9.4658    3.8258 H   0  0  0  0  0  0  0  0  0  0  0  0
    5.2195   10.8285    2.7987 C   0  0  0  0  0  0  0  0  0  0  0  0
    6.2904   12.0071    3.2820 S   0  0  0  0  0  0  0  0  0  0  0  0
    5.3147   10.7332   -0.9890 C   0  0  0  0  0  0  0  0  0  0  0  0
    3.4128   10.7624    1.0507 C   0  0  0  0  0  0  0  0  0  0  0  0
    3.9679   10.7023   -1.2684 C   0  0  0  0  0  0  0  0  0  0  0  0
    5.7291   10.7692    0.3491 C   0  0  0  0  0  0  0  0  0  0  0  0
    4.7741   10.7793    1.3396 C   0  0  0  0  0  0  0  0  0  0  0  0
    3.0056   10.7315   -0.2611 C   0  0  0  0  0  0  0  0  0  0  0  0
    3.4559    9.9211   -4.6944 C   0  0  0  0  0  0  0  0  0  0  0  0
    2.6608   11.0802   -4.7271 C   0  0  0  0  0  0  0  0  0  0  0  0
    2.7172   11.6000   -3.3724 C   0  0  0  0  0  0  0  0  0  0  0  0
    3.5433   10.6785   -2.6794 C   0  0  0  0  0  0  0  0  0  0  0  0
    3.9613    9.7400   -3.4876 O   0  0  0  0  0  0  0  0  0  0  0  0
    2.9754    8.8695   -6.7862 O   0  0  0  0  0  0  0  0  0  0  0  0
    3.7571    8.9749   -5.8229 C   0  0  0  0  0  0  0  0  0  0  0  0
    4.8304    8.3179   -5.7337 O   0  0  0  0  0  0  0  0  0  0  0  0
    2.1890    9.3784   -6.8093 H   0  0  0  0  0  0  0  0  0  0  0  0
 21 20  2  0  0  0
 20 22  1  0  0  0
 20  9  1  0  0  0
  9  7  1  0  0  0
  9 10  2  0  0  0
  7  8  2  0  0  0
 42 41  2  0  0  0
 40 41  1  0  0  0
 41 35  1  0  0  0
 10 11  1  0  0  0
  6  4  2  0  0  0
  6  3  1  0  0  0
  8  3  1  0  0  0
  8 11  1  0  0  0
  4  5  1  0  0  0
  3  2  2  0  0  0
 11 12  1  0  0  0
 35 39  1  0  0  0
 35 36  2  0  0  0
 39 38  1  0  0  0
 29 32  2  0  0  0
 29 31  1  0  0  0
 32 33  1  0  0  0
  5 24  1  0  0  0
  5  1  2  0  0  0
 36 37  1  0  0  0
 38 31  1  0  0  0
 38 37  2  0  0  0
  2  1  1  0  0  0
 12 13  2  0  0  0
 12 17  1  0  0  0
 25 24  1  0  0  0
 25 27  1  0  0  0
 31 34  2  0  0  0
 13 14  1  0  0  0
 33 27  1  0  0  0
 33 30  2  0  0  0
 17 16  2  0  0  0
 27 28  2  0  0  0
 34 30  1  0  0  0
 14 19  1  0  0  0
 14 15  2  0  0  0
 16 15  1  0  0  0
 15 18  1  0  0  0
 40 43  1  0  0  0
 25 26  1  0  0  0
 22 23  1  0  0  0
M  END
> <minimizedAffinity>
-6.84828

$$$$
