5I9Y_1N1_A_1001


 36 39  0  0  0  0  0  0  0  0999 V2000
  -67.4922  -12.9837   43.7011 N   0  0  0  0  0  0  0  0  0  0  0  0
  -67.6425  -12.5835   42.8143 H   0  0  0  0  0  0  0  0  0  0  0  0
  -66.2340  -13.0431   44.1734 C   0  0  0  0  0  0  0  0  0  0  0  0
  -65.9973  -13.0340   45.5511 C   0  0  0  0  0  0  0  0  0  0  0  0
  -64.6753  -13.1039   45.9901 C   0  0  0  0  0  0  0  0  0  0  0  0
  -63.9245  -13.1844   43.7914 C   0  0  0  0  0  0  0  0  0  0  0  0
  -62.8748  -13.2591   42.8775 C   0  0  0  0  0  0  0  0  0  0  0  0
  -63.6752  -13.1769   45.1035 N   0  0  0  0  0  0  0  0  0  0  0  0
  -65.1808  -13.1194   43.3526 N   0  0  0  0  0  0  0  0  0  0  0  0
  -63.9375  -12.4170   50.0177 N   0  0  0  0  0  0  0  0  0  0  0  0
  -62.9768  -12.7662   47.7432 C   0  0  0  0  0  0  0  0  0  0  0  0
  -65.3647  -13.4598   48.2855 C   0  0  0  0  0  0  0  0  0  0  0  0
  -64.3336  -13.1116   47.2856 N   0  0  0  0  0  0  0  0  0  0  0  0
  -63.0462  -11.8694   48.9791 C   0  0  0  0  0  0  0  0  0  0  0  0
  -65.3011  -12.5422   49.4848 C   0  0  0  0  0  0  0  0  0  0  0  0
  -63.9727  -11.4832   51.1568 C   0  0  0  0  0  0  0  0  0  0  0  0
  -65.3042  -11.5688   51.9117 C   0  0  0  0  0  0  0  0  0  0  0  0
  -65.2456  -10.7719   53.1010 O   0  0  0  0  0  0  0  0  0  0  0  0
  -64.5356  -11.0994   53.6751 H   0  0  0  0  0  0  0  0  0  0  0  0
  -70.7726  -13.8090   44.7978 C   0  0  0  0  0  0  0  0  0  0  0  0
  -70.2965  -14.4417   45.8867 C   0  0  0  0  0  0  0  0  0  0  0  0
  -68.5604  -13.4486   44.3888 C   0  0  0  0  0  0  0  0  0  0  0  0
  -69.8262  -13.2657   43.9841 N   0  0  0  0  0  0  0  0  0  0  0  0
  -68.6050  -14.3186   45.8499 S   0  0  0  0  0  0  0  0  0  0  0  0
  -70.9792  -15.0861   46.8727 C   0  0  0  0  0  0  0  0  0  0  0  0
  -72.2547  -15.5123   46.6320 N   0  0  0  0  0  0  0  0  0  0  0  0
  -70.4087  -15.3029   47.9397 O   0  0  0  0  0  0  0  0  0  0  0  0
  -72.6753  -15.3359   45.7595 H   0  0  0  0  0  0  0  0  0  0  0  0
  -74.3299  -17.5645   49.5992 C   0  0  0  0  0  0  0  0  0  0  0  0
  -73.6138  -18.2675   48.6382 C   0  0  0  0  0  0  0  0  0  0  0  0
  -72.9181  -17.5859   47.6410 C   0  0  0  0  0  0  0  0  0  0  0  0
  -72.2132  -18.3301   46.7007 C   0  0  0  0  0  0  0  0  0  0  0  0
  -72.9499  -16.1847   47.6027 C   0  0  0  0  0  0  0  0  0  0  0  0
  -73.6651  -15.4745   48.5801 C   0  0  0  0  0  0  0  0  0  0  0  0
  -74.3522  -16.1748   49.5695 C   0  0  0  0  0  0  0  0  0  0  0  0
  -73.7391  -13.7416   48.6212 Cl  0  0  0  0  0  0  0  0  0  0  0  0
 20 21  2  0  0  0
 20 23  1  0  0  0
 21 25  1  0  0  0
 21 24  1  0  0  0
 25 26  1  0  0  0
 25 27  2  0  0  0
 10 16  1  0  0  0
 10 14  1  0  0  0
 10 15  1  0  0  0
 29 30  2  0  0  0
 29 35  1  0  0  0
 30 31  1  0  0  0
 31 32  1  0  0  0
 31 33  2  0  0  0
  3  4  1  0  0  0
  3  1  1  0  0  0
  3  9  2  0  0  0
  4  5  2  0  0  0
  5  8  1  0  0  0
  5 13  1  0  0  0
  6  7  1  0  0  0
  6  8  2  0  0  0
  6  9  1  0  0  0
 11 13  1  0  0  0
 11 14  1  0  0  0
 12 13  1  0  0  0
 12 15  1  0  0  0
 16 17  1  0  0  0
 17 18  1  0  0  0
  1 22  1  0  0  0
 22 23  2  0  0  0
 22 24  1  0  0  0
 26 33  1  0  0  0
 33 34  1  0  0  0
 34 35  2  0  0  0
 34 36  1  0  0  0
  1  2  1  0  0  0
 26 28  1  0  0  0
 18 19  1  0  0  0
M  END
> <minimizedAffinity>
-10.13076

$$$$
5I9Y_1N1_A_1001


 36 39  0  0  0  0  0  0  0  0999 V2000
  -67.3205  -13.2163   43.6150 N   0  0  0  0  0  0  0  0  0  0  0  0
  -67.4439  -12.9644   42.6713 H   0  0  0  0  0  0  0  0  0  0  0  0
  -66.0815  -13.1642   44.1363 C   0  0  0  0  0  0  0  0  0  0  0  0
  -64.9720  -13.0017   43.3015 C   0  0  0  0  0  0  0  0  0  0  0  0
  -63.7094  -12.9472   43.8917 C   0  0  0  0  0  0  0  0  0  0  0  0
  -64.6571  -13.2042   45.9989 C   0  0  0  0  0  0  0  0  0  0  0  0
  -64.5130  -13.3113   47.3810 C   0  0  0  0  0  0  0  0  0  0  0  0
  -63.5831  -13.0496   45.2202 N   0  0  0  0  0  0  0  0  0  0  0  0
  -65.8716  -13.2575   45.4539 N   0  0  0  0  0  0  0  0  0  0  0  0
  -59.9964  -11.9796   42.3057 N   0  0  0  0  0  0  0  0  0  0  0  0
  -62.4748  -11.8215   42.0804 C   0  0  0  0  0  0  0  0  0  0  0  0
  -61.3965  -13.5891   43.5604 C   0  0  0  0  0  0  0  0  0  0  0  0
  -62.5798  -12.7849   43.1897 N   0  0  0  0  0  0  0  0  0  0  0  0
  -61.1462  -11.0694   42.1551 C   0  0  0  0  0  0  0  0  0  0  0  0
  -60.1368  -12.7542   43.5466 C   0  0  0  0  0  0  0  0  0  0  0  0
  -58.7633  -11.1788   42.4003 C   0  0  0  0  0  0  0  0  0  0  0  0
  -59.0740   -9.6922   42.6090 C   0  0  0  0  0  0  0  0  0  0  0  0
  -58.8240   -9.3256   43.9713 O   0  0  0  0  0  0  0  0  0  0  0  0
  -59.3905   -9.8518   44.5570 H   0  0  0  0  0  0  0  0  0  0  0  0
  -70.6245  -13.7369   44.8222 C   0  0  0  0  0  0  0  0  0  0  0  0
  -70.1777  -14.4776   45.8539 C   0  0  0  0  0  0  0  0  0  0  0  0
  -68.4048  -13.5989   44.3279 C   0  0  0  0  0  0  0  0  0  0  0  0
  -69.6577  -13.2562   43.9933 N   0  0  0  0  0  0  0  0  0  0  0  0
  -68.4861  -14.5386   45.7436 S   0  0  0  0  0  0  0  0  0  0  0  0
  -70.8869  -15.0971   46.8370 C   0  0  0  0  0  0  0  0  0  0  0  0
  -72.1778  -15.4720   46.5932 N   0  0  0  0  0  0  0  0  0  0  0  0
  -70.3272  -15.3390   47.9044 O   0  0  0  0  0  0  0  0  0  0  0  0
  -72.5896  -15.2770   45.7205 H   0  0  0  0  0  0  0  0  0  0  0  0
  -74.3373  -17.4471   49.5526 C   0  0  0  0  0  0  0  0  0  0  0  0
  -73.6075  -18.1752   48.6211 C   0  0  0  0  0  0  0  0  0  0  0  0
  -72.8836  -17.5196   47.6266 C   0  0  0  0  0  0  0  0  0  0  0  0
  -72.1658  -18.2883   46.7163 C   0  0  0  0  0  0  0  0  0  0  0  0
  -72.9006  -16.1191   47.5611 C   0  0  0  0  0  0  0  0  0  0  0  0
  -73.6298  -15.3835   48.5088 C   0  0  0  0  0  0  0  0  0  0  0  0
  -74.3452  -16.0581   49.4961 C   0  0  0  0  0  0  0  0  0  0  0  0
  -73.6875  -13.6495   48.5154 Cl  0  0  0  0  0  0  0  0  0  0  0  0
 20 21  2  0  0  0
 20 23  1  0  0  0
 21 25  1  0  0  0
 21 24  1  0  0  0
 25 26  1  0  0  0
 25 27  2  0  0  0
 10 16  1  0  0  0
 10 14  1  0  0  0
 10 15  1  0  0  0
 29 30  2  0  0  0
 29 35  1  0  0  0
 30 31  1  0  0  0
 31 32  1  0  0  0
 31 33  2  0  0  0
  3  4  1  0  0  0
  3  1  1  0  0  0
  3  9  2  0  0  0
  4  5  2  0  0  0
  5  8  1  0  0  0
  5 13  1  0  0  0
  6  7  1  0  0  0
  6  8  2  0  0  0
  6  9  1  0  0  0
 11 13  1  0  0  0
 11 14  1  0  0  0
 12 13  1  0  0  0
 12 15  1  0  0  0
 16 17  1  0  0  0
 17 18  1  0  0  0
  1 22  1  0  0  0
 22 23  2  0  0  0
 22 24  1  0  0  0
 26 33  1  0  0  0
 33 34  1  0  0  0
 34 35  2  0  0  0
 34 36  1  0  0  0
  1  2  1  0  0  0
 26 28  1  0  0  0
 18 19  1  0  0  0
M  END
> <minimizedAffinity>
-10.06036

$$$$
5I9Y_1N1_A_1001


 36 39  0  0  0  0  0  0  0  0999 V2000
  -67.2972  -13.2040   43.5996 N   0  0  0  0  0  0  0  0  0  0  0  0
  -67.4177  -12.9849   42.6474 H   0  0  0  0  0  0  0  0  0  0  0  0
  -66.0640  -13.1095   44.1287 C   0  0  0  0  0  0  0  0  0  0  0  0
  -64.9768  -12.7582   43.3234 C   0  0  0  0  0  0  0  0  0  0  0  0
  -63.7199  -12.6674   43.9212 C   0  0  0  0  0  0  0  0  0  0  0  0
  -64.6309  -13.2473   45.9799 C   0  0  0  0  0  0  0  0  0  0  0  0
  -64.4706  -13.5026   47.3407 C   0  0  0  0  0  0  0  0  0  0  0  0
  -63.5780  -12.9132   45.2292 N   0  0  0  0  0  0  0  0  0  0  0  0
  -65.8397  -13.3381   45.4272 N   0  0  0  0  0  0  0  0  0  0  0  0
  -60.7525  -11.1178   41.4653 N   0  0  0  0  0  0  0  0  0  0  0  0
  -62.1316  -13.1000   42.0875 C   0  0  0  0  0  0  0  0  0  0  0  0
  -61.8621  -11.1311   43.6775 C   0  0  0  0  0  0  0  0  0  0  0  0
  -62.6117  -12.3301   43.2478 N   0  0  0  0  0  0  0  0  0  0  0  0
  -61.6780  -12.1551   40.9749 C   0  0  0  0  0  0  0  0  0  0  0  0
  -61.4185  -10.3048   42.4923 C   0  0  0  0  0  0  0  0  0  0  0  0
  -60.3885  -10.2344   40.3438 C   0  0  0  0  0  0  0  0  0  0  0  0
  -61.1545   -8.9078   40.4027 C   0  0  0  0  0  0  0  0  0  0  0  0
  -61.8271   -8.6744   39.1593 O   0  0  0  0  0  0  0  0  0  0  0  0
  -61.1752   -8.6310   38.4423 H   0  0  0  0  0  0  0  0  0  0  0  0
  -70.6002  -13.7588   44.7944 C   0  0  0  0  0  0  0  0  0  0  0  0
  -70.1466  -14.4514   45.8561 C   0  0  0  0  0  0  0  0  0  0  0  0
  -68.3794  -13.5863   44.3158 C   0  0  0  0  0  0  0  0  0  0  0  0
  -69.6366  -13.2854   43.9576 N   0  0  0  0  0  0  0  0  0  0  0  0
  -68.4530  -14.4765   45.7636 S   0  0  0  0  0  0  0  0  0  0  0  0
  -70.8511  -15.0519   46.8544 C   0  0  0  0  0  0  0  0  0  0  0  0
  -72.1626  -15.3726   46.6457 N   0  0  0  0  0  0  0  0  0  0  0  0
  -70.2705  -15.3266   47.9025 O   0  0  0  0  0  0  0  0  0  0  0  0
  -72.5916  -15.1525   45.7873 H   0  0  0  0  0  0  0  0  0  0  0  0
  -74.3834  -17.2693   49.6109 C   0  0  0  0  0  0  0  0  0  0  0  0
  -74.3978  -15.8836   49.5103 C   0  0  0  0  0  0  0  0  0  0  0  0
  -73.6548  -15.2425   48.5204 C   0  0  0  0  0  0  0  0  0  0  0  0
  -73.7002  -13.8538   48.4556 C   0  0  0  0  0  0  0  0  0  0  0  0
  -72.8821  -15.9999   47.6288 C   0  0  0  0  0  0  0  0  0  0  0  0
  -72.8762  -17.4007   47.7243 C   0  0  0  0  0  0  0  0  0  0  0  0
  -73.6273  -18.0222   48.7198 C   0  0  0  0  0  0  0  0  0  0  0  0
  -71.9675  -18.4152   46.6494 Cl  0  0  0  0  0  0  0  0  0  0  0  0
 20 21  2  0  0  0
 20 23  1  0  0  0
 21 25  1  0  0  0
 21 24  1  0  0  0
 25 26  1  0  0  0
 25 27  2  0  0  0
 10 16  1  0  0  0
 10 14  1  0  0  0
 10 15  1  0  0  0
 29 30  2  0  0  0
 29 35  1  0  0  0
 30 31  1  0  0  0
 31 32  1  0  0  0
 31 33  2  0  0  0
  3  4  1  0  0  0
  3  1  1  0  0  0
  3  9  2  0  0  0
  4  5  2  0  0  0
  5  8  1  0  0  0
  5 13  1  0  0  0
  6  7  1  0  0  0
  6  8  2  0  0  0
  6  9  1  0  0  0
 11 13  1  0  0  0
 11 14  1  0  0  0
 12 13  1  0  0  0
 12 15  1  0  0  0
 16 17  1  0  0  0
 17 18  1  0  0  0
  1 22  1  0  0  0
 22 23  2  0  0  0
 22 24  1  0  0  0
 26 33  1  0  0  0
 33 34  1  0  0  0
 34 35  2  0  0  0
 34 36  1  0  0  0
  1  2  1  0  0  0
 26 28  1  0  0  0
 18 19  1  0  0  0
M  END
> <minimizedAffinity>
-10.05316

$$$$
5I9Y_1N1_A_1001


 36 39  0  0  0  0  0  0  0  0999 V2000
  -67.2771  -13.1373   43.6145 N   0  0  0  0  0  0  0  0  0  0  0  0
  -67.4095  -12.8380   42.6860 H   0  0  0  0  0  0  0  0  0  0  0  0
  -66.0290  -13.1382   44.1165 C   0  0  0  0  0  0  0  0  0  0  0  0
  -65.8257  -13.1149   45.4994 C   0  0  0  0  0  0  0  0  0  0  0  0
  -64.5126  -13.1235   45.9696 C   0  0  0  0  0  0  0  0  0  0  0  0
  -63.7071  -13.1753   43.7895 C   0  0  0  0  0  0  0  0  0  0  0  0
  -62.6338  -13.2044   42.9009 C   0  0  0  0  0  0  0  0  0  0  0  0
  -63.4896  -13.1532   45.1071 N   0  0  0  0  0  0  0  0  0  0  0  0
  -64.9543  -13.1686   43.3211 N   0  0  0  0  0  0  0  0  0  0  0  0
  -63.8504  -12.3697   49.9984 N   0  0  0  0  0  0  0  0  0  0  0  0
  -62.8469  -12.7948   47.7555 C   0  0  0  0  0  0  0  0  0  0  0  0
  -65.2655  -13.4102   48.2548 C   0  0  0  0  0  0  0  0  0  0  0  0
  -64.2018  -13.1125   47.2729 N   0  0  0  0  0  0  0  0  0  0  0  0
  -62.9199  -11.8697   48.9702 C   0  0  0  0  0  0  0  0  0  0  0  0
  -65.2042  -12.4687   49.4356 C   0  0  0  0  0  0  0  0  0  0  0  0
  -63.8860  -11.4107   51.1164 C   0  0  0  0  0  0  0  0  0  0  0  0
  -65.1836  -11.5367   51.9228 C   0  0  0  0  0  0  0  0  0  0  0  0
  -65.1357  -10.6752   53.0667 O   0  0  0  0  0  0  0  0  0  0  0  0
  -64.3878  -10.9276   53.6304 H   0  0  0  0  0  0  0  0  0  0  0  0
  -70.5793  -13.7162   44.7998 C   0  0  0  0  0  0  0  0  0  0  0  0
  -70.1239  -14.4100   45.8600 C   0  0  0  0  0  0  0  0  0  0  0  0
  -68.3585  -13.5287   44.3269 C   0  0  0  0  0  0  0  0  0  0  0  0
  -69.6167  -13.2340   43.9670 N   0  0  0  0  0  0  0  0  0  0  0  0
  -68.4300  -14.4247   45.7712 S   0  0  0  0  0  0  0  0  0  0  0  0
  -70.8270  -15.0185   46.8545 C   0  0  0  0  0  0  0  0  0  0  0  0
  -72.1312  -15.3614   46.6358 N   0  0  0  0  0  0  0  0  0  0  0  0
  -70.2509  -15.2798   47.9086 O   0  0  0  0  0  0  0  0  0  0  0  0
  -72.5564  -15.1516   45.7730 H   0  0  0  0  0  0  0  0  0  0  0  0
  -74.3459  -17.2835   49.5892 C   0  0  0  0  0  0  0  0  0  0  0  0
  -74.3768  -15.8982   49.4876 C   0  0  0  0  0  0  0  0  0  0  0  0
  -73.6360  -15.2486   48.5016 C   0  0  0  0  0  0  0  0  0  0  0  0
  -73.6981  -13.8605   48.4354 C   0  0  0  0  0  0  0  0  0  0  0  0
  -72.8487  -15.9970   47.6151 C   0  0  0  0  0  0  0  0  0  0  0  0
  -72.8260  -17.3975   47.7116 C   0  0  0  0  0  0  0  0  0  0  0  0
  -73.5753  -18.0276   48.7031 C   0  0  0  0  0  0  0  0  0  0  0  0
  -71.8985  -18.4014   46.6429 Cl  0  0  0  0  0  0  0  0  0  0  0  0
 20 21  2  0  0  0
 20 23  1  0  0  0
 21 25  1  0  0  0
 21 24  1  0  0  0
 25 26  1  0  0  0
 25 27  2  0  0  0
 10 16  1  0  0  0
 10 14  1  0  0  0
 10 15  1  0  0  0
 29 30  2  0  0  0
 29 35  1  0  0  0
 30 31  1  0  0  0
 31 32  1  0  0  0
 31 33  2  0  0  0
  3  4  1  0  0  0
  3  1  1  0  0  0
  3  9  2  0  0  0
  4  5  2  0  0  0
  5  8  1  0  0  0
  5 13  1  0  0  0
  6  7  1  0  0  0
  6  8  2  0  0  0
  6  9  1  0  0  0
 11 13  1  0  0  0
 11 14  1  0  0  0
 12 13  1  0  0  0
 12 15  1  0  0  0
 16 17  1  0  0  0
 17 18  1  0  0  0
  1 22  1  0  0  0
 22 23  2  0  0  0
 22 24  1  0  0  0
 26 33  1  0  0  0
 33 34  1  0  0  0
 34 35  2  0  0  0
 34 36  1  0  0  0
  1  2  1  0  0  0
 26 28  1  0  0  0
 18 19  1  0  0  0
M  END
> <minimizedAffinity>
-9.99283

$$$$
5I9Y_1N1_A_1001


 36 39  0  0  0  0  0  0  0  0999 V2000
  -67.3477  -12.8517   43.7382 N   0  0  0  0  0  0  0  0  0  0  0  0
  -67.5026  -12.3726   42.8922 H   0  0  0  0  0  0  0  0  0  0  0  0
  -66.0861  -12.9612   44.1919 C   0  0  0  0  0  0  0  0  0  0  0  0
  -65.0075  -12.8437   43.3104 C   0  0  0  0  0  0  0  0  0  0  0  0
  -63.7189  -12.9584   43.8316 C   0  0  0  0  0  0  0  0  0  0  0  0
  -64.5848  -13.2836   45.9644 C   0  0  0  0  0  0  0  0  0  0  0  0
  -64.3857  -13.5105   47.3251 C   0  0  0  0  0  0  0  0  0  0  0  0
  -63.5395  -13.1748   45.1402 N   0  0  0  0  0  0  0  0  0  0  0  0
  -65.8233  -13.1758   45.4856 N   0  0  0  0  0  0  0  0  0  0  0  0
  -60.7349  -12.9479   40.9448 N   0  0  0  0  0  0  0  0  0  0  0  0
  -61.5353  -13.8556   43.1251 C   0  0  0  0  0  0  0  0  0  0  0  0
  -62.4894  -11.7002   42.1653 C   0  0  0  0  0  0  0  0  0  0  0  0
  -62.6138  -12.8534   43.0812 N   0  0  0  0  0  0  0  0  0  0  0  0
  -61.0440  -14.1682   41.7118 C   0  0  0  0  0  0  0  0  0  0  0  0
  -61.9434  -12.1213   40.8204 C   0  0  0  0  0  0  0  0  0  0  0  0
  -60.2995  -13.3329   39.5909 C   0  0  0  0  0  0  0  0  0  0  0  0
  -60.9521  -14.6460   39.1436 C   0  0  0  0  0  0  0  0  0  0  0  0
  -62.0689  -14.3723   38.2888 O   0  0  0  0  0  0  0  0  0  0  0  0
  -62.7230  -13.8428   38.7710 H   0  0  0  0  0  0  0  0  0  0  0  0
  -70.6066  -13.9103   44.6891 C   0  0  0  0  0  0  0  0  0  0  0  0
  -70.1496  -14.4227   45.8473 C   0  0  0  0  0  0  0  0  0  0  0  0
  -68.4135  -13.3697   44.3909 C   0  0  0  0  0  0  0  0  0  0  0  0
  -69.6605  -13.3342   43.8979 N   0  0  0  0  0  0  0  0  0  0  0  0
  -68.4775  -14.1428   45.9049 S   0  0  0  0  0  0  0  0  0  0  0  0
  -70.8361  -15.0631   46.8332 C   0  0  0  0  0  0  0  0  0  0  0  0
  -72.1609  -15.3422   46.6506 N   0  0  0  0  0  0  0  0  0  0  0  0
  -70.2291  -15.4095   47.8445 O   0  0  0  0  0  0  0  0  0  0  0  0
  -72.6117  -15.0644   45.8206 H   0  0  0  0  0  0  0  0  0  0  0  0
  -74.3308  -17.3565   49.5757 C   0  0  0  0  0  0  0  0  0  0  0  0
  -74.3781  -15.9696   49.5061 C   0  0  0  0  0  0  0  0  0  0  0  0
  -73.6523  -15.2892   48.5297 C   0  0  0  0  0  0  0  0  0  0  0  0
  -73.7307  -13.9009   48.4958 C   0  0  0  0  0  0  0  0  0  0  0  0
  -72.8636  -16.0082   47.6204 C   0  0  0  0  0  0  0  0  0  0  0  0
  -72.8243  -17.4102   47.6847 C   0  0  0  0  0  0  0  0  0  0  0  0
  -73.5587  -18.0712   48.6671 C   0  0  0  0  0  0  0  0  0  0  0  0
  -71.8939  -18.3787   46.5863 Cl  0  0  0  0  0  0  0  0  0  0  0  0
 20 21  2  0  0  0
 20 23  1  0  0  0
 21 25  1  0  0  0
 21 24  1  0  0  0
 25 26  1  0  0  0
 25 27  2  0  0  0
 10 16  1  0  0  0
 10 14  1  0  0  0
 10 15  1  0  0  0
 29 30  2  0  0  0
 29 35  1  0  0  0
 30 31  1  0  0  0
 31 32  1  0  0  0
 31 33  2  0  0  0
  3  4  1  0  0  0
  3  1  1  0  0  0
  3  9  2  0  0  0
  4  5  2  0  0  0
  5  8  1  0  0  0
  5 13  1  0  0  0
  6  7  1  0  0  0
  6  8  2  0  0  0
  6  9  1  0  0  0
 11 13  1  0  0  0
 11 14  1  0  0  0
 12 13  1  0  0  0
 12 15  1  0  0  0
 16 17  1  0  0  0
 17 18  1  0  0  0
  1 22  1  0  0  0
 22 23  2  0  0  0
 22 24  1  0  0  0
 26 33  1  0  0  0
 33 34  1  0  0  0
 34 35  2  0  0  0
 34 36  1  0  0  0
  1  2  1  0  0  0
 26 28  1  0  0  0
 18 19  1  0  0  0
M  END
> <minimizedAffinity>
-9.74996

$$$$
5I9Y_1N1_A_1001


 36 39  0  0  0  0  0  0  0  0999 V2000
  -67.0182  -13.2204   43.9092 N   0  0  0  0  0  0  0  0  0  0  0  0
  -67.0461  -13.1023   42.9322 H   0  0  0  0  0  0  0  0  0  0  0  0
  -65.8599  -12.9845   44.5513 C   0  0  0  0  0  0  0  0  0  0  0  0
  -64.6443  -13.0716   43.8667 C   0  0  0  0  0  0  0  0  0  0  0  0
  -63.4718  -12.8114   44.5759 C   0  0  0  0  0  0  0  0  0  0  0  0
  -64.7012  -12.4116   46.5080 C   0  0  0  0  0  0  0  0  0  0  0  0
  -64.7476  -12.0768   47.8602 C   0  0  0  0  0  0  0  0  0  0  0  0
  -63.5284  -12.4893   45.8738 N   0  0  0  0  0  0  0  0  0  0  0  0
  -65.8321  -12.6556   45.8474 N   0  0  0  0  0  0  0  0  0  0  0  0
  -59.7124  -13.7038   43.0565 N   0  0  0  0  0  0  0  0  0  0  0  0
  -61.0421  -12.4361   44.7426 C   0  0  0  0  0  0  0  0  0  0  0  0
  -62.1282  -13.3669   42.6375 C   0  0  0  0  0  0  0  0  0  0  0  0
  -62.2540  -12.8568   44.0189 N   0  0  0  0  0  0  0  0  0  0  0  0
  -59.9041  -13.4252   44.4913 C   0  0  0  0  0  0  0  0  0  0  0  0
  -60.9388  -14.2889   42.4971 C   0  0  0  0  0  0  0  0  0  0  0  0
  -58.6233  -14.6841   42.9023 C   0  0  0  0  0  0  0  0  0  0  0  0
  -58.4290  -15.5125   44.1774 C   0  0  0  0  0  0  0  0  0  0  0  0
  -58.8287  -16.8689   43.9466 O   0  0  0  0  0  0  0  0  0  0  0  0
  -59.7652  -16.8917   43.6949 H   0  0  0  0  0  0  0  0  0  0  0  0
  -70.3943  -13.8423   44.8366 C   0  0  0  0  0  0  0  0  0  0  0  0
  -70.0142  -14.4797   45.9599 C   0  0  0  0  0  0  0  0  0  0  0  0
  -68.1466  -13.6125   44.5443 C   0  0  0  0  0  0  0  0  0  0  0  0
  -69.3763  -13.3676   44.0677 N   0  0  0  0  0  0  0  0  0  0  0  0
  -68.3190  -14.4509   46.0144 S   0  0  0  0  0  0  0  0  0  0  0  0
  -70.7844  -15.0666   46.9169 C   0  0  0  0  0  0  0  0  0  0  0  0
  -72.0306  -15.5181   46.5859 N   0  0  0  0  0  0  0  0  0  0  0  0
  -70.3155  -15.2109   48.0440 O   0  0  0  0  0  0  0  0  0  0  0  0
  -72.3682  -15.4006   45.6686 H   0  0  0  0  0  0  0  0  0  0  0  0
  -74.3685  -17.3994   49.4699 C   0  0  0  0  0  0  0  0  0  0  0  0
  -73.6132  -18.1576   48.5838 C   0  0  0  0  0  0  0  0  0  0  0  0
  -72.8296  -17.5335   47.6147 C   0  0  0  0  0  0  0  0  0  0  0  0
  -72.0882  -18.3317   46.7498 C   0  0  0  0  0  0  0  0  0  0  0  0
  -72.8117  -16.1341   47.5284 C   0  0  0  0  0  0  0  0  0  0  0  0
  -73.5669  -15.3681   48.4306 C   0  0  0  0  0  0  0  0  0  0  0  0
  -74.3422  -16.0116   49.3932 C   0  0  0  0  0  0  0  0  0  0  0  0
  -73.5854  -13.6334   48.4096 Cl  0  0  0  0  0  0  0  0  0  0  0  0
 20 21  2  0  0  0
 20 23  1  0  0  0
 21 25  1  0  0  0
 21 24  1  0  0  0
 25 26  1  0  0  0
 25 27  2  0  0  0
 10 16  1  0  0  0
 10 14  1  0  0  0
 10 15  1  0  0  0
 29 30  2  0  0  0
 29 35  1  0  0  0
 30 31  1  0  0  0
 31 32  1  0  0  0
 31 33  2  0  0  0
  3  4  1  0  0  0
  3  1  1  0  0  0
  3  9  2  0  0  0
  4  5  2  0  0  0
  5  8  1  0  0  0
  5 13  1  0  0  0
  6  7  1  0  0  0
  6  8  2  0  0  0
  6  9  1  0  0  0
 11 13  1  0  0  0
 11 14  1  0  0  0
 12 13  1  0  0  0
 12 15  1  0  0  0
 16 17  1  0  0  0
 17 18  1  0  0  0
  1 22  1  0  0  0
 22 23  2  0  0  0
 22 24  1  0  0  0
 26 33  1  0  0  0
 33 34  1  0  0  0
 34 35  2  0  0  0
 34 36  1  0  0  0
  1  2  1  0  0  0
 26 28  1  0  0  0
 18 19  1  0  0  0
M  END
> <minimizedAffinity>
-9.74687

$$$$
5I9Y_1N1_A_1001


 36 39  0  0  0  0  0  0  0  0999 V2000
  -67.0422  -10.9563   50.6711 N   0  0  0  0  0  0  0  0  0  0  0  0
  -67.2056   -9.9863   50.7109 H   0  0  0  0  0  0  0  0  0  0  0  0
  -65.8005  -11.3867   50.3838 C   0  0  0  0  0  0  0  0  0  0  0  0
  -65.5188  -11.9404   49.1315 C   0  0  0  0  0  0  0  0  0  0  0  0
  -64.2143  -12.3657   48.8808 C   0  0  0  0  0  0  0  0  0  0  0  0
  -63.5644  -11.7073   51.0135 C   0  0  0  0  0  0  0  0  0  0  0  0
  -62.5761  -11.5826   51.9883 C   0  0  0  0  0  0  0  0  0  0  0  0
  -63.2729  -12.2396   49.8238 N   0  0  0  0  0  0  0  0  0  0  0  0
  -64.8045  -11.2943   51.2715 N   0  0  0  0  0  0  0  0  0  0  0  0
  -63.1723  -13.3177   44.9762 N   0  0  0  0  0  0  0  0  0  0  0  0
  -64.7455  -13.6936   46.8741 C   0  0  0  0  0  0  0  0  0  0  0  0
  -62.4466  -12.6690   47.2516 C   0  0  0  0  0  0  0  0  0  0  0  0
  -63.8307  -12.9018   47.7143 N   0  0  0  0  0  0  0  0  0  0  0  0
  -64.5829  -13.3079   45.4039 C   0  0  0  0  0  0  0  0  0  0  0  0
  -62.4056  -12.3512   45.7746 C   0  0  0  0  0  0  0  0  0  0  0  0
  -63.0994  -12.9075   43.5630 C   0  0  0  0  0  0  0  0  0  0  0  0
  -64.4668  -13.0101   42.8775 C   0  0  0  0  0  0  0  0  0  0  0  0
  -64.6181  -11.9511   41.9244 O   0  0  0  0  0  0  0  0  0  0  0  0
  -64.5558  -11.0961   42.3784 H   0  0  0  0  0  0  0  0  0  0  0  0
  -69.7617  -12.7249   52.1276 C   0  0  0  0  0  0  0  0  0  0  0  0
  -69.9389  -13.4583   51.0125 C   0  0  0  0  0  0  0  0  0  0  0  0
  -68.0769  -11.7952   50.9079 C   0  0  0  0  0  0  0  0  0  0  0  0
  -68.7453  -11.8214   52.0707 N   0  0  0  0  0  0  0  0  0  0  0  0
  -68.7662  -12.9696   49.8884 S   0  0  0  0  0  0  0  0  0  0  0  0
  -70.8641  -14.4239   50.7575 C   0  0  0  0  0  0  0  0  0  0  0  0
  -71.4304  -14.4939   49.5162 N   0  0  0  0  0  0  0  0  0  0  0  0
  -71.1312  -15.2329   51.6437 O   0  0  0  0  0  0  0  0  0  0  0  0
  -71.1808  -13.8392   48.8246 H   0  0  0  0  0  0  0  0  0  0  0  0
  -74.1928  -17.4935   48.6832 C   0  0  0  0  0  0  0  0  0  0  0  0
  -72.8586  -17.6598   48.3326 C   0  0  0  0  0  0  0  0  0  0  0  0
  -71.9290  -16.6582   48.6075 C   0  0  0  0  0  0  0  0  0  0  0  0
  -70.6038  -16.8680   48.2406 C   0  0  0  0  0  0  0  0  0  0  0  0
  -72.3452  -15.4738   49.2318 C   0  0  0  0  0  0  0  0  0  0  0  0
  -73.6915  -15.3106   49.5952 C   0  0  0  0  0  0  0  0  0  0  0  0
  -74.6045  -16.3247   49.3132 C   0  0  0  0  0  0  0  0  0  0  0  0
  -74.2878  -13.8886   50.3905 Cl  0  0  0  0  0  0  0  0  0  0  0  0
 20 21  2  0  0  0
 20 23  1  0  0  0
 21 25  1  0  0  0
 21 24  1  0  0  0
 25 26  1  0  0  0
 25 27  2  0  0  0
 10 16  1  0  0  0
 10 14  1  0  0  0
 10 15  1  0  0  0
 29 30  2  0  0  0
 29 35  1  0  0  0
 30 31  1  0  0  0
 31 32  1  0  0  0
 31 33  2  0  0  0
  3  4  1  0  0  0
  3  1  1  0  0  0
  3  9  2  0  0  0
  4  5  2  0  0  0
  5  8  1  0  0  0
  5 13  1  0  0  0
  6  7  1  0  0  0
  6  8  2  0  0  0
  6  9  1  0  0  0
 11 13  1  0  0  0
 11 14  1  0  0  0
 12 13  1  0  0  0
 12 15  1  0  0  0
 16 17  1  0  0  0
 17 18  1  0  0  0
  1 22  1  0  0  0
 22 23  2  0  0  0
 22 24  1  0  0  0
 26 33  1  0  0  0
 33 34  1  0  0  0
 34 35  2  0  0  0
 34 36  1  0  0  0
  1  2  1  0  0  0
 26 28  1  0  0  0
 18 19  1  0  0  0
M  END
> <minimizedAffinity>
-8.72930

$$$$
5I9Y_1N1_A_1001


 36 39  0  0  0  0  0  0  0  0999 V2000
  -65.9296  -12.8802   48.4093 N   0  0  0  0  0  0  0  0  0  0  0  0
  -65.2569  -12.6206   49.0795 H   0  0  0  0  0  0  0  0  0  0  0  0
  -65.5919  -12.8297   47.1081 C   0  0  0  0  0  0  0  0  0  0  0  0
  -64.2986  -12.4573   46.7298 C   0  0  0  0  0  0  0  0  0  0  0  0
  -63.9966  -12.4266   45.3685 C   0  0  0  0  0  0  0  0  0  0  0  0
  -66.1600  -13.1006   44.8491 C   0  0  0  0  0  0  0  0  0  0  0  0
  -67.1249  -13.4310   43.8991 C   0  0  0  0  0  0  0  0  0  0  0  0
  -64.9306  -12.7474   44.4650 N   0  0  0  0  0  0  0  0  0  0  0  0
  -66.4674  -13.1368   46.1449 N   0  0  0  0  0  0  0  0  0  0  0  0
  -60.4715  -10.6648   44.0620 N   0  0  0  0  0  0  0  0  0  0  0  0
  -62.5237  -11.9437   43.4529 C   0  0  0  0  0  0  0  0  0  0  0  0
  -61.6943  -11.8507   45.8573 C   0  0  0  0  0  0  0  0  0  0  0  0
  -62.7885  -12.0938   44.8941 N   0  0  0  0  0  0  0  0  0  0  0  0
  -61.6650  -10.7052   43.1978 C   0  0  0  0  0  0  0  0  0  0  0  0
  -60.8819  -10.6357   45.4727 C   0  0  0  0  0  0  0  0  0  0  0  0
  -59.7174   -9.4315   43.7768 C   0  0  0  0  0  0  0  0  0  0  0  0
  -60.2969   -8.2314   44.5345 C   0  0  0  0  0  0  0  0  0  0  0  0
  -60.8521   -7.2889   43.6091 O   0  0  0  0  0  0  0  0  0  0  0  0
  -60.1569   -6.9774   43.0086 H   0  0  0  0  0  0  0  0  0  0  0  0
  -69.1560  -13.0379   49.8961 C   0  0  0  0  0  0  0  0  0  0  0  0
  -69.3405  -14.3002   49.4659 C   0  0  0  0  0  0  0  0  0  0  0  0
  -67.1513  -13.2715   48.8391 C   0  0  0  0  0  0  0  0  0  0  0  0
  -67.9619  -12.4795   49.5568 N   0  0  0  0  0  0  0  0  0  0  0  0
  -67.9434  -14.7611   48.6213 S   0  0  0  0  0  0  0  0  0  0  0  0
  -70.4178  -15.1157   49.6329 C   0  0  0  0  0  0  0  0  0  0  0  0
  -71.3050  -15.2677   48.6051 N   0  0  0  0  0  0  0  0  0  0  0  0
  -70.5364  -15.7258   50.6935 O   0  0  0  0  0  0  0  0  0  0  0  0
  -71.1702  -14.7760   47.7629 H   0  0  0  0  0  0  0  0  0  0  0  0
  -74.5540  -17.8299   49.0529 C   0  0  0  0  0  0  0  0  0  0  0  0
  -73.4658  -18.2153   48.2797 C   0  0  0  0  0  0  0  0  0  0  0  0
  -72.3754  -17.3609   48.1246 C   0  0  0  0  0  0  0  0  0  0  0  0
  -71.3070  -17.7885   47.3433 C   0  0  0  0  0  0  0  0  0  0  0  0
  -72.3822  -16.1032   48.7442 C   0  0  0  0  0  0  0  0  0  0  0  0
  -73.4775  -15.7185   49.5339 C   0  0  0  0  0  0  0  0  0  0  0  0
  -74.5567  -16.5881   49.6777 C   0  0  0  0  0  0  0  0  0  0  0  0
  -73.5588  -14.1917   50.3538 Cl  0  0  0  0  0  0  0  0  0  0  0  0
 20 21  2  0  0  0
 20 23  1  0  0  0
 21 25  1  0  0  0
 21 24  1  0  0  0
 25 26  1  0  0  0
 25 27  2  0  0  0
 10 16  1  0  0  0
 10 14  1  0  0  0
 10 15  1  0  0  0
 29 30  2  0  0  0
 29 35  1  0  0  0
 30 31  1  0  0  0
 31 32  1  0  0  0
 31 33  2  0  0  0
  3  4  1  0  0  0
  3  1  1  0  0  0
  3  9  2  0  0  0
  4  5  2  0  0  0
  5  8  1  0  0  0
  5 13  1  0  0  0
  6  7  1  0  0  0
  6  8  2  0  0  0
  6  9  1  0  0  0
 11 13  1  0  0  0
 11 14  1  0  0  0
 12 13  1  0  0  0
 12 15  1  0  0  0
 16 17  1  0  0  0
 17 18  1  0  0  0
  1 22  1  0  0  0
 22 23  2  0  0  0
 22 24  1  0  0  0
 26 33  1  0  0  0
 33 34  1  0  0  0
 34 35  2  0  0  0
 34 36  1  0  0  0
  1  2  1  0  0  0
 26 28  1  0  0  0
 18 19  1  0  0  0
M  END
> <minimizedAffinity>
-8.38558

$$$$
5I9Y_1N1_A_1001


 36 39  0  0  0  0  0  0  0  0999 V2000
  -64.5418  -14.2161   47.1461 N   0  0  0  0  0  0  0  0  0  0  0  0
  -64.1668  -15.0889   47.4045 H   0  0  0  0  0  0  0  0  0  0  0  0
  -65.6397  -13.7746   47.7860 C   0  0  0  0  0  0  0  0  0  0  0  0
  -66.8937  -14.3170   47.4902 C   0  0  0  0  0  0  0  0  0  0  0  0
  -67.9999  -13.8297   48.1860 C   0  0  0  0  0  0  0  0  0  0  0  0
  -66.6383  -12.3664   49.3732 C   0  0  0  0  0  0  0  0  0  0  0  0
  -66.4908  -11.3663   50.3327 C   0  0  0  0  0  0  0  0  0  0  0  0
  -67.8462  -12.8702   49.1065 N   0  0  0  0  0  0  0  0  0  0  0  0
  -65.5695  -12.8198   48.7198 N   0  0  0  0  0  0  0  0  0  0  0  0
  -71.5724  -15.9147   47.8287 N   0  0  0  0  0  0  0  0  0  0  0  0
  -69.7301  -14.7030   46.6642 C   0  0  0  0  0  0  0  0  0  0  0  0
  -70.1520  -14.3808   49.1533 C   0  0  0  0  0  0  0  0  0  0  0  0
  -69.2455  -14.2828   47.9902 N   0  0  0  0  0  0  0  0  0  0  0  0
  -70.5394  -15.9946   46.7801 C   0  0  0  0  0  0  0  0  0  0  0  0
  -70.9382  -15.6714   49.1317 C   0  0  0  0  0  0  0  0  0  0  0  0
  -72.2838  -17.2032   47.8967 C   0  0  0  0  0  0  0  0  0  0  0  0
  -71.9389  -18.0985   46.7010 C   0  0  0  0  0  0  0  0  0  0  0  0
  -73.0370  -18.9713   46.4092 O   0  0  0  0  0  0  0  0  0  0  0  0
  -73.2192  -19.5307   47.1804 H   0  0  0  0  0  0  0  0  0  0  0  0
  -63.6864  -12.6477   44.0715 C   0  0  0  0  0  0  0  0  0  0  0  0
  -62.5497  -12.1483   44.5922 C   0  0  0  0  0  0  0  0  0  0  0  0
  -63.9294  -13.5158   46.1638 C   0  0  0  0  0  0  0  0  0  0  0  0
  -64.4358  -13.3950   44.9275 N   0  0  0  0  0  0  0  0  0  0  0  0
  -62.4569  -12.6651   46.2052 S   0  0  0  0  0  0  0  0  0  0  0  0
  -61.6057  -11.3652   44.0012 C   0  0  0  0  0  0  0  0  0  0  0  0
  -61.9996  -10.3823   43.1380 N   0  0  0  0  0  0  0  0  0  0  0  0
  -60.4254  -11.5403   44.2969 O   0  0  0  0  0  0  0  0  0  0  0  0
  -62.9554  -10.2593   42.9365 H   0  0  0  0  0  0  0  0  0  0  0  0
  -59.1964   -7.8907   41.3336 C   0  0  0  0  0  0  0  0  0  0  0  0
  -59.6952   -8.9897   40.6452 C   0  0  0  0  0  0  0  0  0  0  0  0
  -60.6330   -9.8288   41.2448 C   0  0  0  0  0  0  0  0  0  0  0  0
  -61.1066  -10.9162   40.5181 C   0  0  0  0  0  0  0  0  0  0  0  0
  -61.0668   -9.5671   42.5521 C   0  0  0  0  0  0  0  0  0  0  0  0
  -60.5702   -8.4506   43.2434 C   0  0  0  0  0  0  0  0  0  0  0  0
  -59.6348   -7.6232   42.6254 C   0  0  0  0  0  0  0  0  0  0  0  0
  -61.0689   -8.0401   44.8536 Cl  0  0  0  0  0  0  0  0  0  0  0  0
 20 21  2  0  0  0
 20 23  1  0  0  0
 21 25  1  0  0  0
 21 24  1  0  0  0
 25 26  1  0  0  0
 25 27  2  0  0  0
 10 16  1  0  0  0
 10 14  1  0  0  0
 10 15  1  0  0  0
 29 30  2  0  0  0
 29 35  1  0  0  0
 30 31  1  0  0  0
 31 32  1  0  0  0
 31 33  2  0  0  0
  3  4  1  0  0  0
  3  1  1  0  0  0
  3  9  2  0  0  0
  4  5  2  0  0  0
  5  8  1  0  0  0
  5 13  1  0  0  0
  6  7  1  0  0  0
  6  8  2  0  0  0
  6  9  1  0  0  0
 11 13  1  0  0  0
 11 14  1  0  0  0
 12 13  1  0  0  0
 12 15  1  0  0  0
 16 17  1  0  0  0
 17 18  1  0  0  0
  1 22  1  0  0  0
 22 23  2  0  0  0
 22 24  1  0  0  0
 26 33  1  0  0  0
 33 34  1  0  0  0
 34 35  2  0  0  0
 34 36  1  0  0  0
  1  2  1  0  0  0
 26 28  1  0  0  0
 18 19  1  0  0  0
M  END
> <minimizedAffinity>
-8.31777

$$$$
5I9Y_1N1_A_1001


 36 39  0  0  0  0  0  0  0  0999 V2000
  -64.5852  -14.3610   47.0639 N   0  0  0  0  0  0  0  0  0  0  0  0
  -64.1040  -15.2193   47.0330 H   0  0  0  0  0  0  0  0  0  0  0  0
  -63.8722  -13.2307   47.2179 C   0  0  0  0  0  0  0  0  0  0  0  0
  -63.4010  -12.5369   46.0996 C   0  0  0  0  0  0  0  0  0  0  0  0
  -62.6722  -11.3669   46.3126 C   0  0  0  0  0  0  0  0  0  0  0  0
  -62.9005  -11.6152   48.6127 C   0  0  0  0  0  0  0  0  0  0  0  0
  -62.6514  -11.1580   49.9056 C   0  0  0  0  0  0  0  0  0  0  0  0
  -62.4404  -10.9363   47.5585 N   0  0  0  0  0  0  0  0  0  0  0  0
  -63.5995  -12.7344   48.4296 N   0  0  0  0  0  0  0  0  0  0  0  0
  -60.5108   -9.4840   43.3091 N   0  0  0  0  0  0  0  0  0  0  0  0
  -61.5937   -9.2878   45.5468 C   0  0  0  0  0  0  0  0  0  0  0  0
  -62.2161  -11.1623   43.9417 C   0  0  0  0  0  0  0  0  0  0  0  0
  -62.1814  -10.6185   45.3154 N   0  0  0  0  0  0  0  0  0  0  0  0
  -60.3156   -9.1225   44.7248 C   0  0  0  0  0  0  0  0  0  0  0  0
  -60.9221  -10.8911   43.2092 C   0  0  0  0  0  0  0  0  0  0  0  0
  -59.2311   -9.3271   42.5959 C   0  0  0  0  0  0  0  0  0  0  0  0
  -58.2450  -10.4428   42.9602 C   0  0  0  0  0  0  0  0  0  0  0  0
  -56.9826   -9.8784   43.3353 O   0  0  0  0  0  0  0  0  0  0  0  0
  -56.6227   -9.3690   42.5924 H   0  0  0  0  0  0  0  0  0  0  0  0
  -67.9423  -13.8822   45.9933 C   0  0  0  0  0  0  0  0  0  0  0  0
  -68.4207  -14.5946   47.0308 C   0  0  0  0  0  0  0  0  0  0  0  0
  -65.9332  -14.3724   46.9494 C   0  0  0  0  0  0  0  0  0  0  0  0
  -66.5873  -13.7592   45.9516 N   0  0  0  0  0  0  0  0  0  0  0  0
  -67.0936  -15.0985   47.9594 S   0  0  0  0  0  0  0  0  0  0  0  0
  -69.7108  -14.9000   47.3407 C   0  0  0  0  0  0  0  0  0  0  0  0
  -69.9625  -15.7899   48.3463 N   0  0  0  0  0  0  0  0  0  0  0  0
  -70.6139  -14.3305   46.7314 O   0  0  0  0  0  0  0  0  0  0  0  0
  -69.2144  -16.2152   48.8247 H   0  0  0  0  0  0  0  0  0  0  0  0
  -73.8984  -16.6713   49.3726 C   0  0  0  0  0  0  0  0  0  0  0  0
  -73.2168  -15.6584   50.0359 C   0  0  0  0  0  0  0  0  0  0  0  0
  -71.8980  -15.3596   49.6979 C   0  0  0  0  0  0  0  0  0  0  0  0
  -71.2550  -14.3364   50.3867 C   0  0  0  0  0  0  0  0  0  0  0  0
  -71.2541  -16.0917   48.6903 C   0  0  0  0  0  0  0  0  0  0  0  0
  -71.9466  -17.1083   48.0133 C   0  0  0  0  0  0  0  0  0  0  0  0
  -73.2650  -17.3899   48.3652 C   0  0  0  0  0  0  0  0  0  0  0  0
  -71.2347  -18.0474   46.7400 Cl  0  0  0  0  0  0  0  0  0  0  0  0
 20 21  2  0  0  0
 20 23  1  0  0  0
 21 25  1  0  0  0
 21 24  1  0  0  0
 25 26  1  0  0  0
 25 27  2  0  0  0
 10 16  1  0  0  0
 10 14  1  0  0  0
 10 15  1  0  0  0
 29 30  2  0  0  0
 29 35  1  0  0  0
 30 31  1  0  0  0
 31 32  1  0  0  0
 31 33  2  0  0  0
  3  4  1  0  0  0
  3  1  1  0  0  0
  3  9  2  0  0  0
  4  5  2  0  0  0
  5  8  1  0  0  0
  5 13  1  0  0  0
  6  7  1  0  0  0
  6  8  2  0  0  0
  6  9  1  0  0  0
 11 13  1  0  0  0
 11 14  1  0  0  0
 12 13  1  0  0  0
 12 15  1  0  0  0
 16 17  1  0  0  0
 17 18  1  0  0  0
  1 22  1  0  0  0
 22 23  2  0  0  0
 22 24  1  0  0  0
 26 33  1  0  0  0
 33 34  1  0  0  0
 34 35  2  0  0  0
 34 36  1  0  0  0
  1  2  1  0  0  0
 26 28  1  0  0  0
 18 19  1  0  0  0
M  END
> <minimizedAffinity>
-8.28245

$$$$
