1PDZ_PGA_A_439
  RCSB PDB12061703393D
Coordinates from PDB:1PDZ:A:439 Model:1 without hydrogens
  9  8  0  0  0  0            999 V2000
   31.8840   69.4060   13.7090   P 0  0  0  0  0  0  0  0  0  0  0  0
   31.1470   70.2090   12.5440   O 0  0  0  0  0  0  0  0  0  0  0  0
   31.1700   69.8960   14.8920   O 0  0  0  0  0  0  0  0  0  0  0  0
   31.6660   67.9750   13.3100   O 0  0  0  0  0  0  0  0  0  0  0  0
   33.2970   69.8230   13.6570   O 0  0  0  0  0  0  0  0  0  0  0  0
   29.7460   70.1730   12.5240   C 0  0  0  0  0  0  0  0  0  0  0  0
   29.2060   70.4510   11.1440   C 0  0  0  0  0  0  0  0  0  0  0  0
   29.8860   70.0780   10.1620   O 0  0  0  0  0  0  0  0  0  0  0  0
   28.0760   70.9870   11.0390   O 0  0  0  0  0  0  0  0  0  0  0  0
  1  2  1  0  0  0  0
  1  3  2  0  0  0  0
  1  4  1  0  0  0  0
  1  5  1  0  0  0  0
  2  6  1  0  0  0  0
  6  7  1  0  0  0  0
  7  8  2  0  0  0  0
  7  9  1  0  0  0  0
A    1
P
A    2
O1P
A    3
O2P
A    4
O3P
A    5
O4P
A    6
C2
A    7
C1
A    8
O1
A    9
O2
M  END
>  <InstanceId>
1PDZ_PGA_A_439

>  <ChemCompId>
PGA

>  <PdbId>
1PDZ

>  <ChainId>
A

>  <ResidueNumber>
439

>  <InsertionCode>


>  <Model>
1

>  <AltIds>


>  <MissingHeavyAtoms>
0

>  <ObservedFormula>
C2 O6 P

>  <Name>
2-PHOSPHOGLYCOLIC ACID

>  <SystematicName>
2-phosphonooxyethanoic acid

>  <Synonyms>


>  <Type>
NON-POLYMER

>  <Formula>
C2 H5 O6 P

>  <MolecularWeight>
156.031

>  <ModifiedDate>
2011-06-04

>  <Parent>


>  <OneLetterCode>


>  <SubcomponentList>


>  <AmbiguousFlag>
N

>  <InChI>
InChI=1S/C2H5O6P/c3-2(4)1-8-9(5,6)7/h1H2,(H,3,4)(H2,5,6,7)

>  <InChIKey>
ASCFNMCAHFUBCO-UHFFFAOYSA-N

>  <SMILES>
C(C(=O)O)OP(=O)(O)O

$$$$
