1FZQ_GDP_A_301


 36 38  0  0  0  0  0  0  0  0999 V2000
   17.3249    5.3969   17.5623 C   0  0  0  0  0  0  0  0  0  0  0  0
   15.9894    4.9825   17.3666 O   0  0  0  0  0  0  0  0  0  0  0  0
   18.1472    4.9093   16.3403 C   0  0  0  0  0  0  0  0  0  0  0  0
   18.7243    3.6647   16.8124 O   0  0  0  0  0  0  0  0  0  0  0  0
   17.0695    4.6987   15.2848 C   0  0  0  0  0  0  0  0  0  0  0  0
   17.3480    3.7661   14.2256 O   0  0  0  0  0  0  0  0  0  0  0  0
   15.8682    4.2723   16.1289 C   0  0  0  0  0  0  0  0  0  0  0  0
   18.0219    3.0952   17.1634 H   0  0  0  0  0  0  0  0  0  0  0  0
   17.4936    2.8838   14.6016 H   0  0  0  0  0  0  0  0  0  0  0  0
   14.5946    4.6923   15.5203 N   0  0  0  0  0  0  0  0  0  0  0  0
   14.1440    5.9515   15.1304 C   0  0  0  0  0  0  0  0  0  0  0  0
   12.9065    5.9117   14.6153 N   0  0  0  0  0  0  0  0  0  0  0  0
   12.5057    4.5267   14.6682 C   0  0  0  0  0  0  0  0  0  0  0  0
   11.2724    3.7291   14.2757 C   0  0  0  0  0  0  0  0  0  0  0  0
   10.2913    4.2841   13.7819 O   0  0  0  0  0  0  0  0  0  0  0  0
   11.1918    2.3715   14.4591 N   0  0  0  0  0  0  0  0  0  0  0  0
   12.2400    1.6110   15.0163 C   0  0  0  0  0  0  0  0  0  0  0  0
   12.1407    0.2904   15.1831 N   0  0  0  0  0  0  0  0  0  0  0  0
   13.3847    2.3403   15.3828 N   0  0  0  0  0  0  0  0  0  0  0  0
   13.5198    3.8198   15.2032 C   0  0  0  0  0  0  0  0  0  0  0  0
   10.3659    1.9084   14.1899 H   0  0  0  0  0  0  0  0  0  0  0  0
   11.3193   -0.1797   14.9117 H   0  0  0  0  0  0  0  0  0  0  0  0
   12.8888   -0.2136   15.5775 H   0  0  0  0  0  0  0  0  0  0  0  0
   17.3727    6.9581   17.7591 C   0  0  0  0  0  0  0  0  0  0  0  0
   18.6428    7.4697   17.3710 O   0  0  0  0  0  0  0  0  0  0  0  0
   18.7677    8.6586   16.4598 P   0  0  0  0  0  0  0  0  0  0  0  0
   18.3560    8.2901   15.0423 O   0  0  0  0  0  0  0  0  0  0  0  0
   20.1977    9.1957   16.3330 O   0  0  0  0  0  0  0  0  0  0  0  0
   20.2047    9.9582   15.7335 H   0  0  0  0  0  0  0  0  0  0  0  0
   17.8823    9.7056   17.0835 O   0  0  0  0  0  0  0  0  0  0  0  0
   18.0450   10.7601   18.2688 P   0  0  0  0  0  0  0  0  0  0  0  0
   18.5685   12.0751   17.7775 O   0  0  0  0  0  0  0  0  0  0  0  0
   19.0775   10.0130   19.1332 O   0  0  0  0  0  0  0  0  0  0  0  0
   16.8009   10.6681   19.1463 O   0  0  0  0  0  0  0  0  0  0  0  0
   19.2864   10.5433   19.9181 H   0  0  0  0  0  0  0  0  0  0  0  0
   16.8736   11.3011   19.8777 H   0  0  0  0  0  0  0  0  0  0  0  0
 31 32  2  0  0  0
 31 33  1  0  0  0
 31 34  1  0  0  0
 31 30  1  0  0  0
 30 26  1  0  0  0
 26 27  2  0  0  0
 26 28  1  0  0  0
 26 25  1  0  0  0
 25 24  1  0  0  0
 24  1  1  0  0  0
  1  2  1  0  0  0
  1  3  1  0  0  0
  2  7  1  0  0  0
  3  4  1  0  0  0
  3  5  1  0  0  0
  5  6  1  0  0  0
  5  7  1  0  0  0
  7 10  1  0  0  0
 10 11  1  0  0  0
 10 20  1  0  0  0
 11 12  2  0  0  0
 12 13  1  0  0  0
 13 14  1  0  0  0
 13 20  2  0  0  0
 14 15  2  0  0  0
 14 16  1  0  0  0
 16 17  1  0  0  0
 17 18  1  0  0  0
 17 19  2  0  0  0
 19 20  1  0  0  0
 33 35  1  0  0  0
 34 36  1  0  0  0
 28 29  1  0  0  0
  4  8  1  0  0  0
  6  9  1  0  0  0
 16 21  1  0  0  0
 18 22  1  0  0  0
 18 23  1  0  0  0
M  END
> <minimizedAffinity>
-9.92884

$$$$
1FZQ_GDP_A_301


 36 38  0  0  0  0  0  0  0  0999 V2000
   17.6004    5.5067   17.2414 C   0  0  0  0  0  0  0  0  0  0  0  0
   16.1915    5.4182   17.2682 O   0  0  0  0  0  0  0  0  0  0  0  0
   18.1239    4.3324   16.3728 C   0  0  0  0  0  0  0  0  0  0  0  0
   18.4528    3.3201   17.3588 O   0  0  0  0  0  0  0  0  0  0  0  0
   16.9005    3.9717   15.5403 C   0  0  0  0  0  0  0  0  0  0  0  0
   16.8175    2.6313   15.0249 O   0  0  0  0  0  0  0  0  0  0  0  0
   15.7515    4.2956   16.4955 C   0  0  0  0  0  0  0  0  0  0  0  0
   17.6886    3.1721   17.9375 H   0  0  0  0  0  0  0  0  0  0  0  0
   16.8019    2.0016   15.7627 H   0  0  0  0  0  0  0  0  0  0  0  0
   14.5426    4.7246   15.7721 N   0  0  0  0  0  0  0  0  0  0  0  0
   14.1538    5.9817   15.3148 C   0  0  0  0  0  0  0  0  0  0  0  0
   12.9629    5.9528   14.6989 N   0  0  0  0  0  0  0  0  0  0  0  0
   12.5288    4.5779   14.7523 C   0  0  0  0  0  0  0  0  0  0  0  0
   11.3151    3.7949   14.2777 C   0  0  0  0  0  0  0  0  0  0  0  0
   10.3910    4.3560   13.6899 O   0  0  0  0  0  0  0  0  0  0  0  0
   11.1897    2.4445   14.4872 N   0  0  0  0  0  0  0  0  0  0  0  0
   12.1709    1.6784   15.1489 C   0  0  0  0  0  0  0  0  0  0  0  0
   12.0290    0.3648   15.3393 N   0  0  0  0  0  0  0  0  0  0  0  0
   13.2970    2.3942   15.5918 N   0  0  0  0  0  0  0  0  0  0  0  0
   13.4790    3.8655   15.3877 C   0  0  0  0  0  0  0  0  0  0  0  0
   10.3791    1.9909   14.1612 H   0  0  0  0  0  0  0  0  0  0  0  0
   11.2230   -0.0958   15.0118 H   0  0  0  0  0  0  0  0  0  0  0  0
   12.7305   -0.1433   15.8073 H   0  0  0  0  0  0  0  0  0  0  0  0
   18.0331    6.9200   16.6994 C   0  0  0  0  0  0  0  0  0  0  0  0
   18.4056    7.7729   17.7761 O   0  0  0  0  0  0  0  0  0  0  0  0
   18.2531    9.2656   17.6871 P   0  0  0  0  0  0  0  0  0  0  0  0
   17.2388    9.7602   18.7075 O   0  0  0  0  0  0  0  0  0  0  0  0
   17.7282    9.7560   16.3330 O   0  0  0  0  0  0  0  0  0  0  0  0
   17.6547   10.7231   16.3458 H   0  0  0  0  0  0  0  0  0  0  0  0
   19.6417    9.8005   17.9208 O   0  0  0  0  0  0  0  0  0  0  0  0
   21.0910    9.4664   17.3451 P   0  0  0  0  0  0  0  0  0  0  0  0
   21.9654   10.6819   17.2958 O   0  0  0  0  0  0  0  0  0  0  0  0
   20.6988    8.9785   15.9381 O   0  0  0  0  0  0  0  0  0  0  0  0
   21.5586    8.1661   17.9906 O   0  0  0  0  0  0  0  0  0  0  0  0
   21.4979    8.7302   15.4475 H   0  0  0  0  0  0  0  0  0  0  0  0
   22.4406    7.9385   17.6571 H   0  0  0  0  0  0  0  0  0  0  0  0
 31 32  2  0  0  0
 31 33  1  0  0  0
 31 34  1  0  0  0
 31 30  1  0  0  0
 30 26  1  0  0  0
 26 27  2  0  0  0
 26 28  1  0  0  0
 26 25  1  0  0  0
 25 24  1  0  0  0
 24  1  1  0  0  0
  1  2  1  0  0  0
  1  3  1  0  0  0
  2  7  1  0  0  0
  3  4  1  0  0  0
  3  5  1  0  0  0
  5  6  1  0  0  0
  5  7  1  0  0  0
  7 10  1  0  0  0
 10 11  1  0  0  0
 10 20  1  0  0  0
 11 12  2  0  0  0
 12 13  1  0  0  0
 13 14  1  0  0  0
 13 20  2  0  0  0
 14 15  2  0  0  0
 14 16  1  0  0  0
 16 17  1  0  0  0
 17 18  1  0  0  0
 17 19  2  0  0  0
 19 20  1  0  0  0
 33 35  1  0  0  0
 34 36  1  0  0  0
 28 29  1  0  0  0
  4  8  1  0  0  0
  6  9  1  0  0  0
 16 21  1  0  0  0
 18 22  1  0  0  0
 18 23  1  0  0  0
M  END
> <minimizedAffinity>
-8.32129

$$$$
1FZQ_GDP_A_301


 36 38  0  0  0  0  0  0  0  0999 V2000
   17.6642    5.1533   17.3028 C   0  0  0  0  0  0  0  0  0  0  0  0
   16.8604    4.1304   17.8516 O   0  0  0  0  0  0  0  0  0  0  0  0
   18.4613    4.5364   16.1232 C   0  0  0  0  0  0  0  0  0  0  0  0
   19.7351    4.2012   16.7315 O   0  0  0  0  0  0  0  0  0  0  0  0
   17.6306    3.3080   15.7752 C   0  0  0  0  0  0  0  0  0  0  0  0
   18.2997    2.2149   15.1221 O   0  0  0  0  0  0  0  0  0  0  0  0
   17.0605    2.9063   17.1358 C   0  0  0  0  0  0  0  0  0  0  0  0
   19.5831    3.6665   17.5264 H   0  0  0  0  0  0  0  0  0  0  0  0
   19.0029    1.8759   15.6978 H   0  0  0  0  0  0  0  0  0  0  0  0
   15.7399    2.2669   17.0089 N   0  0  0  0  0  0  0  0  0  0  0  0
   15.2409    1.0912   17.5651 C   0  0  0  0  0  0  0  0  0  0  0  0
   13.9744    0.8513   17.1954 N   0  0  0  0  0  0  0  0  0  0  0  0
   13.6061    1.9456   16.3302 C   0  0  0  0  0  0  0  0  0  0  0  0
   12.3666    2.3540   15.5502 C   0  0  0  0  0  0  0  0  0  0  0  0
   11.3504    1.6604   15.5698 O   0  0  0  0  0  0  0  0  0  0  0  0
   12.3256    3.4956   14.7900 N   0  0  0  0  0  0  0  0  0  0  0  0
   13.4183    4.3790   14.6761 C   0  0  0  0  0  0  0  0  0  0  0  0
   13.3550    5.4858   13.9326 N   0  0  0  0  0  0  0  0  0  0  0  0
   14.5694    4.0093   15.3937 N   0  0  0  0  0  0  0  0  0  0  0  0
   14.6628    2.7753   16.2353 C   0  0  0  0  0  0  0  0  0  0  0  0
   11.4966    3.7071   14.3027 H   0  0  0  0  0  0  0  0  0  0  0  0
   12.5276    5.7056   13.4465 H   0  0  0  0  0  0  0  0  0  0  0  0
   14.1357    6.0824   13.8704 H   0  0  0  0  0  0  0  0  0  0  0  0
   16.7584    6.3666   16.8721 C   0  0  0  0  0  0  0  0  0  0  0  0
   17.2439    7.5769   17.4420 O   0  0  0  0  0  0  0  0  0  0  0  0
   18.2086    8.4630   16.7046 P   0  0  0  0  0  0  0  0  0  0  0  0
   18.1007    8.2368   15.2040 O   0  0  0  0  0  0  0  0  0  0  0  0
   19.6795    8.1962   17.0434 O   0  0  0  0  0  0  0  0  0  0  0  0
   20.2431    8.7999   16.5348 H   0  0  0  0  0  0  0  0  0  0  0  0
   17.8330    9.8600   17.1244 O   0  0  0  0  0  0  0  0  0  0  0  0
   17.9786   10.7128   18.4642 P   0  0  0  0  0  0  0  0  0  0  0  0
   16.6952   10.7632   19.2355 O   0  0  0  0  0  0  0  0  0  0  0  0
   18.3423   12.0802   17.8564 O   0  0  0  0  0  0  0  0  0  0  0  0
   19.2969   10.3207   19.1234 O   0  0  0  0  0  0  0  0  0  0  0  0
   18.4672   12.7274   18.5680 H   0  0  0  0  0  0  0  0  0  0  0  0
   19.4113   10.8262   19.9433 H   0  0  0  0  0  0  0  0  0  0  0  0
 31 32  2  0  0  0
 31 33  1  0  0  0
 31 34  1  0  0  0
 31 30  1  0  0  0
 30 26  1  0  0  0
 26 27  2  0  0  0
 26 28  1  0  0  0
 26 25  1  0  0  0
 25 24  1  0  0  0
 24  1  1  0  0  0
  1  2  1  0  0  0
  1  3  1  0  0  0
  2  7  1  0  0  0
  3  4  1  0  0  0
  3  5  1  0  0  0
  5  6  1  0  0  0
  5  7  1  0  0  0
  7 10  1  0  0  0
 10 11  1  0  0  0
 10 20  1  0  0  0
 11 12  2  0  0  0
 12 13  1  0  0  0
 13 14  1  0  0  0
 13 20  2  0  0  0
 14 15  2  0  0  0
 14 16  1  0  0  0
 16 17  1  0  0  0
 17 18  1  0  0  0
 17 19  2  0  0  0
 19 20  1  0  0  0
 33 35  1  0  0  0
 34 36  1  0  0  0
 28 29  1  0  0  0
  4  8  1  0  0  0
  6  9  1  0  0  0
 16 21  1  0  0  0
 18 22  1  0  0  0
 18 23  1  0  0  0
M  END
> <minimizedAffinity>
-7.95246

$$$$
1FZQ_GDP_A_301


 36 38  0  0  0  0  0  0  0  0999 V2000
   19.3419    5.2675   17.6586 C   0  0  0  0  0  0  0  0  0  0  0  0
   18.0354    4.7340   17.6147 O   0  0  0  0  0  0  0  0  0  0  0  0
   19.9816    5.0469   16.2622 C   0  0  0  0  0  0  0  0  0  0  0  0
   20.7408    3.8237   16.4419 O   0  0  0  0  0  0  0  0  0  0  0  0
   18.7613    4.8601   15.3701 C   0  0  0  0  0  0  0  0  0  0  0  0
   18.9355    4.1176   14.1505 O   0  0  0  0  0  0  0  0  0  0  0  0
   17.7667    4.1891   16.3179 C   0  0  0  0  0  0  0  0  0  0  0  0
   20.1634    3.1356   16.8080 H   0  0  0  0  0  0  0  0  0  0  0  0
   19.2224    3.2149   14.3597 H   0  0  0  0  0  0  0  0  0  0  0  0
   16.3748    4.5400   15.9889 N   0  0  0  0  0  0  0  0  0  0  0  0
   15.7068    5.7611   16.0446 C   0  0  0  0  0  0  0  0  0  0  0  0
   14.4259    5.6580   15.6610 N   0  0  0  0  0  0  0  0  0  0  0  0
   14.2286    4.2681   15.3280 C   0  0  0  0  0  0  0  0  0  0  0  0
   13.0721    3.4161   14.8300 C   0  0  0  0  0  0  0  0  0  0  0  0
   11.9649    3.9118   14.6233 O   0  0  0  0  0  0  0  0  0  0  0  0
   13.2035    2.0698   14.5989 N   0  0  0  0  0  0  0  0  0  0  0  0
   14.4134    1.3738   14.7969 C   0  0  0  0  0  0  0  0  0  0  0  0
   14.5190    0.0639   14.5629 N   0  0  0  0  0  0  0  0  0  0  0  0
   15.4886    2.1536   15.2578 N   0  0  0  0  0  0  0  0  0  0  0  0
   15.3946    3.6232   15.5245 C   0  0  0  0  0  0  0  0  0  0  0  0
   12.4185    1.5680   14.2808 H   0  0  0  0  0  0  0  0  0  0  0  0
   13.7391   -0.4430   14.2404 H   0  0  0  0  0  0  0  0  0  0  0  0
   15.3769   -0.3953   14.7129 H   0  0  0  0  0  0  0  0  0  0  0  0
   19.2826    6.7827   18.0813 C   0  0  0  0  0  0  0  0  0  0  0  0
   18.2596    7.4606   17.3606 O   0  0  0  0  0  0  0  0  0  0  0  0
   18.5609    8.6608   16.5072 P   0  0  0  0  0  0  0  0  0  0  0  0
   18.1996    8.3872   15.0550 O   0  0  0  0  0  0  0  0  0  0  0  0
   20.0435    9.0487   16.4832 O   0  0  0  0  0  0  0  0  0  0  0  0
   20.1651    9.8266   15.9167 H   0  0  0  0  0  0  0  0  0  0  0  0
   17.7519    9.7726   17.1225 O   0  0  0  0  0  0  0  0  0  0  0  0
   17.9861   10.8172   18.3046 P   0  0  0  0  0  0  0  0  0  0  0  0
   18.5374   12.1158   17.8004 O   0  0  0  0  0  0  0  0  0  0  0  0
   19.0196   10.0335   19.1348 O   0  0  0  0  0  0  0  0  0  0  0  0
   16.7674   10.7634   19.2201 O   0  0  0  0  0  0  0  0  0  0  0  0
   19.2702   10.5540   19.9140 H   0  0  0  0  0  0  0  0  0  0  0  0
   16.8836   11.3912   19.9504 H   0  0  0  0  0  0  0  0  0  0  0  0
 31 32  2  0  0  0
 31 33  1  0  0  0
 31 34  1  0  0  0
 31 30  1  0  0  0
 30 26  1  0  0  0
 26 27  2  0  0  0
 26 28  1  0  0  0
 26 25  1  0  0  0
 25 24  1  0  0  0
 24  1  1  0  0  0
  1  2  1  0  0  0
  1  3  1  0  0  0
  2  7  1  0  0  0
  3  4  1  0  0  0
  3  5  1  0  0  0
  5  6  1  0  0  0
  5  7  1  0  0  0
  7 10  1  0  0  0
 10 11  1  0  0  0
 10 20  1  0  0  0
 11 12  2  0  0  0
 12 13  1  0  0  0
 13 14  1  0  0  0
 13 20  2  0  0  0
 14 15  2  0  0  0
 14 16  1  0  0  0
 16 17  1  0  0  0
 17 18  1  0  0  0
 17 19  2  0  0  0
 19 20  1  0  0  0
 33 35  1  0  0  0
 34 36  1  0  0  0
 28 29  1  0  0  0
  4  8  1  0  0  0
  6  9  1  0  0  0
 16 21  1  0  0  0
 18 22  1  0  0  0
 18 23  1  0  0  0
M  END
> <minimizedAffinity>
-7.65289

$$$$
1FZQ_GDP_A_301


 36 38  0  0  0  0  0  0  0  0999 V2000
   18.4112    4.4284   15.6329 C   0  0  0  0  0  0  0  0  0  0  0  0
   17.1495    4.8836   16.0740 O   0  0  0  0  0  0  0  0  0  0  0  0
   18.2380    2.9592   15.1647 C   0  0  0  0  0  0  0  0  0  0  0  0
   18.6455    2.1965   16.3297 O   0  0  0  0  0  0  0  0  0  0  0  0
   16.7409    2.8762   14.8974 C   0  0  0  0  0  0  0  0  0  0  0  0
   16.1224    1.5795   14.9699 O   0  0  0  0  0  0  0  0  0  0  0  0
   16.1724    3.8460   15.9337 C   0  0  0  0  0  0  0  0  0  0  0  0
   18.1516    2.5035   17.1061 H   0  0  0  0  0  0  0  0  0  0  0  0
   16.2284    1.2203   15.8646 H   0  0  0  0  0  0  0  0  0  0  0  0
   14.9344    4.4886   15.4611 N   0  0  0  0  0  0  0  0  0  0  0  0
   14.6506    5.8241   15.1849 C   0  0  0  0  0  0  0  0  0  0  0  0
   13.3859    6.0011   14.7753 N   0  0  0  0  0  0  0  0  0  0  0  0
   12.7862    4.6888   14.7813 C   0  0  0  0  0  0  0  0  0  0  0  0
   11.4207    4.1087   14.4493 C   0  0  0  0  0  0  0  0  0  0  0  0
   10.5001    4.8338   14.0739 O   0  0  0  0  0  0  0  0  0  0  0  0
   11.1506    2.7678   14.5596 N   0  0  0  0  0  0  0  0  0  0  0  0
   12.1112    1.8257   14.9804 C   0  0  0  0  0  0  0  0  0  0  0  0
   11.8269    0.5251   15.0778 N   0  0  0  0  0  0  0  0  0  0  0  0
   13.3771    2.3531   15.2901 N   0  0  0  0  0  0  0  0  0  0  0  0
   13.7196    3.8062   15.1861 C   0  0  0  0  0  0  0  0  0  0  0  0
   10.2463    2.4498   14.3350 H   0  0  0  0  0  0  0  0  0  0  0  0
   10.9260    0.1998   14.8503 H   0  0  0  0  0  0  0  0  0  0  0  0
   12.5182   -0.1088   15.3771 H   0  0  0  0  0  0  0  0  0  0  0  0
   18.9530    5.3800   14.5019 C   0  0  0  0  0  0  0  0  0  0  0  0
   20.0344    6.1665   14.9894 O   0  0  0  0  0  0  0  0  0  0  0  0
   20.2237    7.5953   14.5628 P   0  0  0  0  0  0  0  0  0  0  0  0
   19.3385    7.9172   13.3681 O   0  0  0  0  0  0  0  0  0  0  0  0
   21.6488    7.9219   14.1028 O   0  0  0  0  0  0  0  0  0  0  0  0
   21.6990    8.8552   13.8434 H   0  0  0  0  0  0  0  0  0  0  0  0
   19.8851    8.4022   15.7889 O   0  0  0  0  0  0  0  0  0  0  0  0
   18.5333    8.8475   16.5085 P   0  0  0  0  0  0  0  0  0  0  0  0
   18.7504   10.0024   17.4378 O   0  0  0  0  0  0  0  0  0  0  0  0
   18.2096    7.5472   17.2674 O   0  0  0  0  0  0  0  0  0  0  0  0
   17.4294    8.8599   15.4562 O   0  0  0  0  0  0  0  0  0  0  0  0
   17.3879    7.6621   17.7698 H   0  0  0  0  0  0  0  0  0  0  0  0
   16.5931    9.1282   15.8680 H   0  0  0  0  0  0  0  0  0  0  0  0
 31 32  2  0  0  0
 31 33  1  0  0  0
 31 34  1  0  0  0
 31 30  1  0  0  0
 30 26  1  0  0  0
 26 27  2  0  0  0
 26 28  1  0  0  0
 26 25  1  0  0  0
 25 24  1  0  0  0
 24  1  1  0  0  0
  1  2  1  0  0  0
  1  3  1  0  0  0
  2  7  1  0  0  0
  3  4  1  0  0  0
  3  5  1  0  0  0
  5  6  1  0  0  0
  5  7  1  0  0  0
  7 10  1  0  0  0
 10 11  1  0  0  0
 10 20  1  0  0  0
 11 12  2  0  0  0
 12 13  1  0  0  0
 13 14  1  0  0  0
 13 20  2  0  0  0
 14 15  2  0  0  0
 14 16  1  0  0  0
 16 17  1  0  0  0
 17 18  1  0  0  0
 17 19  2  0  0  0
 19 20  1  0  0  0
 33 35  1  0  0  0
 34 36  1  0  0  0
 28 29  1  0  0  0
  4  8  1  0  0  0
  6  9  1  0  0  0
 16 21  1  0  0  0
 18 22  1  0  0  0
 18 23  1  0  0  0
M  END
> <minimizedAffinity>
-7.60382

$$$$
1FZQ_GDP_A_301


 36 38  0  0  0  0  0  0  0  0999 V2000
   20.7877    6.7585   18.3600 C   0  0  0  0  0  0  0  0  0  0  0  0
   19.6468    5.9293   18.2939 O   0  0  0  0  0  0  0  0  0  0  0  0
   21.2117    7.0835   16.9032 C   0  0  0  0  0  0  0  0  0  0  0  0
   22.2457    6.1007   16.6386 O   0  0  0  0  0  0  0  0  0  0  0  0
   19.9303    6.8184   16.1236 C   0  0  0  0  0  0  0  0  0  0  0  0
   20.0555    6.4897   14.7288 O   0  0  0  0  0  0  0  0  0  0  0  0
   19.2895    5.6873   16.9284 C   0  0  0  0  0  0  0  0  0  0  0  0
   21.9093    5.2143   16.8433 H   0  0  0  0  0  0  0  0  0  0  0  0
   20.5694    5.6726   14.6340 H   0  0  0  0  0  0  0  0  0  0  0  0
   17.8191    5.7310   16.8591 N   0  0  0  0  0  0  0  0  0  0  0  0
   16.8792    6.2096   17.7691 C   0  0  0  0  0  0  0  0  0  0  0  0
   15.6218    6.0604   17.3272 N   0  0  0  0  0  0  0  0  0  0  0  0
   15.7347    5.4365   16.0312 C   0  0  0  0  0  0  0  0  0  0  0  0
   14.7687    4.9702   14.9538 C   0  0  0  0  0  0  0  0  0  0  0  0
   13.5528    5.0908   15.0998 O   0  0  0  0  0  0  0  0  0  0  0  0
   15.2004    4.3921   13.7865 N   0  0  0  0  0  0  0  0  0  0  0  0
   16.5640    4.1907   13.4909 C   0  0  0  0  0  0  0  0  0  0  0  0
   16.9614    3.6284   12.3474 N   0  0  0  0  0  0  0  0  0  0  0  0
   17.4650    4.6185   14.4818 N   0  0  0  0  0  0  0  0  0  0  0  0
   17.0432    5.2532   15.7698 C   0  0  0  0  0  0  0  0  0  0  0  0
   14.5284    4.1055   13.1266 H   0  0  0  0  0  0  0  0  0  0  0  0
   16.2948    3.3437   11.6811 H   0  0  0  0  0  0  0  0  0  0  0  0
   17.9211    3.4985   12.1701 H   0  0  0  0  0  0  0  0  0  0  0  0
   20.4626    8.0416   19.2122 C   0  0  0  0  0  0  0  0  0  0  0  0
   21.1150    9.1814   18.6639 O   0  0  0  0  0  0  0  0  0  0  0  0
   20.8030   10.5724   19.1406 P   0  0  0  0  0  0  0  0  0  0  0  0
   21.2988   11.6038   18.1381 O   0  0  0  0  0  0  0  0  0  0  0  0
   21.4835   10.9423   20.4632 O   0  0  0  0  0  0  0  0  0  0  0  0
   21.2397   11.8481   20.7100 H   0  0  0  0  0  0  0  0  0  0  0  0
   19.3068   10.5836   19.3153 O   0  0  0  0  0  0  0  0  0  0  0  0
   18.0667   10.9846   18.3961 P   0  0  0  0  0  0  0  0  0  0  0  0
   16.7594   10.6441   19.0437 O   0  0  0  0  0  0  0  0  0  0  0  0
   18.3571   10.0926   17.1749 O   0  0  0  0  0  0  0  0  0  0  0  0
   18.3424   12.3711   17.8234 O   0  0  0  0  0  0  0  0  0  0  0  0
   17.6683   10.2269   16.5053 H   0  0  0  0  0  0  0  0  0  0  0  0
   17.6014   12.6407   17.2584 H   0  0  0  0  0  0  0  0  0  0  0  0
 31 32  2  0  0  0
 31 33  1  0  0  0
 31 34  1  0  0  0
 31 30  1  0  0  0
 30 26  1  0  0  0
 26 27  2  0  0  0
 26 28  1  0  0  0
 26 25  1  0  0  0
 25 24  1  0  0  0
 24  1  1  0  0  0
  1  2  1  0  0  0
  1  3  1  0  0  0
  2  7  1  0  0  0
  3  4  1  0  0  0
  3  5  1  0  0  0
  5  6  1  0  0  0
  5  7  1  0  0  0
  7 10  1  0  0  0
 10 11  1  0  0  0
 10 20  1  0  0  0
 11 12  2  0  0  0
 12 13  1  0  0  0
 13 14  1  0  0  0
 13 20  2  0  0  0
 14 15  2  0  0  0
 14 16  1  0  0  0
 16 17  1  0  0  0
 17 18  1  0  0  0
 17 19  2  0  0  0
 19 20  1  0  0  0
 33 35  1  0  0  0
 34 36  1  0  0  0
 28 29  1  0  0  0
  4  8  1  0  0  0
  6  9  1  0  0  0
 16 21  1  0  0  0
 18 22  1  0  0  0
 18 23  1  0  0  0
M  END
> <minimizedAffinity>
-7.57699

$$$$
1FZQ_GDP_A_301


 36 38  0  0  0  0  0  0  0  0999 V2000
   20.0370    6.5746   18.3848 C   0  0  0  0  0  0  0  0  0  0  0  0
   18.7184    6.0705   18.3560 O   0  0  0  0  0  0  0  0  0  0  0  0
   20.8835    5.7194   17.4051 C   0  0  0  0  0  0  0  0  0  0  0  0
   21.5021    4.7404   18.2791 O   0  0  0  0  0  0  0  0  0  0  0  0
   19.8201    5.1142   16.4979 C   0  0  0  0  0  0  0  0  0  0  0  0
   20.1381    3.8803   15.8305 O   0  0  0  0  0  0  0  0  0  0  0  0
   18.6300    4.9679   17.4464 C   0  0  0  0  0  0  0  0  0  0  0  0
   20.8185    4.3053   18.8122 H   0  0  0  0  0  0  0  0  0  0  0  0
   20.3131    3.1914   16.4906 H   0  0  0  0  0  0  0  0  0  0  0  0
   17.3457    5.1025   16.7383 N   0  0  0  0  0  0  0  0  0  0  0  0
   16.8137    6.1662   16.0130 C   0  0  0  0  0  0  0  0  0  0  0  0
   15.5970    5.8888   15.5219 N   0  0  0  0  0  0  0  0  0  0  0  0
   15.2989    4.5447   15.9534 C   0  0  0  0  0  0  0  0  0  0  0  0
   14.1392    3.5752   15.7898 C   0  0  0  0  0  0  0  0  0  0  0  0
   13.1335    3.8938   15.1564 O   0  0  0  0  0  0  0  0  0  0  0  0
   14.1547    2.3186   16.3409 N   0  0  0  0  0  0  0  0  0  0  0  0
   15.2409    1.8258   17.0925 C   0  0  0  0  0  0  0  0  0  0  0  0
   15.2354    0.5985   17.6173 N   0  0  0  0  0  0  0  0  0  0  0  0
   16.3180    2.7157   17.2495 N   0  0  0  0  0  0  0  0  0  0  0  0
   16.3477    4.0945   16.6686 C   0  0  0  0  0  0  0  0  0  0  0  0
   13.3730    1.7356   16.2056 H   0  0  0  0  0  0  0  0  0  0  0  0
   14.4588    0.0087   17.4819 H   0  0  0  0  0  0  0  0  0  0  0  0
   16.0079    0.2831   18.1398 H   0  0  0  0  0  0  0  0  0  0  0  0
   20.0276    8.1064   18.0220 C   0  0  0  0  0  0  0  0  0  0  0  0
   18.9340    8.7609   18.6553 O   0  0  0  0  0  0  0  0  0  0  0  0
   18.2515    9.9425   18.0249 P   0  0  0  0  0  0  0  0  0  0  0  0
   17.2130   10.5263   18.9711 O   0  0  0  0  0  0  0  0  0  0  0  0
   17.4791    9.6030   16.7452 O   0  0  0  0  0  0  0  0  0  0  0  0
   17.0662   10.4073   16.3938 H   0  0  0  0  0  0  0  0  0  0  0  0
   19.3713   10.8986   17.7071 O   0  0  0  0  0  0  0  0  0  0  0  0
   20.1129   12.0695   18.4961 P   0  0  0  0  0  0  0  0  0  0  0  0
   21.4994   12.3005   17.9776 O   0  0  0  0  0  0  0  0  0  0  0  0
   20.1182   11.4592   19.9099 O   0  0  0  0  0  0  0  0  0  0  0  0
   19.1196   13.2137   18.6704 O   0  0  0  0  0  0  0  0  0  0  0  0
   20.5500   12.0723   20.5252 H   0  0  0  0  0  0  0  0  0  0  0  0
   19.5459   13.9419   19.1489 H   0  0  0  0  0  0  0  0  0  0  0  0
 31 32  2  0  0  0
 31 33  1  0  0  0
 31 34  1  0  0  0
 31 30  1  0  0  0
 30 26  1  0  0  0
 26 27  2  0  0  0
 26 28  1  0  0  0
 26 25  1  0  0  0
 25 24  1  0  0  0
 24  1  1  0  0  0
  1  2  1  0  0  0
  1  3  1  0  0  0
  2  7  1  0  0  0
  3  4  1  0  0  0
  3  5  1  0  0  0
  5  6  1  0  0  0
  5  7  1  0  0  0
  7 10  1  0  0  0
 10 11  1  0  0  0
 10 20  1  0  0  0
 11 12  2  0  0  0
 12 13  1  0  0  0
 13 14  1  0  0  0
 13 20  2  0  0  0
 14 15  2  0  0  0
 14 16  1  0  0  0
 16 17  1  0  0  0
 17 18  1  0  0  0
 17 19  2  0  0  0
 19 20  1  0  0  0
 33 35  1  0  0  0
 34 36  1  0  0  0
 28 29  1  0  0  0
  4  8  1  0  0  0
  6  9  1  0  0  0
 16 21  1  0  0  0
 18 22  1  0  0  0
 18 23  1  0  0  0
M  END
> <minimizedAffinity>
-7.26598

$$$$
1FZQ_GDP_A_301


 36 38  0  0  0  0  0  0  0  0999 V2000
   18.2235    3.9434   17.2949 C   0  0  0  0  0  0  0  0  0  0  0  0
   16.8694    4.3270   17.4078 O   0  0  0  0  0  0  0  0  0  0  0  0
   18.2721    2.6586   16.4262 C   0  0  0  0  0  0  0  0  0  0  0  0
   18.3107    1.5983   17.4157 O   0  0  0  0  0  0  0  0  0  0  0  0
   16.9474    2.7209   15.6772 C   0  0  0  0  0  0  0  0  0  0  0  0
   16.3928    1.4819   15.2012 O   0  0  0  0  0  0  0  0  0  0  0  0
   16.0342    3.4110   16.6907 C   0  0  0  0  0  0  0  0  0  0  0  0
   17.5794    1.7142   18.0424 H   0  0  0  0  0  0  0  0  0  0  0  0
   16.2174    0.8958   15.9540 H   0  0  0  0  0  0  0  0  0  0  0  0
   14.9911    4.2138   16.0302 N   0  0  0  0  0  0  0  0  0  0  0  0
   14.9426    5.5734   15.7305 C   0  0  0  0  0  0  0  0  0  0  0  0
   13.7993    5.9193   15.1210 N   0  0  0  0  0  0  0  0  0  0  0  0
   13.0325    4.7022   15.0092 C   0  0  0  0  0  0  0  0  0  0  0  0
   11.6740    4.3128   14.4486 C   0  0  0  0  0  0  0  0  0  0  0  0
   10.9362    5.1546   13.9374 O   0  0  0  0  0  0  0  0  0  0  0  0
   11.2081    3.0228   14.4935 N   0  0  0  0  0  0  0  0  0  0  0  0
   11.9477    1.9610   15.0529 C   0  0  0  0  0  0  0  0  0  0  0  0
   11.4756    0.7128   15.0833 N   0  0  0  0  0  0  0  0  0  0  0  0
   13.2054    2.3117   15.5743 N   0  0  0  0  0  0  0  0  0  0  0  0
   13.7564    3.7029   15.5492 C   0  0  0  0  0  0  0  0  0  0  0  0
   10.3184    2.8305   14.1185 H   0  0  0  0  0  0  0  0  0  0  0  0
   10.5886    0.5127   14.7060 H   0  0  0  0  0  0  0  0  0  0  0  0
   12.0144   -0.0077   15.4830 H   0  0  0  0  0  0  0  0  0  0  0  0
   19.0633    5.1311   16.6931 C   0  0  0  0  0  0  0  0  0  0  0  0
   18.3288    6.3478   16.7684 O   0  0  0  0  0  0  0  0  0  0  0  0
   18.8330    7.6126   16.1315 P   0  0  0  0  0  0  0  0  0  0  0  0
   19.3351    8.5807   17.1922 O   0  0  0  0  0  0  0  0  0  0  0  0
   17.7604    8.3885   15.3588 O   0  0  0  0  0  0  0  0  0  0  0  0
   18.1529    9.1887   14.9761 H   0  0  0  0  0  0  0  0  0  0  0  0
   19.9120    7.1536   15.1860 O   0  0  0  0  0  0  0  0  0  0  0  0
   20.4007    7.5936   13.7330 P   0  0  0  0  0  0  0  0  0  0  0  0
   19.2700    8.1100   12.8968 O   0  0  0  0  0  0  0  0  0  0  0  0
   20.9271    6.2397   13.2216 O   0  0  0  0  0  0  0  0  0  0  0  0
   21.7004    8.3747   13.8969 O   0  0  0  0  0  0  0  0  0  0  0  0
   21.2695    6.3455   12.3202 H   0  0  0  0  0  0  0  0  0  0  0  0
   22.0211    8.6554   13.0256 H   0  0  0  0  0  0  0  0  0  0  0  0
 31 32  2  0  0  0
 31 33  1  0  0  0
 31 34  1  0  0  0
 31 30  1  0  0  0
 30 26  1  0  0  0
 26 27  2  0  0  0
 26 28  1  0  0  0
 26 25  1  0  0  0
 25 24  1  0  0  0
 24  1  1  0  0  0
  1  2  1  0  0  0
  1  3  1  0  0  0
  2  7  1  0  0  0
  3  4  1  0  0  0
  3  5  1  0  0  0
  5  6  1  0  0  0
  5  7  1  0  0  0
  7 10  1  0  0  0
 10 11  1  0  0  0
 10 20  1  0  0  0
 11 12  2  0  0  0
 12 13  1  0  0  0
 13 14  1  0  0  0
 13 20  2  0  0  0
 14 15  2  0  0  0
 14 16  1  0  0  0
 16 17  1  0  0  0
 17 18  1  0  0  0
 17 19  2  0  0  0
 19 20  1  0  0  0
 33 35  1  0  0  0
 34 36  1  0  0  0
 28 29  1  0  0  0
  4  8  1  0  0  0
  6  9  1  0  0  0
 16 21  1  0  0  0
 18 22  1  0  0  0
 18 23  1  0  0  0
M  END
> <minimizedAffinity>
-7.24238

$$$$
1FZQ_GDP_A_301


 36 38  0  0  0  0  0  0  0  0999 V2000
   18.6760    6.0704   17.3392 C   0  0  0  0  0  0  0  0  0  0  0  0
   18.1567    4.8157   17.7261 O   0  0  0  0  0  0  0  0  0  0  0  0
   19.1922    5.9311   15.8826 C   0  0  0  0  0  0  0  0  0  0  0  0
   20.6092    5.6769   16.0626 O   0  0  0  0  0  0  0  0  0  0  0  0
   18.4312    4.7103   15.3821 C   0  0  0  0  0  0  0  0  0  0  0  0
   19.0134    3.9594   14.3021 O   0  0  0  0  0  0  0  0  0  0  0  0
   18.2862    3.8748   16.6543 C   0  0  0  0  0  0  0  0  0  0  0  0
   20.7293    4.9355   16.6765 H   0  0  0  0  0  0  0  0  0  0  0  0
   19.8751    3.6103   14.5787 H   0  0  0  0  0  0  0  0  0  0  0  0
   17.0529    3.0700   16.6432 N   0  0  0  0  0  0  0  0  0  0  0  0
   16.8113    1.7691   17.0788 C   0  0  0  0  0  0  0  0  0  0  0  0
   15.5376    1.3965   16.8860 N   0  0  0  0  0  0  0  0  0  0  0  0
   14.8866    2.5312   16.2773 C   0  0  0  0  0  0  0  0  0  0  0  0
   13.4852    2.8533   15.7837 C   0  0  0  0  0  0  0  0  0  0  0  0
   12.5821    2.0207   15.8573 O   0  0  0  0  0  0  0  0  0  0  0  0
   13.1668    4.0686   15.2317 N   0  0  0  0  0  0  0  0  0  0  0  0
   14.1042    5.1112   15.0840 C   0  0  0  0  0  0  0  0  0  0  0  0
   13.7714    6.2868   14.5464 N   0  0  0  0  0  0  0  0  0  0  0  0
   15.4032    4.8223   15.5374 N   0  0  0  0  0  0  0  0  0  0  0  0
   15.7988    3.5134   16.1454 C   0  0  0  0  0  0  0  0  0  0  0  0
   12.2434    4.2190   14.9253 H   0  0  0  0  0  0  0  0  0  0  0  0
   12.8486    6.4455   14.2422 H   0  0  0  0  0  0  0  0  0  0  0  0
   14.4488    6.9953   14.4540 H   0  0  0  0  0  0  0  0  0  0  0  0
   17.5676    7.1764   17.5013 C   0  0  0  0  0  0  0  0  0  0  0  0
   17.9617    8.1365   18.4752 O   0  0  0  0  0  0  0  0  0  0  0  0
   18.0997    9.5937   18.1334 P   0  0  0  0  0  0  0  0  0  0  0  0
   17.0916   10.4229   18.9149 O   0  0  0  0  0  0  0  0  0  0  0  0
   17.8234    9.9143   16.6602 O   0  0  0  0  0  0  0  0  0  0  0  0
   17.9300   10.8668   16.5111 H   0  0  0  0  0  0  0  0  0  0  0  0
   19.5304    9.9251   18.4686 O   0  0  0  0  0  0  0  0  0  0  0  0
   20.3675   11.2726   18.6329 P   0  0  0  0  0  0  0  0  0  0  0  0
   20.7711   11.5085   20.0563 O   0  0  0  0  0  0  0  0  0  0  0  0
   19.3118   12.2870   18.1552 O   0  0  0  0  0  0  0  0  0  0  0  0
   21.3767   11.3345   17.4911 O   0  0  0  0  0  0  0  0  0  0  0  0
   19.6816   13.1827   18.1979 H   0  0  0  0  0  0  0  0  0  0  0  0
   21.9012   12.1469   17.5668 H   0  0  0  0  0  0  0  0  0  0  0  0
 31 32  2  0  0  0
 31 33  1  0  0  0
 31 34  1  0  0  0
 31 30  1  0  0  0
 30 26  1  0  0  0
 26 27  2  0  0  0
 26 28  1  0  0  0
 26 25  1  0  0  0
 25 24  1  0  0  0
 24  1  1  0  0  0
  1  2  1  0  0  0
  1  3  1  0  0  0
  2  7  1  0  0  0
  3  4  1  0  0  0
  3  5  1  0  0  0
  5  6  1  0  0  0
  5  7  1  0  0  0
  7 10  1  0  0  0
 10 11  1  0  0  0
 10 20  1  0  0  0
 11 12  2  0  0  0
 12 13  1  0  0  0
 13 14  1  0  0  0
 13 20  2  0  0  0
 14 15  2  0  0  0
 14 16  1  0  0  0
 16 17  1  0  0  0
 17 18  1  0  0  0
 17 19  2  0  0  0
 19 20  1  0  0  0
 33 35  1  0  0  0
 34 36  1  0  0  0
 28 29  1  0  0  0
  4  8  1  0  0  0
  6  9  1  0  0  0
 16 21  1  0  0  0
 18 22  1  0  0  0
 18 23  1  0  0  0
M  END
> <minimizedAffinity>
-6.93014

$$$$
