2ZXD_ZXD_A_901
  RCSB PDB12061707473D
Coordinates from PDB:2ZXD:A:901 Model:1 without hydrogens
 12 12  0  0  0  0            999 V2000
    1.4890   29.4010   26.9320   C 0  0  0  0  0  0  0  0  0  0  0  0
    1.2300   28.9010   25.5070   C 0  0  0  0  0  0  0  0  0  0  0  0
    2.3070   27.8780   25.1350   C 0  0  0  0  0  0  0  0  0  0  0  0
   -0.1720   28.2870   25.4200   C 0  0  0  0  0  0  0  0  0  0  0  0
   -0.2240   27.0110   26.1540   N 0  0  0  0  0  0  0  0  0  0  0  0
   -1.6000   26.4880   26.1950   C 0  0  0  0  0  0  0  0  0  0  0  0
   -2.0660   26.2140   24.7590   C 0  0  0  0  0  0  0  0  0  0  0  0
   -3.3820   25.6550   24.7520   O 0  0  0  0  0  0  0  0  0  0  0  0
   -2.0570   27.5250   23.9690   C 0  0  0  0  0  0  0  0  0  0  0  0
   -2.4910   27.2890   22.6290   O 0  0  0  0  0  0  0  0  0  0  0  0
   -0.6340   28.0860   23.9730   C 0  0  0  0  0  0  0  0  0  0  0  0
    0.2340   27.1550   23.3240   O 0  0  0  0  0  0  0  0  0  0  0  0
  1  2  1  0  0  0  0
  2  3  1  0  0  0  0
  2  4  1  0  0  0  0
  4  5  1  0  0  0  0
  4 11  1  0  0  0  0
  5  6  1  0  0  0  0
  6  7  1  0  0  0  0
  7  8  1  0  0  0  0
  7  9  1  0  0  0  0
  9 10  1  0  0  0  0
  9 11  1  0  0  0  0
 11 12  1  0  0  0  0
A    1
CAA
A    2
CAH
A    3
CAB
A    4
CAL
A    5
NAG
A    6
CAF
A    7
CAI
A    8
OAC
A    9
CAJ
A   10
OAD
A   11
CAK
A   12
OAE
M  END
>  <InstanceId>
2ZXD_ZXD_A_901

>  <ChemCompId>
ZXD

>  <PdbId>
2ZXD

>  <ChainId>
A

>  <ResidueNumber>
901

>  <InsertionCode>


>  <Model>
1

>  <AltIds>


>  <MissingHeavyAtoms>
0

>  <ObservedFormula>
C8 N O3

>  <Name>
(2S,3R,4S,5R)-2-(1-methylethyl)piperidine-3,4,5-triol

>  <SystematicName>
(2S,3R,4S,5R)-2-propan-2-ylpiperidine-3,4,5-triol

>  <Synonyms>


>  <Type>
NON-POLYMER

>  <Formula>
C8 H17 N O3

>  <MolecularWeight>
175.225

>  <ModifiedDate>
2011-06-04

>  <Parent>


>  <OneLetterCode>


>  <SubcomponentList>


>  <AmbiguousFlag>
N

>  <InChI>
InChI=1S/C8H17NO3/c1-4(2)6-8(12)7(11)5(10)3-9-6/h4-12H,3H2,1-2H3/t5-,6+,7+,8-/m1/s1

>  <InChIKey>
WNBLNSHOIGFFFW-VGRMVHKJSA-N

>  <SMILES>
CC(C)[C@H]1[C@H]([C@H]([C@@H](CN1)O)O)O

$$$$
