3IPU_O40_A_801


 36 38  0  0  0  0  0  0  0  0999 V2000
   21.8579  -16.5537   17.9820 C   0  0  0  0  0  0  0  0  0  0  0  0
   22.8073  -16.7227   19.0480 O   0  0  0  0  0  0  0  0  0  0  0  0
   24.0446  -14.6403   19.0355 C   0  0  0  0  0  0  0  0  0  0  0  0
   24.0220  -16.0470   19.0553 C   0  0  0  0  0  0  0  0  0  0  0  0
   25.2124  -16.8091   19.0741 C   0  0  0  0  0  0  0  0  0  0  0  0
   26.4152  -16.0960   19.0785 C   0  0  0  0  0  0  0  0  0  0  0  0
   26.3922  -14.7193   19.0639 C   0  0  0  0  0  0  0  0  0  0  0  0
   25.2459  -13.9476   19.0438 C   0  0  0  0  0  0  0  0  0  0  0  0
   27.7034  -16.6350   19.1040 O   0  0  0  0  0  0  0  0  0  0  0  0
   28.5830  -15.4953   19.1086 N   0  0  0  0  0  0  0  0  0  0  0  0
   27.8470  -14.4414   19.0661 C   0  0  0  0  0  0  0  0  0  0  0  0
   28.3183  -13.0203   19.0944 C   0  0  0  0  0  0  0  0  0  0  0  0
   29.6127  -12.9982   18.6293 F   0  0  0  0  0  0  0  0  0  0  0  0
   28.2541  -12.6714   20.4104 F   0  0  0  0  0  0  0  0  0  0  0  0
   27.5048  -12.1460   18.4255 F   0  0  0  0  0  0  0  0  0  0  0  0
   25.2166  -18.3421   19.0893 C   0  0  0  0  0  0  0  0  0  0  0  0
   25.2529  -18.9231   17.6459 C   0  0  0  0  0  0  0  0  0  0  0  0
   23.9435  -19.6532   17.2551 C   0  0  0  0  0  0  0  0  0  0  0  0
   20.6696  -15.7817   18.5950 C   0  0  0  0  0  0  0  0  0  0  0  0
   20.0977  -16.5410   19.8186 C   0  0  0  0  0  0  0  0  0  0  0  0
   18.8875  -17.3267   19.4837 N   0  0  0  0  0  0  0  0  0  0  0  0
   18.9629  -18.7898   19.4887 C   0  0  0  0  0  0  0  0  0  0  0  0
   17.6947  -16.7005   19.2097 C   0  0  0  0  0  0  0  0  0  0  0  0
   16.5817  -17.3466   18.9367 N   0  0  0  0  0  0  0  0  0  0  0  0
   17.6642  -15.4874   19.2120 O   0  0  0  0  0  0  0  0  0  0  0  0
   16.6302  -18.3291   18.9770 H   0  0  0  0  0  0  0  0  0  0  0  0
   14.1572  -17.4353   18.9778 C   0  0  0  0  0  0  0  0  0  0  0  0
   12.9251  -16.8701   18.6366 C   0  0  0  0  0  0  0  0  0  0  0  0
   12.8654  -15.6696   17.9186 C   0  0  0  0  0  0  0  0  0  0  0  0
   14.0575  -15.0380   17.5529 C   0  0  0  0  0  0  0  0  0  0  0  0
   15.2816  -15.6090   17.8842 C   0  0  0  0  0  0  0  0  0  0  0  0
   15.3620  -16.8159   18.6028 C   0  0  0  0  0  0  0  0  0  0  0  0
   10.4162  -15.5790   18.1233 O   0  0  0  0  0  0  0  0  0  0  0  0
   11.5246  -15.0574   17.5624 C   0  0  0  0  0  0  0  0  0  0  0  0
   11.4796  -14.0974   16.7887 O   0  0  0  0  0  0  0  0  0  0  0  0
   12.2697  -13.7588   16.4158 H   0  0  0  0  0  0  0  0  0  0  0  0
  4  3  2  0  0  0
  3  8  1  0  0  0
  2  4  1  0  0  0
  4  5  1  0  0  0
 16  5  1  0  0  0
  5  6  2  0  0  0
  6  7  1  0  0  0
  6  9  1  0  0  0
  8  7  2  0  0  0
  7 11  1  0  0  0
  9 10  1  0  0  0
 11 10  2  0  0  0
 11 12  1  0  0  0
 28 27  2  0  0  0
 27 32  1  0  0  0
  1  2  1  0  0  0
 17 16  1  0  0  0
 28 29  1  0  0  0
 15 12  1  0  0  0
 12 13  1  0  0  0
 12 14  1  0  0  0
 19  1  1  0  0  0
 34 29  1  0  0  0
 29 30  2  0  0  0
 18 17  1  0  0  0
 30 31  1  0  0  0
 32 31  2  0  0  0
 23 21  1  0  0  0
 21 22  1  0  0  0
 21 20  1  0  0  0
 24 23  1  0  0  0
 25 23  2  0  0  0
 32 24  1  0  0  0
 19 20  1  0  0  0
 33 34  2  0  0  0
 34 35  1  0  0  0
 24 26  1  0  0  0
 35 36  1  0  0  0
M  END
> <minimizedAffinity>
-11.09380

$$$$
3IPU_O40_A_801


 36 38  0  0  0  0  0  0  0  0999 V2000
   18.1162  -15.7305   18.1447 C   0  0  0  0  0  0  0  0  0  0  0  0
   17.0679  -15.5220   19.1059 O   0  0  0  0  0  0  0  0  0  0  0  0
   15.1902  -14.3673   18.1018 C   0  0  0  0  0  0  0  0  0  0  0  0
   15.7295  -15.5042   18.7314 C   0  0  0  0  0  0  0  0  0  0  0  0
   14.9411  -16.6444   19.0081 C   0  0  0  0  0  0  0  0  0  0  0  0
   13.5990  -16.5901   18.6194 C   0  0  0  0  0  0  0  0  0  0  0  0
   13.1130  -15.4597   18.0012 C   0  0  0  0  0  0  0  0  0  0  0  0
   13.8579  -14.3304   17.7191 C   0  0  0  0  0  0  0  0  0  0  0  0
   12.6427  -17.5948   18.7831 O   0  0  0  0  0  0  0  0  0  0  0  0
   11.4356  -17.0550   18.2138 N   0  0  0  0  0  0  0  0  0  0  0  0
   11.7027  -15.8661   17.8024 C   0  0  0  0  0  0  0  0  0  0  0  0
   10.7658  -14.9310   17.1021 C   0  0  0  0  0  0  0  0  0  0  0  0
    9.8056  -14.5432   18.0076 F   0  0  0  0  0  0  0  0  0  0  0  0
   10.2314  -15.6810   16.0974 F   0  0  0  0  0  0  0  0  0  0  0  0
   11.3811  -13.8664   16.5007 F   0  0  0  0  0  0  0  0  0  0  0  0
   15.5013  -17.8934   19.6986 C   0  0  0  0  0  0  0  0  0  0  0  0
   16.0259  -18.9276   18.6604 C   0  0  0  0  0  0  0  0  0  0  0  0
   17.5242  -19.2712   18.8538 C   0  0  0  0  0  0  0  0  0  0  0  0
   19.3676  -16.1148   18.9635 C   0  0  0  0  0  0  0  0  0  0  0  0
   20.5891  -16.3168   18.0318 C   0  0  0  0  0  0  0  0  0  0  0  0
   21.6970  -17.0402   18.6978 N   0  0  0  0  0  0  0  0  0  0  0  0
   21.4697  -18.4047   19.1802 C   0  0  0  0  0  0  0  0  0  0  0  0
   22.9370  -16.4616   18.8301 C   0  0  0  0  0  0  0  0  0  0  0  0
   23.9651  -17.0672   19.3839 N   0  0  0  0  0  0  0  0  0  0  0  0
   23.0938  -15.3296   18.4218 O   0  0  0  0  0  0  0  0  0  0  0  0
   23.8161  -17.9963   19.6733 H   0  0  0  0  0  0  0  0  0  0  0  0
   25.4372  -15.4788   20.4783 C   0  0  0  0  0  0  0  0  0  0  0  0
   26.7263  -14.9855   20.6992 C   0  0  0  0  0  0  0  0  0  0  0  0
   27.8303  -15.5633   20.0608 C   0  0  0  0  0  0  0  0  0  0  0  0
   27.6268  -16.6479   19.2029 C   0  0  0  0  0  0  0  0  0  0  0  0
   26.3417  -17.1288   18.9766 C   0  0  0  0  0  0  0  0  0  0  0  0
   25.2197  -16.5598   19.6066 C   0  0  0  0  0  0  0  0  0  0  0  0
   29.8003  -15.2854   21.5069 O   0  0  0  0  0  0  0  0  0  0  0  0
   29.2267  -15.0293   20.3149 C   0  0  0  0  0  0  0  0  0  0  0  0
   29.8059  -14.3934   19.4304 O   0  0  0  0  0  0  0  0  0  0  0  0
   29.3782  -14.2327   18.6123 H   0  0  0  0  0  0  0  0  0  0  0  0
  4  3  2  0  0  0
  3  8  1  0  0  0
  2  4  1  0  0  0
  4  5  1  0  0  0
 16  5  1  0  0  0
  5  6  2  0  0  0
  6  7  1  0  0  0
  6  9  1  0  0  0
  8  7  2  0  0  0
  7 11  1  0  0  0
  9 10  1  0  0  0
 11 10  2  0  0  0
 11 12  1  0  0  0
 28 27  2  0  0  0
 27 32  1  0  0  0
  1  2  1  0  0  0
 17 16  1  0  0  0
 28 29  1  0  0  0
 15 12  1  0  0  0
 12 13  1  0  0  0
 12 14  1  0  0  0
 19  1  1  0  0  0
 34 29  1  0  0  0
 29 30  2  0  0  0
 18 17  1  0  0  0
 30 31  1  0  0  0
 32 31  2  0  0  0
 23 21  1  0  0  0
 21 22  1  0  0  0
 21 20  1  0  0  0
 24 23  1  0  0  0
 25 23  2  0  0  0
 32 24  1  0  0  0
 19 20  1  0  0  0
 33 34  2  0  0  0
 34 35  1  0  0  0
 24 26  1  0  0  0
 35 36  1  0  0  0
M  END
> <minimizedAffinity>
-10.33234

$$$$
3IPU_O40_A_801


 36 38  0  0  0  0  0  0  0  0999 V2000
   21.8845  -15.6383   18.6626 C   0  0  0  0  0  0  0  0  0  0  0  0
   22.9802  -16.1967   19.4069 O   0  0  0  0  0  0  0  0  0  0  0  0
   24.4514  -14.2733   19.3464 C   0  0  0  0  0  0  0  0  0  0  0  0
   24.2627  -15.6673   19.3223 C   0  0  0  0  0  0  0  0  0  0  0  0
   25.3505  -16.5625   19.2045 C   0  0  0  0  0  0  0  0  0  0  0  0
   26.6254  -15.9946   19.1195 C   0  0  0  0  0  0  0  0  0  0  0  0
   26.7658  -14.6251   19.1520 C   0  0  0  0  0  0  0  0  0  0  0  0
   25.7228  -13.7257   19.2647 C   0  0  0  0  0  0  0  0  0  0  0  0
   27.8371  -16.6800   19.0065 O   0  0  0  0  0  0  0  0  0  0  0  0
   28.8434  -15.6513   18.9658 N   0  0  0  0  0  0  0  0  0  0  0  0
   28.2378  -14.5183   19.0269 C   0  0  0  0  0  0  0  0  0  0  0  0
   28.8762  -13.1640   19.0573 C   0  0  0  0  0  0  0  0  0  0  0  0
   28.1361  -12.3331   18.2485 F   0  0  0  0  0  0  0  0  0  0  0  0
   30.1253  -13.3702   18.5526 F   0  0  0  0  0  0  0  0  0  0  0  0
   29.0501  -12.6539   20.3156 F   0  0  0  0  0  0  0  0  0  0  0  0
   25.1728  -18.0849   19.1692 C   0  0  0  0  0  0  0  0  0  0  0  0
   25.4680  -18.6572   17.7522 C   0  0  0  0  0  0  0  0  0  0  0  0
   24.2869  -18.4709   16.7671 C   0  0  0  0  0  0  0  0  0  0  0  0
   21.1750  -16.8365   17.9955 C   0  0  0  0  0  0  0  0  0  0  0  0
   20.2172  -17.5305   18.9964 C   0  0  0  0  0  0  0  0  0  0  0  0
   18.8370  -16.9976   18.9234 N   0  0  0  0  0  0  0  0  0  0  0  0
   18.6020  -15.7150   18.2555 C   0  0  0  0  0  0  0  0  0  0  0  0
   17.7791  -17.7093   19.4375 C   0  0  0  0  0  0  0  0  0  0  0  0
   16.5302  -17.3008   19.3739 N   0  0  0  0  0  0  0  0  0  0  0  0
   18.0058  -18.7678   19.9859 O   0  0  0  0  0  0  0  0  0  0  0  0
   16.3748  -16.4562   18.8925 H   0  0  0  0  0  0  0  0  0  0  0  0
   15.5184  -18.9559   20.8315 C   0  0  0  0  0  0  0  0  0  0  0  0
   14.3716  -19.5545   21.3611 C   0  0  0  0  0  0  0  0  0  0  0  0
   13.0976  -19.1194   20.9767 C   0  0  0  0  0  0  0  0  0  0  0  0
   12.9871  -18.0706   20.0593 C   0  0  0  0  0  0  0  0  0  0  0  0
   14.1301  -17.4850   19.5258 C   0  0  0  0  0  0  0  0  0  0  0  0
   15.4187  -17.9101   19.8976 C   0  0  0  0  0  0  0  0  0  0  0  0
   12.0220  -20.7458   22.4757 O   0  0  0  0  0  0  0  0  0  0  0  0
   11.8587  -19.7666   21.5647 C   0  0  0  0  0  0  0  0  0  0  0  0
   10.7423  -19.3770   21.2123 O   0  0  0  0  0  0  0  0  0  0  0  0
   10.6639  -18.6936   20.5761 H   0  0  0  0  0  0  0  0  0  0  0  0
  4  3  2  0  0  0
  3  8  1  0  0  0
  2  4  1  0  0  0
  4  5  1  0  0  0
 16  5  1  0  0  0
  5  6  2  0  0  0
  6  7  1  0  0  0
  6  9  1  0  0  0
  8  7  2  0  0  0
  7 11  1  0  0  0
  9 10  1  0  0  0
 11 10  2  0  0  0
 11 12  1  0  0  0
 28 27  2  0  0  0
 27 32  1  0  0  0
  1  2  1  0  0  0
 17 16  1  0  0  0
 28 29  1  0  0  0
 15 12  1  0  0  0
 12 13  1  0  0  0
 12 14  1  0  0  0
 19  1  1  0  0  0
 34 29  1  0  0  0
 29 30  2  0  0  0
 18 17  1  0  0  0
 30 31  1  0  0  0
 32 31  2  0  0  0
 23 21  1  0  0  0
 21 22  1  0  0  0
 21 20  1  0  0  0
 24 23  1  0  0  0
 25 23  2  0  0  0
 32 24  1  0  0  0
 19 20  1  0  0  0
 33 34  2  0  0  0
 34 35  1  0  0  0
 24 26  1  0  0  0
 35 36  1  0  0  0
M  END
> <minimizedAffinity>
-10.10622

$$$$
3IPU_O40_A_801


 36 38  0  0  0  0  0  0  0  0999 V2000
   17.2305  -15.4089   18.2858 C   0  0  0  0  0  0  0  0  0  0  0  0
   18.1829  -15.8550   19.2657 O   0  0  0  0  0  0  0  0  0  0  0  0
   20.3703  -15.4335   18.3143 C   0  0  0  0  0  0  0  0  0  0  0  0
   19.4428  -16.3145   18.9001 C   0  0  0  0  0  0  0  0  0  0  0  0
   19.7509  -17.6756   19.1254 C   0  0  0  0  0  0  0  0  0  0  0  0
   21.0262  -18.1030   18.7433 C   0  0  0  0  0  0  0  0  0  0  0  0
   21.9053  -17.2065   18.1779 C   0  0  0  0  0  0  0  0  0  0  0  0
   21.6326  -15.8720   17.9440 C   0  0  0  0  0  0  0  0  0  0  0  0
   21.5481  -19.3916   18.8769 O   0  0  0  0  0  0  0  0  0  0  0  0
   22.8851  -19.3074   18.3499 N   0  0  0  0  0  0  0  0  0  0  0  0
   23.0647  -18.0990   17.9480 C   0  0  0  0  0  0  0  0  0  0  0  0
   24.3198  -17.5286   17.3631 C   0  0  0  0  0  0  0  0  0  0  0  0
   25.2444  -18.5440   17.2830 F   0  0  0  0  0  0  0  0  0  0  0  0
   24.7026  -16.5733   18.2566 F   0  0  0  0  0  0  0  0  0  0  0  0
   24.1402  -16.8862   16.1678 F   0  0  0  0  0  0  0  0  0  0  0  0
   18.7572  -18.6584   19.7557 C   0  0  0  0  0  0  0  0  0  0  0  0
   17.9545  -19.4289   18.6674 C   0  0  0  0  0  0  0  0  0  0  0  0
   16.4725  -18.9855   18.5822 C   0  0  0  0  0  0  0  0  0  0  0  0
   15.9960  -14.9361   19.0836 C   0  0  0  0  0  0  0  0  0  0  0  0
   14.8627  -15.9903   19.0119 C   0  0  0  0  0  0  0  0  0  0  0  0
   13.7548  -15.5725   18.1219 N   0  0  0  0  0  0  0  0  0  0  0  0
   13.8562  -14.2979   17.4068 C   0  0  0  0  0  0  0  0  0  0  0  0
   12.6601  -16.3823   17.9322 C   0  0  0  0  0  0  0  0  0  0  0  0
   11.6622  -16.0777   17.1309 N   0  0  0  0  0  0  0  0  0  0  0  0
   12.6044  -17.4314   18.5396 O   0  0  0  0  0  0  0  0  0  0  0  0
   11.7531  -15.2374   16.6261 H   0  0  0  0  0  0  0  0  0  0  0  0
   10.3772  -17.6694   15.8258 C   0  0  0  0  0  0  0  0  0  0  0  0
    9.1981  -18.3944   15.6313 C   0  0  0  0  0  0  0  0  0  0  0  0
    8.1259  -18.2648   16.5222 C   0  0  0  0  0  0  0  0  0  0  0  0
    8.2530  -17.4039   17.6160 C   0  0  0  0  0  0  0  0  0  0  0  0
    9.4234  -16.6755   17.8001 C   0  0  0  0  0  0  0  0  0  0  0  0
   10.5105  -16.7902   16.9144 C   0  0  0  0  0  0  0  0  0  0  0  0
    6.1758  -18.8887   15.1594 O   0  0  0  0  0  0  0  0  0  0  0  0
    6.8545  -19.0636   16.3102 C   0  0  0  0  0  0  0  0  0  0  0  0
    6.4822  -19.8577   17.1779 O   0  0  0  0  0  0  0  0  0  0  0  0
    6.9776  -19.9553   17.9673 H   0  0  0  0  0  0  0  0  0  0  0  0
  4  3  2  0  0  0
  3  8  1  0  0  0
  2  4  1  0  0  0
  4  5  1  0  0  0
 16  5  1  0  0  0
  5  6  2  0  0  0
  6  7  1  0  0  0
  6  9  1  0  0  0
  8  7  2  0  0  0
  7 11  1  0  0  0
  9 10  1  0  0  0
 11 10  2  0  0  0
 11 12  1  0  0  0
 28 27  2  0  0  0
 27 32  1  0  0  0
  1  2  1  0  0  0
 17 16  1  0  0  0
 28 29  1  0  0  0
 15 12  1  0  0  0
 12 13  1  0  0  0
 12 14  1  0  0  0
 19  1  1  0  0  0
 34 29  1  0  0  0
 29 30  2  0  0  0
 18 17  1  0  0  0
 30 31  1  0  0  0
 32 31  2  0  0  0
 23 21  1  0  0  0
 21 22  1  0  0  0
 21 20  1  0  0  0
 24 23  1  0  0  0
 25 23  2  0  0  0
 32 24  1  0  0  0
 19 20  1  0  0  0
 33 34  2  0  0  0
 34 35  1  0  0  0
 24 26  1  0  0  0
 35 36  1  0  0  0
M  END
> <minimizedAffinity>
-10.01967

$$$$
3IPU_O40_A_801


 36 38  0  0  0  0  0  0  0  0999 V2000
   25.6548  -19.0399   19.0610 C   0  0  0  0  0  0  0  0  0  0  0  0
   25.6533  -17.8799   19.9100 O   0  0  0  0  0  0  0  0  0  0  0  0
   27.8099  -16.8702   19.4662 C   0  0  0  0  0  0  0  0  0  0  0  0
   26.4149  -16.7567   19.6094 C   0  0  0  0  0  0  0  0  0  0  0  0
   25.7515  -15.5168   19.4639 C   0  0  0  0  0  0  0  0  0  0  0  0
   26.5494  -14.4084   19.1640 C   0  0  0  0  0  0  0  0  0  0  0  0
   27.9107  -14.5647   19.0274 C   0  0  0  0  0  0  0  0  0  0  0  0
   28.5871  -15.7619   19.1651 C   0  0  0  0  0  0  0  0  0  0  0  0
   26.1133  -13.0960   18.9693 O   0  0  0  0  0  0  0  0  0  0  0  0
   27.3079  -12.3468   18.6791 N   0  0  0  0  0  0  0  0  0  0  0  0
   28.2981  -13.1657   18.7335 C   0  0  0  0  0  0  0  0  0  0  0  0
   29.7362  -12.8487   18.4615 C   0  0  0  0  0  0  0  0  0  0  0  0
   30.2221  -12.1459   19.5395 F   0  0  0  0  0  0  0  0  0  0  0  0
   29.7035  -12.0794   17.3368 F   0  0  0  0  0  0  0  0  0  0  0  0
   30.5035  -13.9407   18.1573 F   0  0  0  0  0  0  0  0  0  0  0  0
   24.2341  -15.3637   19.6210 C   0  0  0  0  0  0  0  0  0  0  0  0
   23.5112  -15.4423   18.2449 C   0  0  0  0  0  0  0  0  0  0  0  0
   22.0588  -14.9051   18.2936 C   0  0  0  0  0  0  0  0  0  0  0  0
   25.1588  -18.5531   17.6823 C   0  0  0  0  0  0  0  0  0  0  0  0
   23.9326  -19.3797   17.2197 C   0  0  0  0  0  0  0  0  0  0  0  0
   22.9069  -19.5148   18.2798 N   0  0  0  0  0  0  0  0  0  0  0  0
   23.1646  -20.4082   19.4119 C   0  0  0  0  0  0  0  0  0  0  0  0
   21.7429  -18.7851   18.2307 C   0  0  0  0  0  0  0  0  0  0  0  0
   20.8116  -18.8409   19.1582 N   0  0  0  0  0  0  0  0  0  0  0  0
   21.5576  -18.0547   17.2795 O   0  0  0  0  0  0  0  0  0  0  0  0
   21.0066  -19.4152   19.9337 H   0  0  0  0  0  0  0  0  0  0  0  0
   19.5079  -16.8027   19.3420 C   0  0  0  0  0  0  0  0  0  0  0  0
   18.2644  -16.1641   19.3437 C   0  0  0  0  0  0  0  0  0  0  0  0
   17.0850  -16.8988   19.1718 C   0  0  0  0  0  0  0  0  0  0  0  0
   17.1680  -18.2822   18.9903 C   0  0  0  0  0  0  0  0  0  0  0  0
   18.4060  -18.9158   19.0005 C   0  0  0  0  0  0  0  0  0  0  0  0
   19.6018  -18.1951   19.1747 C   0  0  0  0  0  0  0  0  0  0  0  0
   15.6223  -15.0386   19.8420 O   0  0  0  0  0  0  0  0  0  0  0  0
   15.7410  -16.1966   19.1635 C   0  0  0  0  0  0  0  0  0  0  0  0
   14.8017  -16.6865   18.5311 O   0  0  0  0  0  0  0  0  0  0  0  0
   14.9179  -17.4938   18.0698 H   0  0  0  0  0  0  0  0  0  0  0  0
  4  3  2  0  0  0
  3  8  1  0  0  0
  2  4  1  0  0  0
  4  5  1  0  0  0
 16  5  1  0  0  0
  5  6  2  0  0  0
  6  7  1  0  0  0
  6  9  1  0  0  0
  8  7  2  0  0  0
  7 11  1  0  0  0
  9 10  1  0  0  0
 11 10  2  0  0  0
 11 12  1  0  0  0
 28 27  2  0  0  0
 27 32  1  0  0  0
  1  2  1  0  0  0
 17 16  1  0  0  0
 28 29  1  0  0  0
 15 12  1  0  0  0
 12 13  1  0  0  0
 12 14  1  0  0  0
 19  1  1  0  0  0
 34 29  1  0  0  0
 29 30  2  0  0  0
 18 17  1  0  0  0
 30 31  1  0  0  0
 32 31  2  0  0  0
 23 21  1  0  0  0
 21 22  1  0  0  0
 21 20  1  0  0  0
 24 23  1  0  0  0
 25 23  2  0  0  0
 32 24  1  0  0  0
 19 20  1  0  0  0
 33 34  2  0  0  0
 34 35  1  0  0  0
 24 26  1  0  0  0
 35 36  1  0  0  0
M  END
> <minimizedAffinity>
-9.81766

$$$$
3IPU_O40_A_801


 36 38  0  0  0  0  0  0  0  0999 V2000
   20.0428  -16.7217   18.7040 C   0  0  0  0  0  0  0  0  0  0  0  0
   21.3022  -17.3337   18.3787 O   0  0  0  0  0  0  0  0  0  0  0  0
   22.7403  -15.4031   18.6471 C   0  0  0  0  0  0  0  0  0  0  0  0
   22.5086  -16.7829   18.7951 C   0  0  0  0  0  0  0  0  0  0  0  0
   23.4805  -17.6437   19.3544 C   0  0  0  0  0  0  0  0  0  0  0  0
   24.6824  -17.0554   19.7598 C   0  0  0  0  0  0  0  0  0  0  0  0
   24.8661  -15.7000   19.6015 C   0  0  0  0  0  0  0  0  0  0  0  0
   23.9365  -14.8342   19.0575 C   0  0  0  0  0  0  0  0  0  0  0  0
   25.7735  -17.7049   20.3415 O   0  0  0  0  0  0  0  0  0  0  0  0
   26.7414  -16.6659   20.5782 N   0  0  0  0  0  0  0  0  0  0  0  0
   26.2365  -15.5645   20.1468 C   0  0  0  0  0  0  0  0  0  0  0  0
   26.8627  -14.2060   20.2173 C   0  0  0  0  0  0  0  0  0  0  0  0
   28.1525  -14.3615   20.6694 F   0  0  0  0  0  0  0  0  0  0  0  0
   26.0956  -13.5290   21.1177 F   0  0  0  0  0  0  0  0  0  0  0  0
   26.7978  -13.4970   19.0481 F   0  0  0  0  0  0  0  0  0  0  0  0
   23.2568  -19.1513   19.5212 C   0  0  0  0  0  0  0  0  0  0  0  0
   23.4800  -19.9092   18.1802 C   0  0  0  0  0  0  0  0  0  0  0  0
   24.8175  -19.5384   17.4918 C   0  0  0  0  0  0  0  0  0  0  0  0
   19.1654  -17.8495   19.2889 C   0  0  0  0  0  0  0  0  0  0  0  0
   17.8373  -17.2762   19.8442 C   0  0  0  0  0  0  0  0  0  0  0  0
   16.6667  -17.6571   19.0203 N   0  0  0  0  0  0  0  0  0  0  0  0
   16.6365  -18.9804   18.3924 C   0  0  0  0  0  0  0  0  0  0  0  0
   15.6001  -16.8021   18.8741 C   0  0  0  0  0  0  0  0  0  0  0  0
   14.5219  -17.0985   18.1812 N   0  0  0  0  0  0  0  0  0  0  0  0
   15.6552  -15.7123   19.4053 O   0  0  0  0  0  0  0  0  0  0  0  0
   14.4922  -18.0023   17.7919 H   0  0  0  0  0  0  0  0  0  0  0  0
   13.5750  -14.9640   17.5218 C   0  0  0  0  0  0  0  0  0  0  0  0
   12.4521  -14.1718   17.2661 C   0  0  0  0  0  0  0  0  0  0  0  0
   11.1617  -14.6954   17.4108 C   0  0  0  0  0  0  0  0  0  0  0  0
   11.0107  -16.0269   17.8084 C   0  0  0  0  0  0  0  0  0  0  0  0
   12.1299  -16.8089   18.0730 C   0  0  0  0  0  0  0  0  0  0  0  0
   13.4343  -16.2998   17.9359 C   0  0  0  0  0  0  0  0  0  0  0  0
    9.0800  -13.5957   18.1223 O   0  0  0  0  0  0  0  0  0  0  0  0
    9.9491  -13.8324   17.1203 C   0  0  0  0  0  0  0  0  0  0  0  0
    9.7947  -13.3591   15.9914 O   0  0  0  0  0  0  0  0  0  0  0  0
   10.4182  -13.5435   15.3167 H   0  0  0  0  0  0  0  0  0  0  0  0
  4  3  2  0  0  0
  3  8  1  0  0  0
  2  4  1  0  0  0
  4  5  1  0  0  0
 16  5  1  0  0  0
  5  6  2  0  0  0
  6  7  1  0  0  0
  6  9  1  0  0  0
  8  7  2  0  0  0
  7 11  1  0  0  0
  9 10  1  0  0  0
 11 10  2  0  0  0
 11 12  1  0  0  0
 28 27  2  0  0  0
 27 32  1  0  0  0
  1  2  1  0  0  0
 17 16  1  0  0  0
 28 29  1  0  0  0
 15 12  1  0  0  0
 12 13  1  0  0  0
 12 14  1  0  0  0
 19  1  1  0  0  0
 34 29  1  0  0  0
 29 30  2  0  0  0
 18 17  1  0  0  0
 30 31  1  0  0  0
 32 31  2  0  0  0
 23 21  1  0  0  0
 21 22  1  0  0  0
 21 20  1  0  0  0
 24 23  1  0  0  0
 25 23  2  0  0  0
 32 24  1  0  0  0
 19 20  1  0  0  0
 33 34  2  0  0  0
 34 35  1  0  0  0
 24 26  1  0  0  0
 35 36  1  0  0  0
M  END
> <minimizedAffinity>
-9.53580

$$$$
3IPU_O40_A_801


 36 38  0  0  0  0  0  0  0  0999 V2000
   18.6234  -18.7616   19.4168 C   0  0  0  0  0  0  0  0  0  0  0  0
   17.9014  -17.6778   20.0253 O   0  0  0  0  0  0  0  0  0  0  0  0
   16.4917  -16.2159   18.7051 C   0  0  0  0  0  0  0  0  0  0  0  0
   16.6373  -17.3057   19.5830 C   0  0  0  0  0  0  0  0  0  0  0  0
   15.5224  -18.0420   20.0447 C   0  0  0  0  0  0  0  0  0  0  0  0
   14.2666  -17.6381   19.5809 C   0  0  0  0  0  0  0  0  0  0  0  0
   14.1694  -16.5692   18.7184 C   0  0  0  0  0  0  0  0  0  0  0  0
   15.2395  -15.8299   18.2513 C   0  0  0  0  0  0  0  0  0  0  0  0
   13.0359  -18.2188   19.8952 O   0  0  0  0  0  0  0  0  0  0  0  0
   12.0643  -17.4496   19.1625 N   0  0  0  0  0  0  0  0  0  0  0  0
   12.7007  -16.5275   18.5309 C   0  0  0  0  0  0  0  0  0  0  0  0
   12.1121  -15.5094   17.6038 C   0  0  0  0  0  0  0  0  0  0  0  0
   10.9489  -15.0461   18.1736 F   0  0  0  0  0  0  0  0  0  0  0  0
   11.8652  -16.2028   16.4567 F   0  0  0  0  0  0  0  0  0  0  0  0
   12.9696  -14.4981   17.2638 F   0  0  0  0  0  0  0  0  0  0  0  0
   15.6519  -19.2291   21.0062 C   0  0  0  0  0  0  0  0  0  0  0  0
   14.8167  -19.0042   22.3002 C   0  0  0  0  0  0  0  0  0  0  0  0
   15.1225  -20.0457   23.4056 C   0  0  0  0  0  0  0  0  0  0  0  0
   19.8497  -18.1192   18.7333 C   0  0  0  0  0  0  0  0  0  0  0  0
   20.3374  -16.8853   19.5337 C   0  0  0  0  0  0  0  0  0  0  0  0
   21.2744  -16.0400   18.7581 N   0  0  0  0  0  0  0  0  0  0  0  0
   20.7631  -15.2604   17.6280 C   0  0  0  0  0  0  0  0  0  0  0  0
   22.6000  -15.9510   19.1113 C   0  0  0  0  0  0  0  0  0  0  0  0
   23.4702  -15.1935   18.4793 N   0  0  0  0  0  0  0  0  0  0  0  0
   22.9938  -16.6099   20.0512 O   0  0  0  0  0  0  0  0  0  0  0  0
   23.1133  -14.6449   17.7439 H   0  0  0  0  0  0  0  0  0  0  0  0
   25.3960  -13.8524   19.0961 C   0  0  0  0  0  0  0  0  0  0  0  0
   26.7675  -13.7588   19.3498 C   0  0  0  0  0  0  0  0  0  0  0  0
   27.5912  -14.8859   19.2426 C   0  0  0  0  0  0  0  0  0  0  0  0
   27.0213  -16.1110   18.8848 C   0  0  0  0  0  0  0  0  0  0  0  0
   25.6584  -16.1981   18.6220 C   0  0  0  0  0  0  0  0  0  0  0  0
   24.8150  -15.0763   18.7217 C   0  0  0  0  0  0  0  0  0  0  0  0
   29.8792  -14.2899   18.5652 O   0  0  0  0  0  0  0  0  0  0  0  0
   29.0761  -14.7780   19.5307 C   0  0  0  0  0  0  0  0  0  0  0  0
   29.5090  -15.1205   20.6341 O   0  0  0  0  0  0  0  0  0  0  0  0
   28.9230  -15.4562   21.2836 H   0  0  0  0  0  0  0  0  0  0  0  0
  4  3  2  0  0  0
  3  8  1  0  0  0
  2  4  1  0  0  0
  4  5  1  0  0  0
 16  5  1  0  0  0
  5  6  2  0  0  0
  6  7  1  0  0  0
  6  9  1  0  0  0
  8  7  2  0  0  0
  7 11  1  0  0  0
  9 10  1  0  0  0
 11 10  2  0  0  0
 11 12  1  0  0  0
 28 27  2  0  0  0
 27 32  1  0  0  0
  1  2  1  0  0  0
 17 16  1  0  0  0
 28 29  1  0  0  0
 15 12  1  0  0  0
 12 13  1  0  0  0
 12 14  1  0  0  0
 19  1  1  0  0  0
 34 29  1  0  0  0
 29 30  2  0  0  0
 18 17  1  0  0  0
 30 31  1  0  0  0
 32 31  2  0  0  0
 23 21  1  0  0  0
 21 22  1  0  0  0
 21 20  1  0  0  0
 24 23  1  0  0  0
 25 23  2  0  0  0
 32 24  1  0  0  0
 19 20  1  0  0  0
 33 34  2  0  0  0
 34 35  1  0  0  0
 24 26  1  0  0  0
 35 36  1  0  0  0
M  END
> <minimizedAffinity>
-9.46052

$$$$
3IPU_O40_A_801


 36 38  0  0  0  0  0  0  0  0999 V2000
   19.4223  -18.8602   18.6592 C   0  0  0  0  0  0  0  0  0  0  0  0
   18.4282  -18.4741   19.6231 O   0  0  0  0  0  0  0  0  0  0  0  0
   16.0668  -18.6695   19.1205 C   0  0  0  0  0  0  0  0  0  0  0  0
   17.2294  -17.8859   19.2372 C   0  0  0  0  0  0  0  0  0  0  0  0
   17.2215  -16.4992   18.9624 C   0  0  0  0  0  0  0  0  0  0  0  0
   15.9989  -15.9422   18.5748 C   0  0  0  0  0  0  0  0  0  0  0  0
   14.8839  -16.7444   18.4780 C   0  0  0  0  0  0  0  0  0  0  0  0
   14.8609  -18.1014   18.7383 C   0  0  0  0  0  0  0  0  0  0  0  0
   15.7547  -14.6027   18.2639 O   0  0  0  0  0  0  0  0  0  0  0  0
   14.3528  -14.5458   17.9415 N   0  0  0  0  0  0  0  0  0  0  0  0
   13.8858  -15.7398   18.0441 C   0  0  0  0  0  0  0  0  0  0  0  0
   12.4636  -16.1637   17.8435 C   0  0  0  0  0  0  0  0  0  0  0  0
   12.3838  -16.8024   16.6278 F   0  0  0  0  0  0  0  0  0  0  0  0
   11.7621  -14.9952   17.8413 F   0  0  0  0  0  0  0  0  0  0  0  0
   11.9528  -16.9160   18.8667 F   0  0  0  0  0  0  0  0  0  0  0  0
   18.4748  -15.6233   19.0752 C   0  0  0  0  0  0  0  0  0  0  0  0
   19.1732  -15.4530   17.6948 C   0  0  0  0  0  0  0  0  0  0  0  0
   20.6908  -15.1660   17.8166 C   0  0  0  0  0  0  0  0  0  0  0  0
   20.7851  -18.5249   19.3027 C   0  0  0  0  0  0  0  0  0  0  0  0
   21.9392  -18.7749   18.2995 C   0  0  0  0  0  0  0  0  0  0  0  0
   23.2686  -18.7755   18.9528 N   0  0  0  0  0  0  0  0  0  0  0  0
   23.7249  -19.9859   19.6406 C   0  0  0  0  0  0  0  0  0  0  0  0
   24.0870  -17.6729   18.8855 C   0  0  0  0  0  0  0  0  0  0  0  0
   25.2885  -17.6272   19.4193 N   0  0  0  0  0  0  0  0  0  0  0  0
   23.6805  -16.6850   18.3099 O   0  0  0  0  0  0  0  0  0  0  0  0
   25.6035  -18.4552   19.8486 H   0  0  0  0  0  0  0  0  0  0  0  0
   25.7927  -15.3296   20.0148 C   0  0  0  0  0  0  0  0  0  0  0  0
   26.6964  -14.2636   20.0453 C   0  0  0  0  0  0  0  0  0  0  0  0
   27.9857  -14.4062   19.5186 C   0  0  0  0  0  0  0  0  0  0  0  0
   28.3611  -15.6344   18.9668 C   0  0  0  0  0  0  0  0  0  0  0  0
   27.4557  -16.6893   18.9279 C   0  0  0  0  0  0  0  0  0  0  0  0
   26.1550  -16.5645   19.4496 C   0  0  0  0  0  0  0  0  0  0  0  0
   29.9016  -13.1657   18.6022 O   0  0  0  0  0  0  0  0  0  0  0  0
   28.9637  -13.2482   19.5660 C   0  0  0  0  0  0  0  0  0  0  0  0
   28.8708  -12.4089   20.4656 O   0  0  0  0  0  0  0  0  0  0  0  0
   28.2067  -12.4960   21.1208 H   0  0  0  0  0  0  0  0  0  0  0  0
  4  3  2  0  0  0
  3  8  1  0  0  0
  2  4  1  0  0  0
  4  5  1  0  0  0
 16  5  1  0  0  0
  5  6  2  0  0  0
  6  7  1  0  0  0
  6  9  1  0  0  0
  8  7  2  0  0  0
  7 11  1  0  0  0
  9 10  1  0  0  0
 11 10  2  0  0  0
 11 12  1  0  0  0
 28 27  2  0  0  0
 27 32  1  0  0  0
  1  2  1  0  0  0
 17 16  1  0  0  0
 28 29  1  0  0  0
 15 12  1  0  0  0
 12 13  1  0  0  0
 12 14  1  0  0  0
 19  1  1  0  0  0
 34 29  1  0  0  0
 29 30  2  0  0  0
 18 17  1  0  0  0
 30 31  1  0  0  0
 32 31  2  0  0  0
 23 21  1  0  0  0
 21 22  1  0  0  0
 21 20  1  0  0  0
 24 23  1  0  0  0
 25 23  2  0  0  0
 32 24  1  0  0  0
 19 20  1  0  0  0
 33 34  2  0  0  0
 34 35  1  0  0  0
 24 26  1  0  0  0
 35 36  1  0  0  0
M  END
> <minimizedAffinity>
-9.35255

$$$$
3IPU_O40_A_801


 36 38  0  0  0  0  0  0  0  0999 V2000
   13.3057  -16.5198   17.9470 C   0  0  0  0  0  0  0  0  0  0  0  0
   11.9486  -16.8685   17.6259 O   0  0  0  0  0  0  0  0  0  0  0  0
   11.3519  -14.5751   17.1241 C   0  0  0  0  0  0  0  0  0  0  0  0
   10.9752  -15.8968   17.4254 C   0  0  0  0  0  0  0  0  0  0  0  0
    9.6178  -16.2744   17.5414 C   0  0  0  0  0  0  0  0  0  0  0  0
    8.6664  -15.2706   17.3355 C   0  0  0  0  0  0  0  0  0  0  0  0
    9.0783  -13.9909   17.0376 C   0  0  0  0  0  0  0  0  0  0  0  0
   10.3960  -13.5916   16.9192 C   0  0  0  0  0  0  0  0  0  0  0  0
    7.2782  -15.4141   17.3910 O   0  0  0  0  0  0  0  0  0  0  0  0
    6.7573  -14.1043   17.0987 N   0  0  0  0  0  0  0  0  0  0  0  0
    7.7623  -13.3208   16.9245 C   0  0  0  0  0  0  0  0  0  0  0  0
    7.7114  -11.8697   16.5585 C   0  0  0  0  0  0  0  0  0  0  0  0
    8.1919  -11.1502   17.6279 F   0  0  0  0  0  0  0  0  0  0  0  0
    6.3881  -11.6235   16.3444 F   0  0  0  0  0  0  0  0  0  0  0  0
    8.3529  -11.5634   15.3886 F   0  0  0  0  0  0  0  0  0  0  0  0
    9.1797  -17.7052   17.8750 C   0  0  0  0  0  0  0  0  0  0  0  0
    8.6349  -18.4393   16.6153 C   0  0  0  0  0  0  0  0  0  0  0  0
    9.5885  -18.3401   15.3983 C   0  0  0  0  0  0  0  0  0  0  0  0
   13.7003  -17.4186   19.1389 C   0  0  0  0  0  0  0  0  0  0  0  0
   15.0209  -16.9248   19.7818 C   0  0  0  0  0  0  0  0  0  0  0  0
   16.2159  -17.5681   19.1884 N   0  0  0  0  0  0  0  0  0  0  0  0
   16.0782  -18.8818   18.5547 C   0  0  0  0  0  0  0  0  0  0  0  0
   17.4340  -16.9307   19.1922 C   0  0  0  0  0  0  0  0  0  0  0  0
   18.5210  -17.4393   18.6534 N   0  0  0  0  0  0  0  0  0  0  0  0
   17.5166  -15.8439   19.7259 O   0  0  0  0  0  0  0  0  0  0  0  0
   18.4140  -18.3054   18.1978 H   0  0  0  0  0  0  0  0  0  0  0  0
   20.0936  -15.7346   17.9402 C   0  0  0  0  0  0  0  0  0  0  0  0
   21.3868  -15.2043   17.9607 C   0  0  0  0  0  0  0  0  0  0  0  0
   22.4020  -15.8283   18.6956 C   0  0  0  0  0  0  0  0  0  0  0  0
   22.1029  -16.9878   19.4166 C   0  0  0  0  0  0  0  0  0  0  0  0
   20.8180  -17.5190   19.3848 C   0  0  0  0  0  0  0  0  0  0  0  0
   19.7854  -16.9079   18.6501 C   0  0  0  0  0  0  0  0  0  0  0  0
   24.8241  -16.0119   18.3095 O   0  0  0  0  0  0  0  0  0  0  0  0
   23.7995  -15.2401   18.7216 C   0  0  0  0  0  0  0  0  0  0  0  0
   23.9639  -14.0773   19.0999 O   0  0  0  0  0  0  0  0  0  0  0  0
   23.2294  -13.5675   19.3803 H   0  0  0  0  0  0  0  0  0  0  0  0
  4  3  2  0  0  0
  3  8  1  0  0  0
  2  4  1  0  0  0
  4  5  1  0  0  0
 16  5  1  0  0  0
  5  6  2  0  0  0
  6  7  1  0  0  0
  6  9  1  0  0  0
  8  7  2  0  0  0
  7 11  1  0  0  0
  9 10  1  0  0  0
 11 10  2  0  0  0
 11 12  1  0  0  0
 28 27  2  0  0  0
 27 32  1  0  0  0
  1  2  1  0  0  0
 17 16  1  0  0  0
 28 29  1  0  0  0
 15 12  1  0  0  0
 12 13  1  0  0  0
 12 14  1  0  0  0
 19  1  1  0  0  0
 34 29  1  0  0  0
 29 30  2  0  0  0
 18 17  1  0  0  0
 30 31  1  0  0  0
 32 31  2  0  0  0
 23 21  1  0  0  0
 21 22  1  0  0  0
 21 20  1  0  0  0
 24 23  1  0  0  0
 25 23  2  0  0  0
 32 24  1  0  0  0
 19 20  1  0  0  0
 33 34  2  0  0  0
 34 35  1  0  0  0
 24 26  1  0  0  0
 35 36  1  0  0  0
M  END
> <minimizedAffinity>
-9.31056

$$$$
3IPU_O40_A_801


 36 38  0  0  0  0  0  0  0  0999 V2000
   22.7443  -15.1487   19.1228 C   0  0  0  0  0  0  0  0  0  0  0  0
   23.8230  -15.2357   20.0689 O   0  0  0  0  0  0  0  0  0  0  0  0
   25.4219  -13.5411   19.4064 C   0  0  0  0  0  0  0  0  0  0  0  0
   25.1219  -14.8777   19.7272 C   0  0  0  0  0  0  0  0  0  0  0  0
   26.1113  -15.8872   19.7052 C   0  0  0  0  0  0  0  0  0  0  0  0
   27.4057  -15.4910   19.3549 C   0  0  0  0  0  0  0  0  0  0  0  0
   27.6571  -14.1712   19.0532 C   0  0  0  0  0  0  0  0  0  0  0  0
   26.7116  -13.1634   19.0645 C   0  0  0  0  0  0  0  0  0  0  0  0
   28.5348  -16.3093   19.2756 O   0  0  0  0  0  0  0  0  0  0  0  0
   29.6058  -15.4281   18.8898 N   0  0  0  0  0  0  0  0  0  0  0  0
   29.1047  -14.2518   18.7503 C   0  0  0  0  0  0  0  0  0  0  0  0
   29.8469  -13.0001   18.3969 C   0  0  0  0  0  0  0  0  0  0  0  0
   31.1020  -13.3638   17.9671 F   0  0  0  0  0  0  0  0  0  0  0  0
   29.9019  -12.3010   19.5656 F   0  0  0  0  0  0  0  0  0  0  0  0
   29.1966  -12.1968   17.4993 F   0  0  0  0  0  0  0  0  0  0  0  0
   25.8105  -17.3519   20.0438 C   0  0  0  0  0  0  0  0  0  0  0  0
   25.9058  -18.2566   18.7809 C   0  0  0  0  0  0  0  0  0  0  0  0
   25.2052  -19.6262   18.9642 C   0  0  0  0  0  0  0  0  0  0  0  0
   23.1084  -16.1196   17.9788 C   0  0  0  0  0  0  0  0  0  0  0  0
   21.8285  -16.6619   17.2943 C   0  0  0  0  0  0  0  0  0  0  0  0
   21.0222  -17.5174   18.1955 N   0  0  0  0  0  0  0  0  0  0  0  0
   21.6892  -18.5711   18.9643 C   0  0  0  0  0  0  0  0  0  0  0  0
   19.6720  -17.3068   18.3452 C   0  0  0  0  0  0  0  0  0  0  0  0
   18.9123  -18.0140   19.1535 N   0  0  0  0  0  0  0  0  0  0  0  0
   19.1479  -16.4272   17.6937 O   0  0  0  0  0  0  0  0  0  0  0  0
   19.3724  -18.6963   19.6939 H   0  0  0  0  0  0  0  0  0  0  0  0
   16.9836  -16.8771   20.0891 C   0  0  0  0  0  0  0  0  0  0  0  0
   15.5978  -16.7893   20.2497 C   0  0  0  0  0  0  0  0  0  0  0  0
   14.7496  -17.7312   19.6551 C   0  0  0  0  0  0  0  0  0  0  0  0
   15.3079  -18.7593   18.8902 C   0  0  0  0  0  0  0  0  0  0  0  0
   16.6877  -18.8502   18.7418 C   0  0  0  0  0  0  0  0  0  0  0  0
   17.5563  -17.9150   19.3338 C   0  0  0  0  0  0  0  0  0  0  0  0
   12.5152  -17.1994   18.7754 O   0  0  0  0  0  0  0  0  0  0  0  0
   13.2467  -17.6220   19.8251 C   0  0  0  0  0  0  0  0  0  0  0  0
   12.7313  -17.9332   20.9020 O   0  0  0  0  0  0  0  0  0  0  0  0
   13.2691  -18.2233   21.6123 H   0  0  0  0  0  0  0  0  0  0  0  0
  4  3  2  0  0  0
  3  8  1  0  0  0
  2  4  1  0  0  0
  4  5  1  0  0  0
 16  5  1  0  0  0
  5  6  2  0  0  0
  6  7  1  0  0  0
  6  9  1  0  0  0
  8  7  2  0  0  0
  7 11  1  0  0  0
  9 10  1  0  0  0
 11 10  2  0  0  0
 11 12  1  0  0  0
 28 27  2  0  0  0
 27 32  1  0  0  0
  1  2  1  0  0  0
 17 16  1  0  0  0
 28 29  1  0  0  0
 15 12  1  0  0  0
 12 13  1  0  0  0
 12 14  1  0  0  0
 19  1  1  0  0  0
 34 29  1  0  0  0
 29 30  2  0  0  0
 18 17  1  0  0  0
 30 31  1  0  0  0
 32 31  2  0  0  0
 23 21  1  0  0  0
 21 22  1  0  0  0
 21 20  1  0  0  0
 24 23  1  0  0  0
 25 23  2  0  0  0
 32 24  1  0  0  0
 19 20  1  0  0  0
 33 34  2  0  0  0
 34 35  1  0  0  0
 24 26  1  0  0  0
 35 36  1  0  0  0
M  END
> <minimizedAffinity>
-9.29629

$$$$
