4LM4_JPZ_A_900
  RCSB PDB12061713353D
Coordinates from PDB:4LM4:A:900 Model:1 without hydrogens
 11 12  0  0  0  0            999 V2000
    4.7040   11.7380   46.6180   C 0  0  0  0  0  0  0  0  0  0  0  0
    4.0400   12.8440   47.1510   C 0  0  0  0  0  0  0  0  0  0  0  0
    4.8380   11.5900   45.2350   C 0  0  0  0  0  0  0  0  0  0  0  0
    3.5020   13.8150   46.2980   C 0  0  0  0  0  0  0  0  0  0  0  0
    3.2520   14.4650   42.7230   C 0  0  0  0  0  0  0  0  0  0  0  0
    4.3050   12.5580   44.3770   C 0  0  0  0  0  0  0  0  0  0  0  0
    3.6390   13.6700   44.9120   C 0  0  0  0  0  0  0  0  0  0  0  0
    4.4200   12.4450   42.9830   C 0  0  0  0  0  0  0  0  0  0  0  0
    3.1300   14.6050   44.0690   N 0  0  0  0  0  0  0  0  0  0  0  0
    3.8890   13.4030   42.1810   N 0  0  0  0  0  0  0  0  0  0  0  0
    5.0370   11.4060   42.4320   O 0  0  0  0  0  0  0  0  0  0  0  0
  1  2  2  0  0  0  0
  1  3  1  0  0  0  0
  2  4  1  0  0  0  0
  3  6  2  0  0  0  0
  4  7  2  0  0  0  0
  5  9  1  0  0  0  0
  5 10  2  0  0  0  0
  6  7  1  0  0  0  0
  6  8  1  0  0  0  0
  7  9  1  0  0  0  0
  8 10  1  0  0  0  0
  8 11  2  0  0  0  0
A    1
C9
A    2
C8
A    3
C10
A    4
C7
A    5
C4
A    6
C11
A    7
C6
A    8
C2
A    9
N5
A   10
N3
A   11
O1
M  END
>  <InstanceId>
4LM4_JPZ_A_900

>  <ChemCompId>
JPZ

>  <PdbId>
4LM4

>  <ChainId>
A

>  <ResidueNumber>
900

>  <InsertionCode>


>  <Model>
1

>  <AltIds>


>  <MissingHeavyAtoms>
0

>  <ObservedFormula>
C8 N2 O

>  <Name>
quinazolin-4(1H)-one

>  <SystematicName>
1H-quinazolin-4-one

>  <Synonyms>


>  <Type>
NON-POLYMER

>  <Formula>
C8 H6 N2 O

>  <MolecularWeight>
146.146

>  <ModifiedDate>
2011-06-04

>  <Parent>


>  <OneLetterCode>


>  <SubcomponentList>


>  <AmbiguousFlag>
N

>  <InChI>
InChI=1S/C8H6N2O/c11-8-6-3-1-2-4-7(6)9-5-10-8/h1-5H,(H,9,10,11)

>  <InChIKey>
QMNUDYFKZYBWQX-UHFFFAOYSA-N

>  <SMILES>
c1ccc2c(c1)C(=O)N=CN2

$$$$
