1AI5_MNP_B_559


 14 14  0  0  0  0  0  0  0  0999 V2000
   13.1960   36.2855   35.5355 C   0  0  0  0  0  0  0  0  0  0  0  0
   12.6133   36.8180   34.4112 C   0  0  0  0  0  0  0  0  0  0  0  0
   11.4705   36.1910   33.9904 C   0  0  0  0  0  0  0  0  0  0  0  0
   10.8532   35.0907   34.5595 C   0  0  0  0  0  0  0  0  0  0  0  0
   11.4650   34.5651   35.6572 C   0  0  0  0  0  0  0  0  0  0  0  0
   12.6201   35.1806   36.1608 C   0  0  0  0  0  0  0  0  0  0  0  0
   10.8299   36.6319   32.8202 N   0  0  0  0  0  0  0  0  0  0  0  0
    9.6141   35.9097   32.8627 O   0  0  0  0  0  0  0  0  0  0  0  0
   11.2558   37.5535   31.8743 O   0  0  0  0  0  0  0  0  0  0  0  0
   14.4465   36.9616   35.9830 C   0  0  0  0  0  0  0  0  0  0  0  0
   14.3106   38.4280   36.3856 C   0  0  0  0  0  0  0  0  0  0  0  0
   13.8445   38.6324   37.4906 O   0  0  0  0  0  0  0  0  0  0  0  0
   14.5115   39.4441   35.7674 O   0  0  0  0  0  0  0  0  0  0  0  0
   14.8699   39.4033   34.9027 H   0  0  0  0  0  0  0  0  0  0  0  0
 11 10  1  0  0  0
 11 12  2  0  0  0
 11 13  1  0  0  0
 10  1  1  0  0  0
  1  2  2  0  0  0
  1  6  1  0  0  0
  2  3  1  0  0  0
  3  7  1  0  0  0
  3  4  2  0  0  0
  7  8  1  0  0  0
  7  9  2  0  0  0
  4  5  1  0  0  0
  5  6  2  0  0  0
 13 14  1  0  0  0
M  CHG 1   7   1
M  CHG 1   8  -1
M  END
> <minimizedAffinity>
-6.95088

$$$$
1AI5_MNP_B_559


 14 14  0  0  0  0  0  0  0  0999 V2000
   11.9823   35.4119   35.3874 C   0  0  0  0  0  0  0  0  0  0  0  0
   11.9851   36.0400   34.1657 C   0  0  0  0  0  0  0  0  0  0  0  0
   10.8705   35.8320   33.3972 C   0  0  0  0  0  0  0  0  0  0  0  0
    9.7629   35.0624   33.7079 C   0  0  0  0  0  0  0  0  0  0  0  0
    9.7961   34.4287   34.9133 C   0  0  0  0  0  0  0  0  0  0  0  0
   10.8934   34.6271   35.7638 C   0  0  0  0  0  0  0  0  0  0  0  0
   10.8026   36.3920   32.1103 N   0  0  0  0  0  0  0  0  0  0  0  0
   11.3941   37.6612   32.3124 O   0  0  0  0  0  0  0  0  0  0  0  0
   10.3101   35.8446   30.9343 O   0  0  0  0  0  0  0  0  0  0  0  0
   13.2022   35.6293   36.2155 C   0  0  0  0  0  0  0  0  0  0  0  0
   14.2873   36.5067   35.5961 C   0  0  0  0  0  0  0  0  0  0  0  0
   15.3720   35.9775   35.4425 O   0  0  0  0  0  0  0  0  0  0  0  0
   14.2903   37.6750   35.2965 O   0  0  0  0  0  0  0  0  0  0  0  0
   13.5057   38.1811   35.3761 H   0  0  0  0  0  0  0  0  0  0  0  0
 11 10  1  0  0  0
 11 12  2  0  0  0
 11 13  1  0  0  0
 10  1  1  0  0  0
  1  2  2  0  0  0
  1  6  1  0  0  0
  2  3  1  0  0  0
  3  7  1  0  0  0
  3  4  2  0  0  0
  7  8  1  0  0  0
  7  9  2  0  0  0
  4  5  1  0  0  0
  5  6  2  0  0  0
 13 14  1  0  0  0
M  CHG 1   7   1
M  CHG 1   8  -1
M  END
> <minimizedAffinity>
-6.18032

$$$$
1AI5_MNP_B_559


 14 14  0  0  0  0  0  0  0  0999 V2000
   10.4875   35.5759   34.0873 C   0  0  0  0  0  0  0  0  0  0  0  0
   11.7076   36.2065   34.0606 C   0  0  0  0  0  0  0  0  0  0  0  0
   12.5394   35.9182   35.1101 C   0  0  0  0  0  0  0  0  0  0  0  0
   12.2854   35.0816   36.1830 C   0  0  0  0  0  0  0  0  0  0  0  0
   11.0588   34.4894   36.2001 C   0  0  0  0  0  0  0  0  0  0  0  0
   10.1720   34.7150   35.1374 C   0  0  0  0  0  0  0  0  0  0  0  0
   13.7896   36.5535   35.1972 N   0  0  0  0  0  0  0  0  0  0  0  0
   13.9573   37.0500   33.8830 O   0  0  0  0  0  0  0  0  0  0  0  0
   14.6372   36.6884   36.2874 O   0  0  0  0  0  0  0  0  0  0  0  0
    9.5797   35.9020   32.9511 C   0  0  0  0  0  0  0  0  0  0  0  0
   10.2300   35.9786   31.5720 C   0  0  0  0  0  0  0  0  0  0  0  0
   10.3778   34.9167   30.9970 O   0  0  0  0  0  0  0  0  0  0  0  0
   10.7050   36.9080   30.9675 O   0  0  0  0  0  0  0  0  0  0  0  0
   10.6481   37.7743   31.3199 H   0  0  0  0  0  0  0  0  0  0  0  0
 11 10  1  0  0  0
 11 12  2  0  0  0
 11 13  1  0  0  0
 10  1  1  0  0  0
  1  2  2  0  0  0
  1  6  1  0  0  0
  2  3  1  0  0  0
  3  7  1  0  0  0
  3  4  2  0  0  0
  7  8  1  0  0  0
  7  9  2  0  0  0
  4  5  1  0  0  0
  5  6  2  0  0  0
 13 14  1  0  0  0
M  CHG 1   7   1
M  CHG 1   8  -1
M  END
> <minimizedAffinity>
-6.16050

$$$$
1AI5_MNP_B_559


 14 14  0  0  0  0  0  0  0  0999 V2000
   13.1745   35.9823   36.1750 C   0  0  0  0  0  0  0  0  0  0  0  0
   13.8977   37.1138   35.8857 C   0  0  0  0  0  0  0  0  0  0  0  0
   14.4898   37.7219   36.9609 C   0  0  0  0  0  0  0  0  0  0  0  0
   14.4322   37.3326   38.2878 C   0  0  0  0  0  0  0  0  0  0  0  0
   13.6871   36.2233   38.5520 C   0  0  0  0  0  0  0  0  0  0  0  0
   13.0825   35.5330   37.4915 C   0  0  0  0  0  0  0  0  0  0  0  0
   15.2090   38.9141   36.7724 N   0  0  0  0  0  0  0  0  0  0  0  0
   14.3306   39.6585   35.9503 O   0  0  0  0  0  0  0  0  0  0  0  0
   16.4469   39.2873   37.2759 O   0  0  0  0  0  0  0  0  0  0  0  0
   12.5207   35.3307   35.0050 C   0  0  0  0  0  0  0  0  0  0  0  0
   11.3977   36.1201   34.3368 C   0  0  0  0  0  0  0  0  0  0  0  0
   10.2765   35.6702   34.4805 O   0  0  0  0  0  0  0  0  0  0  0  0
   11.4255   37.0843   33.6126 O   0  0  0  0  0  0  0  0  0  0  0  0
   12.2397   37.5115   33.4323 H   0  0  0  0  0  0  0  0  0  0  0  0
 11 10  1  0  0  0
 11 12  2  0  0  0
 11 13  1  0  0  0
 10  1  1  0  0  0
  1  2  2  0  0  0
  1  6  1  0  0  0
  2  3  1  0  0  0
  3  7  1  0  0  0
  3  4  2  0  0  0
  7  8  1  0  0  0
  7  9  2  0  0  0
  4  5  1  0  0  0
  5  6  2  0  0  0
 13 14  1  0  0  0
M  CHG 1   7   1
M  CHG 1   8  -1
M  END
> <minimizedAffinity>
-6.01934

$$$$
1AI5_MNP_B_559


 14 14  0  0  0  0  0  0  0  0999 V2000
   15.7321   39.2672   39.4200 C   0  0  0  0  0  0  0  0  0  0  0  0
   15.1791   39.4530   38.1762 C   0  0  0  0  0  0  0  0  0  0  0  0
   14.7342   38.3152   37.5568 C   0  0  0  0  0  0  0  0  0  0  0  0
   14.7886   37.0176   38.0352 C   0  0  0  0  0  0  0  0  0  0  0  0
   15.3655   36.8567   39.2587 C   0  0  0  0  0  0  0  0  0  0  0  0
   15.8108   37.9853   39.9620 C   0  0  0  0  0  0  0  0  0  0  0  0
   14.1988   38.3971   36.2603 N   0  0  0  0  0  0  0  0  0  0  0  0
   14.4790   39.7395   35.9127 O   0  0  0  0  0  0  0  0  0  0  0  0
   13.5776   37.4179   35.4983 O   0  0  0  0  0  0  0  0  0  0  0  0
   16.2273   40.5053   40.0855 C   0  0  0  0  0  0  0  0  0  0  0  0
   15.6474   41.8215   39.5736 C   0  0  0  0  0  0  0  0  0  0  0  0
   16.4239   42.5470   38.9813 O   0  0  0  0  0  0  0  0  0  0  0  0
   14.5588   42.3204   39.7183 O   0  0  0  0  0  0  0  0  0  0  0  0
   13.8822   41.8480   40.1622 H   0  0  0  0  0  0  0  0  0  0  0  0
 11 10  1  0  0  0
 11 12  2  0  0  0
 11 13  1  0  0  0
 10  1  1  0  0  0
  1  2  2  0  0  0
  1  6  1  0  0  0
  2  3  1  0  0  0
  3  7  1  0  0  0
  3  4  2  0  0  0
  7  8  1  0  0  0
  7  9  2  0  0  0
  4  5  1  0  0  0
  5  6  2  0  0  0
 13 14  1  0  0  0
M  CHG 1   7   1
M  CHG 1   8  -1
M  END
> <minimizedAffinity>
-5.57018

$$$$
1AI5_MNP_B_559


 14 14  0  0  0  0  0  0  0  0999 V2000
   12.8914   35.4844   36.1016 C   0  0  0  0  0  0  0  0  0  0  0  0
   12.3614   35.2383   37.3449 C   0  0  0  0  0  0  0  0  0  0  0  0
   13.1178   35.6729   38.4009 C   0  0  0  0  0  0  0  0  0  0  0  0
   14.3433   36.3144   38.3537 C   0  0  0  0  0  0  0  0  0  0  0  0
   14.8597   36.5229   37.1105 C   0  0  0  0  0  0  0  0  0  0  0  0
   14.1197   36.1331   35.9848 C   0  0  0  0  0  0  0  0  0  0  0  0
   12.6831   35.4220   39.7133 N   0  0  0  0  0  0  0  0  0  0  0  0
   11.3311   35.8349   39.6573 O   0  0  0  0  0  0  0  0  0  0  0  0
   13.3800   34.8859   40.7867 O   0  0  0  0  0  0  0  0  0  0  0  0
   12.0724   34.9984   34.9552 C   0  0  0  0  0  0  0  0  0  0  0  0
   11.1763   36.0352   34.2822 C   0  0  0  0  0  0  0  0  0  0  0  0
   10.0050   35.7272   34.1669 O   0  0  0  0  0  0  0  0  0  0  0  0
   11.4352   37.0926   33.7628 O   0  0  0  0  0  0  0  0  0  0  0  0
   12.3101   37.4269   33.7914 H   0  0  0  0  0  0  0  0  0  0  0  0
 11 10  1  0  0  0
 11 12  2  0  0  0
 11 13  1  0  0  0
 10  1  1  0  0  0
  1  2  2  0  0  0
  1  6  1  0  0  0
  2  3  1  0  0  0
  3  7  1  0  0  0
  3  4  2  0  0  0
  7  8  1  0  0  0
  7  9  2  0  0  0
  4  5  1  0  0  0
  5  6  2  0  0  0
 13 14  1  0  0  0
M  CHG 1   7   1
M  CHG 1   8  -1
M  END
> <minimizedAffinity>
-5.47232

$$$$
1AI5_MNP_B_559


 14 14  0  0  0  0  0  0  0  0999 V2000
   14.5483   37.1577   37.4552 C   0  0  0  0  0  0  0  0  0  0  0  0
   14.7222   38.4397   36.9933 C   0  0  0  0  0  0  0  0  0  0  0  0
   15.4262   39.2713   37.8233 C   0  0  0  0  0  0  0  0  0  0  0  0
   15.9650   38.9690   39.0618 C   0  0  0  0  0  0  0  0  0  0  0  0
   15.7559   37.6994   39.5093 C   0  0  0  0  0  0  0  0  0  0  0  0
   15.0723   36.7870   38.6927 C   0  0  0  0  0  0  0  0  0  0  0  0
   15.6126   40.6159   37.4604 N   0  0  0  0  0  0  0  0  0  0  0  0
   15.3945   40.5743   36.0631 O   0  0  0  0  0  0  0  0  0  0  0  0
   15.9084   41.7125   38.2573 O   0  0  0  0  0  0  0  0  0  0  0  0
   13.7705   36.2592   36.5559 C   0  0  0  0  0  0  0  0  0  0  0  0
   13.5562   36.7581   35.1291 C   0  0  0  0  0  0  0  0  0  0  0  0
   12.3972   36.8837   34.7809 O   0  0  0  0  0  0  0  0  0  0  0  0
   14.3388   36.9812   34.2388 O   0  0  0  0  0  0  0  0  0  0  0  0
   15.2599   36.9139   34.3969 H   0  0  0  0  0  0  0  0  0  0  0  0
 11 10  1  0  0  0
 11 12  2  0  0  0
 11 13  1  0  0  0
 10  1  1  0  0  0
  1  2  2  0  0  0
  1  6  1  0  0  0
  2  3  1  0  0  0
  3  7  1  0  0  0
  3  4  2  0  0  0
  7  8  1  0  0  0
  7  9  2  0  0  0
  4  5  1  0  0  0
  5  6  2  0  0  0
 13 14  1  0  0  0
M  CHG 1   7   1
M  CHG 1   8  -1
M  END
> <minimizedAffinity>
-5.43546

$$$$
1AI5_MNP_B_559


 14 14  0  0  0  0  0  0  0  0999 V2000
   14.5372   37.0015   38.3116 C   0  0  0  0  0  0  0  0  0  0  0  0
   14.4419   38.1165   37.5148 C   0  0  0  0  0  0  0  0  0  0  0  0
   15.3861   39.0823   37.7428 C   0  0  0  0  0  0  0  0  0  0  0  0
   16.4042   39.0624   38.6802 C   0  0  0  0  0  0  0  0  0  0  0  0
   16.4609   37.9581   39.4757 C   0  0  0  0  0  0  0  0  0  0  0  0
   15.5447   36.9162   39.2713 C   0  0  0  0  0  0  0  0  0  0  0  0
   15.3403   40.2814   37.0119 N   0  0  0  0  0  0  0  0  0  0  0  0
   14.7300   39.8650   35.8053 O   0  0  0  0  0  0  0  0  0  0  0  0
   15.7576   41.5536   37.3760 O   0  0  0  0  0  0  0  0  0  0  0  0
   13.5004   35.9585   38.0701 C   0  0  0  0  0  0  0  0  0  0  0  0
   12.7258   35.4841   39.2971 C   0  0  0  0  0  0  0  0  0  0  0  0
   13.3452   34.7843   40.0759 O   0  0  0  0  0  0  0  0  0  0  0  0
   11.5665   35.6131   39.6044 O   0  0  0  0  0  0  0  0  0  0  0  0
   10.9961   36.1330   39.0732 H   0  0  0  0  0  0  0  0  0  0  0  0
 11 10  1  0  0  0
 11 12  2  0  0  0
 11 13  1  0  0  0
 10  1  1  0  0  0
  1  2  2  0  0  0
  1  6  1  0  0  0
  2  3  1  0  0  0
  3  7  1  0  0  0
  3  4  2  0  0  0
  7  8  1  0  0  0
  7  9  2  0  0  0
  4  5  1  0  0  0
  5  6  2  0  0  0
 13 14  1  0  0  0
M  CHG 1   7   1
M  CHG 1   8  -1
M  END
> <minimizedAffinity>
-5.22265

$$$$
1AI5_MNP_B_559


 14 14  0  0  0  0  0  0  0  0999 V2000
   13.4733   35.6760   36.2202 C   0  0  0  0  0  0  0  0  0  0  0  0
   13.5378   36.0159   37.5496 C   0  0  0  0  0  0  0  0  0  0  0  0
   14.7747   36.3972   37.9979 C   0  0  0  0  0  0  0  0  0  0  0  0
   15.9508   36.4672   37.2715 C   0  0  0  0  0  0  0  0  0  0  0  0
   15.8661   36.0995   35.9626 C   0  0  0  0  0  0  0  0  0  0  0  0
   14.6214   35.7317   35.4314 C   0  0  0  0  0  0  0  0  0  0  0  0
   14.9514   36.7151   39.3550 N   0  0  0  0  0  0  0  0  0  0  0  0
   15.3694   38.0650   39.2870 O   0  0  0  0  0  0  0  0  0  0  0  0
   14.7482   35.9283   40.4797 O   0  0  0  0  0  0  0  0  0  0  0  0
   12.1291   35.2489   35.7389 C   0  0  0  0  0  0  0  0  0  0  0  0
   11.5846   35.9904   34.5205 C   0  0  0  0  0  0  0  0  0  0  0  0
   11.0164   35.3031   33.6930 O   0  0  0  0  0  0  0  0  0  0  0  0
   11.6837   37.1439   34.1820 O   0  0  0  0  0  0  0  0  0  0  0  0
   12.1053   37.7629   34.7451 H   0  0  0  0  0  0  0  0  0  0  0  0
 11 10  1  0  0  0
 11 12  2  0  0  0
 11 13  1  0  0  0
 10  1  1  0  0  0
  1  2  2  0  0  0
  1  6  1  0  0  0
  2  3  1  0  0  0
  3  7  1  0  0  0
  3  4  2  0  0  0
  7  8  1  0  0  0
  7  9  2  0  0  0
  4  5  1  0  0  0
  5  6  2  0  0  0
 13 14  1  0  0  0
M  CHG 1   7   1
M  CHG 1   8  -1
M  END
> <minimizedAffinity>
-5.15109

$$$$
1AI5_MNP_B_559


 14 14  0  0  0  0  0  0  0  0999 V2000
   13.6019   36.0057   36.4095 C   0  0  0  0  0  0  0  0  0  0  0  0
   14.9302   36.1592   36.0946 C   0  0  0  0  0  0  0  0  0  0  0  0
   15.7731   36.3058   37.1644 C   0  0  0  0  0  0  0  0  0  0  0  0
   15.4370   36.3254   38.5069 C   0  0  0  0  0  0  0  0  0  0  0  0
   14.1110   36.1981   38.7917 C   0  0  0  0  0  0  0  0  0  0  0  0
   13.1982   36.0098   37.7438 C   0  0  0  0  0  0  0  0  0  0  0  0
   17.1438   36.5194   36.9415 N   0  0  0  0  0  0  0  0  0  0  0  0
   17.2944   37.8735   37.3228 O   0  0  0  0  0  0  0  0  0  0  0  0
   18.1130   35.6351   36.4899 O   0  0  0  0  0  0  0  0  0  0  0  0
   12.6860   35.8599   35.2429 C   0  0  0  0  0  0  0  0  0  0  0  0
   11.6166   34.7766   35.3594 C   0  0  0  0  0  0  0  0  0  0  0  0
   11.9013   33.6976   34.8749 O   0  0  0  0  0  0  0  0  0  0  0  0
   10.4878   34.8160   35.7827 O   0  0  0  0  0  0  0  0  0  0  0  0
   10.1627   35.6009   36.1779 H   0  0  0  0  0  0  0  0  0  0  0  0
 11 10  1  0  0  0
 11 12  2  0  0  0
 11 13  1  0  0  0
 10  1  1  0  0  0
  1  2  2  0  0  0
  1  6  1  0  0  0
  2  3  1  0  0  0
  3  7  1  0  0  0
  3  4  2  0  0  0
  7  8  1  0  0  0
  7  9  2  0  0  0
  4  5  1  0  0  0
  5  6  2  0  0  0
 13 14  1  0  0  0
M  CHG 1   7   1
M  CHG 1   8  -1
M  END
> <minimizedAffinity>
-5.08211

$$$$
