2Q88_4CS_A_501


 12 12  0  0  0  0  0  0  0  0999 V2000
   22.2478   40.1333   73.0839 C   0  0  0  0  0  0  0  0  0  0  0  0
   22.3397   39.7190   74.5399 C   0  0  0  0  0  0  0  0  0  0  0  0
   21.0092   39.1040   74.9852 C   0  0  0  0  0  0  0  0  0  0  0  0
   20.6591   37.9756   74.0834 N   0  0  0  0  0  0  0  0  0  0  0  0
   21.0998   37.9435   72.7513 C   0  0  0  0  0  0  0  0  0  0  0  0
   20.7385   36.7581   71.8396 C   0  0  0  0  0  0  0  0  0  0  0  0
   21.9025   38.9732   72.2420 N   0  0  0  0  0  0  0  0  0  0  0  0
   20.1074   37.2363   74.4272 H   0  0  0  0  0  0  0  0  0  0  0  0
   24.1097   41.6195   73.2689 O   0  0  0  0  0  0  0  0  0  0  0  0
   23.5167   40.7994   72.5682 C   0  0  0  0  0  0  0  0  0  0  0  0
   23.9378   40.5341   71.4360 O   0  0  0  0  0  0  0  0  0  0  0  0
   23.4863   39.9099   70.9026 H   0  0  0  0  0  0  0  0  0  0  0  0
  9 10  2  0  0  0
 10 11  1  0  0  0
 10  1  1  0  0  0
  1  2  1  0  0  0
  1  7  1  0  0  0
  2  3  1  0  0  0
  3  4  1  0  0  0
  4  5  1  0  0  0
  5  6  1  0  0  0
  5  7  2  0  0  0
 11 12  1  0  0  0
  4  8  1  0  0  0
M  END
> <minimizedAffinity>
-7.49328

$$$$
2Q88_4CS_A_501


 12 12  0  0  0  0  0  0  0  0999 V2000
   23.1171   39.4524   73.3621 C   0  0  0  0  0  0  0  0  0  0  0  0
   22.2915   39.1498   72.1264 C   0  0  0  0  0  0  0  0  0  0  0  0
   21.4902   37.8625   72.3450 C   0  0  0  0  0  0  0  0  0  0  0  0
   20.6650   37.9961   73.5739 N   0  0  0  0  0  0  0  0  0  0  0  0
   21.0613   38.8299   74.6310 C   0  0  0  0  0  0  0  0  0  0  0  0
   20.1841   38.9650   75.8876 C   0  0  0  0  0  0  0  0  0  0  0  0
   22.2439   39.5767   74.5436 N   0  0  0  0  0  0  0  0  0  0  0  0
   19.8240   37.4897   73.6479 H   0  0  0  0  0  0  0  0  0  0  0  0
   23.5663   41.6666   72.5840 O   0  0  0  0  0  0  0  0  0  0  0  0
   23.9844   40.6957   73.2147 C   0  0  0  0  0  0  0  0  0  0  0  0
   25.1181   40.7206   73.7086 O   0  0  0  0  0  0  0  0  0  0  0  0
   25.4363   39.9816   74.1887 H   0  0  0  0  0  0  0  0  0  0  0  0
  9 10  2  0  0  0
 10 11  1  0  0  0
 10  1  1  0  0  0
  1  2  1  0  0  0
  1  7  1  0  0  0
  2  3  1  0  0  0
  3  4  1  0  0  0
  4  5  1  0  0  0
  5  6  1  0  0  0
  5  7  2  0  0  0
 11 12  1  0  0  0
  4  8  1  0  0  0
M  END
> <minimizedAffinity>
-4.82563

$$$$
2Q88_4CS_A_501


 12 12  0  0  0  0  0  0  0  0999 V2000
   21.6097   37.9258   73.1495 C   0  0  0  0  0  0  0  0  0  0  0  0
   20.5553   38.5818   74.0200 C   0  0  0  0  0  0  0  0  0  0  0  0
   21.2337   39.3672   75.1469 C   0  0  0  0  0  0  0  0  0  0  0  0
   22.1913   40.3426   74.5633 N   0  0  0  0  0  0  0  0  0  0  0  0
   22.8109   40.1051   73.3266 C   0  0  0  0  0  0  0  0  0  0  0  0
   23.7873   41.1356   72.7338 C   0  0  0  0  0  0  0  0  0  0  0  0
   22.5242   38.9426   72.5984 N   0  0  0  0  0  0  0  0  0  0  0  0
   22.3950   41.1715   75.0538 H   0  0  0  0  0  0  0  0  0  0  0  0
   20.1692   37.5625   71.2778 O   0  0  0  0  0  0  0  0  0  0  0  0
   21.0207   37.0826   72.0261 C   0  0  0  0  0  0  0  0  0  0  0  0
   21.3807   35.9083   71.8806 O   0  0  0  0  0  0  0  0  0  0  0  0
   22.0289   35.5430   72.4502 H   0  0  0  0  0  0  0  0  0  0  0  0
  9 10  2  0  0  0
 10 11  1  0  0  0
 10  1  1  0  0  0
  1  2  1  0  0  0
  1  7  1  0  0  0
  2  3  1  0  0  0
  3  4  1  0  0  0
  4  5  1  0  0  0
  5  6  1  0  0  0
  5  7  2  0  0  0
 11 12  1  0  0  0
  4  8  1  0  0  0
M  END
> <minimizedAffinity>
-4.79906

$$$$
