2V2C_PGA_A_1254


 12 11  0  0  0  0  0  0  0  0999 V2000
   12.7412   13.0267   16.0171 P   0  0  0  0  0  0  0  0  0  0  0  0
   11.7620   12.0148   16.6214 O   0  0  0  0  0  0  0  0  0  0  0  0
   13.3799   12.6056   14.7264 O   0  0  0  0  0  0  0  0  0  0  0  0
   13.8015   13.4593   16.9793 O   0  0  0  0  0  0  0  0  0  0  0  0
   12.6926   12.3249   14.1021 H   0  0  0  0  0  0  0  0  0  0  0  0
   13.3891   13.7317   17.8139 H   0  0  0  0  0  0  0  0  0  0  0  0
   11.7708   14.2360   15.6004 O   0  0  0  0  0  0  0  0  0  0  0  0
   12.1577   15.5849   15.8617 C   0  0  0  0  0  0  0  0  0  0  0  0
   13.1535   16.0467   14.7952 C   0  0  0  0  0  0  0  0  0  0  0  0
   14.3585   15.6856   14.7685 O   0  0  0  0  0  0  0  0  0  0  0  0
   12.7461   16.8401   13.9430 O   0  0  0  0  0  0  0  0  0  0  0  0
   11.8511   17.1175   13.9509 H   0  0  0  0  0  0  0  0  0  0  0  0
  1  7  1  0  0  0
  1  2  2  0  0  0
  1  3  1  0  0  0
  1  4  1  0  0  0
  7  8  1  0  0  0
  8  9  1  0  0  0
  9 10  2  0  0  0
  9 11  1  0  0  0
  3  5  1  0  0  0
  4  6  1  0  0  0
 11 12  1  0  0  0
M  END
> <minimizedAffinity>
-5.73330

$$$$
2V2C_PGA_A_1254


 12 11  0  0  0  0  0  0  0  0999 V2000
   13.0141   14.1043   15.9122 P   0  0  0  0  0  0  0  0  0  0  0  0
   11.5280   13.8501   15.6390 O   0  0  0  0  0  0  0  0  0  0  0  0
   13.9424   13.7307   14.7943 O   0  0  0  0  0  0  0  0  0  0  0  0
   13.4895   13.4776   17.1844 O   0  0  0  0  0  0  0  0  0  0  0  0
   13.6345   14.1368   13.9690 H   0  0  0  0  0  0  0  0  0  0  0  0
   12.8897   13.7189   17.9075 H   0  0  0  0  0  0  0  0  0  0  0  0
   13.0840   15.7075   15.9631 O   0  0  0  0  0  0  0  0  0  0  0  0
   12.2447   16.4866   15.1109 C   0  0  0  0  0  0  0  0  0  0  0  0
   13.0793   17.0746   13.9707 C   0  0  0  0  0  0  0  0  0  0  0  0
   12.6458   17.9430   13.1700 O   0  0  0  0  0  0  0  0  0  0  0  0
   14.2243   16.6402   13.8221 O   0  0  0  0  0  0  0  0  0  0  0  0
   14.5601   15.9934   14.4111 H   0  0  0  0  0  0  0  0  0  0  0  0
  1  7  1  0  0  0
  1  2  2  0  0  0
  1  3  1  0  0  0
  1  4  1  0  0  0
  7  8  1  0  0  0
  8  9  1  0  0  0
  9 10  2  0  0  0
  9 11  1  0  0  0
  3  5  1  0  0  0
  4  6  1  0  0  0
 11 12  1  0  0  0
M  END
> <minimizedAffinity>
-5.64926

$$$$
2V2C_PGA_A_1254


 12 11  0  0  0  0  0  0  0  0999 V2000
   11.6216   17.3315   15.2821 P   0  0  0  0  0  0  0  0  0  0  0  0
   10.2410   16.6807   15.1457 O   0  0  0  0  0  0  0  0  0  0  0  0
   11.6315   18.6751   15.9496 O   0  0  0  0  0  0  0  0  0  0  0  0
   12.3584   17.4156   13.9831 O   0  0  0  0  0  0  0  0  0  0  0  0
   11.1537   18.6211   16.7921 H   0  0  0  0  0  0  0  0  0  0  0  0
   12.3522   16.5471   13.5511 H   0  0  0  0  0  0  0  0  0  0  0  0
   12.3543   16.3639   16.3331 O   0  0  0  0  0  0  0  0  0  0  0  0
   12.3697   14.9533   16.1152 C   0  0  0  0  0  0  0  0  0  0  0  0
   13.7002   14.5495   15.4758 C   0  0  0  0  0  0  0  0  0  0  0  0
   14.3802   15.3165   14.7460 O   0  0  0  0  0  0  0  0  0  0  0  0
   14.0970   13.3975   15.6688 O   0  0  0  0  0  0  0  0  0  0  0  0
   13.6006   12.8156   16.2101 H   0  0  0  0  0  0  0  0  0  0  0  0
  1  7  1  0  0  0
  1  2  2  0  0  0
  1  3  1  0  0  0
  1  4  1  0  0  0
  7  8  1  0  0  0
  8  9  1  0  0  0
  9 10  2  0  0  0
  9 11  1  0  0  0
  3  5  1  0  0  0
  4  6  1  0  0  0
 11 12  1  0  0  0
M  END
> <minimizedAffinity>
-5.38805

$$$$
2V2C_PGA_A_1254


 12 11  0  0  0  0  0  0  0  0999 V2000
   12.2329   15.5962   15.6786 P   0  0  0  0  0  0  0  0  0  0  0  0
   11.0983   16.4006   15.0355 O   0  0  0  0  0  0  0  0  0  0  0  0
   12.6143   16.0253   17.0648 O   0  0  0  0  0  0  0  0  0  0  0  0
   13.4583   15.5286   14.8236 O   0  0  0  0  0  0  0  0  0  0  0  0
   11.8200   16.0693   17.6197 H   0  0  0  0  0  0  0  0  0  0  0  0
   13.2122   15.2513   13.9272 H   0  0  0  0  0  0  0  0  0  0  0  0
   11.5570   14.1545   15.8845 O   0  0  0  0  0  0  0  0  0  0  0  0
   12.3379   13.0620   16.3688 C   0  0  0  0  0  0  0  0  0  0  0  0
   12.6197   12.0877   15.2227 C   0  0  0  0  0  0  0  0  0  0  0  0
   11.9705   11.0255   15.0397 O   0  0  0  0  0  0  0  0  0  0  0  0
   13.5568   12.3557   14.4666 O   0  0  0  0  0  0  0  0  0  0  0  0
   14.0489   13.1433   14.5912 H   0  0  0  0  0  0  0  0  0  0  0  0
  1  7  1  0  0  0
  1  2  2  0  0  0
  1  3  1  0  0  0
  1  4  1  0  0  0
  7  8  1  0  0  0
  8  9  1  0  0  0
  9 10  2  0  0  0
  9 11  1  0  0  0
  3  5  1  0  0  0
  4  6  1  0  0  0
 11 12  1  0  0  0
M  END
> <minimizedAffinity>
-5.34972

$$$$
2V2C_PGA_A_1254


 12 11  0  0  0  0  0  0  0  0999 V2000
   12.0015   16.6844   15.1955 P   0  0  0  0  0  0  0  0  0  0  0  0
   12.4619   17.2351   13.8418 O   0  0  0  0  0  0  0  0  0  0  0  0
   10.6132   16.1156   15.2152 O   0  0  0  0  0  0  0  0  0  0  0  0
   12.1506   17.6720   16.3090 O   0  0  0  0  0  0  0  0  0  0  0  0
   10.5160   15.4751   14.4933 H   0  0  0  0  0  0  0  0  0  0  0  0
   13.0480   18.0400   16.2967 H   0  0  0  0  0  0  0  0  0  0  0  0
   12.9537   15.4060   15.3874 O   0  0  0  0  0  0  0  0  0  0  0  0
   12.7230   14.4987   16.4650 C   0  0  0  0  0  0  0  0  0  0  0  0
   12.6794   13.0667   15.9266 C   0  0  0  0  0  0  0  0  0  0  0  0
   11.9719   12.1569   16.4317 O   0  0  0  0  0  0  0  0  0  0  0  0
   13.4064   12.7981   14.9669 O   0  0  0  0  0  0  0  0  0  0  0  0
   13.9385   13.4658   14.5809 H   0  0  0  0  0  0  0  0  0  0  0  0
  1  7  1  0  0  0
  1  2  2  0  0  0
  1  3  1  0  0  0
  1  4  1  0  0  0
  7  8  1  0  0  0
  8  9  1  0  0  0
  9 10  2  0  0  0
  9 11  1  0  0  0
  3  5  1  0  0  0
  4  6  1  0  0  0
 11 12  1  0  0  0
M  END
> <minimizedAffinity>
-5.30759

$$$$
2V2C_PGA_A_1254


 12 11  0  0  0  0  0  0  0  0999 V2000
   12.6959   13.0522   15.9663 P   0  0  0  0  0  0  0  0  0  0  0  0
   13.5598   13.9393   16.8688 O   0  0  0  0  0  0  0  0  0  0  0  0
   12.0060   11.9146   16.6599 O   0  0  0  0  0  0  0  0  0  0  0  0
   13.4374   12.5330   14.7755 O   0  0  0  0  0  0  0  0  0  0  0  0
   11.5250   12.2508   17.4322 H   0  0  0  0  0  0  0  0  0  0  0  0
   13.8836   13.2681   14.3267 H   0  0  0  0  0  0  0  0  0  0  0  0
   11.5024   14.0433   15.5525 O   0  0  0  0  0  0  0  0  0  0  0  0
   11.5683   15.4258   15.9018 C   0  0  0  0  0  0  0  0  0  0  0  0
   10.3111   16.1400   15.4002 C   0  0  0  0  0  0  0  0  0  0  0  0
    9.2200   15.5525   15.1819 O   0  0  0  0  0  0  0  0  0  0  0  0
   10.3974   17.3491   15.1717 O   0  0  0  0  0  0  0  0  0  0  0  0
   11.2038   17.7994   15.3297 H   0  0  0  0  0  0  0  0  0  0  0  0
  1  7  1  0  0  0
  1  2  2  0  0  0
  1  3  1  0  0  0
  1  4  1  0  0  0
  7  8  1  0  0  0
  8  9  1  0  0  0
  9 10  2  0  0  0
  9 11  1  0  0  0
  3  5  1  0  0  0
  4  6  1  0  0  0
 11 12  1  0  0  0
M  END
> <minimizedAffinity>
-5.19530

$$$$
2V2C_PGA_A_1254


 12 11  0  0  0  0  0  0  0  0999 V2000
   12.5546   15.1204   15.7831 P   0  0  0  0  0  0  0  0  0  0  0  0
   12.6869   15.9974   17.0327 O   0  0  0  0  0  0  0  0  0  0  0  0
   11.5604   14.0017   15.8899 O   0  0  0  0  0  0  0  0  0  0  0  0
   13.8654   14.5779   15.3091 O   0  0  0  0  0  0  0  0  0  0  0  0
   10.7101   14.3531   16.1973 H   0  0  0  0  0  0  0  0  0  0  0  0
   14.5085   15.3007   15.2399 H   0  0  0  0  0  0  0  0  0  0  0  0
   11.8978   16.1313   14.7227 O   0  0  0  0  0  0  0  0  0  0  0  0
   12.0074   17.5412   14.9173 C   0  0  0  0  0  0  0  0  0  0  0  0
   12.6603   18.1774   13.6880 C   0  0  0  0  0  0  0  0  0  0  0  0
   12.8055   19.4189   13.5439 O   0  0  0  0  0  0  0  0  0  0  0  0
   13.0288   17.4217   12.7852 O   0  0  0  0  0  0  0  0  0  0  0  0
   12.9268   16.4950   12.8791 H   0  0  0  0  0  0  0  0  0  0  0  0
  1  7  1  0  0  0
  1  2  2  0  0  0
  1  3  1  0  0  0
  1  4  1  0  0  0
  7  8  1  0  0  0
  8  9  1  0  0  0
  9 10  2  0  0  0
  9 11  1  0  0  0
  3  5  1  0  0  0
  4  6  1  0  0  0
 11 12  1  0  0  0
M  END
> <minimizedAffinity>
-5.07005

$$$$
2V2C_PGA_A_1254


 12 11  0  0  0  0  0  0  0  0999 V2000
   12.7001   15.1102   15.6634 P   0  0  0  0  0  0  0  0  0  0  0  0
   14.0868   15.1816   15.0155 O   0  0  0  0  0  0  0  0  0  0  0  0
   12.6142   15.6705   17.0526 O   0  0  0  0  0  0  0  0  0  0  0  0
   12.1174   13.7327   15.6454 O   0  0  0  0  0  0  0  0  0  0  0  0
   12.9920   16.5639   17.0648 H   0  0  0  0  0  0  0  0  0  0  0  0
   12.1727   13.3700   14.7475 H   0  0  0  0  0  0  0  0  0  0  0  0
   11.8510   16.1393   14.7703 O   0  0  0  0  0  0  0  0  0  0  0  0
   12.0931   17.5424   14.8725 C   0  0  0  0  0  0  0  0  0  0  0  0
   12.7552   18.0416   13.5862 C   0  0  0  0  0  0  0  0  0  0  0  0
   12.9650   17.3095   12.5846 O   0  0  0  0  0  0  0  0  0  0  0  0
   13.1265   19.2177   13.5578 O   0  0  0  0  0  0  0  0  0  0  0  0
   12.9768   19.7743   14.2965 H   0  0  0  0  0  0  0  0  0  0  0  0
  1  7  1  0  0  0
  1  2  2  0  0  0
  1  3  1  0  0  0
  1  4  1  0  0  0
  7  8  1  0  0  0
  8  9  1  0  0  0
  9 10  2  0  0  0
  9 11  1  0  0  0
  3  5  1  0  0  0
  4  6  1  0  0  0
 11 12  1  0  0  0
M  END
> <minimizedAffinity>
-5.05694

$$$$
2V2C_PGA_A_1254


 12 11  0  0  0  0  0  0  0  0999 V2000
   12.1050   16.2416   15.6490 P   0  0  0  0  0  0  0  0  0  0  0  0
   10.6828   15.8696   15.2169 O   0  0  0  0  0  0  0  0  0  0  0  0
   13.1649   16.0308   14.6082 O   0  0  0  0  0  0  0  0  0  0  0  0
   12.5204   15.5785   16.9238 O   0  0  0  0  0  0  0  0  0  0  0  0
   12.8960   16.4607   13.7812 H   0  0  0  0  0  0  0  0  0  0  0  0
   11.8355   15.7145   17.5971 H   0  0  0  0  0  0  0  0  0  0  0  0
   12.0116   17.8375   15.7984 O   0  0  0  0  0  0  0  0  0  0  0  0
   11.3473   18.6109   14.7993 C   0  0  0  0  0  0  0  0  0  0  0  0
   12.3740   19.1357   13.7929 C   0  0  0  0  0  0  0  0  0  0  0  0
   12.8941   20.2791   13.8649 O   0  0  0  0  0  0  0  0  0  0  0  0
   12.6724   18.3994   12.8492 O   0  0  0  0  0  0  0  0  0  0  0  0
   12.2927   17.5453   12.7831 H   0  0  0  0  0  0  0  0  0  0  0  0
  1  7  1  0  0  0
  1  2  2  0  0  0
  1  3  1  0  0  0
  1  4  1  0  0  0
  7  8  1  0  0  0
  8  9  1  0  0  0
  9 10  2  0  0  0
  9 11  1  0  0  0
  3  5  1  0  0  0
  4  6  1  0  0  0
 11 12  1  0  0  0
M  END
> <minimizedAffinity>
-4.79453

$$$$
2V2C_PGA_A_1254


 12 11  0  0  0  0  0  0  0  0999 V2000
   11.4755   18.8047   15.1906 P   0  0  0  0  0  0  0  0  0  0  0  0
   10.0318   18.4002   14.8741 O   0  0  0  0  0  0  0  0  0  0  0  0
   11.6233   19.9311   16.1706 O   0  0  0  0  0  0  0  0  0  0  0  0
   12.2805   19.1018   13.9655 O   0  0  0  0  0  0  0  0  0  0  0  0
   11.1014   19.7388   16.9653 H   0  0  0  0  0  0  0  0  0  0  0  0
   12.1852   18.3739   13.3315 H   0  0  0  0  0  0  0  0  0  0  0  0
   12.0260   17.5201   15.9809 O   0  0  0  0  0  0  0  0  0  0  0  0
   12.2581   16.2970   15.2824 C   0  0  0  0  0  0  0  0  0  0  0  0
   11.3282   15.2117   15.8297 C   0  0  0  0  0  0  0  0  0  0  0  0
   11.6541   13.9997   15.9202 O   0  0  0  0  0  0  0  0  0  0  0  0
   10.1913   15.5536   16.1650 O   0  0  0  0  0  0  0  0  0  0  0  0
    9.9351   16.4527   16.1028 H   0  0  0  0  0  0  0  0  0  0  0  0
  1  7  1  0  0  0
  1  2  2  0  0  0
  1  3  1  0  0  0
  1  4  1  0  0  0
  7  8  1  0  0  0
  8  9  1  0  0  0
  9 10  2  0  0  0
  9 11  1  0  0  0
  3  5  1  0  0  0
  4  6  1  0  0  0
 11 12  1  0  0  0
M  END
> <minimizedAffinity>
-4.43805

$$$$
