4DKO_0LM_A_513
  RCSB PDB12061712133D
Coordinates from PDB:4DKO:A:513 Model:1 without hydrogens
 25 26  0  0  0  0            999 V2000
   28.1020  -15.4540   37.4700   C 0  0  0  0  0  0  0  0  0  0  0  0
   28.4590  -15.3320   34.9130   C 0  0  0  0  0  0  0  0  0  0  0  0
   28.2240  -13.3160   33.4590   C 0  0  0  0  0  0  0  0  0  0  0  0
   30.3380  -13.6710   34.7480   C 0  0  0  0  0  0  0  0  0  0  0  0
   31.7850  -13.6890   34.3800   C 0  0  0  0  0  0  0  0  0  0  0  0
   27.3240  -12.3480   34.1470   C 0  0  0  0  0  0  0  0  0  0  0  0
   27.9760  -13.1160   31.9980   C 0  0  0  0  0  0  0  0  0  0  0  0
   27.2230  -14.7080   43.5510   C 0  0  0  0  0  0  0  0  0  0  0  0
   25.8460  -14.5560   43.6230   C 0  0  0  0  0  0  0  0  0  0  0  0
   25.0720  -14.7230   42.4840   C 0  0  0  0  0  0  0  0  0  0  0  0
   25.6730  -15.0430   41.2750   C 0  0  0  0  0  0  0  0  0  0  0  0
   27.0540  -15.1890   41.1960   C 0  0  0  0  0  0  0  0  0  0  0  0
   27.8230  -15.0280   42.3400   C 0  0  0  0  0  0  0  0  0  0  0  0
   27.7050  -15.5290   39.9590   N 0  0  0  0  0  0  0  0  0  0  0  0
   27.3400  -15.0090   38.6740   C 0  0  0  0  0  0  0  0  0  0  0  0
   26.4280  -14.2070   38.5420   O 0  0  0  0  0  0  0  0  0  0  0  0
   27.7540  -14.9350   36.1830   N 0  0  0  0  0  0  0  0  0  0  0  0
   29.0140  -16.2570   37.6060   O 0  0  0  0  0  0  0  0  0  0  0  0
   27.8110  -14.7220   33.7860   C 0  0  0  0  0  0  0  0  0  0  0  0
   29.6200  -12.9590   33.7090   N 0  0  0  0  0  0  0  0  0  0  0  0
   29.9160  -15.0810   34.9430   C 0  0  0  0  0  0  0  0  0  0  0  0
   30.2240  -12.9400   36.0450   C 0  0  0  0  0  0  0  0  0  0  0  0
   30.1050  -11.6550   33.3590   C 0  0  0  0  0  0  0  0  0  0  0  0
   25.0910  -14.1580   45.1260  Cl 0  0  0  0  0  0  0  0  0  0  0  0
   23.7520  -14.5770   42.5560   F 0  0  0  0  0  0  0  0  0  0  0  0
  5  4  1  0  0  0  0
 23 20  1  0  0  0  0
  4 20  1  0  0  0  0
  4 21  1  0  0  0  0
  4 22  1  0  0  0  0
 20  3  1  0  0  0  0
 21  2  1  0  0  0  0
  7  3  1  0  0  0  0
  3 19  1  0  0  0  0
  3  6  1  0  0  0  0
  2 19  1  0  0  0  0
  2 17  1  0  0  0  0
 18  1  2  0  0  0  0
 17  1  1  0  0  0  0
  1 15  1  0  0  0  0
 15 14  1  0  0  0  0
 15 16  2  0  0  0  0
 14 12  1  0  0  0  0
 13 12  2  0  0  0  0
 13  8  1  0  0  0  0
 12 11  1  0  0  0  0
  8  9  2  0  0  0  0
 11 10  2  0  0  0  0
  9 10  1  0  0  0  0
  9 24  1  0  0  0  0
 10 25  1  0  0  0  0
A    1
C10
A    2
C13
A    3
C15
A    4
C17
A    5
C20
A    6
C21
A    7
C22
A    8
C01
A    9
C02
A   10
C03
A   11
C04
A   12
C05
A   13
C06
A   14
N07
A   15
C08
A   16
O09
A   17
N11
A   18
O12
A   19
C14
A   20
N16
A   21
C18
A   22
C19
A   23
C23
A   24
CL
A   25
F25
M  END
>  <InstanceId>
4DKO_0LM_A_513

>  <ChemCompId>
0LM

>  <PdbId>
4DKO

>  <ChainId>
A

>  <ResidueNumber>
513

>  <InsertionCode>


>  <Model>
1

>  <AltIds>


>  <MissingHeavyAtoms>
0

>  <ObservedFormula>
C18 N3 O2 F Cl

>  <Name>
N-(4-chloro-3-fluorophenyl)-N'-(1,2,2,6,6-pentamethylpiperidin-4-yl)ethanediamide

>  <SystematicName>
N-(4-chloranyl-3-fluoranyl-phenyl)-N'-(1,2,2,6,6-pentamethylpiperidin-4-yl)ethanediamide

>  <Synonyms>


>  <Type>
NON-POLYMER

>  <Formula>
C18 H25 Cl F N3 O2

>  <MolecularWeight>
369.861

>  <ModifiedDate>
2012-04-27

>  <Parent>


>  <OneLetterCode>


>  <SubcomponentList>


>  <AmbiguousFlag>
N

>  <InChI>
InChI=1S/C18H25ClFN3O2/c1-17(2)9-12(10-18(3,4)23(17)5)22-16(25)15(24)21-11-6-7-13(19)14(20)8-11/h6-8,12H,9-10H2,1-5H3,(H,21,24)(H,22,25)

>  <InChIKey>
BDBJXDJHRQCGDD-UHFFFAOYSA-N

>  <SMILES>
CC1(CC(CC(N1C)(C)C)NC(=O)C(=O)Nc2ccc(c(c2)F)Cl)C

$$$$
