2QTA_TDP_A_887


 30 31  0  0  0  0  0  0  0  0999 V2000
   22.4674  -63.8656   -0.6371 N   0  0  0  0  0  0  0  0  0  0  0  0
   21.9142  -64.4254   -1.7213 C   0  0  0  0  0  0  0  0  0  0  0  0
   20.4875  -65.2718   -1.3794 S   0  0  0  0  0  0  0  0  0  0  0  0
   20.6149  -64.8545    0.2980 C   0  0  0  0  0  0  0  0  0  0  0  0
   21.7346  -64.0926    0.5439 C   0  0  0  0  0  0  0  0  0  0  0  0
   22.1954  -63.5478    1.8662 C   0  0  0  0  0  0  0  0  0  0  0  0
   23.8402  -63.1953   -0.6446 C   0  0  0  0  0  0  0  0  0  0  0  0
   24.5592  -59.8499    1.0090 N   0  0  0  0  0  0  0  0  0  0  0  0
   24.1238  -58.9377    0.0721 C   0  0  0  0  0  0  0  0  0  0  0  0
   24.3310  -57.4892    0.3776 C   0  0  0  0  0  0  0  0  0  0  0  0
   23.5503  -59.3050   -1.0835 N   0  0  0  0  0  0  0  0  0  0  0  0
   23.3875  -60.6724   -1.3626 C   0  0  0  0  0  0  0  0  0  0  0  0
   22.8330  -60.9725   -2.5232 N   0  0  0  0  0  0  0  0  0  0  0  0
   23.8483  -61.6874   -0.3864 C   0  0  0  0  0  0  0  0  0  0  0  0
   24.4131  -61.2132    0.7758 C   0  0  0  0  0  0  0  0  0  0  0  0
   22.5459  -60.2541   -3.1321 H   0  0  0  0  0  0  0  0  0  0  0  0
   22.7066  -61.9147   -2.7794 H   0  0  0  0  0  0  0  0  0  0  0  0
   19.5566  -65.2355    1.2594 C   0  0  0  0  0  0  0  0  0  0  0  0
   18.2278  -64.7292    0.7910 C   0  0  0  0  0  0  0  0  0  0  0  0
   17.3770  -64.5607    1.9423 O   0  0  0  0  0  0  0  0  0  0  0  0
   16.0621  -63.6587    1.8333 P   0  0  0  0  0  0  0  0  0  0  0  0
   15.2929  -63.9059    3.0498 O   0  0  0  0  0  0  0  0  0  0  0  0
   16.4453  -62.2599    1.5088 O   0  0  0  0  0  0  0  0  0  0  0  0
   16.9488  -62.2466    0.6798 H   0  0  0  0  0  0  0  0  0  0  0  0
   15.3163  -64.2974    0.5533 O   0  0  0  0  0  0  0  0  0  0  0  0
   14.5861  -65.7078    0.2464 P   0  0  0  0  0  0  0  0  0  0  0  0
   13.2360  -65.3219   -0.4443 O   0  0  0  0  0  0  0  0  0  0  0  0
   15.4429  -66.4580   -0.6868 O   0  0  0  0  0  0  0  0  0  0  0  0
   14.3133  -66.3492    1.5450 O   0  0  0  0  0  0  0  0  0  0  0  0
   13.7433  -65.7723    2.0772 H   0  0  0  0  0  0  0  0  0  0  0  0
  8  9  2  0  0  0
  8 15  1  0  0  0
  9 10  1  0  0  0
  9 11  1  0  0  0
 11 12  2  0  0  0
 12 13  1  0  0  0
 12 14  1  0  0  0
 14 15  2  0  0  0
 14  7  1  0  0  0
  7  1  1  0  0  0
  1  2  2  0  0  0
  1  5  1  0  0  0
  2  3  1  0  0  0
  3  4  1  0  0  0
  4  5  2  0  0  0
  4 18  1  0  0  0
  5  6  1  0  0  0
 18 19  1  0  0  0
 19 20  1  0  0  0
 20 21  1  0  0  0
 21 25  1  0  0  0
 21 22  2  0  0  0
 21 23  1  0  0  0
 25 26  1  0  0  0
 26 27  2  0  0  0
 26 28  1  0  0  0
 26 29  1  0  0  0
 13 16  1  0  0  0
 13 17  1  0  0  0
 23 24  1  0  0  0
 29 30  1  0  0  0
M  CHG 1   1   1
M  CHG 1  28  -1
M  END
> <minimizedAffinity>
-10.19908

$$$$
2QTA_TDP_A_887


 30 31  0  0  0  0  0  0  0  0999 V2000
   22.3892  -63.8321    0.1414 N   0  0  0  0  0  0  0  0  0  0  0  0
   22.0023  -63.7676    1.4224 C   0  0  0  0  0  0  0  0  0  0  0  0
   20.4808  -64.4602    1.6944 S   0  0  0  0  0  0  0  0  0  0  0  0
   20.3447  -64.8757    0.0172 C   0  0  0  0  0  0  0  0  0  0  0  0
   21.4528  -64.4727   -0.6930 C   0  0  0  0  0  0  0  0  0  0  0  0
   21.7041  -64.6405   -2.1648 C   0  0  0  0  0  0  0  0  0  0  0  0
   23.6368  -63.1334   -0.3964 C   0  0  0  0  0  0  0  0  0  0  0  0
   24.4031  -59.7445    1.1437 N   0  0  0  0  0  0  0  0  0  0  0  0
   24.0433  -58.8605    0.1495 C   0  0  0  0  0  0  0  0  0  0  0  0
   24.2893  -57.4078    0.4019 C   0  0  0  0  0  0  0  0  0  0  0  0
   23.5086  -59.2588   -1.0144 N   0  0  0  0  0  0  0  0  0  0  0  0
   23.3086  -60.6308   -1.2419 C   0  0  0  0  0  0  0  0  0  0  0  0
   22.7956  -60.9630   -2.4128 N   0  0  0  0  0  0  0  0  0  0  0  0
   23.6883  -61.6167   -0.2029 C   0  0  0  0  0  0  0  0  0  0  0  0
   24.2179  -61.1110    0.9627 C   0  0  0  0  0  0  0  0  0  0  0  0
   22.5623  -60.2629   -3.0644 H   0  0  0  0  0  0  0  0  0  0  0  0
   22.6465  -61.9107   -2.6339 H   0  0  0  0  0  0  0  0  0  0  0  0
   19.1869  -65.6489   -0.4837 C   0  0  0  0  0  0  0  0  0  0  0  0
   18.0714  -65.6117    0.5142 C   0  0  0  0  0  0  0  0  0  0  0  0
   17.3718  -64.3605    0.3634 O   0  0  0  0  0  0  0  0  0  0  0  0
   16.5791  -63.7390    1.6043 P   0  0  0  0  0  0  0  0  0  0  0  0
   16.8935  -64.5809    2.7554 O   0  0  0  0  0  0  0  0  0  0  0  0
   16.8601  -62.2824    1.6936 O   0  0  0  0  0  0  0  0  0  0  0  0
   16.6034  -61.8520    0.8631 H   0  0  0  0  0  0  0  0  0  0  0  0
   15.0410  -63.9394    1.1606 O   0  0  0  0  0  0  0  0  0  0  0  0
   14.1409  -65.2055    0.7097 P   0  0  0  0  0  0  0  0  0  0  0  0
   12.6617  -64.7567    0.9530 O   0  0  0  0  0  0  0  0  0  0  0  0
   14.3784  -65.4309   -0.7257 O   0  0  0  0  0  0  0  0  0  0  0  0
   14.4753  -66.3218    1.6122 O   0  0  0  0  0  0  0  0  0  0  0  0
   14.2810  -66.0667    2.5277 H   0  0  0  0  0  0  0  0  0  0  0  0
  8  9  2  0  0  0
  8 15  1  0  0  0
  9 10  1  0  0  0
  9 11  1  0  0  0
 11 12  2  0  0  0
 12 13  1  0  0  0
 12 14  1  0  0  0
 14 15  2  0  0  0
 14  7  1  0  0  0
  7  1  1  0  0  0
  1  2  2  0  0  0
  1  5  1  0  0  0
  2  3  1  0  0  0
  3  4  1  0  0  0
  4  5  2  0  0  0
  4 18  1  0  0  0
  5  6  1  0  0  0
 18 19  1  0  0  0
 19 20  1  0  0  0
 20 21  1  0  0  0
 21 25  1  0  0  0
 21 22  2  0  0  0
 21 23  1  0  0  0
 25 26  1  0  0  0
 26 27  2  0  0  0
 26 28  1  0  0  0
 26 29  1  0  0  0
 13 16  1  0  0  0
 13 17  1  0  0  0
 23 24  1  0  0  0
 29 30  1  0  0  0
M  CHG 1   1   1
M  CHG 1  28  -1
M  END
> <minimizedAffinity>
-9.41092

$$$$
2QTA_TDP_A_887


 30 31  0  0  0  0  0  0  0  0999 V2000
   22.8294  -63.6162   -0.5762 N   0  0  0  0  0  0  0  0  0  0  0  0
   22.3961  -64.1674   -1.7179 C   0  0  0  0  0  0  0  0  0  0  0  0
   20.9933  -65.0956   -1.5190 S   0  0  0  0  0  0  0  0  0  0  0  0
   20.9623  -64.7275    0.1744 C   0  0  0  0  0  0  0  0  0  0  0  0
   22.0165  -63.9184    0.5334 C   0  0  0  0  0  0  0  0  0  0  0  0
   22.3393  -63.3947    1.9042 C   0  0  0  0  0  0  0  0  0  0  0  0
   24.1607  -62.8775   -0.4514 C   0  0  0  0  0  0  0  0  0  0  0  0
   24.5870  -59.4608    1.1574 N   0  0  0  0  0  0  0  0  0  0  0  0
   24.1589  -58.5961    0.1734 C   0  0  0  0  0  0  0  0  0  0  0  0
   24.2648  -57.1316    0.4541 C   0  0  0  0  0  0  0  0  0  0  0  0
   23.6788  -59.0210   -1.0048 N   0  0  0  0  0  0  0  0  0  0  0  0
   23.6110  -60.4013   -1.2586 C   0  0  0  0  0  0  0  0  0  0  0  0
   23.1463  -60.7582   -2.4423 N   0  0  0  0  0  0  0  0  0  0  0  0
   24.0678  -61.3664   -0.2313 C   0  0  0  0  0  0  0  0  0  0  0  0
   24.5328  -60.8351    0.9503 C   0  0  0  0  0  0  0  0  0  0  0  0
   22.8569  -60.0711   -3.0852 H   0  0  0  0  0  0  0  0  0  0  0  0
   23.0893  -61.7115   -2.6818 H   0  0  0  0  0  0  0  0  0  0  0  0
   19.8514  -65.1928    1.0340 C   0  0  0  0  0  0  0  0  0  0  0  0
   18.7038  -65.6524    0.1896 C   0  0  0  0  0  0  0  0  0  0  0  0
   17.6632  -66.1324    1.0641 O   0  0  0  0  0  0  0  0  0  0  0  0
   16.1453  -65.7069    0.8010 P   0  0  0  0  0  0  0  0  0  0  0  0
   15.7153  -66.4356   -0.3893 O   0  0  0  0  0  0  0  0  0  0  0  0
   15.3605  -65.8678    2.0528 O   0  0  0  0  0  0  0  0  0  0  0  0
   15.7583  -65.3298    2.7551 H   0  0  0  0  0  0  0  0  0  0  0  0
   16.2839  -64.1319    0.4801 O   0  0  0  0  0  0  0  0  0  0  0  0
   16.2950  -62.7837    1.3738 P   0  0  0  0  0  0  0  0  0  0  0  0
   17.7648  -62.6572    1.8958 O   0  0  0  0  0  0  0  0  0  0  0  0
   15.9689  -61.6575    0.4833 O   0  0  0  0  0  0  0  0  0  0  0  0
   15.3827  -63.0060    2.5098 O   0  0  0  0  0  0  0  0  0  0  0  0
   15.6895  -63.7672    3.0268 H   0  0  0  0  0  0  0  0  0  0  0  0
  8  9  2  0  0  0
  8 15  1  0  0  0
  9 10  1  0  0  0
  9 11  1  0  0  0
 11 12  2  0  0  0
 12 13  1  0  0  0
 12 14  1  0  0  0
 14 15  2  0  0  0
 14  7  1  0  0  0
  7  1  1  0  0  0
  1  2  2  0  0  0
  1  5  1  0  0  0
  2  3  1  0  0  0
  3  4  1  0  0  0
  4  5  2  0  0  0
  4 18  1  0  0  0
  5  6  1  0  0  0
 18 19  1  0  0  0
 19 20  1  0  0  0
 20 21  1  0  0  0
 21 25  1  0  0  0
 21 22  2  0  0  0
 21 23  1  0  0  0
 25 26  1  0  0  0
 26 27  2  0  0  0
 26 28  1  0  0  0
 26 29  1  0  0  0
 13 16  1  0  0  0
 13 17  1  0  0  0
 23 24  1  0  0  0
 29 30  1  0  0  0
M  CHG 1   1   1
M  CHG 1  28  -1
M  END
> <minimizedAffinity>
-8.44315

$$$$
2QTA_TDP_A_887


 30 31  0  0  0  0  0  0  0  0999 V2000
   22.1149  -64.4754   -1.1780 N   0  0  0  0  0  0  0  0  0  0  0  0
   22.8370  -63.7254   -0.3348 C   0  0  0  0  0  0  0  0  0  0  0  0
   22.1021  -63.5293    1.1785 S   0  0  0  0  0  0  0  0  0  0  0  0
   20.7611  -64.5075    0.6795 C   0  0  0  0  0  0  0  0  0  0  0  0
   20.9122  -64.9460   -0.6165 C   0  0  0  0  0  0  0  0  0  0  0  0
   19.9633  -65.8019   -1.4068 C   0  0  0  0  0  0  0  0  0  0  0  0
   22.4702  -64.6624   -2.6520 C   0  0  0  0  0  0  0  0  0  0  0  0
   23.6741  -68.2508   -2.9944 N   0  0  0  0  0  0  0  0  0  0  0  0
   24.8333  -68.1232   -3.7287 C   0  0  0  0  0  0  0  0  0  0  0  0
   25.5418  -69.3813   -4.1155 C   0  0  0  0  0  0  0  0  0  0  0  0
   25.3209  -66.9333   -4.1106 N   0  0  0  0  0  0  0  0  0  0  0  0
   24.6263  -65.7640   -3.7581 C   0  0  0  0  0  0  0  0  0  0  0  0
   25.1452  -64.6241   -4.1774 N   0  0  0  0  0  0  0  0  0  0  0  0
   23.3714  -65.8555   -2.9754 C   0  0  0  0  0  0  0  0  0  0  0  0
   22.9576  -67.1192   -2.6195 C   0  0  0  0  0  0  0  0  0  0  0  0
   25.9830  -64.6254   -4.6945 H   0  0  0  0  0  0  0  0  0  0  0  0
   24.6943  -63.7732   -3.9728 H   0  0  0  0  0  0  0  0  0  0  0  0
   19.6770  -64.8524    1.6257 C   0  0  0  0  0  0  0  0  0  0  0  0
   18.3437  -64.6823    0.9664 C   0  0  0  0  0  0  0  0  0  0  0  0
   17.3368  -64.6096    1.9954 O   0  0  0  0  0  0  0  0  0  0  0  0
   16.0655  -63.6615    1.7974 P   0  0  0  0  0  0  0  0  0  0  0  0
   15.2383  -63.8301    2.9890 O   0  0  0  0  0  0  0  0  0  0  0  0
   16.5185  -62.2928    1.4367 O   0  0  0  0  0  0  0  0  0  0  0  0
   17.0552  -62.3320    0.6297 H   0  0  0  0  0  0  0  0  0  0  0  0
   15.3464  -64.3202    0.5122 O   0  0  0  0  0  0  0  0  0  0  0  0
   14.5532  -65.7023    0.2341 P   0  0  0  0  0  0  0  0  0  0  0  0
   13.1967  -65.2664   -0.4129 O   0  0  0  0  0  0  0  0  0  0  0  0
   15.3494  -66.4864   -0.7245 O   0  0  0  0  0  0  0  0  0  0  0  0
   14.2992  -66.3303    1.5430 O   0  0  0  0  0  0  0  0  0  0  0  0
   13.7696  -65.7310    2.0919 H   0  0  0  0  0  0  0  0  0  0  0  0
  8  9  2  0  0  0
  8 15  1  0  0  0
  9 10  1  0  0  0
  9 11  1  0  0  0
 11 12  2  0  0  0
 12 13  1  0  0  0
 12 14  1  0  0  0
 14 15  2  0  0  0
 14  7  1  0  0  0
  7  1  1  0  0  0
  1  2  2  0  0  0
  1  5  1  0  0  0
  2  3  1  0  0  0
  3  4  1  0  0  0
  4  5  2  0  0  0
  4 18  1  0  0  0
  5  6  1  0  0  0
 18 19  1  0  0  0
 19 20  1  0  0  0
 20 21  1  0  0  0
 21 25  1  0  0  0
 21 22  2  0  0  0
 21 23  1  0  0  0
 25 26  1  0  0  0
 26 27  2  0  0  0
 26 28  1  0  0  0
 26 29  1  0  0  0
 13 16  1  0  0  0
 13 17  1  0  0  0
 23 24  1  0  0  0
 29 30  1  0  0  0
M  CHG 1   1   1
M  CHG 1  28  -1
M  END
> <minimizedAffinity>
-8.30744

$$$$
2QTA_TDP_A_887


 30 31  0  0  0  0  0  0  0  0999 V2000
   21.8146  -64.2450   -0.3432 N   0  0  0  0  0  0  0  0  0  0  0  0
   21.7109  -63.9779    0.9655 C   0  0  0  0  0  0  0  0  0  0  0  0
   20.3541  -64.6915    1.6856 S   0  0  0  0  0  0  0  0  0  0  0  0
   19.8953  -65.4006    0.1721 C   0  0  0  0  0  0  0  0  0  0  0  0
   20.7815  -65.0703   -0.8281 C   0  0  0  0  0  0  0  0  0  0  0  0
   20.7213  -65.4794   -2.2726 C   0  0  0  0  0  0  0  0  0  0  0  0
   22.8469  -63.5864   -1.2567 C   0  0  0  0  0  0  0  0  0  0  0  0
   23.1646  -59.8109   -0.9598 N   0  0  0  0  0  0  0  0  0  0  0  0
   24.0391  -59.6524    0.0935 C   0  0  0  0  0  0  0  0  0  0  0  0
   24.3339  -58.2552    0.5355 C   0  0  0  0  0  0  0  0  0  0  0  0
   24.6044  -60.6906    0.7274 N   0  0  0  0  0  0  0  0  0  0  0  0
   24.2946  -61.9968    0.3127 C   0  0  0  0  0  0  0  0  0  0  0  0
   24.8677  -62.9779    0.9861 N   0  0  0  0  0  0  0  0  0  0  0  0
   23.3533  -62.2134   -0.8110 C   0  0  0  0  0  0  0  0  0  0  0  0
   22.8342  -61.0860   -1.4064 C   0  0  0  0  0  0  0  0  0  0  0  0
   25.4858  -62.7728    1.7244 H   0  0  0  0  0  0  0  0  0  0  0  0
   24.6769  -63.9144    0.7497 H   0  0  0  0  0  0  0  0  0  0  0  0
   18.7314  -66.3095    0.0793 C   0  0  0  0  0  0  0  0  0  0  0  0
   17.5262  -65.5573   -0.3930 C   0  0  0  0  0  0  0  0  0  0  0  0
   16.3599  -66.3636   -0.1331 O   0  0  0  0  0  0  0  0  0  0  0  0
   15.0103  -65.6699    0.3687 P   0  0  0  0  0  0  0  0  0  0  0  0
   14.1844  -65.4718   -0.8194 O   0  0  0  0  0  0  0  0  0  0  0  0
   14.4454  -66.4461    1.5032 O   0  0  0  0  0  0  0  0  0  0  0  0
   15.0995  -66.4969    2.2176 H   0  0  0  0  0  0  0  0  0  0  0  0
   15.5431  -64.2542    0.9293 O   0  0  0  0  0  0  0  0  0  0  0  0
   15.9827  -63.6968    2.3828 P   0  0  0  0  0  0  0  0  0  0  0  0
   17.1923  -64.5929    2.8102 O   0  0  0  0  0  0  0  0  0  0  0  0
   16.4154  -62.3001    2.2109 O   0  0  0  0  0  0  0  0  0  0  0  0
   14.8497  -63.9237    3.2977 O   0  0  0  0  0  0  0  0  0  0  0  0
   14.6499  -64.8721    3.3359 H   0  0  0  0  0  0  0  0  0  0  0  0
  8  9  2  0  0  0
  8 15  1  0  0  0
  9 10  1  0  0  0
  9 11  1  0  0  0
 11 12  2  0  0  0
 12 13  1  0  0  0
 12 14  1  0  0  0
 14 15  2  0  0  0
 14  7  1  0  0  0
  7  1  1  0  0  0
  1  2  2  0  0  0
  1  5  1  0  0  0
  2  3  1  0  0  0
  3  4  1  0  0  0
  4  5  2  0  0  0
  4 18  1  0  0  0
  5  6  1  0  0  0
 18 19  1  0  0  0
 19 20  1  0  0  0
 20 21  1  0  0  0
 21 25  1  0  0  0
 21 22  2  0  0  0
 21 23  1  0  0  0
 25 26  1  0  0  0
 26 27  2  0  0  0
 26 28  1  0  0  0
 26 29  1  0  0  0
 13 16  1  0  0  0
 13 17  1  0  0  0
 23 24  1  0  0  0
 29 30  1  0  0  0
M  CHG 1   1   1
M  CHG 1  28  -1
M  END
> <minimizedAffinity>
-7.90141

$$$$
2QTA_TDP_A_887


 30 31  0  0  0  0  0  0  0  0999 V2000
   23.7012  -63.5424   -1.6238 N   0  0  0  0  0  0  0  0  0  0  0  0
   24.1172  -63.8353   -2.8632 C   0  0  0  0  0  0  0  0  0  0  0  0
   22.9766  -64.7096   -3.7595 S   0  0  0  0  0  0  0  0  0  0  0  0
   21.8713  -64.6801   -2.4247 C   0  0  0  0  0  0  0  0  0  0  0  0
   22.4038  -64.0136   -1.3445 C   0  0  0  0  0  0  0  0  0  0  0  0
   21.7617  -63.7867   -0.0051 C   0  0  0  0  0  0  0  0  0  0  0  0
   24.6010  -62.9134   -0.5615 C   0  0  0  0  0  0  0  0  0  0  0  0
   24.6961  -59.5500    1.2056 N   0  0  0  0  0  0  0  0  0  0  0  0
   24.1472  -58.6928    0.2764 C   0  0  0  0  0  0  0  0  0  0  0  0
   24.0998  -57.2406    0.6274 C   0  0  0  0  0  0  0  0  0  0  0  0
   23.6827  -59.1125   -0.9099 N   0  0  0  0  0  0  0  0  0  0  0  0
   23.7595  -60.4783   -1.2307 C   0  0  0  0  0  0  0  0  0  0  0  0
   23.3028  -60.8286   -2.4195 N   0  0  0  0  0  0  0  0  0  0  0  0
   24.3491  -61.4340   -0.2640 C   0  0  0  0  0  0  0  0  0  0  0  0
   24.7870  -60.9106    0.9314 C   0  0  0  0  0  0  0  0  0  0  0  0
   22.9212  -60.1483   -3.0202 H   0  0  0  0  0  0  0  0  0  0  0  0
   23.3439  -61.7699   -2.7049 H   0  0  0  0  0  0  0  0  0  0  0  0
   20.5100  -65.2461   -2.5513 C   0  0  0  0  0  0  0  0  0  0  0  0
   20.1654  -66.0385   -1.3288 C   0  0  0  0  0  0  0  0  0  0  0  0
   18.7637  -65.8515   -1.0494 O   0  0  0  0  0  0  0  0  0  0  0  0
   18.2214  -66.0236    0.4442 P   0  0  0  0  0  0  0  0  0  0  0  0
   18.5960  -67.3712    0.8640 O   0  0  0  0  0  0  0  0  0  0  0  0
   18.6704  -64.8731    1.2709 O   0  0  0  0  0  0  0  0  0  0  0  0
   18.3512  -64.0468    0.8756 H   0  0  0  0  0  0  0  0  0  0  0  0
   16.6245  -65.9183    0.2410 O   0  0  0  0  0  0  0  0  0  0  0  0
   15.4192  -65.1956    1.0419 P   0  0  0  0  0  0  0  0  0  0  0  0
   15.9941  -64.9152    2.4700 O   0  0  0  0  0  0  0  0  0  0  0  0
   15.1229  -63.9295    0.3513 O   0  0  0  0  0  0  0  0  0  0  0  0
   14.3135  -66.1658    1.1341 O   0  0  0  0  0  0  0  0  0  0  0  0
   14.6168  -66.9579    1.6048 H   0  0  0  0  0  0  0  0  0  0  0  0
  8  9  2  0  0  0
  8 15  1  0  0  0
  9 10  1  0  0  0
  9 11  1  0  0  0
 11 12  2  0  0  0
 12 13  1  0  0  0
 12 14  1  0  0  0
 14 15  2  0  0  0
 14  7  1  0  0  0
  7  1  1  0  0  0
  1  2  2  0  0  0
  1  5  1  0  0  0
  2  3  1  0  0  0
  3  4  1  0  0  0
  4  5  2  0  0  0
  4 18  1  0  0  0
  5  6  1  0  0  0
 18 19  1  0  0  0
 19 20  1  0  0  0
 20 21  1  0  0  0
 21 25  1  0  0  0
 21 22  2  0  0  0
 21 23  1  0  0  0
 25 26  1  0  0  0
 26 27  2  0  0  0
 26 28  1  0  0  0
 26 29  1  0  0  0
 13 16  1  0  0  0
 13 17  1  0  0  0
 23 24  1  0  0  0
 29 30  1  0  0  0
M  CHG 1   1   1
M  CHG 1  28  -1
M  END
> <minimizedAffinity>
-7.87738

$$$$
2QTA_TDP_A_887


 30 31  0  0  0  0  0  0  0  0999 V2000
   20.3325  -64.8214    0.1472 N   0  0  0  0  0  0  0  0  0  0  0  0
   20.0704  -65.2933   -1.0790 C   0  0  0  0  0  0  0  0  0  0  0  0
   21.2882  -64.9417   -2.2024 S   0  0  0  0  0  0  0  0  0  0  0  0
   22.2128  -64.1311   -0.9808 C   0  0  0  0  0  0  0  0  0  0  0  0
   21.5673  -64.1499    0.2348 C   0  0  0  0  0  0  0  0  0  0  0  0
   22.0384  -63.5465    1.5277 C   0  0  0  0  0  0  0  0  0  0  0  0
   19.3240  -64.8547    1.2943 C   0  0  0  0  0  0  0  0  0  0  0  0
   16.0037  -66.2421    0.0719 N   0  0  0  0  0  0  0  0  0  0  0  0
   15.1222  -65.2137    0.3264 C   0  0  0  0  0  0  0  0  0  0  0  0
   13.6784  -65.4583    0.0263 C   0  0  0  0  0  0  0  0  0  0  0  0
   15.5116  -64.0367    0.8387 N   0  0  0  0  0  0  0  0  0  0  0  0
   16.8698  -63.8360    1.1372 C   0  0  0  0  0  0  0  0  0  0  0  0
   17.1898  -62.6642    1.6559 N   0  0  0  0  0  0  0  0  0  0  0  0
   17.8509  -64.9178    0.8865 C   0  0  0  0  0  0  0  0  0  0  0  0
   17.3578  -66.0845    0.3475 C   0  0  0  0  0  0  0  0  0  0  0  0
   16.4938  -61.9830    1.7998 H   0  0  0  0  0  0  0  0  0  0  0  0
   18.1244  -62.4720    1.8985 H   0  0  0  0  0  0  0  0  0  0  0  0
   23.5601  -63.5954   -1.2762 C   0  0  0  0  0  0  0  0  0  0  0  0
   23.8233  -63.6458   -2.7491 C   0  0  0  0  0  0  0  0  0  0  0  0
   24.9121  -64.5613   -2.9825 O   0  0  0  0  0  0  0  0  0  0  0  0
   24.6972  -65.8242   -3.9381 P   0  0  0  0  0  0  0  0  0  0  0  0
   23.6258  -65.4620   -4.8621 O   0  0  0  0  0  0  0  0  0  0  0  0
   26.0053  -66.2489   -4.5011 O   0  0  0  0  0  0  0  0  0  0  0  0
   26.6164  -66.4575   -3.7773 H   0  0  0  0  0  0  0  0  0  0  0  0
   24.1926  -66.9532   -2.9021 O   0  0  0  0  0  0  0  0  0  0  0  0
   24.4272  -68.5464   -2.7498 P   0  0  0  0  0  0  0  0  0  0  0  0
   22.9910  -69.1570   -2.6345 O   0  0  0  0  0  0  0  0  0  0  0  0
   25.0872  -69.0179   -3.9785 O   0  0  0  0  0  0  0  0  0  0  0  0
   25.1599  -68.7607   -1.4890 O   0  0  0  0  0  0  0  0  0  0  0  0
   24.6374  -68.4148   -0.7486 H   0  0  0  0  0  0  0  0  0  0  0  0
  8  9  2  0  0  0
  8 15  1  0  0  0
  9 10  1  0  0  0
  9 11  1  0  0  0
 11 12  2  0  0  0
 12 13  1  0  0  0
 12 14  1  0  0  0
 14 15  2  0  0  0
 14  7  1  0  0  0
  7  1  1  0  0  0
  1  2  2  0  0  0
  1  5  1  0  0  0
  2  3  1  0  0  0
  3  4  1  0  0  0
  4  5  2  0  0  0
  4 18  1  0  0  0
  5  6  1  0  0  0
 18 19  1  0  0  0
 19 20  1  0  0  0
 20 21  1  0  0  0
 21 25  1  0  0  0
 21 22  2  0  0  0
 21 23  1  0  0  0
 25 26  1  0  0  0
 26 27  2  0  0  0
 26 28  1  0  0  0
 26 29  1  0  0  0
 13 16  1  0  0  0
 13 17  1  0  0  0
 23 24  1  0  0  0
 29 30  1  0  0  0
M  CHG 1   1   1
M  CHG 1  28  -1
M  END
> <minimizedAffinity>
-7.50826

$$$$
2QTA_TDP_A_887


 30 31  0  0  0  0  0  0  0  0999 V2000
   23.7180  -63.5870   -1.6131 N   0  0  0  0  0  0  0  0  0  0  0  0
   24.0894  -63.7810   -2.8856 C   0  0  0  0  0  0  0  0  0  0  0  0
   22.9133  -64.5766   -3.8089 S   0  0  0  0  0  0  0  0  0  0  0  0
   21.8545  -64.6502   -2.4386 C   0  0  0  0  0  0  0  0  0  0  0  0
   22.4279  -64.0744   -1.3275 C   0  0  0  0  0  0  0  0  0  0  0  0
   21.8336  -63.9534    0.0471 C   0  0  0  0  0  0  0  0  0  0  0  0
   24.6576  -63.0484   -0.5356 C   0  0  0  0  0  0  0  0  0  0  0  0
   23.6450  -59.4015   -0.8791 N   0  0  0  0  0  0  0  0  0  0  0  0
   24.1653  -58.8238    0.2588 C   0  0  0  0  0  0  0  0  0  0  0  0
   23.8804  -57.3736    0.4831 C   0  0  0  0  0  0  0  0  0  0  0  0
   24.8864  -59.5131    1.1556 N   0  0  0  0  0  0  0  0  0  0  0  0
   25.1216  -60.8812    0.9386 C   0  0  0  0  0  0  0  0  0  0  0  0
   25.8225  -61.5103    1.8646 N   0  0  0  0  0  0  0  0  0  0  0  0
   24.5743  -61.5445   -0.2681 C   0  0  0  0  0  0  0  0  0  0  0  0
   23.8579  -60.7517   -1.1360 C   0  0  0  0  0  0  0  0  0  0  0  0
   26.1610  -61.0164    2.6461 H   0  0  0  0  0  0  0  0  0  0  0  0
   26.0065  -62.4732    1.7734 H   0  0  0  0  0  0  0  0  0  0  0  0
   20.4862  -65.1994   -2.5628 C   0  0  0  0  0  0  0  0  0  0  0  0
   20.1212  -65.9591   -1.3255 C   0  0  0  0  0  0  0  0  0  0  0  0
   18.8810  -65.4277   -0.8183 O   0  0  0  0  0  0  0  0  0  0  0  0
   18.4085  -65.7908    0.6648 P   0  0  0  0  0  0  0  0  0  0  0  0
   18.1691  -67.2313    0.6780 O   0  0  0  0  0  0  0  0  0  0  0  0
   19.3705  -65.2230    1.6451 O   0  0  0  0  0  0  0  0  0  0  0  0
   19.4291  -64.2627    1.5215 H   0  0  0  0  0  0  0  0  0  0  0  0
   17.0160  -64.9852    0.7854 O   0  0  0  0  0  0  0  0  0  0  0  0
   15.4528  -65.3978    0.7340 P   0  0  0  0  0  0  0  0  0  0  0  0
   15.3186  -66.3161   -0.5259 O   0  0  0  0  0  0  0  0  0  0  0  0
   15.1539  -66.1600    1.9577 O   0  0  0  0  0  0  0  0  0  0  0  0
   14.6813  -64.1588    0.5292 O   0  0  0  0  0  0  0  0  0  0  0  0
   14.9568  -63.7399   -0.3012 H   0  0  0  0  0  0  0  0  0  0  0  0
  8  9  2  0  0  0
  8 15  1  0  0  0
  9 10  1  0  0  0
  9 11  1  0  0  0
 11 12  2  0  0  0
 12 13  1  0  0  0
 12 14  1  0  0  0
 14 15  2  0  0  0
 14  7  1  0  0  0
  7  1  1  0  0  0
  1  2  2  0  0  0
  1  5  1  0  0  0
  2  3  1  0  0  0
  3  4  1  0  0  0
  4  5  2  0  0  0
  4 18  1  0  0  0
  5  6  1  0  0  0
 18 19  1  0  0  0
 19 20  1  0  0  0
 20 21  1  0  0  0
 21 25  1  0  0  0
 21 22  2  0  0  0
 21 23  1  0  0  0
 25 26  1  0  0  0
 26 27  2  0  0  0
 26 28  1  0  0  0
 26 29  1  0  0  0
 13 16  1  0  0  0
 13 17  1  0  0  0
 23 24  1  0  0  0
 29 30  1  0  0  0
M  CHG 1   1   1
M  CHG 1  28  -1
M  END
> <minimizedAffinity>
-7.50649

$$$$
2QTA_TDP_A_887


 30 31  0  0  0  0  0  0  0  0999 V2000
   19.7696  -65.2195    0.0456 N   0  0  0  0  0  0  0  0  0  0  0  0
   19.4651  -65.7164   -1.1607 C   0  0  0  0  0  0  0  0  0  0  0  0
   20.6582  -65.4172   -2.3250 S   0  0  0  0  0  0  0  0  0  0  0  0
   21.6313  -64.5951   -1.1496 C   0  0  0  0  0  0  0  0  0  0  0  0
   21.0191  -64.5707    0.0830 C   0  0  0  0  0  0  0  0  0  0  0  0
   21.5369  -63.9448    1.3469 C   0  0  0  0  0  0  0  0  0  0  0  0
   18.7925  -65.2041    1.2199 C   0  0  0  0  0  0  0  0  0  0  0  0
   15.2806  -66.1150    0.0883 N   0  0  0  0  0  0  0  0  0  0  0  0
   14.5549  -64.9791    0.3755 C   0  0  0  0  0  0  0  0  0  0  0  0
   13.0832  -65.0222    0.1170 C   0  0  0  0  0  0  0  0  0  0  0  0
   15.1153  -63.8713    0.8834 N   0  0  0  0  0  0  0  0  0  0  0  0
   16.4962  -63.8600    1.1426 C   0  0  0  0  0  0  0  0  0  0  0  0
   16.9874  -62.7479    1.6588 N   0  0  0  0  0  0  0  0  0  0  0  0
   17.3134  -65.0623    0.8559 C   0  0  0  0  0  0  0  0  0  0  0  0
   16.6509  -66.1456    0.3244 C   0  0  0  0  0  0  0  0  0  0  0  0
   16.3949  -61.9800    1.8277 H   0  0  0  0  0  0  0  0  0  0  0  0
   17.9460  -62.6868    1.8748 H   0  0  0  0  0  0  0  0  0  0  0  0
   22.9800  -64.0938   -1.4947 C   0  0  0  0  0  0  0  0  0  0  0  0
   22.8820  -63.0298   -2.5433 C   0  0  0  0  0  0  0  0  0  0  0  0
   22.5424  -61.7874   -1.8959 O   0  0  0  0  0  0  0  0  0  0  0  0
   23.6928  -60.8944   -1.2374 P   0  0  0  0  0  0  0  0  0  0  0  0
   24.9430  -61.3025   -1.8721 O   0  0  0  0  0  0  0  0  0  0  0  0
   23.3031  -59.4614   -1.2953 O   0  0  0  0  0  0  0  0  0  0  0  0
   22.4576  -59.3374   -0.8363 H   0  0  0  0  0  0  0  0  0  0  0  0
   23.6574  -61.3748    0.3023 O   0  0  0  0  0  0  0  0  0  0  0  0
   24.7768  -61.8073    1.3870 P   0  0  0  0  0  0  0  0  0  0  0  0
   24.2319  -61.2879    2.7588 O   0  0  0  0  0  0  0  0  0  0  0  0
   24.8495  -63.2778    1.3883 O   0  0  0  0  0  0  0  0  0  0  0  0
   26.0176  -61.0904    1.0426 O   0  0  0  0  0  0  0  0  0  0  0  0
   25.8574  -60.1342    1.0722 H   0  0  0  0  0  0  0  0  0  0  0  0
  8  9  2  0  0  0
  8 15  1  0  0  0
  9 10  1  0  0  0
  9 11  1  0  0  0
 11 12  2  0  0  0
 12 13  1  0  0  0
 12 14  1  0  0  0
 14 15  2  0  0  0
 14  7  1  0  0  0
  7  1  1  0  0  0
  1  2  2  0  0  0
  1  5  1  0  0  0
  2  3  1  0  0  0
  3  4  1  0  0  0
  4  5  2  0  0  0
  4 18  1  0  0  0
  5  6  1  0  0  0
 18 19  1  0  0  0
 19 20  1  0  0  0
 20 21  1  0  0  0
 21 25  1  0  0  0
 21 22  2  0  0  0
 21 23  1  0  0  0
 25 26  1  0  0  0
 26 27  2  0  0  0
 26 28  1  0  0  0
 26 29  1  0  0  0
 13 16  1  0  0  0
 13 17  1  0  0  0
 23 24  1  0  0  0
 29 30  1  0  0  0
M  CHG 1   1   1
M  CHG 1  28  -1
M  END
> <minimizedAffinity>
-7.26649

$$$$
