3OZG_SSI_A_232


 27 28  0  0  0  0  0  0  0  0999 V2000
   61.3443   35.9588   75.2063 N   0  0  0  0  0  0  0  0  0  0  0  0
   61.7447   36.8889   75.0833 H   0  0  0  0  0  0  0  0  0  0  0  0
   62.3885   35.1550   75.8057 C   0  0  0  0  0  0  0  0  0  0  0  0
   64.1272   37.4926   80.2876 N   0  0  0  0  0  0  0  0  0  0  0  0
   62.9336   36.9357   80.0260 C   0  0  0  0  0  0  0  0  0  0  0  0
   62.6284   36.3941   78.8441 N   0  0  0  0  0  0  0  0  0  0  0  0
   63.5708   36.4171   77.8744 C   0  0  0  0  0  0  0  0  0  0  0  0
   64.8977   37.0063   78.0762 C   0  0  0  0  0  0  0  0  0  0  0  0
   65.1417   37.5777   79.4163 C   0  0  0  0  0  0  0  0  0  0  0  0
   66.2570   38.1153   79.7166 O   0  0  0  0  0  0  0  0  0  0  0  0
   65.5767   36.8655   76.9253 N   0  0  0  0  0  0  0  0  0  0  0  0
   64.8010   36.2082   76.0023 C   0  0  0  0  0  0  0  0  0  0  0  0
   63.5289   35.8964   76.4897 C   0  0  0  0  0  0  0  0  0  0  0  0
   64.2675   37.8667   81.1874 H   0  0  0  0  0  0  0  0  0  0  0  0
   66.4940   37.1860   76.7672 H   0  0  0  0  0  0  0  0  0  0  0  0
   60.7014   35.6300   73.9364 C   0  0  0  0  0  0  0  0  0  0  0  0
   61.2404   36.5824   72.8756 C   0  0  0  0  0  0  0  0  0  0  0  0
   61.6220   37.8496   73.4384 O   0  0  0  0  0  0  0  0  0  0  0  0
   60.8464   38.2721   73.8394 H   0  0  0  0  0  0  0  0  0  0  0  0
   59.1672   35.7322   73.9883 C   0  0  0  0  0  0  0  0  0  0  0  0
   58.6611   35.9250   75.4240 C   0  0  0  0  0  0  0  0  0  0  0  0
   58.0519   34.3756   76.1669 P   0  0  0  0  0  0  0  0  0  0  0  0
   56.8869   33.9714   75.2719 O   0  0  0  0  0  0  0  0  0  0  0  0
   59.2342   33.4500   76.1279 O   0  0  0  0  0  0  0  0  0  0  0  0
   57.6960   34.7554   77.5787 O   0  0  0  0  0  0  0  0  0  0  0  0
   56.4988   33.1450   75.5997 H   0  0  0  0  0  0  0  0  0  0  0  0
   57.3593   33.9762   78.0481 H   0  0  0  0  0  0  0  0  0  0  0  0
 24 22  2  0  0  0
 25 22  1  0  0  0
 22 23  1  0  0  0
 22 21  1  0  0  0
  9  4  1  0  0  0
  4  5  1  0  0  0
  5  6  2  0  0  0
  7  6  1  0  0  0
  8  7  2  0  0  0
  7 13  1  0  0  0
  9  8  1  0  0  0
 11  8  1  0  0  0
 10  9  2  0  0  0
 11 12  1  0  0  0
 12 13  2  0  0  0
 13  3  1  0  0  0
  3  1  1  0  0  0
 16 17  1  0  0  0
 17 18  1  0  0  0
 20 16  1  0  0  0
  1 16  1  0  0  0
 21 20  1  0  0  0
  4 14  1  0  0  0
 11 15  1  0  0  0
 23 26  1  0  0  0
 18 19  1  0  0  0
 25 27  1  0  0  0
  1  2  1  0  0  0
M  END
> <minimizedAffinity>
-9.49891

$$$$
3OZG_SSI_A_232


 27 28  0  0  0  0  0  0  0  0999 V2000
   61.3417   35.1597   75.6690 N   0  0  0  0  0  0  0  0  0  0  0  0
   60.8952   35.7338   74.9539 H   0  0  0  0  0  0  0  0  0  0  0  0
   62.7525   35.1502   75.3444 C   0  0  0  0  0  0  0  0  0  0  0  0
   63.4407   37.2133   80.2276 N   0  0  0  0  0  0  0  0  0  0  0  0
   62.3620   36.6096   79.7030 C   0  0  0  0  0  0  0  0  0  0  0  0
   62.3252   36.1491   78.4499 N   0  0  0  0  0  0  0  0  0  0  0  0
   63.4286   36.3073   77.6842 C   0  0  0  0  0  0  0  0  0  0  0  0
   64.6467   36.9559   78.1783 C   0  0  0  0  0  0  0  0  0  0  0  0
   64.5918   37.4293   79.5764 C   0  0  0  0  0  0  0  0  0  0  0  0
   65.5879   38.0060   80.1224 O   0  0  0  0  0  0  0  0  0  0  0  0
   65.5383   36.9501   77.1731 N   0  0  0  0  0  0  0  0  0  0  0  0
   65.0005   36.3255   76.0748 C   0  0  0  0  0  0  0  0  0  0  0  0
   63.6862   35.8998   76.2849 C   0  0  0  0  0  0  0  0  0  0  0  0
   63.3815   37.5202   81.1611 H   0  0  0  0  0  0  0  0  0  0  0  0
   66.4428   37.3364   77.2174 H   0  0  0  0  0  0  0  0  0  0  0  0
   60.5297   33.9499   75.7740 C   0  0  0  0  0  0  0  0  0  0  0  0
   60.7977   33.0948   74.5411 C   0  0  0  0  0  0  0  0  0  0  0  0
   59.7779   33.2630   73.5413 O   0  0  0  0  0  0  0  0  0  0  0  0
   58.9212   32.9879   73.9037 H   0  0  0  0  0  0  0  0  0  0  0  0
   59.0224   34.2379   75.8830 C   0  0  0  0  0  0  0  0  0  0  0  0
   58.7293   35.7435   75.8385 C   0  0  0  0  0  0  0  0  0  0  0  0
   58.2219   36.3107   74.1818 P   0  0  0  0  0  0  0  0  0  0  0  0
   57.4932   37.6220   74.4489 O   0  0  0  0  0  0  0  0  0  0  0  0
   59.5093   36.4429   73.4194 O   0  0  0  0  0  0  0  0  0  0  0  0
   57.3778   35.1860   73.6466 O   0  0  0  0  0  0  0  0  0  0  0  0
   57.1851   37.9975   73.6093 H   0  0  0  0  0  0  0  0  0  0  0  0
   57.0644   35.4120   72.7568 H   0  0  0  0  0  0  0  0  0  0  0  0
 24 22  2  0  0  0
 25 22  1  0  0  0
 22 23  1  0  0  0
 22 21  1  0  0  0
  9  4  1  0  0  0
  4  5  1  0  0  0
  5  6  2  0  0  0
  7  6  1  0  0  0
  8  7  2  0  0  0
  7 13  1  0  0  0
  9  8  1  0  0  0
 11  8  1  0  0  0
 10  9  2  0  0  0
 11 12  1  0  0  0
 12 13  2  0  0  0
 13  3  1  0  0  0
  3  1  1  0  0  0
 16 17  1  0  0  0
 17 18  1  0  0  0
 20 16  1  0  0  0
  1 16  1  0  0  0
 21 20  1  0  0  0
  4 14  1  0  0  0
 11 15  1  0  0  0
 23 26  1  0  0  0
 18 19  1  0  0  0
 25 27  1  0  0  0
  1  2  1  0  0  0
M  END
> <minimizedAffinity>
-9.26118

$$$$
3OZG_SSI_A_232


 27 28  0  0  0  0  0  0  0  0999 V2000
   60.1780   35.5308   77.1985 N   0  0  0  0  0  0  0  0  0  0  0  0
   60.1930   34.5367   77.4267 H   0  0  0  0  0  0  0  0  0  0  0  0
   60.4239   36.2262   78.4441 C   0  0  0  0  0  0  0  0  0  0  0  0
   65.4525   36.5717   76.6639 N   0  0  0  0  0  0  0  0  0  0  0  0
   64.3444   36.1808   76.0137 C   0  0  0  0  0  0  0  0  0  0  0  0
   63.1423   36.1300   76.5933 N   0  0  0  0  0  0  0  0  0  0  0  0
   63.0507   36.4871   77.8945 C   0  0  0  0  0  0  0  0  0  0  0  0
   64.2104   36.9240   78.6773 C   0  0  0  0  0  0  0  0  0  0  0  0
   65.4952   36.9497   77.9488 C   0  0  0  0  0  0  0  0  0  0  0  0
   66.5749   37.3145   78.5182 O   0  0  0  0  0  0  0  0  0  0  0  0
   63.7746   37.1978   79.9184 N   0  0  0  0  0  0  0  0  0  0  0  0
   62.4183   36.9961   79.9926 C   0  0  0  0  0  0  0  0  0  0  0  0
   61.8732   36.5404   78.7893 C   0  0  0  0  0  0  0  0  0  0  0  0
   66.2972   36.5814   76.1584 H   0  0  0  0  0  0  0  0  0  0  0  0
   64.3431   37.4983   80.6638 H   0  0  0  0  0  0  0  0  0  0  0  0
   58.9837   35.7348   76.3825 C   0  0  0  0  0  0  0  0  0  0  0  0
   58.2127   34.4207   76.3399 C   0  0  0  0  0  0  0  0  0  0  0  0
   57.6155   34.1093   77.6105 O   0  0  0  0  0  0  0  0  0  0  0  0
   58.3109   34.0153   78.2803 H   0  0  0  0  0  0  0  0  0  0  0  0
   59.2992   36.1932   74.9482 C   0  0  0  0  0  0  0  0  0  0  0  0
   60.5862   35.5473   74.4180 C   0  0  0  0  0  0  0  0  0  0  0  0
   61.2731   36.4311   72.9789 P   0  0  0  0  0  0  0  0  0  0  0  0
   61.5795   37.8243   73.5145 O   0  0  0  0  0  0  0  0  0  0  0  0
   62.4761   35.6242   72.5816 O   0  0  0  0  0  0  0  0  0  0  0  0
   60.1876   36.3496   71.9401 O   0  0  0  0  0  0  0  0  0  0  0  0
   61.9538   38.3687   72.8043 H   0  0  0  0  0  0  0  0  0  0  0  0
   60.4779   36.8022   71.1328 H   0  0  0  0  0  0  0  0  0  0  0  0
 24 22  2  0  0  0
 25 22  1  0  0  0
 22 23  1  0  0  0
 22 21  1  0  0  0
  9  4  1  0  0  0
  4  5  1  0  0  0
  5  6  2  0  0  0
  7  6  1  0  0  0
  8  7  2  0  0  0
  7 13  1  0  0  0
  9  8  1  0  0  0
 11  8  1  0  0  0
 10  9  2  0  0  0
 11 12  1  0  0  0
 12 13  2  0  0  0
 13  3  1  0  0  0
  3  1  1  0  0  0
 16 17  1  0  0  0
 17 18  1  0  0  0
 20 16  1  0  0  0
  1 16  1  0  0  0
 21 20  1  0  0  0
  4 14  1  0  0  0
 11 15  1  0  0  0
 23 26  1  0  0  0
 18 19  1  0  0  0
 25 27  1  0  0  0
  1  2  1  0  0  0
M  END
> <minimizedAffinity>
-9.21601

$$$$
3OZG_SSI_A_232


 27 28  0  0  0  0  0  0  0  0999 V2000
   61.1856   34.9780   76.8843 N   0  0  0  0  0  0  0  0  0  0  0  0
   61.4341   35.2890   77.8234 H   0  0  0  0  0  0  0  0  0  0  0  0
   62.4177   34.9911   76.1245 C   0  0  0  0  0  0  0  0  0  0  0  0
   64.3704   37.6151   80.3526 N   0  0  0  0  0  0  0  0  0  0  0  0
   63.1851   37.0013   80.2049 C   0  0  0  0  0  0  0  0  0  0  0  0
   62.8200   36.3897   79.0752 N   0  0  0  0  0  0  0  0  0  0  0  0
   63.6900   36.3994   78.0398 C   0  0  0  0  0  0  0  0  0  0  0  0
   65.0025   37.0475   78.1168 C   0  0  0  0  0  0  0  0  0  0  0  0
   65.3166   37.6943   79.4071 C   0  0  0  0  0  0  0  0  0  0  0  0
   66.4273   38.2879   79.6000 O   0  0  0  0  0  0  0  0  0  0  0  0
   65.6039   36.8745   76.9278 N   0  0  0  0  0  0  0  0  0  0  0  0
   64.7928   36.1429   76.0957 C   0  0  0  0  0  0  0  0  0  0  0  0
   63.5721   35.8084   76.6881 C   0  0  0  0  0  0  0  0  0  0  0  0
   64.5582   38.0390   81.2211 H   0  0  0  0  0  0  0  0  0  0  0  0
   66.4939   37.2209   76.6887 H   0  0  0  0  0  0  0  0  0  0  0  0
   59.9992   35.7443   76.5112 C   0  0  0  0  0  0  0  0  0  0  0  0
   59.2780   36.1483   77.7916 C   0  0  0  0  0  0  0  0  0  0  0  0
   60.0715   35.8793   78.9604 O   0  0  0  0  0  0  0  0  0  0  0  0
   60.2512   34.9278   79.0173 H   0  0  0  0  0  0  0  0  0  0  0  0
   59.0345   34.9649   75.6009 C   0  0  0  0  0  0  0  0  0  0  0  0
   59.3777   35.1554   74.1175 C   0  0  0  0  0  0  0  0  0  0  0  0
   58.4625   36.5369   73.3575 P   0  0  0  0  0  0  0  0  0  0  0  0
   59.5490   37.3850   72.7079 O   0  0  0  0  0  0  0  0  0  0  0  0
   57.5135   35.8765   72.3987 O   0  0  0  0  0  0  0  0  0  0  0  0
   57.7297   37.1739   74.5070 O   0  0  0  0  0  0  0  0  0  0  0  0
   59.1441   38.1525   72.2742 H   0  0  0  0  0  0  0  0  0  0  0  0
   57.2119   37.9273   74.1827 H   0  0  0  0  0  0  0  0  0  0  0  0
 24 22  2  0  0  0
 25 22  1  0  0  0
 22 23  1  0  0  0
 22 21  1  0  0  0
  9  4  1  0  0  0
  4  5  1  0  0  0
  5  6  2  0  0  0
  7  6  1  0  0  0
  8  7  2  0  0  0
  7 13  1  0  0  0
  9  8  1  0  0  0
 11  8  1  0  0  0
 10  9  2  0  0  0
 11 12  1  0  0  0
 12 13  2  0  0  0
 13  3  1  0  0  0
  3  1  1  0  0  0
 16 17  1  0  0  0
 17 18  1  0  0  0
 20 16  1  0  0  0
  1 16  1  0  0  0
 21 20  1  0  0  0
  4 14  1  0  0  0
 11 15  1  0  0  0
 23 26  1  0  0  0
 18 19  1  0  0  0
 25 27  1  0  0  0
  1  2  1  0  0  0
M  END
> <minimizedAffinity>
-9.10777

$$$$
3OZG_SSI_A_232


 27 28  0  0  0  0  0  0  0  0999 V2000
   61.2032   35.5974   76.0938 N   0  0  0  0  0  0  0  0  0  0  0  0
   62.0689   36.1115   75.9304 H   0  0  0  0  0  0  0  0  0  0  0  0
   60.9441   35.7006   77.5143 C   0  0  0  0  0  0  0  0  0  0  0  0
   66.0720   37.1864   77.7826 N   0  0  0  0  0  0  0  0  0  0  0  0
   65.4009   36.6245   76.7642 C   0  0  0  0  0  0  0  0  0  0  0  0
   64.1104   36.2896   76.8420 N   0  0  0  0  0  0  0  0  0  0  0  0
   63.4629   36.5286   78.0049 C   0  0  0  0  0  0  0  0  0  0  0  0
   64.1209   37.1367   79.1650 C   0  0  0  0  0  0  0  0  0  0  0  0
   65.5472   37.4743   78.9815 C   0  0  0  0  0  0  0  0  0  0  0  0
   66.2286   38.0106   79.9148 O   0  0  0  0  0  0  0  0  0  0  0  0
   63.2033   37.2285   80.1422 N   0  0  0  0  0  0  0  0  0  0  0  0
   61.9959   36.7503   79.6962 C   0  0  0  0  0  0  0  0  0  0  0  0
   62.0538   36.2783   78.3821 C   0  0  0  0  0  0  0  0  0  0  0  0
   67.0214   37.4031   77.6375 H   0  0  0  0  0  0  0  0  0  0  0  0
   63.3717   37.5856   81.0441 H   0  0  0  0  0  0  0  0  0  0  0  0
   61.3558   34.3255   75.3917 C   0  0  0  0  0  0  0  0  0  0  0  0
   61.0823   34.5690   73.9122 C   0  0  0  0  0  0  0  0  0  0  0  0
   62.1647   34.1085   73.0850 O   0  0  0  0  0  0  0  0  0  0  0  0
   62.9742   34.5919   73.3130 H   0  0  0  0  0  0  0  0  0  0  0  0
   60.4152   33.2264   75.9150 C   0  0  0  0  0  0  0  0  0  0  0  0
   59.1111   33.1663   75.1085 C   0  0  0  0  0  0  0  0  0  0  0  0
   57.7320   34.0207   75.9403 P   0  0  0  0  0  0  0  0  0  0  0  0
   57.9156   33.6700   77.4117 O   0  0  0  0  0  0  0  0  0  0  0  0
   57.9304   35.4709   75.6031 O   0  0  0  0  0  0  0  0  0  0  0  0
   56.4990   33.4654   75.2804 O   0  0  0  0  0  0  0  0  0  0  0  0
   57.2143   34.0896   77.9341 H   0  0  0  0  0  0  0  0  0  0  0  0
   55.7110   33.8743   75.6713 H   0  0  0  0  0  0  0  0  0  0  0  0
 24 22  2  0  0  0
 25 22  1  0  0  0
 22 23  1  0  0  0
 22 21  1  0  0  0
  9  4  1  0  0  0
  4  5  1  0  0  0
  5  6  2  0  0  0
  7  6  1  0  0  0
  8  7  2  0  0  0
  7 13  1  0  0  0
  9  8  1  0  0  0
 11  8  1  0  0  0
 10  9  2  0  0  0
 11 12  1  0  0  0
 12 13  2  0  0  0
 13  3  1  0  0  0
  3  1  1  0  0  0
 16 17  1  0  0  0
 17 18  1  0  0  0
 20 16  1  0  0  0
  1 16  1  0  0  0
 21 20  1  0  0  0
  4 14  1  0  0  0
 11 15  1  0  0  0
 23 26  1  0  0  0
 18 19  1  0  0  0
 25 27  1  0  0  0
  1  2  1  0  0  0
M  END
> <minimizedAffinity>
-9.07781

$$$$
3OZG_SSI_A_232


 27 28  0  0  0  0  0  0  0  0999 V2000
   61.9807   35.8912   74.7262 N   0  0  0  0  0  0  0  0  0  0  0  0
   62.2455   36.8714   74.8233 H   0  0  0  0  0  0  0  0  0  0  0  0
   62.6619   35.1900   75.7939 C   0  0  0  0  0  0  0  0  0  0  0  0
   64.1347   37.5500   80.3586 N   0  0  0  0  0  0  0  0  0  0  0  0
   62.9643   36.9758   80.0364 C   0  0  0  0  0  0  0  0  0  0  0  0
   62.7279   36.4305   78.8405 N   0  0  0  0  0  0  0  0  0  0  0  0
   63.7182   36.4680   77.9202 C   0  0  0  0  0  0  0  0  0  0  0  0
   65.0243   37.0765   78.1895 C   0  0  0  0  0  0  0  0  0  0  0  0
   65.1910   37.6506   79.5404 C   0  0  0  0  0  0  0  0  0  0  0  0
   66.2815   38.2043   79.8972 O   0  0  0  0  0  0  0  0  0  0  0  0
   65.7632   36.9465   77.0749 N   0  0  0  0  0  0  0  0  0  0  0  0
   65.0454   36.2785   76.1136 C   0  0  0  0  0  0  0  0  0  0  0  0
   63.7548   35.9476   76.5353 C   0  0  0  0  0  0  0  0  0  0  0  0
   64.2233   37.9255   81.2644 H   0  0  0  0  0  0  0  0  0  0  0  0
   66.6826   37.2805   76.9639 H   0  0  0  0  0  0  0  0  0  0  0  0
   62.1521   35.5697   73.3116 C   0  0  0  0  0  0  0  0  0  0  0  0
   63.5361   36.0450   72.8854 C   0  0  0  0  0  0  0  0  0  0  0  0
   63.4735   37.2698   72.1344 O   0  0  0  0  0  0  0  0  0  0  0  0
   62.9548   37.1279   71.3271 H   0  0  0  0  0  0  0  0  0  0  0  0
   61.0859   36.2140   72.4089 C   0  0  0  0  0  0  0  0  0  0  0  0
   59.7489   35.4654   72.4893 C   0  0  0  0  0  0  0  0  0  0  0  0
   58.4160   36.4847   73.2024 P   0  0  0  0  0  0  0  0  0  0  0  0
   57.1438   35.7197   72.8590 O   0  0  0  0  0  0  0  0  0  0  0  0
   58.7396   36.5548   74.6675 O   0  0  0  0  0  0  0  0  0  0  0  0
   58.5775   37.8250   72.5378 O   0  0  0  0  0  0  0  0  0  0  0  0
   56.3749   36.1985   73.2060 H   0  0  0  0  0  0  0  0  0  0  0  0
   57.8973   38.4332   72.8670 H   0  0  0  0  0  0  0  0  0  0  0  0
 24 22  2  0  0  0
 25 22  1  0  0  0
 22 23  1  0  0  0
 22 21  1  0  0  0
  9  4  1  0  0  0
  4  5  1  0  0  0
  5  6  2  0  0  0
  7  6  1  0  0  0
  8  7  2  0  0  0
  7 13  1  0  0  0
  9  8  1  0  0  0
 11  8  1  0  0  0
 10  9  2  0  0  0
 11 12  1  0  0  0
 12 13  2  0  0  0
 13  3  1  0  0  0
  3  1  1  0  0  0
 16 17  1  0  0  0
 17 18  1  0  0  0
 20 16  1  0  0  0
  1 16  1  0  0  0
 21 20  1  0  0  0
  4 14  1  0  0  0
 11 15  1  0  0  0
 23 26  1  0  0  0
 18 19  1  0  0  0
 25 27  1  0  0  0
  1  2  1  0  0  0
M  END
> <minimizedAffinity>
-9.01398

$$$$
3OZG_SSI_A_232


 27 28  0  0  0  0  0  0  0  0999 V2000
   61.2154   34.4482   77.1191 N   0  0  0  0  0  0  0  0  0  0  0  0
   61.0202   33.6741   77.7539 H   0  0  0  0  0  0  0  0  0  0  0  0
   60.9407   35.6547   77.8706 C   0  0  0  0  0  0  0  0  0  0  0  0
   66.0585   37.1935   77.7467 N   0  0  0  0  0  0  0  0  0  0  0  0
   65.3271   36.5927   76.7940 C   0  0  0  0  0  0  0  0  0  0  0  0
   64.0485   36.2491   76.9689 N   0  0  0  0  0  0  0  0  0  0  0  0
   63.4774   36.5204   78.1644 C   0  0  0  0  0  0  0  0  0  0  0  0
   64.2046   37.1720   79.2576 C   0  0  0  0  0  0  0  0  0  0  0  0
   65.6117   37.5159   78.9681 C   0  0  0  0  0  0  0  0  0  0  0  0
   66.3480   38.0885   79.8359 O   0  0  0  0  0  0  0  0  0  0  0  0
   63.3534   37.2877   80.2907 N   0  0  0  0  0  0  0  0  0  0  0  0
   62.1242   36.7845   79.9422 C   0  0  0  0  0  0  0  0  0  0  0  0
   62.0995   36.2702   78.6430 C   0  0  0  0  0  0  0  0  0  0  0  0
   66.9936   37.4137   77.5313 H   0  0  0  0  0  0  0  0  0  0  0  0
   63.5776   37.6756   81.1674 H   0  0  0  0  0  0  0  0  0  0  0  0
   60.5508   34.1113   75.8626 C   0  0  0  0  0  0  0  0  0  0  0  0
   61.5579   33.3870   74.9771 C   0  0  0  0  0  0  0  0  0  0  0  0
   60.9673   32.2607   74.3057 O   0  0  0  0  0  0  0  0  0  0  0  0
   60.6488   31.6228   74.9633 H   0  0  0  0  0  0  0  0  0  0  0  0
   60.0008   35.3401   75.1181 C   0  0  0  0  0  0  0  0  0  0  0  0
   58.6279   35.0562   74.4944 C   0  0  0  0  0  0  0  0  0  0  0  0
   58.0459   36.4175   73.4304 P   0  0  0  0  0  0  0  0  0  0  0  0
   57.4738   37.4330   74.4120 O   0  0  0  0  0  0  0  0  0  0  0  0
   59.2738   36.8690   72.6925 O   0  0  0  0  0  0  0  0  0  0  0  0
   57.0545   35.7671   72.5041 O   0  0  0  0  0  0  0  0  0  0  0  0
   57.1370   38.2004   73.9237 H   0  0  0  0  0  0  0  0  0  0  0  0
   56.6936   36.4327   71.8977 H   0  0  0  0  0  0  0  0  0  0  0  0
 24 22  2  0  0  0
 25 22  1  0  0  0
 22 23  1  0  0  0
 22 21  1  0  0  0
  9  4  1  0  0  0
  4  5  1  0  0  0
  5  6  2  0  0  0
  7  6  1  0  0  0
  8  7  2  0  0  0
  7 13  1  0  0  0
  9  8  1  0  0  0
 11  8  1  0  0  0
 10  9  2  0  0  0
 11 12  1  0  0  0
 12 13  2  0  0  0
 13  3  1  0  0  0
  3  1  1  0  0  0
 16 17  1  0  0  0
 17 18  1  0  0  0
 20 16  1  0  0  0
  1 16  1  0  0  0
 21 20  1  0  0  0
  4 14  1  0  0  0
 11 15  1  0  0  0
 23 26  1  0  0  0
 18 19  1  0  0  0
 25 27  1  0  0  0
  1  2  1  0  0  0
M  END
> <minimizedAffinity>
-8.82594

$$$$
3OZG_SSI_A_232


 27 28  0  0  0  0  0  0  0  0999 V2000
   61.4186   35.2715   76.2910 N   0  0  0  0  0  0  0  0  0  0  0  0
   61.4839   35.6844   77.2214 H   0  0  0  0  0  0  0  0  0  0  0  0
   62.7800   35.1589   75.8119 C   0  0  0  0  0  0  0  0  0  0  0  0
   64.1825   37.5520   80.3816 N   0  0  0  0  0  0  0  0  0  0  0  0
   63.0363   36.9283   80.0643 C   0  0  0  0  0  0  0  0  0  0  0  0
   62.8150   36.3810   78.8664 N   0  0  0  0  0  0  0  0  0  0  0  0
   63.7953   36.4687   77.9389 C   0  0  0  0  0  0  0  0  0  0  0  0
   65.0751   37.1330   78.2025 C   0  0  0  0  0  0  0  0  0  0  0  0
   65.2269   37.7049   79.5560 C   0  0  0  0  0  0  0  0  0  0  0  0
   66.2944   38.3043   79.9083 O   0  0  0  0  0  0  0  0  0  0  0  0
   65.8102   37.0434   77.0814 N   0  0  0  0  0  0  0  0  0  0  0  0
   65.1153   36.3504   76.1209 C   0  0  0  0  0  0  0  0  0  0  0  0
   63.8440   35.9596   76.5501 C   0  0  0  0  0  0  0  0  0  0  0  0
   64.2615   37.9250   81.2892 H   0  0  0  0  0  0  0  0  0  0  0  0
   66.7129   37.4188   76.9657 H   0  0  0  0  0  0  0  0  0  0  0  0
   60.3772   36.0219   75.5937 C   0  0  0  0  0  0  0  0  0  0  0  0
   59.0361   35.3703   75.9097 C   0  0  0  0  0  0  0  0  0  0  0  0
   59.1994   34.0885   76.5408 O   0  0  0  0  0  0  0  0  0  0  0  0
   59.6771   33.4923   75.9431 H   0  0  0  0  0  0  0  0  0  0  0  0
   60.5801   36.0690   74.0694 C   0  0  0  0  0  0  0  0  0  0  0  0
   59.8315   34.9307   73.3634 C   0  0  0  0  0  0  0  0  0  0  0  0
   60.8868   33.4734   73.0694 P   0  0  0  0  0  0  0  0  0  0  0  0
   62.2651   34.0652   72.8014 O   0  0  0  0  0  0  0  0  0  0  0  0
   60.7755   32.6681   74.3325 O   0  0  0  0  0  0  0  0  0  0  0  0
   60.2353   32.7710   71.9091 O   0  0  0  0  0  0  0  0  0  0  0  0
   62.8972   33.3490   72.6326 H   0  0  0  0  0  0  0  0  0  0  0  0
   60.7424   31.9745   71.6872 H   0  0  0  0  0  0  0  0  0  0  0  0
 24 22  2  0  0  0
 25 22  1  0  0  0
 22 23  1  0  0  0
 22 21  1  0  0  0
  9  4  1  0  0  0
  4  5  1  0  0  0
  5  6  2  0  0  0
  7  6  1  0  0  0
  8  7  2  0  0  0
  7 13  1  0  0  0
  9  8  1  0  0  0
 11  8  1  0  0  0
 10  9  2  0  0  0
 11 12  1  0  0  0
 12 13  2  0  0  0
 13  3  1  0  0  0
  3  1  1  0  0  0
 16 17  1  0  0  0
 17 18  1  0  0  0
 20 16  1  0  0  0
  1 16  1  0  0  0
 21 20  1  0  0  0
  4 14  1  0  0  0
 11 15  1  0  0  0
 23 26  1  0  0  0
 18 19  1  0  0  0
 25 27  1  0  0  0
  1  2  1  0  0  0
M  END
> <minimizedAffinity>
-8.70451

$$$$
3OZG_SSI_A_232


 27 28  0  0  0  0  0  0  0  0999 V2000
   61.6581   35.8430   75.0565 N   0  0  0  0  0  0  0  0  0  0  0  0
   61.9675   36.8146   75.0287 H   0  0  0  0  0  0  0  0  0  0  0  0
   62.7313   35.1043   75.6876 C   0  0  0  0  0  0  0  0  0  0  0  0
   64.1047   37.4783   80.2760 N   0  0  0  0  0  0  0  0  0  0  0  0
   62.9661   36.8434   79.9537 C   0  0  0  0  0  0  0  0  0  0  0  0
   62.7514   36.3028   78.7516 N   0  0  0  0  0  0  0  0  0  0  0  0
   63.7307   36.4095   77.8250 C   0  0  0  0  0  0  0  0  0  0  0  0
   65.0024   37.0870   78.0939 C   0  0  0  0  0  0  0  0  0  0  0  0
   65.1472   37.6501   79.4518 C   0  0  0  0  0  0  0  0  0  0  0  0
   66.2074   38.2595   79.8090 O   0  0  0  0  0  0  0  0  0  0  0  0
   65.7386   37.0149   76.9722 N   0  0  0  0  0  0  0  0  0  0  0  0
   65.0521   36.3212   76.0063 C   0  0  0  0  0  0  0  0  0  0  0  0
   63.7856   35.9119   76.4322 C   0  0  0  0  0  0  0  0  0  0  0  0
   64.1791   37.8451   81.1866 H   0  0  0  0  0  0  0  0  0  0  0  0
   66.6368   37.4020   76.8596 H   0  0  0  0  0  0  0  0  0  0  0  0
   61.1527   35.5468   73.7183 C   0  0  0  0  0  0  0  0  0  0  0  0
   60.8770   36.8709   73.0157 C   0  0  0  0  0  0  0  0  0  0  0  0
   61.7796   37.9039   73.4474 O   0  0  0  0  0  0  0  0  0  0  0  0
   61.6689   38.0529   74.3994 H   0  0  0  0  0  0  0  0  0  0  0  0
   59.8730   34.6929   73.7279 C   0  0  0  0  0  0  0  0  0  0  0  0
   59.5094   34.2341   75.1463 C   0  0  0  0  0  0  0  0  0  0  0  0
   59.7663   32.4460   75.3926 P   0  0  0  0  0  0  0  0  0  0  0  0
   60.8498   32.0874   74.3829 O   0  0  0  0  0  0  0  0  0  0  0  0
   60.1731   32.3198   76.8330 O   0  0  0  0  0  0  0  0  0  0  0  0
   58.4115   31.8389   75.1475 O   0  0  0  0  0  0  0  0  0  0  0  0
   61.0506   31.1405   74.4468 H   0  0  0  0  0  0  0  0  0  0  0  0
   58.4631   30.8769   75.2602 H   0  0  0  0  0  0  0  0  0  0  0  0
 24 22  2  0  0  0
 25 22  1  0  0  0
 22 23  1  0  0  0
 22 21  1  0  0  0
  9  4  1  0  0  0
  4  5  1  0  0  0
  5  6  2  0  0  0
  7  6  1  0  0  0
  8  7  2  0  0  0
  7 13  1  0  0  0
  9  8  1  0  0  0
 11  8  1  0  0  0
 10  9  2  0  0  0
 11 12  1  0  0  0
 12 13  2  0  0  0
 13  3  1  0  0  0
  3  1  1  0  0  0
 16 17  1  0  0  0
 17 18  1  0  0  0
 20 16  1  0  0  0
  1 16  1  0  0  0
 21 20  1  0  0  0
  4 14  1  0  0  0
 11 15  1  0  0  0
 23 26  1  0  0  0
 18 19  1  0  0  0
 25 27  1  0  0  0
  1  2  1  0  0  0
M  END
> <minimizedAffinity>
-8.52418

$$$$
3OZG_SSI_A_232


 27 28  0  0  0  0  0  0  0  0999 V2000
   58.9980   32.9369   76.0960 N   0  0  0  0  0  0  0  0  0  0  0  0
   58.7342   32.4263   76.9386 H   0  0  0  0  0  0  0  0  0  0  0  0
   60.4327   32.7866   75.9755 C   0  0  0  0  0  0  0  0  0  0  0  0
   64.1356   36.3086   74.4073 N   0  0  0  0  0  0  0  0  0  0  0  0
   63.7631   35.9618   75.6500 C   0  0  0  0  0  0  0  0  0  0  0  0
   62.8031   35.0669   75.8971 N   0  0  0  0  0  0  0  0  0  0  0  0
   62.1836   34.4942   74.8402 C   0  0  0  0  0  0  0  0  0  0  0  0
   62.5281   34.8172   73.4525 C   0  0  0  0  0  0  0  0  0  0  0  0
   63.6031   35.8156   73.2809 C   0  0  0  0  0  0  0  0  0  0  0  0
   63.9954   36.1776   72.1241 O   0  0  0  0  0  0  0  0  0  0  0  0
   61.7294   34.0816   72.6610 N   0  0  0  0  0  0  0  0  0  0  0  0
   60.9123   33.2889   73.4287 C   0  0  0  0  0  0  0  0  0  0  0  0
   61.1068   33.4798   74.7993 C   0  0  0  0  0  0  0  0  0  0  0  0
   64.8543   36.9755   74.3171 H   0  0  0  0  0  0  0  0  0  0  0  0
   61.7301   34.1073   71.6768 H   0  0  0  0  0  0  0  0  0  0  0  0
   58.3271   34.2314   76.1875 C   0  0  0  0  0  0  0  0  0  0  0  0
   57.1239   34.0737   77.1098 C   0  0  0  0  0  0  0  0  0  0  0  0
   56.1860   33.1074   76.6052 O   0  0  0  0  0  0  0  0  0  0  0  0
   55.8529   33.3999   75.7424 H   0  0  0  0  0  0  0  0  0  0  0  0
   57.8632   34.7726   74.8242 C   0  0  0  0  0  0  0  0  0  0  0  0
   58.5938   36.0696   74.4518 C   0  0  0  0  0  0  0  0  0  0  0  0
   58.3427   36.5404   72.7085 P   0  0  0  0  0  0  0  0  0  0  0  0
   58.2607   38.0615   72.7463 O   0  0  0  0  0  0  0  0  0  0  0  0
   59.5415   35.9862   71.9932 O   0  0  0  0  0  0  0  0  0  0  0  0
   57.0819   35.8233   72.3081 O   0  0  0  0  0  0  0  0  0  0  0  0
   58.1257   38.4005   71.8475 H   0  0  0  0  0  0  0  0  0  0  0  0
   56.8762   36.0239   71.3816 H   0  0  0  0  0  0  0  0  0  0  0  0
 24 22  2  0  0  0
 25 22  1  0  0  0
 22 23  1  0  0  0
 22 21  1  0  0  0
  9  4  1  0  0  0
  4  5  1  0  0  0
  5  6  2  0  0  0
  7  6  1  0  0  0
  8  7  2  0  0  0
  7 13  1  0  0  0
  9  8  1  0  0  0
 11  8  1  0  0  0
 10  9  2  0  0  0
 11 12  1  0  0  0
 12 13  2  0  0  0
 13  3  1  0  0  0
  3  1  1  0  0  0
 16 17  1  0  0  0
 17 18  1  0  0  0
 20 16  1  0  0  0
  1 16  1  0  0  0
 21 20  1  0  0  0
  4 14  1  0  0  0
 11 15  1  0  0  0
 23 26  1  0  0  0
 18 19  1  0  0  0
 25 27  1  0  0  0
  1  2  1  0  0  0
M  END
> <minimizedAffinity>
-8.52213

$$$$
