2BOJ_ARW_A_1115
  RCSB PDB12061705093D
Coordinates from PDB:2BOJ:A:1115 Model:1 without hydrogens
 11 11  0  0  0  0            999 V2000
   22.4520   22.4300   30.0970   C 0  0  0  0  0  0  0  0  0  0  0  0
   21.7080   23.1710   28.9830   C 0  0  0  0  0  0  0  0  0  0  0  0
   20.7800   22.1860   28.2660   C 0  0  0  0  0  0  0  0  0  0  0  0
   19.8100   21.5500   29.2530   C 0  0  0  0  0  0  0  0  0  0  0  0
   20.5100   20.9630   30.4760   C 0  0  0  0  0  0  0  0  0  0  0  0
   23.2910   21.4520   29.4690   O 0  0  0  0  0  0  0  0  0  0  0  0
   22.6180   23.7930   28.0500   O 0  0  0  0  0  0  0  0  0  0  0  0
   20.0100   22.9310   27.2990   O 0  0  0  0  0  0  0  0  0  0  0  0
   18.9120   22.5670   29.7170   O 0  0  0  0  0  0  0  0  0  0  0  0
   21.4680   21.8920   31.0140   O 0  0  0  0  0  0  0  0  0  0  0  0
   24.1900   20.7990   30.3800   C 0  0  0  0  0  0  0  0  0  0  0  0
  1  2  1  0  0  0  0
  1  6  1  0  0  0  0
  1 10  1  0  0  0  0
  2  3  1  0  0  0  0
  2  7  1  0  0  0  0
  3  4  1  0  0  0  0
  3  8  1  0  0  0  0
  4  5  1  0  0  0  0
  4  9  1  0  0  0  0
  5 10  1  0  0  0  0
  6 11  1  0  0  0  0
A    1
C1
A    2
C2
A    3
C3
A    4
C4
A    5
C5
A    6
O1
A    7
O2
A    8
O3
A    9
O4
A   10
O5
A   11
CM
M  END
>  <InstanceId>
2BOJ_ARW_A_1115

>  <ChemCompId>
ARW

>  <PdbId>
2BOJ

>  <ChainId>
A

>  <ResidueNumber>
1115

>  <InsertionCode>


>  <Model>
1

>  <AltIds>


>  <MissingHeavyAtoms>
0

>  <ObservedFormula>
C6 O5

>  <Name>
METHYL BETA-D-ARABINOPYRANOSIDE

>  <SystematicName>
(2R,3S,4R,5R)-2-methoxyoxane-3,4,5-triol

>  <Synonyms>


>  <Type>
NON-POLYMER

>  <Formula>
C6 H12 O5

>  <MolecularWeight>
164.156

>  <ModifiedDate>
2011-06-04

>  <Parent>


>  <OneLetterCode>


>  <SubcomponentList>


>  <AmbiguousFlag>
N

>  <InChI>
InChI=1S/C6H12O5/c1-10-6-5(9)4(8)3(7)2-11-6/h3-9H,2H2,1H3/t3-,4-,5+,6-/m1/s1

>  <InChIKey>
ZBDGHWFPLXXWRD-ARQDHWQXSA-N

>  <SMILES>
CO[C@H]1[C@H]([C@@H]([C@@H](CO1)O)O)O

$$$$
