1IVP_1ZK_B_100


 67 71  0  0  0  0  0  0  0  0999 V2000
    2.5300   16.6995   20.6016 C   0  0  0  0  0  0  0  0  0  0  0  0
    2.2854   15.0038   18.8681 C   0  0  0  0  0  0  0  0  0  0  0  0
    1.0579   14.8689   19.0482 O   0  0  0  0  0  0  0  0  0  0  0  0
    3.0800   15.8285   19.5426 N   0  0  0  0  0  0  0  0  0  0  0  0
    4.0419   15.8591   19.3351 H   0  0  0  0  0  0  0  0  0  0  0  0
    2.9903   14.1411   17.8306 C   0  0  0  0  0  0  0  0  0  0  0  0
    4.6958   12.5640   18.6928 C   0  0  0  0  0  0  0  0  0  0  0  0
    5.6544   13.2284   18.2547 O   0  0  0  0  0  0  0  0  0  0  0  0
    3.4370   12.9253   18.5391 N   0  0  0  0  0  0  0  0  0  0  0  0
    2.7444   12.3417   18.9250 H   0  0  0  0  0  0  0  0  0  0  0  0
    4.8924   11.2395   19.4412 C   0  0  0  0  0  0  0  0  0  0  0  0
    3.6535   10.5504   19.5517 O   0  0  0  0  0  0  0  0  0  0  0  0
    3.4143    9.2551   19.2471 C   0  0  0  0  0  0  0  0  0  0  0  0
    3.3449    8.3374   20.3118 C   0  0  0  0  0  0  0  0  0  0  0  0
    3.0922    6.9786   20.0536 C   0  0  0  0  0  0  0  0  0  0  0  0
    2.9036    6.5391   18.7429 C   0  0  0  0  0  0  0  0  0  0  0  0
    2.9588    7.4560   17.6867 C   0  0  0  0  0  0  0  0  0  0  0  0
    2.7722    6.9926   16.3709 C   0  0  0  0  0  0  0  0  0  0  0  0
    2.8431    7.9051   15.3057 C   0  0  0  0  0  0  0  0  0  0  0  0
    3.0913    9.2662   15.5626 C   0  0  0  0  0  0  0  0  0  0  0  0
    3.2629    9.7104   16.8829 C   0  0  0  0  0  0  0  0  0  0  0  0
    3.2076    8.8067   17.9487 C   0  0  0  0  0  0  0  0  0  0  0  0
    1.9842   13.7215   16.7105 C   0  0  0  0  0  0  0  0  0  0  0  0
    1.8071   14.8750   15.7622 C   0  0  0  0  0  0  0  0  0  0  0  0
    0.9727   15.9315   15.9755 N   0  0  0  0  0  0  0  0  0  0  0  0
    2.3423   15.0966   14.5388 C   0  0  0  0  0  0  0  0  0  0  0  0
    0.9905   16.7515   14.9376 C   0  0  0  0  0  0  0  0  0  0  0  0
    1.8225   16.2546   14.0506 N   0  0  0  0  0  0  0  0  0  0  0  0
    0.4327   16.0655   16.7877 H   0  0  0  0  0  0  0  0  0  0  0  0
    2.0348   16.6547   13.1764 H   0  0  0  0  0  0  0  0  0  0  0  0
    2.4329   18.1474   20.1192 C   0  0  0  0  0  0  0  0  0  0  0  0
    3.3301   18.8843   19.7142 O   0  0  0  0  0  0  0  0  0  0  0  0
    3.4608   18.7421   18.7636 H   0  0  0  0  0  0  0  0  0  0  0  0
    1.0363   18.3329   19.5203 C   0  0  0  0  0  0  0  0  0  0  0  0
    1.2022   18.4770   18.0959 O   0  0  0  0  0  0  0  0  0  0  0  0
    1.7871   19.2288   17.9129 H   0  0  0  0  0  0  0  0  0  0  0  0
    0.4034   19.5710   20.1553 C   0  0  0  0  0  0  0  0  0  0  0  0
   -0.1450   19.2517   21.5638 C   0  0  0  0  0  0  0  0  0  0  0  0
   -0.5591   18.1473   21.9666 O   0  0  0  0  0  0  0  0  0  0  0  0
   -0.1262   20.3216   22.3269 N   0  0  0  0  0  0  0  0  0  0  0  0
    0.2756   21.1124   21.8999 H   0  0  0  0  0  0  0  0  0  0  0  0
   -0.5871   20.5510   23.6778 C   0  0  0  0  0  0  0  0  0  0  0  0
   -1.1578   21.9807   23.6535 C   0  0  0  0  0  0  0  0  0  0  0  0
   -0.4889   23.0190   23.6179 O   0  0  0  0  0  0  0  0  0  0  0  0
   -2.4802   21.9740   23.6310 N   0  0  0  0  0  0  0  0  0  0  0  0
   -2.9121   21.0895   23.6514 H   0  0  0  0  0  0  0  0  0  0  0  0
   -3.3712   23.1267   23.5794 C   0  0  0  0  0  0  0  0  0  0  0  0
   -3.9938   23.2536   22.2277 C   0  0  0  0  0  0  0  0  0  0  0  0
   -4.0120   22.1872   21.3165 C   0  0  0  0  0  0  0  0  0  0  0  0
   -4.6409   22.3440   20.0769 C   0  0  0  0  0  0  0  0  0  0  0  0
   -5.2305   23.5796   19.7627 C   0  0  0  0  0  0  0  0  0  0  0  0
   -5.1895   24.6116   20.7124 C   0  0  0  0  0  0  0  0  0  0  0  0
   -4.5754   24.4160   21.8878 N   0  0  0  0  0  0  0  0  0  0  0  0
    0.2768   20.1036   24.8712 C   0  0  0  0  0  0  0  0  0  0  0  0
    0.3867   21.0336   26.0873 C   0  0  0  0  0  0  0  0  0  0  0  0
   -0.1011   18.6526   25.2688 C   0  0  0  0  0  0  0  0  0  0  0  0
   -1.0828   18.5725   26.4661 C   0  0  0  0  0  0  0  0  0  0  0  0
   -0.7224   19.9425   19.2518 C   0  0  0  0  0  0  0  0  0  0  0  0
   -2.0663   19.1986   19.4079 C   0  0  0  0  0  0  0  0  0  0  0  0
   -0.9907   21.4390   19.2039 C   0  0  0  0  0  0  0  0  0  0  0  0
    3.0603   16.5368   21.8912 C   0  0  0  0  0  0  0  0  0  0  0  0
    3.2261   15.1014   22.3909 C   0  0  0  0  0  0  0  0  0  0  0  0
    2.6493   14.9680   23.8175 C   0  0  0  0  0  0  0  0  0  0  0  0
    4.7440   14.7950   22.4089 C   0  0  0  0  0  0  0  0  0  0  0  0
    2.8484   13.4984   24.2650 C   0  0  0  0  0  0  0  0  0  0  0  0
    5.0831   13.4656   23.0539 C   0  0  0  0  0  0  0  0  0  0  0  0
    4.3703   13.2523   24.3821 C   0  0  0  0  0  0  0  0  0  0  0  0
  7 11  1  0  0  0
  7  8  2  0  0  0
 11 12  1  0  0  0
 13 14  2  0  0  0
 13 22  1  0  0  0
 13 12  1  0  0  0
 14 15  1  0  0  0
 15 16  2  0  0  0
 16 17  1  0  0  0
 17 18  2  0  0  0
 17 22  1  0  0  0
 18 19  1  0  0  0
 19 20  2  0  0  0
 20 21  1  0  0  0
 21 22  2  0  0  0
  9  6  1  0  0  0
  6  2  1  0  0  0
  6 23  1  0  0  0
  2  3  2  0  0  0
 23 24  1  0  0  0
 24 25  1  0  0  0
 24 26  2  0  0  0
 25 27  2  0  0  0
 26 28  1  0  0  0
 27 28  1  0  0  0
  4  1  1  0  0  0
  1 61  1  0  0  0
  1 31  1  0  0  0
 61 62  1  0  0  0
 62 63  1  0  0  0
 62 64  1  0  0  0
 63 65  1  0  0  0
 64 66  1  0  0  0
 65 67  1  0  0  0
 66 67  1  0  0  0
 31 32  1  0  0  0
 31 34  1  0  0  0
 34 37  1  0  0  0
 34 35  1  0  0  0
 37 58  1  0  0  0
 37 38  1  0  0  0
 58 59  1  0  0  0
 58 60  1  0  0  0
 38 39  2  0  0  0
 40 42  1  0  0  0
 42 43  1  0  0  0
 42 54  1  0  0  0
 43 44  2  0  0  0
 54 56  1  0  0  0
 54 55  1  0  0  0
 56 57  1  0  0  0
 45 47  1  0  0  0
 47 48  1  0  0  0
 48 49  1  0  0  0
 48 53  2  0  0  0
 49 50  2  0  0  0
 50 51  1  0  0  0
 51 52  2  0  0  0
 52 53  1  0  0  0
  7  9  1  0  0  0
  2  4  1  0  0  0
 38 40  1  0  0  0
 43 45  1  0  0  0
  9 10  1  0  0  0
 25 29  1  0  0  0
 28 30  1  0  0  0
  4  5  1  0  0  0
 32 33  1  0  0  0
 35 36  1  0  0  0
 40 41  1  0  0  0
 45 46  1  0  0  0
M  CHG 1  25   1
M  END
> <minimizedAffinity>
-10.59836

$$$$
1IVP_1ZK_B_100


 67 71  0  0  0  0  0  0  0  0999 V2000
    2.7977   16.5886   20.5000 C   0  0  0  0  0  0  0  0  0  0  0  0
    2.4071   14.8522   18.8349 C   0  0  0  0  0  0  0  0  0  0  0  0
    1.3340   14.4759   19.3488 O   0  0  0  0  0  0  0  0  0  0  0  0
    3.1826   15.8300   19.2921 N   0  0  0  0  0  0  0  0  0  0  0  0
    4.0194   16.0503   18.8225 H   0  0  0  0  0  0  0  0  0  0  0  0
    2.9418   14.1332   17.6041 C   0  0  0  0  0  0  0  0  0  0  0  0
    4.7610   12.6859   18.4615 C   0  0  0  0  0  0  0  0  0  0  0  0
    5.6061   13.6013   18.4576 O   0  0  0  0  0  0  0  0  0  0  0  0
    3.5091   12.8578   18.0848 N   0  0  0  0  0  0  0  0  0  0  0  0
    2.9087   12.0787   18.1272 H   0  0  0  0  0  0  0  0  0  0  0  0
    5.1076   11.2541   18.8893 C   0  0  0  0  0  0  0  0  0  0  0  0
    4.8076   11.0680   20.2667 O   0  0  0  0  0  0  0  0  0  0  0  0
    4.1468   10.0268   20.8208 C   0  0  0  0  0  0  0  0  0  0  0  0
    2.7431   10.0175   20.7195 C   0  0  0  0  0  0  0  0  0  0  0  0
    2.0052    8.9560   21.2722 C   0  0  0  0  0  0  0  0  0  0  0  0
    2.6632    7.9075   21.9159 C   0  0  0  0  0  0  0  0  0  0  0  0
    4.0602    7.9115   22.0028 C   0  0  0  0  0  0  0  0  0  0  0  0
    4.7056    6.8482   22.6614 C   0  0  0  0  0  0  0  0  0  0  0  0
    6.1060    6.8552   22.7665 C   0  0  0  0  0  0  0  0  0  0  0  0
    6.8465    7.9144   22.2099 C   0  0  0  0  0  0  0  0  0  0  0  0
    6.1849    8.9596   21.5467 C   0  0  0  0  0  0  0  0  0  0  0  0
    4.7899    8.9680   21.4493 C   0  0  0  0  0  0  0  0  0  0  0  0
    1.7707   13.8157   16.6188 C   0  0  0  0  0  0  0  0  0  0  0  0
    1.5519   15.0067   15.7273 C   0  0  0  0  0  0  0  0  0  0  0  0
    0.5758   15.9406   15.9088 N   0  0  0  0  0  0  0  0  0  0  0  0
    2.1798   15.3776   14.5869 C   0  0  0  0  0  0  0  0  0  0  0  0
    0.5998   16.8305   14.9303 C   0  0  0  0  0  0  0  0  0  0  0  0
    1.5744   16.4997   14.1138 N   0  0  0  0  0  0  0  0  0  0  0  0
   -0.0580   15.9514   16.6621 H   0  0  0  0  0  0  0  0  0  0  0  0
    1.8253   16.9844   13.2944 H   0  0  0  0  0  0  0  0  0  0  0  0
    2.5460   18.0586   20.1620 C   0  0  0  0  0  0  0  0  0  0  0  0
    3.3539   18.9148   19.8069 O   0  0  0  0  0  0  0  0  0  0  0  0
    3.4644   18.8756   18.8440 H   0  0  0  0  0  0  0  0  0  0  0  0
    1.1180   18.1608   19.6198 C   0  0  0  0  0  0  0  0  0  0  0  0
    1.2137   18.2163   18.1828 O   0  0  0  0  0  0  0  0  0  0  0  0
    1.7637   18.9723   17.9243 H   0  0  0  0  0  0  0  0  0  0  0  0
    0.4728   19.4177   20.2037 C   0  0  0  0  0  0  0  0  0  0  0  0
   -0.1010   19.1424   21.6113 C   0  0  0  0  0  0  0  0  0  0  0  0
   -0.5127   18.0486   22.0445 O   0  0  0  0  0  0  0  0  0  0  0  0
   -0.1078   20.2385   22.3364 N   0  0  0  0  0  0  0  0  0  0  0  0
    0.2952   21.0179   21.8899 H   0  0  0  0  0  0  0  0  0  0  0  0
   -0.5981   20.5106   23.6690 C   0  0  0  0  0  0  0  0  0  0  0  0
   -1.1135   21.9598   23.6024 C   0  0  0  0  0  0  0  0  0  0  0  0
   -0.4084   22.9661   23.4721 O   0  0  0  0  0  0  0  0  0  0  0  0
   -2.4341   22.0071   23.6585 N   0  0  0  0  0  0  0  0  0  0  0  0
   -2.8978   21.1437   23.7515 H   0  0  0  0  0  0  0  0  0  0  0  0
   -3.2814   23.1920   23.5984 C   0  0  0  0  0  0  0  0  0  0  0  0
   -3.9313   23.3098   22.2589 C   0  0  0  0  0  0  0  0  0  0  0  0
   -3.7279   22.3571   21.2495 C   0  0  0  0  0  0  0  0  0  0  0  0
   -4.3892   22.4919   20.0243 C   0  0  0  0  0  0  0  0  0  0  0  0
   -5.2359   23.5946   19.8239 C   0  0  0  0  0  0  0  0  0  0  0  0
   -5.4092   24.5152   20.8685 C   0  0  0  0  0  0  0  0  0  0  0  0
   -4.7546   24.3456   22.0260 N   0  0  0  0  0  0  0  0  0  0  0  0
    0.2139   20.0540   24.8950 C   0  0  0  0  0  0  0  0  0  0  0  0
    0.3715   21.0244   26.0736 C   0  0  0  0  0  0  0  0  0  0  0  0
   -0.2723   18.6514   25.3449 C   0  0  0  0  0  0  0  0  0  0  0  0
   -1.1207   18.6748   26.6422 C   0  0  0  0  0  0  0  0  0  0  0  0
   -0.6366   19.7589   19.2685 C   0  0  0  0  0  0  0  0  0  0  0  0
   -2.0140   19.0973   19.4894 C   0  0  0  0  0  0  0  0  0  0  0  0
   -0.8333   21.2561   19.0845 C   0  0  0  0  0  0  0  0  0  0  0  0
    3.5641   16.3670   21.6551 C   0  0  0  0  0  0  0  0  0  0  0  0
    3.4088   15.0054   22.3332 C   0  0  0  0  0  0  0  0  0  0  0  0
    2.8704   15.1880   23.7693 C   0  0  0  0  0  0  0  0  0  0  0  0
    4.8129   14.3538   22.3791 C   0  0  0  0  0  0  0  0  0  0  0  0
    2.7376   13.7792   24.3996 C   0  0  0  0  0  0  0  0  0  0  0  0
    4.8562   13.0713   23.1864 C   0  0  0  0  0  0  0  0  0  0  0  0
    4.1633   13.1968   24.5361 C   0  0  0  0  0  0  0  0  0  0  0  0
  7 11  1  0  0  0
  7  8  2  0  0  0
 11 12  1  0  0  0
 13 14  2  0  0  0
 13 22  1  0  0  0
 13 12  1  0  0  0
 14 15  1  0  0  0
 15 16  2  0  0  0
 16 17  1  0  0  0
 17 18  2  0  0  0
 17 22  1  0  0  0
 18 19  1  0  0  0
 19 20  2  0  0  0
 20 21  1  0  0  0
 21 22  2  0  0  0
  9  6  1  0  0  0
  6  2  1  0  0  0
  6 23  1  0  0  0
  2  3  2  0  0  0
 23 24  1  0  0  0
 24 25  1  0  0  0
 24 26  2  0  0  0
 25 27  2  0  0  0
 26 28  1  0  0  0
 27 28  1  0  0  0
  4  1  1  0  0  0
  1 61  1  0  0  0
  1 31  1  0  0  0
 61 62  1  0  0  0
 62 63  1  0  0  0
 62 64  1  0  0  0
 63 65  1  0  0  0
 64 66  1  0  0  0
 65 67  1  0  0  0
 66 67  1  0  0  0
 31 32  1  0  0  0
 31 34  1  0  0  0
 34 37  1  0  0  0
 34 35  1  0  0  0
 37 58  1  0  0  0
 37 38  1  0  0  0
 58 59  1  0  0  0
 58 60  1  0  0  0
 38 39  2  0  0  0
 40 42  1  0  0  0
 42 43  1  0  0  0
 42 54  1  0  0  0
 43 44  2  0  0  0
 54 56  1  0  0  0
 54 55  1  0  0  0
 56 57  1  0  0  0
 45 47  1  0  0  0
 47 48  1  0  0  0
 48 49  1  0  0  0
 48 53  2  0  0  0
 49 50  2  0  0  0
 50 51  1  0  0  0
 51 52  2  0  0  0
 52 53  1  0  0  0
  7  9  1  0  0  0
  2  4  1  0  0  0
 38 40  1  0  0  0
 43 45  1  0  0  0
  9 10  1  0  0  0
 25 29  1  0  0  0
 28 30  1  0  0  0
  4  5  1  0  0  0
 32 33  1  0  0  0
 35 36  1  0  0  0
 40 41  1  0  0  0
 45 46  1  0  0  0
M  CHG 1  25   1
M  END
> <minimizedAffinity>
-10.55177

$$$$
1IVP_1ZK_B_100


 67 71  0  0  0  0  0  0  0  0999 V2000
    2.5147   16.9054   20.7537 C   0  0  0  0  0  0  0  0  0  0  0  0
    2.5686   15.2645   18.9524 C   0  0  0  0  0  0  0  0  0  0  0  0
    1.3480   15.0146   19.0232 O   0  0  0  0  0  0  0  0  0  0  0  0
    3.2267   16.1290   19.7179 N   0  0  0  0  0  0  0  0  0  0  0  0
    4.1955   16.2528   19.5938 H   0  0  0  0  0  0  0  0  0  0  0  0
    3.4318   14.5092   17.9514 C   0  0  0  0  0  0  0  0  0  0  0  0
    5.4254   13.1985   18.6200 C   0  0  0  0  0  0  0  0  0  0  0  0
    6.1928   13.8177   17.8584 O   0  0  0  0  0  0  0  0  0  0  0  0
    4.1378   13.4651   18.7200 N   0  0  0  0  0  0  0  0  0  0  0  0
    3.6087   12.9286   19.3536 H   0  0  0  0  0  0  0  0  0  0  0  0
    5.9082   12.0428   19.5056 C   0  0  0  0  0  0  0  0  0  0  0  0
    4.9616   10.9819   19.4860 O   0  0  0  0  0  0  0  0  0  0  0  0
    4.9712    9.8702   20.2553 C   0  0  0  0  0  0  0  0  0  0  0  0
    5.7627    9.8895   21.4188 C   0  0  0  0  0  0  0  0  0  0  0  0
    5.8052    8.7632   22.2592 C   0  0  0  0  0  0  0  0  0  0  0  0
    5.0583    7.6275   21.9448 C   0  0  0  0  0  0  0  0  0  0  0  0
    4.2605    7.6156   20.7947 C   0  0  0  0  0  0  0  0  0  0  0  0
    3.5191    6.4585   20.4910 C   0  0  0  0  0  0  0  0  0  0  0  0
    2.7299    6.4347   19.3295 C   0  0  0  0  0  0  0  0  0  0  0  0
    2.6825    7.5627   18.4897 C   0  0  0  0  0  0  0  0  0  0  0  0
    3.4201    8.7113   18.8163 C   0  0  0  0  0  0  0  0  0  0  0  0
    4.2194    8.7392   19.9635 C   0  0  0  0  0  0  0  0  0  0  0  0
    2.5278   13.8133   16.8829 C   0  0  0  0  0  0  0  0  0  0  0  0
    2.1831   14.8140   15.8148 C   0  0  0  0  0  0  0  0  0  0  0  0
    1.3280   15.8622   15.9829 N   0  0  0  0  0  0  0  0  0  0  0  0
    2.5588   14.8773   14.5159 C   0  0  0  0  0  0  0  0  0  0  0  0
    1.1826   16.5267   14.8484 C   0  0  0  0  0  0  0  0  0  0  0  0
    1.9282   15.9366   13.9418 N   0  0  0  0  0  0  0  0  0  0  0  0
    0.8814   16.0923   16.8296 H   0  0  0  0  0  0  0  0  0  0  0  0
    2.0159   16.2153   13.0017 H   0  0  0  0  0  0  0  0  0  0  0  0
    2.3920   18.3738   20.3446 C   0  0  0  0  0  0  0  0  0  0  0  0
    3.2813   19.1574   20.0174 O   0  0  0  0  0  0  0  0  0  0  0  0
    3.4552   19.0706   19.0671 H   0  0  0  0  0  0  0  0  0  0  0  0
    1.0159   18.5504   19.6975 C   0  0  0  0  0  0  0  0  0  0  0  0
    1.2344   18.7602   18.2884 O   0  0  0  0  0  0  0  0  0  0  0  0
    1.8060   19.5335   18.1615 H   0  0  0  0  0  0  0  0  0  0  0  0
    0.3256   19.7438   20.3580 C   0  0  0  0  0  0  0  0  0  0  0  0
   -0.2071   19.3693   21.7589 C   0  0  0  0  0  0  0  0  0  0  0  0
   -0.6195   18.2506   22.1218 O   0  0  0  0  0  0  0  0  0  0  0  0
   -0.1765   20.4076   22.5640 N   0  0  0  0  0  0  0  0  0  0  0  0
    0.2226   21.2141   22.1644 H   0  0  0  0  0  0  0  0  0  0  0  0
   -0.6208   20.5837   23.9284 C   0  0  0  0  0  0  0  0  0  0  0  0
   -1.2134   22.0043   23.9613 C   0  0  0  0  0  0  0  0  0  0  0  0
   -0.6177   23.0371   23.6370 O   0  0  0  0  0  0  0  0  0  0  0  0
   -2.4792   21.9922   24.3446 N   0  0  0  0  0  0  0  0  0  0  0  0
   -2.8584   21.1119   24.5693 H   0  0  0  0  0  0  0  0  0  0  0  0
   -3.3770   23.1337   24.4724 C   0  0  0  0  0  0  0  0  0  0  0  0
   -4.2399   22.9946   25.6835 C   0  0  0  0  0  0  0  0  0  0  0  0
   -3.7726   23.3116   26.9676 C   0  0  0  0  0  0  0  0  0  0  0  0
   -4.6316   23.2007   28.0660 C   0  0  0  0  0  0  0  0  0  0  0  0
   -5.9478   22.7556   27.8602 C   0  0  0  0  0  0  0  0  0  0  0  0
   -6.3666   22.4574   26.5547 C   0  0  0  0  0  0  0  0  0  0  0  0
   -5.5084   22.5785   25.5320 N   0  0  0  0  0  0  0  0  0  0  0  0
    0.2673   20.1094   25.0934 C   0  0  0  0  0  0  0  0  0  0  0  0
    0.4890   21.0570   26.2802 C   0  0  0  0  0  0  0  0  0  0  0  0
   -0.1806   18.6939   25.5428 C   0  0  0  0  0  0  0  0  0  0  0  0
   -1.2684   18.7082   26.6474 C   0  0  0  0  0  0  0  0  0  0  0  0
   -0.8165   20.0810   19.4614 C   0  0  0  0  0  0  0  0  0  0  0  0
   -2.1317   19.2872   19.6160 C   0  0  0  0  0  0  0  0  0  0  0  0
   -1.1395   21.5671   19.4268 C   0  0  0  0  0  0  0  0  0  0  0  0
    2.9063   16.6897   22.0845 C   0  0  0  0  0  0  0  0  0  0  0  0
    3.1521   15.2399   22.5031 C   0  0  0  0  0  0  0  0  0  0  0  0
    2.6564   15.0154   23.9486 C   0  0  0  0  0  0  0  0  0  0  0  0
    4.6793   14.9945   22.4289 C   0  0  0  0  0  0  0  0  0  0  0  0
    2.9340   13.5353   24.3117 C   0  0  0  0  0  0  0  0  0  0  0  0
    5.1018   13.6504   22.9890 C   0  0  0  0  0  0  0  0  0  0  0  0
    4.4681   13.3453   24.3393 C   0  0  0  0  0  0  0  0  0  0  0  0
  7 11  1  0  0  0
  7  8  2  0  0  0
 11 12  1  0  0  0
 13 14  2  0  0  0
 13 22  1  0  0  0
 13 12  1  0  0  0
 14 15  1  0  0  0
 15 16  2  0  0  0
 16 17  1  0  0  0
 17 18  2  0  0  0
 17 22  1  0  0  0
 18 19  1  0  0  0
 19 20  2  0  0  0
 20 21  1  0  0  0
 21 22  2  0  0  0
  9  6  1  0  0  0
  6  2  1  0  0  0
  6 23  1  0  0  0
  2  3  2  0  0  0
 23 24  1  0  0  0
 24 25  1  0  0  0
 24 26  2  0  0  0
 25 27  2  0  0  0
 26 28  1  0  0  0
 27 28  1  0  0  0
  4  1  1  0  0  0
  1 61  1  0  0  0
  1 31  1  0  0  0
 61 62  1  0  0  0
 62 63  1  0  0  0
 62 64  1  0  0  0
 63 65  1  0  0  0
 64 66  1  0  0  0
 65 67  1  0  0  0
 66 67  1  0  0  0
 31 32  1  0  0  0
 31 34  1  0  0  0
 34 37  1  0  0  0
 34 35  1  0  0  0
 37 58  1  0  0  0
 37 38  1  0  0  0
 58 59  1  0  0  0
 58 60  1  0  0  0
 38 39  2  0  0  0
 40 42  1  0  0  0
 42 43  1  0  0  0
 42 54  1  0  0  0
 43 44  2  0  0  0
 54 56  1  0  0  0
 54 55  1  0  0  0
 56 57  1  0  0  0
 45 47  1  0  0  0
 47 48  1  0  0  0
 48 49  1  0  0  0
 48 53  2  0  0  0
 49 50  2  0  0  0
 50 51  1  0  0  0
 51 52  2  0  0  0
 52 53  1  0  0  0
  7  9  1  0  0  0
  2  4  1  0  0  0
 38 40  1  0  0  0
 43 45  1  0  0  0
  9 10  1  0  0  0
 25 29  1  0  0  0
 28 30  1  0  0  0
  4  5  1  0  0  0
 32 33  1  0  0  0
 35 36  1  0  0  0
 40 41  1  0  0  0
 45 46  1  0  0  0
M  CHG 1  25   1
M  END
> <minimizedAffinity>
-10.17927

$$$$
1IVP_1ZK_B_100


 67 71  0  0  0  0  0  0  0  0999 V2000
    1.9349   16.8264   20.1098 C   0  0  0  0  0  0  0  0  0  0  0  0
    1.3642   18.8459   21.3492 C   0  0  0  0  0  0  0  0  0  0  0  0
    2.4106   19.4455   21.0289 O   0  0  0  0  0  0  0  0  0  0  0  0
    1.0370   17.6112   20.9819 N   0  0  0  0  0  0  0  0  0  0  0  0
    0.1904   17.2167   21.2932 H   0  0  0  0  0  0  0  0  0  0  0  0
    0.3646   19.5246   22.2754 C   0  0  0  0  0  0  0  0  0  0  0  0
   -1.4922   21.0376   21.6409 C   0  0  0  0  0  0  0  0  0  0  0  0
   -1.3083   21.8056   22.6046 O   0  0  0  0  0  0  0  0  0  0  0  0
   -0.7559   19.9659   21.4214 N   0  0  0  0  0  0  0  0  0  0  0  0
   -0.9691   19.4201   20.6303 H   0  0  0  0  0  0  0  0  0  0  0  0
   -2.6170   21.2585   20.6216 C   0  0  0  0  0  0  0  0  0  0  0  0
   -3.8608   21.4198   21.2915 O   0  0  0  0  0  0  0  0  0  0  0  0
   -4.9124   22.1653   20.8840 C   0  0  0  0  0  0  0  0  0  0  0  0
   -4.6425   23.2893   20.0814 C   0  0  0  0  0  0  0  0  0  0  0  0
   -5.6986   24.0967   19.6239 C   0  0  0  0  0  0  0  0  0  0  0  0
   -7.0158   23.7816   19.9593 C   0  0  0  0  0  0  0  0  0  0  0  0
   -7.2831   22.6550   20.7458 C   0  0  0  0  0  0  0  0  0  0  0  0
   -8.6177   22.3569   21.0788 C   0  0  0  0  0  0  0  0  0  0  0  0
   -8.8908   21.2374   21.8816 C   0  0  0  0  0  0  0  0  0  0  0  0
   -7.8354   20.4255   22.3365 C   0  0  0  0  0  0  0  0  0  0  0  0
   -6.5122   20.7329   21.9836 C   0  0  0  0  0  0  0  0  0  0  0  0
   -6.2296   21.8535   21.1961 C   0  0  0  0  0  0  0  0  0  0  0  0
   -0.1814   18.4970   23.3190 C   0  0  0  0  0  0  0  0  0  0  0  0
   -0.2115   19.1514   24.6724 C   0  0  0  0  0  0  0  0  0  0  0  0
   -1.0826   18.8278   25.6697 N   0  0  0  0  0  0  0  0  0  0  0  0
    0.5180   20.1783   25.1682 C   0  0  0  0  0  0  0  0  0  0  0  0
   -0.9016   19.6169   26.7158 C   0  0  0  0  0  0  0  0  0  0  0  0
    0.0731   20.4484   26.4246 N   0  0  0  0  0  0  0  0  0  0  0  0
   -1.7523   18.1080   25.6185 H   0  0  0  0  0  0  0  0  0  0  0  0
    0.4236   21.1513   27.0182 H   0  0  0  0  0  0  0  0  0  0  0  0
    3.1469   16.3191   20.8923 C   0  0  0  0  0  0  0  0  0  0  0  0
    4.0502   16.9684   21.4160 O   0  0  0  0  0  0  0  0  0  0  0  0
    3.7819   17.2331   22.3098 H   0  0  0  0  0  0  0  0  0  0  0  0
    2.7364   15.0048   21.5615 C   0  0  0  0  0  0  0  0  0  0  0  0
    1.3251   15.0943   21.8402 O   0  0  0  0  0  0  0  0  0  0  0  0
    1.1549   15.8660   22.4027 H   0  0  0  0  0  0  0  0  0  0  0  0
    3.5660   14.8359   22.8343 C   0  0  0  0  0  0  0  0  0  0  0  0
    4.7554   13.8792   22.5969 C   0  0  0  0  0  0  0  0  0  0  0  0
    5.8437   13.8824   23.2044 O   0  0  0  0  0  0  0  0  0  0  0  0
    4.4818   13.0211   21.6397 N   0  0  0  0  0  0  0  0  0  0  0  0
    3.5673   13.0957   21.2829 H   0  0  0  0  0  0  0  0  0  0  0  0
    5.2764   11.9879   21.0144 C   0  0  0  0  0  0  0  0  0  0  0  0
    5.7955   12.6325   19.7162 C   0  0  0  0  0  0  0  0  0  0  0  0
    6.9624   12.5909   19.3121 O   0  0  0  0  0  0  0  0  0  0  0  0
    4.8191   13.2155   19.0410 N   0  0  0  0  0  0  0  0  0  0  0  0
    3.9243   13.1797   19.4499 H   0  0  0  0  0  0  0  0  0  0  0  0
    4.9166   13.9051   17.7602 C   0  0  0  0  0  0  0  0  0  0  0  0
    4.2539   13.1128   16.6814 C   0  0  0  0  0  0  0  0  0  0  0  0
    3.9502   11.7525   16.8401 C   0  0  0  0  0  0  0  0  0  0  0  0
    3.2947   11.0632   15.8145 C   0  0  0  0  0  0  0  0  0  0  0  0
    2.9669   11.7487   14.6332 C   0  0  0  0  0  0  0  0  0  0  0  0
    3.2878   13.1106   14.5280 C   0  0  0  0  0  0  0  0  0  0  0  0
    3.9166   13.7303   15.5369 N   0  0  0  0  0  0  0  0  0  0  0  0
    4.7634   10.5364   20.9834 C   0  0  0  0  0  0  0  0  0  0  0  0
    5.2978    9.5466   22.0276 C   0  0  0  0  0  0  0  0  0  0  0  0
    3.2140   10.5365   20.9074 C   0  0  0  0  0  0  0  0  0  0  0  0
    2.6025    9.1275   20.6968 C   0  0  0  0  0  0  0  0  0  0  0  0
    2.6342   14.2386   23.8327 C   0  0  0  0  0  0  0  0  0  0  0  0
    2.0887   12.8181   23.5712 C   0  0  0  0  0  0  0  0  0  0  0  0
    3.1507   14.3123   25.2616 C   0  0  0  0  0  0  0  0  0  0  0  0
    2.2268   17.3727   18.8500 C   0  0  0  0  0  0  0  0  0  0  0  0
    2.0295   16.4580   17.6408 C   0  0  0  0  0  0  0  0  0  0  0  0
    1.3053   17.2231   16.5114 C   0  0  0  0  0  0  0  0  0  0  0  0
    1.1594   15.2646   18.1065 C   0  0  0  0  0  0  0  0  0  0  0  0
    1.1349   16.2459   15.3215 C   0  0  0  0  0  0  0  0  0  0  0  0
    0.7240   14.3573   16.9726 C   0  0  0  0  0  0  0  0  0  0  0  0
    0.1740   15.1240   15.7778 C   0  0  0  0  0  0  0  0  0  0  0  0
  7 11  1  0  0  0
  7  8  2  0  0  0
 11 12  1  0  0  0
 13 14  2  0  0  0
 13 22  1  0  0  0
 13 12  1  0  0  0
 14 15  1  0  0  0
 15 16  2  0  0  0
 16 17  1  0  0  0
 17 18  2  0  0  0
 17 22  1  0  0  0
 18 19  1  0  0  0
 19 20  2  0  0  0
 20 21  1  0  0  0
 21 22  2  0  0  0
  9  6  1  0  0  0
  6  2  1  0  0  0
  6 23  1  0  0  0
  2  3  2  0  0  0
 23 24  1  0  0  0
 24 25  1  0  0  0
 24 26  2  0  0  0
 25 27  2  0  0  0
 26 28  1  0  0  0
 27 28  1  0  0  0
  4  1  1  0  0  0
  1 61  1  0  0  0
  1 31  1  0  0  0
 61 62  1  0  0  0
 62 63  1  0  0  0
 62 64  1  0  0  0
 63 65  1  0  0  0
 64 66  1  0  0  0
 65 67  1  0  0  0
 66 67  1  0  0  0
 31 32  1  0  0  0
 31 34  1  0  0  0
 34 37  1  0  0  0
 34 35  1  0  0  0
 37 58  1  0  0  0
 37 38  1  0  0  0
 58 59  1  0  0  0
 58 60  1  0  0  0
 38 39  2  0  0  0
 40 42  1  0  0  0
 42 43  1  0  0  0
 42 54  1  0  0  0
 43 44  2  0  0  0
 54 56  1  0  0  0
 54 55  1  0  0  0
 56 57  1  0  0  0
 45 47  1  0  0  0
 47 48  1  0  0  0
 48 49  1  0  0  0
 48 53  2  0  0  0
 49 50  2  0  0  0
 50 51  1  0  0  0
 51 52  2  0  0  0
 52 53  1  0  0  0
  7  9  1  0  0  0
  2  4  1  0  0  0
 38 40  1  0  0  0
 43 45  1  0  0  0
  9 10  1  0  0  0
 25 29  1  0  0  0
 28 30  1  0  0  0
  4  5  1  0  0  0
 32 33  1  0  0  0
 35 36  1  0  0  0
 40 41  1  0  0  0
 45 46  1  0  0  0
M  CHG 1  25   1
M  END
> <minimizedAffinity>
-10.03165

$$$$
1IVP_1ZK_B_100


 67 71  0  0  0  0  0  0  0  0999 V2000
    1.8659   17.4168   21.5715 C   0  0  0  0  0  0  0  0  0  0  0  0
    1.5615   15.7575   19.8124 C   0  0  0  0  0  0  0  0  0  0  0  0
    0.4981   15.3139   20.2917 O   0  0  0  0  0  0  0  0  0  0  0  0
    2.2934   16.7386   20.3305 N   0  0  0  0  0  0  0  0  0  0  0  0
    3.1261   17.0152   19.8842 H   0  0  0  0  0  0  0  0  0  0  0  0
    2.1373   15.1258   18.5527 C   0  0  0  0  0  0  0  0  0  0  0  0
    3.9382   13.4253   18.4848 C   0  0  0  0  0  0  0  0  0  0  0  0
    4.5750   14.0125   17.5893 O   0  0  0  0  0  0  0  0  0  0  0  0
    2.8058   13.8818   18.9830 N   0  0  0  0  0  0  0  0  0  0  0  0
    2.3746   13.3546   19.6939 H   0  0  0  0  0  0  0  0  0  0  0  0
    4.4064   12.0923   19.0822 C   0  0  0  0  0  0  0  0  0  0  0  0
    4.5403   11.1160   18.0572 O   0  0  0  0  0  0  0  0  0  0  0  0
    3.8905    9.9336   17.9714 C   0  0  0  0  0  0  0  0  0  0  0  0
    3.5065    9.3121   19.1743 C   0  0  0  0  0  0  0  0  0  0  0  0
    2.8223    8.0843   19.1443 C   0  0  0  0  0  0  0  0  0  0  0  0
    2.5174    7.4833   17.9225 C   0  0  0  0  0  0  0  0  0  0  0  0
    2.8876    8.1102   16.7270 C   0  0  0  0  0  0  0  0  0  0  0  0
    2.5767    7.4854   15.5048 C   0  0  0  0  0  0  0  0  0  0  0  0
    2.9603    8.1014   14.3024 C   0  0  0  0  0  0  0  0  0  0  0  0
    3.6411    9.3326   14.3304 C   0  0  0  0  0  0  0  0  0  0  0  0
    3.9314    9.9453   15.5593 C   0  0  0  0  0  0  0  0  0  0  0  0
    3.5654    9.3326   16.7620 C   0  0  0  0  0  0  0  0  0  0  0  0
    0.9841   14.7537   17.5654 C   0  0  0  0  0  0  0  0  0  0  0  0
    1.4919   14.8858   16.1562 C   0  0  0  0  0  0  0  0  0  0  0  0
    2.2165   13.9345   15.5020 N   0  0  0  0  0  0  0  0  0  0  0  0
    1.4127   15.9206   15.2872 C   0  0  0  0  0  0  0  0  0  0  0  0
    2.5676   14.3651   14.3015 C   0  0  0  0  0  0  0  0  0  0  0  0
    2.0842   15.5779   14.1554 N   0  0  0  0  0  0  0  0  0  0  0  0
    2.4463   13.0511   15.8711 H   0  0  0  0  0  0  0  0  0  0  0  0
    2.1907   16.1453   13.3579 H   0  0  0  0  0  0  0  0  0  0  0  0
    1.7629   18.9276   21.3581 C   0  0  0  0  0  0  0  0  0  0  0  0
    2.5721   19.6855   20.8264 O   0  0  0  0  0  0  0  0  0  0  0  0
    2.4215   19.6987   19.8683 H   0  0  0  0  0  0  0  0  0  0  0  0
    0.2762   19.2654   21.2203 C   0  0  0  0  0  0  0  0  0  0  0  0
   -0.4623   18.0820   21.5830 O   0  0  0  0  0  0  0  0  0  0  0  0
   -0.1946   17.3458   21.0110 H   0  0  0  0  0  0  0  0  0  0  0  0
    0.0131   19.6889   19.7752 C   0  0  0  0  0  0  0  0  0  0  0  0
   -0.8459   20.9718   19.7221 C   0  0  0  0  0  0  0  0  0  0  0  0
   -0.8866   21.8001   18.7917 O   0  0  0  0  0  0  0  0  0  0  0  0
   -1.5628   21.1005   20.8161 N   0  0  0  0  0  0  0  0  0  0  0  0
   -1.4751   20.3477   21.4445 H   0  0  0  0  0  0  0  0  0  0  0  0
   -2.4565   22.1438   21.2665 C   0  0  0  0  0  0  0  0  0  0  0  0
   -2.1645   22.2789   22.7721 C   0  0  0  0  0  0  0  0  0  0  0  0
   -3.0089   22.4843   23.6504 O   0  0  0  0  0  0  0  0  0  0  0  0
   -0.8800   22.1035   23.0339 N   0  0  0  0  0  0  0  0  0  0  0  0
   -0.2962   21.9347   22.2593 H   0  0  0  0  0  0  0  0  0  0  0  0
   -0.2299   22.1314   24.3385 C   0  0  0  0  0  0  0  0  0  0  0  0
   -0.4399   20.8416   25.0616 C   0  0  0  0  0  0  0  0  0  0  0  0
   -0.9815   20.7959   26.3548 C   0  0  0  0  0  0  0  0  0  0  0  0
   -1.1941   19.5604   26.9752 C   0  0  0  0  0  0  0  0  0  0  0  0
   -0.8431   18.3846   26.2916 C   0  0  0  0  0  0  0  0  0  0  0  0
   -0.3105   18.4859   24.9974 C   0  0  0  0  0  0  0  0  0  0  0  0
   -0.1242   19.6918   24.4424 N   0  0  0  0  0  0  0  0  0  0  0  0
   -3.9156   22.1712   20.7754 C   0  0  0  0  0  0  0  0  0  0  0  0
   -4.9142   21.1783   21.3858 C   0  0  0  0  0  0  0  0  0  0  0  0
   -4.4426   23.6300   20.7996 C   0  0  0  0  0  0  0  0  0  0  0  0
   -3.6555   24.5901   19.8709 C   0  0  0  0  0  0  0  0  0  0  0  0
   -0.7402   18.5561   19.1661 C   0  0  0  0  0  0  0  0  0  0  0  0
   -2.2492   18.7380   18.8951 C   0  0  0  0  0  0  0  0  0  0  0  0
   -0.0798   17.9934   17.9165 C   0  0  0  0  0  0  0  0  0  0  0  0
    2.5081   17.0263   22.7572 C   0  0  0  0  0  0  0  0  0  0  0  0
    2.9336   15.5613   22.8590 C   0  0  0  0  0  0  0  0  0  0  0  0
    2.7400   15.0535   24.3048 C   0  0  0  0  0  0  0  0  0  0  0  0
    4.4325   15.4921   22.4758 C   0  0  0  0  0  0  0  0  0  0  0  0
    3.1883   13.5712   24.3418 C   0  0  0  0  0  0  0  0  0  0  0  0
    5.0502   14.1262   22.7026 C   0  0  0  0  0  0  0  0  0  0  0  0
    4.7093   13.5405   24.0658 C   0  0  0  0  0  0  0  0  0  0  0  0
  7 11  1  0  0  0
  7  8  2  0  0  0
 11 12  1  0  0  0
 13 14  2  0  0  0
 13 22  1  0  0  0
 13 12  1  0  0  0
 14 15  1  0  0  0
 15 16  2  0  0  0
 16 17  1  0  0  0
 17 18  2  0  0  0
 17 22  1  0  0  0
 18 19  1  0  0  0
 19 20  2  0  0  0
 20 21  1  0  0  0
 21 22  2  0  0  0
  9  6  1  0  0  0
  6  2  1  0  0  0
  6 23  1  0  0  0
  2  3  2  0  0  0
 23 24  1  0  0  0
 24 25  1  0  0  0
 24 26  2  0  0  0
 25 27  2  0  0  0
 26 28  1  0  0  0
 27 28  1  0  0  0
  4  1  1  0  0  0
  1 61  1  0  0  0
  1 31  1  0  0  0
 61 62  1  0  0  0
 62 63  1  0  0  0
 62 64  1  0  0  0
 63 65  1  0  0  0
 64 66  1  0  0  0
 65 67  1  0  0  0
 66 67  1  0  0  0
 31 32  1  0  0  0
 31 34  1  0  0  0
 34 37  1  0  0  0
 34 35  1  0  0  0
 37 58  1  0  0  0
 37 38  1  0  0  0
 58 59  1  0  0  0
 58 60  1  0  0  0
 38 39  2  0  0  0
 40 42  1  0  0  0
 42 43  1  0  0  0
 42 54  1  0  0  0
 43 44  2  0  0  0
 54 56  1  0  0  0
 54 55  1  0  0  0
 56 57  1  0  0  0
 45 47  1  0  0  0
 47 48  1  0  0  0
 48 49  1  0  0  0
 48 53  2  0  0  0
 49 50  2  0  0  0
 50 51  1  0  0  0
 51 52  2  0  0  0
 52 53  1  0  0  0
  7  9  1  0  0  0
  2  4  1  0  0  0
 38 40  1  0  0  0
 43 45  1  0  0  0
  9 10  1  0  0  0
 25 29  1  0  0  0
 28 30  1  0  0  0
  4  5  1  0  0  0
 32 33  1  0  0  0
 35 36  1  0  0  0
 40 41  1  0  0  0
 45 46  1  0  0  0
M  CHG 1  25   1
M  END
> <minimizedAffinity>
-10.01640

$$$$
1IVP_1ZK_B_100


 67 71  0  0  0  0  0  0  0  0999 V2000
    0.8914   19.2921   20.2376 C   0  0  0  0  0  0  0  0  0  0  0  0
   -0.1719   19.5433   22.4162 C   0  0  0  0  0  0  0  0  0  0  0  0
   -0.9411   18.5745   22.2520 O   0  0  0  0  0  0  0  0  0  0  0  0
    0.7257   19.9759   21.5367 N   0  0  0  0  0  0  0  0  0  0  0  0
    1.2841   20.7575   21.7524 H   0  0  0  0  0  0  0  0  0  0  0  0
   -0.2594   20.3615   23.6970 C   0  0  0  0  0  0  0  0  0  0  0  0
   -1.5127   22.4963   23.5903 C   0  0  0  0  0  0  0  0  0  0  0  0
   -0.4893   23.2000   23.6886 O   0  0  0  0  0  0  0  0  0  0  0  0
   -1.4841   21.1780   23.5826 N   0  0  0  0  0  0  0  0  0  0  0  0
   -2.3421   20.7035   23.4940 H   0  0  0  0  0  0  0  0  0  0  0  0
   -2.9173   23.1045   23.4892 C   0  0  0  0  0  0  0  0  0  0  0  0
   -3.7023   22.7137   24.6085 O   0  0  0  0  0  0  0  0  0  0  0  0
   -5.0492   22.6082   24.6592 C   0  0  0  0  0  0  0  0  0  0  0  0
   -5.7338   22.4131   23.4452 C   0  0  0  0  0  0  0  0  0  0  0  0
   -7.1344   22.2903   23.4396 C   0  0  0  0  0  0  0  0  0  0  0  0
   -7.8469   22.3552   24.6374 C   0  0  0  0  0  0  0  0  0  0  0  0
   -7.1627   22.5349   25.8452 C   0  0  0  0  0  0  0  0  0  0  0  0
   -7.8994   22.6040   27.0425 C   0  0  0  0  0  0  0  0  0  0  0  0
   -7.2198   22.8010   28.2557 C   0  0  0  0  0  0  0  0  0  0  0  0
   -5.8177   22.9195   28.2637 C   0  0  0  0  0  0  0  0  0  0  0  0
   -5.1003   22.8360   27.0603 C   0  0  0  0  0  0  0  0  0  0  0  0
   -5.7696   22.6538   25.8460 C   0  0  0  0  0  0  0  0  0  0  0  0
   -0.4092   19.4121   24.9296 C   0  0  0  0  0  0  0  0  0  0  0  0
   -0.6577   20.2463   26.1557 C   0  0  0  0  0  0  0  0  0  0  0  0
   -1.8830   20.6909   26.5544 N   0  0  0  0  0  0  0  0  0  0  0  0
    0.2102   20.7676   27.0543 C   0  0  0  0  0  0  0  0  0  0  0  0
   -1.7714   21.4481   27.6333 C   0  0  0  0  0  0  0  0  0  0  0  0
   -0.4979   21.5052   27.9510 N   0  0  0  0  0  0  0  0  0  0  0  0
   -2.7316   20.4784   26.1029 H   0  0  0  0  0  0  0  0  0  0  0  0
   -0.1186   22.0004   28.7127 H   0  0  0  0  0  0  0  0  0  0  0  0
    2.2277   18.5508   20.1795 C   0  0  0  0  0  0  0  0  0  0  0  0
    3.3350   18.9858   19.8684 O   0  0  0  0  0  0  0  0  0  0  0  0
    3.7622   19.3710   20.6494 H   0  0  0  0  0  0  0  0  0  0  0  0
    2.1713   17.4325   21.2233 C   0  0  0  0  0  0  0  0  0  0  0  0
    2.6815   17.9777   22.4561 O   0  0  0  0  0  0  0  0  0  0  0  0
    3.5824   18.3084   22.3150 H   0  0  0  0  0  0  0  0  0  0  0  0
    3.0149   16.2622   20.7176 C   0  0  0  0  0  0  0  0  0  0  0  0
    2.2548   15.4566   19.6407 C   0  0  0  0  0  0  0  0  0  0  0  0
    1.0399   15.1785   19.6412 O   0  0  0  0  0  0  0  0  0  0  0  0
    3.0669   15.0790   18.6788 N   0  0  0  0  0  0  0  0  0  0  0  0
    3.9880   15.4124   18.7769 H   0  0  0  0  0  0  0  0  0  0  0  0
    2.8566   14.2642   17.5032 C   0  0  0  0  0  0  0  0  0  0  0  0
    4.0158   13.2512   17.5232 C   0  0  0  0  0  0  0  0  0  0  0  0
    5.2117   13.5274   17.3812 O   0  0  0  0  0  0  0  0  0  0  0  0
    3.5823   12.0239   17.7585 N   0  0  0  0  0  0  0  0  0  0  0  0
    2.6095   11.9184   17.8670 H   0  0  0  0  0  0  0  0  0  0  0  0
    4.3807   10.8097   17.8754 C   0  0  0  0  0  0  0  0  0  0  0  0
    4.6614   10.4975   19.3087 C   0  0  0  0  0  0  0  0  0  0  0  0
    3.7873   10.8816   20.3364 C   0  0  0  0  0  0  0  0  0  0  0  0
    4.0758   10.5324   21.6599 C   0  0  0  0  0  0  0  0  0  0  0  0
    5.2510    9.8139   21.9350 C   0  0  0  0  0  0  0  0  0  0  0  0
    6.0880    9.4492   20.8696 C   0  0  0  0  0  0  0  0  0  0  0  0
    5.7712    9.8058   19.6168 N   0  0  0  0  0  0  0  0  0  0  0  0
    2.4547   14.9249   16.1718 C   0  0  0  0  0  0  0  0  0  0  0  0
    2.9773   14.3162   14.8633 C   0  0  0  0  0  0  0  0  0  0  0  0
    0.9201   15.1497   16.1478 C   0  0  0  0  0  0  0  0  0  0  0  0
    0.5031   16.6177   16.4211 C   0  0  0  0  0  0  0  0  0  0  0  0
    3.2497   15.4033   21.9130 C   0  0  0  0  0  0  0  0  0  0  0  0
    2.5234   14.0433   21.9951 C   0  0  0  0  0  0  0  0  0  0  0  0
    4.7233   15.1943   22.2272 C   0  0  0  0  0  0  0  0  0  0  0  0
    0.5725   20.0336   19.0890 C   0  0  0  0  0  0  0  0  0  0  0  0
   -0.8873   20.4587   18.9278 C   0  0  0  0  0  0  0  0  0  0  0  0
   -1.2515   21.5148   19.9944 C   0  0  0  0  0  0  0  0  0  0  0  0
   -1.7574   19.1930   19.1254 C   0  0  0  0  0  0  0  0  0  0  0  0
   -2.7362   21.9011   19.7795 C   0  0  0  0  0  0  0  0  0  0  0  0
   -3.2443   19.4851   19.1739 C   0  0  0  0  0  0  0  0  0  0  0  0
   -3.5898   20.6503   20.0909 C   0  0  0  0  0  0  0  0  0  0  0  0
  7 11  1  0  0  0
  7  8  2  0  0  0
 11 12  1  0  0  0
 13 14  2  0  0  0
 13 22  1  0  0  0
 13 12  1  0  0  0
 14 15  1  0  0  0
 15 16  2  0  0  0
 16 17  1  0  0  0
 17 18  2  0  0  0
 17 22  1  0  0  0
 18 19  1  0  0  0
 19 20  2  0  0  0
 20 21  1  0  0  0
 21 22  2  0  0  0
  9  6  1  0  0  0
  6  2  1  0  0  0
  6 23  1  0  0  0
  2  3  2  0  0  0
 23 24  1  0  0  0
 24 25  1  0  0  0
 24 26  2  0  0  0
 25 27  2  0  0  0
 26 28  1  0  0  0
 27 28  1  0  0  0
  4  1  1  0  0  0
  1 61  1  0  0  0
  1 31  1  0  0  0
 61 62  1  0  0  0
 62 63  1  0  0  0
 62 64  1  0  0  0
 63 65  1  0  0  0
 64 66  1  0  0  0
 65 67  1  0  0  0
 66 67  1  0  0  0
 31 32  1  0  0  0
 31 34  1  0  0  0
 34 37  1  0  0  0
 34 35  1  0  0  0
 37 58  1  0  0  0
 37 38  1  0  0  0
 58 59  1  0  0  0
 58 60  1  0  0  0
 38 39  2  0  0  0
 40 42  1  0  0  0
 42 43  1  0  0  0
 42 54  1  0  0  0
 43 44  2  0  0  0
 54 56  1  0  0  0
 54 55  1  0  0  0
 56 57  1  0  0  0
 45 47  1  0  0  0
 47 48  1  0  0  0
 48 49  1  0  0  0
 48 53  2  0  0  0
 49 50  2  0  0  0
 50 51  1  0  0  0
 51 52  2  0  0  0
 52 53  1  0  0  0
  7  9  1  0  0  0
  2  4  1  0  0  0
 38 40  1  0  0  0
 43 45  1  0  0  0
  9 10  1  0  0  0
 25 29  1  0  0  0
 28 30  1  0  0  0
  4  5  1  0  0  0
 32 33  1  0  0  0
 35 36  1  0  0  0
 40 41  1  0  0  0
 45 46  1  0  0  0
M  CHG 1  25   1
M  END
> <minimizedAffinity>
-9.82720

$$$$
1IVP_1ZK_B_100


 67 71  0  0  0  0  0  0  0  0999 V2000
    1.7839   16.9182   19.9614 C   0  0  0  0  0  0  0  0  0  0  0  0
    1.2959   18.9020   21.2906 C   0  0  0  0  0  0  0  0  0  0  0  0
    2.3803   19.4579   21.0221 O   0  0  0  0  0  0  0  0  0  0  0  0
    0.9105   17.7071   20.8544 N   0  0  0  0  0  0  0  0  0  0  0  0
    0.0368   17.3452   21.1283 H   0  0  0  0  0  0  0  0  0  0  0  0
    0.3139   19.5880   22.2301 C   0  0  0  0  0  0  0  0  0  0  0  0
   -1.4663   21.2298   21.7060 C   0  0  0  0  0  0  0  0  0  0  0  0
   -1.3569   21.8238   22.7957 O   0  0  0  0  0  0  0  0  0  0  0  0
   -0.7254   20.1912   21.3725 N   0  0  0  0  0  0  0  0  0  0  0  0
   -0.8764   19.7886   20.4869 H   0  0  0  0  0  0  0  0  0  0  0  0
   -2.4982   21.6431   20.6489 C   0  0  0  0  0  0  0  0  0  0  0  0
   -3.5444   22.3935   21.2523 O   0  0  0  0  0  0  0  0  0  0  0  0
   -4.7106   21.9146   21.7406 C   0  0  0  0  0  0  0  0  0  0  0  0
   -5.3898   20.9484   20.9753 C   0  0  0  0  0  0  0  0  0  0  0  0
   -6.6038   20.4111   21.4380 C   0  0  0  0  0  0  0  0  0  0  0  0
   -7.1337   20.8298   22.6588 C   0  0  0  0  0  0  0  0  0  0  0  0
   -6.4493   21.7804   23.4252 C   0  0  0  0  0  0  0  0  0  0  0  0
   -7.0028   22.1948   24.6510 C   0  0  0  0  0  0  0  0  0  0  0  0
   -6.3291   23.1606   25.4163 C   0  0  0  0  0  0  0  0  0  0  0  0
   -5.1116   23.6961   24.9570 C   0  0  0  0  0  0  0  0  0  0  0  0
   -4.5701   23.2609   23.7375 C   0  0  0  0  0  0  0  0  0  0  0  0
   -5.2409   22.3098   22.9621 C   0  0  0  0  0  0  0  0  0  0  0  0
   -0.3630   18.5312   23.1617 C   0  0  0  0  0  0  0  0  0  0  0  0
   -0.3036   19.0275   24.5799 C   0  0  0  0  0  0  0  0  0  0  0  0
   -1.1498   18.6346   25.5737 N   0  0  0  0  0  0  0  0  0  0  0  0
    0.4989   19.9545   25.1533 C   0  0  0  0  0  0  0  0  0  0  0  0
   -0.8849   19.2895   26.6921 C   0  0  0  0  0  0  0  0  0  0  0  0
    0.1201   20.1006   26.4513 N   0  0  0  0  0  0  0  0  0  0  0  0
   -1.8585   17.9586   25.4733 H   0  0  0  0  0  0  0  0  0  0  0  0
    0.5313   20.7133   27.1030 H   0  0  0  0  0  0  0  0  0  0  0  0
    2.9826   16.3584   20.7284 C   0  0  0  0  0  0  0  0  0  0  0  0
    3.8646   16.9698   21.3285 O   0  0  0  0  0  0  0  0  0  0  0  0
    3.5712   17.1541   22.2345 H   0  0  0  0  0  0  0  0  0  0  0  0
    2.5725   14.9873   21.2721 C   0  0  0  0  0  0  0  0  0  0  0  0
    1.2488   15.1295   21.8243 O   0  0  0  0  0  0  0  0  0  0  0  0
    1.2570   15.8139   22.5117 H   0  0  0  0  0  0  0  0  0  0  0  0
    3.5951   14.5650   22.3269 C   0  0  0  0  0  0  0  0  0  0  0  0
    4.5608   13.4979   21.7656 C   0  0  0  0  0  0  0  0  0  0  0  0
    5.6177   13.1014   22.2940 O   0  0  0  0  0  0  0  0  0  0  0  0
    4.1261   13.0317   20.6162 N   0  0  0  0  0  0  0  0  0  0  0  0
    3.2522   13.3922   20.3414 H   0  0  0  0  0  0  0  0  0  0  0  0
    4.6948   12.0870   19.6812 C   0  0  0  0  0  0  0  0  0  0  0  0
    4.2718   12.6116   18.2969 C   0  0  0  0  0  0  0  0  0  0  0  0
    4.3233   13.7905   17.9307 O   0  0  0  0  0  0  0  0  0  0  0  0
    3.8766   11.6277   17.5063 N   0  0  0  0  0  0  0  0  0  0  0  0
    3.8855   10.7240   17.8970 H   0  0  0  0  0  0  0  0  0  0  0  0
    3.4293   11.7286   16.1224 C   0  0  0  0  0  0  0  0  0  0  0  0
    3.3041   10.3734   15.5072 C   0  0  0  0  0  0  0  0  0  0  0  0
    3.0538    9.2289   16.2786 C   0  0  0  0  0  0  0  0  0  0  0  0
    2.9072    7.9873   15.6513 C   0  0  0  0  0  0  0  0  0  0  0  0
    3.0306    7.9102   14.2542 C   0  0  0  0  0  0  0  0  0  0  0  0
    3.2751    9.0863   13.5291 C   0  0  0  0  0  0  0  0  0  0  0  0
    3.4086   10.2544   14.1730 N   0  0  0  0  0  0  0  0  0  0  0  0
    4.6182   10.5769   19.9717 C   0  0  0  0  0  0  0  0  0  0  0  0
    5.7807    9.9141   20.7234 C   0  0  0  0  0  0  0  0  0  0  0  0
    3.2400   10.2396   20.5986 C   0  0  0  0  0  0  0  0  0  0  0  0
    2.6533    8.8874   20.1181 C   0  0  0  0  0  0  0  0  0  0  0  0
    2.7925   13.9793   23.4380 C   0  0  0  0  0  0  0  0  0  0  0  0
    2.2597   12.5388   23.2800 C   0  0  0  0  0  0  0  0  0  0  0  0
    3.4579   14.1115   24.7995 C   0  0  0  0  0  0  0  0  0  0  0  0
    2.0886   17.4858   18.7141 C   0  0  0  0  0  0  0  0  0  0  0  0
    1.8889   16.5969   17.4864 C   0  0  0  0  0  0  0  0  0  0  0  0
    1.0902   17.3587   16.4060 C   0  0  0  0  0  0  0  0  0  0  0  0
    1.0911   15.3520   17.9471 C   0  0  0  0  0  0  0  0  0  0  0  0
    0.9209   16.4080   15.1947 C   0  0  0  0  0  0  0  0  0  0  0  0
    0.6561   14.4573   16.8030 C   0  0  0  0  0  0  0  0  0  0  0  0
    0.0289   15.2307   15.6514 C   0  0  0  0  0  0  0  0  0  0  0  0
  7 11  1  0  0  0
  7  8  2  0  0  0
 11 12  1  0  0  0
 13 14  2  0  0  0
 13 22  1  0  0  0
 13 12  1  0  0  0
 14 15  1  0  0  0
 15 16  2  0  0  0
 16 17  1  0  0  0
 17 18  2  0  0  0
 17 22  1  0  0  0
 18 19  1  0  0  0
 19 20  2  0  0  0
 20 21  1  0  0  0
 21 22  2  0  0  0
  9  6  1  0  0  0
  6  2  1  0  0  0
  6 23  1  0  0  0
  2  3  2  0  0  0
 23 24  1  0  0  0
 24 25  1  0  0  0
 24 26  2  0  0  0
 25 27  2  0  0  0
 26 28  1  0  0  0
 27 28  1  0  0  0
  4  1  1  0  0  0
  1 61  1  0  0  0
  1 31  1  0  0  0
 61 62  1  0  0  0
 62 63  1  0  0  0
 62 64  1  0  0  0
 63 65  1  0  0  0
 64 66  1  0  0  0
 65 67  1  0  0  0
 66 67  1  0  0  0
 31 32  1  0  0  0
 31 34  1  0  0  0
 34 37  1  0  0  0
 34 35  1  0  0  0
 37 58  1  0  0  0
 37 38  1  0  0  0
 58 59  1  0  0  0
 58 60  1  0  0  0
 38 39  2  0  0  0
 40 42  1  0  0  0
 42 43  1  0  0  0
 42 54  1  0  0  0
 43 44  2  0  0  0
 54 56  1  0  0  0
 54 55  1  0  0  0
 56 57  1  0  0  0
 45 47  1  0  0  0
 47 48  1  0  0  0
 48 49  1  0  0  0
 48 53  2  0  0  0
 49 50  2  0  0  0
 50 51  1  0  0  0
 51 52  2  0  0  0
 52 53  1  0  0  0
  7  9  1  0  0  0
  2  4  1  0  0  0
 38 40  1  0  0  0
 43 45  1  0  0  0
  9 10  1  0  0  0
 25 29  1  0  0  0
 28 30  1  0  0  0
  4  5  1  0  0  0
 32 33  1  0  0  0
 35 36  1  0  0  0
 40 41  1  0  0  0
 45 46  1  0  0  0
M  CHG 1  25   1
M  END
> <minimizedAffinity>
-9.67408

$$$$
1IVP_1ZK_B_100


 67 71  0  0  0  0  0  0  0  0999 V2000
    1.2818   17.9013   18.9311 C   0  0  0  0  0  0  0  0  0  0  0  0
    1.5133   16.0996   20.5561 C   0  0  0  0  0  0  0  0  0  0  0  0
    0.3101   16.1228   20.8865 O   0  0  0  0  0  0  0  0  0  0  0  0
    2.0829   16.8919   19.6538 N   0  0  0  0  0  0  0  0  0  0  0  0
    3.0454   16.8056   19.4656 H   0  0  0  0  0  0  0  0  0  0  0  0
    2.4623   15.1309   21.2478 C   0  0  0  0  0  0  0  0  0  0  0  0
    3.8180   13.4337   20.0557 C   0  0  0  0  0  0  0  0  0  0  0  0
    3.4194   12.4921   20.7676 O   0  0  0  0  0  0  0  0  0  0  0  0
    3.4164   14.6795   20.2156 N   0  0  0  0  0  0  0  0  0  0  0  0
    3.7793   15.3583   19.6017 H   0  0  0  0  0  0  0  0  0  0  0  0
    4.8394   13.2324   18.9291 C   0  0  0  0  0  0  0  0  0  0  0  0
    4.7787   11.8966   18.4456 O   0  0  0  0  0  0  0  0  0  0  0  0
    4.2443   11.4794   17.2759 C   0  0  0  0  0  0  0  0  0  0  0  0
    4.1637   12.4134   16.2263 C   0  0  0  0  0  0  0  0  0  0  0  0
    3.6227   12.0323   14.9858 C   0  0  0  0  0  0  0  0  0  0  0  0
    3.1710   10.7265   14.7913 C   0  0  0  0  0  0  0  0  0  0  0  0
    3.2654    9.7953   15.8320 C   0  0  0  0  0  0  0  0  0  0  0  0
    2.7988    8.4847   15.6187 C   0  0  0  0  0  0  0  0  0  0  0  0
    2.8754    7.5505   16.6646 C   0  0  0  0  0  0  0  0  0  0  0  0
    3.4208    7.9289   17.9053 C   0  0  0  0  0  0  0  0  0  0  0  0
    3.8916    9.2376   18.0943 C   0  0  0  0  0  0  0  0  0  0  0  0
    3.8067   10.1783   17.0630 C   0  0  0  0  0  0  0  0  0  0  0  0
    3.2590   15.8717   22.3702 C   0  0  0  0  0  0  0  0  0  0  0  0
    3.5773   14.8915   23.4652 C   0  0  0  0  0  0  0  0  0  0  0  0
    4.5916   13.9820   23.4194 N   0  0  0  0  0  0  0  0  0  0  0  0
    2.9485   14.6515   24.6396 C   0  0  0  0  0  0  0  0  0  0  0  0
    4.5808   13.2226   24.5024 C   0  0  0  0  0  0  0  0  0  0  0  0
    3.5817   13.6190   25.2579 N   0  0  0  0  0  0  0  0  0  0  0  0
    5.2410   13.9017   22.6838 H   0  0  0  0  0  0  0  0  0  0  0  0
    3.3326   13.2322   26.1283 H   0  0  0  0  0  0  0  0  0  0  0  0
    1.2545   19.2245   19.6972 C   0  0  0  0  0  0  0  0  0  0  0  0
    2.1990   19.8773   20.1374 O   0  0  0  0  0  0  0  0  0  0  0  0
    2.5354   20.4668   19.4444 H   0  0  0  0  0  0  0  0  0  0  0  0
    0.0159   19.9932   19.2298 C   0  0  0  0  0  0  0  0  0  0  0  0
    0.3784   20.6833   18.0174 O   0  0  0  0  0  0  0  0  0  0  0  0
    1.1336   21.2668   18.1909 H   0  0  0  0  0  0  0  0  0  0  0  0
   -0.3965   20.9583   20.3413 C   0  0  0  0  0  0  0  0  0  0  0  0
   -0.7273   20.1947   21.6428 C   0  0  0  0  0  0  0  0  0  0  0  0
   -1.1127   19.0128   21.7327 O   0  0  0  0  0  0  0  0  0  0  0  0
   -0.5494   20.9630   22.6941 N   0  0  0  0  0  0  0  0  0  0  0  0
   -0.1913   21.8555   22.4833 H   0  0  0  0  0  0  0  0  0  0  0  0
   -0.7829   20.7389   24.1032 C   0  0  0  0  0  0  0  0  0  0  0  0
   -1.2425   22.1065   24.6407 C   0  0  0  0  0  0  0  0  0  0  0  0
   -0.8034   23.2033   24.2788 O   0  0  0  0  0  0  0  0  0  0  0  0
   -2.2165   21.9763   25.5260 N   0  0  0  0  0  0  0  0  0  0  0  0
   -2.4974   21.0558   25.7330 H   0  0  0  0  0  0  0  0  0  0  0  0
   -2.9215   23.0405   26.2302 C   0  0  0  0  0  0  0  0  0  0  0  0
   -4.3907   22.7734   26.2575 C   0  0  0  0  0  0  0  0  0  0  0  0
   -5.1110   22.7111   27.4595 C   0  0  0  0  0  0  0  0  0  0  0  0
   -6.4929   22.4959   27.4304 C   0  0  0  0  0  0  0  0  0  0  0  0
   -7.1312   22.3295   26.1903 C   0  0  0  0  0  0  0  0  0  0  0  0
   -6.3650   22.4069   25.0174 C   0  0  0  0  0  0  0  0  0  0  0  0
   -5.0429   22.6148   25.0937 N   0  0  0  0  0  0  0  0  0  0  0  0
    0.2154   19.9022   24.9243 C   0  0  0  0  0  0  0  0  0  0  0  0
    0.8732   20.5432   26.1540 C   0  0  0  0  0  0  0  0  0  0  0  0
   -0.4076   18.5175   25.2414 C   0  0  0  0  0  0  0  0  0  0  0  0
   -1.1794   18.4769   26.5854 C   0  0  0  0  0  0  0  0  0  0  0  0
   -1.6222   21.6386   19.8344 C   0  0  0  0  0  0  0  0  0  0  0  0
   -2.9907   20.9681   20.0819 C   0  0  0  0  0  0  0  0  0  0  0  0
   -1.7112   23.1028   20.2371 C   0  0  0  0  0  0  0  0  0  0  0  0
    0.0408   17.4798   18.4282 C   0  0  0  0  0  0  0  0  0  0  0  0
    0.0613   16.6879   17.1205 C   0  0  0  0  0  0  0  0  0  0  0  0
    0.3389   15.1963   17.4096 C   0  0  0  0  0  0  0  0  0  0  0  0
    1.1995   17.2731   16.2485 C   0  0  0  0  0  0  0  0  0  0  0  0
    0.3485   14.4523   16.0509 C   0  0  0  0  0  0  0  0  0  0  0  0
    1.4652   16.4735   14.9881 C   0  0  0  0  0  0  0  0  0  0  0  0
    1.5596   14.9759   15.2450 C   0  0  0  0  0  0  0  0  0  0  0  0
  7 11  1  0  0  0
  7  8  2  0  0  0
 11 12  1  0  0  0
 13 14  2  0  0  0
 13 22  1  0  0  0
 13 12  1  0  0  0
 14 15  1  0  0  0
 15 16  2  0  0  0
 16 17  1  0  0  0
 17 18  2  0  0  0
 17 22  1  0  0  0
 18 19  1  0  0  0
 19 20  2  0  0  0
 20 21  1  0  0  0
 21 22  2  0  0  0
  9  6  1  0  0  0
  6  2  1  0  0  0
  6 23  1  0  0  0
  2  3  2  0  0  0
 23 24  1  0  0  0
 24 25  1  0  0  0
 24 26  2  0  0  0
 25 27  2  0  0  0
 26 28  1  0  0  0
 27 28  1  0  0  0
  4  1  1  0  0  0
  1 61  1  0  0  0
  1 31  1  0  0  0
 61 62  1  0  0  0
 62 63  1  0  0  0
 62 64  1  0  0  0
 63 65  1  0  0  0
 64 66  1  0  0  0
 65 67  1  0  0  0
 66 67  1  0  0  0
 31 32  1  0  0  0
 31 34  1  0  0  0
 34 37  1  0  0  0
 34 35  1  0  0  0
 37 58  1  0  0  0
 37 38  1  0  0  0
 58 59  1  0  0  0
 58 60  1  0  0  0
 38 39  2  0  0  0
 40 42  1  0  0  0
 42 43  1  0  0  0
 42 54  1  0  0  0
 43 44  2  0  0  0
 54 56  1  0  0  0
 54 55  1  0  0  0
 56 57  1  0  0  0
 45 47  1  0  0  0
 47 48  1  0  0  0
 48 49  1  0  0  0
 48 53  2  0  0  0
 49 50  2  0  0  0
 50 51  1  0  0  0
 51 52  2  0  0  0
 52 53  1  0  0  0
  7  9  1  0  0  0
  2  4  1  0  0  0
 38 40  1  0  0  0
 43 45  1  0  0  0
  9 10  1  0  0  0
 25 29  1  0  0  0
 28 30  1  0  0  0
  4  5  1  0  0  0
 32 33  1  0  0  0
 35 36  1  0  0  0
 40 41  1  0  0  0
 45 46  1  0  0  0
M  CHG 1  25   1
M  END
> <minimizedAffinity>
-9.49418

$$$$
1IVP_1ZK_B_100


 67 71  0  0  0  0  0  0  0  0999 V2000
    1.4781   17.7190   19.6718 C   0  0  0  0  0  0  0  0  0  0  0  0
    1.6576   16.2166   21.5825 C   0  0  0  0  0  0  0  0  0  0  0  0
    0.4246   16.1577   21.7655 O   0  0  0  0  0  0  0  0  0  0  0  0
    2.2660   16.9224   20.6347 N   0  0  0  0  0  0  0  0  0  0  0  0
    3.2486   16.9143   20.5739 H   0  0  0  0  0  0  0  0  0  0  0  0
    2.5921   15.4715   22.5255 C   0  0  0  0  0  0  0  0  0  0  0  0
    2.4663   13.0101   22.7808 C   0  0  0  0  0  0  0  0  0  0  0  0
    2.2084   13.0647   23.9985 O   0  0  0  0  0  0  0  0  0  0  0  0
    2.6521   14.0808   22.0338 N   0  0  0  0  0  0  0  0  0  0  0  0
    2.8449   13.9426   21.0783 H   0  0  0  0  0  0  0  0  0  0  0  0
    2.6138   11.6781   22.0345 C   0  0  0  0  0  0  0  0  0  0  0  0
    3.5612   11.8083   20.9822 O   0  0  0  0  0  0  0  0  0  0  0  0
    3.6424   11.0527   19.8640 C   0  0  0  0  0  0  0  0  0  0  0  0
    3.5447    9.6566   20.0123 C   0  0  0  0  0  0  0  0  0  0  0  0
    3.6162    8.8227   18.8826 C   0  0  0  0  0  0  0  0  0  0  0  0
    3.7776    9.3779   17.6127 C   0  0  0  0  0  0  0  0  0  0  0  0
    3.8601   10.7675   17.4661 C   0  0  0  0  0  0  0  0  0  0  0  0
    4.0290   11.3083   16.1777 C   0  0  0  0  0  0  0  0  0  0  0  0
    4.1292   12.7009   16.0261 C   0  0  0  0  0  0  0  0  0  0  0  0
    4.0532   13.5373   17.1552 C   0  0  0  0  0  0  0  0  0  0  0  0
    3.8727   12.9791   18.4302 C   0  0  0  0  0  0  0  0  0  0  0  0
    3.7857   11.5927   18.5923 C   0  0  0  0  0  0  0  0  0  0  0  0
    4.0274   16.0861   22.4528 C   0  0  0  0  0  0  0  0  0  0  0  0
    5.0124   14.9839   22.1766 C   0  0  0  0  0  0  0  0  0  0  0  0
    5.4710   14.6480   20.9377 N   0  0  0  0  0  0  0  0  0  0  0  0
    5.5890   14.0907   23.0144 C   0  0  0  0  0  0  0  0  0  0  0  0
    6.2784   13.6027   21.0115 C   0  0  0  0  0  0  0  0  0  0  0  0
    6.3602   13.2499   22.2743 N   0  0  0  0  0  0  0  0  0  0  0  0
    5.2346   15.1172   20.1052 H   0  0  0  0  0  0  0  0  0  0  0  0
    6.8923   12.5003   22.6268 H   0  0  0  0  0  0  0  0  0  0  0  0
    1.4627   19.1952   20.0707 C   0  0  0  0  0  0  0  0  0  0  0  0
    2.4141   19.9550   20.2417 O   0  0  0  0  0  0  0  0  0  0  0  0
    2.6693   20.3496   19.3931 H   0  0  0  0  0  0  0  0  0  0  0  0
    0.1609   19.7960   19.5340 C   0  0  0  0  0  0  0  0  0  0  0  0
    0.4692   20.4115   18.2677 O   0  0  0  0  0  0  0  0  0  0  0  0
    1.1620   21.0788   18.3927 H   0  0  0  0  0  0  0  0  0  0  0  0
   -0.3567   20.8080   20.5561 C   0  0  0  0  0  0  0  0  0  0  0  0
   -0.7287   20.1123   21.8843 C   0  0  0  0  0  0  0  0  0  0  0  0
   -1.1742   18.9559   22.0174 O   0  0  0  0  0  0  0  0  0  0  0  0
   -0.5140   20.9100   22.9065 N   0  0  0  0  0  0  0  0  0  0  0  0
   -0.1103   21.7744   22.6635 H   0  0  0  0  0  0  0  0  0  0  0  0
   -0.7616   20.7519   24.3221 C   0  0  0  0  0  0  0  0  0  0  0  0
   -1.2665   22.1316   24.7823 C   0  0  0  0  0  0  0  0  0  0  0  0
   -0.8726   23.2199   24.3496 O   0  0  0  0  0  0  0  0  0  0  0  0
   -2.2255   22.0196   25.6861 N   0  0  0  0  0  0  0  0  0  0  0  0
   -2.4695   21.1035   25.9517 H   0  0  0  0  0  0  0  0  0  0  0  0
   -2.9624   23.0977   26.3342 C   0  0  0  0  0  0  0  0  0  0  0  0
   -4.4269   22.8047   26.3458 C   0  0  0  0  0  0  0  0  0  0  0  0
   -5.1602   22.7369   27.5396 C   0  0  0  0  0  0  0  0  0  0  0  0
   -6.5376   22.4969   27.4956 C   0  0  0  0  0  0  0  0  0  0  0  0
   -7.1581   22.3116   26.2492 C   0  0  0  0  0  0  0  0  0  0  0  0
   -6.3795   22.3954   25.0849 C   0  0  0  0  0  0  0  0  0  0  0  0
   -5.0623   22.6272   25.1754 N   0  0  0  0  0  0  0  0  0  0  0  0
    0.2474   19.9869   25.1982 C   0  0  0  0  0  0  0  0  0  0  0  0
    0.7909   20.6714   26.4598 C   0  0  0  0  0  0  0  0  0  0  0  0
   -0.2926   18.5613   25.4851 C   0  0  0  0  0  0  0  0  0  0  0  0
   -1.2789   18.4995   26.6796 C   0  0  0  0  0  0  0  0  0  0  0  0
   -1.5792   21.3971   19.9396 C   0  0  0  0  0  0  0  0  0  0  0  0
   -2.8728   20.5544   19.9223 C   0  0  0  0  0  0  0  0  0  0  0  0
   -1.9059   22.7900   20.4564 C   0  0  0  0  0  0  0  0  0  0  0  0
    0.2341   17.1940   19.2873 C   0  0  0  0  0  0  0  0  0  0  0  0
    0.1583   16.5459   17.9047 C   0  0  0  0  0  0  0  0  0  0  0  0
    0.6166   15.0731   17.9850 C   0  0  0  0  0  0  0  0  0  0  0  0
    1.1079   17.3399   16.9740 C   0  0  0  0  0  0  0  0  0  0  0  0
    0.5186   14.4763   16.5589 C   0  0  0  0  0  0  0  0  0  0  0  0
    1.2810   16.7068   15.6073 C   0  0  0  0  0  0  0  0  0  0  0  0
    1.5549   15.2109   15.6774 C   0  0  0  0  0  0  0  0  0  0  0  0
  7 11  1  0  0  0
  7  8  2  0  0  0
 11 12  1  0  0  0
 13 14  2  0  0  0
 13 22  1  0  0  0
 13 12  1  0  0  0
 14 15  1  0  0  0
 15 16  2  0  0  0
 16 17  1  0  0  0
 17 18  2  0  0  0
 17 22  1  0  0  0
 18 19  1  0  0  0
 19 20  2  0  0  0
 20 21  1  0  0  0
 21 22  2  0  0  0
  9  6  1  0  0  0
  6  2  1  0  0  0
  6 23  1  0  0  0
  2  3  2  0  0  0
 23 24  1  0  0  0
 24 25  1  0  0  0
 24 26  2  0  0  0
 25 27  2  0  0  0
 26 28  1  0  0  0
 27 28  1  0  0  0
  4  1  1  0  0  0
  1 61  1  0  0  0
  1 31  1  0  0  0
 61 62  1  0  0  0
 62 63  1  0  0  0
 62 64  1  0  0  0
 63 65  1  0  0  0
 64 66  1  0  0  0
 65 67  1  0  0  0
 66 67  1  0  0  0
 31 32  1  0  0  0
 31 34  1  0  0  0
 34 37  1  0  0  0
 34 35  1  0  0  0
 37 58  1  0  0  0
 37 38  1  0  0  0
 58 59  1  0  0  0
 58 60  1  0  0  0
 38 39  2  0  0  0
 40 42  1  0  0  0
 42 43  1  0  0  0
 42 54  1  0  0  0
 43 44  2  0  0  0
 54 56  1  0  0  0
 54 55  1  0  0  0
 56 57  1  0  0  0
 45 47  1  0  0  0
 47 48  1  0  0  0
 48 49  1  0  0  0
 48 53  2  0  0  0
 49 50  2  0  0  0
 50 51  1  0  0  0
 51 52  2  0  0  0
 52 53  1  0  0  0
  7  9  1  0  0  0
  2  4  1  0  0  0
 38 40  1  0  0  0
 43 45  1  0  0  0
  9 10  1  0  0  0
 25 29  1  0  0  0
 28 30  1  0  0  0
  4  5  1  0  0  0
 32 33  1  0  0  0
 35 36  1  0  0  0
 40 41  1  0  0  0
 45 46  1  0  0  0
M  CHG 1  25   1
M  END
> <minimizedAffinity>
-9.47385

$$$$
1IVP_1ZK_B_100


 67 71  0  0  0  0  0  0  0  0999 V2000
    0.6672   17.9176   18.9733 C   0  0  0  0  0  0  0  0  0  0  0  0
    2.4501   16.9152   20.2987 C   0  0  0  0  0  0  0  0  0  0  0  0
    3.1377   17.9562   20.3246 O   0  0  0  0  0  0  0  0  0  0  0  0
    1.2767   16.7783   19.6897 N   0  0  0  0  0  0  0  0  0  0  0  0
    0.8103   15.9117   19.7162 H   0  0  0  0  0  0  0  0  0  0  0  0
    2.9755   15.6526   20.9677 C   0  0  0  0  0  0  0  0  0  0  0  0
    3.7848   13.6036   19.8336 C   0  0  0  0  0  0  0  0  0  0  0  0
    3.1955   12.8350   20.6174 O   0  0  0  0  0  0  0  0  0  0  0  0
    3.7259   14.9174   19.9304 N   0  0  0  0  0  0  0  0  0  0  0  0
    4.2183   15.4467   19.2622 H   0  0  0  0  0  0  0  0  0  0  0  0
    4.6595   13.0872   18.6841 C   0  0  0  0  0  0  0  0  0  0  0  0
    4.3335   11.7349   18.3896 O   0  0  0  0  0  0  0  0  0  0  0  0
    3.9687   11.2298   17.1898 C   0  0  0  0  0  0  0  0  0  0  0  0
    4.0692   12.0751   16.0690 C   0  0  0  0  0  0  0  0  0  0  0  0
    3.7093   11.6002   14.7956 C   0  0  0  0  0  0  0  0  0  0  0  0
    3.2583   10.2891   14.6398 C   0  0  0  0  0  0  0  0  0  0  0  0
    3.1728    9.4457   15.7536 C   0  0  0  0  0  0  0  0  0  0  0  0
    2.7097    8.1284   15.5775 C   0  0  0  0  0  0  0  0  0  0  0  0
    2.6058    7.2827   16.6939 C   0  0  0  0  0  0  0  0  0  0  0  0
    2.9700    7.7548   17.9685 C   0  0  0  0  0  0  0  0  0  0  0  0
    3.4407    9.0681   18.1214 C   0  0  0  0  0  0  0  0  0  0  0  0
    3.5344    9.9217   17.0176 C   0  0  0  0  0  0  0  0  0  0  0  0
    3.9612   16.0284   22.1210 C   0  0  0  0  0  0  0  0  0  0  0  0
    3.8451   14.9995   23.2114 C   0  0  0  0  0  0  0  0  0  0  0  0
    4.6654   13.9193   23.3470 N   0  0  0  0  0  0  0  0  0  0  0  0
    2.9355   14.8718   24.2056 C   0  0  0  0  0  0  0  0  0  0  0  0
    4.2760   13.1679   24.3637 C   0  0  0  0  0  0  0  0  0  0  0  0
    3.2192   13.7365   24.8985 N   0  0  0  0  0  0  0  0  0  0  0  0
    5.4389   13.7256   22.7696 H   0  0  0  0  0  0  0  0  0  0  0  0
    2.7157   13.3967   25.6732 H   0  0  0  0  0  0  0  0  0  0  0  0
   -0.6230   18.3656   19.6612 C   0  0  0  0  0  0  0  0  0  0  0  0
   -1.4304   17.6892   20.2957 O   0  0  0  0  0  0  0  0  0  0  0  0
   -1.1446   17.6278   21.2206 H   0  0  0  0  0  0  0  0  0  0  0  0
   -0.4270   19.8229   20.0870 C   0  0  0  0  0  0  0  0  0  0  0  0
    0.9673   19.9846   20.4140 O   0  0  0  0  0  0  0  0  0  0  0  0
    1.2102   19.3579   21.1134 H   0  0  0  0  0  0  0  0  0  0  0  0
   -1.3359   20.0982   21.2849 C   0  0  0  0  0  0  0  0  0  0  0  0
   -2.0307   21.4713   21.1485 C   0  0  0  0  0  0  0  0  0  0  0  0
   -1.6909   22.4037   20.3944 O   0  0  0  0  0  0  0  0  0  0  0  0
   -3.0678   21.5528   21.9516 N   0  0  0  0  0  0  0  0  0  0  0  0
   -3.2547   20.7254   22.4513 H   0  0  0  0  0  0  0  0  0  0  0  0
   -3.9846   22.6337   22.2365 C   0  0  0  0  0  0  0  0  0  0  0  0
   -4.0408   22.6973   23.7738 C   0  0  0  0  0  0  0  0  0  0  0  0
   -4.9553   22.2542   24.4766 O   0  0  0  0  0  0  0  0  0  0  0  0
   -2.9519   23.2559   24.2754 N   0  0  0  0  0  0  0  0  0  0  0  0
   -2.2806   23.5643   23.6246 H   0  0  0  0  0  0  0  0  0  0  0  0
   -2.6322   23.4669   25.6821 C   0  0  0  0  0  0  0  0  0  0  0  0
   -1.7361   22.3848   26.1887 C   0  0  0  0  0  0  0  0  0  0  0  0
   -2.2311   21.1273   26.5648 C   0  0  0  0  0  0  0  0  0  0  0  0
   -1.3463   20.1339   26.9973 C   0  0  0  0  0  0  0  0  0  0  0  0
    0.0264   20.4243   27.0616 C   0  0  0  0  0  0  0  0  0  0  0  0
    0.4698   21.6960   26.6682 C   0  0  0  0  0  0  0  0  0  0  0  0
   -0.4147   22.6170   26.2603 N   0  0  0  0  0  0  0  0  0  0  0  0
   -5.2876   22.7699   21.4275 C   0  0  0  0  0  0  0  0  0  0  0  0
   -5.2625   23.5857   20.1277 C   0  0  0  0  0  0  0  0  0  0  0  0
   -5.9258   21.3693   21.2343 C   0  0  0  0  0  0  0  0  0  0  0  0
   -7.3868   21.2768   21.7446 C   0  0  0  0  0  0  0  0  0  0  0  0
   -0.4305   20.1105   22.4689 C   0  0  0  0  0  0  0  0  0  0  0  0
   -0.2150   21.4444   23.2158 C   0  0  0  0  0  0  0  0  0  0  0  0
   -0.7484   19.0233   23.4843 C   0  0  0  0  0  0  0  0  0  0  0  0
    0.5911   17.8159   17.5752 C   0  0  0  0  0  0  0  0  0  0  0  0
    1.3259   16.6407   16.9297 C   0  0  0  0  0  0  0  0  0  0  0  0
    1.2873   16.7733   15.3914 C   0  0  0  0  0  0  0  0  0  0  0  0
    0.5915   15.3479   17.3626 C   0  0  0  0  0  0  0  0  0  0  0  0
    2.0434   15.5576   14.7999 C   0  0  0  0  0  0  0  0  0  0  0  0
    1.0939   14.1039   16.6565 C   0  0  0  0  0  0  0  0  0  0  0  0
    1.2301   14.2906   15.1518 C   0  0  0  0  0  0  0  0  0  0  0  0
  7 11  1  0  0  0
  7  8  2  0  0  0
 11 12  1  0  0  0
 13 14  2  0  0  0
 13 22  1  0  0  0
 13 12  1  0  0  0
 14 15  1  0  0  0
 15 16  2  0  0  0
 16 17  1  0  0  0
 17 18  2  0  0  0
 17 22  1  0  0  0
 18 19  1  0  0  0
 19 20  2  0  0  0
 20 21  1  0  0  0
 21 22  2  0  0  0
  9  6  1  0  0  0
  6  2  1  0  0  0
  6 23  1  0  0  0
  2  3  2  0  0  0
 23 24  1  0  0  0
 24 25  1  0  0  0
 24 26  2  0  0  0
 25 27  2  0  0  0
 26 28  1  0  0  0
 27 28  1  0  0  0
  4  1  1  0  0  0
  1 61  1  0  0  0
  1 31  1  0  0  0
 61 62  1  0  0  0
 62 63  1  0  0  0
 62 64  1  0  0  0
 63 65  1  0  0  0
 64 66  1  0  0  0
 65 67  1  0  0  0
 66 67  1  0  0  0
 31 32  1  0  0  0
 31 34  1  0  0  0
 34 37  1  0  0  0
 34 35  1  0  0  0
 37 58  1  0  0  0
 37 38  1  0  0  0
 58 59  1  0  0  0
 58 60  1  0  0  0
 38 39  2  0  0  0
 40 42  1  0  0  0
 42 43  1  0  0  0
 42 54  1  0  0  0
 43 44  2  0  0  0
 54 56  1  0  0  0
 54 55  1  0  0  0
 56 57  1  0  0  0
 45 47  1  0  0  0
 47 48  1  0  0  0
 48 49  1  0  0  0
 48 53  2  0  0  0
 49 50  2  0  0  0
 50 51  1  0  0  0
 51 52  2  0  0  0
 52 53  1  0  0  0
  7  9  1  0  0  0
  2  4  1  0  0  0
 38 40  1  0  0  0
 43 45  1  0  0  0
  9 10  1  0  0  0
 25 29  1  0  0  0
 28 30  1  0  0  0
  4  5  1  0  0  0
 32 33  1  0  0  0
 35 36  1  0  0  0
 40 41  1  0  0  0
 45 46  1  0  0  0
M  CHG 1  25   1
M  END
> <minimizedAffinity>
-9.37544

$$$$
