1IVP_1ZK_B_100
  RCSB PDB12061702533D
Coordinates from PDB:1IVP:B:100 Model:1 without hydrogens
 59 63  0  0  0  0            999 V2000
    4.3120   13.0860   17.8600   C 0  0  0  0  0  0  0  0  0  0  0  0
    4.5330   11.6570   18.3720   C 0  0  0  0  0  0  0  0  0  0  0  0
    5.0990   10.6100   20.5500   C 0  0  0  0  0  0  0  0  0  0  0  0
    6.4130   10.4110   21.0130   C 0  0  0  0  0  0  0  0  0  0  0  0
    6.7060    9.3200   21.8500   C 0  0  0  0  0  0  0  0  0  0  0  0
    5.6940    8.4370   22.2280   C 0  0  0  0  0  0  0  0  0  0  0  0
    4.3850    8.6450   21.7780   C 0  0  0  0  0  0  0  0  0  0  0  0
    3.3790    7.7400   22.1650   C 0  0  0  0  0  0  0  0  0  0  0  0
    2.0670    7.9340   21.7030   C 0  0  0  0  0  0  0  0  0  0  0  0
    1.7710    9.0280   20.8690   C 0  0  0  0  0  0  0  0  0  0  0  0
    2.7860    9.9260   20.5040   C 0  0  0  0  0  0  0  0  0  0  0  0
    4.0980    9.7330   20.9480   C 0  0  0  0  0  0  0  0  0  0  0  0
    5.1550   13.6790   17.1600   O 0  0  0  0  0  0  0  0  0  0  0  0
    4.8710   11.6780   19.7530   O 0  0  0  0  0  0  0  0  0  0  0  0
    3.1570   13.6200   18.2060   N 0  0  0  0  0  0  0  0  0  0  0  0
    2.7010   14.9680   17.8130   C 0  0  0  0  0  0  0  0  0  0  0  0
    2.0750   15.5850   19.0560   C 0  0  0  0  0  0  0  0  0  0  0  0
    0.9020   15.2910   19.3640   O 0  0  0  0  0  0  0  0  0  0  0  0
    1.6250   14.8200   16.6890   C 0  0  0  0  0  0  0  0  0  0  0  0
    2.1920   13.9710   15.5850   C 0  0  0  0  0  0  0  0  0  0  0  0
    2.3200   12.6150   15.6390   N 0  3  0  0  0  0  0  0  0  0  0  0
    2.7260   14.3230   14.3920   C 0  0  0  0  0  0  0  0  0  0  0  0
    2.9060   12.1620   14.5430   C 0  0  0  0  0  0  0  0  0  0  0  0
    3.1610   13.1940   13.7710   N 0  0  0  0  0  0  0  0  0  0  0  0
    2.8800   16.3830   19.7500   N 0  0  0  0  0  0  0  0  0  0  0  0
    2.4090   17.0220   20.9960   C 0  0  0  0  0  0  0  0  0  0  0  0
    2.9640   16.5500   22.1960   C 0  0  0  0  0  0  0  0  0  0  0  0
    3.3830   15.0800   22.2290   C 0  0  0  0  0  0  0  0  0  0  0  0
    2.7940   14.3900   23.4790   C 0  0  0  0  0  0  0  0  0  0  0  0
    4.9300   15.0460   22.2920   C 0  0  0  0  0  0  0  0  0  0  0  0
    3.2540   12.9110   23.4550   C 0  0  0  0  0  0  0  0  0  0  0  0
    5.4940   13.6560   22.5120   C 0  0  0  0  0  0  0  0  0  0  0  0
    4.7900   12.9010   23.6310   C 0  0  0  0  0  0  0  0  0  0  0  0
    2.3810   18.5440   20.8500   C 0  0  0  0  0  0  0  0  0  0  0  0
    3.3200   19.3370   20.8870   O 0  0  0  0  0  0  0  0  0  0  0  0
    1.1930   18.8910   19.9490   C 0  0  0  0  0  0  0  0  0  0  0  0
    0.4920   20.1180   20.5320   C 0  0  0  0  0  0  0  0  0  0  0  0
   -0.5930   20.4460   19.5640   C 0  0  0  0  0  0  0  0  0  0  0  0
   -1.5270   19.3100   19.0940   C 0  0  0  0  0  0  0  0  0  0  0  0
   -1.4400   21.6370   19.9860   C 0  0  0  0  0  0  0  0  0  0  0  0
    1.7200   19.1410   18.6310   O 0  0  0  0  0  0  0  0  0  0  0  0
   -0.1230   19.8000   21.9130   C 0  0  0  0  0  0  0  0  0  0  0  0
   -0.3070   18.6680   22.4010   O 0  0  0  0  0  0  0  0  0  0  0  0
   -0.4460   20.9050   22.5470   N 0  0  0  0  0  0  0  0  0  0  0  0
   -1.1000   21.1330   23.8160   C 0  0  0  0  0  0  0  0  0  0  0  0
   -1.6790   22.5550   23.7020   C 0  0  0  0  0  0  0  0  0  0  0  0
   -1.1290   23.5870   24.1010   O 0  0  0  0  0  0  0  0  0  0  0  0
   -0.4120   20.7010   25.1240   C 0  0  0  0  0  0  0  0  0  0  0  0
   -0.8880   21.6130   26.2850   C 0  0  0  0  0  0  0  0  0  0  0  0
    1.1100   20.5030   25.1220   C 0  0  0  0  0  0  0  0  0  0  0  0
   -2.4300   21.7410   26.3820   C 0  0  0  0  0  0  0  0  0  0  0  0
   -2.8430   22.5550   23.0740   N 0  0  0  0  0  0  0  0  0  0  0  0
   -3.6780   23.7070   22.7560   C 0  0  0  0  0  0  0  0  0  0  0  0
   -5.0570   23.2730   22.3810   C 0  0  0  0  0  0  0  0  0  0  0  0
   -5.4700   21.9370   22.4920   C 0  0  0  0  0  0  0  0  0  0  0  0
   -6.7840   21.5870   22.1640   C 0  0  0  0  0  0  0  0  0  0  0  0
   -7.6630   22.5850   21.7120   C 0  0  0  0  0  0  0  0  0  0  0  0
   -7.2010   23.9070   21.6250   C 0  0  0  0  0  0  0  0  0  0  0  0
   -5.9330   24.1960   21.9500   N 0  0  0  0  0  0  0  0  0  0  0  0
  1  2  1  0  0  0  0
  1 13  2  0  0  0  0
  2 14  1  0  0  0  0
  3  4  2  0  0  0  0
  3 12  1  0  0  0  0
  3 14  1  0  0  0  0
  4  5  1  0  0  0  0
  5  6  2  0  0  0  0
  6  7  1  0  0  0  0
  7  8  2  0  0  0  0
  7 12  1  0  0  0  0
  8  9  1  0  0  0  0
  9 10  2  0  0  0  0
 10 11  1  0  0  0  0
 11 12  2  0  0  0  0
 15 16  1  0  0  0  0
 16 17  1  0  0  0  0
 16 19  1  0  0  0  0
 17 18  2  0  0  0  0
 19 20  1  0  0  0  0
 20 21  1  0  0  0  0
 20 22  2  0  0  0  0
 21 23  2  0  0  0  0
 22 24  1  0  0  0  0
 23 24  1  0  0  0  0
 25 26  1  0  0  0  0
 26 27  1  0  0  0  0
 26 34  1  0  0  0  0
 27 28  1  0  0  0  0
 28 29  1  0  0  0  0
 28 30  1  0  0  0  0
 29 31  1  0  0  0  0
 30 32  1  0  0  0  0
 31 33  1  0  0  0  0
 32 33  1  0  0  0  0
 34 35  1  0  0  0  0
 34 36  1  0  0  0  0
 36 37  1  0  0  0  0
 36 41  1  0  0  0  0
 37 38  1  0  0  0  0
 37 42  1  0  0  0  0
 38 39  1  0  0  0  0
 38 40  1  0  0  0  0
 42 43  2  0  0  0  0
 44 45  1  0  0  0  0
 45 46  1  0  0  0  0
 45 48  1  0  0  0  0
 46 47  2  0  0  0  0
 48 49  1  0  0  0  0
 48 50  1  0  0  0  0
 49 51  1  0  0  0  0
 52 53  1  0  0  0  0
 53 54  1  0  0  0  0
 54 55  1  0  0  0  0
 54 59  2  0  0  0  0
 55 56  2  0  0  0  0
 56 57  1  0  0  0  0
 57 58  2  0  0  0  0
 58 59  1  0  0  0  0
  1 15  1  0  0  0  0
 17 25  1  0  0  0  0
 42 44  1  0  0  0  0
 46 52  1  0  0  0  0
M  CHG  1  21   1
A    1
C
A    2
CA
A    3
C1
A    4
C2
A    5
C3
A    6
C4
A    7
C4A
A    8
C5
A    9
C6
A   10
C7
A   11
C8
A   12
C1A
A   13
O
A   14
O1
A   15
N
A   16
CA1
A   17
C9
A   18
O2
A   19
CB
A   20
CG
A   21
ND1
A   22
CD2
A   23
CE1
A   24
NE2
A   25
N1
A   26
CA2
A   27
CB1
A   28
CG1
A   29
CD1
A   30
CD21
A   31
CE11
A   32
CE2
A   33
CZ
A   34
CH
A   35
OH
A   36
CB11
A   37
CA'
A   38
CB'
A   39
CG11
A   40
CG2
A   41
OB1
A   42
CC
A   43
O3
A   44
N2
A   45
CA3
A   46
CD
A   47
O4
A   48
CB2
A   49
CG12
A   50
CG21
A   51
CD11
A   52
N3
A   53
CM
A   54
C21
A   55
C31
A   56
C41
A   57
C51
A   58
C61
A   59
N11
M  END
>  <InstanceId>
1IVP_1ZK_B_100

>  <ChemCompId>
1ZK

>  <PdbId>
1IVP

>  <ChainId>
B

>  <ResidueNumber>
100

>  <InsertionCode>


>  <Model>
1

>  <AltIds>


>  <MissingHeavyAtoms>
0

>  <ObservedFormula>
C45 N7 O7

>  <Name>
4-[(2R)-3-{[(1S,2S,3R,4S)-1-(cyclohexylmethyl)-2,3-dihydroxy-5-methyl-4-({(1S,2R)-2-methyl-1-[(pyridin-2-ylmethyl)carbamoyl]butyl}carbamoyl)hexyl]amino}-2-{[(naphthalen-1-yloxy)acetyl]amino}-3-oxopropyl]-1H-imidazol-3-ium

>  <SystematicName>
(2R,3R,4R,5S)-6-cyclohexyl-3,4-dihydroxy-5-[[(2S)-3-(1H-imidazol-3-ium-4-yl)-2-(2-naphthalen-1-yloxyethanoylamino)propanoyl]amino]-N-[(2S,3S)-3-methyl-1-oxo-1-(pyridin-2-ylmethylamino)pentan-2-yl]-2-propan-2-yl-hexanamide

>  <Synonyms>
U75875

>  <Type>
peptide-like

>  <Formula>
C45 H62 N7 O7

>  <MolecularWeight>
813.016

>  <ModifiedDate>
2011-07-13

>  <Parent>


>  <OneLetterCode>


>  <SubcomponentList>
NOA HIS CAV ILE APY

>  <AmbiguousFlag>
N

>  <InChI>
InChI=1S/C45H61N7O7/c1-5-29(4)40(45(58)48-25-32-18-11-12-21-47-32)52-44(57)39(28(2)3)42(55)41(54)35(22-30-14-7-6-8-15-30)51-43(56)36(23-33-24-46-27-49-33)50-38(53)26-59-37-20-13-17-31-16-9-10-19-34(31)37/h9-13,16-21,24,27-30,35-36,39-42,54-55H,5-8,14-15,22-23,25-26H2,1-4H3,(H,46,49)(H,48,58)(H,50,53)(H,51,56)(H,52,57)/p+1/t29-,35-,36-,39+,40-,41+,42+/m0/s1

>  <InChIKey>
ZTKCGLWIXHAITR-JIFWBGJESA-O

>  <SMILES>
CC[C@H](C)[C@@H](C(=O)NCc1ccccn1)NC(=O)[C@H](C(C)C)[C@H]([C@@H]([C@H](CC2CCCCC2)NC(=O)[C@H](Cc3c[nH]c[nH+]3)NC(=O)COc4cccc5c4cccc5)O)O

$$$$
