4UYF_73B_A_1191
  RCSB PDB12061715203D
Coordinates from PDB:4UYF:A:1191 Model:1 without hydrogens
 31 34  0  0  0  0            999 V2000
   22.0920    7.8530  -10.7900   C 0  0  0  0  0  0  0  0  0  0  0  0
   21.9220    9.2770  -10.2520   C 0  0  0  0  0  0  0  0  0  0  0  0
   21.8220   10.2850  -11.4160   C 0  0  0  0  0  0  0  0  0  0  0  0
   20.8850   11.4330  -11.0920   C 0  0  0  0  0  0  0  0  0  0  0  0
   20.7390   12.3300  -12.2230   N 0  0  0  0  0  0  0  0  0  0  0  0
   20.3240   13.6540  -12.1240   C 0  0  0  0  0  0  0  0  0  0  0  0
   19.9680   14.2530  -10.9130   C 0  0  0  0  0  0  0  0  0  0  0  0
   19.5480   15.5820  -10.8930   C 0  0  0  0  0  0  0  0  0  0  0  0
   19.4850   16.2920  -12.0850   C 0  0  0  0  0  0  0  0  0  0  0  0
   18.9620   17.9510  -12.0980  Cl 0  0  0  0  0  0  0  0  0  0  0  0
   19.8360   15.7010  -13.2870   C 0  0  0  0  0  0  0  0  0  0  0  0
   20.2560   14.3790  -13.3090   C 0  0  0  0  0  0  0  0  0  0  0  0
   19.5650   10.8170  -10.6990   C 0  0  0  0  0  0  0  0  0  0  0  0
   18.3530   11.2650  -11.2540   C 0  0  0  0  0  0  0  0  0  0  0  0
   17.1210   10.6760  -10.9250   C 0  0  0  0  0  0  0  0  0  0  0  0
   17.1140    9.6170  -10.0160   C 0  0  0  0  0  0  0  0  0  0  0  0
   18.3040    9.1420   -9.4700   C 0  0  0  0  0  0  0  0  0  0  0  0
   19.5150    9.7450   -9.8120   C 0  0  0  0  0  0  0  0  0  0  0  0
   20.7710    9.3140   -9.3110   N 0  0  0  0  0  0  0  0  0  0  0  0
   21.0370    8.9500   -8.0440   C 0  0  0  0  0  0  0  0  0  0  0  0
   20.0050    9.1380   -6.9680   C 0  0  0  0  0  0  0  0  0  0  0  0
   22.1400    8.4860   -7.7650   O 0  0  0  0  0  0  0  0  0  0  0  0
   15.8180   11.1500  -11.5220   C 0  0  0  0  0  0  0  0  0  0  0  0
   15.8070   11.9420  -12.6810   C 0  0  0  0  0  0  0  0  0  0  0  0
   14.6090   12.4340  -13.2020   C 0  0  0  0  0  0  0  0  0  0  0  0
   13.3960   12.1340  -12.5860   C 0  0  0  0  0  0  0  0  0  0  0  0
   13.3920   11.3320  -11.4500   C 0  0  0  0  0  0  0  0  0  0  0  0
   14.5880   10.8370  -10.9280   C 0  0  0  0  0  0  0  0  0  0  0  0
   12.0910   12.6510  -13.1340   C 0  0  0  0  0  0  0  0  0  0  0  0
   11.0240   12.3330  -12.6330   O 0  0  0  0  0  0  0  0  0  0  0  0
   12.1850   13.4510  -14.1860   O 0  0  0  0  0  0  0  0  0  0  0  0
 10  9  1  0  0  0  0
  8  9  2  0  0  0  0
  8  7  1  0  0  0  0
  9 11  1  0  0  0  0
  7  6  2  0  0  0  0
 11 12  2  0  0  0  0
  6 12  1  0  0  0  0
  6  5  1  0  0  0  0
  5  4  1  0  0  0  0
  4  3  1  0  0  0  0
  4 13  1  0  0  0  0
  3  2  1  0  0  0  0
  2  1  1  0  0  0  0
  2 19  1  0  0  0  0
 13 14  2  0  0  0  0
 13 18  1  0  0  0  0
 14 15  1  0  0  0  0
 19 18  1  0  0  0  0
 19 20  1  0  0  0  0
 22 20  2  0  0  0  0
 18 17  2  0  0  0  0
 20 21  1  0  0  0  0
 28 27  2  0  0  0  0
 28 23  1  0  0  0  0
 15 23  1  0  0  0  0
 15 16  2  0  0  0  0
 27 26  1  0  0  0  0
 23 24  2  0  0  0  0
 17 16  1  0  0  0  0
 30 29  2  0  0  0  0
 26 29  1  0  0  0  0
 26 25  2  0  0  0  0
 24 25  1  0  0  0  0
 29 31  1  0  0  0  0
A    1
C1
A    2
C2
A    3
C3
A    4
C4
A    5
N1
A    6
C5
A    7
C6
A    8
C7
A    9
C8
A   10
CL1
A   11
C9
A   12
C10
A   13
C11
A   14
C12
A   15
C13
A   16
C14
A   17
C15
A   18
C16
A   19
N2
A   20
C17
A   21
C18
A   22
O1
A   23
C19
A   24
C20
A   25
C21
A   26
C22
A   27
C23
A   28
C24
A   29
C25
A   30
O2
A   31
O3
M  END
>  <InstanceId>
4UYF_73B_A_1191

>  <ChemCompId>
73B

>  <PdbId>
4UYF

>  <ChainId>
A

>  <ResidueNumber>
1191

>  <InsertionCode>


>  <Model>
1

>  <AltIds>


>  <MissingHeavyAtoms>
0

>  <ObservedFormula>
C25 N2 O3 Cl

>  <Name>
4-[(2S,4R)-1-acetyl-4-[(4-chlorophenyl)amino]-2-methyl-1,2,3,4-tetrahydroquinolin-6-yl]benzoic acid

>  <SystematicName>
4-[(2S,4R)-4-[(4-chlorophenyl)amino]-1-ethanoyl-2-methyl-3,4-dihydro-2H-quinolin-6-yl]benzoic acid

>  <Synonyms>


>  <Type>
non-polymer

>  <Formula>
C25 H23 Cl N2 O3

>  <MolecularWeight>
434.915

>  <ModifiedDate>
2014-09-05

>  <Parent>


>  <OneLetterCode>


>  <SubcomponentList>


>  <AmbiguousFlag>
N

>  <InChI>
InChI=1S/C25H23ClN2O3/c1-15-13-23(27-21-10-8-20(26)9-11-21)22-14-19(7-12-24(22)28(15)16(2)29)17-3-5-18(6-4-17)25(30)31/h3-12,14-15,23,27H,13H2,1-2H3,(H,30,31)/t15-,23+/m0/s1

>  <InChIKey>
FAWSUKOIROHXAP-NPMXOYFQSA-N

>  <SMILES>
C[C@H]1C[C@H](c2cc(ccc2N1C(=O)C)c3ccc(cc3)C(=O)O)Nc4ccc(cc4)Cl

$$$$
