4O97_NTX_A_900


 47 50  0  0  0  0  0  0  0  0999 V2000
   19.0425    7.1657   26.8664 C   0  0  0  0  0  0  0  0  0  0  0  0
   19.4418    6.5228   25.6826 C   0  0  0  0  0  0  0  0  0  0  0  0
   18.4545    6.0074   24.8333 C   0  0  0  0  0  0  0  0  0  0  0  0
   17.6655    7.2935   27.1703 C   0  0  0  0  0  0  0  0  0  0  0  0
   16.6467    6.7730   26.3302 C   0  0  0  0  0  0  0  0  0  0  0  0
   17.0782    6.1288   25.1572 C   0  0  0  0  0  0  0  0  0  0  0  0
   17.9638    4.8991   22.6236 N   0  0  0  0  0  0  0  0  0  0  0  0
   18.8387    5.3402   23.5422 C   0  0  0  0  0  0  0  0  0  0  0  0
   20.0314    5.1705   23.3854 O   0  0  0  0  0  0  0  0  0  0  0  0
   16.9950    5.0155   22.7541 H   0  0  0  0  0  0  0  0  0  0  0  0
   18.4926    4.2304   21.4041 C   0  0  0  0  0  0  0  0  0  0  0  0
   18.4896    1.9092   20.3186 C   0  0  0  0  0  0  0  0  0  0  0  0
   17.9113    3.8390   18.9241 C   0  0  0  0  0  0  0  0  0  0  0  0
   18.3575    2.7058   21.6150 C   0  0  0  0  0  0  0  0  0  0  0  0
   17.4548    2.4412   19.3348 C   0  0  0  0  0  0  0  0  0  0  0  0
   17.2669    1.5465   18.2111 N   0  0  0  0  0  0  0  0  0  0  0  0
   17.7291    4.7371   20.1576 C   0  0  0  0  0  0  0  0  0  0  0  0
   18.1509    1.4331   17.7152 H   0  0  0  0  0  0  0  0  0  0  0  0
   16.5695    1.9377   17.5778 H   0  0  0  0  0  0  0  0  0  0  0  0
   19.9548    7.6946   27.7544 O   0  0  0  0  0  0  0  0  0  0  0  0
   21.3601    7.9885   27.5589 C   0  0  0  0  0  0  0  0  0  0  0  0
   20.8496    8.3351   29.9808 C   0  0  0  0  0  0  0  0  0  0  0  0
   23.1403    9.9214   30.3372 C   0  0  0  0  0  0  0  0  0  0  0  0
   22.2806    9.6605   31.4082 C   0  0  0  0  0  0  0  0  0  0  0  0
   21.1497    8.8676   31.2359 C   0  0  0  0  0  0  0  0  0  0  0  0
   21.6852    8.6114   28.9000 C   0  0  0  0  0  0  0  0  0  0  0  0
   22.8552    9.4009   29.0740 C   0  0  0  0  0  0  0  0  0  0  0  0
   24.5820   12.0016   30.2630 N   0  0  0  0  0  0  0  0  0  0  0  0
   24.3462   10.7490   30.6701 C   0  0  0  0  0  0  0  0  0  0  0  0
   25.2660   10.1363   31.3993 N   0  0  0  0  0  0  0  0  0  0  0  0
   23.9125   12.4770   29.7198 H   0  0  0  0  0  0  0  0  0  0  0  0
   25.4251   12.4479   30.5067 H   0  0  0  0  0  0  0  0  0  0  0  0
   25.1143    9.2146   31.7100 H   0  0  0  0  0  0  0  0  0  0  0  0
   15.2676    6.8792   26.6261 O   0  0  0  0  0  0  0  0  0  0  0  0
   14.2538    7.2863   25.6664 C   0  0  0  0  0  0  0  0  0  0  0  0
   15.0508   10.2440   23.3020 C   0  0  0  0  0  0  0  0  0  0  0  0
   13.9413   11.1123   25.2994 C   0  0  0  0  0  0  0  0  0  0  0  0
   14.3616    8.7094   25.0931 C   0  0  0  0  0  0  0  0  0  0  0  0
   13.8526    9.8039   25.8245 C   0  0  0  0  0  0  0  0  0  0  0  0
   14.5518   11.3247   24.0407 C   0  0  0  0  0  0  0  0  0  0  0  0
   14.9574    8.9450   23.8385 C   0  0  0  0  0  0  0  0  0  0  0  0
   13.4244   12.3186   26.0678 C   0  0  0  0  0  0  0  0  0  0  0  0
   12.5070   12.2498   27.0435 N   0  0  0  0  0  0  0  0  0  0  0  0
   13.9052   13.5325   25.7732 N   0  0  0  0  0  0  0  0  0  0  0  0
   12.1226   11.3797   27.2974 H   0  0  0  0  0  0  0  0  0  0  0  0
   12.2178   13.0695   27.5059 H   0  0  0  0  0  0  0  0  0  0  0  0
   14.5807   13.6357   25.0645 H   0  0  0  0  0  0  0  0  0  0  0  0
 12 15  1  0  0  0
 12 14  1  0  0  0
 16 15  1  0  0  0
 13 15  1  0  0  0
 13 17  1  0  0  0
  9  8  2  0  0  0
 14 11  1  0  0  0
 11 17  1  0  0  0
 11  7  1  0  0  0
 36 41  2  0  0  0
 36 40  1  0  0  0
  8  7  1  0  0  0
  8  3  1  0  0  0
 41 38  1  0  0  0
 40 37  2  0  0  0
  6  3  2  0  0  0
  6  5  1  0  0  0
  3  2  1  0  0  0
 34  5  1  0  0  0
 34 35  1  0  0  0
  5  4  2  0  0  0
 38 35  1  0  0  0
 38 39  2  0  0  0
  2  1  2  0  0  0
 37 39  1  0  0  0
 37 42  1  0  0  0
 44 42  2  0  0  0
  4  1  1  0  0  0
  1 20  1  0  0  0
 42 43  1  0  0  0
 20 21  1  0  0  0
 21 26  1  0  0  0
 22 26  2  0  0  0
 22 25  1  0  0  0
 26 27  1  0  0  0
 25 24  2  0  0  0
 27 23  2  0  0  0
 24 23  1  0  0  0
 23 29  1  0  0  0
 29 30  2  0  0  0
 29 28  1  0  0  0
  7 10  1  0  0  0
 28 31  1  0  0  0
 28 32  1  0  0  0
 16 18  1  0  0  0
 16 19  1  0  0  0
 30 33  1  0  0  0
 43 45  1  0  0  0
 43 46  1  0  0  0
 44 47  1  0  0  0
M  END
> <minimizedAffinity>
-10.37694

$$$$
4O97_NTX_A_900


 47 50  0  0  0  0  0  0  0  0999 V2000
   16.7597    6.5935   25.4706 C   0  0  0  0  0  0  0  0  0  0  0  0
   16.7214    5.8081   24.3062 C   0  0  0  0  0  0  0  0  0  0  0  0
   17.9147    5.2434   23.8383 C   0  0  0  0  0  0  0  0  0  0  0  0
   17.9859    6.7866   26.1517 C   0  0  0  0  0  0  0  0  0  0  0  0
   19.2094    6.2317   25.6936 C   0  0  0  0  0  0  0  0  0  0  0  0
   19.1397    5.4573   24.5220 C   0  0  0  0  0  0  0  0  0  0  0  0
   18.9620    4.2065   21.7938 N   0  0  0  0  0  0  0  0  0  0  0  0
   17.9112    4.3714   22.6140 C   0  0  0  0  0  0  0  0  0  0  0  0
   16.8492    3.8358   22.3663 O   0  0  0  0  0  0  0  0  0  0  0  0
   19.8195    4.6538   21.9779 H   0  0  0  0  0  0  0  0  0  0  0  0
   18.8002    3.3323   20.6007 C   0  0  0  0  0  0  0  0  0  0  0  0
   19.1919    3.4259   18.0700 C   0  0  0  0  0  0  0  0  0  0  0  0
   20.0247    1.4761   19.2982 C   0  0  0  0  0  0  0  0  0  0  0  0
   18.9451    4.2251   19.3480 C   0  0  0  0  0  0  0  0  0  0  0  0
   20.4218    2.5545   18.2930 C   0  0  0  0  0  0  0  0  0  0  0  0
   20.9366    2.0176   17.0498 N   0  0  0  0  0  0  0  0  0  0  0  0
   19.8381    2.1861   20.6481 C   0  0  0  0  0  0  0  0  0  0  0  0
   20.2183    1.4484   16.6020 H   0  0  0  0  0  0  0  0  0  0  0  0
   21.7562    1.4416   17.2418 H   0  0  0  0  0  0  0  0  0  0  0  0
   15.6284    7.1858   25.9902 O   0  0  0  0  0  0  0  0  0  0  0  0
   14.3173    7.3393   25.3930 C   0  0  0  0  0  0  0  0  0  0  0  0
   14.9064    9.0858   23.7051 C   0  0  0  0  0  0  0  0  0  0  0  0
   13.9368   11.1442   25.3523 C   0  0  0  0  0  0  0  0  0  0  0  0
   14.4789   11.4323   24.0963 C   0  0  0  0  0  0  0  0  0  0  0  0
   14.9519   10.4131   23.2748 C   0  0  0  0  0  0  0  0  0  0  0  0
   14.3931    8.7901   24.9668 C   0  0  0  0  0  0  0  0  0  0  0  0
   13.8861    9.8239   25.8015 C   0  0  0  0  0  0  0  0  0  0  0  0
   12.4922   12.3047   27.0780 N   0  0  0  0  0  0  0  0  0  0  0  0
   13.4204   12.3285   26.1144 C   0  0  0  0  0  0  0  0  0  0  0  0
   13.9172   13.4981   25.7425 N   0  0  0  0  0  0  0  0  0  0  0  0
   12.1086   11.4466   27.3708 H   0  0  0  0  0  0  0  0  0  0  0  0
   12.1930   13.1453   27.4940 H   0  0  0  0  0  0  0  0  0  0  0  0
   14.6011   13.5400   25.0355 H   0  0  0  0  0  0  0  0  0  0  0  0
   20.4451    6.4268   26.3537 O   0  0  0  0  0  0  0  0  0  0  0  0
   20.6083    6.4363   27.7986 C   0  0  0  0  0  0  0  0  0  0  0  0
   22.8679    9.5579   28.1497 C   0  0  0  0  0  0  0  0  0  0  0  0
   22.0466    8.9299   30.3645 C   0  0  0  0  0  0  0  0  0  0  0  0
   21.3896    7.6123   28.4087 C   0  0  0  0  0  0  0  0  0  0  0  0
   21.3378    7.8464   29.7995 C   0  0  0  0  0  0  0  0  0  0  0  0
   22.8182    9.7755   29.5327 C   0  0  0  0  0  0  0  0  0  0  0  0
   22.1578    8.4727   27.6001 C   0  0  0  0  0  0  0  0  0  0  0  0
   22.0328    9.2006   31.8610 C   0  0  0  0  0  0  0  0  0  0  0  0
   23.1151    9.1172   32.6485 N   0  0  0  0  0  0  0  0  0  0  0  0
   20.8823    9.5513   32.4482 N   0  0  0  0  0  0  0  0  0  0  0  0
   23.9851    8.8630   32.2642 H   0  0  0  0  0  0  0  0  0  0  0  0
   23.0396    9.3102   33.6109 H   0  0  0  0  0  0  0  0  0  0  0  0
   20.0594    9.6264   31.9130 H   0  0  0  0  0  0  0  0  0  0  0  0
 12 15  1  0  0  0
 12 14  1  0  0  0
 16 15  1  0  0  0
 13 15  1  0  0  0
 13 17  1  0  0  0
  9  8  2  0  0  0
 14 11  1  0  0  0
 11 17  1  0  0  0
 11  7  1  0  0  0
 36 41  2  0  0  0
 36 40  1  0  0  0
  8  7  1  0  0  0
  8  3  1  0  0  0
 41 38  1  0  0  0
 40 37  2  0  0  0
  6  3  2  0  0  0
  6  5  1  0  0  0
  3  2  1  0  0  0
 34  5  1  0  0  0
 34 35  1  0  0  0
  5  4  2  0  0  0
 38 35  1  0  0  0
 38 39  2  0  0  0
  2  1  2  0  0  0
 37 39  1  0  0  0
 37 42  1  0  0  0
 44 42  2  0  0  0
  4  1  1  0  0  0
  1 20  1  0  0  0
 42 43  1  0  0  0
 20 21  1  0  0  0
 21 26  1  0  0  0
 22 26  2  0  0  0
 22 25  1  0  0  0
 26 27  1  0  0  0
 25 24  2  0  0  0
 27 23  2  0  0  0
 24 23  1  0  0  0
 23 29  1  0  0  0
 29 30  2  0  0  0
 29 28  1  0  0  0
  7 10  1  0  0  0
 28 31  1  0  0  0
 28 32  1  0  0  0
 16 18  1  0  0  0
 16 19  1  0  0  0
 30 33  1  0  0  0
 43 45  1  0  0  0
 43 46  1  0  0  0
 44 47  1  0  0  0
M  END
> <minimizedAffinity>
-10.32054

$$$$
4O97_NTX_A_900


 47 50  0  0  0  0  0  0  0  0999 V2000
   19.1113    7.2429   26.8300 C   0  0  0  0  0  0  0  0  0  0  0  0
   19.5433    6.5379   25.6939 C   0  0  0  0  0  0  0  0  0  0  0  0
   18.5814    5.9444   24.8668 C   0  0  0  0  0  0  0  0  0  0  0  0
   17.7273    7.3528   27.1084 C   0  0  0  0  0  0  0  0  0  0  0  0
   16.7340    6.7541   26.2903 C   0  0  0  0  0  0  0  0  0  0  0  0
   17.1981    6.0493   25.1655 C   0  0  0  0  0  0  0  0  0  0  0  0
   19.9748    4.2848   23.5799 N   0  0  0  0  0  0  0  0  0  0  0  0
   19.0004    5.2081   23.6250 C   0  0  0  0  0  0  0  0  0  0  0  0
   18.4197    5.5379   22.6102 O   0  0  0  0  0  0  0  0  0  0  0  0
   20.4631    4.0277   24.3952 H   0  0  0  0  0  0  0  0  0  0  0  0
   20.2993    3.6596   22.2693 C   0  0  0  0  0  0  0  0  0  0  0  0
   22.3631    2.9583   20.9218 C   0  0  0  0  0  0  0  0  0  0  0  0
   20.5331    1.3462   21.1580 C   0  0  0  0  0  0  0  0  0  0  0  0
   21.8094    3.8677   22.0169 C   0  0  0  0  0  0  0  0  0  0  0  0
   22.0432    1.5182   21.3031 C   0  0  0  0  0  0  0  0  0  0  0  0
   22.8061    0.5689   20.5186 N   0  0  0  0  0  0  0  0  0  0  0  0
   19.8905    2.1677   22.2865 C   0  0  0  0  0  0  0  0  0  0  0  0
   22.5898    0.6934   19.5297 H   0  0  0  0  0  0  0  0  0  0  0  0
   22.5633   -0.3801   20.8029 H   0  0  0  0  0  0  0  0  0  0  0  0
   19.9974    7.8502   27.6940 O   0  0  0  0  0  0  0  0  0  0  0  0
   21.4274    8.0390   27.5576 C   0  0  0  0  0  0  0  0  0  0  0  0
   20.8858    8.3736   29.9744 C   0  0  0  0  0  0  0  0  0  0  0  0
   23.1885    9.9316   30.3755 C   0  0  0  0  0  0  0  0  0  0  0  0
   22.3106    9.6726   31.4320 C   0  0  0  0  0  0  0  0  0  0  0  0
   21.1736    8.8936   31.2376 C   0  0  0  0  0  0  0  0  0  0  0  0
   21.7400    8.6484   28.9078 C   0  0  0  0  0  0  0  0  0  0  0  0
   22.9160    9.4235   29.1045 C   0  0  0  0  0  0  0  0  0  0  0  0
   25.3949   10.3634   31.5403 N   0  0  0  0  0  0  0  0  0  0  0  0
   24.3986   10.7432   30.7318 C   0  0  0  0  0  0  0  0  0  0  0  0
   24.4303   11.9628   30.2176 N   0  0  0  0  0  0  0  0  0  0  0  0
   25.3924    9.4612   31.9343 H   0  0  0  0  0  0  0  0  0  0  0  0
   26.1304   10.9863   31.7412 H   0  0  0  0  0  0  0  0  0  0  0  0
   23.7081   12.2641   29.6201 H   0  0  0  0  0  0  0  0  0  0  0  0
   15.3487    6.8420   26.5621 O   0  0  0  0  0  0  0  0  0  0  0  0
   14.3490    7.2561   25.5907 C   0  0  0  0  0  0  0  0  0  0  0  0
   15.1289   10.2938   23.3242 C   0  0  0  0  0  0  0  0  0  0  0  0
   13.9768   11.0854   25.3293 C   0  0  0  0  0  0  0  0  0  0  0  0
   14.4407    8.6967   25.0602 C   0  0  0  0  0  0  0  0  0  0  0  0
   13.9029    9.7610   25.8152 C   0  0  0  0  0  0  0  0  0  0  0  0
   14.6013   11.3443   24.0862 C   0  0  0  0  0  0  0  0  0  0  0  0
   15.0501    8.9785   23.8217 C   0  0  0  0  0  0  0  0  0  0  0  0
   13.4286   12.2602   26.1243 C   0  0  0  0  0  0  0  0  0  0  0  0
   12.5866   12.1371   27.1608 N   0  0  0  0  0  0  0  0  0  0  0  0
   13.8009   13.5019   25.7907 N   0  0  0  0  0  0  0  0  0  0  0  0
   12.2832   11.2448   27.4452 H   0  0  0  0  0  0  0  0  0  0  0  0
   12.2719   12.9391   27.6372 H   0  0  0  0  0  0  0  0  0  0  0  0
   14.4178   13.6451   25.0369 H   0  0  0  0  0  0  0  0  0  0  0  0
 12 15  1  0  0  0
 12 14  1  0  0  0
 16 15  1  0  0  0
 13 15  1  0  0  0
 13 17  1  0  0  0
  9  8  2  0  0  0
 14 11  1  0  0  0
 11 17  1  0  0  0
 11  7  1  0  0  0
 36 41  2  0  0  0
 36 40  1  0  0  0
  8  7  1  0  0  0
  8  3  1  0  0  0
 41 38  1  0  0  0
 40 37  2  0  0  0
  6  3  2  0  0  0
  6  5  1  0  0  0
  3  2  1  0  0  0
 34  5  1  0  0  0
 34 35  1  0  0  0
  5  4  2  0  0  0
 38 35  1  0  0  0
 38 39  2  0  0  0
  2  1  2  0  0  0
 37 39  1  0  0  0
 37 42  1  0  0  0
 44 42  2  0  0  0
  4  1  1  0  0  0
  1 20  1  0  0  0
 42 43  1  0  0  0
 20 21  1  0  0  0
 21 26  1  0  0  0
 22 26  2  0  0  0
 22 25  1  0  0  0
 26 27  1  0  0  0
 25 24  2  0  0  0
 27 23  2  0  0  0
 24 23  1  0  0  0
 23 29  1  0  0  0
 29 30  2  0  0  0
 29 28  1  0  0  0
  7 10  1  0  0  0
 28 31  1  0  0  0
 28 32  1  0  0  0
 16 18  1  0  0  0
 16 19  1  0  0  0
 30 33  1  0  0  0
 43 45  1  0  0  0
 43 46  1  0  0  0
 44 47  1  0  0  0
M  END
> <minimizedAffinity>
-10.28005

$$$$
4O97_NTX_A_900


 47 50  0  0  0  0  0  0  0  0999 V2000
   17.1037    6.9765   26.0123 C   0  0  0  0  0  0  0  0  0  0  0  0
   17.3504    6.3740   24.7671 C   0  0  0  0  0  0  0  0  0  0  0  0
   18.6564    5.9677   24.4655 C   0  0  0  0  0  0  0  0  0  0  0  0
   18.1631    7.1474   26.9360 C   0  0  0  0  0  0  0  0  0  0  0  0
   19.4959    6.7513   26.6509 C   0  0  0  0  0  0  0  0  0  0  0  0
   19.7122    6.1586   25.3943 C   0  0  0  0  0  0  0  0  0  0  0  0
   18.0308    4.9617   22.2410 N   0  0  0  0  0  0  0  0  0  0  0  0
   18.9561    5.2910   23.1571 C   0  0  0  0  0  0  0  0  0  0  0  0
   20.1232    5.0023   22.9822 O   0  0  0  0  0  0  0  0  0  0  0  0
   17.0806    5.1748   22.3858 H   0  0  0  0  0  0  0  0  0  0  0  0
   18.4749    4.2672   21.0023 C   0  0  0  0  0  0  0  0  0  0  0  0
   18.5087    1.9002   20.0212 C   0  0  0  0  0  0  0  0  0  0  0  0
   17.6720    3.7236   18.6146 C   0  0  0  0  0  0  0  0  0  0  0  0
   18.4583    2.7491   21.2898 C   0  0  0  0  0  0  0  0  0  0  0  0
   17.3484    2.3228   19.1286 C   0  0  0  0  0  0  0  0  0  0  0  0
   17.1048    1.3656   18.0689 N   0  0  0  0  0  0  0  0  0  0  0  0
   17.5590    4.6677   19.8217 C   0  0  0  0  0  0  0  0  0  0  0  0
   17.9397    1.2803   17.4891 H   0  0  0  0  0  0  0  0  0  0  0  0
   16.3238    1.6845   17.4955 H   0  0  0  0  0  0  0  0  0  0  0  0
   15.8465    7.4065   26.3798 O   0  0  0  0  0  0  0  0  0  0  0  0
   14.6040    7.3485   25.6367 C   0  0  0  0  0  0  0  0  0  0  0  0
   14.9288    9.0188   23.8061 C   0  0  0  0  0  0  0  0  0  0  0  0
   13.9509   11.1094   25.4071 C   0  0  0  0  0  0  0  0  0  0  0  0
   14.3678   11.3519   24.0951 C   0  0  0  0  0  0  0  0  0  0  0  0
   14.8445   10.3160   23.2970 C   0  0  0  0  0  0  0  0  0  0  0  0
   14.5415    8.7709   25.1218 C   0  0  0  0  0  0  0  0  0  0  0  0
   14.0310    9.8201   25.9351 C   0  0  0  0  0  0  0  0  0  0  0  0
   12.4864   12.2873   27.1039 N   0  0  0  0  0  0  0  0  0  0  0  0
   13.4145   12.3031   26.1402 C   0  0  0  0  0  0  0  0  0  0  0  0
   13.8920   13.4714   25.7400 N   0  0  0  0  0  0  0  0  0  0  0  0
   12.1169   11.4304   27.4175 H   0  0  0  0  0  0  0  0  0  0  0  0
   12.1730   13.1327   27.4994 H   0  0  0  0  0  0  0  0  0  0  0  0
   14.5756   13.5075   25.0324 H   0  0  0  0  0  0  0  0  0  0  0  0
   20.5682    6.9280   27.5563 O   0  0  0  0  0  0  0  0  0  0  0  0
   21.4062    8.1151   27.6105 C   0  0  0  0  0  0  0  0  0  0  0  0
   21.1536    8.9824   31.3731 C   0  0  0  0  0  0  0  0  0  0  0  0
   23.2185    9.9409   30.4832 C   0  0  0  0  0  0  0  0  0  0  0  0
   21.7283    8.6836   29.0028 C   0  0  0  0  0  0  0  0  0  0  0  0
   22.9132    9.4233   29.2047 C   0  0  0  0  0  0  0  0  0  0  0  0
   22.3271    9.7242   31.5606 C   0  0  0  0  0  0  0  0  0  0  0  0
   20.8608    8.4739   30.0927 C   0  0  0  0  0  0  0  0  0  0  0  0
   24.4741   10.7614   30.7343 C   0  0  0  0  0  0  0  0  0  0  0  0
   25.5411   10.3121   31.4111 N   0  0  0  0  0  0  0  0  0  0  0  0
   24.5431   12.0088   30.2540 N   0  0  0  0  0  0  0  0  0  0  0  0
   25.5394    9.4011   31.7844 H   0  0  0  0  0  0  0  0  0  0  0  0
   26.3260   10.8932   31.5348 H   0  0  0  0  0  0  0  0  0  0  0  0
   23.7856   12.3849   29.7500 H   0  0  0  0  0  0  0  0  0  0  0  0
 12 15  1  0  0  0
 12 14  1  0  0  0
 16 15  1  0  0  0
 13 15  1  0  0  0
 13 17  1  0  0  0
  9  8  2  0  0  0
 14 11  1  0  0  0
 11 17  1  0  0  0
 11  7  1  0  0  0
 36 41  2  0  0  0
 36 40  1  0  0  0
  8  7  1  0  0  0
  8  3  1  0  0  0
 41 38  1  0  0  0
 40 37  2  0  0  0
  6  3  2  0  0  0
  6  5  1  0  0  0
  3  2  1  0  0  0
 34  5  1  0  0  0
 34 35  1  0  0  0
  5  4  2  0  0  0
 38 35  1  0  0  0
 38 39  2  0  0  0
  2  1  2  0  0  0
 37 39  1  0  0  0
 37 42  1  0  0  0
 44 42  2  0  0  0
  4  1  1  0  0  0
  1 20  1  0  0  0
 42 43  1  0  0  0
 20 21  1  0  0  0
 21 26  1  0  0  0
 22 26  2  0  0  0
 22 25  1  0  0  0
 26 27  1  0  0  0
 25 24  2  0  0  0
 27 23  2  0  0  0
 24 23  1  0  0  0
 23 29  1  0  0  0
 29 30  2  0  0  0
 29 28  1  0  0  0
  7 10  1  0  0  0
 28 31  1  0  0  0
 28 32  1  0  0  0
 16 18  1  0  0  0
 16 19  1  0  0  0
 30 33  1  0  0  0
 43 45  1  0  0  0
 43 46  1  0  0  0
 44 47  1  0  0  0
M  END
> <minimizedAffinity>
-10.26801

$$$$
4O97_NTX_A_900


 47 50  0  0  0  0  0  0  0  0999 V2000
   16.4891    6.4375   25.7349 C   0  0  0  0  0  0  0  0  0  0  0  0
   17.6128    6.7211   26.5294 C   0  0  0  0  0  0  0  0  0  0  0  0
   18.8729    6.3036   26.0826 C   0  0  0  0  0  0  0  0  0  0  0  0
   16.6488    5.7558   24.5042 C   0  0  0  0  0  0  0  0  0  0  0  0
   17.9134    5.3157   24.0336 C   0  0  0  0  0  0  0  0  0  0  0  0
   19.0172    5.6078   24.8543 C   0  0  0  0  0  0  0  0  0  0  0  0
   20.1785    7.5767   27.8223 N   0  0  0  0  0  0  0  0  0  0  0  0
   20.1035    6.6149   26.8878 C   0  0  0  0  0  0  0  0  0  0  0  0
   21.0837    5.9548   26.6061 O   0  0  0  0  0  0  0  0  0  0  0  0
   19.3932    8.1287   28.0411 H   0  0  0  0  0  0  0  0  0  0  0  0
   21.4759    7.7888   28.5192 C   0  0  0  0  0  0  0  0  0  0  0  0
   23.4529    9.4183   28.4673 C   0  0  0  0  0  0  0  0  0  0  0  0
   22.4548    8.8794   30.6391 C   0  0  0  0  0  0  0  0  0  0  0  0
   22.2862    8.8109   27.6910 C   0  0  0  0  0  0  0  0  0  0  0  0
   22.8950   10.0352   29.7439 C   0  0  0  0  0  0  0  0  0  0  0  0
   23.8500   10.9203   30.3789 N   0  0  0  0  0  0  0  0  0  0  0  0
   21.2187    8.2571   29.9711 C   0  0  0  0  0  0  0  0  0  0  0  0
   24.6920   10.3966   30.6182 H   0  0  0  0  0  0  0  0  0  0  0  0
   23.4398   11.3108   31.2273 H   0  0  0  0  0  0  0  0  0  0  0  0
   15.2162    6.8119   26.1091 O   0  0  0  0  0  0  0  0  0  0  0  0
   14.0510    7.0527   25.2821 C   0  0  0  0  0  0  0  0  0  0  0  0
   14.9584    8.7773   23.7172 C   0  0  0  0  0  0  0  0  0  0  0  0
   13.9910   10.8762   25.3139 C   0  0  0  0  0  0  0  0  0  0  0  0
   14.6857   11.1430   24.1305 C   0  0  0  0  0  0  0  0  0  0  0  0
   15.1583   10.1046   23.3333 C   0  0  0  0  0  0  0  0  0  0  0  0
   14.2909    8.5003   24.9090 C   0  0  0  0  0  0  0  0  0  0  0  0
   13.7843    9.5560   25.7162 C   0  0  0  0  0  0  0  0  0  0  0  0
   12.5867   12.0920   27.0346 N   0  0  0  0  0  0  0  0  0  0  0  0
   13.4953   12.0840   26.0524 C   0  0  0  0  0  0  0  0  0  0  0  0
   13.9895   13.2402   25.6375 N   0  0  0  0  0  0  0  0  0  0  0  0
   12.2053   11.2445   27.3593 H   0  0  0  0  0  0  0  0  0  0  0  0
   12.2995   12.9455   27.4326 H   0  0  0  0  0  0  0  0  0  0  0  0
   14.6592   13.2587   24.9161 H   0  0  0  0  0  0  0  0  0  0  0  0
   18.0886    4.6210   22.8140 O   0  0  0  0  0  0  0  0  0  0  0  0
   19.3446    4.0284   22.3830 C   0  0  0  0  0  0  0  0  0  0  0  0
   18.5995    3.7189   18.5985 C   0  0  0  0  0  0  0  0  0  0  0  0
   20.7384    2.6337   19.0690 C   0  0  0  0  0  0  0  0  0  0  0  0
   19.4755    3.6675   20.8937 C   0  0  0  0  0  0  0  0  0  0  0  0
   20.6087    2.9607   20.4371 C   0  0  0  0  0  0  0  0  0  0  0  0
   19.7231    3.0081   18.1573 C   0  0  0  0  0  0  0  0  0  0  0  0
   18.4821    4.0367   19.9657 C   0  0  0  0  0  0  0  0  0  0  0  0
   21.9337    1.8540   18.5435 C   0  0  0  0  0  0  0  0  0  0  0  0
   22.4242    0.7500   19.1258 N   0  0  0  0  0  0  0  0  0  0  0  0
   22.5454    2.2736   17.4294 N   0  0  0  0  0  0  0  0  0  0  0  0
   22.0092    0.4011   19.9475 H   0  0  0  0  0  0  0  0  0  0  0  0
   23.1992    0.2885   18.7315 H   0  0  0  0  0  0  0  0  0  0  0  0
   22.2231    3.0794   16.9645 H   0  0  0  0  0  0  0  0  0  0  0  0
 12 15  1  0  0  0
 12 14  1  0  0  0
 16 15  1  0  0  0
 13 15  1  0  0  0
 13 17  1  0  0  0
  9  8  2  0  0  0
 14 11  1  0  0  0
 11 17  1  0  0  0
 11  7  1  0  0  0
 36 41  2  0  0  0
 36 40  1  0  0  0
  8  7  1  0  0  0
  8  3  1  0  0  0
 41 38  1  0  0  0
 40 37  2  0  0  0
  6  3  2  0  0  0
  6  5  1  0  0  0
  3  2  1  0  0  0
 34  5  1  0  0  0
 34 35  1  0  0  0
  5  4  2  0  0  0
 38 35  1  0  0  0
 38 39  2  0  0  0
  2  1  2  0  0  0
 37 39  1  0  0  0
 37 42  1  0  0  0
 44 42  2  0  0  0
  4  1  1  0  0  0
  1 20  1  0  0  0
 42 43  1  0  0  0
 20 21  1  0  0  0
 21 26  1  0  0  0
 22 26  2  0  0  0
 22 25  1  0  0  0
 26 27  1  0  0  0
 25 24  2  0  0  0
 27 23  2  0  0  0
 24 23  1  0  0  0
 23 29  1  0  0  0
 29 30  2  0  0  0
 29 28  1  0  0  0
  7 10  1  0  0  0
 28 31  1  0  0  0
 28 32  1  0  0  0
 16 18  1  0  0  0
 16 19  1  0  0  0
 30 33  1  0  0  0
 43 45  1  0  0  0
 43 46  1  0  0  0
 44 47  1  0  0  0
M  END
> <minimizedAffinity>
-10.20754

$$$$
4O97_NTX_A_900


 47 50  0  0  0  0  0  0  0  0999 V2000
   18.8749    4.9490   22.4338 C   0  0  0  0  0  0  0  0  0  0  0  0
   17.7453    5.7845   22.4325 C   0  0  0  0  0  0  0  0  0  0  0  0
   17.4852    6.5628   23.5675 C   0  0  0  0  0  0  0  0  0  0  0  0
   19.7293    4.9190   23.5625 C   0  0  0  0  0  0  0  0  0  0  0  0
   19.4831    5.6920   24.7272 C   0  0  0  0  0  0  0  0  0  0  0  0
   18.3413    6.5120   24.6982 C   0  0  0  0  0  0  0  0  0  0  0  0
   16.1152    8.4566   24.5102 N   0  0  0  0  0  0  0  0  0  0  0  0
   16.3046    7.4929   23.5940 C   0  0  0  0  0  0  0  0  0  0  0  0
   15.4701    7.2903   22.7347 O   0  0  0  0  0  0  0  0  0  0  0  0
   16.7780    8.6127   25.2213 H   0  0  0  0  0  0  0  0  0  0  0  0
   14.8806    9.2828   24.4257 C   0  0  0  0  0  0  0  0  0  0  0  0
   13.3417   10.6207   25.9776 C   0  0  0  0  0  0  0  0  0  0  0  0
   14.1131   11.6886   23.9117 C   0  0  0  0  0  0  0  0  0  0  0  0
   14.3596    9.4875   25.8659 C   0  0  0  0  0  0  0  0  0  0  0  0
   13.9851   11.8845   25.4204 C   0  0  0  0  0  0  0  0  0  0  0  0
   13.2425   13.0744   25.7830 N   0  0  0  0  0  0  0  0  0  0  0  0
   15.1913   10.6141   23.7016 C   0  0  0  0  0  0  0  0  0  0  0  0
   12.2940   13.0089   25.4135 H   0  0  0  0  0  0  0  0  0  0  0  0
   13.7039   13.8955   25.3916 H   0  0  0  0  0  0  0  0  0  0  0  0
   19.1947    4.1505   21.3564 O   0  0  0  0  0  0  0  0  0  0  0  0
   18.4830    3.9675   20.1077 C   0  0  0  0  0  0  0  0  0  0  0  0
   19.1404    2.6450   18.0915 C   0  0  0  0  0  0  0  0  0  0  0  0
   21.6334    1.9943   19.2104 C   0  0  0  0  0  0  0  0  0  0  0  0
   21.2814    1.5340   17.9382 C   0  0  0  0  0  0  0  0  0  0  0  0
   20.0503    1.8624   17.3782 C   0  0  0  0  0  0  0  0  0  0  0  0
   19.4701    3.0864   19.3717 C   0  0  0  0  0  0  0  0  0  0  0  0
   20.7359    2.7747   19.9404 C   0  0  0  0  0  0  0  0  0  0  0  0
   23.6265    0.4480   19.4294 N   0  0  0  0  0  0  0  0  0  0  0  0
   23.0065    1.6081   19.6746 C   0  0  0  0  0  0  0  0  0  0  0  0
   23.6168    2.5039   20.4349 N   0  0  0  0  0  0  0  0  0  0  0  0
   23.1919   -0.2331   18.8668 H   0  0  0  0  0  0  0  0  0  0  0  0
   24.5173    0.2755   19.8115 H   0  0  0  0  0  0  0  0  0  0  0  0
   23.1798    3.3646   20.6288 H   0  0  0  0  0  0  0  0  0  0  0  0
   20.3181    5.6628   25.8685 O   0  0  0  0  0  0  0  0  0  0  0  0
   19.9032    6.0842   27.1969 C   0  0  0  0  0  0  0  0  0  0  0  0
   22.5724    8.8144   27.8253 C   0  0  0  0  0  0  0  0  0  0  0  0
   21.2592    8.5158   29.8651 C   0  0  0  0  0  0  0  0  0  0  0  0
   20.7530    7.1640   27.8878 C   0  0  0  0  0  0  0  0  0  0  0  0
   20.4875    7.5189   29.2278 C   0  0  0  0  0  0  0  0  0  0  0  0
   22.3075    9.1519   29.1589 C   0  0  0  0  0  0  0  0  0  0  0  0
   21.7963    7.8173   27.2029 C   0  0  0  0  0  0  0  0  0  0  0  0
   21.0175    8.9091   31.3141 C   0  0  0  0  0  0  0  0  0  0  0  0
   21.8928    9.5987   32.0603 N   0  0  0  0  0  0  0  0  0  0  0  0
   19.8647    8.5619   31.8989 N   0  0  0  0  0  0  0  0  0  0  0  0
   22.7552    9.8774   31.6759 H   0  0  0  0  0  0  0  0  0  0  0  0
   21.6729    9.8261   32.9926 H   0  0  0  0  0  0  0  0  0  0  0  0
   19.1893    8.0549   31.3931 H   0  0  0  0  0  0  0  0  0  0  0  0
 12 15  1  0  0  0
 12 14  1  0  0  0
 16 15  1  0  0  0
 13 15  1  0  0  0
 13 17  1  0  0  0
  9  8  2  0  0  0
 14 11  1  0  0  0
 11 17  1  0  0  0
 11  7  1  0  0  0
 36 41  2  0  0  0
 36 40  1  0  0  0
  8  7  1  0  0  0
  8  3  1  0  0  0
 41 38  1  0  0  0
 40 37  2  0  0  0
  6  3  2  0  0  0
  6  5  1  0  0  0
  3  2  1  0  0  0
 34  5  1  0  0  0
 34 35  1  0  0  0
  5  4  2  0  0  0
 38 35  1  0  0  0
 38 39  2  0  0  0
  2  1  2  0  0  0
 37 39  1  0  0  0
 37 42  1  0  0  0
 44 42  2  0  0  0
  4  1  1  0  0  0
  1 20  1  0  0  0
 42 43  1  0  0  0
 20 21  1  0  0  0
 21 26  1  0  0  0
 22 26  2  0  0  0
 22 25  1  0  0  0
 26 27  1  0  0  0
 25 24  2  0  0  0
 27 23  2  0  0  0
 24 23  1  0  0  0
 23 29  1  0  0  0
 29 30  2  0  0  0
 29 28  1  0  0  0
  7 10  1  0  0  0
 28 31  1  0  0  0
 28 32  1  0  0  0
 16 18  1  0  0  0
 16 19  1  0  0  0
 30 33  1  0  0  0
 43 45  1  0  0  0
 43 46  1  0  0  0
 44 47  1  0  0  0
M  END
> <minimizedAffinity>
-10.18434

$$$$
4O97_NTX_A_900


 47 50  0  0  0  0  0  0  0  0999 V2000
   18.4910    5.0194   22.7376 C   0  0  0  0  0  0  0  0  0  0  0  0
   19.4267    5.2694   23.7555 C   0  0  0  0  0  0  0  0  0  0  0  0
   18.9831    5.8652   24.9429 C   0  0  0  0  0  0  0  0  0  0  0  0
   17.1295    5.3561   22.9322 C   0  0  0  0  0  0  0  0  0  0  0  0
   16.6568    5.9675   24.1227 C   0  0  0  0  0  0  0  0  0  0  0  0
   17.6184    6.2116   25.1193 C   0  0  0  0  0  0  0  0  0  0  0  0
   19.9429    7.2211   26.8383 N   0  0  0  0  0  0  0  0  0  0  0  0
   19.9466    6.1207   26.0681 C   0  0  0  0  0  0  0  0  0  0  0  0
   20.7956    5.2657   26.2232 O   0  0  0  0  0  0  0  0  0  0  0  0
   19.2699    7.9271   26.7046 H   0  0  0  0  0  0  0  0  0  0  0  0
   20.9794    7.3484   27.8982 C   0  0  0  0  0  0  0  0  0  0  0  0
   23.2226    8.5286   28.2744 C   0  0  0  0  0  0  0  0  0  0  0  0
   21.5145    8.7064   30.0221 C   0  0  0  0  0  0  0  0  0  0  0  0
   22.2310    7.9812   27.2498 C   0  0  0  0  0  0  0  0  0  0  0  0
   22.4795    9.5192   29.1622 C   0  0  0  0  0  0  0  0  0  0  0  0
   23.3887   10.3375   29.9384 N   0  0  0  0  0  0  0  0  0  0  0  0
   20.4227    8.1829   29.0759 C   0  0  0  0  0  0  0  0  0  0  0  0
   23.9595    9.7389   30.5353 H   0  0  0  0  0  0  0  0  0  0  0  0
   22.8536   10.9844   30.5177 H   0  0  0  0  0  0  0  0  0  0  0  0
   18.8514    4.4403   21.5396 O   0  0  0  0  0  0  0  0  0  0  0  0
   18.0121    4.0137   20.4382 C   0  0  0  0  0  0  0  0  0  0  0  0
   18.7340    3.0316   18.2563 C   0  0  0  0  0  0  0  0  0  0  0  0
   21.2506    2.3344   19.2912 C   0  0  0  0  0  0  0  0  0  0  0  0
   20.9233    2.0507   17.9621 C   0  0  0  0  0  0  0  0  0  0  0  0
   19.6802    2.4031   17.4447 C   0  0  0  0  0  0  0  0  0  0  0  0
   19.0399    3.2946   19.5905 C   0  0  0  0  0  0  0  0  0  0  0  0
   20.3168    2.9590   20.1192 C   0  0  0  0  0  0  0  0  0  0  0  0
   23.2977    0.8446   19.3271 N   0  0  0  0  0  0  0  0  0  0  0  0
   22.6384    1.9453   19.7067 C   0  0  0  0  0  0  0  0  0  0  0  0
   23.2202    2.7670   20.5666 N   0  0  0  0  0  0  0  0  0  0  0  0
   22.8848    0.2191   18.6886 H   0  0  0  0  0  0  0  0  0  0  0  0
   24.1956    0.6601   19.6862 H   0  0  0  0  0  0  0  0  0  0  0  0
   22.7542    3.5830   20.8602 H   0  0  0  0  0  0  0  0  0  0  0  0
   15.3033    6.3234   24.3275 O   0  0  0  0  0  0  0  0  0  0  0  0
   14.8554    7.3198   25.2873 C   0  0  0  0  0  0  0  0  0  0  0  0
   14.8481   10.4191   22.9705 C   0  0  0  0  0  0  0  0  0  0  0  0
   13.9895   11.0755   25.1628 C   0  0  0  0  0  0  0  0  0  0  0  0
   14.6783    8.7587   24.7738 C   0  0  0  0  0  0  0  0  0  0  0  0
   14.1623    9.7540   25.6312 C   0  0  0  0  0  0  0  0  0  0  0  0
   14.3450   11.4020   23.8326 C   0  0  0  0  0  0  0  0  0  0  0  0
   15.0171    9.1060   23.4514 C   0  0  0  0  0  0  0  0  0  0  0  0
   13.4575   12.1795   26.0633 C   0  0  0  0  0  0  0  0  0  0  0  0
   12.5436   11.9875   27.0258 N   0  0  0  0  0  0  0  0  0  0  0  0
   13.9203   13.4257   25.9076 N   0  0  0  0  0  0  0  0  0  0  0  0
   12.1723   11.0889   27.1799 H   0  0  0  0  0  0  0  0  0  0  0  0
   12.2441   12.7453   27.5783 H   0  0  0  0  0  0  0  0  0  0  0  0
   14.5924   13.6182   25.2145 H   0  0  0  0  0  0  0  0  0  0  0  0
 12 15  1  0  0  0
 12 14  1  0  0  0
 16 15  1  0  0  0
 13 15  1  0  0  0
 13 17  1  0  0  0
  9  8  2  0  0  0
 14 11  1  0  0  0
 11 17  1  0  0  0
 11  7  1  0  0  0
 36 41  2  0  0  0
 36 40  1  0  0  0
  8  7  1  0  0  0
  8  3  1  0  0  0
 41 38  1  0  0  0
 40 37  2  0  0  0
  6  3  2  0  0  0
  6  5  1  0  0  0
  3  2  1  0  0  0
 34  5  1  0  0  0
 34 35  1  0  0  0
  5  4  2  0  0  0
 38 35  1  0  0  0
 38 39  2  0  0  0
  2  1  2  0  0  0
 37 39  1  0  0  0
 37 42  1  0  0  0
 44 42  2  0  0  0
  4  1  1  0  0  0
  1 20  1  0  0  0
 42 43  1  0  0  0
 20 21  1  0  0  0
 21 26  1  0  0  0
 22 26  2  0  0  0
 22 25  1  0  0  0
 26 27  1  0  0  0
 25 24  2  0  0  0
 27 23  2  0  0  0
 24 23  1  0  0  0
 23 29  1  0  0  0
 29 30  2  0  0  0
 29 28  1  0  0  0
  7 10  1  0  0  0
 28 31  1  0  0  0
 28 32  1  0  0  0
 16 18  1  0  0  0
 16 19  1  0  0  0
 30 33  1  0  0  0
 43 45  1  0  0  0
 43 46  1  0  0  0
 44 47  1  0  0  0
M  END
> <minimizedAffinity>
-10.17920

$$$$
4O97_NTX_A_900


 47 50  0  0  0  0  0  0  0  0999 V2000
   20.5201    3.8108   25.5719 C   0  0  0  0  0  0  0  0  0  0  0  0
   19.2871    4.3420   25.1574 C   0  0  0  0  0  0  0  0  0  0  0  0
   18.9702    5.6589   25.5140 C   0  0  0  0  0  0  0  0  0  0  0  0
   21.4169    4.6101   26.3213 C   0  0  0  0  0  0  0  0  0  0  0  0
   21.1157    5.9439   26.7016 C   0  0  0  0  0  0  0  0  0  0  0  0
   19.8717    6.4443   26.2784 C   0  0  0  0  0  0  0  0  0  0  0  0
   17.2711    7.5157   25.3819 N   0  0  0  0  0  0  0  0  0  0  0  0
   17.6750    6.2749   25.0637 C   0  0  0  0  0  0  0  0  0  0  0  0
   16.9589    5.5456   24.4071 O   0  0  0  0  0  0  0  0  0  0  0  0
   17.8379    8.1046   25.9306 H   0  0  0  0  0  0  0  0  0  0  0  0
   15.9472    7.9796   24.8858 C   0  0  0  0  0  0  0  0  0  0  0  0
   14.0327    9.5103   25.6328 C   0  0  0  0  0  0  0  0  0  0  0  0
   14.8973    9.7670   23.3547 C   0  0  0  0  0  0  0  0  0  0  0  0
   15.2167    8.6505   26.0706 C   0  0  0  0  0  0  0  0  0  0  0  0
   14.5441   10.5339   24.6267 C   0  0  0  0  0  0  0  0  0  0  0  0
   13.5883   11.6000   24.4065 N   0  0  0  0  0  0  0  0  0  0  0  0
   16.1444    8.9308   23.6819 C   0  0  0  0  0  0  0  0  0  0  0  0
   12.7175   11.2073   24.0487 H   0  0  0  0  0  0  0  0  0  0  0  0
   13.9669   12.2614   23.7286 H   0  0  0  0  0  0  0  0  0  0  0  0
   20.9012    2.5222   25.2639 O   0  0  0  0  0  0  0  0  0  0  0  0
   20.7930    1.8097   24.0070 C   0  0  0  0  0  0  0  0  0  0  0  0
   21.3324    3.2801   22.0593 C   0  0  0  0  0  0  0  0  0  0  0  0
   24.0364    3.4394   22.8034 C   0  0  0  0  0  0  0  0  0  0  0  0
   23.5696    4.1065   21.6671 C   0  0  0  0  0  0  0  0  0  0  0  0
   22.2285    4.0361   21.3014 C   0  0  0  0  0  0  0  0  0  0  0  0
   21.7926    2.5889   23.1787 C   0  0  0  0  0  0  0  0  0  0  0  0
   23.1566    2.6757   23.5718 C   0  0  0  0  0  0  0  0  0  0  0  0
   26.1698    3.0759   24.1179 N   0  0  0  0  0  0  0  0  0  0  0  0
   25.4911    3.6376   23.1108 C   0  0  0  0  0  0  0  0  0  0  0  0
   26.1230    4.4904   22.3192 N   0  0  0  0  0  0  0  0  0  0  0  0
   25.7206    2.4389   24.7193 H   0  0  0  0  0  0  0  0  0  0  0  0
   27.1183    3.2996   24.2575 H   0  0  0  0  0  0  0  0  0  0  0  0
   25.6439    4.9159   21.5718 H   0  0  0  0  0  0  0  0  0  0  0  0
   21.9938    6.7509   27.4622 O   0  0  0  0  0  0  0  0  0  0  0  0
   21.8645    8.1923   27.6038 C   0  0  0  0  0  0  0  0  0  0  0  0
   21.4074    9.1271   31.3308 C   0  0  0  0  0  0  0  0  0  0  0  0
   23.5210   10.0655   30.5394 C   0  0  0  0  0  0  0  0  0  0  0  0
   22.1110    8.7849   29.0015 C   0  0  0  0  0  0  0  0  0  0  0  0
   23.2851    9.5258   29.2554 C   0  0  0  0  0  0  0  0  0  0  0  0
   22.5709    9.8698   31.5696 C   0  0  0  0  0  0  0  0  0  0  0  0
   21.1841    8.5964   30.0453 C   0  0  0  0  0  0  0  0  0  0  0  0
   24.7632   10.8878   30.8449 C   0  0  0  0  0  0  0  0  0  0  0  0
   25.7765   10.4597   31.6119 N   0  0  0  0  0  0  0  0  0  0  0  0
   24.8765   12.1146   30.3215 N   0  0  0  0  0  0  0  0  0  0  0  0
   25.7409    9.5644   32.0199 H   0  0  0  0  0  0  0  0  0  0  0  0
   26.5561   11.0406   31.7669 H   0  0  0  0  0  0  0  0  0  0  0  0
   24.1592   12.4746   29.7513 H   0  0  0  0  0  0  0  0  0  0  0  0
 12 15  1  0  0  0
 12 14  1  0  0  0
 16 15  1  0  0  0
 13 15  1  0  0  0
 13 17  1  0  0  0
  9  8  2  0  0  0
 14 11  1  0  0  0
 11 17  1  0  0  0
 11  7  1  0  0  0
 36 41  2  0  0  0
 36 40  1  0  0  0
  8  7  1  0  0  0
  8  3  1  0  0  0
 41 38  1  0  0  0
 40 37  2  0  0  0
  6  3  2  0  0  0
  6  5  1  0  0  0
  3  2  1  0  0  0
 34  5  1  0  0  0
 34 35  1  0  0  0
  5  4  2  0  0  0
 38 35  1  0  0  0
 38 39  2  0  0  0
  2  1  2  0  0  0
 37 39  1  0  0  0
 37 42  1  0  0  0
 44 42  2  0  0  0
  4  1  1  0  0  0
  1 20  1  0  0  0
 42 43  1  0  0  0
 20 21  1  0  0  0
 21 26  1  0  0  0
 22 26  2  0  0  0
 22 25  1  0  0  0
 26 27  1  0  0  0
 25 24  2  0  0  0
 27 23  2  0  0  0
 24 23  1  0  0  0
 23 29  1  0  0  0
 29 30  2  0  0  0
 29 28  1  0  0  0
  7 10  1  0  0  0
 28 31  1  0  0  0
 28 32  1  0  0  0
 16 18  1  0  0  0
 16 19  1  0  0  0
 30 33  1  0  0  0
 43 45  1  0  0  0
 43 46  1  0  0  0
 44 47  1  0  0  0
M  END
> <minimizedAffinity>
-9.65712

$$$$
4O97_NTX_A_900


 47 50  0  0  0  0  0  0  0  0999 V2000
   19.4252    5.8704   25.4033 C   0  0  0  0  0  0  0  0  0  0  0  0
   19.9257    4.7741   24.6810 C   0  0  0  0  0  0  0  0  0  0  0  0
   19.4805    4.5764   23.3678 C   0  0  0  0  0  0  0  0  0  0  0  0
   18.5019    6.7546   24.7946 C   0  0  0  0  0  0  0  0  0  0  0  0
   18.0297    6.5714   23.4687 C   0  0  0  0  0  0  0  0  0  0  0  0
   18.5432    5.4615   22.7746 C   0  0  0  0  0  0  0  0  0  0  0  0
   19.2981    2.7397   21.6517 N   0  0  0  0  0  0  0  0  0  0  0  0
   20.0152    3.4336   22.5506 C   0  0  0  0  0  0  0  0  0  0  0  0
   21.1661    3.1253   22.7877 O   0  0  0  0  0  0  0  0  0  0  0  0
   18.3588    2.9716   21.4695 H   0  0  0  0  0  0  0  0  0  0  0  0
   19.9559    1.6122   20.9376 C   0  0  0  0  0  0  0  0  0  0  0  0
   19.7699   -0.9379   20.7677 C   0  0  0  0  0  0  0  0  0  0  0  0
   19.8876    0.3543   18.6893 C   0  0  0  0  0  0  0  0  0  0  0  0
   19.4979    0.3021   21.6167 C   0  0  0  0  0  0  0  0  0  0  0  0
   19.1004   -0.7346   19.4141 C   0  0  0  0  0  0  0  0  0  0  0  0
   19.0092   -1.9711   18.6648 N   0  0  0  0  0  0  0  0  0  0  0  0
   19.6004    1.6680   19.4330 C   0  0  0  0  0  0  0  0  0  0  0  0
   19.9460   -2.3420   18.5056 H   0  0  0  0  0  0  0  0  0  0  0  0
   18.5573   -1.7926   17.7679 H   0  0  0  0  0  0  0  0  0  0  0  0
   19.8120    6.1286   26.7011 O   0  0  0  0  0  0  0  0  0  0  0  0
   19.4659    7.2462   27.5559 C   0  0  0  0  0  0  0  0  0  0  0  0
   21.9426    7.2695   27.2216 C   0  0  0  0  0  0  0  0  0  0  0  0
   22.3199    8.9915   29.4085 C   0  0  0  0  0  0  0  0  0  0  0  0
   23.4110    8.5421   28.6590 C   0  0  0  0  0  0  0  0  0  0  0  0
   23.2256    7.6958   27.5697 C   0  0  0  0  0  0  0  0  0  0  0  0
   20.8504    7.6896   27.9787 C   0  0  0  0  0  0  0  0  0  0  0  0
   21.0300    8.5735   29.0784 C   0  0  0  0  0  0  0  0  0  0  0  0
   22.0940    9.9543   31.7395 N   0  0  0  0  0  0  0  0  0  0  0  0
   22.6545    9.9362   30.5246 C   0  0  0  0  0  0  0  0  0  0  0  0
   23.5612   10.8555   30.2318 N   0  0  0  0  0  0  0  0  0  0  0  0
   21.4175    9.2806   31.9796 H   0  0  0  0  0  0  0  0  0  0  0  0
   22.3583   10.6412   32.3933 H   0  0  0  0  0  0  0  0  0  0  0  0
   23.9869   10.8618   29.3441 H   0  0  0  0  0  0  0  0  0  0  0  0
   17.0968    7.4366   22.8509 O   0  0  0  0  0  0  0  0  0  0  0  0
   15.6556    7.3396   23.0179 C   0  0  0  0  0  0  0  0  0  0  0  0
   14.0266    8.2173   26.4163 C   0  0  0  0  0  0  0  0  0  0  0  0
   14.3189   10.2755   25.1307 C   0  0  0  0  0  0  0  0  0  0  0  0
   15.0280    8.1366   24.1739 C   0  0  0  0  0  0  0  0  0  0  0  0
   14.8870    9.5370   24.0689 C   0  0  0  0  0  0  0  0  0  0  0  0
   13.8816    9.6057   26.2979 C   0  0  0  0  0  0  0  0  0  0  0  0
   14.5929    7.4933   25.3491 C   0  0  0  0  0  0  0  0  0  0  0  0
   14.1304   11.7821   25.0453 C   0  0  0  0  0  0  0  0  0  0  0  0
   13.2831   12.4772   25.8181 N   0  0  0  0  0  0  0  0  0  0  0  0
   14.8484   12.4783   24.1557 N   0  0  0  0  0  0  0  0  0  0  0  0
   12.7324   12.0110   26.4880 H   0  0  0  0  0  0  0  0  0  0  0  0
   13.2116   13.4538   25.7157 H   0  0  0  0  0  0  0  0  0  0  0  0
   15.4845   12.0139   23.5650 H   0  0  0  0  0  0  0  0  0  0  0  0
 12 15  1  0  0  0
 12 14  1  0  0  0
 16 15  1  0  0  0
 13 15  1  0  0  0
 13 17  1  0  0  0
  9  8  2  0  0  0
 14 11  1  0  0  0
 11 17  1  0  0  0
 11  7  1  0  0  0
 36 41  2  0  0  0
 36 40  1  0  0  0
  8  7  1  0  0  0
  8  3  1  0  0  0
 41 38  1  0  0  0
 40 37  2  0  0  0
  6  3  2  0  0  0
  6  5  1  0  0  0
  3  2  1  0  0  0
 34  5  1  0  0  0
 34 35  1  0  0  0
  5  4  2  0  0  0
 38 35  1  0  0  0
 38 39  2  0  0  0
  2  1  2  0  0  0
 37 39  1  0  0  0
 37 42  1  0  0  0
 44 42  2  0  0  0
  4  1  1  0  0  0
  1 20  1  0  0  0
 42 43  1  0  0  0
 20 21  1  0  0  0
 21 26  1  0  0  0
 22 26  2  0  0  0
 22 25  1  0  0  0
 26 27  1  0  0  0
 25 24  2  0  0  0
 27 23  2  0  0  0
 24 23  1  0  0  0
 23 29  1  0  0  0
 29 30  2  0  0  0
 29 28  1  0  0  0
  7 10  1  0  0  0
 28 31  1  0  0  0
 28 32  1  0  0  0
 16 18  1  0  0  0
 16 19  1  0  0  0
 30 33  1  0  0  0
 43 45  1  0  0  0
 43 46  1  0  0  0
 44 47  1  0  0  0
M  END
> <minimizedAffinity>
-9.63616

$$$$
4O97_NTX_A_900


 47 50  0  0  0  0  0  0  0  0999 V2000
   19.6803    5.6851   25.4019 C   0  0  0  0  0  0  0  0  0  0  0  0
   18.5732    6.5458   25.3145 C   0  0  0  0  0  0  0  0  0  0  0  0
   17.8801    6.6262   24.1000 C   0  0  0  0  0  0  0  0  0  0  0  0
   20.0634    4.9118   24.2793 C   0  0  0  0  0  0  0  0  0  0  0  0
   19.3824    4.9813   23.0360 C   0  0  0  0  0  0  0  0  0  0  0  0
   18.2838    5.8570   22.9779 C   0  0  0  0  0  0  0  0  0  0  0  0
   16.2745    8.3937   24.9061 N   0  0  0  0  0  0  0  0  0  0  0  0
   16.6717    7.5114   23.9746 C   0  0  0  0  0  0  0  0  0  0  0  0
   16.0168    7.3487   22.9644 O   0  0  0  0  0  0  0  0  0  0  0  0
   16.7896    8.5159   25.7362 H   0  0  0  0  0  0  0  0  0  0  0  0
   15.0380    9.1822   24.6547 C   0  0  0  0  0  0  0  0  0  0  0  0
   13.2893   10.5074   25.9785 C   0  0  0  0  0  0  0  0  0  0  0  0
   14.2756   11.5539   23.9947 C   0  0  0  0  0  0  0  0  0  0  0  0
   14.3423    9.4018   26.0168 C   0  0  0  0  0  0  0  0  0  0  0  0
   13.9621   11.7773   25.4721 C   0  0  0  0  0  0  0  0  0  0  0  0
   13.1506   12.9526   25.7144 N   0  0  0  0  0  0  0  0  0  0  0  0
   15.3988   10.5065   23.9411 C   0  0  0  0  0  0  0  0  0  0  0  0
   12.2554   12.8523   25.2358 H   0  0  0  0  0  0  0  0  0  0  0  0
   13.6342   13.7784   25.3614 H   0  0  0  0  0  0  0  0  0  0  0  0
   20.4151    5.5548   26.5610 O   0  0  0  0  0  0  0  0  0  0  0  0
   21.7085    6.1163   26.8946 C   0  0  0  0  0  0  0  0  0  0  0  0
   20.1496    6.6525   28.7731 C   0  0  0  0  0  0  0  0  0  0  0  0
   21.8078    8.7277   29.6865 C   0  0  0  0  0  0  0  0  0  0  0  0
   20.6130    8.4272   30.3470 C   0  0  0  0  0  0  0  0  0  0  0  0
   19.7941    7.3938   29.9014 C   0  0  0  0  0  0  0  0  0  0  0  0
   21.3251    6.9615   28.0908 C   0  0  0  0  0  0  0  0  0  0  0  0
   22.1785    8.0003   28.5546 C   0  0  0  0  0  0  0  0  0  0  0  0
   23.5206   10.5925   29.6678 N   0  0  0  0  0  0  0  0  0  0  0  0
   22.6185    9.8315   30.2983 C   0  0  0  0  0  0  0  0  0  0  0  0
   22.4331   10.0135   31.5966 N   0  0  0  0  0  0  0  0  0  0  0  0
   23.6754   10.4749   28.7027 H   0  0  0  0  0  0  0  0  0  0  0  0
   24.0296   11.2700   30.1690 H   0  0  0  0  0  0  0  0  0  0  0  0
   21.7747    9.4652   32.0814 H   0  0  0  0  0  0  0  0  0  0  0  0
   19.7608    4.2268   21.9009 O   0  0  0  0  0  0  0  0  0  0  0  0
   18.8240    3.6808   20.9319 C   0  0  0  0  0  0  0  0  0  0  0  0
   19.7787    2.5363   17.3609 C   0  0  0  0  0  0  0  0  0  0  0  0
   20.7056    0.9462   18.9693 C   0  0  0  0  0  0  0  0  0  0  0  0
   19.4135    2.8659   19.7684 C   0  0  0  0  0  0  0  0  0  0  0  0
   20.1547    1.6943   20.0334 C   0  0  0  0  0  0  0  0  0  0  0  0
   20.5039    1.3693   17.6341 C   0  0  0  0  0  0  0  0  0  0  0  0
   19.2334    3.2715   18.4315 C   0  0  0  0  0  0  0  0  0  0  0  0
   21.4908   -0.3330   19.2141 C   0  0  0  0  0  0  0  0  0  0  0  0
   21.0578   -1.3439   19.9815 N   0  0  0  0  0  0  0  0  0  0  0  0
   22.6871   -0.4834   18.6329 N   0  0  0  0  0  0  0  0  0  0  0  0
   20.1840   -1.2815   20.4308 H   0  0  0  0  0  0  0  0  0  0  0  0
   21.6136   -2.1484   20.0955 H   0  0  0  0  0  0  0  0  0  0  0  0
   23.0493    0.2305   18.0599 H   0  0  0  0  0  0  0  0  0  0  0  0
 12 15  1  0  0  0
 12 14  1  0  0  0
 16 15  1  0  0  0
 13 15  1  0  0  0
 13 17  1  0  0  0
  9  8  2  0  0  0
 14 11  1  0  0  0
 11 17  1  0  0  0
 11  7  1  0  0  0
 36 41  2  0  0  0
 36 40  1  0  0  0
  8  7  1  0  0  0
  8  3  1  0  0  0
 41 38  1  0  0  0
 40 37  2  0  0  0
  6  3  2  0  0  0
  6  5  1  0  0  0
  3  2  1  0  0  0
 34  5  1  0  0  0
 34 35  1  0  0  0
  5  4  2  0  0  0
 38 35  1  0  0  0
 38 39  2  0  0  0
  2  1  2  0  0  0
 37 39  1  0  0  0
 37 42  1  0  0  0
 44 42  2  0  0  0
  4  1  1  0  0  0
  1 20  1  0  0  0
 42 43  1  0  0  0
 20 21  1  0  0  0
 21 26  1  0  0  0
 22 26  2  0  0  0
 22 25  1  0  0  0
 26 27  1  0  0  0
 25 24  2  0  0  0
 27 23  2  0  0  0
 24 23  1  0  0  0
 23 29  1  0  0  0
 29 30  2  0  0  0
 29 28  1  0  0  0
  7 10  1  0  0  0
 28 31  1  0  0  0
 28 32  1  0  0  0
 16 18  1  0  0  0
 16 19  1  0  0  0
 30 33  1  0  0  0
 43 45  1  0  0  0
 43 46  1  0  0  0
 44 47  1  0  0  0
M  END
> <minimizedAffinity>
-9.53215

$$$$
