4U5S_3D0_A_501


 52 53  0  0  0  0  0  0  0  0999 V2000
    1.8826   28.9678   10.4578 C   0  0  0  0  0  0  0  0  0  0  0  0
    2.6449   28.8769    9.2133 N   0  0  0  0  0  0  0  0  0  0  0  0
    2.3188   29.4694    7.8937 C   0  0  0  0  0  0  0  0  0  0  0  0
    1.3456   30.1189    7.6734 O   0  0  0  0  0  0  0  0  0  0  0  0
    3.4796   28.3569    9.2570 H   0  0  0  0  0  0  0  0  0  0  0  0
    3.3301   29.1478    6.7956 C   0  0  0  0  0  0  0  0  0  0  0  0
    3.6044   30.4928    6.3197 N   0  0  0  0  0  0  0  0  0  0  0  0
    4.9466   30.9063    5.9109 C   0  0  0  0  0  0  0  0  0  0  0  0
    5.8311   30.1135    5.9108 O   0  0  0  0  0  0  0  0  0  0  0  0
    5.2022   32.3568    5.4620 C   0  0  0  0  0  0  0  0  0  0  0  0
    2.8671   31.1434    6.2711 H   0  0  0  0  0  0  0  0  0  0  0  0
    2.6358   28.2654    5.7506 C   0  0  0  0  0  0  0  0  0  0  0  0
    2.3417   28.9859    4.4042 C   0  0  0  0  0  0  0  0  0  0  0  0
    3.1121   28.3363    3.2190 C   0  0  0  0  0  0  0  0  0  0  0  0
    4.2547   29.2440    2.6875 C   0  0  0  0  0  0  0  0  0  0  0  0
    3.8676   29.9455    1.4545 N   0  0  0  0  0  0  0  0  0  0  0  0
    3.0646   30.5458    1.6426 H   0  0  0  0  0  0  0  0  0  0  0  0
    3.6212   29.2628    0.7379 H   0  0  0  0  0  0  0  0  0  0  0  0
    1.1397   27.6603   10.7816 C   0  0  0  0  0  0  0  0  0  0  0  0
   -0.0757   27.9587   11.5631 N   0  0  0  0  0  0  0  0  0  0  0  0
    0.0109   28.8756   12.0015 H   0  0  0  0  0  0  0  0  0  0  0  0
   -0.2152   26.9293   12.5899 C   0  0  0  0  0  0  0  0  0  0  0  0
   -1.1340   27.3998   13.7301 C   0  0  0  0  0  0  0  0  0  0  0  0
   -0.3367   27.7994   14.9857 C   0  0  0  0  0  0  0  0  0  0  0  0
   -2.0410   26.3856   14.0726 O   0  0  0  0  0  0  0  0  0  0  0  0
   -1.5536   25.6109   14.3937 H   0  0  0  0  0  0  0  0  0  0  0  0
   -1.7676   25.8189   10.9413 N   0  0  0  0  0  0  0  0  0  0  0  0
   -0.7471   25.6175   11.9857 C   0  0  0  0  0  0  0  0  0  0  0  0
   -0.3566   24.5477   12.3548 O   0  0  0  0  0  0  0  0  0  0  0  0
   -1.9986   26.7617   10.7764 H   0  0  0  0  0  0  0  0  0  0  0  0
   -2.4947   24.8687   10.1101 C   0  0  0  0  0  0  0  0  0  0  0  0
   -3.5267   24.0581   10.8766 C   0  0  0  0  0  0  0  0  0  0  0  0
   -4.2357   24.6021   11.6553 O   0  0  0  0  0  0  0  0  0  0  0  0
   -3.6450   22.6145   10.6582 N   0  0  0  0  0  0  0  0  0  0  0  0
   -3.0551   22.1646   10.0110 H   0  0  0  0  0  0  0  0  0  0  0  0
   -4.3143   22.0942   11.1587 H   0  0  0  0  0  0  0  0  0  0  0  0
   -3.1093   25.7463    8.9892 C   0  0  0  0  0  0  0  0  0  0  0  0
   -1.0062   25.8640    7.5384 C   0  0  0  0  0  0  0  0  0  0  0  0
   -0.2979   25.7270    6.3392 C   0  0  0  0  0  0  0  0  0  0  0  0
   -0.9601   25.2603    5.1831 C   0  0  0  0  0  0  0  0  0  0  0  0
   -2.3344   24.9474    5.2441 C   0  0  0  0  0  0  0  0  0  0  0  0
   -3.0186   25.0992    6.4540 C   0  0  0  0  0  0  0  0  0  0  0  0
   -2.3669   25.5652    7.6138 C   0  0  0  0  0  0  0  0  0  0  0  0
    2.8116   29.3952   11.6033 C   0  0  0  0  0  0  0  0  0  0  0  0
    2.0409   29.5441   12.7954 O   0  0  0  0  0  0  0  0  0  0  0  0
    2.1879   30.7936   13.4692 C   0  0  0  0  0  0  0  0  0  0  0  0
    1.0224   31.7274   13.0437 C   0  0  0  0  0  0  0  0  0  0  0  0
   -0.2672   31.2113   12.8447 C   0  0  0  0  0  0  0  0  0  0  0  0
   -1.2758   32.0941   12.4584 C   0  0  0  0  0  0  0  0  0  0  0  0
   -0.9660   33.4462   12.2894 C   0  0  0  0  0  0  0  0  0  0  0  0
    0.2700   33.9061   12.4864 N   0  0  0  0  0  0  0  0  0  0  0  0
    1.2545   33.0928   12.8567 C   0  0  0  0  0  0  0  0  0  0  0  0
 39 40  2  0  0  0
 39 38  1  0  0  0
 40 41  1  0  0  0
 38 43  2  0  0  0
 41 42  2  0  0  0
 43 42  1  0  0  0
 43 37  1  0  0  0
 37 31  1  0  0  0
 16 15  1  0  0  0
 34 32  1  0  0  0
 15 14  1  0  0  0
 31 27  1  0  0  0
 31 32  1  0  0  0
 14 13  1  0  0  0
 27 28  1  0  0  0
 32 33  2  0  0  0
 13 12  1  0  0  0
 28 22  1  0  0  0
 28 29  2  0  0  0
 12  6  1  0  0  0
 22 23  1  0  0  0
 22 20  1  0  0  0
 23 24  1  0  0  0
 23 25  1  0  0  0
 19 20  1  0  0  0
 19  1  1  0  0  0
  6  3  1  0  0  0
  6  7  1  0  0  0
  3  2  1  0  0  0
  3  4  2  0  0  0
  2  1  1  0  0  0
  1 44  1  0  0  0
  7  8  1  0  0  0
 44 45  1  0  0  0
  8  9  2  0  0  0
  8 10  1  0  0  0
 45 46  1  0  0  0
 46 47  1  0  0  0
 52 47  2  0  0  0
 52 51  1  0  0  0
 47 48  1  0  0  0
 51 50  2  0  0  0
 48 49  2  0  0  0
 50 49  1  0  0  0
 34 35  1  0  0  0
 34 36  1  0  0  0
 27 30  1  0  0  0
 25 26  1  0  0  0
 20 21  1  0  0  0
  2  5  1  0  0  0
  7 11  1  0  0  0
 16 17  1  0  0  0
 16 18  1  0  0  0
M  END
> <minimizedAffinity>
-6.66072

$$$$
4U5S_3D0_A_501


 52 53  0  0  0  0  0  0  0  0999 V2000
    2.3546   27.3964    9.2217 C   0  0  0  0  0  0  0  0  0  0  0  0
    2.8038   27.4025    7.8302 N   0  0  0  0  0  0  0  0  0  0  0  0
    4.1405   27.7648    7.3005 C   0  0  0  0  0  0  0  0  0  0  0  0
    5.0551   28.1181    7.9758 O   0  0  0  0  0  0  0  0  0  0  0  0
    2.1345   27.1320    7.1608 H   0  0  0  0  0  0  0  0  0  0  0  0
    4.2540   27.6860    5.7797 C   0  0  0  0  0  0  0  0  0  0  0  0
    3.3571   26.5709    5.5289 N   0  0  0  0  0  0  0  0  0  0  0  0
    2.5486   26.4914    4.3125 C   0  0  0  0  0  0  0  0  0  0  0  0
    2.6625   27.3264    3.4756 O   0  0  0  0  0  0  0  0  0  0  0  0
    1.5728   25.3173    4.1120 C   0  0  0  0  0  0  0  0  0  0  0  0
    3.2917   25.8495    6.1956 H   0  0  0  0  0  0  0  0  0  0  0  0
    5.7146   27.3801    5.4250 C   0  0  0  0  0  0  0  0  0  0  0  0
    6.4273   28.5130    4.6331 C   0  0  0  0  0  0  0  0  0  0  0  0
    5.8732   28.6449    3.1854 C   0  0  0  0  0  0  0  0  0  0  0  0
    4.9396   29.8748    3.0189 C   0  0  0  0  0  0  0  0  0  0  0  0
    4.1063   29.7698    1.8119 N   0  0  0  0  0  0  0  0  0  0  0  0
    3.5119   28.9436    1.8799 H   0  0  0  0  0  0  0  0  0  0  0  0
    4.7058   29.6906    0.9906 H   0  0  0  0  0  0  0  0  0  0  0  0
    2.2004   28.8178    9.7894 C   0  0  0  0  0  0  0  0  0  0  0  0
    1.4996   29.6714    8.8109 N   0  0  0  0  0  0  0  0  0  0  0  0
    1.8495   29.4808    7.8720 H   0  0  0  0  0  0  0  0  0  0  0  0
    1.7575   31.0653    9.1628 C   0  0  0  0  0  0  0  0  0  0  0  0
    1.9569   31.9299    7.9065 C   0  0  0  0  0  0  0  0  0  0  0  0
    3.2534   31.5687    7.1577 C   0  0  0  0  0  0  0  0  0  0  0  0
    1.9974   33.2887    8.2537 O   0  0  0  0  0  0  0  0  0  0  0  0
    2.7530   33.4503    8.8401 H   0  0  0  0  0  0  0  0  0  0  0  0
    0.9843   31.8256   11.4399 N   0  0  0  0  0  0  0  0  0  0  0  0
    0.6172   31.6356   10.0249 C   0  0  0  0  0  0  0  0  0  0  0  0
   -0.4595   31.8841    9.5645 O   0  0  0  0  0  0  0  0  0  0  0  0
    1.9011   31.5441   11.6623 H   0  0  0  0  0  0  0  0  0  0  0  0
    0.2294   32.3566   12.5671 C   0  0  0  0  0  0  0  0  0  0  0  0
   -0.2548   33.7816   12.3554 C   0  0  0  0  0  0  0  0  0  0  0  0
   -1.3933   33.9783   12.0907 O   0  0  0  0  0  0  0  0  0  0  0  0
    0.6771   34.9054   12.4748 N   0  0  0  0  0  0  0  0  0  0  0  0
    1.6224   34.7398   12.6948 H   0  0  0  0  0  0  0  0  0  0  0  0
    0.3583   35.8263   12.3351 H   0  0  0  0  0  0  0  0  0  0  0  0
   -0.9226   31.3367   12.7592 C   0  0  0  0  0  0  0  0  0  0  0  0
    0.8067   30.0353   14.1221 C   0  0  0  0  0  0  0  0  0  0  0  0
    1.2751   28.9117   14.8127 C   0  0  0  0  0  0  0  0  0  0  0  0
    0.4542   27.7694   14.9319 C   0  0  0  0  0  0  0  0  0  0  0  0
   -0.8276   27.7662   14.3427 C   0  0  0  0  0  0  0  0  0  0  0  0
   -1.2677   28.9005   13.6535 C   0  0  0  0  0  0  0  0  0  0  0  0
   -0.4557   30.0457   13.5280 C   0  0  0  0  0  0  0  0  0  0  0  0
    1.0535   26.5897    9.3417 C   0  0  0  0  0  0  0  0  0  0  0  0
    0.1466   27.0170    8.3257 O   0  0  0  0  0  0  0  0  0  0  0  0
   -0.3974   25.9782    7.5123 C   0  0  0  0  0  0  0  0  0  0  0  0
   -1.9026   25.8140    7.8573 C   0  0  0  0  0  0  0  0  0  0  0  0
   -2.8197   25.4169    6.8723 C   0  0  0  0  0  0  0  0  0  0  0  0
   -4.1604   25.2897    7.2358 C   0  0  0  0  0  0  0  0  0  0  0  0
   -4.5338   25.5571    8.5557 C   0  0  0  0  0  0  0  0  0  0  0  0
   -3.6379   25.9327    9.4691 N   0  0  0  0  0  0  0  0  0  0  0  0
   -2.3519   26.0621    9.1571 C   0  0  0  0  0  0  0  0  0  0  0  0
 39 40  2  0  0  0
 39 38  1  0  0  0
 40 41  1  0  0  0
 38 43  2  0  0  0
 41 42  2  0  0  0
 43 42  1  0  0  0
 43 37  1  0  0  0
 37 31  1  0  0  0
 16 15  1  0  0  0
 34 32  1  0  0  0
 15 14  1  0  0  0
 31 27  1  0  0  0
 31 32  1  0  0  0
 14 13  1  0  0  0
 27 28  1  0  0  0
 32 33  2  0  0  0
 13 12  1  0  0  0
 28 22  1  0  0  0
 28 29  2  0  0  0
 12  6  1  0  0  0
 22 23  1  0  0  0
 22 20  1  0  0  0
 23 24  1  0  0  0
 23 25  1  0  0  0
 19 20  1  0  0  0
 19  1  1  0  0  0
  6  3  1  0  0  0
  6  7  1  0  0  0
  3  2  1  0  0  0
  3  4  2  0  0  0
  2  1  1  0  0  0
  1 44  1  0  0  0
  7  8  1  0  0  0
 44 45  1  0  0  0
  8  9  2  0  0  0
  8 10  1  0  0  0
 45 46  1  0  0  0
 46 47  1  0  0  0
 52 47  2  0  0  0
 52 51  1  0  0  0
 47 48  1  0  0  0
 51 50  2  0  0  0
 48 49  2  0  0  0
 50 49  1  0  0  0
 34 35  1  0  0  0
 34 36  1  0  0  0
 27 30  1  0  0  0
 25 26  1  0  0  0
 20 21  1  0  0  0
  2  5  1  0  0  0
  7 11  1  0  0  0
 16 17  1  0  0  0
 16 18  1  0  0  0
M  END
> <minimizedAffinity>
-6.57418

$$$$
4U5S_3D0_A_501


 52 53  0  0  0  0  0  0  0  0999 V2000
    1.8585   31.8852    8.8979 C   0  0  0  0  0  0  0  0  0  0  0  0
    2.0612   33.3286    8.7811 N   0  0  0  0  0  0  0  0  0  0  0  0
    2.9214   34.0581    7.8185 C   0  0  0  0  0  0  0  0  0  0  0  0
    3.5897   33.5319    6.9855 O   0  0  0  0  0  0  0  0  0  0  0  0
    1.5641   33.8862    9.4223 H   0  0  0  0  0  0  0  0  0  0  0  0
    2.9181   35.5743    7.9998 C   0  0  0  0  0  0  0  0  0  0  0  0
    2.0419   35.6767    9.1542 N   0  0  0  0  0  0  0  0  0  0  0  0
    2.4302   36.4207   10.3522 C   0  0  0  0  0  0  0  0  0  0  0  0
    3.4630   37.0071   10.3706 O   0  0  0  0  0  0  0  0  0  0  0  0
    1.4918   36.4597   11.5723 C   0  0  0  0  0  0  0  0  0  0  0  0
    1.1632   35.2334    9.1294 H   0  0  0  0  0  0  0  0  0  0  0  0
    2.3271   36.2055    6.7329 C   0  0  0  0  0  0  0  0  0  0  0  0
    1.3640   37.3957    7.0053 C   0  0  0  0  0  0  0  0  0  0  0  0
    1.8872   38.7197    6.3781 C   0  0  0  0  0  0  0  0  0  0  0  0
    0.7548   39.5455    5.7090 C   0  0  0  0  0  0  0  0  0  0  0  0
    1.1099   39.9538    4.3417 N   0  0  0  0  0  0  0  0  0  0  0  0
    1.2615   39.1243    3.7677 H   0  0  0  0  0  0  0  0  0  0  0  0
    1.9632   40.5121    4.3643 H   0  0  0  0  0  0  0  0  0  0  0  0
    0.7972   31.5305    9.9535 C   0  0  0  0  0  0  0  0  0  0  0  0
    0.4851   30.0902    9.8812 N   0  0  0  0  0  0  0  0  0  0  0  0
   -0.4335   29.9558    9.4585 H   0  0  0  0  0  0  0  0  0  0  0  0
    0.4871   29.5599   11.2422 C   0  0  0  0  0  0  0  0  0  0  0  0
   -0.7069   30.0948   12.0509 C   0  0  0  0  0  0  0  0  0  0  0  0
   -0.2603   30.7653   13.3636 C   0  0  0  0  0  0  0  0  0  0  0  0
   -1.5945   29.0513   12.3538 O   0  0  0  0  0  0  0  0  0  0  0  0
   -1.1431   28.3924   12.9042 H   0  0  0  0  0  0  0  0  0  0  0  0
   -0.5121   27.4421   10.3055 N   0  0  0  0  0  0  0  0  0  0  0  0
    0.4764   28.0210   11.2334 C   0  0  0  0  0  0  0  0  0  0  0  0
    1.2075   27.3799   11.9316 O   0  0  0  0  0  0  0  0  0  0  0  0
   -1.0563   28.1077    9.8258 H   0  0  0  0  0  0  0  0  0  0  0  0
   -0.8254   26.0587    9.9733 C   0  0  0  0  0  0  0  0  0  0  0  0
   -1.0416   25.1765   11.1918 C   0  0  0  0  0  0  0  0  0  0  0  0
   -2.1066   25.1489   11.7114 O   0  0  0  0  0  0  0  0  0  0  0  0
    0.0571   24.3667   11.7236 N   0  0  0  0  0  0  0  0  0  0  0  0
    0.9409   24.3910   11.2905 H   0  0  0  0  0  0  0  0  0  0  0  0
   -0.0883   23.7982   12.5141 H   0  0  0  0  0  0  0  0  0  0  0  0
   -2.0749   26.1670    9.0616 C   0  0  0  0  0  0  0  0  0  0  0  0
   -0.4593   25.9033    7.0965 C   0  0  0  0  0  0  0  0  0  0  0  0
   -0.1280   25.5691    5.7784 C   0  0  0  0  0  0  0  0  0  0  0  0
   -1.1224   25.0665    4.9115 C   0  0  0  0  0  0  0  0  0  0  0  0
   -2.4452   24.9169    5.3785 C   0  0  0  0  0  0  0  0  0  0  0  0
   -2.7492   25.2642    6.6984 C   0  0  0  0  0  0  0  0  0  0  0  0
   -1.7640   25.7677    7.5718 C   0  0  0  0  0  0  0  0  0  0  0  0
    1.5131   31.2983    7.5216 C   0  0  0  0  0  0  0  0  0  0  0  0
    2.0099   29.9623    7.4483 O   0  0  0  0  0  0  0  0  0  0  0  0
    3.3682   29.8346    7.0294 C   0  0  0  0  0  0  0  0  0  0  0  0
    3.3896   29.4315    5.5299 C   0  0  0  0  0  0  0  0  0  0  0  0
    4.3042   30.0244    4.6462 C   0  0  0  0  0  0  0  0  0  0  0  0
    4.2767   29.6286    3.3089 C   0  0  0  0  0  0  0  0  0  0  0  0
    3.3499   28.6634    2.9059 C   0  0  0  0  0  0  0  0  0  0  0  0
    2.4934   28.1183    3.7704 N   0  0  0  0  0  0  0  0  0  0  0  0
    2.4936   28.4712    5.0523 C   0  0  0  0  0  0  0  0  0  0  0  0
 39 40  2  0  0  0
 39 38  1  0  0  0
 40 41  1  0  0  0
 38 43  2  0  0  0
 41 42  2  0  0  0
 43 42  1  0  0  0
 43 37  1  0  0  0
 37 31  1  0  0  0
 16 15  1  0  0  0
 34 32  1  0  0  0
 15 14  1  0  0  0
 31 27  1  0  0  0
 31 32  1  0  0  0
 14 13  1  0  0  0
 27 28  1  0  0  0
 32 33  2  0  0  0
 13 12  1  0  0  0
 28 22  1  0  0  0
 28 29  2  0  0  0
 12  6  1  0  0  0
 22 23  1  0  0  0
 22 20  1  0  0  0
 23 24  1  0  0  0
 23 25  1  0  0  0
 19 20  1  0  0  0
 19  1  1  0  0  0
  6  3  1  0  0  0
  6  7  1  0  0  0
  3  2  1  0  0  0
  3  4  2  0  0  0
  2  1  1  0  0  0
  1 44  1  0  0  0
  7  8  1  0  0  0
 44 45  1  0  0  0
  8  9  2  0  0  0
  8 10  1  0  0  0
 45 46  1  0  0  0
 46 47  1  0  0  0
 52 47  2  0  0  0
 52 51  1  0  0  0
 47 48  1  0  0  0
 51 50  2  0  0  0
 48 49  2  0  0  0
 50 49  1  0  0  0
 34 35  1  0  0  0
 34 36  1  0  0  0
 27 30  1  0  0  0
 25 26  1  0  0  0
 20 21  1  0  0  0
  2  5  1  0  0  0
  7 11  1  0  0  0
 16 17  1  0  0  0
 16 18  1  0  0  0
M  END
> <minimizedAffinity>
-6.55270

$$$$
4U5S_3D0_A_501


 52 53  0  0  0  0  0  0  0  0999 V2000
    3.4094   29.6039    7.5271 C   0  0  0  0  0  0  0  0  0  0  0  0
    2.5390   29.6615    8.7006 N   0  0  0  0  0  0  0  0  0  0  0  0
    1.3599   30.5321    8.9251 C   0  0  0  0  0  0  0  0  0  0  0  0
    0.9612   31.3346    8.1413 O   0  0  0  0  0  0  0  0  0  0  0  0
    2.7641   29.0444    9.4340 H   0  0  0  0  0  0  0  0  0  0  0  0
    0.6953   30.3476   10.2875 C   0  0  0  0  0  0  0  0  0  0  0  0
    0.6617   31.7315   10.7283 N   0  0  0  0  0  0  0  0  0  0  0  0
   -0.5781   32.3685   11.1720 C   0  0  0  0  0  0  0  0  0  0  0  0
   -1.5781   31.7304   11.2308 O   0  0  0  0  0  0  0  0  0  0  0  0
   -0.5773   33.8528   11.5816 C   0  0  0  0  0  0  0  0  0  0  0  0
    1.4957   32.2547   10.7283 H   0  0  0  0  0  0  0  0  0  0  0  0
    1.6052   29.4603   11.1464 C   0  0  0  0  0  0  0  0  0  0  0  0
    1.4686   29.7022   12.6765 C   0  0  0  0  0  0  0  0  0  0  0  0
    0.7762   28.5072   13.3925 C   0  0  0  0  0  0  0  0  0  0  0  0
   -0.5950   28.1504   12.7566 C   0  0  0  0  0  0  0  0  0  0  0  0
   -1.5953   29.2036   12.9862 N   0  0  0  0  0  0  0  0  0  0  0  0
   -1.2781   30.0730   12.5575 H   0  0  0  0  0  0  0  0  0  0  0  0
   -1.7174   29.3437   13.9891 H   0  0  0  0  0  0  0  0  0  0  0  0
    2.6152   29.4224    6.2222 C   0  0  0  0  0  0  0  0  0  0  0  0
    3.5465   29.2050    5.0987 N   0  0  0  0  0  0  0  0  0  0  0  0
    3.9876   30.0872    4.8389 H   0  0  0  0  0  0  0  0  0  0  0  0
    2.7784   28.6836    3.9711 C   0  0  0  0  0  0  0  0  0  0  0  0
    3.5229   28.8982    2.6424 C   0  0  0  0  0  0  0  0  0  0  0  0
    4.8726   29.6113    2.8462 C   0  0  0  0  0  0  0  0  0  0  0  0
    2.7369   29.6578    1.7627 O   0  0  0  0  0  0  0  0  0  0  0  0
    2.5737   30.5327    2.1485 H   0  0  0  0  0  0  0  0  0  0  0  0
    1.0148   26.8924    4.1766 N   0  0  0  0  0  0  0  0  0  0  0  0
    2.4584   27.1909    4.1660 C   0  0  0  0  0  0  0  0  0  0  0  0
    3.3211   26.3722    4.3023 O   0  0  0  0  0  0  0  0  0  0  0  0
    0.4364   27.6834    4.0815 H   0  0  0  0  0  0  0  0  0  0  0  0
    0.2934   25.6331    4.3031 C   0  0  0  0  0  0  0  0  0  0  0  0
    0.8324   24.5324    3.4043 C   0  0  0  0  0  0  0  0  0  0  0  0
    0.3430   24.3560    2.3393 O   0  0  0  0  0  0  0  0  0  0  0  0
    1.9470   23.6927    3.8495 N   0  0  0  0  0  0  0  0  0  0  0  0
    2.3520   23.8409    4.7345 H   0  0  0  0  0  0  0  0  0  0  0  0
    2.2910   22.9802    3.2637 H   0  0  0  0  0  0  0  0  0  0  0  0
    0.3894   25.2972    5.8138 C   0  0  0  0  0  0  0  0  0  0  0  0
   -2.1534   25.0250    5.8512 C   0  0  0  0  0  0  0  0  0  0  0  0
   -3.4173   25.1082    6.4466 C   0  0  0  0  0  0  0  0  0  0  0  0
   -3.5373   25.5689    7.7755 C   0  0  0  0  0  0  0  0  0  0  0  0
   -2.3821   25.9533    8.4883 C   0  0  0  0  0  0  0  0  0  0  0  0
   -1.1327   25.8653    7.8667 C   0  0  0  0  0  0  0  0  0  0  0  0
   -1.0020   25.4075    6.5401 C   0  0  0  0  0  0  0  0  0  0  0  0
    4.3017   30.8528    7.4832 C   0  0  0  0  0  0  0  0  0  0  0  0
    3.8756   31.6906    6.4090 O   0  0  0  0  0  0  0  0  0  0  0  0
    4.7646   32.7545    6.0706 C   0  0  0  0  0  0  0  0  0  0  0  0
    4.4617   33.9670    6.9924 C   0  0  0  0  0  0  0  0  0  0  0  0
    5.4880   34.5710    7.7346 C   0  0  0  0  0  0  0  0  0  0  0  0
    5.1592   35.6538    8.5502 C   0  0  0  0  0  0  0  0  0  0  0  0
    3.8332   36.0928    8.5933 C   0  0  0  0  0  0  0  0  0  0  0  0
    2.8802   35.4974    7.8755 N   0  0  0  0  0  0  0  0  0  0  0  0
    3.1590   34.4641    7.0866 C   0  0  0  0  0  0  0  0  0  0  0  0
 39 40  2  0  0  0
 39 38  1  0  0  0
 40 41  1  0  0  0
 38 43  2  0  0  0
 41 42  2  0  0  0
 43 42  1  0  0  0
 43 37  1  0  0  0
 37 31  1  0  0  0
 16 15  1  0  0  0
 34 32  1  0  0  0
 15 14  1  0  0  0
 31 27  1  0  0  0
 31 32  1  0  0  0
 14 13  1  0  0  0
 27 28  1  0  0  0
 32 33  2  0  0  0
 13 12  1  0  0  0
 28 22  1  0  0  0
 28 29  2  0  0  0
 12  6  1  0  0  0
 22 23  1  0  0  0
 22 20  1  0  0  0
 23 24  1  0  0  0
 23 25  1  0  0  0
 19 20  1  0  0  0
 19  1  1  0  0  0
  6  3  1  0  0  0
  6  7  1  0  0  0
  3  2  1  0  0  0
  3  4  2  0  0  0
  2  1  1  0  0  0
  1 44  1  0  0  0
  7  8  1  0  0  0
 44 45  1  0  0  0
  8  9  2  0  0  0
  8 10  1  0  0  0
 45 46  1  0  0  0
 46 47  1  0  0  0
 52 47  2  0  0  0
 52 51  1  0  0  0
 47 48  1  0  0  0
 51 50  2  0  0  0
 48 49  2  0  0  0
 50 49  1  0  0  0
 34 35  1  0  0  0
 34 36  1  0  0  0
 27 30  1  0  0  0
 25 26  1  0  0  0
 20 21  1  0  0  0
  2  5  1  0  0  0
  7 11  1  0  0  0
 16 17  1  0  0  0
 16 18  1  0  0  0
M  END
> <minimizedAffinity>
-6.48882

$$$$
4U5S_3D0_A_501


 52 53  0  0  0  0  0  0  0  0999 V2000
    1.8513   28.5669    9.6512 C   0  0  0  0  0  0  0  0  0  0  0  0
    2.1600   28.0131    8.3336 N   0  0  0  0  0  0  0  0  0  0  0  0
    3.4892   27.8489    7.6972 C   0  0  0  0  0  0  0  0  0  0  0  0
    4.5181   28.1688    8.2035 O   0  0  0  0  0  0  0  0  0  0  0  0
    1.3882   27.7114    7.8020 H   0  0  0  0  0  0  0  0  0  0  0  0
    3.4412   27.2570    6.2903 C   0  0  0  0  0  0  0  0  0  0  0  0
    4.7446   27.6793    5.8070 N   0  0  0  0  0  0  0  0  0  0  0  0
    5.5841   26.8031    4.9903 C   0  0  0  0  0  0  0  0  0  0  0  0
    5.1754   25.7376    4.6609 O   0  0  0  0  0  0  0  0  0  0  0  0
    6.9807   27.2727    4.5431 C   0  0  0  0  0  0  0  0  0  0  0  0
    5.0715   28.5794    6.0353 H   0  0  0  0  0  0  0  0  0  0  0  0
    2.2752   27.9096    5.5372 C   0  0  0  0  0  0  0  0  0  0  0  0
    2.3487   27.7519    3.9918 C   0  0  0  0  0  0  0  0  0  0  0  0
    2.6651   29.1018    3.2861 C   0  0  0  0  0  0  0  0  0  0  0  0
    3.9429   29.0245    2.4068 C   0  0  0  0  0  0  0  0  0  0  0  0
    3.9820   30.0981    1.4028 N   0  0  0  0  0  0  0  0  0  0  0  0
    3.9906   31.0032    1.8730 H   0  0  0  0  0  0  0  0  0  0  0  0
    3.1588   30.0338    0.8040 H   0  0  0  0  0  0  0  0  0  0  0  0
    1.5700   30.0783    9.5955 C   0  0  0  0  0  0  0  0  0  0  0  0
    2.6100   30.8062   10.3475 N   0  0  0  0  0  0  0  0  0  0  0  0
    2.1741   31.4175   11.0379 H   0  0  0  0  0  0  0  0  0  0  0  0
    3.3799   31.6029    9.3956 C   0  0  0  0  0  0  0  0  0  0  0  0
    2.6049   31.8052    8.0824 C   0  0  0  0  0  0  0  0  0  0  0  0
    3.4518   31.4358    6.8503 C   0  0  0  0  0  0  0  0  0  0  0  0
    2.1906   33.1405    7.9642 O   0  0  0  0  0  0  0  0  0  0  0  0
    2.9686   33.7190    7.9341 H   0  0  0  0  0  0  0  0  0  0  0  0
    2.7796   33.4795   10.9700 N   0  0  0  0  0  0  0  0  0  0  0  0
    3.7642   32.9646   10.0012 C   0  0  0  0  0  0  0  0  0  0  0  0
    4.7703   33.5334    9.6897 O   0  0  0  0  0  0  0  0  0  0  0  0
    1.9909   32.9030   11.0920 H   0  0  0  0  0  0  0  0  0  0  0  0
    2.7682   34.6912   11.7787 C   0  0  0  0  0  0  0  0  0  0  0  0
    1.9260   35.8085   11.1853 C   0  0  0  0  0  0  0  0  0  0  0  0
    1.8049   35.8868   10.0088 O   0  0  0  0  0  0  0  0  0  0  0  0
    1.2693   36.7841   12.0586 N   0  0  0  0  0  0  0  0  0  0  0  0
    1.3711   36.7172   13.0355 H   0  0  0  0  0  0  0  0  0  0  0  0
    0.7262   37.5067   11.6685 H   0  0  0  0  0  0  0  0  0  0  0  0
    2.2660   34.2108   13.1648 C   0  0  0  0  0  0  0  0  0  0  0  0
    1.4526   31.8161   13.5458 C   0  0  0  0  0  0  0  0  0  0  0  0
    0.5170   30.7786   13.4619 C   0  0  0  0  0  0  0  0  0  0  0  0
   -0.7466   31.0194   12.8803 C   0  0  0  0  0  0  0  0  0  0  0  0
   -1.0507   32.3019   12.3774 C   0  0  0  0  0  0  0  0  0  0  0  0
   -0.0948   33.3183   12.4691 C   0  0  0  0  0  0  0  0  0  0  0  0
    1.1699   33.0881   13.0471 C   0  0  0  0  0  0  0  0  0  0  0  0
    0.6831   27.7916   10.2773 C   0  0  0  0  0  0  0  0  0  0  0  0
   -0.2796   27.5035    9.2637 O   0  0  0  0  0  0  0  0  0  0  0  0
   -1.2074   26.4649    9.5758 C   0  0  0  0  0  0  0  0  0  0  0  0
   -1.8363   25.9470    8.2538 C   0  0  0  0  0  0  0  0  0  0  0  0
   -3.2033   25.6370    8.1891 C   0  0  0  0  0  0  0  0  0  0  0  0
   -3.7148   25.1712    6.9778 C   0  0  0  0  0  0  0  0  0  0  0  0
   -2.8542   25.0356    5.8852 C   0  0  0  0  0  0  0  0  0  0  0  0
   -1.5591   25.3388    5.9786 N   0  0  0  0  0  0  0  0  0  0  0  0
   -1.0390   25.7870    7.1172 C   0  0  0  0  0  0  0  0  0  0  0  0
 39 40  2  0  0  0
 39 38  1  0  0  0
 40 41  1  0  0  0
 38 43  2  0  0  0
 41 42  2  0  0  0
 43 42  1  0  0  0
 43 37  1  0  0  0
 37 31  1  0  0  0
 16 15  1  0  0  0
 34 32  1  0  0  0
 15 14  1  0  0  0
 31 27  1  0  0  0
 31 32  1  0  0  0
 14 13  1  0  0  0
 27 28  1  0  0  0
 32 33  2  0  0  0
 13 12  1  0  0  0
 28 22  1  0  0  0
 28 29  2  0  0  0
 12  6  1  0  0  0
 22 23  1  0  0  0
 22 20  1  0  0  0
 23 24  1  0  0  0
 23 25  1  0  0  0
 19 20  1  0  0  0
 19  1  1  0  0  0
  6  3  1  0  0  0
  6  7  1  0  0  0
  3  2  1  0  0  0
  3  4  2  0  0  0
  2  1  1  0  0  0
  1 44  1  0  0  0
  7  8  1  0  0  0
 44 45  1  0  0  0
  8  9  2  0  0  0
  8 10  1  0  0  0
 45 46  1  0  0  0
 46 47  1  0  0  0
 52 47  2  0  0  0
 52 51  1  0  0  0
 47 48  1  0  0  0
 51 50  2  0  0  0
 48 49  2  0  0  0
 50 49  1  0  0  0
 34 35  1  0  0  0
 34 36  1  0  0  0
 27 30  1  0  0  0
 25 26  1  0  0  0
 20 21  1  0  0  0
  2  5  1  0  0  0
  7 11  1  0  0  0
 16 17  1  0  0  0
 16 18  1  0  0  0
M  END
> <minimizedAffinity>
-6.45418

$$$$
4U5S_3D0_A_501


 52 53  0  0  0  0  0  0  0  0999 V2000
    2.4585   29.2151    8.4893 C   0  0  0  0  0  0  0  0  0  0  0  0
    2.4460   30.4147    9.3254 N   0  0  0  0  0  0  0  0  0  0  0  0
    1.4124   31.4760    9.3897 C   0  0  0  0  0  0  0  0  0  0  0  0
    0.4200   31.4849    8.7321 O   0  0  0  0  0  0  0  0  0  0  0  0
    3.2214   30.5326    9.9204 H   0  0  0  0  0  0  0  0  0  0  0  0
    1.7375   32.6089   10.3607 C   0  0  0  0  0  0  0  0  0  0  0  0
    2.9606   33.1036    9.7525 N   0  0  0  0  0  0  0  0  0  0  0  0
    3.1179   34.5068    9.3706 C   0  0  0  0  0  0  0  0  0  0  0  0
    2.2506   35.2819    9.6109 O   0  0  0  0  0  0  0  0  0  0  0  0
    4.4121   34.9767    8.6813 C   0  0  0  0  0  0  0  0  0  0  0  0
    3.7035   32.4775    9.5930 H   0  0  0  0  0  0  0  0  0  0  0  0
    1.9562   31.9984   11.7508 C   0  0  0  0  0  0  0  0  0  0  0  0
    1.1709   32.7104   12.8887 C   0  0  0  0  0  0  0  0  0  0  0  0
    0.5132   34.0326   12.3992 C   0  0  0  0  0  0  0  0  0  0  0  0
    1.2570   35.2920   12.9211 C   0  0  0  0  0  0  0  0  0  0  0  0
    0.9509   36.4822   12.1136 N   0  0  0  0  0  0  0  0  0  0  0  0
   -0.0490   36.6777   12.1616 H   0  0  0  0  0  0  0  0  0  0  0  0
    1.2181   36.3131   11.1438 H   0  0  0  0  0  0  0  0  0  0  0  0
    3.4994   29.3040    7.3601 C   0  0  0  0  0  0  0  0  0  0  0  0
    2.8304   29.6553    6.0929 N   0  0  0  0  0  0  0  0  0  0  0  0
    1.8705   29.3104    6.1009 H   0  0  0  0  0  0  0  0  0  0  0  0
    3.5733   29.0290    5.0024 C   0  0  0  0  0  0  0  0  0  0  0  0
    4.9291   28.4895    5.4890 C   0  0  0  0  0  0  0  0  0  0  0  0
    6.1119   29.2212    4.8276 C   0  0  0  0  0  0  0  0  0  0  0  0
    5.0329   27.1177    5.2132 O   0  0  0  0  0  0  0  0  0  0  0  0
    4.9917   26.9767    4.2544 H   0  0  0  0  0  0  0  0  0  0  0  0
    1.8403   27.2198    5.2924 N   0  0  0  0  0  0  0  0  0  0  0  0
    2.7531   27.8990    4.3551 C   0  0  0  0  0  0  0  0  0  0  0  0
    2.8720   27.6145    3.1984 O   0  0  0  0  0  0  0  0  0  0  0  0
    1.8847   27.5555    6.2168 H   0  0  0  0  0  0  0  0  0  0  0  0
    0.8840   26.1392    5.0917 C   0  0  0  0  0  0  0  0  0  0  0  0
    1.3617   25.0809    4.1111 C   0  0  0  0  0  0  0  0  0  0  0  0
    2.0944   24.2272    4.4843 O   0  0  0  0  0  0  0  0  0  0  0  0
    0.9233   25.1146    2.7139 N   0  0  0  0  0  0  0  0  0  0  0  0
    0.3147   25.8246    2.4059 H   0  0  0  0  0  0  0  0  0  0  0  0
    1.2372   24.4273    2.0828 H   0  0  0  0  0  0  0  0  0  0  0  0
    0.6365   25.5889    6.5200 C   0  0  0  0  0  0  0  0  0  0  0  0
   -1.2816   25.9571    8.1712 C   0  0  0  0  0  0  0  0  0  0  0  0
   -2.6266   25.9441    8.5578 C   0  0  0  0  0  0  0  0  0  0  0  0
   -3.6169   25.5393    7.6367 C   0  0  0  0  0  0  0  0  0  0  0  0
   -3.2402   25.1397    6.3372 C   0  0  0  0  0  0  0  0  0  0  0  0
   -1.8885   25.1570    5.9799 C   0  0  0  0  0  0  0  0  0  0  0  0
   -0.8920   25.5586    6.8922 C   0  0  0  0  0  0  0  0  0  0  0  0
    2.6742   27.9745    9.3680 C   0  0  0  0  0  0  0  0  0  0  0  0
    2.8942   28.3918   10.7151 O   0  0  0  0  0  0  0  0  0  0  0  0
    2.2424   27.6087   11.7145 C   0  0  0  0  0  0  0  0  0  0  0  0
    1.0235   28.4058   12.2534 C   0  0  0  0  0  0  0  0  0  0  0  0
   -0.0342   28.7530   11.3992 C   0  0  0  0  0  0  0  0  0  0  0  0
   -1.1020   29.4734   11.9347 C   0  0  0  0  0  0  0  0  0  0  0  0
   -1.0781   29.8153   13.2895 C   0  0  0  0  0  0  0  0  0  0  0  0
   -0.0578   29.4704   14.0757 N   0  0  0  0  0  0  0  0  0  0  0  0
    0.9749   28.7823   13.5983 C   0  0  0  0  0  0  0  0  0  0  0  0
 39 40  2  0  0  0
 39 38  1  0  0  0
 40 41  1  0  0  0
 38 43  2  0  0  0
 41 42  2  0  0  0
 43 42  1  0  0  0
 43 37  1  0  0  0
 37 31  1  0  0  0
 16 15  1  0  0  0
 34 32  1  0  0  0
 15 14  1  0  0  0
 31 27  1  0  0  0
 31 32  1  0  0  0
 14 13  1  0  0  0
 27 28  1  0  0  0
 32 33  2  0  0  0
 13 12  1  0  0  0
 28 22  1  0  0  0
 28 29  2  0  0  0
 12  6  1  0  0  0
 22 23  1  0  0  0
 22 20  1  0  0  0
 23 24  1  0  0  0
 23 25  1  0  0  0
 19 20  1  0  0  0
 19  1  1  0  0  0
  6  3  1  0  0  0
  6  7  1  0  0  0
  3  2  1  0  0  0
  3  4  2  0  0  0
  2  1  1  0  0  0
  1 44  1  0  0  0
  7  8  1  0  0  0
 44 45  1  0  0  0
  8  9  2  0  0  0
  8 10  1  0  0  0
 45 46  1  0  0  0
 46 47  1  0  0  0
 52 47  2  0  0  0
 52 51  1  0  0  0
 47 48  1  0  0  0
 51 50  2  0  0  0
 48 49  2  0  0  0
 50 49  1  0  0  0
 34 35  1  0  0  0
 34 36  1  0  0  0
 27 30  1  0  0  0
 25 26  1  0  0  0
 20 21  1  0  0  0
  2  5  1  0  0  0
  7 11  1  0  0  0
 16 17  1  0  0  0
 16 18  1  0  0  0
M  END
> <minimizedAffinity>
-6.34958

$$$$
4U5S_3D0_A_501


 52 53  0  0  0  0  0  0  0  0999 V2000
    1.7817   29.7212   10.2676 C   0  0  0  0  0  0  0  0  0  0  0  0
    2.4760   29.7490    8.9810 N   0  0  0  0  0  0  0  0  0  0  0  0
    2.0297   30.3733    7.7122 C   0  0  0  0  0  0  0  0  0  0  0  0
    0.9979   30.9518    7.5773 O   0  0  0  0  0  0  0  0  0  0  0  0
    3.3498   29.2963    8.9538 H   0  0  0  0  0  0  0  0  0  0  0  0
    2.9982   30.1847    6.5468 C   0  0  0  0  0  0  0  0  0  0  0  0
    2.6174   28.8455    6.1317 N   0  0  0  0  0  0  0  0  0  0  0  0
    2.4756   28.4877    4.7206 C   0  0  0  0  0  0  0  0  0  0  0  0
    2.7305   29.2899    3.8825 O   0  0  0  0  0  0  0  0  0  0  0  0
    2.0197   27.0704    4.3276 C   0  0  0  0  0  0  0  0  0  0  0  0
    2.4504   28.1604    6.8188 H   0  0  0  0  0  0  0  0  0  0  0  0
    4.4280   30.2651    7.0962 C   0  0  0  0  0  0  0  0  0  0  0  0
    5.4625   29.4168    6.3034 C   0  0  0  0  0  0  0  0  0  0  0  0
    6.0047   30.1781    5.0598 C   0  0  0  0  0  0  0  0  0  0  0  0
    6.3428   29.2233    3.8825 C   0  0  0  0  0  0  0  0  0  0  0  0
    5.3721   29.3433    2.7845 N   0  0  0  0  0  0  0  0  0  0  0  0
    5.3886   30.2952    2.4186 H   0  0  0  0  0  0  0  0  0  0  0  0
    4.4374   29.1288    3.1321 H   0  0  0  0  0  0  0  0  0  0  0  0
    1.3359   28.3014   10.6573 C   0  0  0  0  0  0  0  0  0  0  0  0
    0.0190   28.3575   11.3204 N   0  0  0  0  0  0  0  0  0  0  0  0
   -0.1526   29.3001   11.6702 H   0  0  0  0  0  0  0  0  0  0  0  0
    0.0340   27.4108   12.4326 C   0  0  0  0  0  0  0  0  0  0  0  0
   -0.8575   27.8948   13.5888 C   0  0  0  0  0  0  0  0  0  0  0  0
   -0.0372   28.2283   14.8489 C   0  0  0  0  0  0  0  0  0  0  0  0
   -1.8075   26.9143   13.9126 O   0  0  0  0  0  0  0  0  0  0  0  0
   -1.3538   26.1111   14.2125 H   0  0  0  0  0  0  0  0  0  0  0  0
   -1.4974   26.0337   10.9768 N   0  0  0  0  0  0  0  0  0  0  0  0
   -0.4086   26.0111   11.9703 C   0  0  0  0  0  0  0  0  0  0  0  0
    0.0961   25.0145   12.4006 O   0  0  0  0  0  0  0  0  0  0  0  0
   -1.8211   26.9354   10.7503 H   0  0  0  0  0  0  0  0  0  0  0  0
   -2.1788   24.9566   10.2712 C   0  0  0  0  0  0  0  0  0  0  0  0
   -3.0064   24.0638   11.1809 C   0  0  0  0  0  0  0  0  0  0  0  0
   -2.5901   22.9976   11.4889 O   0  0  0  0  0  0  0  0  0  0  0  0
   -4.3104   24.5142   11.6732 N   0  0  0  0  0  0  0  0  0  0  0  0
   -4.6544   25.4001   11.4162 H   0  0  0  0  0  0  0  0  0  0  0  0
   -4.8428   23.9310   12.2611 H   0  0  0  0  0  0  0  0  0  0  0  0
   -3.0209   25.6890    9.1947 C   0  0  0  0  0  0  0  0  0  0  0  0
   -3.2831   25.0624    6.7289 C   0  0  0  0  0  0  0  0  0  0  0  0
   -2.8136   24.8712    5.4244 C   0  0  0  0  0  0  0  0  0  0  0  0
   -1.4621   25.1414    5.1190 C   0  0  0  0  0  0  0  0  0  0  0  0
   -0.5930   25.5907    6.1353 C   0  0  0  0  0  0  0  0  0  0  0  0
   -1.0876   25.7675    7.4312 C   0  0  0  0  0  0  0  0  0  0  0  0
   -2.4350   25.4997    7.7468 C   0  0  0  0  0  0  0  0  0  0  0  0
    2.6682   30.3577   11.3477 C   0  0  0  0  0  0  0  0  0  0  0  0
    2.1638   29.9987   12.6337 O   0  0  0  0  0  0  0  0  0  0  0  0
    2.0285   31.0742   13.5621 C   0  0  0  0  0  0  0  0  0  0  0  0
    0.9056   32.0233   13.0624 C   0  0  0  0  0  0  0  0  0  0  0  0
    1.1749   33.3787   12.8188 C   0  0  0  0  0  0  0  0  0  0  0  0
    0.1283   34.1873   12.3755 C   0  0  0  0  0  0  0  0  0  0  0  0
   -1.1354   33.6203   12.1900 C   0  0  0  0  0  0  0  0  0  0  0  0
   -1.3595   32.3279   12.4302 N   0  0  0  0  0  0  0  0  0  0  0  0
   -0.3843   31.5286   12.8518 C   0  0  0  0  0  0  0  0  0  0  0  0
 39 40  2  0  0  0
 39 38  1  0  0  0
 40 41  1  0  0  0
 38 43  2  0  0  0
 41 42  2  0  0  0
 43 42  1  0  0  0
 43 37  1  0  0  0
 37 31  1  0  0  0
 16 15  1  0  0  0
 34 32  1  0  0  0
 15 14  1  0  0  0
 31 27  1  0  0  0
 31 32  1  0  0  0
 14 13  1  0  0  0
 27 28  1  0  0  0
 32 33  2  0  0  0
 13 12  1  0  0  0
 28 22  1  0  0  0
 28 29  2  0  0  0
 12  6  1  0  0  0
 22 23  1  0  0  0
 22 20  1  0  0  0
 23 24  1  0  0  0
 23 25  1  0  0  0
 19 20  1  0  0  0
 19  1  1  0  0  0
  6  3  1  0  0  0
  6  7  1  0  0  0
  3  2  1  0  0  0
  3  4  2  0  0  0
  2  1  1  0  0  0
  1 44  1  0  0  0
  7  8  1  0  0  0
 44 45  1  0  0  0
  8  9  2  0  0  0
  8 10  1  0  0  0
 45 46  1  0  0  0
 46 47  1  0  0  0
 52 47  2  0  0  0
 52 51  1  0  0  0
 47 48  1  0  0  0
 51 50  2  0  0  0
 48 49  2  0  0  0
 50 49  1  0  0  0
 34 35  1  0  0  0
 34 36  1  0  0  0
 27 30  1  0  0  0
 25 26  1  0  0  0
 20 21  1  0  0  0
  2  5  1  0  0  0
  7 11  1  0  0  0
 16 17  1  0  0  0
 16 18  1  0  0  0
M  END
> <minimizedAffinity>
-6.34818

$$$$
4U5S_3D0_A_501


 52 53  0  0  0  0  0  0  0  0999 V2000
    2.7758   31.2666    8.4525 C   0  0  0  0  0  0  0  0  0  0  0  0
    1.6420   31.7574    9.2346 N   0  0  0  0  0  0  0  0  0  0  0  0
    0.6249   30.9672    9.9692 C   0  0  0  0  0  0  0  0  0  0  0  0
    0.6022   29.7775   10.0095 O   0  0  0  0  0  0  0  0  0  0  0  0
    1.5413   32.7358    9.2790 H   0  0  0  0  0  0  0  0  0  0  0  0
   -0.4442   31.8104   10.6604 C   0  0  0  0  0  0  0  0  0  0  0  0
    0.4033   32.8202   11.2709 N   0  0  0  0  0  0  0  0  0  0  0  0
   -0.0767   34.1789   11.5225 C   0  0  0  0  0  0  0  0  0  0  0  0
   -1.2046   34.4586   11.2767 O   0  0  0  0  0  0  0  0  0  0  0  0
    0.8723   35.2317   12.1242 C   0  0  0  0  0  0  0  0  0  0  0  0
    1.3253   32.5837   11.5220 H   0  0  0  0  0  0  0  0  0  0  0  0
   -1.1638   30.9236   11.6844 C   0  0  0  0  0  0  0  0  0  0  0  0
   -0.6678   31.1098   13.1465 C   0  0  0  0  0  0  0  0  0  0  0  0
    0.2770   29.9559   13.5891 C   0  0  0  0  0  0  0  0  0  0  0  0
    1.7571   30.4129   13.7008 C   0  0  0  0  0  0  0  0  0  0  0  0
    1.8733   31.8767   13.7792 N   0  0  0  0  0  0  0  0  0  0  0  0
    1.3877   32.2123   14.6110 H   0  0  0  0  0  0  0  0  0  0  0  0
    1.4549   32.2960   12.9488 H   0  0  0  0  0  0  0  0  0  0  0  0
    2.3293   30.5613    7.1603 C   0  0  0  0  0  0  0  0  0  0  0  0
    3.1540   29.3580    6.9394 N   0  0  0  0  0  0  0  0  0  0  0  0
    4.0207   29.4296    7.4724 H   0  0  0  0  0  0  0  0  0  0  0  0
    3.4548   29.2736    5.5126 C   0  0  0  0  0  0  0  0  0  0  0  0
    4.8526   28.6788    5.2716 C   0  0  0  0  0  0  0  0  0  0  0  0
    5.5034   29.2356    3.9916 C   0  0  0  0  0  0  0  0  0  0  0  0
    4.7746   27.2816    5.1697 O   0  0  0  0  0  0  0  0  0  0  0  0
    4.2225   27.0432    4.4086 H   0  0  0  0  0  0  0  0  0  0  0  0
    1.9301   27.2647    5.5286 N   0  0  0  0  0  0  0  0  0  0  0  0
    2.3896   28.4444    4.7734 C   0  0  0  0  0  0  0  0  0  0  0  0
    1.9959   28.7479    3.6844 O   0  0  0  0  0  0  0  0  0  0  0  0
    2.3757   27.1407    6.3977 H   0  0  0  0  0  0  0  0  0  0  0  0
    0.9328   26.2500    5.2153 C   0  0  0  0  0  0  0  0  0  0  0  0
    1.3720   25.2832    4.1281 C   0  0  0  0  0  0  0  0  0  0  0  0
    0.5825   24.9053    3.3288 O   0  0  0  0  0  0  0  0  0  0  0  0
    2.7598   24.8184    4.0674 N   0  0  0  0  0  0  0  0  0  0  0  0
    3.4140   25.1335    4.7322 H   0  0  0  0  0  0  0  0  0  0  0  0
    3.0383   24.1909    3.3617 H   0  0  0  0  0  0  0  0  0  0  0  0
    0.6588   25.5620    6.5776 C   0  0  0  0  0  0  0  0  0  0  0  0
   -1.7913   25.1453    5.9735 C   0  0  0  0  0  0  0  0  0  0  0  0
   -3.1646   25.1194    6.2419 C   0  0  0  0  0  0  0  0  0  0  0  0
   -3.6362   25.4873    7.5206 C   0  0  0  0  0  0  0  0  0  0  0  0
   -2.7188   25.8898    8.5139 C   0  0  0  0  0  0  0  0  0  0  0  0
   -1.3527   25.9120    8.2163 C   0  0  0  0  0  0  0  0  0  0  0  0
   -0.8717   25.5474    6.9426 C   0  0  0  0  0  0  0  0  0  0  0  0
    3.7456   32.4221    8.1661 C   0  0  0  0  0  0  0  0  0  0  0  0
    4.4448   32.1517    6.9515 O   0  0  0  0  0  0  0  0  0  0  0  0
    5.8537   31.9660    7.0826 C   0  0  0  0  0  0  0  0  0  0  0  0
    6.5248   32.2773    5.7172 C   0  0  0  0  0  0  0  0  0  0  0  0
    7.8771   31.9707    5.5021 C   0  0  0  0  0  0  0  0  0  0  0  0
    8.4303   32.2760    4.2585 C   0  0  0  0  0  0  0  0  0  0  0  0
    7.6226   32.8669    3.2832 C   0  0  0  0  0  0  0  0  0  0  0  0
    6.3400   33.1459    3.5184 N   0  0  0  0  0  0  0  0  0  0  0  0
    5.7804   32.8666    4.6917 C   0  0  0  0  0  0  0  0  0  0  0  0
 39 40  2  0  0  0
 39 38  1  0  0  0
 40 41  1  0  0  0
 38 43  2  0  0  0
 41 42  2  0  0  0
 43 42  1  0  0  0
 43 37  1  0  0  0
 37 31  1  0  0  0
 16 15  1  0  0  0
 34 32  1  0  0  0
 15 14  1  0  0  0
 31 27  1  0  0  0
 31 32  1  0  0  0
 14 13  1  0  0  0
 27 28  1  0  0  0
 32 33  2  0  0  0
 13 12  1  0  0  0
 28 22  1  0  0  0
 28 29  2  0  0  0
 12  6  1  0  0  0
 22 23  1  0  0  0
 22 20  1  0  0  0
 23 24  1  0  0  0
 23 25  1  0  0  0
 19 20  1  0  0  0
 19  1  1  0  0  0
  6  3  1  0  0  0
  6  7  1  0  0  0
  3  2  1  0  0  0
  3  4  2  0  0  0
  2  1  1  0  0  0
  1 44  1  0  0  0
  7  8  1  0  0  0
 44 45  1  0  0  0
  8  9  2  0  0  0
  8 10  1  0  0  0
 45 46  1  0  0  0
 46 47  1  0  0  0
 52 47  2  0  0  0
 52 51  1  0  0  0
 47 48  1  0  0  0
 51 50  2  0  0  0
 48 49  2  0  0  0
 50 49  1  0  0  0
 34 35  1  0  0  0
 34 36  1  0  0  0
 27 30  1  0  0  0
 25 26  1  0  0  0
 20 21  1  0  0  0
  2  5  1  0  0  0
  7 11  1  0  0  0
 16 17  1  0  0  0
 16 18  1  0  0  0
M  END
> <minimizedAffinity>
-6.32586

$$$$
4U5S_3D0_A_501


 52 53  0  0  0  0  0  0  0  0999 V2000
    2.3242   28.6286    7.6921 C   0  0  0  0  0  0  0  0  0  0  0  0
    2.3247   29.7610    8.6172 N   0  0  0  0  0  0  0  0  0  0  0  0
    1.6032   31.0500    8.4881 C   0  0  0  0  0  0  0  0  0  0  0  0
    0.9053   31.3374    7.5674 O   0  0  0  0  0  0  0  0  0  0  0  0
    2.8731   29.6541    9.4278 H   0  0  0  0  0  0  0  0  0  0  0  0
    1.8548   32.0262    9.6351 C   0  0  0  0  0  0  0  0  0  0  0  0
    0.4996   32.1560   10.1423 N   0  0  0  0  0  0  0  0  0  0  0  0
    0.2025   32.0854   11.5728 C   0  0  0  0  0  0  0  0  0  0  0  0
    1.0915   31.9756   12.3528 O   0  0  0  0  0  0  0  0  0  0  0  0
   -1.2547   32.1762   12.0620 C   0  0  0  0  0  0  0  0  0  0  0  0
   -0.2387   32.2951    9.5060 H   0  0  0  0  0  0  0  0  0  0  0  0
    2.4068   33.3284    9.0416 C   0  0  0  0  0  0  0  0  0  0  0  0
    2.8305   34.3820   10.1040 C   0  0  0  0  0  0  0  0  0  0  0  0
    1.6654   35.3509   10.4559 C   0  0  0  0  0  0  0  0  0  0  0  0
    2.1596   36.6316   11.1821 C   0  0  0  0  0  0  0  0  0  0  0  0
    1.2219   37.0633   12.2293 N   0  0  0  0  0  0  0  0  0  0  0  0
    1.1355   36.3291   12.9321 H   0  0  0  0  0  0  0  0  0  0  0  0
    0.3083   37.2452   11.8137 H   0  0  0  0  0  0  0  0  0  0  0  0
    3.3811   28.7817    6.5848 C   0  0  0  0  0  0  0  0  0  0  0  0
    2.7966   29.4969    5.4342 N   0  0  0  0  0  0  0  0  0  0  0  0
    1.7847   29.5622    5.5447 H   0  0  0  0  0  0  0  0  0  0  0  0
    3.1158   28.7422    4.2251 C   0  0  0  0  0  0  0  0  0  0  0  0
    4.6160   28.8248    3.8958 C   0  0  0  0  0  0  0  0  0  0  0  0
    5.1087   30.2816    3.8126 C   0  0  0  0  0  0  0  0  0  0  0  0
    4.8809   28.1861    2.6750 O   0  0  0  0  0  0  0  0  0  0  0  0
    4.4021   28.6384    1.9629 H   0  0  0  0  0  0  0  0  0  0  0  0
    1.2201   27.0874    4.3954 N   0  0  0  0  0  0  0  0  0  0  0  0
    2.6823   27.2719    4.3634 C   0  0  0  0  0  0  0  0  0  0  0  0
    3.4798   26.3828    4.4438 O   0  0  0  0  0  0  0  0  0  0  0  0
    0.7045   27.9248    4.3481 H   0  0  0  0  0  0  0  0  0  0  0  0
    0.4036   25.8843    4.4848 C   0  0  0  0  0  0  0  0  0  0  0  0
    0.8897   24.7538    3.5930 C   0  0  0  0  0  0  0  0  0  0  0  0
    1.4253   23.8150    4.0797 O   0  0  0  0  0  0  0  0  0  0  0  0
    0.7010   24.8222    2.1420 N   0  0  0  0  0  0  0  0  0  0  0  0
    0.2559   25.6028    1.7398 H   0  0  0  0  0  0  0  0  0  0  0  0
    1.0193   24.0876    1.5690 H   0  0  0  0  0  0  0  0  0  0  0  0
    0.4234   25.5302    5.9943 C   0  0  0  0  0  0  0  0  0  0  0  0
   -1.1731   25.9185    7.9543 C   0  0  0  0  0  0  0  0  0  0  0  0
   -2.4310   25.9253    8.5679 C   0  0  0  0  0  0  0  0  0  0  0  0
   -3.5729   25.5444    7.8303 C   0  0  0  0  0  0  0  0  0  0  0  0
   -3.4340   25.1483    6.4835 C   0  0  0  0  0  0  0  0  0  0  0  0
   -2.1644   25.1454    5.8976 C   0  0  0  0  0  0  0  0  0  0  0  0
   -1.0179   25.5231    6.6254 C   0  0  0  0  0  0  0  0  0  0  0  0
    2.5040   27.3204    8.4757 C   0  0  0  0  0  0  0  0  0  0  0  0
    1.5315   27.2665    9.5191 O   0  0  0  0  0  0  0  0  0  0  0  0
    2.0558   27.2432   10.8462 C   0  0  0  0  0  0  0  0  0  0  0  0
    0.9966   27.8450   11.8093 C   0  0  0  0  0  0  0  0  0  0  0  0
    1.3651   28.2782   13.0920 C   0  0  0  0  0  0  0  0  0  0  0  0
    0.3725   28.8063   13.9176 C   0  0  0  0  0  0  0  0  0  0  0  0
   -0.9377   28.8855   13.4380 C   0  0  0  0  0  0  0  0  0  0  0  0
   -1.2562   28.4653   12.2133 N   0  0  0  0  0  0  0  0  0  0  0  0
   -0.3347   27.9583   11.3998 C   0  0  0  0  0  0  0  0  0  0  0  0
 39 40  2  0  0  0
 39 38  1  0  0  0
 40 41  1  0  0  0
 38 43  2  0  0  0
 41 42  2  0  0  0
 43 42  1  0  0  0
 43 37  1  0  0  0
 37 31  1  0  0  0
 16 15  1  0  0  0
 34 32  1  0  0  0
 15 14  1  0  0  0
 31 27  1  0  0  0
 31 32  1  0  0  0
 14 13  1  0  0  0
 27 28  1  0  0  0
 32 33  2  0  0  0
 13 12  1  0  0  0
 28 22  1  0  0  0
 28 29  2  0  0  0
 12  6  1  0  0  0
 22 23  1  0  0  0
 22 20  1  0  0  0
 23 24  1  0  0  0
 23 25  1  0  0  0
 19 20  1  0  0  0
 19  1  1  0  0  0
  6  3  1  0  0  0
  6  7  1  0  0  0
  3  2  1  0  0  0
  3  4  2  0  0  0
  2  1  1  0  0  0
  1 44  1  0  0  0
  7  8  1  0  0  0
 44 45  1  0  0  0
  8  9  2  0  0  0
  8 10  1  0  0  0
 45 46  1  0  0  0
 46 47  1  0  0  0
 52 47  2  0  0  0
 52 51  1  0  0  0
 47 48  1  0  0  0
 51 50  2  0  0  0
 48 49  2  0  0  0
 50 49  1  0  0  0
 34 35  1  0  0  0
 34 36  1  0  0  0
 27 30  1  0  0  0
 25 26  1  0  0  0
 20 21  1  0  0  0
  2  5  1  0  0  0
  7 11  1  0  0  0
 16 17  1  0  0  0
 16 18  1  0  0  0
M  END
> <minimizedAffinity>
-6.32139

$$$$
4U5S_3D0_A_501


 52 53  0  0  0  0  0  0  0  0999 V2000
    1.4879   31.2802    8.4952 C   0  0  0  0  0  0  0  0  0  0  0  0
    2.0421   30.2679    7.5974 N   0  0  0  0  0  0  0  0  0  0  0  0
    1.7246   28.8206    7.5411 C   0  0  0  0  0  0  0  0  0  0  0  0
    0.9455   28.2775    8.2591 O   0  0  0  0  0  0  0  0  0  0  0  0
    2.7101   30.5874    6.9487 H   0  0  0  0  0  0  0  0  0  0  0  0
    2.5176   28.0458    6.4909 C   0  0  0  0  0  0  0  0  0  0  0  0
    3.6167   27.5766    7.3171 N   0  0  0  0  0  0  0  0  0  0  0  0
    3.7284   26.1772    7.7281 C   0  0  0  0  0  0  0  0  0  0  0  0
    2.9360   25.3844    7.3352 O   0  0  0  0  0  0  0  0  0  0  0  0
    4.8818   25.7343    8.6469 C   0  0  0  0  0  0  0  0  0  0  0  0
    4.3047   28.2177    7.6082 H   0  0  0  0  0  0  0  0  0  0  0  0
    2.9570   29.0316    5.4010 C   0  0  0  0  0  0  0  0  0  0  0  0
    2.2613   28.8125    4.0275 C   0  0  0  0  0  0  0  0  0  0  0  0
    3.2724   28.3752    2.9291 C   0  0  0  0  0  0  0  0  0  0  0  0
    4.3136   29.4821    2.6089 C   0  0  0  0  0  0  0  0  0  0  0  0
    4.0447   30.1289    1.3160 N   0  0  0  0  0  0  0  0  0  0  0  0
    3.1268   30.5731    1.3425 H   0  0  0  0  0  0  0  0  0  0  0  0
    4.0620   29.4281    0.5751 H   0  0  0  0  0  0  0  0  0  0  0  0
    1.5144   30.8304    9.9661 C   0  0  0  0  0  0  0  0  0  0  0  0
    0.1453   30.5110   10.4138 N   0  0  0  0  0  0  0  0  0  0  0  0
   -0.4106   31.3648   10.4640 H   0  0  0  0  0  0  0  0  0  0  0  0
    0.2352   29.8993   11.7371 C   0  0  0  0  0  0  0  0  0  0  0  0
   -0.2593   30.8611   12.8309 C   0  0  0  0  0  0  0  0  0  0  0  0
   -1.0552   32.0417   12.2438 C   0  0  0  0  0  0  0  0  0  0  0  0
    0.8273   31.3653   13.5614 O   0  0  0  0  0  0  0  0  0  0  0  0
    1.4072   31.8710   12.9707 H   0  0  0  0  0  0  0  0  0  0  0  0
   -0.1756   27.6191   10.7408 N   0  0  0  0  0  0  0  0  0  0  0  0
   -0.5583   28.5817   11.7897 C   0  0  0  0  0  0  0  0  0  0  0  0
   -1.4071   28.3874   12.6111 O   0  0  0  0  0  0  0  0  0  0  0  0
    0.5202   27.9452   10.1254 H   0  0  0  0  0  0  0  0  0  0  0  0
   -0.6457   26.2702   10.4545 C   0  0  0  0  0  0  0  0  0  0  0  0
   -0.6629   25.3625   11.6734 C   0  0  0  0  0  0  0  0  0  0  0  0
    0.2952   24.7146   11.9327 O   0  0  0  0  0  0  0  0  0  0  0  0
   -1.8544   25.2853   12.5219 N   0  0  0  0  0  0  0  0  0  0  0  0
   -2.6491   25.8243   12.3048 H   0  0  0  0  0  0  0  0  0  0  0  0
   -1.8605   24.6944   13.3094 H   0  0  0  0  0  0  0  0  0  0  0  0
   -2.0474   26.4878    9.8285 C   0  0  0  0  0  0  0  0  0  0  0  0
   -3.3629   25.5551    7.8433 C   0  0  0  0  0  0  0  0  0  0  0  0
   -3.4909   25.0755    6.5347 C   0  0  0  0  0  0  0  0  0  0  0  0
   -2.3577   25.0190    5.6947 C   0  0  0  0  0  0  0  0  0  0  0  0
   -1.1028   25.4357    6.1863 C   0  0  0  0  0  0  0  0  0  0  0  0
   -1.0029   25.9051    7.4997 C   0  0  0  0  0  0  0  0  0  0  0  0
   -2.1279   25.9647    8.3467 C   0  0  0  0  0  0  0  0  0  0  0  0
    2.2257   32.6114    8.2921 C   0  0  0  0  0  0  0  0  0  0  0  0
    3.2157   32.7540    9.3103 O   0  0  0  0  0  0  0  0  0  0  0  0
    3.6034   34.0952    9.6060 C   0  0  0  0  0  0  0  0  0  0  0  0
    2.7206   34.6223   10.7697 C   0  0  0  0  0  0  0  0  0  0  0  0
    2.1258   35.8910   10.6941 C   0  0  0  0  0  0  0  0  0  0  0  0
    1.3465   36.3165   11.7699 C   0  0  0  0  0  0  0  0  0  0  0  0
    1.1874   35.4690   12.8696 C   0  0  0  0  0  0  0  0  0  0  0  0
    1.7658   34.2683   12.9113 N   0  0  0  0  0  0  0  0  0  0  0  0
    2.5136   33.8308   11.9027 C   0  0  0  0  0  0  0  0  0  0  0  0
 39 40  2  0  0  0
 39 38  1  0  0  0
 40 41  1  0  0  0
 38 43  2  0  0  0
 41 42  2  0  0  0
 43 42  1  0  0  0
 43 37  1  0  0  0
 37 31  1  0  0  0
 16 15  1  0  0  0
 34 32  1  0  0  0
 15 14  1  0  0  0
 31 27  1  0  0  0
 31 32  1  0  0  0
 14 13  1  0  0  0
 27 28  1  0  0  0
 32 33  2  0  0  0
 13 12  1  0  0  0
 28 22  1  0  0  0
 28 29  2  0  0  0
 12  6  1  0  0  0
 22 23  1  0  0  0
 22 20  1  0  0  0
 23 24  1  0  0  0
 23 25  1  0  0  0
 19 20  1  0  0  0
 19  1  1  0  0  0
  6  3  1  0  0  0
  6  7  1  0  0  0
  3  2  1  0  0  0
  3  4  2  0  0  0
  2  1  1  0  0  0
  1 44  1  0  0  0
  7  8  1  0  0  0
 44 45  1  0  0  0
  8  9  2  0  0  0
  8 10  1  0  0  0
 45 46  1  0  0  0
 46 47  1  0  0  0
 52 47  2  0  0  0
 52 51  1  0  0  0
 47 48  1  0  0  0
 51 50  2  0  0  0
 48 49  2  0  0  0
 50 49  1  0  0  0
 34 35  1  0  0  0
 34 36  1  0  0  0
 27 30  1  0  0  0
 25 26  1  0  0  0
 20 21  1  0  0  0
  2  5  1  0  0  0
  7 11  1  0  0  0
 16 17  1  0  0  0
 16 18  1  0  0  0
M  END
> <minimizedAffinity>
-6.32041

$$$$
