2G5U_PCQ_A_240
  RCSB PDB12061705383D
Coordinates from PDB:2G5U:A:240 Model:1 without hydrogens
 18 19  0  0  0  0            999 V2000
   23.2650   44.6530    2.8850  Cl 0  0  0  0  0  0  0  0  0  0  0  0
   19.6570   41.0950    2.9490  Cl 0  0  0  0  0  0  0  0  0  0  0  0
   21.4260   42.8610    1.5420   O 0  0  0  0  0  0  0  0  0  0  0  0
   21.5090   42.8800    5.7480   C 0  0  0  0  0  0  0  0  0  0  0  0
   22.3460   43.7230    5.0080   C 0  0  0  0  0  0  0  0  0  0  0  0
   22.3250   43.7210    3.6090   C 0  0  0  0  0  0  0  0  0  0  0  0
   21.4580   42.8720    2.9140   C 0  0  0  0  0  0  0  0  0  0  0  0
   20.6160   42.0310    3.6410   C 0  0  0  0  0  0  0  0  0  0  0  0
   20.6480   42.0370    5.0390   C 0  0  0  0  0  0  0  0  0  0  0  0
   21.6270   40.3680   10.0400  Cl 0  0  0  0  0  0  0  0  0  0  0  0
   21.5400   45.3940   10.0440  Cl 0  0  0  0  0  0  0  0  0  0  0  0
   21.6060   42.8730   11.3390   O 0  0  0  0  0  0  0  0  0  0  0  0
   21.5340   42.8820    7.1530   C 0  0  0  0  0  0  0  0  0  0  0  0
   21.5640   41.6790    7.8730   C 0  0  0  0  0  0  0  0  0  0  0  0
   21.5930   41.6740    9.2730   C 0  0  0  0  0  0  0  0  0  0  0  0
   21.5830   42.8800    9.9710   C 0  0  0  0  0  0  0  0  0  0  0  0
   21.5470   44.0880    9.2780   C 0  0  0  0  0  0  0  0  0  0  0  0
   21.5270   44.0850    7.8770   C 0  0  0  0  0  0  0  0  0  0  0  0
  1  6  1  0  0  0  0
  2  8  1  0  0  0  0
  3  7  1  0  0  0  0
  4  5  2  0  0  0  0
  4  9  1  0  0  0  0
  4 13  1  0  0  0  0
  5  6  1  0  0  0  0
  6  7  2  0  0  0  0
  7  8  1  0  0  0  0
  8  9  2  0  0  0  0
 10 15  1  0  0  0  0
 11 17  1  0  0  0  0
 12 16  1  0  0  0  0
 13 14  2  0  0  0  0
 13 18  1  0  0  0  0
 14 15  1  0  0  0  0
 15 16  2  0  0  0  0
 16 17  1  0  0  0  0
 17 18  2  0  0  0  0
A    1
CL1
A    2
CL2
A    3
O1
A    4
C1
A    5
C2
A    6
C3
A    7
C4
A    8
C5
A    9
C6
A   10
CL3
A   11
CL4
A   12
O1'
A   13
C1'
A   14
C2'
A   15
C3'
A   16
C4'
A   17
C5'
A   18
C6'
M  END
>  <InstanceId>
2G5U_PCQ_A_240

>  <ChemCompId>
PCQ

>  <PdbId>
2G5U

>  <ChainId>
A

>  <ResidueNumber>
240

>  <InsertionCode>


>  <Model>
1

>  <AltIds>


>  <MissingHeavyAtoms>
0

>  <ObservedFormula>
C12 O2 Cl4

>  <Name>
3,5,3',5'-TETRACHLORO-BIPHENYL-4,4'-DIOL

>  <SystematicName>
2,6-dichloro-4-(3,5-dichloro-4-hydroxy-phenyl)phenol

>  <Synonyms>


>  <Type>
NON-POLYMER

>  <Formula>
C12 H6 Cl4 O2

>  <MolecularWeight>
323.987

>  <ModifiedDate>
2011-06-04

>  <Parent>


>  <OneLetterCode>


>  <SubcomponentList>


>  <AmbiguousFlag>
N

>  <InChI>
InChI=1S/C12H6Cl4O2/c13-7-1-5(2-8(14)11(7)17)6-3-9(15)12(18)10(16)4-6/h1-4,17-18H

>  <InChIKey>
YCYDXOVJXVALHY-UHFFFAOYSA-N

>  <SMILES>
c1c(cc(c(c1Cl)O)Cl)c2cc(c(c(c2)Cl)O)Cl

$$$$
