5FSO_S76_A_1158


 13 13  0  0  0  0  0  0  0  0999 V2000
   17.4798   20.8732    5.4158 O   0  0  0  0  0  0  0  0  0  0  0  0
   16.9978   21.4760    4.4637 C   0  0  0  0  0  0  0  0  0  0  0  0
   17.7771   22.2030    3.5953 N   0  0  0  0  0  0  0  0  0  0  0  0
   17.3400   22.8682    2.4588 C   0  0  0  0  0  0  0  0  0  0  0  0
   18.1508   23.5709    1.8268 O   0  0  0  0  0  0  0  0  0  0  0  0
   15.9353   22.7779    2.1921 C   0  0  0  0  0  0  0  0  0  0  0  0
   15.6712   21.3552    4.1287 N   0  0  0  0  0  0  0  0  0  0  0  0
   15.1238   22.0213    2.9990 C   0  0  0  0  0  0  0  0  0  0  0  0
   18.7387   22.2569    3.7996 H   0  0  0  0  0  0  0  0  0  0  0  0
   15.0849   20.7932    4.6852 H   0  0  0  0  0  0  0  0  0  0  0  0
   13.7807   21.9509    2.8593 N   0  0  0  0  0  0  0  0  0  0  0  0
   12.8670   21.6732    3.9539 C   0  0  0  0  0  0  0  0  0  0  0  0
   13.3997   22.0963    1.9632 H   0  0  0  0  0  0  0  0  0  0  0  0
  1  2  2  0  0  0
  2  3  1  0  0  0
  2  7  1  0  0  0
  3  4  1  0  0  0
  4  5  2  0  0  0
  4  6  1  0  0  0
  6  8  2  0  0  0
  7  8  1  0  0  0
  8 11  1  0  0  0
 11 12  1  0  0  0
  3  9  1  0  0  0
  7 10  1  0  0  0
 11 13  1  0  0  0
M  END
> <minimizedAffinity>
-5.92087

$$$$
5FSO_S76_A_1158


 13 13  0  0  0  0  0  0  0  0999 V2000
   17.2851   20.0164    6.3591 O   0  0  0  0  0  0  0  0  0  0  0  0
   16.7308   20.5818    5.4236 C   0  0  0  0  0  0  0  0  0  0  0  0
   15.3756   20.4815    5.2152 N   0  0  0  0  0  0  0  0  0  0  0  0
   14.6460   21.1270    4.2272 C   0  0  0  0  0  0  0  0  0  0  0  0
   13.4372   20.8557    4.1012 O   0  0  0  0  0  0  0  0  0  0  0  0
   15.4041   21.9677    3.3491 C   0  0  0  0  0  0  0  0  0  0  0  0
   17.4050   21.4551    4.6053 N   0  0  0  0  0  0  0  0  0  0  0  0
   16.7503   22.1422    3.5477 C   0  0  0  0  0  0  0  0  0  0  0  0
   14.8742   19.8946    5.8263 H   0  0  0  0  0  0  0  0  0  0  0  0
   18.3658   21.6088    4.7554 H   0  0  0  0  0  0  0  0  0  0  0  0
   17.5459   22.8541    2.7177 N   0  0  0  0  0  0  0  0  0  0  0  0
   17.0483   23.6807    1.6318 C   0  0  0  0  0  0  0  0  0  0  0  0
   18.5194   22.8095    2.8575 H   0  0  0  0  0  0  0  0  0  0  0  0
  1  2  2  0  0  0
  2  3  1  0  0  0
  2  7  1  0  0  0
  3  4  1  0  0  0
  4  5  2  0  0  0
  4  6  1  0  0  0
  6  8  2  0  0  0
  7  8  1  0  0  0
  8 11  1  0  0  0
 11 12  1  0  0  0
  3  9  1  0  0  0
  7 10  1  0  0  0
 11 13  1  0  0  0
M  END
> <minimizedAffinity>
-5.73380

$$$$
5FSO_S76_A_1158


 13 13  0  0  0  0  0  0  0  0999 V2000
   18.1028   23.4792    1.9525 O   0  0  0  0  0  0  0  0  0  0  0  0
   17.3399   22.7771    2.6061 C   0  0  0  0  0  0  0  0  0  0  0  0
   17.7436   22.1433    3.7573 N   0  0  0  0  0  0  0  0  0  0  0  0
   16.9465   21.3795    4.5978 C   0  0  0  0  0  0  0  0  0  0  0  0
   17.4807   20.7830    5.5514 O   0  0  0  0  0  0  0  0  0  0  0  0
   15.5763   21.2496    4.2000 C   0  0  0  0  0  0  0  0  0  0  0  0
   16.0032   22.6865    2.3033 N   0  0  0  0  0  0  0  0  0  0  0  0
   15.1122   21.9056    3.0881 C   0  0  0  0  0  0  0  0  0  0  0  0
   18.6901   22.2409    4.0099 H   0  0  0  0  0  0  0  0  0  0  0  0
   15.6536   23.1747    1.5231 H   0  0  0  0  0  0  0  0  0  0  0  0
   13.8563   21.7699    2.6054 N   0  0  0  0  0  0  0  0  0  0  0  0
   12.6997   21.4725    3.4323 C   0  0  0  0  0  0  0  0  0  0  0  0
   13.7178   21.8791    1.6368 H   0  0  0  0  0  0  0  0  0  0  0  0
  1  2  2  0  0  0
  2  3  1  0  0  0
  2  7  1  0  0  0
  3  4  1  0  0  0
  4  5  2  0  0  0
  4  6  1  0  0  0
  6  8  2  0  0  0
  7  8  1  0  0  0
  8 11  1  0  0  0
 11 12  1  0  0  0
  3  9  1  0  0  0
  7 10  1  0  0  0
 11 13  1  0  0  0
M  END
> <minimizedAffinity>
-5.65201

$$$$
5FSO_S76_A_1158


 13 13  0  0  0  0  0  0  0  0999 V2000
   13.1164   20.6743    4.7372 O   0  0  0  0  0  0  0  0  0  0  0  0
   14.2625   21.0605    4.5378 C   0  0  0  0  0  0  0  0  0  0  0  0
   15.2961   20.7321    5.3826 N   0  0  0  0  0  0  0  0  0  0  0  0
   16.6324   21.0661    5.2150 C   0  0  0  0  0  0  0  0  0  0  0  0
   17.4388   20.7835    6.1207 O   0  0  0  0  0  0  0  0  0  0  0  0
   16.9350   21.8334    4.0435 C   0  0  0  0  0  0  0  0  0  0  0  0
   14.6093   21.7323    3.3911 N   0  0  0  0  0  0  0  0  0  0  0  0
   15.9473   22.1415    3.1425 C   0  0  0  0  0  0  0  0  0  0  0  0
   15.0659   20.2092    6.1844 H   0  0  0  0  0  0  0  0  0  0  0  0
   13.9137   21.9353    2.7247 H   0  0  0  0  0  0  0  0  0  0  0  0
   16.1382   22.9262    2.0579 N   0  0  0  0  0  0  0  0  0  0  0  0
   17.4005   23.5694    1.7369 C   0  0  0  0  0  0  0  0  0  0  0  0
   15.3772   23.0700    1.4502 H   0  0  0  0  0  0  0  0  0  0  0  0
  1  2  2  0  0  0
  2  3  1  0  0  0
  2  7  1  0  0  0
  3  4  1  0  0  0
  4  5  2  0  0  0
  4  6  1  0  0  0
  6  8  2  0  0  0
  7  8  1  0  0  0
  8 11  1  0  0  0
 11 12  1  0  0  0
  3  9  1  0  0  0
  7 10  1  0  0  0
 11 13  1  0  0  0
M  END
> <minimizedAffinity>
-5.57888

$$$$
5FSO_S76_A_1158


 13 13  0  0  0  0  0  0  0  0999 V2000
   17.9729   23.7699    1.6147 O   0  0  0  0  0  0  0  0  0  0  0  0
   17.2497   23.0900    2.3338 C   0  0  0  0  0  0  0  0  0  0  0  0
   15.9262   22.8714    2.0330 N   0  0  0  0  0  0  0  0  0  0  0  0
   15.0426   22.0728    2.7447 C   0  0  0  0  0  0  0  0  0  0  0  0
   13.8447   22.0547    2.4053 O   0  0  0  0  0  0  0  0  0  0  0  0
   15.5867   21.4313    3.9045 C   0  0  0  0  0  0  0  0  0  0  0  0
   17.7471   22.3974    3.4107 N   0  0  0  0  0  0  0  0  0  0  0  0
   16.9146   21.5756    4.2176 C   0  0  0  0  0  0  0  0  0  0  0  0
   15.5709   23.3257    1.2351 H   0  0  0  0  0  0  0  0  0  0  0  0
   18.7042   22.4720    3.6289 H   0  0  0  0  0  0  0  0  0  0  0  0
   17.4822   21.0683    5.3351 N   0  0  0  0  0  0  0  0  0  0  0  0
   17.0275   19.8566    5.9948 C   0  0  0  0  0  0  0  0  0  0  0  0
   18.2486   21.5482    5.7245 H   0  0  0  0  0  0  0  0  0  0  0  0
  1  2  2  0  0  0
  2  3  1  0  0  0
  2  7  1  0  0  0
  3  4  1  0  0  0
  4  5  2  0  0  0
  4  6  1  0  0  0
  6  8  2  0  0  0
  7  8  1  0  0  0
  8 11  1  0  0  0
 11 12  1  0  0  0
  3  9  1  0  0  0
  7 10  1  0  0  0
 11 13  1  0  0  0
M  END
> <minimizedAffinity>
-5.53871

$$$$
5FSO_S76_A_1158


 13 13  0  0  0  0  0  0  0  0999 V2000
   13.3990   22.2846    4.2102 O   0  0  0  0  0  0  0  0  0  0  0  0
   14.5981   22.2189    3.9649 C   0  0  0  0  0  0  0  0  0  0  0  0
   15.1537   22.8599    2.8830 N   0  0  0  0  0  0  0  0  0  0  0  0
   16.5008   22.8980    2.5530 C   0  0  0  0  0  0  0  0  0  0  0  0
   16.8405   23.4356    1.4824 O   0  0  0  0  0  0  0  0  0  0  0  0
   17.3741   22.1867    3.4384 C   0  0  0  0  0  0  0  0  0  0  0  0
   15.4796   21.6126    4.8263 N   0  0  0  0  0  0  0  0  0  0  0  0
   16.8751   21.5750    4.5605 C   0  0  0  0  0  0  0  0  0  0  0  0
   14.5357   23.3383    2.2843 H   0  0  0  0  0  0  0  0  0  0  0  0
   15.1361   21.1936    5.6483 H   0  0  0  0  0  0  0  0  0  0  0  0
   17.6208   20.8205    5.3991 N   0  0  0  0  0  0  0  0  0  0  0  0
   17.1285   19.6299    6.0701 C   0  0  0  0  0  0  0  0  0  0  0  0
   18.5520   21.0941    5.5646 H   0  0  0  0  0  0  0  0  0  0  0  0
  1  2  2  0  0  0
  2  3  1  0  0  0
  2  7  1  0  0  0
  3  4  1  0  0  0
  4  5  2  0  0  0
  4  6  1  0  0  0
  6  8  2  0  0  0
  7  8  1  0  0  0
  8 11  1  0  0  0
 11 12  1  0  0  0
  3  9  1  0  0  0
  7 10  1  0  0  0
 11 13  1  0  0  0
M  END
> <minimizedAffinity>
-5.16792

$$$$
5FSO_S76_A_1158


 13 13  0  0  0  0  0  0  0  0999 V2000
   13.3043   20.1496    2.1222 O   0  0  0  0  0  0  0  0  0  0  0  0
   13.7294   21.0755    2.8036 C   0  0  0  0  0  0  0  0  0  0  0  0
   13.3062   21.2797    4.0955 N   0  0  0  0  0  0  0  0  0  0  0  0
   13.7672   22.2563    4.9667 C   0  0  0  0  0  0  0  0  0  0  0  0
   13.2126   22.3810    6.0747 O   0  0  0  0  0  0  0  0  0  0  0  0
   14.7766   23.1265    4.4409 C   0  0  0  0  0  0  0  0  0  0  0  0
   14.7494   21.8851    2.3666 N   0  0  0  0  0  0  0  0  0  0  0  0
   15.2697   22.9311    3.1757 C   0  0  0  0  0  0  0  0  0  0  0  0
   12.6084   20.6742    4.4356 H   0  0  0  0  0  0  0  0  0  0  0  0
   15.1295   21.7370    1.4706 H   0  0  0  0  0  0  0  0  0  0  0  0
   16.1626   23.7551    2.5821 N   0  0  0  0  0  0  0  0  0  0  0  0
   17.4334   23.3118    2.0356 C   0  0  0  0  0  0  0  0  0  0  0  0
   15.9383   24.7114    2.5163 H   0  0  0  0  0  0  0  0  0  0  0  0
  1  2  2  0  0  0
  2  3  1  0  0  0
  2  7  1  0  0  0
  3  4  1  0  0  0
  4  5  2  0  0  0
  4  6  1  0  0  0
  6  8  2  0  0  0
  7  8  1  0  0  0
  8 11  1  0  0  0
 11 12  1  0  0  0
  3  9  1  0  0  0
  7 10  1  0  0  0
 11 13  1  0  0  0
M  END
> <minimizedAffinity>
-5.10357

$$$$
5FSO_S76_A_1158


 13 13  0  0  0  0  0  0  0  0999 V2000
   13.5082   20.4813    2.1787 O   0  0  0  0  0  0  0  0  0  0  0  0
   13.7482   21.1505    3.1771 C   0  0  0  0  0  0  0  0  0  0  0  0
   12.8015   21.9678    3.7478 N   0  0  0  0  0  0  0  0  0  0  0  0
   12.9524   22.7159    4.9065 C   0  0  0  0  0  0  0  0  0  0  0  0
   12.0369   23.4897    5.2436 O   0  0  0  0  0  0  0  0  0  0  0  0
   14.2304   22.6134    5.5459 C   0  0  0  0  0  0  0  0  0  0  0  0
   14.9315   21.0254    3.8633 N   0  0  0  0  0  0  0  0  0  0  0  0
   15.1904   21.7710    5.0451 C   0  0  0  0  0  0  0  0  0  0  0  0
   11.9321   22.0281    3.2898 H   0  0  0  0  0  0  0  0  0  0  0  0
   15.6173   20.4037    3.5282 H   0  0  0  0  0  0  0  0  0  0  0  0
   16.4437   21.6792    5.5445 N   0  0  0  0  0  0  0  0  0  0  0  0
   17.1409   20.4221    5.7538 C   0  0  0  0  0  0  0  0  0  0  0  0
   16.9110   22.5131    5.7800 H   0  0  0  0  0  0  0  0  0  0  0  0
  1  2  2  0  0  0
  2  3  1  0  0  0
  2  7  1  0  0  0
  3  4  1  0  0  0
  4  5  2  0  0  0
  4  6  1  0  0  0
  6  8  2  0  0  0
  7  8  1  0  0  0
  8 11  1  0  0  0
 11 12  1  0  0  0
  3  9  1  0  0  0
  7 10  1  0  0  0
 11 13  1  0  0  0
M  END
> <minimizedAffinity>
-5.01204

$$$$
5FSO_S76_A_1158


 13 13  0  0  0  0  0  0  0  0999 V2000
   13.8216   20.8025    1.9849 O   0  0  0  0  0  0  0  0  0  0  0  0
   13.8281   21.2902    3.1094 C   0  0  0  0  0  0  0  0  0  0  0  0
   14.9869   21.4187    3.8379 N   0  0  0  0  0  0  0  0  0  0  0  0
   15.1108   22.0084    5.0877 C   0  0  0  0  0  0  0  0  0  0  0  0
   16.2117   21.9581    5.6675 O   0  0  0  0  0  0  0  0  0  0  0  0
   13.8971   22.5180    5.6534 C   0  0  0  0  0  0  0  0  0  0  0  0
   12.7038   21.8581    3.6571 N   0  0  0  0  0  0  0  0  0  0  0  0
   12.7243   22.4611    4.9438 C   0  0  0  0  0  0  0  0  0  0  0  0
   15.8085   21.0573    3.4335 H   0  0  0  0  0  0  0  0  0  0  0  0
   11.8626   21.8470    3.1457 H   0  0  0  0  0  0  0  0  0  0  0  0
   11.5271   22.8476    5.4394 N   0  0  0  0  0  0  0  0  0  0  0  0
   10.2504   22.4538    4.8693 C   0  0  0  0  0  0  0  0  0  0  0  0
   11.5202   23.4300    6.2332 H   0  0  0  0  0  0  0  0  0  0  0  0
  1  2  2  0  0  0
  2  3  1  0  0  0
  2  7  1  0  0  0
  3  4  1  0  0  0
  4  5  2  0  0  0
  4  6  1  0  0  0
  6  8  2  0  0  0
  7  8  1  0  0  0
  8 11  1  0  0  0
 11 12  1  0  0  0
  3  9  1  0  0  0
  7 10  1  0  0  0
 11 13  1  0  0  0
M  END
> <minimizedAffinity>
-4.97561

$$$$
5FSO_S76_A_1158


 13 13  0  0  0  0  0  0  0  0999 V2000
   13.2272   22.5103    6.1749 O   0  0  0  0  0  0  0  0  0  0  0  0
   13.6490   22.2609    5.0514 C   0  0  0  0  0  0  0  0  0  0  0  0
   12.8423   21.7249    4.0758 N   0  0  0  0  0  0  0  0  0  0  0  0
   13.2043   21.4630    2.7622 C   0  0  0  0  0  0  0  0  0  0  0  0
   12.3909   20.8796    2.0215 O   0  0  0  0  0  0  0  0  0  0  0  0
   14.5571   21.7856    2.4183 C   0  0  0  0  0  0  0  0  0  0  0  0
   14.9142   22.6229    4.6579 N   0  0  0  0  0  0  0  0  0  0  0  0
   15.3862   22.3709    3.3414 C   0  0  0  0  0  0  0  0  0  0  0  0
   11.9180   21.5055    4.3343 H   0  0  0  0  0  0  0  0  0  0  0  0
   15.5089   23.0680    5.3040 H   0  0  0  0  0  0  0  0  0  0  0  0
   16.6941   22.6316    3.1177 N   0  0  0  0  0  0  0  0  0  0  0  0
   17.1826   23.4139    1.9955 C   0  0  0  0  0  0  0  0  0  0  0  0
   17.3539   22.2699    3.7526 H   0  0  0  0  0  0  0  0  0  0  0  0
  1  2  2  0  0  0
  2  3  1  0  0  0
  2  7  1  0  0  0
  3  4  1  0  0  0
  4  5  2  0  0  0
  4  6  1  0  0  0
  6  8  2  0  0  0
  7  8  1  0  0  0
  8 11  1  0  0  0
 11 12  1  0  0  0
  3  9  1  0  0  0
  7 10  1  0  0  0
 11 13  1  0  0  0
M  END
> <minimizedAffinity>
-4.77817

$$$$
