1H22_E10_A_1536


 38 41  0  0  0  0  0  0  0  0999 V2000
    4.6886   63.5121   70.2477 C   0  0  0  0  0  0  0  0  0  0  0  0
    4.4304   64.8647   69.5795 C   0  0  0  0  0  0  0  0  0  0  0  0
    5.1427   64.9943   68.2604 C   0  0  0  0  0  0  0  0  0  0  0  0
    4.2012   65.3788   67.1145 C   0  0  0  0  0  0  0  0  0  0  0  0
    4.4469   66.7813   66.5862 C   0  0  0  0  0  0  0  0  0  0  0  0
    3.5985   67.0032   65.3401 N   0  0  0  0  0  0  0  0  0  0  0  0
    3.8375   66.2671   64.6756 H   0  0  0  0  0  0  0  0  0  0  0  0
    1.1412   68.2716   61.0331 C   0  0  0  0  0  0  0  0  0  0  0  0
    2.5087   68.4029   61.0123 N   0  0  0  0  0  0  0  0  0  0  0  0
    3.3408   68.4268   62.0661 C   0  0  0  0  0  0  0  0  0  0  0  0
    2.8288   68.3056   63.3532 C   0  0  0  0  0  0  0  0  0  0  0  0
    1.3642   68.1794   63.5188 C   0  0  0  0  0  0  0  0  0  0  0  0
    0.5313   68.1620   62.4167 C   0  0  0  0  0  0  0  0  0  0  0  0
    0.5070   68.2135   59.9824 O   0  0  0  0  0  0  0  0  0  0  0  0
    4.8461   68.6271   61.7601 C   0  0  0  0  0  0  0  0  0  0  0  0
    3.7343   68.3492   64.6009 C   0  0  0  0  0  0  0  0  0  0  0  0
    5.2454   68.6299   64.2828 C   0  0  0  0  0  0  0  0  0  0  0  0
    5.7151   68.0679   62.8977 C   0  0  0  0  0  0  0  0  0  0  0  0
    2.9257   68.4891   60.1247 H   0  0  0  0  0  0  0  0  0  0  0  0
    3.8736   62.4260   69.5322 C   0  0  0  0  0  0  0  0  0  0  0  0
    2.9160   61.5626   70.3744 C   0  0  0  0  0  0  0  0  0  0  0  0
    2.0429   62.3130   71.4095 C   0  0  0  0  0  0  0  0  0  0  0  0
    0.7030   62.7606   70.7680 C   0  0  0  0  0  0  0  0  0  0  0  0
    0.4188   64.2417   70.9383 C   0  0  0  0  0  0  0  0  0  0  0  0
    1.0188   65.0164   69.7475 N   0  0  0  0  0  0  0  0  0  0  0  0
    2.0310   64.8981   69.7893 H   0  0  0  0  0  0  0  0  0  0  0  0
   -2.0208   67.6769   66.3133 C   0  0  0  0  0  0  0  0  0  0  0  0
   -0.7525   68.1934   66.5518 N   0  0  0  0  0  0  0  0  0  0  0  0
    0.1059   67.8593   67.5557 C   0  0  0  0  0  0  0  0  0  0  0  0
   -0.2504   66.8851   68.4960 C   0  0  0  0  0  0  0  0  0  0  0  0
   -1.5797   66.2328   68.3359 C   0  0  0  0  0  0  0  0  0  0  0  0
   -2.4570   66.5916   67.2963 C   0  0  0  0  0  0  0  0  0  0  0  0
   -2.7330   68.1678   65.4151 O   0  0  0  0  0  0  0  0  0  0  0  0
    1.4543   68.6053   67.5668 C   0  0  0  0  0  0  0  0  0  0  0  0
    0.7435   66.5089   69.6467 C   0  0  0  0  0  0  0  0  0  0  0  0
    2.1733   67.1186   69.4511 C   0  0  0  0  0  0  0  0  0  0  0  0
    2.1378   68.5449   68.9581 C   0  0  0  0  0  0  0  0  0  0  0  0
   -0.4376   68.8810   65.9215 H   0  0  0  0  0  0  0  0  0  0  0  0
  8  9  1  0  0  0
  8 13  1  0  0  0
  8 14  2  0  0  0
  9 10  1  0  0  0
 10 11  2  0  0  0
 10 15  1  0  0  0
 11 12  1  0  0  0
 11 16  1  0  0  0
 12 13  2  0  0  0
 15 18  1  0  0  0
 16 17  1  0  0  0
 16  6  1  0  0  0
 17 18  1  0  0  0
  6  5  1  0  0  0
  5  4  1  0  0  0
 27 28  1  0  0  0
 27 32  1  0  0  0
 27 33  2  0  0  0
 28 29  1  0  0  0
 29 30  2  0  0  0
 29 34  1  0  0  0
 30 31  1  0  0  0
 30 35  1  0  0  0
 31 32  2  0  0  0
 34 37  1  0  0  0
 35 36  1  0  0  0
 35 25  1  0  0  0
 36 37  1  0  0  0
 25 24  1  0  0  0
 24 23  1  0  0  0
  4  3  1  0  0  0
  3  2  1  0  0  0
  2  1  1  0  0  0
  1 20  1  0  0  0
 20 21  1  0  0  0
 21 22  1  0  0  0
 22 23  1  0  0  0
  9 19  1  0  0  0
  6  7  1  0  0  0
 28 38  1  0  0  0
 25 26  1  0  0  0
M  END
> <minimizedAffinity>
-11.17654

$$$$
1H22_E10_A_1536


 38 41  0  0  0  0  0  0  0  0999 V2000
   -0.0006   63.7685   70.3908 C   0  0  0  0  0  0  0  0  0  0  0  0
    0.6513   65.1493   70.2843 C   0  0  0  0  0  0  0  0  0  0  0  0
   -0.2399   66.1492   69.5988 C   0  0  0  0  0  0  0  0  0  0  0  0
    0.5073   66.9965   68.5638 C   0  0  0  0  0  0  0  0  0  0  0  0
    0.0615   66.7254   67.1376 C   0  0  0  0  0  0  0  0  0  0  0  0
    1.2890   66.6084   66.2424 N   0  0  0  0  0  0  0  0  0  0  0  0
    1.9842   66.0621   66.7512 H   0  0  0  0  0  0  0  0  0  0  0  0
    1.5332   68.2681   61.4068 C   0  0  0  0  0  0  0  0  0  0  0  0
    2.7302   68.1621   62.0729 N   0  0  0  0  0  0  0  0  0  0  0  0
    2.9178   68.0456   63.3976 C   0  0  0  0  0  0  0  0  0  0  0  0
    1.8201   68.0179   64.2506 C   0  0  0  0  0  0  0  0  0  0  0  0
    0.4687   68.1461   63.6628 C   0  0  0  0  0  0  0  0  0  0  0  0
    0.3055   68.2691   62.2964 C   0  0  0  0  0  0  0  0  0  0  0  0
    1.5077   68.3170   60.1794 O   0  0  0  0  0  0  0  0  0  0  0  0
    4.3852   67.9830   63.8901 C   0  0  0  0  0  0  0  0  0  0  0  0
    1.9764   67.9088   65.7811 C   0  0  0  0  0  0  0  0  0  0  0  0
    3.4669   67.9244   66.2726 C   0  0  0  0  0  0  0  0  0  0  0  0
    4.4747   67.2860   65.2568 C   0  0  0  0  0  0  0  0  0  0  0  0
    3.5421   68.1727   61.5162 H   0  0  0  0  0  0  0  0  0  0  0  0
    0.6640   62.9769   71.5253 C   0  0  0  0  0  0  0  0  0  0  0  0
   -0.0560   61.7230   72.0556 C   0  0  0  0  0  0  0  0  0  0  0  0
    0.8138   60.7095   72.8385 C   0  0  0  0  0  0  0  0  0  0  0  0
    2.1415   61.3705   73.2944 C   0  0  0  0  0  0  0  0  0  0  0  0
    3.2634   60.3739   73.5217 C   0  0  0  0  0  0  0  0  0  0  0  0
    4.5488   60.8895   72.8434 N   0  0  0  0  0  0  0  0  0  0  0  0
    4.5723   61.9013   72.9701 H   0  0  0  0  0  0  0  0  0  0  0  0
    3.5118   63.9891   68.6688 C   0  0  0  0  0  0  0  0  0  0  0  0
    3.0795   62.6704   68.5875 N   0  0  0  0  0  0  0  0  0  0  0  0
    3.4370   61.6276   69.3883 C   0  0  0  0  0  0  0  0  0  0  0  0
    4.3344   61.8225   70.4450 C   0  0  0  0  0  0  0  0  0  0  0  0
    4.8535   63.2024   70.6567 C   0  0  0  0  0  0  0  0  0  0  0  0
    4.4783   64.2683   69.8187 C   0  0  0  0  0  0  0  0  0  0  0  0
    3.1787   64.8076   67.7890 O   0  0  0  0  0  0  0  0  0  0  0  0
    2.7904   60.2688   69.0555 C   0  0  0  0  0  0  0  0  0  0  0  0
    4.7393   60.6168   71.3592 C   0  0  0  0  0  0  0  0  0  0  0  0
    3.8637   59.3400   71.1202 C   0  0  0  0  0  0  0  0  0  0  0  0
    3.5906   59.0842   69.6578 C   0  0  0  0  0  0  0  0  0  0  0  0
    2.4404   62.4661   67.8671 H   0  0  0  0  0  0  0  0  0  0  0  0
  8  9  1  0  0  0
  8 13  1  0  0  0
  8 14  2  0  0  0
  9 10  1  0  0  0
 10 11  2  0  0  0
 10 15  1  0  0  0
 11 12  1  0  0  0
 11 16  1  0  0  0
 12 13  2  0  0  0
 15 18  1  0  0  0
 16 17  1  0  0  0
 16  6  1  0  0  0
 17 18  1  0  0  0
  6  5  1  0  0  0
  5  4  1  0  0  0
 27 28  1  0  0  0
 27 32  1  0  0  0
 27 33  2  0  0  0
 28 29  1  0  0  0
 29 30  2  0  0  0
 29 34  1  0  0  0
 30 31  1  0  0  0
 30 35  1  0  0  0
 31 32  2  0  0  0
 34 37  1  0  0  0
 35 36  1  0  0  0
 35 25  1  0  0  0
 36 37  1  0  0  0
 25 24  1  0  0  0
 24 23  1  0  0  0
  4  3  1  0  0  0
  3  2  1  0  0  0
  2  1  1  0  0  0
  1 20  1  0  0  0
 20 21  1  0  0  0
 21 22  1  0  0  0
 22 23  1  0  0  0
  9 19  1  0  0  0
  6  7  1  0  0  0
 28 38  1  0  0  0
 25 26  1  0  0  0
M  END
> <minimizedAffinity>
-10.63195

$$$$
1H22_E10_A_1536


 38 41  0  0  0  0  0  0  0  0999 V2000
    0.6812   66.2982   69.8871 C   0  0  0  0  0  0  0  0  0  0  0  0
    1.8296   65.2974   70.0361 C   0  0  0  0  0  0  0  0  0  0  0  0
    3.1217   65.8242   69.4730 C   0  0  0  0  0  0  0  0  0  0  0  0
    3.9599   64.7353   68.7955 C   0  0  0  0  0  0  0  0  0  0  0  0
    4.0324   63.4505   69.6021 C   0  0  0  0  0  0  0  0  0  0  0  0
    3.0876   62.4221   68.9926 N   0  0  0  0  0  0  0  0  0  0  0  0
    2.1937   62.8875   68.8352 H   0  0  0  0  0  0  0  0  0  0  0  0
    1.4822   62.2653   73.8501 C   0  0  0  0  0  0  0  0  0  0  0  0
    2.6114   61.5381   73.5607 N   0  0  0  0  0  0  0  0  0  0  0  0
    3.0575   61.1745   72.3473 C   0  0  0  0  0  0  0  0  0  0  0  0
    2.3476   61.5458   71.2108 C   0  0  0  0  0  0  0  0  0  0  0  0
    1.0961   62.3155   71.3831 C   0  0  0  0  0  0  0  0  0  0  0  0
    0.6586   62.6723   72.6441 C   0  0  0  0  0  0  0  0  0  0  0  0
    1.2212   62.5714   75.0110 O   0  0  0  0  0  0  0  0  0  0  0  0
    4.3467   60.3166   72.3078 C   0  0  0  0  0  0  0  0  0  0  0  0
    2.8001   61.1371   69.7942 C   0  0  0  0  0  0  0  0  0  0  0  0
    4.0621   60.2043   69.7721 C   0  0  0  0  0  0  0  0  0  0  0  0
    5.0589   60.4606   70.9536 C   0  0  0  0  0  0  0  0  0  0  0  0
    3.1550   61.2513   74.3297 H   0  0  0  0  0  0  0  0  0  0  0  0
   -0.3479   65.7489   68.8897 C   0  0  0  0  0  0  0  0  0  0  0  0
   -0.9473   66.7194   67.8550 C   0  0  0  0  0  0  0  0  0  0  0  0
   -0.2193   68.0744   67.6800 C   0  0  0  0  0  0  0  0  0  0  0  0
    0.9193   67.9487   66.6336 C   0  0  0  0  0  0  0  0  0  0  0  0
    2.2782   68.3606   67.1697 C   0  0  0  0  0  0  0  0  0  0  0  0
    3.3830   67.6841   66.3331 N   0  0  0  0  0  0  0  0  0  0  0  0
    4.1982   68.2967   66.3574 H   0  0  0  0  0  0  0  0  0  0  0  0
    4.4498   63.3230   63.5129 C   0  0  0  0  0  0  0  0  0  0  0  0
    4.7686   64.5401   62.9216 N   0  0  0  0  0  0  0  0  0  0  0  0
    4.3697   65.7833   63.3112 C   0  0  0  0  0  0  0  0  0  0  0  0
    3.5474   65.9431   64.4329 C   0  0  0  0  0  0  0  0  0  0  0  0
    3.1540   64.7128   65.1743 C   0  0  0  0  0  0  0  0  0  0  0  0
    3.5704   63.4353   64.7573 C   0  0  0  0  0  0  0  0  0  0  0  0
    4.8021   62.2572   62.9699 O   0  0  0  0  0  0  0  0  0  0  0  0
    4.8854   66.9564   62.4551 C   0  0  0  0  0  0  0  0  0  0  0  0
    3.0939   67.3767   64.8718 C   0  0  0  0  0  0  0  0  0  0  0  0
    3.8492   68.5215   64.1147 C   0  0  0  0  0  0  0  0  0  0  0  0
    4.0240   68.2327   62.6434 C   0  0  0  0  0  0  0  0  0  0  0  0
    5.3506   64.4989   62.1287 H   0  0  0  0  0  0  0  0  0  0  0  0
  8  9  1  0  0  0
  8 13  1  0  0  0
  8 14  2  0  0  0
  9 10  1  0  0  0
 10 11  2  0  0  0
 10 15  1  0  0  0
 11 12  1  0  0  0
 11 16  1  0  0  0
 12 13  2  0  0  0
 15 18  1  0  0  0
 16 17  1  0  0  0
 16  6  1  0  0  0
 17 18  1  0  0  0
  6  5  1  0  0  0
  5  4  1  0  0  0
 27 28  1  0  0  0
 27 32  1  0  0  0
 27 33  2  0  0  0
 28 29  1  0  0  0
 29 30  2  0  0  0
 29 34  1  0  0  0
 30 31  1  0  0  0
 30 35  1  0  0  0
 31 32  2  0  0  0
 34 37  1  0  0  0
 35 36  1  0  0  0
 35 25  1  0  0  0
 36 37  1  0  0  0
 25 24  1  0  0  0
 24 23  1  0  0  0
  4  3  1  0  0  0
  3  2  1  0  0  0
  2  1  1  0  0  0
  1 20  1  0  0  0
 20 21  1  0  0  0
 21 22  1  0  0  0
 22 23  1  0  0  0
  9 19  1  0  0  0
  6  7  1  0  0  0
 28 38  1  0  0  0
 25 26  1  0  0  0
M  END
> <minimizedAffinity>
-10.57624

$$$$
1H22_E10_A_1536


 38 41  0  0  0  0  0  0  0  0999 V2000
    3.9042   65.3171   69.7260 C   0  0  0  0  0  0  0  0  0  0  0  0
    3.2252   66.6615   69.4532 C   0  0  0  0  0  0  0  0  0  0  0  0
    1.7637   66.6451   69.8107 C   0  0  0  0  0  0  0  0  0  0  0  0
    1.1354   65.2548   69.6701 C   0  0  0  0  0  0  0  0  0  0  0  0
    0.3174   64.8450   70.8822 C   0  0  0  0  0  0  0  0  0  0  0  0
    0.2341   63.3246   70.9399 N   0  0  0  0  0  0  0  0  0  0  0  0
   -0.7435   63.0804   71.0982 H   0  0  0  0  0  0  0  0  0  0  0  0
    3.4608   59.4551   70.0386 C   0  0  0  0  0  0  0  0  0  0  0  0
    2.4955   59.2308   70.9902 N   0  0  0  0  0  0  0  0  0  0  0  0
    1.7386   60.1477   71.6147 C   0  0  0  0  0  0  0  0  0  0  0  0
    1.8934   61.4952   71.3088 C   0  0  0  0  0  0  0  0  0  0  0  0
    2.9182   61.8775   70.3129 C   0  0  0  0  0  0  0  0  0  0  0  0
    3.6860   60.9130   69.6890 C   0  0  0  0  0  0  0  0  0  0  0  0
    4.0440   58.5111   69.5111 O   0  0  0  0  0  0  0  0  0  0  0  0
    0.7467   59.6216   72.6820 C   0  0  0  0  0  0  0  0  0  0  0  0
    1.0681   62.5930   72.0104 C   0  0  0  0  0  0  0  0  0  0  0  0
    0.1237   62.0553   73.1428 C   0  0  0  0  0  0  0  0  0  0  0  0
   -0.4153   60.6073   72.8825 C   0  0  0  0  0  0  0  0  0  0  0  0
    2.3413   58.2919   71.2429 H   0  0  0  0  0  0  0  0  0  0  0  0
    4.8661   64.9889   68.5760 C   0  0  0  0  0  0  0  0  0  0  0  0
    4.6592   65.7052   67.2284 C   0  0  0  0  0  0  0  0  0  0  0  0
    3.7267   65.0026   66.2117 C   0  0  0  0  0  0  0  0  0  0  0  0
    4.4413   64.8338   64.8450 C   0  0  0  0  0  0  0  0  0  0  0  0
    3.7611   65.5821   63.7132 C   0  0  0  0  0  0  0  0  0  0  0  0
    4.2307   67.0510   63.7182 N   0  0  0  0  0  0  0  0  0  0  0  0
    4.6280   67.2380   64.6388 H   0  0  0  0  0  0  0  0  0  0  0  0
   -0.4543   67.9473   66.0330 C   0  0  0  0  0  0  0  0  0  0  0  0
   -0.4293   67.9844   64.6436 N   0  0  0  0  0  0  0  0  0  0  0  0
    0.6643   68.0443   63.8331 C   0  0  0  0  0  0  0  0  0  0  0  0
    1.9516   68.0674   64.3829 C   0  0  0  0  0  0  0  0  0  0  0  0
    2.0636   68.0056   65.8668 C   0  0  0  0  0  0  0  0  0  0  0  0
    0.9248   67.9482   66.6908 C   0  0  0  0  0  0  0  0  0  0  0  0
   -1.5437   68.0075   66.6368 O   0  0  0  0  0  0  0  0  0  0  0  0
    0.3809   68.0738   62.3186 C   0  0  0  0  0  0  0  0  0  0  0  0
    3.2022   68.1371   63.4424 C   0  0  0  0  0  0  0  0  0  0  0  0
    2.8513   67.9148   61.9319 C   0  0  0  0  0  0  0  0  0  0  0  0
    1.5871   68.6266   61.5148 C   0  0  0  0  0  0  0  0  0  0  0  0
   -1.3041   67.9650   64.1925 H   0  0  0  0  0  0  0  0  0  0  0  0
  8  9  1  0  0  0
  8 13  1  0  0  0
  8 14  2  0  0  0
  9 10  1  0  0  0
 10 11  2  0  0  0
 10 15  1  0  0  0
 11 12  1  0  0  0
 11 16  1  0  0  0
 12 13  2  0  0  0
 15 18  1  0  0  0
 16 17  1  0  0  0
 16  6  1  0  0  0
 17 18  1  0  0  0
  6  5  1  0  0  0
  5  4  1  0  0  0
 27 28  1  0  0  0
 27 32  1  0  0  0
 27 33  2  0  0  0
 28 29  1  0  0  0
 29 30  2  0  0  0
 29 34  1  0  0  0
 30 31  1  0  0  0
 30 35  1  0  0  0
 31 32  2  0  0  0
 34 37  1  0  0  0
 35 36  1  0  0  0
 35 25  1  0  0  0
 36 37  1  0  0  0
 25 24  1  0  0  0
 24 23  1  0  0  0
  4  3  1  0  0  0
  3  2  1  0  0  0
  2  1  1  0  0  0
  1 20  1  0  0  0
 20 21  1  0  0  0
 21 22  1  0  0  0
 22 23  1  0  0  0
  9 19  1  0  0  0
  6  7  1  0  0  0
 28 38  1  0  0  0
 25 26  1  0  0  0
M  END
> <minimizedAffinity>
-10.48836

$$$$
1H22_E10_A_1536


 38 41  0  0  0  0  0  0  0  0999 V2000
    2.9398   64.6822   69.9227 C   0  0  0  0  0  0  0  0  0  0  0  0
    1.9711   65.8407   69.6734 C   0  0  0  0  0  0  0  0  0  0  0  0
    0.6226   65.6005   70.2963 C   0  0  0  0  0  0  0  0  0  0  0  0
    0.2986   64.1110   70.4505 C   0  0  0  0  0  0  0  0  0  0  0  0
   -0.0714   63.7254   71.8721 C   0  0  0  0  0  0  0  0  0  0  0  0
    0.4182   62.3097   72.1511 N   0  0  0  0  0  0  0  0  0  0  0  0
   -0.1773   61.9217   72.8826 H   0  0  0  0  0  0  0  0  0  0  0  0
    3.6027   58.6813   70.4509 C   0  0  0  0  0  0  0  0  0  0  0  0
    3.4490   58.7634   71.8137 N   0  0  0  0  0  0  0  0  0  0  0  0
    2.9276   59.7833   72.5147 C   0  0  0  0  0  0  0  0  0  0  0  0
    2.4671   60.9143   71.8496 C   0  0  0  0  0  0  0  0  0  0  0  0
    2.5942   60.9649   70.3766 C   0  0  0  0  0  0  0  0  0  0  0  0
    3.1389   59.9024   69.6814 C   0  0  0  0  0  0  0  0  0  0  0  0
    4.0514   57.6594   69.9371 O   0  0  0  0  0  0  0  0  0  0  0  0
    2.9094   59.6313   74.0562 C   0  0  0  0  0  0  0  0  0  0  0  0
    1.8801   62.1244   72.6042 C   0  0  0  0  0  0  0  0  0  0  0  0
    1.9383   61.9909   74.1670 C   0  0  0  0  0  0  0  0  0  0  0  0
    1.8185   60.5156   74.6807 C   0  0  0  0  0  0  0  0  0  0  0  0
    3.7558   57.9869   72.3353 H   0  0  0  0  0  0  0  0  0  0  0  0
    4.3827   65.2016   69.8609 C   0  0  0  0  0  0  0  0  0  0  0  0
    5.1728   64.9993   68.5545 C   0  0  0  0  0  0  0  0  0  0  0  0
    4.6979   65.8179   67.3293 C   0  0  0  0  0  0  0  0  0  0  0  0
    3.8813   64.9224   66.3605 C   0  0  0  0  0  0  0  0  0  0  0  0
    3.2065   65.7005   65.2457 C   0  0  0  0  0  0  0  0  0  0  0  0
    2.9399   67.1435   65.7197 N   0  0  0  0  0  0  0  0  0  0  0  0
    1.9438   67.2141   65.9275 H   0  0  0  0  0  0  0  0  0  0  0  0
    1.0081   68.2768   60.9141 C   0  0  0  0  0  0  0  0  0  0  0  0
    2.3901   68.3238   61.0563 N   0  0  0  0  0  0  0  0  0  0  0  0
    3.1068   68.3303   62.2151 C   0  0  0  0  0  0  0  0  0  0  0  0
    2.4525   68.2781   63.4517 C   0  0  0  0  0  0  0  0  0  0  0  0
    0.9653   68.1981   63.4365 C   0  0  0  0  0  0  0  0  0  0  0  0
    0.2389   68.1966   62.2318 C   0  0  0  0  0  0  0  0  0  0  0  0
    0.4955   68.3918   59.7832 O   0  0  0  0  0  0  0  0  0  0  0  0
    4.6390   68.3877   62.0604 C   0  0  0  0  0  0  0  0  0  0  0  0
    3.2858   68.2867   64.7779 C   0  0  0  0  0  0  0  0  0  0  0  0
    4.8228   68.0964   64.5422 C   0  0  0  0  0  0  0  0  0  0  0  0
    5.3335   68.8799   63.3573 C   0  0  0  0  0  0  0  0  0  0  0  0
    2.9121   68.3562   60.2222 H   0  0  0  0  0  0  0  0  0  0  0  0
  8  9  1  0  0  0
  8 13  1  0  0  0
  8 14  2  0  0  0
  9 10  1  0  0  0
 10 11  2  0  0  0
 10 15  1  0  0  0
 11 12  1  0  0  0
 11 16  1  0  0  0
 12 13  2  0  0  0
 15 18  1  0  0  0
 16 17  1  0  0  0
 16  6  1  0  0  0
 17 18  1  0  0  0
  6  5  1  0  0  0
  5  4  1  0  0  0
 27 28  1  0  0  0
 27 32  1  0  0  0
 27 33  2  0  0  0
 28 29  1  0  0  0
 29 30  2  0  0  0
 29 34  1  0  0  0
 30 31  1  0  0  0
 30 35  1  0  0  0
 31 32  2  0  0  0
 34 37  1  0  0  0
 35 36  1  0  0  0
 35 25  1  0  0  0
 36 37  1  0  0  0
 25 24  1  0  0  0
 24 23  1  0  0  0
  4  3  1  0  0  0
  3  2  1  0  0  0
  2  1  1  0  0  0
  1 20  1  0  0  0
 20 21  1  0  0  0
 21 22  1  0  0  0
 22 23  1  0  0  0
  9 19  1  0  0  0
  6  7  1  0  0  0
 28 38  1  0  0  0
 25 26  1  0  0  0
M  END
> <minimizedAffinity>
-10.48318

$$$$
1H22_E10_A_1536


 38 41  0  0  0  0  0  0  0  0999 V2000
    3.1501   61.7538   68.9103 C   0  0  0  0  0  0  0  0  0  0  0  0
    3.1919   60.7172   70.0357 C   0  0  0  0  0  0  0  0  0  0  0  0
    3.5727   59.3495   69.5372 C   0  0  0  0  0  0  0  0  0  0  0  0
    3.6768   58.3165   70.6638 C   0  0  0  0  0  0  0  0  0  0  0  0
    4.0840   58.9246   71.9945 C   0  0  0  0  0  0  0  0  0  0  0  0
    3.0456   58.5633   73.0495 N   0  0  0  0  0  0  0  0  0  0  0  0
    3.4848   57.9068   73.6948 H   0  0  0  0  0  0  0  0  0  0  0  0
   -1.6094   60.5917   73.6931 C   0  0  0  0  0  0  0  0  0  0  0  0
   -1.4391   59.3071   74.1497 N   0  0  0  0  0  0  0  0  0  0  0  0
   -0.4426   58.4598   73.8454 C   0  0  0  0  0  0  0  0  0  0  0  0
    0.5675   58.8642   72.9797 C   0  0  0  0  0  0  0  0  0  0  0  0
    0.4930   60.2218   72.3968 C   0  0  0  0  0  0  0  0  0  0  0  0
   -0.5464   61.0711   72.7243 C   0  0  0  0  0  0  0  0  0  0  0  0
   -2.5467   61.2754   74.0977 O   0  0  0  0  0  0  0  0  0  0  0  0
   -0.5151   57.0456   74.4735 C   0  0  0  0  0  0  0  0  0  0  0  0
    1.7236   57.9262   72.5771 C   0  0  0  0  0  0  0  0  0  0  0  0
    1.5977   56.4733   73.1574 C   0  0  0  0  0  0  0  0  0  0  0  0
    0.8813   56.4081   74.5494 C   0  0  0  0  0  0  0  0  0  0  0  0
   -2.1251   58.9697   74.7700 H   0  0  0  0  0  0  0  0  0  0  0  0
    3.0445   63.1601   69.5160 C   0  0  0  0  0  0  0  0  0  0  0  0
    4.3456   63.9497   69.7516 C   0  0  0  0  0  0  0  0  0  0  0  0
    4.4146   65.3644   69.1266 C   0  0  0  0  0  0  0  0  0  0  0  0
    3.1466   66.1815   69.4893 C   0  0  0  0  0  0  0  0  0  0  0  0
    2.5189   66.8802   68.2970 C   0  0  0  0  0  0  0  0  0  0  0  0
    3.6110   67.1861   67.2521 N   0  0  0  0  0  0  0  0  0  0  0  0
    3.9685   68.1200   67.4532 H   0  0  0  0  0  0  0  0  0  0  0  0
    4.4502   63.4303   63.6050 C   0  0  0  0  0  0  0  0  0  0  0  0
    4.7456   64.7366   63.2326 N   0  0  0  0  0  0  0  0  0  0  0  0
    4.3861   65.8848   63.8720 C   0  0  0  0  0  0  0  0  0  0  0  0
    3.6369   65.8316   65.0535 C   0  0  0  0  0  0  0  0  0  0  0  0
    3.2762   64.4841   65.5754 C   0  0  0  0  0  0  0  0  0  0  0  0
    3.6512   63.3074   64.9016 C   0  0  0  0  0  0  0  0  0  0  0  0
    4.7557   62.4850   62.8514 O   0  0  0  0  0  0  0  0  0  0  0  0
    4.8611   67.1976   63.2194 C   0  0  0  0  0  0  0  0  0  0  0  0
    3.2282   67.1575   65.7803 C   0  0  0  0  0  0  0  0  0  0  0  0
    3.9481   68.4241   65.2043 C   0  0  0  0  0  0  0  0  0  0  0  0
    4.0278   68.4158   63.6968 C   0  0  0  0  0  0  0  0  0  0  0  0
    5.2768   64.8447   62.4108 H   0  0  0  0  0  0  0  0  0  0  0  0
  8  9  1  0  0  0
  8 13  1  0  0  0
  8 14  2  0  0  0
  9 10  1  0  0  0
 10 11  2  0  0  0
 10 15  1  0  0  0
 11 12  1  0  0  0
 11 16  1  0  0  0
 12 13  2  0  0  0
 15 18  1  0  0  0
 16 17  1  0  0  0
 16  6  1  0  0  0
 17 18  1  0  0  0
  6  5  1  0  0  0
  5  4  1  0  0  0
 27 28  1  0  0  0
 27 32  1  0  0  0
 27 33  2  0  0  0
 28 29  1  0  0  0
 29 30  2  0  0  0
 29 34  1  0  0  0
 30 31  1  0  0  0
 30 35  1  0  0  0
 31 32  2  0  0  0
 34 37  1  0  0  0
 35 36  1  0  0  0
 35 25  1  0  0  0
 36 37  1  0  0  0
 25 24  1  0  0  0
 24 23  1  0  0  0
  4  3  1  0  0  0
  3  2  1  0  0  0
  2  1  1  0  0  0
  1 20  1  0  0  0
 20 21  1  0  0  0
 21 22  1  0  0  0
 22 23  1  0  0  0
  9 19  1  0  0  0
  6  7  1  0  0  0
 28 38  1  0  0  0
 25 26  1  0  0  0
M  END
> <minimizedAffinity>
-10.43778

$$$$
1H22_E10_A_1536


 38 41  0  0  0  0  0  0  0  0999 V2000
    3.4991   63.3029   70.3466 C   0  0  0  0  0  0  0  0  0  0  0  0
    4.8159   64.0160   70.0296 C   0  0  0  0  0  0  0  0  0  0  0  0
    4.6638   65.0322   68.9304 C   0  0  0  0  0  0  0  0  0  0  0  0
    3.6810   66.1510   69.2904 C   0  0  0  0  0  0  0  0  0  0  0  0
    2.8229   66.5911   68.1172 C   0  0  0  0  0  0  0  0  0  0  0  0
    3.7238   67.1179   67.0070 N   0  0  0  0  0  0  0  0  0  0  0  0
    3.9679   68.0792   67.2453 H   0  0  0  0  0  0  0  0  0  0  0  0
    4.4528   63.4328   63.5306 C   0  0  0  0  0  0  0  0  0  0  0  0
    4.7964   64.7062   63.1458 N   0  0  0  0  0  0  0  0  0  0  0  0
    4.4377   65.8594   63.7332 C   0  0  0  0  0  0  0  0  0  0  0  0
    3.6318   65.8358   64.8660 C   0  0  0  0  0  0  0  0  0  0  0  0
    3.1707   64.5254   65.3745 C   0  0  0  0  0  0  0  0  0  0  0  0
    3.5519   63.3548   64.7474 C   0  0  0  0  0  0  0  0  0  0  0  0
    4.8979   62.4600   62.9262 O   0  0  0  0  0  0  0  0  0  0  0  0
    4.9357   67.1653   63.0651 C   0  0  0  0  0  0  0  0  0  0  0  0
    3.1703   67.1291   65.5682 C   0  0  0  0  0  0  0  0  0  0  0  0
    3.6162   68.4451   64.8383 C   0  0  0  0  0  0  0  0  0  0  0  0
    4.9823   68.3169   64.0817 C   0  0  0  0  0  0  0  0  0  0  0  0
    5.3704   64.7818   62.3496 H   0  0  0  0  0  0  0  0  0  0  0  0
    3.1080   62.4052   69.1649 C   0  0  0  0  0  0  0  0  0  0  0  0
    2.7565   60.9340   69.4547 C   0  0  0  0  0  0  0  0  0  0  0  0
    3.9494   59.9604   69.6157 C   0  0  0  0  0  0  0  0  0  0  0  0
    4.4265   59.9245   71.0916 C   0  0  0  0  0  0  0  0  0  0  0  0
    4.2600   58.5649   71.7455 C   0  0  0  0  0  0  0  0  0  0  0  0
    3.1670   58.6510   72.8300 N   0  0  0  0  0  0  0  0  0  0  0  0
    3.5214   58.1670   73.6550 H   0  0  0  0  0  0  0  0  0  0  0  0
   -1.6542   60.6587   73.7441 C   0  0  0  0  0  0  0  0  0  0  0  0
   -1.4577   59.3277   74.0937 N   0  0  0  0  0  0  0  0  0  0  0  0
   -0.4221   58.5181   73.7350 C   0  0  0  0  0  0  0  0  0  0  0  0
    0.6112   59.0076   72.9271 C   0  0  0  0  0  0  0  0  0  0  0  0
    0.5325   60.4333   72.5037 C   0  0  0  0  0  0  0  0  0  0  0  0
   -0.5455   61.2558   72.8788 C   0  0  0  0  0  0  0  0  0  0  0  0
   -2.7142   61.2343   74.0602 O   0  0  0  0  0  0  0  0  0  0  0  0
   -0.4731   57.0768   74.2780 C   0  0  0  0  0  0  0  0  0  0  0  0
    1.7967   58.0684   72.5198 C   0  0  0  0  0  0  0  0  0  0  0  0
    1.8055   56.7112   73.3022 C   0  0  0  0  0  0  0  0  0  0  0  0
    0.4265   56.1166   73.4563 C   0  0  0  0  0  0  0  0  0  0  0  0
   -2.1474   58.9227   74.6677 H   0  0  0  0  0  0  0  0  0  0  0  0
  8  9  1  0  0  0
  8 13  1  0  0  0
  8 14  2  0  0  0
  9 10  1  0  0  0
 10 11  2  0  0  0
 10 15  1  0  0  0
 11 12  1  0  0  0
 11 16  1  0  0  0
 12 13  2  0  0  0
 15 18  1  0  0  0
 16 17  1  0  0  0
 16  6  1  0  0  0
 17 18  1  0  0  0
  6  5  1  0  0  0
  5  4  1  0  0  0
 27 28  1  0  0  0
 27 32  1  0  0  0
 27 33  2  0  0  0
 28 29  1  0  0  0
 29 30  2  0  0  0
 29 34  1  0  0  0
 30 31  1  0  0  0
 30 35  1  0  0  0
 31 32  2  0  0  0
 34 37  1  0  0  0
 35 36  1  0  0  0
 35 25  1  0  0  0
 36 37  1  0  0  0
 25 24  1  0  0  0
 24 23  1  0  0  0
  4  3  1  0  0  0
  3  2  1  0  0  0
  2  1  1  0  0  0
  1 20  1  0  0  0
 20 21  1  0  0  0
 21 22  1  0  0  0
 22 23  1  0  0  0
  9 19  1  0  0  0
  6  7  1  0  0  0
 28 38  1  0  0  0
 25 26  1  0  0  0
M  END
> <minimizedAffinity>
-10.42690

$$$$
1H22_E10_A_1536


 38 41  0  0  0  0  0  0  0  0999 V2000
    4.4012   65.2850   69.4915 C   0  0  0  0  0  0  0  0  0  0  0  0
    4.7348   65.3631   67.9997 C   0  0  0  0  0  0  0  0  0  0  0  0
    3.6293   64.8147   67.1388 C   0  0  0  0  0  0  0  0  0  0  0  0
    3.9689   64.8504   65.6452 C   0  0  0  0  0  0  0  0  0  0  0  0
    2.9068   65.5420   64.8086 C   0  0  0  0  0  0  0  0  0  0  0  0
    2.4649   66.8180   65.5147 N   0  0  0  0  0  0  0  0  0  0  0  0
    1.4502   66.7759   65.6099 H   0  0  0  0  0  0  0  0  0  0  0  0
    0.9176   68.3123   60.8703 C   0  0  0  0  0  0  0  0  0  0  0  0
    2.2704   68.3637   61.1046 N   0  0  0  0  0  0  0  0  0  0  0  0
    2.8936   68.3182   62.2933 C   0  0  0  0  0  0  0  0  0  0  0  0
    2.1469   68.2019   63.4604 C   0  0  0  0  0  0  0  0  0  0  0  0
    0.6723   68.1586   63.3509 C   0  0  0  0  0  0  0  0  0  0  0  0
    0.0576   68.2115   62.1147 C   0  0  0  0  0  0  0  0  0  0  0  0
    0.4861   68.3121   59.7199 O   0  0  0  0  0  0  0  0  0  0  0  0
    4.4381   68.4359   62.2746 C   0  0  0  0  0  0  0  0  0  0  0  0
    2.8073   68.1680   64.8537 C   0  0  0  0  0  0  0  0  0  0  0  0
    4.3640   68.3659   64.8266 C   0  0  0  0  0  0  0  0  0  0  0  0
    5.0506   67.8046   63.5348 C   0  0  0  0  0  0  0  0  0  0  0  0
    2.8482   68.4427   60.3114 H   0  0  0  0  0  0  0  0  0  0  0  0
    4.8543   63.9271   70.0451 C   0  0  0  0  0  0  0  0  0  0  0  0
    3.7717   62.9153   70.4646 C   0  0  0  0  0  0  0  0  0  0  0  0
    4.1602   61.9150   71.5805 C   0  0  0  0  0  0  0  0  0  0  0  0
    5.0474   60.7785   71.0073 C   0  0  0  0  0  0  0  0  0  0  0  0
    4.4297   59.4000   71.1544 C   0  0  0  0  0  0  0  0  0  0  0  0
    3.3801   59.4293   72.2838 N   0  0  0  0  0  0  0  0  0  0  0  0
    3.8259   59.0526   73.1204 H   0  0  0  0  0  0  0  0  0  0  0  0
   -1.5821   60.7641   73.5898 C   0  0  0  0  0  0  0  0  0  0  0  0
   -1.1781   59.4747   73.9161 N   0  0  0  0  0  0  0  0  0  0  0  0
   -0.0734   58.8122   73.4718 C   0  0  0  0  0  0  0  0  0  0  0  0
    0.8154   59.4335   72.5864 C   0  0  0  0  0  0  0  0  0  0  0  0
    0.5089   60.8325   72.1777 C   0  0  0  0  0  0  0  0  0  0  0  0
   -0.6381   61.5020   72.6417 C   0  0  0  0  0  0  0  0  0  0  0  0
   -2.6823   61.1912   73.9923 O   0  0  0  0  0  0  0  0  0  0  0  0
    0.1168   57.3807   74.0101 C   0  0  0  0  0  0  0  0  0  0  0  0
    2.0820   58.6628   72.0812 C   0  0  0  0  0  0  0  0  0  0  0  0
    2.3388   57.3243   72.8537 C   0  0  0  0  0  0  0  0  0  0  0  0
    1.0709   56.5477   73.1144 C   0  0  0  0  0  0  0  0  0  0  0  0
   -1.7579   58.9826   74.5413 H   0  0  0  0  0  0  0  0  0  0  0  0
  8  9  1  0  0  0
  8 13  1  0  0  0
  8 14  2  0  0  0
  9 10  1  0  0  0
 10 11  2  0  0  0
 10 15  1  0  0  0
 11 12  1  0  0  0
 11 16  1  0  0  0
 12 13  2  0  0  0
 15 18  1  0  0  0
 16 17  1  0  0  0
 16  6  1  0  0  0
 17 18  1  0  0  0
  6  5  1  0  0  0
  5  4  1  0  0  0
 27 28  1  0  0  0
 27 32  1  0  0  0
 27 33  2  0  0  0
 28 29  1  0  0  0
 29 30  2  0  0  0
 29 34  1  0  0  0
 30 31  1  0  0  0
 30 35  1  0  0  0
 31 32  2  0  0  0
 34 37  1  0  0  0
 35 36  1  0  0  0
 35 25  1  0  0  0
 36 37  1  0  0  0
 25 24  1  0  0  0
 24 23  1  0  0  0
  4  3  1  0  0  0
  3  2  1  0  0  0
  2  1  1  0  0  0
  1 20  1  0  0  0
 20 21  1  0  0  0
 21 22  1  0  0  0
 22 23  1  0  0  0
  9 19  1  0  0  0
  6  7  1  0  0  0
 28 38  1  0  0  0
 25 26  1  0  0  0
M  END
> <minimizedAffinity>
-10.23787

$$$$
1H22_E10_A_1536


 38 41  0  0  0  0  0  0  0  0999 V2000
    1.9710   61.9670   70.2139 C   0  0  0  0  0  0  0  0  0  0  0  0
    1.0369   61.7214   71.4013 C   0  0  0  0  0  0  0  0  0  0  0  0
    0.9266   62.9244   72.2983 C   0  0  0  0  0  0  0  0  0  0  0  0
    1.3408   62.6258   73.7428 C   0  0  0  0  0  0  0  0  0  0  0  0
    1.1230   61.1756   74.1378 C   0  0  0  0  0  0  0  0  0  0  0  0
    2.3153   60.6944   74.9556 N   0  0  0  0  0  0  0  0  0  0  0  0
    3.0939   61.3218   74.7543 H   0  0  0  0  0  0  0  0  0  0  0  0
    3.8439   58.7711   70.4655 C   0  0  0  0  0  0  0  0  0  0  0  0
    2.8690   58.0648   71.1276 N   0  0  0  0  0  0  0  0  0  0  0  0
    2.5154   58.1779   72.4182 C   0  0  0  0  0  0  0  0  0  0  0  0
    3.1651   59.0975   73.2340 C   0  0  0  0  0  0  0  0  0  0  0  0
    4.2545   59.9101   72.6499 C   0  0  0  0  0  0  0  0  0  0  0  0
    4.6001   59.7696   71.3196 C   0  0  0  0  0  0  0  0  0  0  0  0
    4.0266   58.5994   69.2627 O   0  0  0  0  0  0  0  0  0  0  0  0
    1.4027   57.2248   72.9213 C   0  0  0  0  0  0  0  0  0  0  0  0
    2.8166   59.2545   74.7282 C   0  0  0  0  0  0  0  0  0  0  0  0
    1.7438   58.2314   75.2438 C   0  0  0  0  0  0  0  0  0  0  0  0
    0.6982   57.8092   74.1559 C   0  0  0  0  0  0  0  0  0  0  0  0
    2.3736   57.4007   70.5957 H   0  0  0  0  0  0  0  0  0  0  0  0
    2.4198   63.4347   70.2132 C   0  0  0  0  0  0  0  0  0  0  0  0
    3.4815   63.8697   69.1858 C   0  0  0  0  0  0  0  0  0  0  0  0
    4.2016   65.2111   69.4664 C   0  0  0  0  0  0  0  0  0  0  0  0
    3.1777   66.3752   69.5287 C   0  0  0  0  0  0  0  0  0  0  0  0
    2.5016   66.6543   68.1988 C   0  0  0  0  0  0  0  0  0  0  0  0
    3.5498   67.1700   67.1920 N   0  0  0  0  0  0  0  0  0  0  0  0
    3.7586   68.1367   67.4418 H   0  0  0  0  0  0  0  0  0  0  0  0
    4.4703   63.4462   63.5319 C   0  0  0  0  0  0  0  0  0  0  0  0
    4.7708   64.7560   63.1765 N   0  0  0  0  0  0  0  0  0  0  0  0
    4.3962   65.8983   63.8179 C   0  0  0  0  0  0  0  0  0  0  0  0
    3.6231   65.8339   64.9833 C   0  0  0  0  0  0  0  0  0  0  0  0
    3.2543   64.4815   65.4865 C   0  0  0  0  0  0  0  0  0  0  0  0
    3.6452   63.3111   64.8108 C   0  0  0  0  0  0  0  0  0  0  0  0
    4.7929   62.5077   62.7769 O   0  0  0  0  0  0  0  0  0  0  0  0
    4.8820   67.2172   63.1860 C   0  0  0  0  0  0  0  0  0  0  0  0
    3.1971   67.1531   65.7126 C   0  0  0  0  0  0  0  0  0  0  0  0
    3.9263   68.4256   65.1619 C   0  0  0  0  0  0  0  0  0  0  0  0
    4.0369   68.4300   63.6564 C   0  0  0  0  0  0  0  0  0  0  0  0
    5.3184   64.8719   62.3666 H   0  0  0  0  0  0  0  0  0  0  0  0
  8  9  1  0  0  0
  8 13  1  0  0  0
  8 14  2  0  0  0
  9 10  1  0  0  0
 10 11  2  0  0  0
 10 15  1  0  0  0
 11 12  1  0  0  0
 11 16  1  0  0  0
 12 13  2  0  0  0
 15 18  1  0  0  0
 16 17  1  0  0  0
 16  6  1  0  0  0
 17 18  1  0  0  0
  6  5  1  0  0  0
  5  4  1  0  0  0
 27 28  1  0  0  0
 27 32  1  0  0  0
 27 33  2  0  0  0
 28 29  1  0  0  0
 29 30  2  0  0  0
 29 34  1  0  0  0
 30 31  1  0  0  0
 30 35  1  0  0  0
 31 32  2  0  0  0
 34 37  1  0  0  0
 35 36  1  0  0  0
 35 25  1  0  0  0
 36 37  1  0  0  0
 25 24  1  0  0  0
 24 23  1  0  0  0
  4  3  1  0  0  0
  3  2  1  0  0  0
  2  1  1  0  0  0
  1 20  1  0  0  0
 20 21  1  0  0  0
 21 22  1  0  0  0
 22 23  1  0  0  0
  9 19  1  0  0  0
  6  7  1  0  0  0
 28 38  1  0  0  0
 25 26  1  0  0  0
M  END
> <minimizedAffinity>
-10.21857

$$$$
1H22_E10_A_1536


 38 41  0  0  0  0  0  0  0  0999 V2000
    2.5657   63.1970   69.9776 C   0  0  0  0  0  0  0  0  0  0  0  0
    3.9609   63.8264   69.9952 C   0  0  0  0  0  0  0  0  0  0  0  0
    4.0456   65.0496   69.1230 C   0  0  0  0  0  0  0  0  0  0  0  0
    2.9926   66.1042   69.4785 C   0  0  0  0  0  0  0  0  0  0  0  0
    2.8882   67.2138   68.4469 C   0  0  0  0  0  0  0  0  0  0  0  0
    3.7839   66.8806   67.2600 N   0  0  0  0  0  0  0  0  0  0  0  0
    4.5805   67.5167   67.2935 H   0  0  0  0  0  0  0  0  0  0  0  0
    4.4304   63.4417   63.5246 C   0  0  0  0  0  0  0  0  0  0  0  0
    4.7450   64.7423   63.2129 N   0  0  0  0  0  0  0  0  0  0  0  0
    4.3943   65.8494   63.8872 C   0  0  0  0  0  0  0  0  0  0  0  0
    3.6299   65.7404   65.0436 C   0  0  0  0  0  0  0  0  0  0  0  0
    3.2027   64.3932   65.4804 C   0  0  0  0  0  0  0  0  0  0  0  0
    3.5747   63.2716   64.7645 C   0  0  0  0  0  0  0  0  0  0  0  0
    4.8648   62.5170   62.8421 O   0  0  0  0  0  0  0  0  0  0  0  0
    4.8527   67.2031   63.2898 C   0  0  0  0  0  0  0  0  0  0  0  0
    3.1789   66.9783   65.8454 C   0  0  0  0  0  0  0  0  0  0  0  0
    3.5830   68.3454   65.1887 C   0  0  0  0  0  0  0  0  0  0  0  0
    4.9223   68.2862   64.3778 C   0  0  0  0  0  0  0  0  0  0  0  0
    5.2892   64.8779   62.4037 H   0  0  0  0  0  0  0  0  0  0  0  0
    1.9462   63.2908   71.3787 C   0  0  0  0  0  0  0  0  0  0  0  0
    0.4637   62.9082   71.5451 C   0  0  0  0  0  0  0  0  0  0  0  0
    0.1647   61.4128   71.8116 C   0  0  0  0  0  0  0  0  0  0  0  0
   -1.0175   61.2633   72.8052 C   0  0  0  0  0  0  0  0  0  0  0  0
   -0.8830   60.0637   73.7252 C   0  0  0  0  0  0  0  0  0  0  0  0
    0.4595   60.1473   74.4793 N   0  0  0  0  0  0  0  0  0  0  0  0
    0.9258   61.0010   74.1724 H   0  0  0  0  0  0  0  0  0  0  0  0
    4.6637   59.7573   71.2725 C   0  0  0  0  0  0  0  0  0  0  0  0
    3.8113   58.6601   71.3176 N   0  0  0  0  0  0  0  0  0  0  0  0
    2.8306   58.4062   72.2287 C   0  0  0  0  0  0  0  0  0  0  0  0
    2.5814   59.3087   73.2696 C   0  0  0  0  0  0  0  0  0  0  0  0
    3.4126   60.5436   73.3188 C   0  0  0  0  0  0  0  0  0  0  0  0
    4.4245   60.7898   72.3731 C   0  0  0  0  0  0  0  0  0  0  0  0
    5.5892   59.7914   70.4375 O   0  0  0  0  0  0  0  0  0  0  0  0
    2.0407   57.0990   72.0232 C   0  0  0  0  0  0  0  0  0  0  0  0
    1.4520   59.0069   74.3122 C   0  0  0  0  0  0  0  0  0  0  0  0
    0.5387   57.8023   73.9012 C   0  0  0  0  0  0  0  0  0  0  0  0
    1.3198   56.6483   73.3207 C   0  0  0  0  0  0  0  0  0  0  0  0
    3.9302   57.9879   70.6082 H   0  0  0  0  0  0  0  0  0  0  0  0
  8  9  1  0  0  0
  8 13  1  0  0  0
  8 14  2  0  0  0
  9 10  1  0  0  0
 10 11  2  0  0  0
 10 15  1  0  0  0
 11 12  1  0  0  0
 11 16  1  0  0  0
 12 13  2  0  0  0
 15 18  1  0  0  0
 16 17  1  0  0  0
 16  6  1  0  0  0
 17 18  1  0  0  0
  6  5  1  0  0  0
  5  4  1  0  0  0
 27 28  1  0  0  0
 27 32  1  0  0  0
 27 33  2  0  0  0
 28 29  1  0  0  0
 29 30  2  0  0  0
 29 34  1  0  0  0
 30 31  1  0  0  0
 30 35  1  0  0  0
 31 32  2  0  0  0
 34 37  1  0  0  0
 35 36  1  0  0  0
 35 25  1  0  0  0
 36 37  1  0  0  0
 25 24  1  0  0  0
 24 23  1  0  0  0
  4  3  1  0  0  0
  3  2  1  0  0  0
  2  1  1  0  0  0
  1 20  1  0  0  0
 20 21  1  0  0  0
 21 22  1  0  0  0
 22 23  1  0  0  0
  9 19  1  0  0  0
  6  7  1  0  0  0
 28 38  1  0  0  0
 25 26  1  0  0  0
M  END
> <minimizedAffinity>
-10.07757

$$$$
