5LDM_2AM_A_201


 29 31  0  0  0  0  0  0  0  0999 V2000
   21.1063  -33.2224   20.2994 C   0  0  0  0  0  0  0  0  0  0  0  0
   21.1515  -32.8232   21.6563 O   0  0  0  0  0  0  0  0  0  0  0  0
   20.3822  -32.1313   19.5317 C   0  0  0  0  0  0  0  0  0  0  0  0
   19.2670  -32.6916   18.8749 O   0  0  0  0  0  0  0  0  0  0  0  0
   19.9726  -31.1025   20.5724 C   0  0  0  0  0  0  0  0  0  0  0  0
   20.1825  -31.8167   21.9008 C   0  0  0  0  0  0  0  0  0  0  0  0
   18.6886  -33.1180   19.5264 H   0  0  0  0  0  0  0  0  0  0  0  0
   20.6114  -30.9368   23.0123 N   0  0  0  0  0  0  0  0  0  0  0  0
   21.7769  -30.2166   23.0589 C   0  0  0  0  0  0  0  0  0  0  0  0
   21.8113  -29.5148   24.2178 N   0  0  0  0  0  0  0  0  0  0  0  0
   20.6816  -29.7651   24.9106 C   0  0  0  0  0  0  0  0  0  0  0  0
   20.2192  -29.3113   26.1415 C   0  0  0  0  0  0  0  0  0  0  0  0
   20.9402  -28.4589   26.8695 N   0  0  0  0  0  0  0  0  0  0  0  0
   18.9979  -29.7542   26.6050 N   0  0  0  0  0  0  0  0  0  0  0  0
   18.2525  -30.6372   25.8483 C   0  0  0  0  0  0  0  0  0  0  0  0
   18.7221  -31.0770   24.6292 N   0  0  0  0  0  0  0  0  0  0  0  0
   19.9156  -30.6506   24.1619 C   0  0  0  0  0  0  0  0  0  0  0  0
   21.8118  -28.1433   26.5378 H   0  0  0  0  0  0  0  0  0  0  0  0
   20.6012  -28.1448   27.7388 H   0  0  0  0  0  0  0  0  0  0  0  0
   22.5053  -33.4495   19.7515 C   0  0  0  0  0  0  0  0  0  0  0  0
   22.5302  -33.1360   18.3783 O   0  0  0  0  0  0  0  0  0  0  0  0
   22.2823  -32.2065   18.2543 H   0  0  0  0  0  0  0  0  0  0  0  0
   18.6334  -30.7009   20.3831 O   0  0  0  0  0  0  0  0  0  0  0  0
   18.1100  -29.2457   20.8396 P   0  0  0  0  0  0  0  0  0  0  0  0
   16.9924  -28.7856   19.9310 O   0  0  0  0  0  0  0  0  0  0  0  0
   17.6089  -29.3241   22.2631 O   0  0  0  0  0  0  0  0  0  0  0  0
   19.2727  -28.2878   20.7531 O   0  0  0  0  0  0  0  0  0  0  0  0
   17.2926  -28.4509   22.5431 H   0  0  0  0  0  0  0  0  0  0  0  0
   18.9830  -27.4025   21.0234 H   0  0  0  0  0  0  0  0  0  0  0  0
 24 25  2  0  0  0
 24 26  1  0  0  0
 24 27  1  0  0  0
 24 23  1  0  0  0
 20 21  1  0  0  0
 20  1  1  0  0  0
  1  2  1  0  0  0
  1  3  1  0  0  0
  2  6  1  0  0  0
  3  4  1  0  0  0
  3  5  1  0  0  0
  5 23  1  0  0  0
  5  6  1  0  0  0
  6  8  1  0  0  0
  8  9  1  0  0  0
  8 17  1  0  0  0
  9 10  2  0  0  0
 10 11  1  0  0  0
 11 12  1  0  0  0
 11 17  2  0  0  0
 12 13  1  0  0  0
 12 14  2  0  0  0
 14 15  1  0  0  0
 15 16  2  0  0  0
 16 17  1  0  0  0
 26 28  1  0  0  0
 27 29  1  0  0  0
 21 22  1  0  0  0
  4  7  1  0  0  0
 13 18  1  0  0  0
 13 19  1  0  0  0
M  END
> <minimizedAffinity>
-6.96938

$$$$
5LDM_2AM_A_201


 29 31  0  0  0  0  0  0  0  0999 V2000
   21.8905  -31.5554   20.9921 C   0  0  0  0  0  0  0  0  0  0  0  0
   21.5072  -31.1988   22.3068 O   0  0  0  0  0  0  0  0  0  0  0  0
   20.6228  -31.6509   20.1625 C   0  0  0  0  0  0  0  0  0  0  0  0
   20.5353  -32.9415   19.6006 O   0  0  0  0  0  0  0  0  0  0  0  0
   19.4818  -31.3707   21.1262 C   0  0  0  0  0  0  0  0  0  0  0  0
   20.1279  -31.4661   22.5018 C   0  0  0  0  0  0  0  0  0  0  0  0
   20.5530  -33.6043   20.3086 H   0  0  0  0  0  0  0  0  0  0  0  0
   19.5560  -30.5505   23.5158 N   0  0  0  0  0  0  0  0  0  0  0  0
   18.7911  -29.4434   23.2539 C   0  0  0  0  0  0  0  0  0  0  0  0
   18.4325  -28.8716   24.4291 N   0  0  0  0  0  0  0  0  0  0  0  0
   18.9464  -29.6001   25.4410 C   0  0  0  0  0  0  0  0  0  0  0  0
   18.8823  -29.4571   26.8232 C   0  0  0  0  0  0  0  0  0  0  0  0
   18.2101  -28.4468   27.3745 N   0  0  0  0  0  0  0  0  0  0  0  0
   19.5249  -30.3779   27.6242 N   0  0  0  0  0  0  0  0  0  0  0  0
   20.2204  -31.4242   27.0503 C   0  0  0  0  0  0  0  0  0  0  0  0
   20.2737  -31.5550   25.6791 N   0  0  0  0  0  0  0  0  0  0  0  0
   19.6479  -30.6616   24.8821 C   0  0  0  0  0  0  0  0  0  0  0  0
   17.7517  -27.7901   26.8020 H   0  0  0  0  0  0  0  0  0  0  0  0
   18.1720  -28.3573   28.3542 H   0  0  0  0  0  0  0  0  0  0  0  0
   22.8566  -30.5366   20.4112 C   0  0  0  0  0  0  0  0  0  0  0  0
   23.3093  -29.6800   21.4339 O   0  0  0  0  0  0  0  0  0  0  0  0
   23.7616  -30.2011   22.1156 H   0  0  0  0  0  0  0  0  0  0  0  0
   18.4383  -32.3050   20.9559 O   0  0  0  0  0  0  0  0  0  0  0  0
   16.9146  -31.8408   20.7059 P   0  0  0  0  0  0  0  0  0  0  0  0
   16.3964  -32.4292   19.4131 O   0  0  0  0  0  0  0  0  0  0  0  0
   16.0583  -32.3118   21.8585 O   0  0  0  0  0  0  0  0  0  0  0  0
   16.8965  -30.3338   20.6308 O   0  0  0  0  0  0  0  0  0  0  0  0
   15.1400  -32.0352   21.7133 H   0  0  0  0  0  0  0  0  0  0  0  0
   15.9881  -30.0285   20.4804 H   0  0  0  0  0  0  0  0  0  0  0  0
 24 25  2  0  0  0
 24 26  1  0  0  0
 24 27  1  0  0  0
 24 23  1  0  0  0
 20 21  1  0  0  0
 20  1  1  0  0  0
  1  2  1  0  0  0
  1  3  1  0  0  0
  2  6  1  0  0  0
  3  4  1  0  0  0
  3  5  1  0  0  0
  5 23  1  0  0  0
  5  6  1  0  0  0
  6  8  1  0  0  0
  8  9  1  0  0  0
  8 17  1  0  0  0
  9 10  2  0  0  0
 10 11  1  0  0  0
 11 12  1  0  0  0
 11 17  2  0  0  0
 12 13  1  0  0  0
 12 14  2  0  0  0
 14 15  1  0  0  0
 15 16  2  0  0  0
 16 17  1  0  0  0
 26 28  1  0  0  0
 27 29  1  0  0  0
 21 22  1  0  0  0
  4  7  1  0  0  0
 13 18  1  0  0  0
 13 19  1  0  0  0
M  END
> <minimizedAffinity>
-6.80465

$$$$
5LDM_2AM_A_201


 29 31  0  0  0  0  0  0  0  0999 V2000
   17.7567  -26.7877   21.6762 C   0  0  0  0  0  0  0  0  0  0  0  0
   18.8152  -27.3988   22.3896 O   0  0  0  0  0  0  0  0  0  0  0  0
   16.8892  -27.8999   21.1151 C   0  0  0  0  0  0  0  0  0  0  0  0
   16.8121  -27.7624   19.7137 O   0  0  0  0  0  0  0  0  0  0  0  0
   17.5707  -29.1952   21.5238 C   0  0  0  0  0  0  0  0  0  0  0  0
   18.9499  -28.7546   21.9951 C   0  0  0  0  0  0  0  0  0  0  0  0
   17.7060  -27.7786   19.3375 H   0  0  0  0  0  0  0  0  0  0  0  0
   19.5125  -29.5668   23.0985 N   0  0  0  0  0  0  0  0  0  0  0  0
   20.3815  -30.6175   22.9564 C   0  0  0  0  0  0  0  0  0  0  0  0
   20.6921  -31.0972   24.1852 N   0  0  0  0  0  0  0  0  0  0  0  0
   20.0446  -30.3645   25.1139 C   0  0  0  0  0  0  0  0  0  0  0  0
   20.0122  -30.4318   26.5030 C   0  0  0  0  0  0  0  0  0  0  0  0
   20.7181  -31.3530   27.1583 N   0  0  0  0  0  0  0  0  0  0  0  0
   19.2377  -29.5291   27.2013 N   0  0  0  0  0  0  0  0  0  0  0  0
   18.5077  -28.5750   26.5196 C   0  0  0  0  0  0  0  0  0  0  0  0
   18.5509  -28.5184   25.1430 N   0  0  0  0  0  0  0  0  0  0  0  0
   19.3061  -29.3951   24.4459 C   0  0  0  0  0  0  0  0  0  0  0  0
   21.2706  -31.9970   26.6590 H   0  0  0  0  0  0  0  0  0  0  0  0
   20.6869  -31.3896   28.1416 H   0  0  0  0  0  0  0  0  0  0  0  0
   16.9561  -25.8620   22.5767 C   0  0  0  0  0  0  0  0  0  0  0  0
   16.7400  -26.4860   23.8211 O   0  0  0  0  0  0  0  0  0  0  0  0
   17.5940  -26.6814   24.2374 H   0  0  0  0  0  0  0  0  0  0  0  0
   17.6348  -30.0942   20.4383 O   0  0  0  0  0  0  0  0  0  0  0  0
   17.3914  -31.6766   20.6300 P   0  0  0  0  0  0  0  0  0  0  0  0
   16.4306  -32.1868   19.5799 O   0  0  0  0  0  0  0  0  0  0  0  0
   18.7127  -32.3993   20.5049 O   0  0  0  0  0  0  0  0  0  0  0  0
   16.8129  -31.8922   22.0069 O   0  0  0  0  0  0  0  0  0  0  0  0
   18.5722  -33.3522   20.6195 H   0  0  0  0  0  0  0  0  0  0  0  0
   16.6569  -32.8392   22.1474 H   0  0  0  0  0  0  0  0  0  0  0  0
 24 25  2  0  0  0
 24 26  1  0  0  0
 24 27  1  0  0  0
 24 23  1  0  0  0
 20 21  1  0  0  0
 20  1  1  0  0  0
  1  2  1  0  0  0
  1  3  1  0  0  0
  2  6  1  0  0  0
  3  4  1  0  0  0
  3  5  1  0  0  0
  5 23  1  0  0  0
  5  6  1  0  0  0
  6  8  1  0  0  0
  8  9  1  0  0  0
  8 17  1  0  0  0
  9 10  2  0  0  0
 10 11  1  0  0  0
 11 12  1  0  0  0
 11 17  2  0  0  0
 12 13  1  0  0  0
 12 14  2  0  0  0
 14 15  1  0  0  0
 15 16  2  0  0  0
 16 17  1  0  0  0
 26 28  1  0  0  0
 27 29  1  0  0  0
 21 22  1  0  0  0
  4  7  1  0  0  0
 13 18  1  0  0  0
 13 19  1  0  0  0
M  END
> <minimizedAffinity>
-6.74399

$$$$
5LDM_2AM_A_201


 29 31  0  0  0  0  0  0  0  0999 V2000
   16.2566  -24.8636   27.4799 C   0  0  0  0  0  0  0  0  0  0  0  0
   16.6470  -26.1149   28.0134 O   0  0  0  0  0  0  0  0  0  0  0  0
   16.5832  -24.8832   25.9975 C   0  0  0  0  0  0  0  0  0  0  0  0
   17.4471  -23.8086   25.7012 O   0  0  0  0  0  0  0  0  0  0  0  0
   17.2400  -26.2294   25.7416 C   0  0  0  0  0  0  0  0  0  0  0  0
   17.5565  -26.7571   27.1345 C   0  0  0  0  0  0  0  0  0  0  0  0
   18.2462  -23.8762   26.2468 H   0  0  0  0  0  0  0  0  0  0  0  0
   17.4648  -28.2289   27.2712 N   0  0  0  0  0  0  0  0  0  0  0  0
   16.3272  -28.9364   27.5620 C   0  0  0  0  0  0  0  0  0  0  0  0
   16.6273  -30.2579   27.5821 N   0  0  0  0  0  0  0  0  0  0  0  0
   17.9369  -30.4102   27.2985 C   0  0  0  0  0  0  0  0  0  0  0  0
   18.7463  -31.5365   27.1923 C   0  0  0  0  0  0  0  0  0  0  0  0
   18.2457  -32.7571   27.3819 N   0  0  0  0  0  0  0  0  0  0  0  0
   20.0816  -31.3775   26.8858 N   0  0  0  0  0  0  0  0  0  0  0  0
   20.5977  -30.1114   26.6893 C   0  0  0  0  0  0  0  0  0  0  0  0
   19.7835  -29.0042   26.7955 N   0  0  0  0  0  0  0  0  0  0  0  0
   18.4735  -29.1447   27.0936 C   0  0  0  0  0  0  0  0  0  0  0  0
   17.2924  -32.8697   27.6006 H   0  0  0  0  0  0  0  0  0  0  0  0
   18.8292  -33.5461   27.3032 H   0  0  0  0  0  0  0  0  0  0  0  0
   14.7778  -24.6077   27.7176 C   0  0  0  0  0  0  0  0  0  0  0  0
   14.2819  -23.7477   26.7181 O   0  0  0  0  0  0  0  0  0  0  0  0
   14.4020  -24.1597   25.8482 H   0  0  0  0  0  0  0  0  0  0  0  0
   18.3961  -26.0821   24.9465 O   0  0  0  0  0  0  0  0  0  0  0  0
   18.6800  -27.0326   23.6753 P   0  0  0  0  0  0  0  0  0  0  0  0
   18.9723  -26.1931   22.4522 O   0  0  0  0  0  0  0  0  0  0  0  0
   19.8640  -27.9219   23.9769 O   0  0  0  0  0  0  0  0  0  0  0  0
   17.4486  -27.8730   23.4420 O   0  0  0  0  0  0  0  0  0  0  0  0
   20.0393  -28.4962   23.2151 H   0  0  0  0  0  0  0  0  0  0  0  0
   17.5942  -28.4554   22.6802 H   0  0  0  0  0  0  0  0  0  0  0  0
 24 25  2  0  0  0
 24 26  1  0  0  0
 24 27  1  0  0  0
 24 23  1  0  0  0
 20 21  1  0  0  0
 20  1  1  0  0  0
  1  2  1  0  0  0
  1  3  1  0  0  0
  2  6  1  0  0  0
  3  4  1  0  0  0
  3  5  1  0  0  0
  5 23  1  0  0  0
  5  6  1  0  0  0
  6  8  1  0  0  0
  8  9  1  0  0  0
  8 17  1  0  0  0
  9 10  2  0  0  0
 10 11  1  0  0  0
 11 12  1  0  0  0
 11 17  2  0  0  0
 12 13  1  0  0  0
 12 14  2  0  0  0
 14 15  1  0  0  0
 15 16  2  0  0  0
 16 17  1  0  0  0
 26 28  1  0  0  0
 27 29  1  0  0  0
 21 22  1  0  0  0
  4  7  1  0  0  0
 13 18  1  0  0  0
 13 19  1  0  0  0
M  END
> <minimizedAffinity>
-6.69672

$$$$
5LDM_2AM_A_201


 29 31  0  0  0  0  0  0  0  0999 V2000
   18.7618  -27.2631   21.3046 C   0  0  0  0  0  0  0  0  0  0  0  0
   19.8562  -27.9227   20.6963 O   0  0  0  0  0  0  0  0  0  0  0  0
   17.7113  -28.3164   21.6070 C   0  0  0  0  0  0  0  0  0  0  0  0
   16.5051  -27.9617   20.9682 O   0  0  0  0  0  0  0  0  0  0  0  0
   18.2763  -29.6220   21.0728 C   0  0  0  0  0  0  0  0  0  0  0  0
   19.4494  -29.1892   20.2038 C   0  0  0  0  0  0  0  0  0  0  0  0
   16.6589  -27.8699   20.0149 H   0  0  0  0  0  0  0  0  0  0  0  0
   20.5885  -30.1356   20.1907 N   0  0  0  0  0  0  0  0  0  0  0  0
   21.1846  -30.6860   21.2957 C   0  0  0  0  0  0  0  0  0  0  0  0
   22.1738  -31.5187   20.8898 N   0  0  0  0  0  0  0  0  0  0  0  0
   22.2150  -31.5194   19.5418 C   0  0  0  0  0  0  0  0  0  0  0  0
   23.0271  -32.1873   18.6311 C   0  0  0  0  0  0  0  0  0  0  0  0
   23.9829  -33.0168   19.0491 N   0  0  0  0  0  0  0  0  0  0  0  0
   22.8321  -31.9823   17.2811 N   0  0  0  0  0  0  0  0  0  0  0  0
   21.8405  -31.1224   16.8506 C   0  0  0  0  0  0  0  0  0  0  0  0
   21.0416  -30.4689   17.7643 N   0  0  0  0  0  0  0  0  0  0  0  0
   21.2201  -30.6610   19.0895 C   0  0  0  0  0  0  0  0  0  0  0  0
   24.1213  -33.1625   20.0128 H   0  0  0  0  0  0  0  0  0  0  0  0
   24.5504  -33.4838   18.3941 H   0  0  0  0  0  0  0  0  0  0  0  0
   19.1967  -26.5368   22.5665 C   0  0  0  0  0  0  0  0  0  0  0  0
   19.9352  -27.4143   23.3844 O   0  0  0  0  0  0  0  0  0  0  0  0
   20.7191  -27.7221   22.9032 H   0  0  0  0  0  0  0  0  0  0  0  0
   17.2993  -30.3319   20.3432 O   0  0  0  0  0  0  0  0  0  0  0  0
   17.0520  -31.9095   20.5662 P   0  0  0  0  0  0  0  0  0  0  0  0
   16.1193  -32.4457   19.5038 O   0  0  0  0  0  0  0  0  0  0  0  0
   18.3765  -32.6334   20.4928 O   0  0  0  0  0  0  0  0  0  0  0  0
   16.4379  -32.0930   21.9323 O   0  0  0  0  0  0  0  0  0  0  0  0
   18.2336  -33.5834   20.6264 H   0  0  0  0  0  0  0  0  0  0  0  0
   16.2788  -33.0365   22.0912 H   0  0  0  0  0  0  0  0  0  0  0  0
 24 25  2  0  0  0
 24 26  1  0  0  0
 24 27  1  0  0  0
 24 23  1  0  0  0
 20 21  1  0  0  0
 20  1  1  0  0  0
  1  2  1  0  0  0
  1  3  1  0  0  0
  2  6  1  0  0  0
  3  4  1  0  0  0
  3  5  1  0  0  0
  5 23  1  0  0  0
  5  6  1  0  0  0
  6  8  1  0  0  0
  8  9  1  0  0  0
  8 17  1  0  0  0
  9 10  2  0  0  0
 10 11  1  0  0  0
 11 12  1  0  0  0
 11 17  2  0  0  0
 12 13  1  0  0  0
 12 14  2  0  0  0
 14 15  1  0  0  0
 15 16  2  0  0  0
 16 17  1  0  0  0
 26 28  1  0  0  0
 27 29  1  0  0  0
 21 22  1  0  0  0
  4  7  1  0  0  0
 13 18  1  0  0  0
 13 19  1  0  0  0
M  END
> <minimizedAffinity>
-6.59100

$$$$
5LDM_2AM_A_201


 29 31  0  0  0  0  0  0  0  0999 V2000
   17.8311  -28.5699   26.9520 C   0  0  0  0  0  0  0  0  0  0  0  0
   18.7270  -29.4165   26.2568 O   0  0  0  0  0  0  0  0  0  0  0  0
   17.2275  -27.6187   25.9346 C   0  0  0  0  0  0  0  0  0  0  0  0
   17.4895  -26.2911   26.3319 O   0  0  0  0  0  0  0  0  0  0  0  0
   17.8931  -27.9592   24.6116 C   0  0  0  0  0  0  0  0  0  0  0  0
   19.0697  -28.8417   25.0062 C   0  0  0  0  0  0  0  0  0  0  0  0
   18.4470  -26.1632   26.4206 H   0  0  0  0  0  0  0  0  0  0  0  0
   19.4072  -29.8951   24.0213 N   0  0  0  0  0  0  0  0  0  0  0  0
   20.2859  -30.9278   24.2234 C   0  0  0  0  0  0  0  0  0  0  0  0
   20.3175  -31.6993   23.1097 N   0  0  0  0  0  0  0  0  0  0  0  0
   19.4653  -31.1842   22.2003 C   0  0  0  0  0  0  0  0  0  0  0  0
   19.1212  -31.5792   20.9116 C   0  0  0  0  0  0  0  0  0  0  0  0
   19.6695  -32.6617   20.3603 N   0  0  0  0  0  0  0  0  0  0  0  0
   18.1998  -30.8352   20.2045 N   0  0  0  0  0  0  0  0  0  0  0  0
   17.6327  -29.7141   20.7785 C   0  0  0  0  0  0  0  0  0  0  0  0
   17.9813  -29.3355   22.0573 N   0  0  0  0  0  0  0  0  0  0  0  0
   18.8811  -30.0553   22.7623 C   0  0  0  0  0  0  0  0  0  0  0  0
   20.3271  -33.1921   20.8657 H   0  0  0  0  0  0  0  0  0  0  0  0
   19.4170  -32.9308   19.4476 H   0  0  0  0  0  0  0  0  0  0  0  0
   16.7565  -29.3779   27.6600 C   0  0  0  0  0  0  0  0  0  0  0  0
   15.5460  -28.6573   27.6562 O   0  0  0  0  0  0  0  0  0  0  0  0
   15.2725  -28.4894   26.7408 H   0  0  0  0  0  0  0  0  0  0  0  0
   18.3007  -26.7888   23.9374 O   0  0  0  0  0  0  0  0  0  0  0  0
   17.3089  -25.9881   22.9498 P   0  0  0  0  0  0  0  0  0  0  0  0
   18.0785  -25.4451   21.7670 O   0  0  0  0  0  0  0  0  0  0  0  0
   16.2281  -26.9269   22.4660 O   0  0  0  0  0  0  0  0  0  0  0  0
   16.6952  -24.8526   23.7314 O   0  0  0  0  0  0  0  0  0  0  0  0
   15.6283  -26.4503   21.8711 H   0  0  0  0  0  0  0  0  0  0  0  0
   16.0926  -24.3539   23.1579 H   0  0  0  0  0  0  0  0  0  0  0  0
 24 25  2  0  0  0
 24 26  1  0  0  0
 24 27  1  0  0  0
 24 23  1  0  0  0
 20 21  1  0  0  0
 20  1  1  0  0  0
  1  2  1  0  0  0
  1  3  1  0  0  0
  2  6  1  0  0  0
  3  4  1  0  0  0
  3  5  1  0  0  0
  5 23  1  0  0  0
  5  6  1  0  0  0
  6  8  1  0  0  0
  8  9  1  0  0  0
  8 17  1  0  0  0
  9 10  2  0  0  0
 10 11  1  0  0  0
 11 12  1  0  0  0
 11 17  2  0  0  0
 12 13  1  0  0  0
 12 14  2  0  0  0
 14 15  1  0  0  0
 15 16  2  0  0  0
 16 17  1  0  0  0
 26 28  1  0  0  0
 27 29  1  0  0  0
 21 22  1  0  0  0
  4  7  1  0  0  0
 13 18  1  0  0  0
 13 19  1  0  0  0
M  END
> <minimizedAffinity>
-6.32700

$$$$
5LDM_2AM_A_201


 29 31  0  0  0  0  0  0  0  0999 V2000
   21.3696  -30.4314   22.8898 C   0  0  0  0  0  0  0  0  0  0  0  0
   20.7750  -30.4315   24.1741 O   0  0  0  0  0  0  0  0  0  0  0  0
   20.2526  -30.5970   21.8752 C   0  0  0  0  0  0  0  0  0  0  0  0
   20.5107  -31.7376   21.0871 O   0  0  0  0  0  0  0  0  0  0  0  0
   18.9787  -30.7442   22.6904 C   0  0  0  0  0  0  0  0  0  0  0  0
   19.4740  -30.9928   24.1087 C   0  0  0  0  0  0  0  0  0  0  0  0
   20.5938  -32.5152   21.6610 H   0  0  0  0  0  0  0  0  0  0  0  0
   18.6082  -30.4311   25.1710 N   0  0  0  0  0  0  0  0  0  0  0  0
   17.9545  -31.1530   26.1359 C   0  0  0  0  0  0  0  0  0  0  0  0
   17.2810  -30.2964   26.9417 N   0  0  0  0  0  0  0  0  0  0  0  0
   17.5005  -29.0359   26.5155 C   0  0  0  0  0  0  0  0  0  0  0  0
   17.0548  -27.8015   26.9767 C   0  0  0  0  0  0  0  0  0  0  0  0
   16.2542  -27.7182   28.0390 N   0  0  0  0  0  0  0  0  0  0  0  0
   17.4525  -26.6556   26.3199 N   0  0  0  0  0  0  0  0  0  0  0  0
   18.2827  -26.7448   25.2195 C   0  0  0  0  0  0  0  0  0  0  0  0
   18.7186  -27.9746   24.7748 N   0  0  0  0  0  0  0  0  0  0  0  0
   18.3384  -29.1051   25.4089 C   0  0  0  0  0  0  0  0  0  0  0  0
   15.9708  -28.5366   28.5071 H   0  0  0  0  0  0  0  0  0  0  0  0
   15.9463  -26.8383   28.3556 H   0  0  0  0  0  0  0  0  0  0  0  0
   22.1491  -29.1492   22.6507 C   0  0  0  0  0  0  0  0  0  0  0  0
   21.7154  -28.1587   23.5537 O   0  0  0  0  0  0  0  0  0  0  0  0
   21.8650  -28.4622   24.4628 H   0  0  0  0  0  0  0  0  0  0  0  0
   18.1889  -31.8065   22.2023 O   0  0  0  0  0  0  0  0  0  0  0  0
   17.1848  -31.6154   20.9553 P   0  0  0  0  0  0  0  0  0  0  0  0
   15.8878  -32.3485   21.2139 O   0  0  0  0  0  0  0  0  0  0  0  0
   16.9072  -30.1422   20.7645 O   0  0  0  0  0  0  0  0  0  0  0  0
   17.8592  -32.1773   19.7280 O   0  0  0  0  0  0  0  0  0  0  0  0
   16.3033  -30.0214   20.0151 H   0  0  0  0  0  0  0  0  0  0  0  0
   17.2737  -32.0742   18.9615 H   0  0  0  0  0  0  0  0  0  0  0  0
 24 25  2  0  0  0
 24 26  1  0  0  0
 24 27  1  0  0  0
 24 23  1  0  0  0
 20 21  1  0  0  0
 20  1  1  0  0  0
  1  2  1  0  0  0
  1  3  1  0  0  0
  2  6  1  0  0  0
  3  4  1  0  0  0
  3  5  1  0  0  0
  5 23  1  0  0  0
  5  6  1  0  0  0
  6  8  1  0  0  0
  8  9  1  0  0  0
  8 17  1  0  0  0
  9 10  2  0  0  0
 10 11  1  0  0  0
 11 12  1  0  0  0
 11 17  2  0  0  0
 12 13  1  0  0  0
 12 14  2  0  0  0
 14 15  1  0  0  0
 15 16  2  0  0  0
 16 17  1  0  0  0
 26 28  1  0  0  0
 27 29  1  0  0  0
 21 22  1  0  0  0
  4  7  1  0  0  0
 13 18  1  0  0  0
 13 19  1  0  0  0
M  END
> <minimizedAffinity>
-6.27714

$$$$
5LDM_2AM_A_201


 29 31  0  0  0  0  0  0  0  0999 V2000
   18.8239  -30.8698   26.6560 C   0  0  0  0  0  0  0  0  0  0  0  0
   19.7140  -31.2932   25.6405 O   0  0  0  0  0  0  0  0  0  0  0  0
   18.0336  -29.6973   26.1036 C   0  0  0  0  0  0  0  0  0  0  0  0
   18.2159  -28.5805   26.9453 O   0  0  0  0  0  0  0  0  0  0  0  0
   18.5842  -29.4547   24.7081 C   0  0  0  0  0  0  0  0  0  0  0  0
   19.8702  -30.2693   24.6713 C   0  0  0  0  0  0  0  0  0  0  0  0
   19.1620  -28.3773   27.0126 H   0  0  0  0  0  0  0  0  0  0  0  0
   20.1953  -30.8479   23.3473 N   0  0  0  0  0  0  0  0  0  0  0  0
   21.4532  -31.1462   22.8912 C   0  0  0  0  0  0  0  0  0  0  0  0
   21.3530  -31.6793   21.6493 N   0  0  0  0  0  0  0  0  0  0  0  0
   20.0503  -31.7375   21.3055 C   0  0  0  0  0  0  0  0  0  0  0  0
   19.4044  -32.1899   20.1595 C   0  0  0  0  0  0  0  0  0  0  0  0
   20.0985  -32.6872   19.1361 N   0  0  0  0  0  0  0  0  0  0  0  0
   18.0286  -32.1194   20.0917 N   0  0  0  0  0  0  0  0  0  0  0  0
   17.3117  -31.6041   21.1540 C   0  0  0  0  0  0  0  0  0  0  0  0
   17.9646  -31.1615   22.2845 N   0  0  0  0  0  0  0  0  0  0  0  0
   19.3115  -31.2258   22.3656 C   0  0  0  0  0  0  0  0  0  0  0  0
   21.0805  -32.7372   19.1854 H   0  0  0  0  0  0  0  0  0  0  0  0
   19.6293  -33.0045   18.3310 H   0  0  0  0  0  0  0  0  0  0  0  0
   17.9066  -32.0032   27.0837 C   0  0  0  0  0  0  0  0  0  0  0  0
   18.6790  -33.0769   27.5687 O   0  0  0  0  0  0  0  0  0  0  0  0
   19.2022  -32.7809   28.3300 H   0  0  0  0  0  0  0  0  0  0  0  0
   18.8119  -28.0796   24.4891 O   0  0  0  0  0  0  0  0  0  0  0  0
   17.9649  -27.2405   23.4036 P   0  0  0  0  0  0  0  0  0  0  0  0
   18.8588  -26.2406   22.7055 O   0  0  0  0  0  0  0  0  0  0  0  0
   17.3786  -28.1943   22.3886 O   0  0  0  0  0  0  0  0  0  0  0  0
   16.8589  -26.5210   24.1356 O   0  0  0  0  0  0  0  0  0  0  0  0
   16.8677  -27.6946   21.7327 H   0  0  0  0  0  0  0  0  0  0  0  0
   16.3331  -26.0072   23.5027 H   0  0  0  0  0  0  0  0  0  0  0  0
 24 25  2  0  0  0
 24 26  1  0  0  0
 24 27  1  0  0  0
 24 23  1  0  0  0
 20 21  1  0  0  0
 20  1  1  0  0  0
  1  2  1  0  0  0
  1  3  1  0  0  0
  2  6  1  0  0  0
  3  4  1  0  0  0
  3  5  1  0  0  0
  5 23  1  0  0  0
  5  6  1  0  0  0
  6  8  1  0  0  0
  8  9  1  0  0  0
  8 17  1  0  0  0
  9 10  2  0  0  0
 10 11  1  0  0  0
 11 12  1  0  0  0
 11 17  2  0  0  0
 12 13  1  0  0  0
 12 14  2  0  0  0
 14 15  1  0  0  0
 15 16  2  0  0  0
 16 17  1  0  0  0
 26 28  1  0  0  0
 27 29  1  0  0  0
 21 22  1  0  0  0
  4  7  1  0  0  0
 13 18  1  0  0  0
 13 19  1  0  0  0
M  END
> <minimizedAffinity>
-6.27417

$$$$
5LDM_2AM_A_201


 29 31  0  0  0  0  0  0  0  0999 V2000
   21.9920  -31.5515   20.5902 C   0  0  0  0  0  0  0  0  0  0  0  0
   21.6145  -31.3222   21.9347 O   0  0  0  0  0  0  0  0  0  0  0  0
   20.7225  -31.5470   19.7578 C   0  0  0  0  0  0  0  0  0  0  0  0
   20.6170  -32.7740   19.0707 O   0  0  0  0  0  0  0  0  0  0  0  0
   19.5861  -31.3485   20.7470 C   0  0  0  0  0  0  0  0  0  0  0  0
   20.2318  -31.5888   22.1050 C   0  0  0  0  0  0  0  0  0  0  0  0
   20.6262  -33.5040   19.7093 H   0  0  0  0  0  0  0  0  0  0  0  0
   19.6733  -30.7709   23.2061 N   0  0  0  0  0  0  0  0  0  0  0  0
   19.6785  -31.1073   24.5351 C   0  0  0  0  0  0  0  0  0  0  0  0
   19.1016  -30.1052   25.2420 N   0  0  0  0  0  0  0  0  0  0  0  0
   18.7359  -29.1267   24.3891 C   0  0  0  0  0  0  0  0  0  0  0  0
   18.1136  -27.8983   24.5860 C   0  0  0  0  0  0  0  0  0  0  0  0
   17.7662  -27.4974   25.8086 N   0  0  0  0  0  0  0  0  0  0  0  0
   17.8583  -27.0924   23.4961 N   0  0  0  0  0  0  0  0  0  0  0  0
   18.2200  -27.5102   22.2302 C   0  0  0  0  0  0  0  0  0  0  0  0
   18.8380  -28.7291   22.0499 N   0  0  0  0  0  0  0  0  0  0  0  0
   19.0957  -29.5282   23.1082 C   0  0  0  0  0  0  0  0  0  0  0  0
   17.9488  -28.0732   26.5859 H   0  0  0  0  0  0  0  0  0  0  0  0
   17.3268  -26.6254   25.9344 H   0  0  0  0  0  0  0  0  0  0  0  0
   22.9716  -30.4932   20.1114 C   0  0  0  0  0  0  0  0  0  0  0  0
   23.8626  -31.0625   19.1805 O   0  0  0  0  0  0  0  0  0  0  0  0
   23.3632  -31.4057   18.4231 H   0  0  0  0  0  0  0  0  0  0  0  0
   18.5299  -32.2470   20.4869 O   0  0  0  0  0  0  0  0  0  0  0  0
   16.9853  -31.8060   20.6267 P   0  0  0  0  0  0  0  0  0  0  0  0
   16.1529  -32.4789   19.5587 O   0  0  0  0  0  0  0  0  0  0  0  0
   16.4785  -32.2048   21.9933 O   0  0  0  0  0  0  0  0  0  0  0  0
   16.9159  -30.3072   20.4669 O   0  0  0  0  0  0  0  0  0  0  0  0
   15.5492  -31.9418   22.0830 H   0  0  0  0  0  0  0  0  0  0  0  0
   15.9942  -30.0158   20.5472 H   0  0  0  0  0  0  0  0  0  0  0  0
 24 25  2  0  0  0
 24 26  1  0  0  0
 24 27  1  0  0  0
 24 23  1  0  0  0
 20 21  1  0  0  0
 20  1  1  0  0  0
  1  2  1  0  0  0
  1  3  1  0  0  0
  2  6  1  0  0  0
  3  4  1  0  0  0
  3  5  1  0  0  0
  5 23  1  0  0  0
  5  6  1  0  0  0
  6  8  1  0  0  0
  8  9  1  0  0  0
  8 17  1  0  0  0
  9 10  2  0  0  0
 10 11  1  0  0  0
 11 12  1  0  0  0
 11 17  2  0  0  0
 12 13  1  0  0  0
 12 14  2  0  0  0
 14 15  1  0  0  0
 15 16  2  0  0  0
 16 17  1  0  0  0
 26 28  1  0  0  0
 27 29  1  0  0  0
 21 22  1  0  0  0
  4  7  1  0  0  0
 13 18  1  0  0  0
 13 19  1  0  0  0
M  END
> <minimizedAffinity>
-6.20629

$$$$
5LDM_2AM_A_201


 29 31  0  0  0  0  0  0  0  0999 V2000
   20.5014  -29.7042   24.9691 C   0  0  0  0  0  0  0  0  0  0  0  0
   21.3807  -30.1017   23.9339 O   0  0  0  0  0  0  0  0  0  0  0  0
   19.1037  -30.1376   24.5653 C   0  0  0  0  0  0  0  0  0  0  0  0
   18.2595  -29.0081   24.5405 O   0  0  0  0  0  0  0  0  0  0  0  0
   19.2525  -30.7679   23.1906 C   0  0  0  0  0  0  0  0  0  0  0  0
   20.6500  -30.3586   22.7456 C   0  0  0  0  0  0  0  0  0  0  0  0
   18.6219  -28.3470   23.9301 H   0  0  0  0  0  0  0  0  0  0  0  0
   21.3485  -31.3613   21.9088 N   0  0  0  0  0  0  0  0  0  0  0  0
   21.4439  -32.7020   22.1785 C   0  0  0  0  0  0  0  0  0  0  0  0
   22.1354  -33.3010   21.1786 N   0  0  0  0  0  0  0  0  0  0  0  0
   22.4760  -32.3678   20.2665 C   0  0  0  0  0  0  0  0  0  0  0  0
   23.1793  -32.4432   19.0687 C   0  0  0  0  0  0  0  0  0  0  0  0
   23.6561  -33.6076   18.6293 N   0  0  0  0  0  0  0  0  0  0  0  0
   23.3796  -31.2932   18.3339 N   0  0  0  0  0  0  0  0  0  0  0  0
   22.8839  -30.0879   18.7914 C   0  0  0  0  0  0  0  0  0  0  0  0
   22.1868  -30.0282   19.9791 N   0  0  0  0  0  0  0  0  0  0  0  0
   21.9817  -31.1465   20.7086 C   0  0  0  0  0  0  0  0  0  0  0  0
   23.5127  -34.4279   19.1544 H   0  0  0  0  0  0  0  0  0  0  0  0
   24.1517  -33.6475   17.7795 H   0  0  0  0  0  0  0  0  0  0  0  0
   20.9098  -30.3198   26.2969 C   0  0  0  0  0  0  0  0  0  0  0  0
   19.9128  -30.0675   27.2597 O   0  0  0  0  0  0  0  0  0  0  0  0
   19.0747  -30.4585   26.9673 H   0  0  0  0  0  0  0  0  0  0  0  0
   18.2505  -30.3029   22.3128 O   0  0  0  0  0  0  0  0  0  0  0  0
   17.5241  -31.2821   21.2576 P   0  0  0  0  0  0  0  0  0  0  0  0
   18.5401  -32.1953   20.6097 O   0  0  0  0  0  0  0  0  0  0  0  0
   16.4865  -32.1080   21.9822 O   0  0  0  0  0  0  0  0  0  0  0  0
   16.8607  -30.4225   20.2098 O   0  0  0  0  0  0  0  0  0  0  0  0
   16.0461  -32.6993   21.3518 H   0  0  0  0  0  0  0  0  0  0  0  0
   16.4151  -30.9896   19.5611 H   0  0  0  0  0  0  0  0  0  0  0  0
 24 25  2  0  0  0
 24 26  1  0  0  0
 24 27  1  0  0  0
 24 23  1  0  0  0
 20 21  1  0  0  0
 20  1  1  0  0  0
  1  2  1  0  0  0
  1  3  1  0  0  0
  2  6  1  0  0  0
  3  4  1  0  0  0
  3  5  1  0  0  0
  5 23  1  0  0  0
  5  6  1  0  0  0
  6  8  1  0  0  0
  8  9  1  0  0  0
  8 17  1  0  0  0
  9 10  2  0  0  0
 10 11  1  0  0  0
 11 12  1  0  0  0
 11 17  2  0  0  0
 12 13  1  0  0  0
 12 14  2  0  0  0
 14 15  1  0  0  0
 15 16  2  0  0  0
 16 17  1  0  0  0
 26 28  1  0  0  0
 27 29  1  0  0  0
 21 22  1  0  0  0
  4  7  1  0  0  0
 13 18  1  0  0  0
 13 19  1  0  0  0
M  END
> <minimizedAffinity>
-6.20446

$$$$
