5IVE_6E8_A_601


 17 18  0  0  0  0  0  0  0  0999 V2000
  -22.8094   18.0403    7.2235 C   0  0  0  0  0  0  0  0  0  0  0  0
  -23.7097   19.6345    8.3060 N   0  0  0  0  0  0  0  0  0  0  0  0
  -24.0859   20.4262    9.3164 C   0  0  0  0  0  0  0  0  0  0  0  0
  -24.9579   21.5953    8.9803 C   0  0  0  0  0  0  0  0  0  0  0  0
  -25.3360   21.7879    7.6905 C   0  0  0  0  0  0  0  0  0  0  0  0
  -26.2130   22.8947    7.1608 C   0  0  0  0  0  0  0  0  0  0  0  0
  -24.9082   20.9064    6.7037 N   0  0  0  0  0  0  0  0  0  0  0  0
  -24.0907   19.8281    7.0323 C   0  0  0  0  0  0  0  0  0  0  0  0
  -23.5194   18.8119    6.2850 C   0  0  0  0  0  0  0  0  0  0  0  0
  -22.9046   18.5346    8.4627 N   0  0  0  0  0  0  0  0  0  0  0  0
  -23.7192   20.1869   10.4612 O   0  0  0  0  0  0  0  0  0  0  0  0
  -25.1844   21.0453    5.7690 H   0  0  0  0  0  0  0  0  0  0  0  0
  -24.3717   22.9335   11.1738 C   0  0  0  0  0  0  0  0  0  0  0  0
  -25.4122   22.5467   10.0956 C   0  0  0  0  0  0  0  0  0  0  0  0
  -26.6201   21.9723   10.8382 C   0  0  0  0  0  0  0  0  0  0  0  0
  -23.6335   18.5770    4.8825 C   0  0  0  0  0  0  0  0  0  0  0  0
  -23.6709   18.3710    3.7290 N   0  0  0  0  0  0  0  0  0  0  0  0
 17 16  3  0  0  0
 16  9  1  0  0  0
  9  8  2  0  0  0
  9  1  1  0  0  0
  7  8  1  0  0  0
  7  5  1  0  0  0
  6  5  1  0  0  0
  8  2  1  0  0  0
  1 10  2  0  0  0
  5  4  2  0  0  0
  2 10  1  0  0  0
  2  3  1  0  0  0
  4  3  1  0  0  0
  4 14  1  0  0  0
  3 11  2  0  0  0
 14 15  1  0  0  0
 14 13  1  0  0  0
  7 12  1  0  0  0
M  END
> <minimizedAffinity>
-9.29797

$$$$
5IVE_6E8_A_601


 17 18  0  0  0  0  0  0  0  0999 V2000
  -26.2033   22.7706    7.9707 C   0  0  0  0  0  0  0  0  0  0  0  0
  -25.1883   21.3005    6.8164 N   0  0  0  0  0  0  0  0  0  0  0  0
  -24.7527   20.5897    5.7703 C   0  0  0  0  0  0  0  0  0  0  0  0
  -23.8577   19.4255    6.0602 C   0  0  0  0  0  0  0  0  0  0  0  0
  -23.5467   19.1368    7.3499 C   0  0  0  0  0  0  0  0  0  0  0  0
  -22.6747   18.0075    7.8390 C   0  0  0  0  0  0  0  0  0  0  0  0
  -24.0552   19.9228    8.3783 N   0  0  0  0  0  0  0  0  0  0  0  0
  -24.8802   21.0071    8.0907 C   0  0  0  0  0  0  0  0  0  0  0  0
  -25.5171   21.9475    8.8829 C   0  0  0  0  0  0  0  0  0  0  0  0
  -26.0047   22.3972    6.7018 N   0  0  0  0  0  0  0  0  0  0  0  0
  -25.0834   20.8972    4.6308 O   0  0  0  0  0  0  0  0  0  0  0  0
  -23.8311   19.7117    9.3135 H   0  0  0  0  0  0  0  0  0  0  0  0
  -23.9878   17.2098    4.6391 C   0  0  0  0  0  0  0  0  0  0  0  0
  -23.3160   18.5793    4.9001 C   0  0  0  0  0  0  0  0  0  0  0  0
  -21.8215   18.3071    5.0806 C   0  0  0  0  0  0  0  0  0  0  0  0
  -25.5050   22.0565   10.3053 C   0  0  0  0  0  0  0  0  0  0  0  0
  -25.5238   22.1960   11.4691 N   0  0  0  0  0  0  0  0  0  0  0  0
 17 16  3  0  0  0
 16  9  1  0  0  0
  9  8  2  0  0  0
  9  1  1  0  0  0
  7  8  1  0  0  0
  7  5  1  0  0  0
  6  5  1  0  0  0
  8  2  1  0  0  0
  1 10  2  0  0  0
  5  4  2  0  0  0
  2 10  1  0  0  0
  2  3  1  0  0  0
  4  3  1  0  0  0
  4 14  1  0  0  0
  3 11  2  0  0  0
 14 15  1  0  0  0
 14 13  1  0  0  0
  7 12  1  0  0  0
M  END
> <minimizedAffinity>
-7.69690

$$$$
5IVE_6E8_A_601


 17 18  0  0  0  0  0  0  0  0999 V2000
  -22.8992   18.1031    6.2160 C   0  0  0  0  0  0  0  0  0  0  0  0
  -23.7263   19.3927    7.6913 N   0  0  0  0  0  0  0  0  0  0  0  0
  -24.0561   19.9116    8.8793 C   0  0  0  0  0  0  0  0  0  0  0  0
  -24.8984   21.1489    8.8746 C   0  0  0  0  0  0  0  0  0  0  0  0
  -25.2977   21.6712    7.6866 C   0  0  0  0  0  0  0  0  0  0  0  0
  -26.1510   22.8974    7.4789 C   0  0  0  0  0  0  0  0  0  0  0  0
  -24.9186   21.0583    6.4973 N   0  0  0  0  0  0  0  0  0  0  0  0
  -24.1281   19.9121    6.5193 C   0  0  0  0  0  0  0  0  0  0  0  0
  -23.6048   19.1046    5.5235 C   0  0  0  0  0  0  0  0  0  0  0  0
  -22.9526   18.2695    7.5421 N   0  0  0  0  0  0  0  0  0  0  0  0
  -23.6727   19.3810    9.9156 O   0  0  0  0  0  0  0  0  0  0  0  0
  -25.2103   21.4362    5.6362 H   0  0  0  0  0  0  0  0  0  0  0  0
  -26.7779   22.2185   10.3809 C   0  0  0  0  0  0  0  0  0  0  0  0
  -25.2990   21.7975   10.2065 C   0  0  0  0  0  0  0  0  0  0  0  0
  -24.4537   23.0435   10.4774 C   0  0  0  0  0  0  0  0  0  0  0  0
  -23.7560   19.2356    4.1110 C   0  0  0  0  0  0  0  0  0  0  0  0
  -23.8987   19.3975    2.9587 N   0  0  0  0  0  0  0  0  0  0  0  0
 17 16  3  0  0  0
 16  9  1  0  0  0
  9  8  2  0  0  0
  9  1  1  0  0  0
  7  8  1  0  0  0
  7  5  1  0  0  0
  6  5  1  0  0  0
  8  2  1  0  0  0
  1 10  2  0  0  0
  5  4  2  0  0  0
  2 10  1  0  0  0
  2  3  1  0  0  0
  4  3  1  0  0  0
  4 14  1  0  0  0
  3 11  2  0  0  0
 14 15  1  0  0  0
 14 13  1  0  0  0
  7 12  1  0  0  0
M  END
> <minimizedAffinity>
-7.69292

$$$$
5IVE_6E8_A_601


 17 18  0  0  0  0  0  0  0  0999 V2000
  -25.1906   20.7340    4.0317 C   0  0  0  0  0  0  0  0  0  0  0  0
  -25.2962   21.4558    6.0296 N   0  0  0  0  0  0  0  0  0  0  0  0
  -25.5546   22.2417    7.0807 C   0  0  0  0  0  0  0  0  0  0  0  0
  -25.1025   21.7582    8.4231 C   0  0  0  0  0  0  0  0  0  0  0  0
  -24.4467   20.5725    8.5113 C   0  0  0  0  0  0  0  0  0  0  0  0
  -23.9091   19.9274    9.7642 C   0  0  0  0  0  0  0  0  0  0  0  0
  -24.2088   19.8247    7.3633 N   0  0  0  0  0  0  0  0  0  0  0  0
  -24.6431   20.2854    6.1231 C   0  0  0  0  0  0  0  0  0  0  0  0
  -24.5561   19.7723    4.8398 C   0  0  0  0  0  0  0  0  0  0  0  0
  -25.6596   21.7648    4.7432 N   0  0  0  0  0  0  0  0  0  0  0  0
  -26.1395   23.3081    6.9286 O   0  0  0  0  0  0  0  0  0  0  0  0
  -23.7313   18.9661    7.4276 H   0  0  0  0  0  0  0  0  0  0  0  0
  -24.1975   22.8848   10.6271 C   0  0  0  0  0  0  0  0  0  0  0  0
  -25.3811   22.6106    9.6685 C   0  0  0  0  0  0  0  0  0  0  0  0
  -26.4938   21.9871   10.5131 C   0  0  0  0  0  0  0  0  0  0  0  0
  -23.9458   18.5544    4.4162 C   0  0  0  0  0  0  0  0  0  0  0  0
  -23.4606   17.5297    4.1182 N   0  0  0  0  0  0  0  0  0  0  0  0
 17 16  3  0  0  0
 16  9  1  0  0  0
  9  8  2  0  0  0
  9  1  1  0  0  0
  7  8  1  0  0  0
  7  5  1  0  0  0
  6  5  1  0  0  0
  8  2  1  0  0  0
  1 10  2  0  0  0
  5  4  2  0  0  0
  2 10  1  0  0  0
  2  3  1  0  0  0
  4  3  1  0  0  0
  4 14  1  0  0  0
  3 11  2  0  0  0
 14 15  1  0  0  0
 14 13  1  0  0  0
  7 12  1  0  0  0
M  END
> <minimizedAffinity>
-7.55080

$$$$
5IVE_6E8_A_601


 17 18  0  0  0  0  0  0  0  0999 V2000
  -24.6474   21.0406    9.6666 C   0  0  0  0  0  0  0  0  0  0  0  0
  -23.7854   19.8227    8.1508 N   0  0  0  0  0  0  0  0  0  0  0  0
  -23.0141   18.9166    7.5398 C   0  0  0  0  0  0  0  0  0  0  0  0
  -23.1799   18.7645    6.0600 C   0  0  0  0  0  0  0  0  0  0  0  0
  -24.0774   19.5506    5.4119 C   0  0  0  0  0  0  0  0  0  0  0  0
  -24.3777   19.5512    3.9339 C   0  0  0  0  0  0  0  0  0  0  0  0
  -24.8298   20.4773    6.1254 N   0  0  0  0  0  0  0  0  0  0  0  0
  -24.6688   20.6005    7.5031 C   0  0  0  0  0  0  0  0  0  0  0  0
  -25.2630   21.4104    8.4563 C   0  0  0  0  0  0  0  0  0  0  0  0
  -23.7495   20.0632    9.5012 N   0  0  0  0  0  0  0  0  0  0  0  0
  -22.2132   18.2487    8.1839 O   0  0  0  0  0  0  0  0  0  0  0  0
  -25.4789   21.0485    5.6546 H   0  0  0  0  0  0  0  0  0  0  0  0
  -21.2428   18.2669    4.3437 C   0  0  0  0  0  0  0  0  0  0  0  0
  -22.3314   17.7324    5.3050 C   0  0  0  0  0  0  0  0  0  0  0  0
  -23.2211   16.7975    4.4834 C   0  0  0  0  0  0  0  0  0  0  0  0
  -26.2608   22.4119    8.2650 C   0  0  0  0  0  0  0  0  0  0  0  0
  -27.0773   23.2253    8.0508 N   0  0  0  0  0  0  0  0  0  0  0  0
 17 16  3  0  0  0
 16  9  1  0  0  0
  9  8  2  0  0  0
  9  1  1  0  0  0
  7  8  1  0  0  0
  7  5  1  0  0  0
  6  5  1  0  0  0
  8  2  1  0  0  0
  1 10  2  0  0  0
  5  4  2  0  0  0
  2 10  1  0  0  0
  2  3  1  0  0  0
  4  3  1  0  0  0
  4 14  1  0  0  0
  3 11  2  0  0  0
 14 15  1  0  0  0
 14 13  1  0  0  0
  7 12  1  0  0  0
M  END
> <minimizedAffinity>
-7.45035

$$$$
5IVE_6E8_A_601


 17 18  0  0  0  0  0  0  0  0999 V2000
  -23.8305   19.0820    4.5400 C   0  0  0  0  0  0  0  0  0  0  0  0
  -24.9909   20.7527    5.1611 N   0  0  0  0  0  0  0  0  0  0  0  0
  -25.7701   21.8392    5.1211 C   0  0  0  0  0  0  0  0  0  0  0  0
  -26.1145   22.4818    6.4283 C   0  0  0  0  0  0  0  0  0  0  0  0
  -25.6162   21.9532    7.5754 C   0  0  0  0  0  0  0  0  0  0  0  0
  -25.8415   22.4609    8.9777 C   0  0  0  0  0  0  0  0  0  0  0  0
  -24.8020   20.8271    7.5234 N   0  0  0  0  0  0  0  0  0  0  0  0
  -24.4977   20.2370    6.2994 C   0  0  0  0  0  0  0  0  0  0  0  0
  -23.7365   19.1365    5.9430 C   0  0  0  0  0  0  0  0  0  0  0  0
  -24.6029   20.0553    4.0451 N   0  0  0  0  0  0  0  0  0  0  0  0
  -26.1750   22.2726    4.0484 O   0  0  0  0  0  0  0  0  0  0  0  0
  -24.4392   20.4455    8.3553 H   0  0  0  0  0  0  0  0  0  0  0  0
  -28.4510   23.5759    5.8904 C   0  0  0  0  0  0  0  0  0  0  0  0
  -27.0149   23.7245    6.4475 C   0  0  0  0  0  0  0  0  0  0  0  0
  -26.3638   24.8763    5.6795 C   0  0  0  0  0  0  0  0  0  0  0  0
  -23.0011   18.2593    6.7945 C   0  0  0  0  0  0  0  0  0  0  0  0
  -22.3494   17.5698    7.4831 N   0  0  0  0  0  0  0  0  0  0  0  0
 17 16  3  0  0  0
 16  9  1  0  0  0
  9  8  2  0  0  0
  9  1  1  0  0  0
  7  8  1  0  0  0
  7  5  1  0  0  0
  6  5  1  0  0  0
  8  2  1  0  0  0
  1 10  2  0  0  0
  5  4  2  0  0  0
  2 10  1  0  0  0
  2  3  1  0  0  0
  4  3  1  0  0  0
  4 14  1  0  0  0
  3 11  2  0  0  0
 14 15  1  0  0  0
 14 13  1  0  0  0
  7 12  1  0  0  0
M  END
> <minimizedAffinity>
-7.01813

$$$$
5IVE_6E8_A_601


 17 18  0  0  0  0  0  0  0  0999 V2000
  -26.1453   22.5886    8.7681 C   0  0  0  0  0  0  0  0  0  0  0  0
  -24.9812   21.0380    7.8939 N   0  0  0  0  0  0  0  0  0  0  0  0
  -24.1520   19.9966    7.7630 C   0  0  0  0  0  0  0  0  0  0  0  0
  -23.8664   19.5210    6.3728 C   0  0  0  0  0  0  0  0  0  0  0  0
  -24.4376   20.1665    5.3237 C   0  0  0  0  0  0  0  0  0  0  0  0
  -24.2647   19.8438    3.8605 C   0  0  0  0  0  0  0  0  0  0  0  0
  -25.2786   21.2504    5.5512 N   0  0  0  0  0  0  0  0  0  0  0  0
  -25.5401   21.6750    6.8514 C   0  0  0  0  0  0  0  0  0  0  0  0
  -26.3170   22.6945    7.3753 C   0  0  0  0  0  0  0  0  0  0  0  0
  -25.3411   21.5742    9.1044 N   0  0  0  0  0  0  0  0  0  0  0  0
  -23.6593   19.4680    8.7531 O   0  0  0  0  0  0  0  0  0  0  0  0
  -25.6908   21.7193    4.7900 H   0  0  0  0  0  0  0  0  0  0  0  0
  -23.3447   17.2736    5.0989 C   0  0  0  0  0  0  0  0  0  0  0  0
  -22.9320   18.3224    6.1594 C   0  0  0  0  0  0  0  0  0  0  0  0
  -22.7204   17.5612    7.4695 C   0  0  0  0  0  0  0  0  0  0  0  0
  -27.1031   23.6551    6.6721 C   0  0  0  0  0  0  0  0  0  0  0  0
  -27.7082   24.4458    6.0533 N   0  0  0  0  0  0  0  0  0  0  0  0
 17 16  3  0  0  0
 16  9  1  0  0  0
  9  8  2  0  0  0
  9  1  1  0  0  0
  7  8  1  0  0  0
  7  5  1  0  0  0
  6  5  1  0  0  0
  8  2  1  0  0  0
  1 10  2  0  0  0
  5  4  2  0  0  0
  2 10  1  0  0  0
  2  3  1  0  0  0
  4  3  1  0  0  0
  4 14  1  0  0  0
  3 11  2  0  0  0
 14 15  1  0  0  0
 14 13  1  0  0  0
  7 12  1  0  0  0
M  END
> <minimizedAffinity>
-6.84092

$$$$
5IVE_6E8_A_601


 17 18  0  0  0  0  0  0  0  0999 V2000
  -25.8464   22.3228    3.9919 C   0  0  0  0  0  0  0  0  0  0  0  0
  -25.6489   22.0175    6.0875 N   0  0  0  0  0  0  0  0  0  0  0  0
  -25.7847   22.1743    7.4090 C   0  0  0  0  0  0  0  0  0  0  0  0
  -25.0419   21.2195    8.2904 C   0  0  0  0  0  0  0  0  0  0  0  0
  -24.2634   20.2641    7.7205 C   0  0  0  0  0  0  0  0  0  0  0  0
  -23.4374   19.2248    8.4364 C   0  0  0  0  0  0  0  0  0  0  0  0
  -24.1697   20.1812    6.3355 N   0  0  0  0  0  0  0  0  0  0  0  0
  -24.8737   21.0725    5.5299 C   0  0  0  0  0  0  0  0  0  0  0  0
  -24.9767   21.2289    4.1579 C   0  0  0  0  0  0  0  0  0  0  0  0
  -26.2767   22.8107    5.1606 N   0  0  0  0  0  0  0  0  0  0  0  0
  -26.4938   23.0678    7.8577 O   0  0  0  0  0  0  0  0  0  0  0  0
  -23.6034   19.4896    5.9229 H   0  0  0  0  0  0  0  0  0  0  0  0
  -26.5925   21.4567   10.4081 C   0  0  0  0  0  0  0  0  0  0  0  0
  -25.1678   21.3416    9.8150 C   0  0  0  0  0  0  0  0  0  0  0  0
  -24.3805   22.5488   10.3280 C   0  0  0  0  0  0  0  0  0  0  0  0
  -24.3353   20.4717    3.1330 C   0  0  0  0  0  0  0  0  0  0  0  0
  -23.7585   19.8548    2.3199 N   0  0  0  0  0  0  0  0  0  0  0  0
 17 16  3  0  0  0
 16  9  1  0  0  0
  9  8  2  0  0  0
  9  1  1  0  0  0
  7  8  1  0  0  0
  7  5  1  0  0  0
  6  5  1  0  0  0
  8  2  1  0  0  0
  1 10  2  0  0  0
  5  4  2  0  0  0
  2 10  1  0  0  0
  2  3  1  0  0  0
  4  3  1  0  0  0
  4 14  1  0  0  0
  3 11  2  0  0  0
 14 15  1  0  0  0
 14 13  1  0  0  0
  7 12  1  0  0  0
M  END
> <minimizedAffinity>
-6.82159

$$$$
5IVE_6E8_A_601


 17 18  0  0  0  0  0  0  0  0999 V2000
  -23.9490   20.0710    9.3651 C   0  0  0  0  0  0  0  0  0  0  0  0
  -25.0519   21.3083    8.0322 N   0  0  0  0  0  0  0  0  0  0  0  0
  -25.8657   22.2649    7.5720 C   0  0  0  0  0  0  0  0  0  0  0  0
  -26.0690   22.3350    6.0907 C   0  0  0  0  0  0  0  0  0  0  0  0
  -25.4432   21.4303    5.2948 C   0  0  0  0  0  0  0  0  0  0  0  0
  -25.5307   21.3343    3.7922 C   0  0  0  0  0  0  0  0  0  0  0  0
  -24.6233   20.4597    5.8601 N   0  0  0  0  0  0  0  0  0  0  0  0
  -24.4388   20.4134    7.2396 C   0  0  0  0  0  0  0  0  0  0  0  0
  -23.6992   19.5861    8.0679 C   0  0  0  0  0  0  0  0  0  0  0  0
  -24.7647   21.1310    9.3620 N   0  0  0  0  0  0  0  0  0  0  0  0
  -26.4106   23.0417    8.3479 O   0  0  0  0  0  0  0  0  0  0  0  0
  -24.1715   19.8026    5.2828 H   0  0  0  0  0  0  0  0  0  0  0  0
  -26.6218   24.8949    5.7957 C   0  0  0  0  0  0  0  0  0  0  0  0
  -26.9822   23.4189    5.5019 C   0  0  0  0  0  0  0  0  0  0  0  0
  -28.4266   23.2197    5.9652 C   0  0  0  0  0  0  0  0  0  0  0  0
  -22.8805   18.4761    7.7031 C   0  0  0  0  0  0  0  0  0  0  0  0
  -22.2518   17.5439    7.3716 N   0  0  0  0  0  0  0  0  0  0  0  0
 17 16  3  0  0  0
 16  9  1  0  0  0
  9  8  2  0  0  0
  9  1  1  0  0  0
  7  8  1  0  0  0
  7  5  1  0  0  0
  6  5  1  0  0  0
  8  2  1  0  0  0
  1 10  2  0  0  0
  5  4  2  0  0  0
  2 10  1  0  0  0
  2  3  1  0  0  0
  4  3  1  0  0  0
  4 14  1  0  0  0
  3 11  2  0  0  0
 14 15  1  0  0  0
 14 13  1  0  0  0
  7 12  1  0  0  0
M  END
> <minimizedAffinity>
-6.80695

$$$$
5IVE_6E8_A_601


 17 18  0  0  0  0  0  0  0  0999 V2000
  -22.9981   18.3491    7.3602 C   0  0  0  0  0  0  0  0  0  0  0  0
  -24.2217   20.0858    7.2577 N   0  0  0  0  0  0  0  0  0  0  0  0
  -24.9241   21.1641    7.6228 C   0  0  0  0  0  0  0  0  0  0  0  0
  -25.6349   21.9153    6.5407 C   0  0  0  0  0  0  0  0  0  0  0  0
  -25.5510   21.4677    5.2616 C   0  0  0  0  0  0  0  0  0  0  0  0
  -26.1999   22.0791    4.0451 C   0  0  0  0  0  0  0  0  0  0  0  0
  -24.8076   20.3284    4.9731 N   0  0  0  0  0  0  0  0  0  0  0  0
  -24.1460   19.6457    5.9906 C   0  0  0  0  0  0  0  0  0  0  0  0
  -23.3490   18.5135    6.0074 C   0  0  0  0  0  0  0  0  0  0  0  0
  -23.5131   19.3078    8.1380 N   0  0  0  0  0  0  0  0  0  0  0  0
  -24.9690   21.5057    8.7991 O   0  0  0  0  0  0  0  0  0  0  0  0
  -24.7489   20.0031    4.0457 H   0  0  0  0  0  0  0  0  0  0  0  0
  -27.9885   23.0738    6.7940 C   0  0  0  0  0  0  0  0  0  0  0  0
  -26.4472   23.1679    6.8962 C   0  0  0  0  0  0  0  0  0  0  0  0
  -26.0219   24.3532    6.0276 C   0  0  0  0  0  0  0  0  0  0  0  0
  -22.9764   17.6806    4.9107 C   0  0  0  0  0  0  0  0  0  0  0  0
  -22.6886   17.0377    3.9736 N   0  0  0  0  0  0  0  0  0  0  0  0
 17 16  3  0  0  0
 16  9  1  0  0  0
  9  8  2  0  0  0
  9  1  1  0  0  0
  7  8  1  0  0  0
  7  5  1  0  0  0
  6  5  1  0  0  0
  8  2  1  0  0  0
  1 10  2  0  0  0
  5  4  2  0  0  0
  2 10  1  0  0  0
  2  3  1  0  0  0
  4  3  1  0  0  0
  4 14  1  0  0  0
  3 11  2  0  0  0
 14 15  1  0  0  0
 14 13  1  0  0  0
  7 12  1  0  0  0
M  END
> <minimizedAffinity>
-6.78841

$$$$
