2QI0_MZ3_B_200


 42 45  0  0  0  0  0  0  0  0999 V2000
   20.1445   29.7778   15.3557 C   0  0  0  0  0  0  0  0  0  0  0  0
   20.1714   28.6740   16.2751 O   0  0  0  0  0  0  0  0  0  0  0  0
   19.2823   28.2935   16.3497 H   0  0  0  0  0  0  0  0  0  0  0  0
   19.7614   29.3283   13.9397 C   0  0  0  0  0  0  0  0  0  0  0  0
   21.5035   28.6236   12.3300 C   0  0  0  0  0  0  0  0  0  0  0  0
   21.4438   29.6640   11.7065 O   0  0  0  0  0  0  0  0  0  0  0  0
   20.7480   28.3933   13.4055 N   0  0  0  0  0  0  0  0  0  0  0  0
   20.8638   27.5336   13.8712 H   0  0  0  0  0  0  0  0  0  0  0  0
   26.0423   26.9269   11.8561 F   0  0  0  0  0  0  0  0  0  0  0  0
   24.7314   26.7845   11.5830 C   0  0  0  0  0  0  0  0  0  0  0  0
   24.2849   25.7174   10.8144 C   0  0  0  0  0  0  0  0  0  0  0  0
   22.9340   25.5785   10.5401 C   0  0  0  0  0  0  0  0  0  0  0  0
   22.0282   26.5028   11.0498 C   0  0  0  0  0  0  0  0  0  0  0  0
   23.8311   27.7123   12.0705 C   0  0  0  0  0  0  0  0  0  0  0  0
   24.3094   28.8649   12.8963 C   0  0  0  0  0  0  0  0  0  0  0  0
   22.4799   27.5786   11.8139 C   0  0  0  0  0  0  0  0  0  0  0  0
   18.4593   28.5199   13.9573 C   0  0  0  0  0  0  0  0  0  0  0  0
   18.1055   28.0585   12.5502 C   0  0  0  0  0  0  0  0  0  0  0  0
   17.6593   28.9674   11.6102 C   0  0  0  0  0  0  0  0  0  0  0  0
   17.3305   28.5302   10.3352 C   0  0  0  0  0  0  0  0  0  0  0  0
   17.4475   27.1925    9.9858 C   0  0  0  0  0  0  0  0  0  0  0  0
   17.9006   26.2775   10.9261 C   0  0  0  0  0  0  0  0  0  0  0  0
   18.2253   26.7160   12.2061 C   0  0  0  0  0  0  0  0  0  0  0  0
   19.1541   30.8074   15.9264 C   0  0  0  0  0  0  0  0  0  0  0  0
   19.4510   32.1330   15.3514 N   0  0  0  0  0  0  0  0  0  0  0  0
   18.1233   32.8612   14.7638 S   0  0  0  0  0  0  0  0  0  0  0  0
   18.6031   33.8722   13.8577 O   0  0  0  0  0  0  0  0  0  0  0  0
   17.3558   31.9072   14.0206 O   0  0  0  0  0  0  0  0  0  0  0  0
   17.1916   33.5096   15.9185 C   0  0  0  0  0  0  0  0  0  0  0  0
   17.7612   34.3190   16.8935 C   0  0  0  0  0  0  0  0  0  0  0  0
   16.9991   34.8928   17.9084 C   0  0  0  0  0  0  0  0  0  0  0  0
   15.6210   34.6412   17.9536 C   0  0  0  0  0  0  0  0  0  0  0  0
   15.0282   33.8557   16.9733 C   0  0  0  0  0  0  0  0  0  0  0  0
   15.8133   33.2886   15.9648 C   0  0  0  0  0  0  0  0  0  0  0  0
   17.6641   35.6860   18.8322 O   0  0  0  0  0  0  0  0  0  0  0  0
   19.0775   35.8273   18.8811 C   0  0  0  0  0  0  0  0  0  0  0  0
   20.3258   32.9876   16.1897 C   0  0  0  0  0  0  0  0  0  0  0  0
   21.6688   33.2139   15.4930 C   0  0  0  0  0  0  0  0  0  0  0  0
   22.6372   33.9565   16.0752 C   0  0  0  0  0  0  0  0  0  0  0  0
   23.7831   34.0028   15.2225 C   0  0  0  0  0  0  0  0  0  0  0  0
   23.5683   33.2997   14.0863 C   0  0  0  0  0  0  0  0  0  0  0  0
   22.0702   32.5726   13.9932 S   0  0  0  0  0  0  0  0  0  0  0  0
  9 10  1  0  0  0
 10 11  1  0  0  0
 10 14  2  0  0  0
 11 12  2  0  0  0
 12 13  1  0  0  0
 13 16  2  0  0  0
 14 16  1  0  0  0
 14 15  1  0  0  0
 16  5  1  0  0  0
  5  6  2  0  0  0
  5  7  1  0  0  0
  7  4  1  0  0  0
  4 17  1  0  0  0
  4  1  1  0  0  0
 17 18  1  0  0  0
 18 19  2  0  0  0
 18 23  1  0  0  0
 19 20  1  0  0  0
 20 21  2  0  0  0
 21 22  1  0  0  0
 22 23  2  0  0  0
  1 24  1  0  0  0
  1  2  1  0  0  0
 24 25  1  0  0  0
 25 26  1  0  0  0
 25 37  1  0  0  0
 37 38  1  0  0  0
 38 42  1  0  0  0
 38 39  2  0  0  0
 39 40  1  0  0  0
 40 41  2  0  0  0
 41 42  1  0  0  0
 26 27  2  0  0  0
 26 28  2  0  0  0
 26 29  1  0  0  0
 29 30  2  0  0  0
 29 34  1  0  0  0
 30 31  1  0  0  0
 31 35  1  0  0  0
 31 32  2  0  0  0
 35 36  1  0  0  0
 32 33  1  0  0  0
 33 34  2  0  0  0
  7  8  1  0  0  0
  2  3  1  0  0  0
M  END
> <minimizedAffinity>
-10.24431

$$$$
2QI0_MZ3_B_200


 42 45  0  0  0  0  0  0  0  0999 V2000
   20.0585   29.9861   15.3847 C   0  0  0  0  0  0  0  0  0  0  0  0
   20.1537   28.9766   16.4026 O   0  0  0  0  0  0  0  0  0  0  0  0
   19.3098   28.5030   16.4682 H   0  0  0  0  0  0  0  0  0  0  0  0
   19.8130   29.3744   13.9992 C   0  0  0  0  0  0  0  0  0  0  0  0
   21.7783   28.9805   12.5483 C   0  0  0  0  0  0  0  0  0  0  0  0
   21.6096   30.0094   11.9257 O   0  0  0  0  0  0  0  0  0  0  0  0
   20.9778   28.6155   13.5515 N   0  0  0  0  0  0  0  0  0  0  0  0
   21.1867   27.7765   14.0225 H   0  0  0  0  0  0  0  0  0  0  0  0
   23.5301   25.0532   10.2653 F   0  0  0  0  0  0  0  0  0  0  0  0
   23.7733   26.1549   11.0005 C   0  0  0  0  0  0  0  0  0  0  0  0
   25.0696   26.4717   11.3854 C   0  0  0  0  0  0  0  0  0  0  0  0
   25.3100   27.6082   12.1404 C   0  0  0  0  0  0  0  0  0  0  0  0
   24.2507   28.4359   12.4973 C   0  0  0  0  0  0  0  0  0  0  0  0
   22.7209   26.9684   11.3742 C   0  0  0  0  0  0  0  0  0  0  0  0
   21.3227   26.6281   10.9638 C   0  0  0  0  0  0  0  0  0  0  0  0
   22.9487   28.1110   12.1172 C   0  0  0  0  0  0  0  0  0  0  0  0
   18.6920   28.3306   14.0545 C   0  0  0  0  0  0  0  0  0  0  0  0
   18.2207   27.9875   12.6480 C   0  0  0  0  0  0  0  0  0  0  0  0
   17.8734   28.9917   11.7649 C   0  0  0  0  0  0  0  0  0  0  0  0
   17.4355   28.6629   10.4901 C   0  0  0  0  0  0  0  0  0  0  0  0
   17.3450   27.3392   10.0844 C   0  0  0  0  0  0  0  0  0  0  0  0
   17.6983   26.3280   10.9673 C   0  0  0  0  0  0  0  0  0  0  0  0
   18.1325   26.6583   12.2472 C   0  0  0  0  0  0  0  0  0  0  0  0
   18.9271   30.9388   15.8079 C   0  0  0  0  0  0  0  0  0  0  0  0
   19.2051   32.2857   15.2743 N   0  0  0  0  0  0  0  0  0  0  0  0
   17.8987   32.9546   14.5786 S   0  0  0  0  0  0  0  0  0  0  0  0
   18.4077   33.8156   13.5428 O   0  0  0  0  0  0  0  0  0  0  0  0
   17.1117   31.9234   13.9713 O   0  0  0  0  0  0  0  0  0  0  0  0
   16.9775   33.7816   15.6222 C   0  0  0  0  0  0  0  0  0  0  0  0
   17.1596   35.1509   15.7709 C   0  0  0  0  0  0  0  0  0  0  0  0
   16.3940   35.9009   16.6605 C   0  0  0  0  0  0  0  0  0  0  0  0
   15.4183   35.2568   17.4337 C   0  0  0  0  0  0  0  0  0  0  0  0
   15.2032   33.8931   17.2812 C   0  0  0  0  0  0  0  0  0  0  0  0
   15.9848   33.1599   16.3831 C   0  0  0  0  0  0  0  0  0  0  0  0
   16.6539   37.2618   16.7329 O   0  0  0  0  0  0  0  0  0  0  0  0
   16.7141   37.9916   17.9510 C   0  0  0  0  0  0  0  0  0  0  0  0
   19.9578   33.1711   16.1951 C   0  0  0  0  0  0  0  0  0  0  0  0
   21.4314   33.2274   15.7879 C   0  0  0  0  0  0  0  0  0  0  0  0
   21.7917   33.5539   14.5263 C   0  0  0  0  0  0  0  0  0  0  0  0
   23.2165   33.5397   14.4161 C   0  0  0  0  0  0  0  0  0  0  0  0
   23.7886   33.2021   15.5951 C   0  0  0  0  0  0  0  0  0  0  0  0
   22.7088   32.9161   16.8336 S   0  0  0  0  0  0  0  0  0  0  0  0
  9 10  1  0  0  0
 10 11  1  0  0  0
 10 14  2  0  0  0
 11 12  2  0  0  0
 12 13  1  0  0  0
 13 16  2  0  0  0
 14 16  1  0  0  0
 14 15  1  0  0  0
 16  5  1  0  0  0
  5  6  2  0  0  0
  5  7  1  0  0  0
  7  4  1  0  0  0
  4 17  1  0  0  0
  4  1  1  0  0  0
 17 18  1  0  0  0
 18 19  2  0  0  0
 18 23  1  0  0  0
 19 20  1  0  0  0
 20 21  2  0  0  0
 21 22  1  0  0  0
 22 23  2  0  0  0
  1 24  1  0  0  0
  1  2  1  0  0  0
 24 25  1  0  0  0
 25 26  1  0  0  0
 25 37  1  0  0  0
 37 38  1  0  0  0
 38 42  1  0  0  0
 38 39  2  0  0  0
 39 40  1  0  0  0
 40 41  2  0  0  0
 41 42  1  0  0  0
 26 27  2  0  0  0
 26 28  2  0  0  0
 26 29  1  0  0  0
 29 30  2  0  0  0
 29 34  1  0  0  0
 30 31  1  0  0  0
 31 35  1  0  0  0
 31 32  2  0  0  0
 35 36  1  0  0  0
 32 33  1  0  0  0
 33 34  2  0  0  0
  7  8  1  0  0  0
  2  3  1  0  0  0
M  END
> <minimizedAffinity>
-10.24315

$$$$
2QI0_MZ3_B_200


 42 45  0  0  0  0  0  0  0  0999 V2000
   20.6497   30.0652   15.7275 C   0  0  0  0  0  0  0  0  0  0  0  0
   20.0235   29.3361   16.7956 O   0  0  0  0  0  0  0  0  0  0  0  0
   19.0613   29.4464   16.7418 H   0  0  0  0  0  0  0  0  0  0  0  0
   20.2421   29.5201   14.3525 C   0  0  0  0  0  0  0  0  0  0  0  0
   22.0157   29.0390   12.6956 C   0  0  0  0  0  0  0  0  0  0  0  0
   21.8357   30.0817   12.0996 O   0  0  0  0  0  0  0  0  0  0  0  0
   21.3098   28.7060   13.7779 N   0  0  0  0  0  0  0  0  0  0  0  0
   21.5236   27.8526   14.2197 H   0  0  0  0  0  0  0  0  0  0  0  0
   23.3042   25.1112   10.1233 F   0  0  0  0  0  0  0  0  0  0  0  0
   23.6807   26.1600   10.8795 C   0  0  0  0  0  0  0  0  0  0  0  0
   25.0222   26.3722   11.1697 C   0  0  0  0  0  0  0  0  0  0  0  0
   25.3999   27.4549   11.9472 C   0  0  0  0  0  0  0  0  0  0  0  0
   24.4324   28.3342   12.4218 C   0  0  0  0  0  0  0  0  0  0  0  0
   22.7203   27.0238   11.3697 C   0  0  0  0  0  0  0  0  0  0  0  0
   21.2739   26.7961   11.0613 C   0  0  0  0  0  0  0  0  0  0  0  0
   23.0850   28.1140   12.1364 C   0  0  0  0  0  0  0  0  0  0  0  0
   19.0642   28.5476   14.4783 C   0  0  0  0  0  0  0  0  0  0  0  0
   18.4441   28.2901   13.1118 C   0  0  0  0  0  0  0  0  0  0  0  0
   18.1622   26.9997   12.7064 C   0  0  0  0  0  0  0  0  0  0  0  0
   17.6070   26.7800   11.4540 C   0  0  0  0  0  0  0  0  0  0  0  0
   17.3248   27.8377   10.6015 C   0  0  0  0  0  0  0  0  0  0  0  0
   17.6018   29.1358   11.0078 C   0  0  0  0  0  0  0  0  0  0  0  0
   18.1633   29.3549   12.2618 C   0  0  0  0  0  0  0  0  0  0  0  0
   20.2565   31.5417   15.9070 C   0  0  0  0  0  0  0  0  0  0  0  0
   19.4170   31.9597   14.7684 N   0  0  0  0  0  0  0  0  0  0  0  0
   17.8561   32.1307   15.1837 S   0  0  0  0  0  0  0  0  0  0  0  0
   17.1048   31.8948   13.9782 O   0  0  0  0  0  0  0  0  0  0  0  0
   17.5130   31.1227   16.1417 O   0  0  0  0  0  0  0  0  0  0  0  0
   17.5203   33.5887   15.8027 C   0  0  0  0  0  0  0  0  0  0  0  0
   17.9970   33.9323   17.0616 C   0  0  0  0  0  0  0  0  0  0  0  0
   17.7279   35.1727   17.6351 C   0  0  0  0  0  0  0  0  0  0  0  0
   16.9481   36.0979   16.9277 C   0  0  0  0  0  0  0  0  0  0  0  0
   16.4836   35.7835   15.6570 C   0  0  0  0  0  0  0  0  0  0  0  0
   16.7648   34.5314   15.1017 C   0  0  0  0  0  0  0  0  0  0  0  0
   18.2516   35.4174   18.8963 O   0  0  0  0  0  0  0  0  0  0  0  0
   19.6428   35.5206   19.1685 C   0  0  0  0  0  0  0  0  0  0  0  0
   19.9830   33.0639   13.9568 C   0  0  0  0  0  0  0  0  0  0  0  0
   21.2910   33.5592   14.5767 C   0  0  0  0  0  0  0  0  0  0  0  0
   21.2886   34.5155   15.5325 C   0  0  0  0  0  0  0  0  0  0  0  0
   22.6306   34.7868   15.9421 C   0  0  0  0  0  0  0  0  0  0  0  0
   23.5091   34.0180   15.2575 C   0  0  0  0  0  0  0  0  0  0  0  0
   22.8099   32.9752   14.1596 S   0  0  0  0  0  0  0  0  0  0  0  0
  9 10  1  0  0  0
 10 11  1  0  0  0
 10 14  2  0  0  0
 11 12  2  0  0  0
 12 13  1  0  0  0
 13 16  2  0  0  0
 14 16  1  0  0  0
 14 15  1  0  0  0
 16  5  1  0  0  0
  5  6  2  0  0  0
  5  7  1  0  0  0
  7  4  1  0  0  0
  4 17  1  0  0  0
  4  1  1  0  0  0
 17 18  1  0  0  0
 18 19  2  0  0  0
 18 23  1  0  0  0
 19 20  1  0  0  0
 20 21  2  0  0  0
 21 22  1  0  0  0
 22 23  2  0  0  0
  1 24  1  0  0  0
  1  2  1  0  0  0
 24 25  1  0  0  0
 25 26  1  0  0  0
 25 37  1  0  0  0
 37 38  1  0  0  0
 38 42  1  0  0  0
 38 39  2  0  0  0
 39 40  1  0  0  0
 40 41  2  0  0  0
 41 42  1  0  0  0
 26 27  2  0  0  0
 26 28  2  0  0  0
 26 29  1  0  0  0
 29 30  2  0  0  0
 29 34  1  0  0  0
 30 31  1  0  0  0
 31 35  1  0  0  0
 31 32  2  0  0  0
 35 36  1  0  0  0
 32 33  1  0  0  0
 33 34  2  0  0  0
  7  8  1  0  0  0
  2  3  1  0  0  0
M  END
> <minimizedAffinity>
-9.65492

$$$$
2QI0_MZ3_B_200


 42 45  0  0  0  0  0  0  0  0999 V2000
   20.2906   32.2016   13.2040 C   0  0  0  0  0  0  0  0  0  0  0  0
   21.0495   31.8906   12.0242 O   0  0  0  0  0  0  0  0  0  0  0  0
   21.1380   30.9283   11.9410 H   0  0  0  0  0  0  0  0  0  0  0  0
   18.8594   31.6552   13.1191 C   0  0  0  0  0  0  0  0  0  0  0  0
   17.7258   29.7496   12.0210 C   0  0  0  0  0  0  0  0  0  0  0  0
   16.6227   30.2376   12.1612 O   0  0  0  0  0  0  0  0  0  0  0  0
   18.8348   30.3640   12.4372 N   0  0  0  0  0  0  0  0  0  0  0  0
   19.6959   29.9158   12.2733 H   0  0  0  0  0  0  0  0  0  0  0  0
   18.1938   24.9112   12.2967 F   0  0  0  0  0  0  0  0  0  0  0  0
   18.0389   26.0055   11.5273 C   0  0  0  0  0  0  0  0  0  0  0  0
   17.9666   25.8891   10.1452 C   0  0  0  0  0  0  0  0  0  0  0  0
   17.8055   27.0207    9.3622 C   0  0  0  0  0  0  0  0  0  0  0  0
   17.7020   28.2689    9.9669 C   0  0  0  0  0  0  0  0  0  0  0  0
   17.9563   27.2491   12.1235 C   0  0  0  0  0  0  0  0  0  0  0  0
   18.0370   27.3782   13.6121 C   0  0  0  0  0  0  0  0  0  0  0  0
   17.7838   28.3842   11.3545 C   0  0  0  0  0  0  0  0  0  0  0  0
   18.3101   31.3450   14.5159 C   0  0  0  0  0  0  0  0  0  0  0  0
   17.3861   32.4627   14.9798 C   0  0  0  0  0  0  0  0  0  0  0  0
   16.3707   32.1994   15.8790 C   0  0  0  0  0  0  0  0  0  0  0  0
   15.5301   33.2262   16.2843 C   0  0  0  0  0  0  0  0  0  0  0  0
   15.6957   34.5173   15.8043 C   0  0  0  0  0  0  0  0  0  0  0  0
   16.7182   34.7865   14.9050 C   0  0  0  0  0  0  0  0  0  0  0  0
   17.5576   33.7553   14.4951 C   0  0  0  0  0  0  0  0  0  0  0  0
   21.0657   31.6175   14.3977 C   0  0  0  0  0  0  0  0  0  0  0  0
   22.4823   31.4544   14.0203 N   0  0  0  0  0  0  0  0  0  0  0  0
   23.3685   32.7701   14.3696 S   0  0  0  0  0  0  0  0  0  0  0  0
   24.7087   32.2901   14.5860 O   0  0  0  0  0  0  0  0  0  0  0  0
   23.3733   33.6462   13.2365 O   0  0  0  0  0  0  0  0  0  0  0  0
   22.8235   33.5770   15.6634 C   0  0  0  0  0  0  0  0  0  0  0  0
   22.3937   34.8912   15.5283 C   0  0  0  0  0  0  0  0  0  0  0  0
   21.9227   35.6249   16.6145 C   0  0  0  0  0  0  0  0  0  0  0  0
   21.8885   35.0251   17.8809 C   0  0  0  0  0  0  0  0  0  0  0  0
   22.2896   33.7040   18.0323 C   0  0  0  0  0  0  0  0  0  0  0  0
   22.7604   32.9872   16.9278 C   0  0  0  0  0  0  0  0  0  0  0  0
   21.5162   36.9292   16.3730 O   0  0  0  0  0  0  0  0  0  0  0  0
   21.9454   38.0461   17.1400 C   0  0  0  0  0  0  0  0  0  0  0  0
   23.0827   30.1594   14.4212 C   0  0  0  0  0  0  0  0  0  0  0  0
   22.8350   29.1046   13.3412 C   0  0  0  0  0  0  0  0  0  0  0  0
   21.5959   28.6081   13.1260 C   0  0  0  0  0  0  0  0  0  0  0  0
   21.6407   27.6516   12.0651 C   0  0  0  0  0  0  0  0  0  0  0  0
   22.9005   27.5169   11.5893 C   0  0  0  0  0  0  0  0  0  0  0  0
   24.0318   28.4884   12.3363 S   0  0  0  0  0  0  0  0  0  0  0  0
  9 10  1  0  0  0
 10 11  1  0  0  0
 10 14  2  0  0  0
 11 12  2  0  0  0
 12 13  1  0  0  0
 13 16  2  0  0  0
 14 16  1  0  0  0
 14 15  1  0  0  0
 16  5  1  0  0  0
  5  6  2  0  0  0
  5  7  1  0  0  0
  7  4  1  0  0  0
  4 17  1  0  0  0
  4  1  1  0  0  0
 17 18  1  0  0  0
 18 19  2  0  0  0
 18 23  1  0  0  0
 19 20  1  0  0  0
 20 21  2  0  0  0
 21 22  1  0  0  0
 22 23  2  0  0  0
  1 24  1  0  0  0
  1  2  1  0  0  0
 24 25  1  0  0  0
 25 26  1  0  0  0
 25 37  1  0  0  0
 37 38  1  0  0  0
 38 42  1  0  0  0
 38 39  2  0  0  0
 39 40  1  0  0  0
 40 41  2  0  0  0
 41 42  1  0  0  0
 26 27  2  0  0  0
 26 28  2  0  0  0
 26 29  1  0  0  0
 29 30  2  0  0  0
 29 34  1  0  0  0
 30 31  1  0  0  0
 31 35  1  0  0  0
 31 32  2  0  0  0
 35 36  1  0  0  0
 32 33  1  0  0  0
 33 34  2  0  0  0
  7  8  1  0  0  0
  2  3  1  0  0  0
M  END
> <minimizedAffinity>
-9.60736

$$$$
2QI0_MZ3_B_200


 42 45  0  0  0  0  0  0  0  0999 V2000
   21.4768   31.3458   15.6634 C   0  0  0  0  0  0  0  0  0  0  0  0
   20.7116   31.3161   16.8791 O   0  0  0  0  0  0  0  0  0  0  0  0
   19.8531   31.7426   16.7313 H   0  0  0  0  0  0  0  0  0  0  0  0
   20.7980   30.5440   14.5452 C   0  0  0  0  0  0  0  0  0  0  0  0
   22.1537   29.5292   12.7411 C   0  0  0  0  0  0  0  0  0  0  0  0
   21.8477   30.3861   11.9368 O   0  0  0  0  0  0  0  0  0  0  0  0
   21.7074   29.5404   13.9986 N   0  0  0  0  0  0  0  0  0  0  0  0
   22.0122   28.8225   14.5994 H   0  0  0  0  0  0  0  0  0  0  0  0
   22.7993   25.2131   10.5826 F   0  0  0  0  0  0  0  0  0  0  0  0
   23.3455   26.2837   11.1899 C   0  0  0  0  0  0  0  0  0  0  0  0
   24.7189   26.3585   11.3825 C   0  0  0  0  0  0  0  0  0  0  0  0
   25.2717   27.4648   12.0069 C   0  0  0  0  0  0  0  0  0  0  0  0
   24.4475   28.5042   12.4253 C   0  0  0  0  0  0  0  0  0  0  0  0
   22.5277   27.3087   11.6252 C   0  0  0  0  0  0  0  0  0  0  0  0
   21.0472   27.2296   11.4220 C   0  0  0  0  0  0  0  0  0  0  0  0
   23.0677   28.4228   12.2388 C   0  0  0  0  0  0  0  0  0  0  0  0
   19.6288   29.7206   15.0968 C   0  0  0  0  0  0  0  0  0  0  0  0
   18.7387   29.2400   13.9589 C   0  0  0  0  0  0  0  0  0  0  0  0
   18.3096   27.9274   13.9164 C   0  0  0  0  0  0  0  0  0  0  0  0
   17.5075   27.5015   12.8674 C   0  0  0  0  0  0  0  0  0  0  0  0
   17.1239   28.3754   11.8604 C   0  0  0  0  0  0  0  0  0  0  0  0
   17.5487   29.6962   11.9028 C   0  0  0  0  0  0  0  0  0  0  0  0
   18.3572   30.1212   12.9524 C   0  0  0  0  0  0  0  0  0  0  0  0
   21.6582   32.8268   15.2885 C   0  0  0  0  0  0  0  0  0  0  0  0
   20.4738   33.5858   15.7326 N   0  0  0  0  0  0  0  0  0  0  0  0
   20.8630   34.8065   16.7308 S   0  0  0  0  0  0  0  0  0  0  0  0
   21.6933   34.2238   17.7526 O   0  0  0  0  0  0  0  0  0  0  0  0
   21.6352   35.7735   16.0095 O   0  0  0  0  0  0  0  0  0  0  0  0
   19.5692   35.5345   17.3774 C   0  0  0  0  0  0  0  0  0  0  0  0
   19.3492   36.8867   17.1469 C   0  0  0  0  0  0  0  0  0  0  0  0
   18.2530   37.5547   17.6875 C   0  0  0  0  0  0  0  0  0  0  0  0
   17.3507   36.8467   18.4932 C   0  0  0  0  0  0  0  0  0  0  0  0
   17.5388   35.4884   18.7147 C   0  0  0  0  0  0  0  0  0  0  0  0
   18.6473   34.8389   18.1630 C   0  0  0  0  0  0  0  0  0  0  0  0
   18.1237   38.9049   17.3960 O   0  0  0  0  0  0  0  0  0  0  0  0
   16.8871   39.5312   17.0822 C   0  0  0  0  0  0  0  0  0  0  0  0
   19.5196   33.9292   14.6510 C   0  0  0  0  0  0  0  0  0  0  0  0
   18.0854   33.6438   15.1006 C   0  0  0  0  0  0  0  0  0  0  0  0
   17.7561   32.4588   15.6623 C   0  0  0  0  0  0  0  0  0  0  0  0
   16.3661   32.4558   15.9941 C   0  0  0  0  0  0  0  0  0  0  0  0
   15.7848   33.6282   15.6492 C   0  0  0  0  0  0  0  0  0  0  0  0
   16.8205   34.7405   14.9622 S   0  0  0  0  0  0  0  0  0  0  0  0
  9 10  1  0  0  0
 10 11  1  0  0  0
 10 14  2  0  0  0
 11 12  2  0  0  0
 12 13  1  0  0  0
 13 16  2  0  0  0
 14 16  1  0  0  0
 14 15  1  0  0  0
 16  5  1  0  0  0
  5  6  2  0  0  0
  5  7  1  0  0  0
  7  4  1  0  0  0
  4 17  1  0  0  0
  4  1  1  0  0  0
 17 18  1  0  0  0
 18 19  2  0  0  0
 18 23  1  0  0  0
 19 20  1  0  0  0
 20 21  2  0  0  0
 21 22  1  0  0  0
 22 23  2  0  0  0
  1 24  1  0  0  0
  1  2  1  0  0  0
 24 25  1  0  0  0
 25 26  1  0  0  0
 25 37  1  0  0  0
 37 38  1  0  0  0
 38 42  1  0  0  0
 38 39  2  0  0  0
 39 40  1  0  0  0
 40 41  2  0  0  0
 41 42  1  0  0  0
 26 27  2  0  0  0
 26 28  2  0  0  0
 26 29  1  0  0  0
 29 30  2  0  0  0
 29 34  1  0  0  0
 30 31  1  0  0  0
 31 35  1  0  0  0
 31 32  2  0  0  0
 35 36  1  0  0  0
 32 33  1  0  0  0
 33 34  2  0  0  0
  7  8  1  0  0  0
  2  3  1  0  0  0
M  END
> <minimizedAffinity>
-9.52633

$$$$
2QI0_MZ3_B_200


 42 45  0  0  0  0  0  0  0  0999 V2000
   17.3353   33.4894   14.8062 C   0  0  0  0  0  0  0  0  0  0  0  0
   17.9821   34.7228   14.4527 O   0  0  0  0  0  0  0  0  0  0  0  0
   18.9114   34.6913   14.7290 H   0  0  0  0  0  0  0  0  0  0  0  0
   17.9511   32.2934   14.0684 C   0  0  0  0  0  0  0  0  0  0  0  0
   20.3321   32.2915   13.3951 C   0  0  0  0  0  0  0  0  0  0  0  0
   20.0712   32.4815   12.2244 O   0  0  0  0  0  0  0  0  0  0  0  0
   19.3849   32.2021   14.3307 N   0  0  0  0  0  0  0  0  0  0  0  0
   19.6725   32.0651   15.2623 H   0  0  0  0  0  0  0  0  0  0  0  0
   24.2663   29.5127   14.1061 F   0  0  0  0  0  0  0  0  0  0  0  0
   23.7156   30.7417   14.1091 C   0  0  0  0  0  0  0  0  0  0  0  0
   24.4736   31.8512   14.4600 C   0  0  0  0  0  0  0  0  0  0  0  0
   23.8986   33.1117   14.4585 C   0  0  0  0  0  0  0  0  0  0  0  0
   22.5657   33.2612   14.0902 C   0  0  0  0  0  0  0  0  0  0  0  0
   22.3863   30.8913   13.7637 C   0  0  0  0  0  0  0  0  0  0  0  0
   21.5661   29.6974   13.3881 C   0  0  0  0  0  0  0  0  0  0  0  0
   21.8040   32.1444   13.7468 C   0  0  0  0  0  0  0  0  0  0  0  0
   17.3927   30.9724   14.6089 C   0  0  0  0  0  0  0  0  0  0  0  0
   17.6162   29.8532   13.6012 C   0  0  0  0  0  0  0  0  0  0  0  0
   17.4125   30.0782   12.2533 C   0  0  0  0  0  0  0  0  0  0  0  0
   17.6100   29.0455   11.3480 C   0  0  0  0  0  0  0  0  0  0  0  0
   18.0145   27.7886   11.7743 C   0  0  0  0  0  0  0  0  0  0  0  0
   18.2253   27.5607   13.1272 C   0  0  0  0  0  0  0  0  0  0  0  0
   18.0221   28.5954   14.0349 C   0  0  0  0  0  0  0  0  0  0  0  0
   17.4482   33.3503   16.3342 C   0  0  0  0  0  0  0  0  0  0  0  0
   17.7647   34.6680   16.9168 N   0  0  0  0  0  0  0  0  0  0  0  0
   16.4303   35.4882   17.3467 S   0  0  0  0  0  0  0  0  0  0  0  0
   15.5279   35.3753   16.2303 O   0  0  0  0  0  0  0  0  0  0  0  0
   15.8347   34.8516   18.4831 O   0  0  0  0  0  0  0  0  0  0  0  0
   16.7261   37.0403   17.7010 C   0  0  0  0  0  0  0  0  0  0  0  0
   17.2959   37.8716   16.7448 C   0  0  0  0  0  0  0  0  0  0  0  0
   17.5728   39.2111   17.0078 C   0  0  0  0  0  0  0  0  0  0  0  0
   17.2766   39.7343   18.2739 C   0  0  0  0  0  0  0  0  0  0  0  0
   16.6830   38.9263   19.2353 C   0  0  0  0  0  0  0  0  0  0  0  0
   16.4154   37.5840   18.9495 C   0  0  0  0  0  0  0  0  0  0  0  0
   18.1413   39.9559   15.9846 O   0  0  0  0  0  0  0  0  0  0  0  0
   19.5110   40.3334   15.9483 C   0  0  0  0  0  0  0  0  0  0  0  0
   18.8527   34.6523   17.9240 C   0  0  0  0  0  0  0  0  0  0  0  0
   20.0275   35.5082   17.4469 C   0  0  0  0  0  0  0  0  0  0  0  0
   20.7655   35.1400   16.3755 C   0  0  0  0  0  0  0  0  0  0  0  0
   21.7875   36.1111   16.1412 C   0  0  0  0  0  0  0  0  0  0  0  0
   21.7248   37.1079   17.0544 C   0  0  0  0  0  0  0  0  0  0  0  0
   20.4950   36.9507   18.1699 S   0  0  0  0  0  0  0  0  0  0  0  0
  9 10  1  0  0  0
 10 11  1  0  0  0
 10 14  2  0  0  0
 11 12  2  0  0  0
 12 13  1  0  0  0
 13 16  2  0  0  0
 14 16  1  0  0  0
 14 15  1  0  0  0
 16  5  1  0  0  0
  5  6  2  0  0  0
  5  7  1  0  0  0
  7  4  1  0  0  0
  4 17  1  0  0  0
  4  1  1  0  0  0
 17 18  1  0  0  0
 18 19  2  0  0  0
 18 23  1  0  0  0
 19 20  1  0  0  0
 20 21  2  0  0  0
 21 22  1  0  0  0
 22 23  2  0  0  0
  1 24  1  0  0  0
  1  2  1  0  0  0
 24 25  1  0  0  0
 25 26  1  0  0  0
 25 37  1  0  0  0
 37 38  1  0  0  0
 38 42  1  0  0  0
 38 39  2  0  0  0
 39 40  1  0  0  0
 40 41  2  0  0  0
 41 42  1  0  0  0
 26 27  2  0  0  0
 26 28  2  0  0  0
 26 29  1  0  0  0
 29 30  2  0  0  0
 29 34  1  0  0  0
 30 31  1  0  0  0
 31 35  1  0  0  0
 31 32  2  0  0  0
 35 36  1  0  0  0
 32 33  1  0  0  0
 33 34  2  0  0  0
  7  8  1  0  0  0
  2  3  1  0  0  0
M  END
> <minimizedAffinity>
-9.48888

$$$$
2QI0_MZ3_B_200


 42 45  0  0  0  0  0  0  0  0999 V2000
   20.3505   32.2008   13.9509 C   0  0  0  0  0  0  0  0  0  0  0  0
   20.6460   31.9777   12.5626 O   0  0  0  0  0  0  0  0  0  0  0  0
   20.5419   31.0355   12.3572 H   0  0  0  0  0  0  0  0  0  0  0  0
   18.8923   31.8583   14.2833 C   0  0  0  0  0  0  0  0  0  0  0  0
   18.2105   33.3579   16.1296 C   0  0  0  0  0  0  0  0  0  0  0  0
   18.8307   32.7269   16.9614 O   0  0  0  0  0  0  0  0  0  0  0  0
   18.1992   33.0173   14.8395 N   0  0  0  0  0  0  0  0  0  0  0  0
   17.6885   33.5867   14.2197 H   0  0  0  0  0  0  0  0  0  0  0  0
   13.9802   35.5219   17.1909 F   0  0  0  0  0  0  0  0  0  0  0  0
   15.3230   35.6003   17.1264 C   0  0  0  0  0  0  0  0  0  0  0  0
   15.9771   36.7719   17.4848 C   0  0  0  0  0  0  0  0  0  0  0  0
   17.3591   36.8424   17.4166 C   0  0  0  0  0  0  0  0  0  0  0  0
   18.0868   35.7317   17.0026 C   0  0  0  0  0  0  0  0  0  0  0  0
   16.0477   34.5056   16.6960 C   0  0  0  0  0  0  0  0  0  0  0  0
   15.3456   33.2429   16.3062 C   0  0  0  0  0  0  0  0  0  0  0  0
   17.4271   34.5592   16.6347 C   0  0  0  0  0  0  0  0  0  0  0  0
   18.1040   31.5337   13.0096 C   0  0  0  0  0  0  0  0  0  0  0  0
   17.9582   30.0267   12.8489 C   0  0  0  0  0  0  0  0  0  0  0  0
   18.0881   29.1933   13.9432 C   0  0  0  0  0  0  0  0  0  0  0  0
   17.9632   27.8213   13.7791 C   0  0  0  0  0  0  0  0  0  0  0  0
   17.7043   27.2710   12.5321 C   0  0  0  0  0  0  0  0  0  0  0  0
   17.5678   28.1058   11.4315 C   0  0  0  0  0  0  0  0  0  0  0  0
   17.6982   29.4812   11.5959 C   0  0  0  0  0  0  0  0  0  0  0  0
   21.3457   31.3507   14.7593 C   0  0  0  0  0  0  0  0  0  0  0  0
   22.6648   31.3947   14.1005 N   0  0  0  0  0  0  0  0  0  0  0  0
   23.4609   32.7768   14.4072 S   0  0  0  0  0  0  0  0  0  0  0  0
   24.8345   32.3969   14.6129 O   0  0  0  0  0  0  0  0  0  0  0  0
   23.3880   33.6251   13.2554 O   0  0  0  0  0  0  0  0  0  0  0  0
   22.8789   33.5728   15.6915 C   0  0  0  0  0  0  0  0  0  0  0  0
   22.4240   34.8777   15.5486 C   0  0  0  0  0  0  0  0  0  0  0  0
   21.9207   35.6019   16.6267 C   0  0  0  0  0  0  0  0  0  0  0  0
   21.8789   35.0021   17.8929 C   0  0  0  0  0  0  0  0  0  0  0  0
   22.3050   33.6896   18.0516 C   0  0  0  0  0  0  0  0  0  0  0  0
   22.8079   32.9823   16.9553 C   0  0  0  0  0  0  0  0  0  0  0  0
   21.4910   36.8973   16.3778 O   0  0  0  0  0  0  0  0  0  0  0  0
   21.1464   37.8257   17.3973 C   0  0  0  0  0  0  0  0  0  0  0  0
   23.4664   30.1553   14.2407 C   0  0  0  0  0  0  0  0  0  0  0  0
   22.9932   29.1029   13.2362 C   0  0  0  0  0  0  0  0  0  0  0  0
   21.6888   28.7564   13.1554 C   0  0  0  0  0  0  0  0  0  0  0  0
   21.5183   27.7659   12.1395 C   0  0  0  0  0  0  0  0  0  0  0  0
   22.7023   27.4601   11.5597 C   0  0  0  0  0  0  0  0  0  0  0  0
   24.0074   28.3092   12.1576 S   0  0  0  0  0  0  0  0  0  0  0  0
  9 10  1  0  0  0
 10 11  1  0  0  0
 10 14  2  0  0  0
 11 12  2  0  0  0
 12 13  1  0  0  0
 13 16  2  0  0  0
 14 16  1  0  0  0
 14 15  1  0  0  0
 16  5  1  0  0  0
  5  6  2  0  0  0
  5  7  1  0  0  0
  7  4  1  0  0  0
  4 17  1  0  0  0
  4  1  1  0  0  0
 17 18  1  0  0  0
 18 19  2  0  0  0
 18 23  1  0  0  0
 19 20  1  0  0  0
 20 21  2  0  0  0
 21 22  1  0  0  0
 22 23  2  0  0  0
  1 24  1  0  0  0
  1  2  1  0  0  0
 24 25  1  0  0  0
 25 26  1  0  0  0
 25 37  1  0  0  0
 37 38  1  0  0  0
 38 42  1  0  0  0
 38 39  2  0  0  0
 39 40  1  0  0  0
 40 41  2  0  0  0
 41 42  1  0  0  0
 26 27  2  0  0  0
 26 28  2  0  0  0
 26 29  1  0  0  0
 29 30  2  0  0  0
 29 34  1  0  0  0
 30 31  1  0  0  0
 31 35  1  0  0  0
 31 32  2  0  0  0
 35 36  1  0  0  0
 32 33  1  0  0  0
 33 34  2  0  0  0
  7  8  1  0  0  0
  2  3  1  0  0  0
M  END
> <minimizedAffinity>
-9.41455

$$$$
2QI0_MZ3_B_200


 42 45  0  0  0  0  0  0  0  0999 V2000
   18.5031   31.3956   14.2965 C   0  0  0  0  0  0  0  0  0  0  0  0
   17.4712   31.0212   13.3696 O   0  0  0  0  0  0  0  0  0  0  0  0
   16.9027   30.3470   13.7736 H   0  0  0  0  0  0  0  0  0  0  0  0
   17.9231   32.0406   15.5621 C   0  0  0  0  0  0  0  0  0  0  0  0
   19.7746   33.4476   16.4075 C   0  0  0  0  0  0  0  0  0  0  0  0
   20.4477   32.4885   16.7267 O   0  0  0  0  0  0  0  0  0  0  0  0
   18.5739   33.3182   15.8402 N   0  0  0  0  0  0  0  0  0  0  0  0
   18.0933   34.1408   15.5919 H   0  0  0  0  0  0  0  0  0  0  0  0
   19.8608   37.5591   19.0138 F   0  0  0  0  0  0  0  0  0  0  0  0
   20.3633   36.8386   17.9930 C   0  0  0  0  0  0  0  0  0  0  0  0
   21.3815   37.3548   17.2020 C   0  0  0  0  0  0  0  0  0  0  0  0
   21.8930   36.6053   16.1551 C   0  0  0  0  0  0  0  0  0  0  0  0
   21.3931   35.3307   15.9106 C   0  0  0  0  0  0  0  0  0  0  0  0
   19.8548   35.5803   17.7345 C   0  0  0  0  0  0  0  0  0  0  0  0
   18.7557   35.0226   18.5831 C   0  0  0  0  0  0  0  0  0  0  0  0
   20.3645   34.8180   16.7008 C   0  0  0  0  0  0  0  0  0  0  0  0
   16.4505   32.4136   15.3586 C   0  0  0  0  0  0  0  0  0  0  0  0
   16.1546   33.7630   15.9987 C   0  0  0  0  0  0  0  0  0  0  0  0
   16.5489   34.9314   15.3757 C   0  0  0  0  0  0  0  0  0  0  0  0
   16.2815   36.1531   15.9764 C   0  0  0  0  0  0  0  0  0  0  0  0
   15.6185   36.2215   17.1933 C   0  0  0  0  0  0  0  0  0  0  0  0
   15.2162   35.0498   17.8194 C   0  0  0  0  0  0  0  0  0  0  0  0
   15.4892   33.8248   17.2188 C   0  0  0  0  0  0  0  0  0  0  0  0
   19.3038   30.1198   14.6094 C   0  0  0  0  0  0  0  0  0  0  0  0
   20.2036   29.8249   13.4783 N   0  0  0  0  0  0  0  0  0  0  0  0
   19.5817   28.7143   12.4694 S   0  0  0  0  0  0  0  0  0  0  0  0
   18.5812   28.0134   13.2317 O   0  0  0  0  0  0  0  0  0  0  0  0
   18.9404   29.3814   11.3761 O   0  0  0  0  0  0  0  0  0  0  0  0
   20.6940   27.6907   11.8890 C   0  0  0  0  0  0  0  0  0  0  0  0
   22.0336   27.8697   12.2109 C   0  0  0  0  0  0  0  0  0  0  0  0
   23.0245   27.0172   11.7298 C   0  0  0  0  0  0  0  0  0  0  0  0
   22.6629   25.9540   10.8909 C   0  0  0  0  0  0  0  0  0  0  0  0
   21.3262   25.7427   10.5781 C   0  0  0  0  0  0  0  0  0  0  0  0
   20.3487   26.6123   11.0713 C   0  0  0  0  0  0  0  0  0  0  0  0
   24.3318   27.2820   12.1113 O   0  0  0  0  0  0  0  0  0  0  0  0
   25.4711   26.8731   11.3664 C   0  0  0  0  0  0  0  0  0  0  0  0
   20.7859   31.0216   12.8247 C   0  0  0  0  0  0  0  0  0  0  0  0
   22.0640   31.4501   13.5481 C   0  0  0  0  0  0  0  0  0  0  0  0
   22.3665   32.7582   13.7084 C   0  0  0  0  0  0  0  0  0  0  0  0
   23.6008   32.8810   14.4181 C   0  0  0  0  0  0  0  0  0  0  0  0
   24.1084   31.6629   14.7182 C   0  0  0  0  0  0  0  0  0  0  0  0
   23.1758   30.3777   14.2082 S   0  0  0  0  0  0  0  0  0  0  0  0
  9 10  1  0  0  0
 10 11  1  0  0  0
 10 14  2  0  0  0
 11 12  2  0  0  0
 12 13  1  0  0  0
 13 16  2  0  0  0
 14 16  1  0  0  0
 14 15  1  0  0  0
 16  5  1  0  0  0
  5  6  2  0  0  0
  5  7  1  0  0  0
  7  4  1  0  0  0
  4 17  1  0  0  0
  4  1  1  0  0  0
 17 18  1  0  0  0
 18 19  2  0  0  0
 18 23  1  0  0  0
 19 20  1  0  0  0
 20 21  2  0  0  0
 21 22  1  0  0  0
 22 23  2  0  0  0
  1 24  1  0  0  0
  1  2  1  0  0  0
 24 25  1  0  0  0
 25 26  1  0  0  0
 25 37  1  0  0  0
 37 38  1  0  0  0
 38 42  1  0  0  0
 38 39  2  0  0  0
 39 40  1  0  0  0
 40 41  2  0  0  0
 41 42  1  0  0  0
 26 27  2  0  0  0
 26 28  2  0  0  0
 26 29  1  0  0  0
 29 30  2  0  0  0
 29 34  1  0  0  0
 30 31  1  0  0  0
 31 35  1  0  0  0
 31 32  2  0  0  0
 35 36  1  0  0  0
 32 33  1  0  0  0
 33 34  2  0  0  0
  7  8  1  0  0  0
  2  3  1  0  0  0
M  END
> <minimizedAffinity>
-9.36269

$$$$
2QI0_MZ3_B_200


 42 45  0  0  0  0  0  0  0  0999 V2000
   21.3873   31.9124   13.6618 C   0  0  0  0  0  0  0  0  0  0  0  0
   22.2398   33.0053   13.2834 O   0  0  0  0  0  0  0  0  0  0  0  0
   21.7522   33.6095   12.7021 H   0  0  0  0  0  0  0  0  0  0  0  0
   20.1777   32.3910   14.4753 C   0  0  0  0  0  0  0  0  0  0  0  0
   20.9912   33.7842   16.3514 C   0  0  0  0  0  0  0  0  0  0  0  0
   21.3042   32.8202   17.0204 O   0  0  0  0  0  0  0  0  0  0  0  0
   20.4628   33.6639   15.1320 N   0  0  0  0  0  0  0  0  0  0  0  0
   20.2504   34.4905   14.6411 H   0  0  0  0  0  0  0  0  0  0  0  0
   19.3953   37.5701   18.9637 F   0  0  0  0  0  0  0  0  0  0  0  0
   20.3911   37.0058   18.2542 C   0  0  0  0  0  0  0  0  0  0  0  0
   21.5939   37.6763   18.0741 C   0  0  0  0  0  0  0  0  0  0  0  0
   22.6130   37.0868   17.3438 C   0  0  0  0  0  0  0  0  0  0  0  0
   22.4309   35.8171   16.8061 C   0  0  0  0  0  0  0  0  0  0  0  0
   20.2061   35.7532   17.7013 C   0  0  0  0  0  0  0  0  0  0  0  0
   18.9102   35.0295   17.8910 C   0  0  0  0  0  0  0  0  0  0  0  0
   21.2189   35.1494   16.9808 C   0  0  0  0  0  0  0  0  0  0  0  0
   18.9927   32.7076   13.5563 C   0  0  0  0  0  0  0  0  0  0  0  0
   17.7801   33.1171   14.3808 C   0  0  0  0  0  0  0  0  0  0  0  0
   17.3786   34.4385   14.4210 C   0  0  0  0  0  0  0  0  0  0  0  0
   16.2779   34.7981   15.1853 C   0  0  0  0  0  0  0  0  0  0  0  0
   15.5687   33.8495   15.9081 C   0  0  0  0  0  0  0  0  0  0  0  0
   15.9661   32.5202   15.8657 C   0  0  0  0  0  0  0  0  0  0  0  0
   17.0730   32.1612   15.1030 C   0  0  0  0  0  0  0  0  0  0  0  0
   20.9695   31.2039   12.3617 C   0  0  0  0  0  0  0  0  0  0  0  0
   20.9468   29.7470   12.5916 N   0  0  0  0  0  0  0  0  0  0  0  0
   22.3236   29.2077   13.2638 S   0  0  0  0  0  0  0  0  0  0  0  0
   23.1169   30.3816   13.5206 O   0  0  0  0  0  0  0  0  0  0  0  0
   22.0194   28.5781   14.5139 O   0  0  0  0  0  0  0  0  0  0  0  0
   23.1221   28.1606   12.3215 C   0  0  0  0  0  0  0  0  0  0  0  0
   22.4155   27.2970   11.4939 C   0  0  0  0  0  0  0  0  0  0  0  0
   23.0606   26.3766   10.6713 C   0  0  0  0  0  0  0  0  0  0  0  0
   24.4608   26.3129   10.6837 C   0  0  0  0  0  0  0  0  0  0  0  0
   25.1864   27.1852   11.4849 C   0  0  0  0  0  0  0  0  0  0  0  0
   24.5174   28.1000   12.3038 C   0  0  0  0  0  0  0  0  0  0  0  0
   22.2633   25.5605    9.8820 O   0  0  0  0  0  0  0  0  0  0  0  0
   22.6435   25.0880    8.5966 C   0  0  0  0  0  0  0  0  0  0  0  0
   19.6976   29.2388   13.2077 C   0  0  0  0  0  0  0  0  0  0  0  0
   18.6413   28.9862   12.1303 C   0  0  0  0  0  0  0  0  0  0  0  0
   17.4802   29.6789   12.1196 C   0  0  0  0  0  0  0  0  0  0  0  0
   16.6809   29.2571   11.0126 C   0  0  0  0  0  0  0  0  0  0  0  0
   17.3097   28.2911   10.3033 C   0  0  0  0  0  0  0  0  0  0  0  0
   18.8160   27.8729   10.8845 S   0  0  0  0  0  0  0  0  0  0  0  0
  9 10  1  0  0  0
 10 11  1  0  0  0
 10 14  2  0  0  0
 11 12  2  0  0  0
 12 13  1  0  0  0
 13 16  2  0  0  0
 14 16  1  0  0  0
 14 15  1  0  0  0
 16  5  1  0  0  0
  5  6  2  0  0  0
  5  7  1  0  0  0
  7  4  1  0  0  0
  4 17  1  0  0  0
  4  1  1  0  0  0
 17 18  1  0  0  0
 18 19  2  0  0  0
 18 23  1  0  0  0
 19 20  1  0  0  0
 20 21  2  0  0  0
 21 22  1  0  0  0
 22 23  2  0  0  0
  1 24  1  0  0  0
  1  2  1  0  0  0
 24 25  1  0  0  0
 25 26  1  0  0  0
 25 37  1  0  0  0
 37 38  1  0  0  0
 38 42  1  0  0  0
 38 39  2  0  0  0
 39 40  1  0  0  0
 40 41  2  0  0  0
 41 42  1  0  0  0
 26 27  2  0  0  0
 26 28  2  0  0  0
 26 29  1  0  0  0
 29 30  2  0  0  0
 29 34  1  0  0  0
 30 31  1  0  0  0
 31 35  1  0  0  0
 31 32  2  0  0  0
 35 36  1  0  0  0
 32 33  1  0  0  0
 33 34  2  0  0  0
  7  8  1  0  0  0
  2  3  1  0  0  0
M  END
> <minimizedAffinity>
-9.29020

$$$$
2QI0_MZ3_B_200


 42 45  0  0  0  0  0  0  0  0999 V2000
   21.4045   31.5738   15.4419 C   0  0  0  0  0  0  0  0  0  0  0  0
   20.6390   31.6148   16.6572 O   0  0  0  0  0  0  0  0  0  0  0  0
   19.7766   32.0229   16.4824 H   0  0  0  0  0  0  0  0  0  0  0  0
   20.7337   30.6957   14.3775 C   0  0  0  0  0  0  0  0  0  0  0  0
   22.1190   29.5890   12.6517 C   0  0  0  0  0  0  0  0  0  0  0  0
   21.8276   30.4032   11.7991 O   0  0  0  0  0  0  0  0  0  0  0  0
   21.6514   29.6652   13.8991 N   0  0  0  0  0  0  0  0  0  0  0  0
   21.9452   28.9794   14.5413 H   0  0  0  0  0  0  0  0  0  0  0  0
   22.7979   25.1696   10.7248 F   0  0  0  0  0  0  0  0  0  0  0  0
   23.3344   26.2690   11.2880 C   0  0  0  0  0  0  0  0  0  0  0  0
   24.7040   26.3522   11.5026 C   0  0  0  0  0  0  0  0  0  0  0  0
   25.2468   27.4880   12.0812 C   0  0  0  0  0  0  0  0  0  0  0  0
   24.4167   28.5477   12.4313 C   0  0  0  0  0  0  0  0  0  0  0  0
   22.5102   27.3151   11.6558 C   0  0  0  0  0  0  0  0  0  0  0  0
   21.0338   27.2271   11.4286 C   0  0  0  0  0  0  0  0  0  0  0  0
   23.0405   28.4582   12.2229 C   0  0  0  0  0  0  0  0  0  0  0  0
   19.5693   29.9017   14.9797 C   0  0  0  0  0  0  0  0  0  0  0  0
   18.6977   29.3225   13.8739 C   0  0  0  0  0  0  0  0  0  0  0  0
   18.2822   30.1193   12.8245 C   0  0  0  0  0  0  0  0  0  0  0  0
   17.4794   29.5800   11.8297 C   0  0  0  0  0  0  0  0  0  0  0  0
   17.0898   28.2489   11.8687 C   0  0  0  0  0  0  0  0  0  0  0  0
   17.5098   27.4441   12.9187 C   0  0  0  0  0  0  0  0  0  0  0  0
   18.3107   27.9870   13.9186 C   0  0  0  0  0  0  0  0  0  0  0  0
   21.5721   33.0294   14.9730 C   0  0  0  0  0  0  0  0  0  0  0  0
   20.8404   33.9204   15.8931 N   0  0  0  0  0  0  0  0  0  0  0  0
   21.8396   34.8122   16.8120 S   0  0  0  0  0  0  0  0  0  0  0  0
   22.1529   33.9930   17.9539 O   0  0  0  0  0  0  0  0  0  0  0  0
   23.0470   35.0634   16.0835 O   0  0  0  0  0  0  0  0  0  0  0  0
   21.1910   36.2237   17.2690 C   0  0  0  0  0  0  0  0  0  0  0  0
   21.5641   37.3970   16.6254 C   0  0  0  0  0  0  0  0  0  0  0  0
   21.0362   38.6336   16.9891 C   0  0  0  0  0  0  0  0  0  0  0  0
   20.1093   38.6990   18.0385 C   0  0  0  0  0  0  0  0  0  0  0  0
   19.7039   37.5343   18.6776 C   0  0  0  0  0  0  0  0  0  0  0  0
   20.2484   36.3040   18.2967 C   0  0  0  0  0  0  0  0  0  0  0  0
   21.4736   39.7446   16.2826 O   0  0  0  0  0  0  0  0  0  0  0  0
   20.8457   40.2292   15.1032 C   0  0  0  0  0  0  0  0  0  0  0  0
   19.7175   34.6625   15.2711 C   0  0  0  0  0  0  0  0  0  0  0  0
   18.3921   33.9547   15.5587 C   0  0  0  0  0  0  0  0  0  0  0  0
   17.8413   33.1160   14.6524 C   0  0  0  0  0  0  0  0  0  0  0  0
   16.6186   32.5875   15.1700 C   0  0  0  0  0  0  0  0  0  0  0  0
   16.3650   33.0783   16.4054 C   0  0  0  0  0  0  0  0  0  0  0  0
   17.5235   34.1283   16.9860 S   0  0  0  0  0  0  0  0  0  0  0  0
  9 10  1  0  0  0
 10 11  1  0  0  0
 10 14  2  0  0  0
 11 12  2  0  0  0
 12 13  1  0  0  0
 13 16  2  0  0  0
 14 16  1  0  0  0
 14 15  1  0  0  0
 16  5  1  0  0  0
  5  6  2  0  0  0
  5  7  1  0  0  0
  7  4  1  0  0  0
  4 17  1  0  0  0
  4  1  1  0  0  0
 17 18  1  0  0  0
 18 19  2  0  0  0
 18 23  1  0  0  0
 19 20  1  0  0  0
 20 21  2  0  0  0
 21 22  1  0  0  0
 22 23  2  0  0  0
  1 24  1  0  0  0
  1  2  1  0  0  0
 24 25  1  0  0  0
 25 26  1  0  0  0
 25 37  1  0  0  0
 37 38  1  0  0  0
 38 42  1  0  0  0
 38 39  2  0  0  0
 39 40  1  0  0  0
 40 41  2  0  0  0
 41 42  1  0  0  0
 26 27  2  0  0  0
 26 28  2  0  0  0
 26 29  1  0  0  0
 29 30  2  0  0  0
 29 34  1  0  0  0
 30 31  1  0  0  0
 31 35  1  0  0  0
 31 32  2  0  0  0
 35 36  1  0  0  0
 32 33  1  0  0  0
 33 34  2  0  0  0
  7  8  1  0  0  0
  2  3  1  0  0  0
M  END
> <minimizedAffinity>
-9.22288

$$$$
