4MUL_2DW_A_404


 33 36  0  0  0  0  0  0  0  0999 V2000
   15.8392   10.2363    1.2628 C   0  0  0  0  0  0  0  0  0  0  0  0
   16.3493    9.2632    1.8386 O   0  0  0  0  0  0  0  0  0  0  0  0
   15.8563   11.4240    1.8525 N   0  0  0  0  0  0  0  0  0  0  0  0
   15.5103   12.1913    1.3419 H   0  0  0  0  0  0  0  0  0  0  0  0
   16.1809   10.1548   -1.1191 N   0  0  0  0  0  0  0  0  0  0  0  0
   15.4673   10.1432   -2.2604 C   0  0  0  0  0  0  0  0  0  0  0  0
   15.8827   10.1106   -3.5722 C   0  0  0  0  0  0  0  0  0  0  0  0
   14.9349   10.0902   -4.6043 C   0  0  0  0  0  0  0  0  0  0  0  0
   13.5760   10.1196   -4.2906 C   0  0  0  0  0  0  0  0  0  0  0  0
   13.2066   10.1886   -2.9123 C   0  0  0  0  0  0  0  0  0  0  0  0
   14.1567   10.1893   -1.9213 C   0  0  0  0  0  0  0  0  0  0  0  0
   14.1003   10.2187   -0.5370 C   0  0  0  0  0  0  0  0  0  0  0  0
   15.3737   10.2025   -0.0419 C   0  0  0  0  0  0  0  0  0  0  0  0
   12.7571   10.0547   -5.3940 O   0  0  0  0  0  0  0  0  0  0  0  0
   11.3589    9.7015   -5.1295 C   0  0  0  0  0  0  0  0  0  0  0  0
   17.6664   10.0244   -1.1673 C   0  0  0  0  0  0  0  0  0  0  0  0
   19.8304   10.6396   -0.6455 O   0  0  0  0  0  0  0  0  0  0  0  0
   18.6129   11.0096   -0.6082 C   0  0  0  0  0  0  0  0  0  0  0  0
   18.1640   12.0815   -0.1996 O   0  0  0  0  0  0  0  0  0  0  0  0
   17.2411   12.2420   -0.2220 H   0  0  0  0  0  0  0  0  0  0  0  0
   16.4196   11.7140    3.3923 S   0  0  0  0  0  0  0  0  0  0  0  0
   16.0821   13.1209    3.7383 O   0  0  0  0  0  0  0  0  0  0  0  0
   17.9234   11.7533    3.5982 O   0  0  0  0  0  0  0  0  0  0  0  0
   15.7250   10.7432    4.4025 C   0  0  0  0  0  0  0  0  0  0  0  0
   16.4980   10.0334    5.3186 C   0  0  0  0  0  0  0  0  0  0  0  0
   15.8240    9.2230    6.2465 C   0  0  0  0  0  0  0  0  0  0  0  0
   16.5717    8.4864    7.1816 C   0  0  0  0  0  0  0  0  0  0  0  0
   15.8740    7.6975    8.0743 C   0  0  0  0  0  0  0  0  0  0  0  0
   14.4674    7.6122    8.0618 C   0  0  0  0  0  0  0  0  0  0  0  0
   13.7256    8.3245    7.1387 C   0  0  0  0  0  0  0  0  0  0  0  0
   14.4143    9.1383    6.2358 C   0  0  0  0  0  0  0  0  0  0  0  0
   13.6838    9.8331    5.2815 C   0  0  0  0  0  0  0  0  0  0  0  0
   14.3558   10.6493    4.3631 C   0  0  0  0  0  0  0  0  0  0  0  0
 28 29  2  0  0  0
 28 27  1  0  0  0
 29 30  1  0  0  0
 27 26  2  0  0  0
 30 31  2  0  0  0
 26 31  1  0  0  0
 26 25  1  0  0  0
 31 32  1  0  0  0
 25 24  2  0  0  0
 32 33  2  0  0  0
 24 33  1  0  0  0
 24 21  1  0  0  0
 22 21  2  0  0  0
 21 23  2  0  0  0
 21  3  1  0  0  0
  3  1  1  0  0  0
  2  1  2  0  0  0
  1 13  1  0  0  0
 13 12  2  0  0  0
 13  5  1  0  0  0
 12 11  1  0  0  0
 17 18  2  0  0  0
 19 18  1  0  0  0
 18 16  1  0  0  0
  5 16  1  0  0  0
  5  6  1  0  0  0
 11 10  2  0  0  0
 11  6  1  0  0  0
 10  9  1  0  0  0
  6  7  2  0  0  0
  9 14  1  0  0  0
  9  8  2  0  0  0
 15 14  1  0  0  0
  7  8  1  0  0  0
 19 20  1  0  0  0
  3  4  1  0  0  0
M  END
> <minimizedAffinity>
-10.75831

$$$$
4MUL_2DW_A_404


 33 36  0  0  0  0  0  0  0  0999 V2000
   15.4553   10.3925    1.5182 C   0  0  0  0  0  0  0  0  0  0  0  0
   15.4726    9.4248    2.2940 O   0  0  0  0  0  0  0  0  0  0  0  0
   15.9680   11.5508    1.9108 N   0  0  0  0  0  0  0  0  0  0  0  0
   16.0067   12.2794    1.2498 H   0  0  0  0  0  0  0  0  0  0  0  0
   15.9246   10.1264   -0.8282 N   0  0  0  0  0  0  0  0  0  0  0  0
   15.2789   10.0963   -2.0090 C   0  0  0  0  0  0  0  0  0  0  0  0
   15.7644    9.9439   -3.2879 C   0  0  0  0  0  0  0  0  0  0  0  0
   14.8787    9.9308   -4.3739 C   0  0  0  0  0  0  0  0  0  0  0  0
   13.5114   10.0891   -4.1479 C   0  0  0  0  0  0  0  0  0  0  0  0
   13.0708   10.2785   -2.8022 C   0  0  0  0  0  0  0  0  0  0  0  0
   13.9595   10.2691   -1.7557 C   0  0  0  0  0  0  0  0  0  0  0  0
   13.8267   10.3945   -0.3821 C   0  0  0  0  0  0  0  0  0  0  0  0
   15.0639   10.3096    0.1916 C   0  0  0  0  0  0  0  0  0  0  0  0
   12.7543   10.0168   -5.2942 O   0  0  0  0  0  0  0  0  0  0  0  0
   11.3325    9.7159   -5.1005 C   0  0  0  0  0  0  0  0  0  0  0  0
   17.3944    9.8752   -0.7756 C   0  0  0  0  0  0  0  0  0  0  0  0
   17.9606   12.0501   -0.2438 O   0  0  0  0  0  0  0  0  0  0  0  0
   18.4198   10.9267   -0.6280 C   0  0  0  0  0  0  0  0  0  0  0  0
   19.5948   10.6291   -0.8478 O   0  0  0  0  0  0  0  0  0  0  0  0
   19.8139    9.7625   -1.1289 H   0  0  0  0  0  0  0  0  0  0  0  0
   16.5511   11.8645    3.4385 S   0  0  0  0  0  0  0  0  0  0  0  0
   15.4461   11.6154    4.4028 O   0  0  0  0  0  0  0  0  0  0  0  0
   16.8761   13.3058    3.7880 O   0  0  0  0  0  0  0  0  0  0  0  0
   17.7495   10.9109    3.7547 C   0  0  0  0  0  0  0  0  0  0  0  0
   18.9262   11.0148    3.0164 C   0  0  0  0  0  0  0  0  0  0  0  0
   19.9959   10.1803    3.3791 C   0  0  0  0  0  0  0  0  0  0  0  0
   21.1968   10.2524    2.6519 C   0  0  0  0  0  0  0  0  0  0  0  0
   22.2238    9.4131    3.0351 C   0  0  0  0  0  0  0  0  0  0  0  0
   22.0931    8.5056    4.1053 C   0  0  0  0  0  0  0  0  0  0  0  0
   20.9123    8.4207    4.8180 C   0  0  0  0  0  0  0  0  0  0  0  0
   19.8664    9.2718    4.4525 C   0  0  0  0  0  0  0  0  0  0  0  0
   18.6633    9.1736    5.1382 C   0  0  0  0  0  0  0  0  0  0  0  0
   17.6004   10.0133    4.7829 C   0  0  0  0  0  0  0  0  0  0  0  0
 28 29  2  0  0  0
 28 27  1  0  0  0
 29 30  1  0  0  0
 27 26  2  0  0  0
 30 31  2  0  0  0
 26 31  1  0  0  0
 26 25  1  0  0  0
 31 32  1  0  0  0
 25 24  2  0  0  0
 32 33  2  0  0  0
 24 33  1  0  0  0
 24 21  1  0  0  0
 22 21  2  0  0  0
 21 23  2  0  0  0
 21  3  1  0  0  0
  3  1  1  0  0  0
  2  1  2  0  0  0
  1 13  1  0  0  0
 13 12  2  0  0  0
 13  5  1  0  0  0
 12 11  1  0  0  0
 17 18  2  0  0  0
 19 18  1  0  0  0
 18 16  1  0  0  0
  5 16  1  0  0  0
  5  6  1  0  0  0
 11 10  2  0  0  0
 11  6  1  0  0  0
 10  9  1  0  0  0
  6  7  2  0  0  0
  9 14  1  0  0  0
  9  8  2  0  0  0
 15 14  1  0  0  0
  7  8  1  0  0  0
 19 20  1  0  0  0
  3  4  1  0  0  0
M  END
> <minimizedAffinity>
-10.14296

$$$$
4MUL_2DW_A_404


 33 36  0  0  0  0  0  0  0  0999 V2000
   16.7382   10.5946    1.4792 C   0  0  0  0  0  0  0  0  0  0  0  0
   17.1917   11.6621    1.9190 O   0  0  0  0  0  0  0  0  0  0  0  0
   16.8178    9.4985    2.2216 N   0  0  0  0  0  0  0  0  0  0  0  0
   16.3851    8.6834    1.8786 H   0  0  0  0  0  0  0  0  0  0  0  0
   14.6623   10.4533    0.2679 N   0  0  0  0  0  0  0  0  0  0  0  0
   14.2156   10.3398   -0.9969 C   0  0  0  0  0  0  0  0  0  0  0  0
   12.9316   10.2545   -1.4854 C   0  0  0  0  0  0  0  0  0  0  0  0
   12.7153   10.1555   -2.8665 C   0  0  0  0  0  0  0  0  0  0  0  0
   13.8078   10.1282   -3.7333 C   0  0  0  0  0  0  0  0  0  0  0  0
   15.1173   10.1846   -3.1650 C   0  0  0  0  0  0  0  0  0  0  0  0
   15.2989   10.2993   -1.8090 C   0  0  0  0  0  0  0  0  0  0  0  0
   16.4157   10.4022   -0.9951 C   0  0  0  0  0  0  0  0  0  0  0  0
   16.0082   10.4928    0.3059 C   0  0  0  0  0  0  0  0  0  0  0  0
   13.4529   10.0693   -5.0611 O   0  0  0  0  0  0  0  0  0  0  0  0
   12.0268    9.8606   -5.3305 C   0  0  0  0  0  0  0  0  0  0  0  0
   13.6918   10.6093    1.3902 C   0  0  0  0  0  0  0  0  0  0  0  0
   13.8499    8.4223    2.1150 O   0  0  0  0  0  0  0  0  0  0  0  0
   13.1759    9.4978    2.2131 C   0  0  0  0  0  0  0  0  0  0  0  0
   12.1930    9.7079    2.9254 O   0  0  0  0  0  0  0  0  0  0  0  0
   11.7763   10.5470    2.9130 H   0  0  0  0  0  0  0  0  0  0  0  0
   17.5949    9.3985    3.6907 S   0  0  0  0  0  0  0  0  0  0  0  0
   18.5416   10.5427    3.7788 O   0  0  0  0  0  0  0  0  0  0  0  0
   18.5633    8.2481    3.9003 O   0  0  0  0  0  0  0  0  0  0  0  0
   16.5501    9.4905    4.8506 C   0  0  0  0  0  0  0  0  0  0  0  0
   16.6402    8.6150    5.9303 C   0  0  0  0  0  0  0  0  0  0  0  0
   15.7181    8.7778    6.9768 C   0  0  0  0  0  0  0  0  0  0  0  0
   15.7742    7.9079    8.0796 C   0  0  0  0  0  0  0  0  0  0  0  0
   14.8482    8.0962    9.0862 C   0  0  0  0  0  0  0  0  0  0  0  0
   13.8705    9.1094    9.0279 C   0  0  0  0  0  0  0  0  0  0  0  0
   13.8015    9.9615    7.9422 C   0  0  0  0  0  0  0  0  0  0  0  0
   14.7390    9.7939    6.9200 C   0  0  0  0  0  0  0  0  0  0  0  0
   14.6601   10.6212    5.8081 C   0  0  0  0  0  0  0  0  0  0  0  0
   15.5866   10.4652    4.7695 C   0  0  0  0  0  0  0  0  0  0  0  0
 28 29  2  0  0  0
 28 27  1  0  0  0
 29 30  1  0  0  0
 27 26  2  0  0  0
 30 31  2  0  0  0
 26 31  1  0  0  0
 26 25  1  0  0  0
 31 32  1  0  0  0
 25 24  2  0  0  0
 32 33  2  0  0  0
 24 33  1  0  0  0
 24 21  1  0  0  0
 22 21  2  0  0  0
 21 23  2  0  0  0
 21  3  1  0  0  0
  3  1  1  0  0  0
  2  1  2  0  0  0
  1 13  1  0  0  0
 13 12  2  0  0  0
 13  5  1  0  0  0
 12 11  1  0  0  0
 17 18  2  0  0  0
 19 18  1  0  0  0
 18 16  1  0  0  0
  5 16  1  0  0  0
  5  6  1  0  0  0
 11 10  2  0  0  0
 11  6  1  0  0  0
 10  9  1  0  0  0
  6  7  2  0  0  0
  9 14  1  0  0  0
  9  8  2  0  0  0
 15 14  1  0  0  0
  7  8  1  0  0  0
 19 20  1  0  0  0
  3  4  1  0  0  0
M  END
> <minimizedAffinity>
-10.12736

$$$$
4MUL_2DW_A_404


 33 36  0  0  0  0  0  0  0  0999 V2000
   16.2762   10.5927    1.2903 C   0  0  0  0  0  0  0  0  0  0  0  0
   16.5595   11.6838    1.8077 O   0  0  0  0  0  0  0  0  0  0  0  0
   16.3545    9.4870    2.0185 N   0  0  0  0  0  0  0  0  0  0  0  0
   16.0541    8.6461    1.6039 H   0  0  0  0  0  0  0  0  0  0  0  0
   16.4706   10.2954   -1.0910 N   0  0  0  0  0  0  0  0  0  0  0  0
   15.6888   10.2051   -2.1831 C   0  0  0  0  0  0  0  0  0  0  0  0
   16.0228   10.0472   -3.5090 C   0  0  0  0  0  0  0  0  0  0  0  0
   15.0138    9.9642   -4.4780 C   0  0  0  0  0  0  0  0  0  0  0  0
   13.6776   10.0590   -4.0891 C   0  0  0  0  0  0  0  0  0  0  0  0
   13.3943   10.2576   -2.7030 C   0  0  0  0  0  0  0  0  0  0  0  0
   14.4026   10.3174   -1.7732 C   0  0  0  0  0  0  0  0  0  0  0  0
   14.4312   10.4683   -0.3960 C   0  0  0  0  0  0  0  0  0  0  0  0
   15.7316   10.4590    0.0232 C   0  0  0  0  0  0  0  0  0  0  0  0
   12.7918    9.9218   -5.1326 O   0  0  0  0  0  0  0  0  0  0  0  0
   11.4249    9.5423   -4.7622 C   0  0  0  0  0  0  0  0  0  0  0  0
   17.9470   10.1195   -1.2144 C   0  0  0  0  0  0  0  0  0  0  0  0
   20.0735   10.4920   -0.3941 O   0  0  0  0  0  0  0  0  0  0  0  0
   18.9513   11.0386   -0.6439 C   0  0  0  0  0  0  0  0  0  0  0  0
   18.6404   12.2213   -0.4955 O   0  0  0  0  0  0  0  0  0  0  0  0
   17.7766   12.5099   -0.7157 H   0  0  0  0  0  0  0  0  0  0  0  0
   16.9231    9.4154    3.5817 S   0  0  0  0  0  0  0  0  0  0  0  0
   16.1534    8.3600    4.2935 O   0  0  0  0  0  0  0  0  0  0  0  0
   16.6388   10.5973    4.4913 O   0  0  0  0  0  0  0  0  0  0  0  0
   18.4424    9.0446    3.5768 C   0  0  0  0  0  0  0  0  0  0  0  0
   18.8456    7.7847    4.0131 C   0  0  0  0  0  0  0  0  0  0  0  0
   20.2131    7.4761    3.9304 C   0  0  0  0  0  0  0  0  0  0  0  0
   20.6578    6.2165    4.3683 C   0  0  0  0  0  0  0  0  0  0  0  0
   22.0096    5.9517    4.2758 C   0  0  0  0  0  0  0  0  0  0  0  0
   22.9275    6.8953    3.7729 C   0  0  0  0  0  0  0  0  0  0  0  0
   22.5001    8.1397    3.3508 C   0  0  0  0  0  0  0  0  0  0  0  0
   21.1334    8.4205    3.4250 C   0  0  0  0  0  0  0  0  0  0  0  0
   20.6946    9.6787    3.0359 C   0  0  0  0  0  0  0  0  0  0  0  0
   19.3294    9.9822    3.1087 C   0  0  0  0  0  0  0  0  0  0  0  0
 28 29  2  0  0  0
 28 27  1  0  0  0
 29 30  1  0  0  0
 27 26  2  0  0  0
 30 31  2  0  0  0
 26 31  1  0  0  0
 26 25  1  0  0  0
 31 32  1  0  0  0
 25 24  2  0  0  0
 32 33  2  0  0  0
 24 33  1  0  0  0
 24 21  1  0  0  0
 22 21  2  0  0  0
 21 23  2  0  0  0
 21  3  1  0  0  0
  3  1  1  0  0  0
  2  1  2  0  0  0
  1 13  1  0  0  0
 13 12  2  0  0  0
 13  5  1  0  0  0
 12 11  1  0  0  0
 17 18  2  0  0  0
 19 18  1  0  0  0
 18 16  1  0  0  0
  5 16  1  0  0  0
  5  6  1  0  0  0
 11 10  2  0  0  0
 11  6  1  0  0  0
 10  9  1  0  0  0
  6  7  2  0  0  0
  9 14  1  0  0  0
  9  8  2  0  0  0
 15 14  1  0  0  0
  7  8  1  0  0  0
 19 20  1  0  0  0
  3  4  1  0  0  0
M  END
> <minimizedAffinity>
-10.07002

$$$$
4MUL_2DW_A_404


 33 36  0  0  0  0  0  0  0  0999 V2000
   17.3825   11.2721    2.8282 C   0  0  0  0  0  0  0  0  0  0  0  0
   18.1777   12.2241    2.8199 O   0  0  0  0  0  0  0  0  0  0  0  0
   17.1945   10.5713    1.7182 N   0  0  0  0  0  0  0  0  0  0  0  0
   16.6143    9.7778    1.7730 H   0  0  0  0  0  0  0  0  0  0  0  0
   17.3409    9.8749    4.7886 N   0  0  0  0  0  0  0  0  0  0  0  0
   16.5283    9.5719    5.8181 C   0  0  0  0  0  0  0  0  0  0  0  0
   16.7023    8.6937    6.8636 C   0  0  0  0  0  0  0  0  0  0  0  0
   15.7026    8.5597    7.8365 C   0  0  0  0  0  0  0  0  0  0  0  0
   14.5309    9.3086    7.7260 C   0  0  0  0  0  0  0  0  0  0  0  0
   14.3929   10.1770    6.6001 C   0  0  0  0  0  0  0  0  0  0  0  0
   15.3965   10.3014    5.6716 C   0  0  0  0  0  0  0  0  0  0  0  0
   15.5550   11.0637    4.5252 C   0  0  0  0  0  0  0  0  0  0  0  0
   16.7743   10.7863    3.9745 C   0  0  0  0  0  0  0  0  0  0  0  0
   13.6535    9.1105    8.7668 O   0  0  0  0  0  0  0  0  0  0  0  0
   13.5006   10.2361    9.6939 C   0  0  0  0  0  0  0  0  0  0  0  0
   18.7109    9.2877    4.7221 C   0  0  0  0  0  0  0  0  0  0  0  0
   19.0937    7.0692    4.2071 O   0  0  0  0  0  0  0  0  0  0  0  0
   19.1354    8.2579    3.7536 C   0  0  0  0  0  0  0  0  0  0  0  0
   19.4497    8.6201    2.6188 O   0  0  0  0  0  0  0  0  0  0  0  0
   19.4431    9.5310    2.3991 H   0  0  0  0  0  0  0  0  0  0  0  0
   17.8668   10.9336    0.2386 S   0  0  0  0  0  0  0  0  0  0  0  0
   19.1169   10.1384    0.1046 O   0  0  0  0  0  0  0  0  0  0  0  0
   18.4291   12.3301    0.0416 O   0  0  0  0  0  0  0  0  0  0  0  0
   16.8725   10.5463   -0.9046 C   0  0  0  0  0  0  0  0  0  0  0  0
   15.5103   10.7898   -0.7449 C   0  0  0  0  0  0  0  0  0  0  0  0
   14.6652   10.4833   -1.8238 C   0  0  0  0  0  0  0  0  0  0  0  0
   13.2836   10.7090   -1.6962 C   0  0  0  0  0  0  0  0  0  0  0  0
   12.4847   10.3908   -2.7762 C   0  0  0  0  0  0  0  0  0  0  0  0
   13.0108    9.8521   -3.9674 C   0  0  0  0  0  0  0  0  0  0  0  0
   14.3663    9.6168   -4.0968 C   0  0  0  0  0  0  0  0  0  0  0  0
   15.1919    9.9449   -3.0184 C   0  0  0  0  0  0  0  0  0  0  0  0
   16.5511    9.6826   -3.1222 C   0  0  0  0  0  0  0  0  0  0  0  0
   17.3948    9.9982   -2.0499 C   0  0  0  0  0  0  0  0  0  0  0  0
 28 29  2  0  0  0
 28 27  1  0  0  0
 29 30  1  0  0  0
 27 26  2  0  0  0
 30 31  2  0  0  0
 26 31  1  0  0  0
 26 25  1  0  0  0
 31 32  1  0  0  0
 25 24  2  0  0  0
 32 33  2  0  0  0
 24 33  1  0  0  0
 24 21  1  0  0  0
 22 21  2  0  0  0
 21 23  2  0  0  0
 21  3  1  0  0  0
  3  1  1  0  0  0
  2  1  2  0  0  0
  1 13  1  0  0  0
 13 12  2  0  0  0
 13  5  1  0  0  0
 12 11  1  0  0  0
 17 18  2  0  0  0
 19 18  1  0  0  0
 18 16  1  0  0  0
  5 16  1  0  0  0
  5  6  1  0  0  0
 11 10  2  0  0  0
 11  6  1  0  0  0
 10  9  1  0  0  0
  6  7  2  0  0  0
  9 14  1  0  0  0
  9  8  2  0  0  0
 15 14  1  0  0  0
  7  8  1  0  0  0
 19 20  1  0  0  0
  3  4  1  0  0  0
M  END
> <minimizedAffinity>
-10.01206

$$$$
4MUL_2DW_A_404


 33 36  0  0  0  0  0  0  0  0999 V2000
   18.9733   10.9996    0.3325 C   0  0  0  0  0  0  0  0  0  0  0  0
   19.4939   12.1200    0.4434 O   0  0  0  0  0  0  0  0  0  0  0  0
   19.3549   10.0215    1.1427 N   0  0  0  0  0  0  0  0  0  0  0  0
   18.8737    9.1648    1.0809 H   0  0  0  0  0  0  0  0  0  0  0  0
   16.6132   10.7713   -0.0854 N   0  0  0  0  0  0  0  0  0  0  0  0
   15.7725   10.4541   -1.0877 C   0  0  0  0  0  0  0  0  0  0  0  0
   14.3992   10.3634   -1.1055 C   0  0  0  0  0  0  0  0  0  0  0  0
   13.7373   10.0235   -2.2931 C   0  0  0  0  0  0  0  0  0  0  0  0
   14.4807    9.7642   -3.4445 C   0  0  0  0  0  0  0  0  0  0  0  0
   15.9045    9.8398   -3.3556 C   0  0  0  0  0  0  0  0  0  0  0  0
   16.5254   10.1925   -2.1829 C   0  0  0  0  0  0  0  0  0  0  0  0
   17.8488   10.3720   -1.8133 C   0  0  0  0  0  0  0  0  0  0  0  0
   17.8956   10.7293   -0.4954 C   0  0  0  0  0  0  0  0  0  0  0  0
   13.7057    9.4827   -4.5457 O   0  0  0  0  0  0  0  0  0  0  0  0
   12.2667    9.7152   -4.3880 C   0  0  0  0  0  0  0  0  0  0  0  0
   16.0695   11.1964    1.2374 C   0  0  0  0  0  0  0  0  0  0  0  0
   14.8777    9.7474    2.5840 O   0  0  0  0  0  0  0  0  0  0  0  0
   15.9983   10.3317    2.4315 C   0  0  0  0  0  0  0  0  0  0  0  0
   17.0044   10.2257    3.1346 O   0  0  0  0  0  0  0  0  0  0  0  0
   17.7779   10.7098    2.9216 H   0  0  0  0  0  0  0  0  0  0  0  0
   20.5872   10.1346    2.2567 S   0  0  0  0  0  0  0  0  0  0  0  0
   20.0389   10.7988    3.4696 O   0  0  0  0  0  0  0  0  0  0  0  0
   21.7359   11.0774    1.9455 O   0  0  0  0  0  0  0  0  0  0  0  0
   21.0999    8.7044    2.6271 C   0  0  0  0  0  0  0  0  0  0  0  0
   20.3090    7.8714    3.4150 C   0  0  0  0  0  0  0  0  0  0  0  0
   20.7838    6.5743    3.6680 C   0  0  0  0  0  0  0  0  0  0  0  0
   20.0157    5.7079    4.4652 C   0  0  0  0  0  0  0  0  0  0  0  0
   20.5177    4.4427    4.6956 C   0  0  0  0  0  0  0  0  0  0  0  0
   21.7536    4.0172    4.1689 C   0  0  0  0  0  0  0  0  0  0  0  0
   22.5199    4.8663    3.3935 C   0  0  0  0  0  0  0  0  0  0  0  0
   22.0215    6.1465    3.1392 C   0  0  0  0  0  0  0  0  0  0  0  0
   22.7963    7.0212    2.3899 C   0  0  0  0  0  0  0  0  0  0  0  0
   22.3175    8.3111    2.1291 C   0  0  0  0  0  0  0  0  0  0  0  0
 28 29  2  0  0  0
 28 27  1  0  0  0
 29 30  1  0  0  0
 27 26  2  0  0  0
 30 31  2  0  0  0
 26 31  1  0  0  0
 26 25  1  0  0  0
 31 32  1  0  0  0
 25 24  2  0  0  0
 32 33  2  0  0  0
 24 33  1  0  0  0
 24 21  1  0  0  0
 22 21  2  0  0  0
 21 23  2  0  0  0
 21  3  1  0  0  0
  3  1  1  0  0  0
  2  1  2  0  0  0
  1 13  1  0  0  0
 13 12  2  0  0  0
 13  5  1  0  0  0
 12 11  1  0  0  0
 17 18  2  0  0  0
 19 18  1  0  0  0
 18 16  1  0  0  0
  5 16  1  0  0  0
  5  6  1  0  0  0
 11 10  2  0  0  0
 11  6  1  0  0  0
 10  9  1  0  0  0
  6  7  2  0  0  0
  9 14  1  0  0  0
  9  8  2  0  0  0
 15 14  1  0  0  0
  7  8  1  0  0  0
 19 20  1  0  0  0
  3  4  1  0  0  0
M  END
> <minimizedAffinity>
-9.90738

$$$$
4MUL_2DW_A_404


 33 36  0  0  0  0  0  0  0  0999 V2000
   17.0853   10.7445    2.1958 C   0  0  0  0  0  0  0  0  0  0  0  0
   17.0720   11.7493    2.9230 O   0  0  0  0  0  0  0  0  0  0  0  0
   17.7764    9.6773    2.5728 N   0  0  0  0  0  0  0  0  0  0  0  0
   17.7097    8.8701    2.0130 H   0  0  0  0  0  0  0  0  0  0  0  0
   16.7939   10.4378   -0.1744 N   0  0  0  0  0  0  0  0  0  0  0  0
   15.8071   10.3356   -1.0843 C   0  0  0  0  0  0  0  0  0  0  0  0
   15.8658   10.1745   -2.4500 C   0  0  0  0  0  0  0  0  0  0  0  0
   14.6816   10.0782   -3.1931 C   0  0  0  0  0  0  0  0  0  0  0  0
   13.4516   10.1631   -2.5407 C   0  0  0  0  0  0  0  0  0  0  0  0
   13.4544   10.3657   -1.1265 C   0  0  0  0  0  0  0  0  0  0  0  0
   14.6303   10.4386   -0.4216 C   0  0  0  0  0  0  0  0  0  0  0  0
   14.9370   10.5962    0.9206 C   0  0  0  0  0  0  0  0  0  0  0  0
   16.2956   10.6002    1.0664 C   0  0  0  0  0  0  0  0  0  0  0  0
   12.3734   10.0134   -3.3817 O   0  0  0  0  0  0  0  0  0  0  0  0
   12.6942    9.7662   -4.7908 C   0  0  0  0  0  0  0  0  0  0  0  0
   18.2159   10.2742   -0.5952 C   0  0  0  0  0  0  0  0  0  0  0  0
   18.9283   12.4400   -0.2272 O   0  0  0  0  0  0  0  0  0  0  0  0
   19.2997   11.2233   -0.2737 C   0  0  0  0  0  0  0  0  0  0  0  0
   20.4237   10.7703   -0.0518 O   0  0  0  0  0  0  0  0  0  0  0  0
   20.5787    9.8485   -0.1177 H   0  0  0  0  0  0  0  0  0  0  0  0
   18.7485    9.6009    3.9224 S   0  0  0  0  0  0  0  0  0  0  0  0
   17.8680    9.3755    5.1000 O   0  0  0  0  0  0  0  0  0  0  0  0
   19.4452   10.8757    4.3636 O   0  0  0  0  0  0  0  0  0  0  0  0
   19.7554    8.4124    3.7839 C   0  0  0  0  0  0  0  0  0  0  0  0
   19.4070    7.1540    4.2690 C   0  0  0  0  0  0  0  0  0  0  0  0
   20.3176    6.1046    4.0649 C   0  0  0  0  0  0  0  0  0  0  0  0
   20.0029    4.8222    4.5471 C   0  0  0  0  0  0  0  0  0  0  0  0
   20.9251    3.8176    4.3317 C   0  0  0  0  0  0  0  0  0  0  0  0
   22.1446    4.0475    3.6639 C   0  0  0  0  0  0  0  0  0  0  0  0
   22.4664    5.3075    3.1967 C   0  0  0  0  0  0  0  0  0  0  0  0
   21.5392    6.3338    3.3944 C   0  0  0  0  0  0  0  0  0  0  0  0
   21.8642    7.6115    2.9600 C   0  0  0  0  0  0  0  0  0  0  0  0
   20.9511    8.6554    3.1544 C   0  0  0  0  0  0  0  0  0  0  0  0
 28 29  2  0  0  0
 28 27  1  0  0  0
 29 30  1  0  0  0
 27 26  2  0  0  0
 30 31  2  0  0  0
 26 31  1  0  0  0
 26 25  1  0  0  0
 31 32  1  0  0  0
 25 24  2  0  0  0
 32 33  2  0  0  0
 24 33  1  0  0  0
 24 21  1  0  0  0
 22 21  2  0  0  0
 21 23  2  0  0  0
 21  3  1  0  0  0
  3  1  1  0  0  0
  2  1  2  0  0  0
  1 13  1  0  0  0
 13 12  2  0  0  0
 13  5  1  0  0  0
 12 11  1  0  0  0
 17 18  2  0  0  0
 19 18  1  0  0  0
 18 16  1  0  0  0
  5 16  1  0  0  0
  5  6  1  0  0  0
 11 10  2  0  0  0
 11  6  1  0  0  0
 10  9  1  0  0  0
  6  7  2  0  0  0
  9 14  1  0  0  0
  9  8  2  0  0  0
 15 14  1  0  0  0
  7  8  1  0  0  0
 19 20  1  0  0  0
  3  4  1  0  0  0
M  END
> <minimizedAffinity>
-9.69703

$$$$
4MUL_2DW_A_404


 33 36  0  0  0  0  0  0  0  0999 V2000
   17.9338   10.8941    2.7083 C   0  0  0  0  0  0  0  0  0  0  0  0
   18.9788   11.5621    2.6909 O   0  0  0  0  0  0  0  0  0  0  0  0
   17.4195   10.4601    1.5654 N   0  0  0  0  0  0  0  0  0  0  0  0
   16.6317    9.8718    1.6146 H   0  0  0  0  0  0  0  0  0  0  0  0
   16.0855   10.7763    4.2467 N   0  0  0  0  0  0  0  0  0  0  0  0
   15.7575   10.1987    5.4175 C   0  0  0  0  0  0  0  0  0  0  0  0
   14.6029   10.2839    6.1620 C   0  0  0  0  0  0  0  0  0  0  0  0
   14.4908    9.5669    7.3608 C   0  0  0  0  0  0  0  0  0  0  0  0
   15.5602    8.7845    7.7966 C   0  0  0  0  0  0  0  0  0  0  0  0
   16.7454    8.7634    6.9992 C   0  0  0  0  0  0  0  0  0  0  0  0
   16.8206    9.4620    5.8198 C   0  0  0  0  0  0  0  0  0  0  0  0
   17.7990    9.6045    4.8488 C   0  0  0  0  0  0  0  0  0  0  0  0
   17.3324   10.4344    3.8688 C   0  0  0  0  0  0  0  0  0  0  0  0
   15.3021    8.1045    8.9643 O   0  0  0  0  0  0  0  0  0  0  0  0
   14.1748    8.6052    9.7569 C   0  0  0  0  0  0  0  0  0  0  0  0
   15.0755   11.5881    3.5070 C   0  0  0  0  0  0  0  0  0  0  0  0
   14.2050    9.9461    2.1360 O   0  0  0  0  0  0  0  0  0  0  0  0
   13.9370   11.0262    2.7540 C   0  0  0  0  0  0  0  0  0  0  0  0
   12.8542   11.6107    2.8136 O   0  0  0  0  0  0  0  0  0  0  0  0
   12.7772   12.4056    3.3037 H   0  0  0  0  0  0  0  0  0  0  0  0
   18.0072   10.8364    0.0537 S   0  0  0  0  0  0  0  0  0  0  0  0
   19.2333   10.0237   -0.1684 O   0  0  0  0  0  0  0  0  0  0  0  0
   18.5802   12.2268   -0.1551 O   0  0  0  0  0  0  0  0  0  0  0  0
   16.9393   10.4842   -1.0330 C   0  0  0  0  0  0  0  0  0  0  0  0
   15.5940   10.7509   -0.7890 C   0  0  0  0  0  0  0  0  0  0  0  0
   14.6804   10.4758   -1.8194 C   0  0  0  0  0  0  0  0  0  0  0  0
   13.3135   10.7255   -1.6065 C   0  0  0  0  0  0  0  0  0  0  0  0
   12.4456   10.4378   -2.6409 C   0  0  0  0  0  0  0  0  0  0  0  0
   12.8893    9.9064   -3.8683 C   0  0  0  0  0  0  0  0  0  0  0  0
   14.2299    9.6476   -4.0816 C   0  0  0  0  0  0  0  0  0  0  0  0
   15.1244    9.9447   -3.0503 C   0  0  0  0  0  0  0  0  0  0  0  0
   16.4696    9.6584   -3.2386 C   0  0  0  0  0  0  0  0  0  0  0  0
   17.3816    9.9428   -2.2146 C   0  0  0  0  0  0  0  0  0  0  0  0
 28 29  2  0  0  0
 28 27  1  0  0  0
 29 30  1  0  0  0
 27 26  2  0  0  0
 30 31  2  0  0  0
 26 31  1  0  0  0
 26 25  1  0  0  0
 31 32  1  0  0  0
 25 24  2  0  0  0
 32 33  2  0  0  0
 24 33  1  0  0  0
 24 21  1  0  0  0
 22 21  2  0  0  0
 21 23  2  0  0  0
 21  3  1  0  0  0
  3  1  1  0  0  0
  2  1  2  0  0  0
  1 13  1  0  0  0
 13 12  2  0  0  0
 13  5  1  0  0  0
 12 11  1  0  0  0
 17 18  2  0  0  0
 19 18  1  0  0  0
 18 16  1  0  0  0
  5 16  1  0  0  0
  5  6  1  0  0  0
 11 10  2  0  0  0
 11  6  1  0  0  0
 10  9  1  0  0  0
  6  7  2  0  0  0
  9 14  1  0  0  0
  9  8  2  0  0  0
 15 14  1  0  0  0
  7  8  1  0  0  0
 19 20  1  0  0  0
  3  4  1  0  0  0
M  END
> <minimizedAffinity>
-9.60978

$$$$
4MUL_2DW_A_404


 33 36  0  0  0  0  0  0  0  0999 V2000
   16.2232    8.8236    3.1438 C   0  0  0  0  0  0  0  0  0  0  0  0
   15.2161    8.7982    3.8676 O   0  0  0  0  0  0  0  0  0  0  0  0
   16.0854    9.0509    1.8445 N   0  0  0  0  0  0  0  0  0  0  0  0
   16.9061    9.1381    1.3077 H   0  0  0  0  0  0  0  0  0  0  0  0
   18.3254    9.8541    3.7055 N   0  0  0  0  0  0  0  0  0  0  0  0
   19.5333    9.5232    4.1990 C   0  0  0  0  0  0  0  0  0  0  0  0
   20.6452   10.3002    4.4323 C   0  0  0  0  0  0  0  0  0  0  0  0
   21.8006    9.7208    4.9738 C   0  0  0  0  0  0  0  0  0  0  0  0
   21.8170    8.3550    5.2567 C   0  0  0  0  0  0  0  0  0  0  0  0
   20.6450    7.5939    4.9603 C   0  0  0  0  0  0  0  0  0  0  0  0
   19.5209    8.1915    4.4464 C   0  0  0  0  0  0  0  0  0  0  0  0
   18.2624    7.7291    4.0960 C   0  0  0  0  0  0  0  0  0  0  0  0
   17.5208    8.7766    3.6273 C   0  0  0  0  0  0  0  0  0  0  0  0
   22.9963    7.9260    5.8203 O   0  0  0  0  0  0  0  0  0  0  0  0
   23.3478    8.5381    7.1054 C   0  0  0  0  0  0  0  0  0  0  0  0
   18.0042   11.2819    3.4152 C   0  0  0  0  0  0  0  0  0  0  0  0
   17.1111   11.8754    1.3698 O   0  0  0  0  0  0  0  0  0  0  0  0
   18.1565   11.9236    2.0946 C   0  0  0  0  0  0  0  0  0  0  0  0
   19.2323   12.4619    1.8293 O   0  0  0  0  0  0  0  0  0  0  0  0
   19.9362   12.4316    2.4470 H   0  0  0  0  0  0  0  0  0  0  0  0
   14.6278    9.1999    1.0537 S   0  0  0  0  0  0  0  0  0  0  0  0
   13.9336   10.3927    1.6088 O   0  0  0  0  0  0  0  0  0  0  0  0
   13.5705    8.1425    1.3169 O   0  0  0  0  0  0  0  0  0  0  0  0
   14.8735    9.4002   -0.4776 C   0  0  0  0  0  0  0  0  0  0  0  0
   13.7876    9.5710   -1.3332 C   0  0  0  0  0  0  0  0  0  0  0  0
   14.0612    9.8105   -2.6896 C   0  0  0  0  0  0  0  0  0  0  0  0
   12.9901    9.9807   -3.5839 C   0  0  0  0  0  0  0  0  0  0  0  0
   13.2988   10.2094   -4.9100 C   0  0  0  0  0  0  0  0  0  0  0  0
   14.6286   10.2661   -5.3731 C   0  0  0  0  0  0  0  0  0  0  0  0
   15.6869   10.0889   -4.5024 C   0  0  0  0  0  0  0  0  0  0  0  0
   15.3936    9.8692   -3.1542 C   0  0  0  0  0  0  0  0  0  0  0  0
   16.4461    9.6560   -2.2746 C   0  0  0  0  0  0  0  0  0  0  0  0
   16.1729    9.4277   -0.9201 C   0  0  0  0  0  0  0  0  0  0  0  0
 28 29  2  0  0  0
 28 27  1  0  0  0
 29 30  1  0  0  0
 27 26  2  0  0  0
 30 31  2  0  0  0
 26 31  1  0  0  0
 26 25  1  0  0  0
 31 32  1  0  0  0
 25 24  2  0  0  0
 32 33  2  0  0  0
 24 33  1  0  0  0
 24 21  1  0  0  0
 22 21  2  0  0  0
 21 23  2  0  0  0
 21  3  1  0  0  0
  3  1  1  0  0  0
  2  1  2  0  0  0
  1 13  1  0  0  0
 13 12  2  0  0  0
 13  5  1  0  0  0
 12 11  1  0  0  0
 17 18  2  0  0  0
 19 18  1  0  0  0
 18 16  1  0  0  0
  5 16  1  0  0  0
  5  6  1  0  0  0
 11 10  2  0  0  0
 11  6  1  0  0  0
 10  9  1  0  0  0
  6  7  2  0  0  0
  9 14  1  0  0  0
  9  8  2  0  0  0
 15 14  1  0  0  0
  7  8  1  0  0  0
 19 20  1  0  0  0
  3  4  1  0  0  0
M  END
> <minimizedAffinity>
-9.59551

$$$$
4MUL_2DW_A_404


 33 36  0  0  0  0  0  0  0  0999 V2000
   16.6049   10.6689    1.7595 C   0  0  0  0  0  0  0  0  0  0  0  0
   16.3003   11.4717    2.6546 O   0  0  0  0  0  0  0  0  0  0  0  0
   17.5375    9.7556    1.9940 N   0  0  0  0  0  0  0  0  0  0  0  0
   17.7068    9.0865    1.2920 H   0  0  0  0  0  0  0  0  0  0  0  0
   14.5825   10.4893    0.4655 N   0  0  0  0  0  0  0  0  0  0  0  0
   14.1889   10.3769   -0.8169 C   0  0  0  0  0  0  0  0  0  0  0  0
   12.9277   10.2655   -1.3567 C   0  0  0  0  0  0  0  0  0  0  0  0
   12.7686   10.1741   -2.7460 C   0  0  0  0  0  0  0  0  0  0  0  0
   13.8948   10.1807   -3.5690 C   0  0  0  0  0  0  0  0  0  0  0  0
   15.1791   10.2631   -2.9487 C   0  0  0  0  0  0  0  0  0  0  0  0
   15.3042   10.3696   -1.5856 C   0  0  0  0  0  0  0  0  0  0  0  0
   16.3851   10.4917   -0.7272 C   0  0  0  0  0  0  0  0  0  0  0  0
   15.9245   10.5605    0.5573 C   0  0  0  0  0  0  0  0  0  0  0  0
   13.5941   10.1256   -4.9102 O   0  0  0  0  0  0  0  0  0  0  0  0
   12.2040    9.7947   -5.2382 C   0  0  0  0  0  0  0  0  0  0  0  0
   13.5649   10.6119    1.5497 C   0  0  0  0  0  0  0  0  0  0  0  0
   12.7159    8.4678    1.6754 O   0  0  0  0  0  0  0  0  0  0  0  0
   13.0622    9.4844    2.3589 C   0  0  0  0  0  0  0  0  0  0  0  0
   13.0532    9.6059    3.5848 O   0  0  0  0  0  0  0  0  0  0  0  0
   13.3333   10.4089    3.9781 H   0  0  0  0  0  0  0  0  0  0  0  0
   18.4435    9.6566    3.3875 S   0  0  0  0  0  0  0  0  0  0  0  0
   17.6127    8.9780    4.4181 O   0  0  0  0  0  0  0  0  0  0  0  0
   18.7553   10.9493    4.1202 O   0  0  0  0  0  0  0  0  0  0  0  0
   19.7370    8.8193    3.1205 C   0  0  0  0  0  0  0  0  0  0  0  0
   20.0487    7.7479    3.9543 C   0  0  0  0  0  0  0  0  0  0  0  0
   21.1858    6.9876    3.6368 C   0  0  0  0  0  0  0  0  0  0  0  0
   21.5354    5.9030    4.4600 C   0  0  0  0  0  0  0  0  0  0  0  0
   22.6624    5.1825    4.1184 C   0  0  0  0  0  0  0  0  0  0  0  0
   23.4515    5.5084    2.9972 C   0  0  0  0  0  0  0  0  0  0  0  0
   23.1211    6.5797    2.1894 C   0  0  0  0  0  0  0  0  0  0  0  0
   21.9763    7.3125    2.5124 C   0  0  0  0  0  0  0  0  0  0  0  0
   21.6515    8.4115    1.7291 C   0  0  0  0  0  0  0  0  0  0  0  0
   20.5114    9.1630    2.0401 C   0  0  0  0  0  0  0  0  0  0  0  0
 28 29  2  0  0  0
 28 27  1  0  0  0
 29 30  1  0  0  0
 27 26  2  0  0  0
 30 31  2  0  0  0
 26 31  1  0  0  0
 26 25  1  0  0  0
 31 32  1  0  0  0
 25 24  2  0  0  0
 32 33  2  0  0  0
 24 33  1  0  0  0
 24 21  1  0  0  0
 22 21  2  0  0  0
 21 23  2  0  0  0
 21  3  1  0  0  0
  3  1  1  0  0  0
  2  1  2  0  0  0
  1 13  1  0  0  0
 13 12  2  0  0  0
 13  5  1  0  0  0
 12 11  1  0  0  0
 17 18  2  0  0  0
 19 18  1  0  0  0
 18 16  1  0  0  0
  5 16  1  0  0  0
  5  6  1  0  0  0
 11 10  2  0  0  0
 11  6  1  0  0  0
 10  9  1  0  0  0
  6  7  2  0  0  0
  9 14  1  0  0  0
  9  8  2  0  0  0
 15 14  1  0  0  0
  7  8  1  0  0  0
 19 20  1  0  0  0
  3  4  1  0  0  0
M  END
> <minimizedAffinity>
-9.39498

$$$$
