1P57_CR4_B_346
  RCSB PDB12061703373D
Coordinates from PDB:1P57:B:346 Model:1 without hydrogens
 19 21  0  0  0  0            999 V2000
   16.3700   -6.1580   25.2670   C 0  0  0  0  0  0  0  0  0  0  0  0
   15.4100   -5.1810   24.8180   C 0  0  0  0  0  0  0  0  0  0  0  0
   15.0090   -4.0920   25.6180   C 0  0  0  0  0  0  0  0  0  0  0  0
   15.5910   -4.0250   26.8490   C 0  0  0  0  0  0  0  0  0  0  0  0
   16.4990   -4.9170   27.3080   C 0  0  0  0  0  0  0  0  0  0  0  0
   16.9190   -5.9940   26.5610   C 0  0  0  0  0  0  0  0  0  0  0  0
   16.7520   -7.2370   24.4510   C 0  0  0  0  0  0  0  0  0  0  0  0
   17.8350   -7.9110   24.6850   N 0  0  0  0  0  0  0  0  0  0  0  0
   16.0360   -7.5980   23.4340   N 0  3  0  0  0  0  0  0  0  0  0  0
   15.4260   -3.1650   27.7850   N 0  0  0  0  0  0  0  0  0  0  0  0
   16.9240   -4.6450   28.5280   N 0  0  0  0  0  0  0  0  0  0  0  0
   16.2160   -3.5530   28.7520   C 0  0  0  0  0  0  0  0  0  0  0  0
   16.2960   -2.8690   29.9730   C 0  0  0  0  0  0  0  0  0  0  0  0
   17.2840   -3.1240   30.9470   C 0  0  0  0  0  0  0  0  0  0  0  0
   17.2930   -2.4500   32.1550   C 0  0  0  0  0  0  0  0  0  0  0  0
   16.3110   -1.4950   32.4270   C 0  0  0  0  0  0  0  0  0  0  0  0
   15.3260   -1.2210   31.4800   C 0  0  0  0  0  0  0  0  0  0  0  0
   15.3250   -1.9020   30.2670   C 0  0  0  0  0  0  0  0  0  0  0  0
   14.3680   -1.6370   29.3000   O 0  5  0  0  0  0  0  0  0  0  0  0
  1  2  2  0  0  0  0
  1  6  1  0  0  0  0
  1  7  1  0  0  0  0
  2  3  1  0  0  0  0
  3  4  2  0  0  0  0
  4  5  1  0  0  0  0
  4 10  1  0  0  0  0
  5  6  2  0  0  0  0
  5 11  1  0  0  0  0
  7  8  1  0  0  0  0
  7  9  2  0  0  0  0
 10 12  1  0  0  0  0
 11 12  2  0  0  0  0
 12 13  1  0  0  0  0
 13 14  2  0  0  0  0
 13 18  1  0  0  0  0
 14 15  1  0  0  0  0
 15 16  2  0  0  0  0
 16 17  1  0  0  0  0
 17 18  2  0  0  0  0
 18 19  1  0  0  0  0
M  CHG  2   9   1  19  -1
A    1
C1
A    2
C2
A    3
C3
A    4
C4
A    5
C5
A    6
C6
A    7
C7
A    8
N1
A    9
N2
A   10
N3
A   11
N4
A   12
C8
A   13
C1'
A   14
C2'
A   15
C3'
A   16
C4'
A   17
C5'
A   18
C6'
A   19
O6'
M  END
>  <InstanceId>
1P57_CR4_B_346

>  <ChemCompId>
CR4

>  <PdbId>
1P57

>  <ChainId>
B

>  <ResidueNumber>
346

>  <InsertionCode>


>  <Model>
1

>  <AltIds>


>  <MissingHeavyAtoms>
0

>  <ObservedFormula>
C14 N4 O

>  <Name>
2-{5-[AMINO(IMINIO)METHYL]-1H-BENZIMIDAZOL-2-YL}BENZENOLATE

>  <SystematicName>
2-[5-(amino-azaniumylidene-methyl)-1H-benzimidazol-2-yl]phenolate

>  <Synonyms>
CRA_1144

>  <Type>
NON-POLYMER

>  <Formula>
C14 H12 N4 O

>  <MolecularWeight>
252.271

>  <ModifiedDate>
2011-06-04

>  <Parent>


>  <OneLetterCode>


>  <SubcomponentList>


>  <AmbiguousFlag>
N

>  <InChI>
InChI=1S/C14H12N4O/c15-13(16)8-5-6-10-11(7-8)18-14(17-10)9-3-1-2-4-12(9)19/h1-7,19H,(H3,15,16)(H,17,18)

>  <InChIKey>
URJKRCBBKTXOHS-UHFFFAOYSA-N

>  <SMILES>
c1ccc(c(c1)c2[nH]c3ccc(cc3n2)C(=[NH2+])N)[O-]

$$$$
