5MRP_6BC_A_401
  RCSB PDB12061719053D
Coordinates from PDB:5MRP:A:401 Model:1 without hydrogens
 20 22  0  0  0  0            999 V2000
    6.4600   23.6410  -17.3950  Cl 0  0  0  0  0  0  0  0  0  0  0  0
    5.4900   22.6170  -18.1720   C 0  0  0  0  0  0  0  0  0  0  0  0
    5.9460   21.3960  -18.4620   N 0  0  0  0  0  0  0  0  0  0  0  0
    5.2240   20.4900  -19.1050   C 0  0  0  0  0  0  0  0  0  0  0  0
    4.1970   22.9600  -18.5870   C 0  0  0  0  0  0  0  0  0  0  0  0
    3.4710   21.9570  -19.2330   C 0  0  0  0  0  0  0  0  0  0  0  0
    2.2500   22.2480  -19.6200   O 0  0  0  0  0  0  0  0  0  0  0  0
    4.0050   20.7810  -19.4870   N 0  0  0  0  0  0  0  0  0  0  0  0
    3.4960   19.7720  -20.0850   N 0  0  0  0  0  0  0  0  0  0  0  0
    4.3780   18.8090  -20.1050   C 0  0  0  0  0  0  0  0  0  0  0  0
    5.4520   19.2580  -19.4960   C 0  0  0  0  0  0  0  0  0  0  0  0
    6.6600   18.4850  -19.3160   C 0  0  0  0  0  0  0  0  0  0  0  0
    7.4360   17.9910  -19.2050   N 0  0  0  0  0  0  0  0  0  0  0  0
    3.6240   24.2070  -18.2730   C 0  0  0  0  0  0  0  0  0  0  0  0
    3.7180   25.2390  -19.1800   C 0  0  0  0  0  0  0  0  0  0  0  0
    3.2820   25.1310  -20.4610   C 0  0  0  0  0  0  0  0  0  0  0  0
    3.3910   26.2030  -21.3080   C 0  0  0  0  0  0  0  0  0  0  0  0
    3.9030   27.3970  -20.9100   C 0  0  0  0  0  0  0  0  0  0  0  0
    4.3290   27.5210  -19.6160   C 0  0  0  0  0  0  0  0  0  0  0  0
    4.2140   26.4450  -18.7850   C 0  0  0  0  0  0  0  0  0  0  0  0
  1  2  1  0  0  0  0
  2  3  2  0  0  0  0
  2  5  1  0  0  0  0
  3  4  1  0  0  0  0
  4  8  1  0  0  0  0
  4 11  2  0  0  0  0
  5  6  2  0  0  0  0
  5 14  1  0  0  0  0
  6  7  1  0  0  0  0
  6  8  1  0  0  0  0
  8  9  1  0  0  0  0
  9 10  2  0  0  0  0
 10 11  1  0  0  0  0
 11 12  1  0  0  0  0
 12 13  3  0  0  0  0
 14 15  1  0  0  0  0
 15 16  1  0  0  0  0
 15 20  2  0  0  0  0
 16 17  2  0  0  0  0
 17 18  1  0  0  0  0
 18 19  2  0  0  0  0
 19 20  1  0  0  0  0
A    1
CL17
A    2
C16
A    3
N18
A    4
C4
A    5
C8
A    6
C6
A    7
O7
A    8
N5
A    9
N19
A   10
C20
A   11
C1
A   12
C2
A   13
N3
A   14
C9
A   15
C10
A   16
C15
A   17
C14
A   18
C13
A   19
C12
A   20
C11
M  END
>  <InstanceId>
5MRP_6BC_A_401

>  <ChemCompId>
6BC

>  <PdbId>
5MRP

>  <ChainId>
A

>  <ResidueNumber>
401

>  <InsertionCode>


>  <Model>
1

>  <AltIds>


>  <MissingHeavyAtoms>
0

>  <ObservedFormula>
C14 N4 O Cl

>  <Name>
5-chloro-7-hydroxy-6-(phenylmethyl)pyrazolo[1,5-a]pyrimidine-3-carbonitrile

>  <SystematicName>
5-chloro-7-hydroxy-6-(phenylmethyl)pyrazolo[1,5-a]pyrimidine-3-carbonitrile

>  <Synonyms>


>  <Type>
non-polymer

>  <Formula>
C14 H9 Cl N4 O

>  <MolecularWeight>
284.7

>  <ModifiedDate>
2011-08-19

>  <Parent>


>  <OneLetterCode>


>  <SubcomponentList>


>  <AmbiguousFlag>
N

>  <InChI>
InChI=1S/C14H9ClN4O/c15-12-11(6-9-4-2-1-3-5-9)14(20)19-13(18-12)10(7-16)8-17-19/h1-5,8,20H,6H2

>  <InChIKey>
HOHNWEMSRSQMGQ-UHFFFAOYSA-N

>  <SMILES>
c1ccc(cc1)Cc2c(nc3c(cnn3c2O)C#N)Cl

$$$$
