5MRP_6BC_A_401


 21 23  0  0  0  0  0  0  0  0999 V2000
    6.3537   23.4969  -17.4177 Cl  0  0  0  0  0  0  0  0  0  0  0  0
    5.3803   22.4803  -18.2002 C   0  0  0  0  0  0  0  0  0  0  0  0
    5.8401   21.2675  -18.5172 N   0  0  0  0  0  0  0  0  0  0  0  0
    5.1157   20.3683  -19.1668 C   0  0  0  0  0  0  0  0  0  0  0  0
    4.0800   22.8222  -18.5928 C   0  0  0  0  0  0  0  0  0  0  0  0
    3.3521   21.8260  -19.2471 C   0  0  0  0  0  0  0  0  0  0  0  0
    2.1245   22.1158  -19.6136 O   0  0  0  0  0  0  0  0  0  0  0  0
    3.8901   20.6580  -19.5283 N   0  0  0  0  0  0  0  0  0  0  0  0
    3.3799   19.6563  -20.1375 N   0  0  0  0  0  0  0  0  0  0  0  0
    4.2675   18.6995  -20.1854 C   0  0  0  0  0  0  0  0  0  0  0  0
    5.3463   19.1447  -19.5822 C   0  0  0  0  0  0  0  0  0  0  0  0
    1.7583   22.9525  -19.4044 H   0  0  0  0  0  0  0  0  0  0  0  0
    6.5613   18.3765  -19.4309 C   0  0  0  0  0  0  0  0  0  0  0  0
    7.3414   17.8851  -19.3386 N   0  0  0  0  0  0  0  0  0  0  0  0
    3.5033   24.0598  -18.2499 C   0  0  0  0  0  0  0  0  0  0  0  0
    3.6943   25.1442  -19.0770 C   0  0  0  0  0  0  0  0  0  0  0  0
    3.4136   25.1117  -20.4048 C   0  0  0  0  0  0  0  0  0  0  0  0
    3.6121   26.2325  -21.1683 C   0  0  0  0  0  0  0  0  0  0  0  0
    4.0625   27.4018  -20.6429 C   0  0  0  0  0  0  0  0  0  0  0  0
    4.3315   27.4494  -19.3025 C   0  0  0  0  0  0  0  0  0  0  0  0
    4.1291   26.3256  -18.5558 C   0  0  0  0  0  0  0  0  0  0  0  0
  1  2  1  0  0  0
  2  3  2  0  0  0
  2  5  1  0  0  0
  3  4  1  0  0  0
  4  8  1  0  0  0
  4 11  2  0  0  0
  5  6  2  0  0  0
  5 15  1  0  0  0
  6  7  1  0  0  0
  6  8  1  0  0  0
  8  9  1  0  0  0
  9 10  2  0  0  0
 10 11  1  0  0  0
 11 13  1  0  0  0
 13 14  3  0  0  0
 15 16  1  0  0  0
 16 17  1  0  0  0
 16 21  2  0  0  0
 17 18  2  0  0  0
 18 19  1  0  0  0
 19 20  2  0  0  0
 20 21  1  0  0  0
  7 12  1  0  0  0
M  END
> <minimizedAffinity>
-11.07286

$$$$
