1UV6_CCE_C_1206


 12 11  0  0  0  0  0  0  0  0999 V2000
  138.7306  123.7976   85.2578 C   0  0  0  0  0  0  0  0  0  0  0  0
  139.1467  125.0120   86.0871 C   0  0  0  0  0  0  0  0  0  0  0  0
  138.5603  125.0671   87.4394 N   0  0  0  0  0  0  0  0  0  0  0  0
  137.3298  124.2494   87.5493 C   0  0  0  0  0  0  0  0  0  0  0  0
  139.5722  124.6316   88.4411 C   0  0  0  0  0  0  0  0  0  0  0  0
  138.1753  126.4748   87.6918 C   0  0  0  0  0  0  0  0  0  0  0  0
  139.3017  123.8727   83.9385 O   0  0  0  0  0  0  0  0  0  0  0  0
  138.4917  123.6253   82.7346 C   0  0  0  0  0  0  0  0  0  0  0  0
  137.5895  122.8245   82.8316 O   0  0  0  0  0  0  0  0  0  0  0  0
  138.7414  124.2701   81.5964 N   0  0  0  0  0  0  0  0  0  0  0  0
  139.4829  124.9160   81.5491 H   0  0  0  0  0  0  0  0  0  0  0  0
  138.1845  124.1009   80.8024 H   0  0  0  0  0  0  0  0  0  0  0  0
  3  2  1  0  0  0
  3  4  1  0  0  0
  3  5  1  0  0  0
  3  6  1  0  0  0
  2  1  1  0  0  0
  1  7  1  0  0  0
  7  8  1  0  0  0
  8  9  2  0  0  0
  8 10  1  0  0  0
 10 11  1  0  0  0
 10 12  1  0  0  0
M  CHG 1   3   1
M  END
> <minimizedAffinity>
-4.66369

$$$$
1UV6_CCE_C_1206


 12 11  0  0  0  0  0  0  0  0999 V2000
  138.6439  123.8579   85.2311 C   0  0  0  0  0  0  0  0  0  0  0  0
  139.2219  124.9740   86.1007 C   0  0  0  0  0  0  0  0  0  0  0  0
  138.5958  125.1092   87.4293 N   0  0  0  0  0  0  0  0  0  0  0  0
  139.4924  124.6572   88.5188 C   0  0  0  0  0  0  0  0  0  0  0  0
  138.1786  126.5222   87.6439 C   0  0  0  0  0  0  0  0  0  0  0  0
  137.4075  124.2253   87.4444 C   0  0  0  0  0  0  0  0  0  0  0  0
  139.2731  123.8550   83.9364 O   0  0  0  0  0  0  0  0  0  0  0  0
  138.4999  123.6199   82.7061 C   0  0  0  0  0  0  0  0  0  0  0  0
  137.6131  122.7982   82.7604 O   0  0  0  0  0  0  0  0  0  0  0  0
  138.7650  124.2971   81.5904 N   0  0  0  0  0  0  0  0  0  0  0  0
  139.4933  124.9594   81.5778 H   0  0  0  0  0  0  0  0  0  0  0  0
  138.2325  124.1355   80.7782 H   0  0  0  0  0  0  0  0  0  0  0  0
  3  2  1  0  0  0
  3  4  1  0  0  0
  3  5  1  0  0  0
  3  6  1  0  0  0
  2  1  1  0  0  0
  1  7  1  0  0  0
  7  8  1  0  0  0
  8  9  2  0  0  0
  8 10  1  0  0  0
 10 11  1  0  0  0
 10 12  1  0  0  0
M  CHG 1   3   1
M  END
> <minimizedAffinity>
-4.63066

$$$$
1UV6_CCE_C_1206


 12 11  0  0  0  0  0  0  0  0999 V2000
  138.7704  123.1778   85.4219 C   0  0  0  0  0  0  0  0  0  0  0  0
  138.9330  124.6472   85.8096 C   0  0  0  0  0  0  0  0  0  0  0  0
  138.5384  124.9683   87.1941 N   0  0  0  0  0  0  0  0  0  0  0  0
  137.2828  124.2888   87.5898 C   0  0  0  0  0  0  0  0  0  0  0  0
  139.6449  124.6121   88.1245 C   0  0  0  0  0  0  0  0  0  0  0  0
  138.2840  126.4264   87.2489 C   0  0  0  0  0  0  0  0  0  0  0  0
  138.2589  123.0674   84.0808 O   0  0  0  0  0  0  0  0  0  0  0  0
  137.2667  122.0423   83.7182 C   0  0  0  0  0  0  0  0  0  0  0  0
  136.4498  121.7431   84.5595 O   0  0  0  0  0  0  0  0  0  0  0  0
  137.2690  121.4840   82.5091 N   0  0  0  0  0  0  0  0  0  0  0  0
  137.9470  121.7486   81.8460 H   0  0  0  0  0  0  0  0  0  0  0  0
  136.5928  120.8067   82.2783 H   0  0  0  0  0  0  0  0  0  0  0  0
  3  2  1  0  0  0
  3  4  1  0  0  0
  3  5  1  0  0  0
  3  6  1  0  0  0
  2  1  1  0  0  0
  1  7  1  0  0  0
  7  8  1  0  0  0
  8  9  2  0  0  0
  8 10  1  0  0  0
 10 11  1  0  0  0
 10 12  1  0  0  0
M  CHG 1   3   1
M  END
> <minimizedAffinity>
-4.31019

$$$$
1UV6_CCE_C_1206


 12 11  0  0  0  0  0  0  0  0999 V2000
  138.8778  124.0332   86.4694 C   0  0  0  0  0  0  0  0  0  0  0  0
  137.7006  123.3763   85.7494 C   0  0  0  0  0  0  0  0  0  0  0  0
  138.0556  122.6628   84.5083 N   0  0  0  0  0  0  0  0  0  0  0  0
  136.9452  121.8167   84.0122 C   0  0  0  0  0  0  0  0  0  0  0  0
  138.4733  123.6444   83.4695 C   0  0  0  0  0  0  0  0  0  0  0  0
  139.1845  121.7599   84.8309 C   0  0  0  0  0  0  0  0  0  0  0  0
  138.7871  125.4667   86.3727 O   0  0  0  0  0  0  0  0  0  0  0  0
  137.8987  126.2421   87.2538 C   0  0  0  0  0  0  0  0  0  0  0  0
  138.2030  126.3094   88.4232 O   0  0  0  0  0  0  0  0  0  0  0  0
  136.8164  126.8502   86.7717 N   0  0  0  0  0  0  0  0  0  0  0  0
  136.5953  126.7767   85.8152 H   0  0  0  0  0  0  0  0  0  0  0  0
  136.2372  127.3733   87.3719 H   0  0  0  0  0  0  0  0  0  0  0  0
  3  2  1  0  0  0
  3  4  1  0  0  0
  3  5  1  0  0  0
  3  6  1  0  0  0
  2  1  1  0  0  0
  1  7  1  0  0  0
  7  8  1  0  0  0
  8  9  2  0  0  0
  8 10  1  0  0  0
 10 11  1  0  0  0
 10 12  1  0  0  0
M  CHG 1   3   1
M  END
> <minimizedAffinity>
-3.91976

$$$$
1UV6_CCE_C_1206


 12 11  0  0  0  0  0  0  0  0999 V2000
  138.7795  124.0211   86.4853 C   0  0  0  0  0  0  0  0  0  0  0  0
  137.6295  123.3728   85.7152 C   0  0  0  0  0  0  0  0  0  0  0  0
  138.0418  122.5735   84.5462 N   0  0  0  0  0  0  0  0  0  0  0  0
  139.2098  121.7112   84.8418 C   0  0  0  0  0  0  0  0  0  0  0  0
  136.8924  121.7563   84.0688 C   0  0  0  0  0  0  0  0  0  0  0  0
  138.4560  123.5256   83.4899 C   0  0  0  0  0  0  0  0  0  0  0  0
  138.7233  125.4538   86.3568 O   0  0  0  0  0  0  0  0  0  0  0  0
  137.8720  126.2720   87.2357 C   0  0  0  0  0  0  0  0  0  0  0  0
  138.2239  126.3939   88.3872 O   0  0  0  0  0  0  0  0  0  0  0  0
  136.7709  126.8589   86.7701 N   0  0  0  0  0  0  0  0  0  0  0  0
  136.5108  126.7407   85.8280 H   0  0  0  0  0  0  0  0  0  0  0  0
  136.2169  127.4110   87.3681 H   0  0  0  0  0  0  0  0  0  0  0  0
  3  2  1  0  0  0
  3  4  1  0  0  0
  3  5  1  0  0  0
  3  6  1  0  0  0
  2  1  1  0  0  0
  1  7  1  0  0  0
  7  8  1  0  0  0
  8  9  2  0  0  0
  8 10  1  0  0  0
 10 11  1  0  0  0
 10 12  1  0  0  0
M  CHG 1   3   1
M  END
> <minimizedAffinity>
-3.81823

$$$$
1UV6_CCE_C_1206


 12 11  0  0  0  0  0  0  0  0999 V2000
  138.9221  124.8365   85.6632 C   0  0  0  0  0  0  0  0  0  0  0  0
  138.3760  123.4245   85.8725 C   0  0  0  0  0  0  0  0  0  0  0  0
  138.2726  122.6137   84.6447 N   0  0  0  0  0  0  0  0  0  0  0  0
  136.9289  122.0108   84.4839 C   0  0  0  0  0  0  0  0  0  0  0  0
  138.6184  123.4504   83.4626 C   0  0  0  0  0  0  0  0  0  0  0  0
  139.2404  121.4999   84.7737 C   0  0  0  0  0  0  0  0  0  0  0  0
  138.1028  125.7978   86.3539 O   0  0  0  0  0  0  0  0  0  0  0  0
  138.3733  126.1766   87.7503 C   0  0  0  0  0  0  0  0  0  0  0  0
  138.2896  127.3513   88.0294 O   0  0  0  0  0  0  0  0  0  0  0  0
  138.6834  125.2567   88.6620 N   0  0  0  0  0  0  0  0  0  0  0  0
  138.7438  124.3086   88.4038 H   0  0  0  0  0  0  0  0  0  0  0  0
  138.8521  125.5247   89.5941 H   0  0  0  0  0  0  0  0  0  0  0  0
  3  2  1  0  0  0
  3  4  1  0  0  0
  3  5  1  0  0  0
  3  6  1  0  0  0
  2  1  1  0  0  0
  1  7  1  0  0  0
  7  8  1  0  0  0
  8  9  2  0  0  0
  8 10  1  0  0  0
 10 11  1  0  0  0
 10 12  1  0  0  0
M  CHG 1   3   1
M  END
> <minimizedAffinity>
-2.91819

$$$$
