4Q08_V90_A_305


 30 31  0  0  0  0  0  0  0  0999 V2000
   -4.2437    3.5696   11.2495 F   0  0  0  0  0  0  0  0  0  0  0  0
   -4.0005    2.5146   12.0102 C   0  0  0  0  0  0  0  0  0  0  0  0
   -3.4471    1.4040   11.3218 C   0  0  0  0  0  0  0  0  0  0  0  0
   -3.3801    0.2087   12.1258 C   0  0  0  0  0  0  0  0  0  0  0  0
   -2.8981   -0.9217   11.6209 F   0  0  0  0  0  0  0  0  0  0  0  0
   -4.2226    2.5668   13.3733 C   0  0  0  0  0  0  0  0  0  0  0  0
   -4.0047    1.3990   14.1533 C   0  0  0  0  0  0  0  0  0  0  0  0
   -3.6040    0.2831   13.5052 C   0  0  0  0  0  0  0  0  0  0  0  0
   -3.4056   -0.8782   14.1591 F   0  0  0  0  0  0  0  0  0  0  0  0
   -4.3298    1.2523   15.8832 S   0  0  0  0  0  0  0  0  0  0  0  0
   -3.0233    1.4179   16.4946 O   0  0  0  0  0  0  0  0  0  0  0  0
   -5.3076    2.3935   16.3659 N   0  0  0  0  0  0  0  0  0  0  0  0
   -4.9614   -0.0541   16.0651 O   0  0  0  0  0  0  0  0  0  0  0  0
   -4.8610    3.3013   16.2362 H   0  0  0  0  0  0  0  0  0  0  0  0
   -5.5253    2.2596   17.3534 H   0  0  0  0  0  0  0  0  0  0  0  0
   -4.6566    3.8016   13.8875 N   0  0  0  0  0  0  0  0  0  0  0  0
   -5.5994    3.8757   14.1611 H   0  0  0  0  0  0  0  0  0  0  0  0
   -3.8281    4.9587   14.0422 C   0  0  0  0  0  0  0  0  0  0  0  0
   -4.6078    5.9133   14.9792 C   0  0  0  0  0  0  0  0  0  0  0  0
   -4.8269    7.1733   14.1725 C   0  0  0  0  0  0  0  0  0  0  0  0
   -3.5919    8.1323   14.2437 C   0  0  0  0  0  0  0  0  0  0  0  0
   -2.3889    7.6497   13.4070 C   0  0  0  0  0  0  0  0  0  0  0  0
   -1.3158    6.9653   14.3152 C   0  0  0  0  0  0  0  0  0  0  0  0
   -1.2835    5.4866   13.9291 C   0  0  0  0  0  0  0  0  0  0  0  0
   -2.4183    4.6301   14.5527 C   0  0  0  0  0  0  0  0  0  0  0  0
   -3.0954    1.4093    9.6059 S   0  0  0  0  0  0  0  0  0  0  0  0
   -4.7089    1.2442    8.7945 C   0  0  0  0  0  0  0  0  0  0  0  0
   -4.6295    0.0968    7.8349 C   0  0  0  0  0  0  0  0  0  0  0  0
   -4.5335    0.5012    6.5239 O   0  0  0  0  0  0  0  0  0  0  0  0
   -3.7204    1.0161    6.4030 H   0  0  0  0  0  0  0  0  0  0  0  0
 23 22  1  0  0  0
 23 24  1  0  0  0
 22 21  1  0  0  0
 21 20  1  0  0  0
 29 28  1  0  0  0
 24 25  1  0  0  0
 28 27  1  0  0  0
 20 19  1  0  0  0
 25 18  1  0  0  0
 27 26  1  0  0  0
 19 18  1  0  0  0
 18 16  1  0  0  0
  1  2  1  0  0  0
 26  3  1  0  0  0
  2  3  2  0  0  0
  2  6  1  0  0  0
 16  6  1  0  0  0
  3  4  1  0  0  0
  6  7  2  0  0  0
  4  5  1  0  0  0
  4  8  2  0  0  0
  7  8  1  0  0  0
  7 10  1  0  0  0
 12 10  1  0  0  0
  8  9  1  0  0  0
 11 10  2  0  0  0
 10 13  2  0  0  0
 29 30  1  0  0  0
 12 14  1  0  0  0
 12 15  1  0  0  0
 16 17  1  0  0  0
M  END
> <minimizedAffinity>
-8.45679

$$$$
4Q08_V90_A_305


 30 31  0  0  0  0  0  0  0  0999 V2000
   -3.3657    5.1471   12.6423 F   0  0  0  0  0  0  0  0  0  0  0  0
   -3.9815    4.4403   13.5761 C   0  0  0  0  0  0  0  0  0  0  0  0
   -5.0101    5.1363   14.2626 C   0  0  0  0  0  0  0  0  0  0  0  0
   -5.5247    4.4173   15.4019 C   0  0  0  0  0  0  0  0  0  0  0  0
   -6.4837    4.9413   16.1574 F   0  0  0  0  0  0  0  0  0  0  0  0
   -3.6558    3.1127   13.7795 C   0  0  0  0  0  0  0  0  0  0  0  0
   -4.2960    2.3978   14.8278 C   0  0  0  0  0  0  0  0  0  0  0  0
   -5.1866    3.0722   15.5880 C   0  0  0  0  0  0  0  0  0  0  0  0
   -5.8160    2.4840   16.6241 F   0  0  0  0  0  0  0  0  0  0  0  0
   -3.9356    0.7333   15.2958 S   0  0  0  0  0  0  0  0  0  0  0  0
   -2.7474    0.8568   16.1211 O   0  0  0  0  0  0  0  0  0  0  0  0
   -5.1231    0.1203   16.1358 N   0  0  0  0  0  0  0  0  0  0  0  0
   -3.7737   -0.0104   14.0470 O   0  0  0  0  0  0  0  0  0  0  0  0
   -5.2302    0.6435   17.0049 H   0  0  0  0  0  0  0  0  0  0  0  0
   -4.9198   -0.8561   16.3496 H   0  0  0  0  0  0  0  0  0  0  0  0
   -2.6942    2.5665   12.9111 N   0  0  0  0  0  0  0  0  0  0  0  0
   -1.7460    2.7309   13.1190 H   0  0  0  0  0  0  0  0  0  0  0  0
   -2.9928    1.7889   11.7468 C   0  0  0  0  0  0  0  0  0  0  0  0
   -3.5798    2.7829   10.7150 C   0  0  0  0  0  0  0  0  0  0  0  0
   -4.9741    2.2765   10.4217 C   0  0  0  0  0  0  0  0  0  0  0  0
   -4.9691    1.1600    9.3247 C   0  0  0  0  0  0  0  0  0  0  0  0
   -4.4413   -0.1984    9.8313 C   0  0  0  0  0  0  0  0  0  0  0  0
   -2.9565   -0.4187    9.3936 C   0  0  0  0  0  0  0  0  0  0  0  0
   -2.1106   -0.4070   10.6668 C   0  0  0  0  0  0  0  0  0  0  0  0
   -1.7833    1.0089   11.2131 C   0  0  0  0  0  0  0  0  0  0  0  0
   -5.4544    6.7939   13.9122 S   0  0  0  0  0  0  0  0  0  0  0  0
   -4.5427    7.7910   15.1221 C   0  0  0  0  0  0  0  0  0  0  0  0
   -4.7841    9.2355   14.8078 C   0  0  0  0  0  0  0  0  0  0  0  0
   -5.3830    9.9155   15.8425 O   0  0  0  0  0  0  0  0  0  0  0  0
   -4.8030    9.8975   16.6198 H   0  0  0  0  0  0  0  0  0  0  0  0
 23 22  1  0  0  0
 23 24  1  0  0  0
 22 21  1  0  0  0
 21 20  1  0  0  0
 29 28  1  0  0  0
 24 25  1  0  0  0
 28 27  1  0  0  0
 20 19  1  0  0  0
 25 18  1  0  0  0
 27 26  1  0  0  0
 19 18  1  0  0  0
 18 16  1  0  0  0
  1  2  1  0  0  0
 26  3  1  0  0  0
  2  3  2  0  0  0
  2  6  1  0  0  0
 16  6  1  0  0  0
  3  4  1  0  0  0
  6  7  2  0  0  0
  4  5  1  0  0  0
  4  8  2  0  0  0
  7  8  1  0  0  0
  7 10  1  0  0  0
 12 10  1  0  0  0
  8  9  1  0  0  0
 11 10  2  0  0  0
 10 13  2  0  0  0
 29 30  1  0  0  0
 12 14  1  0  0  0
 12 15  1  0  0  0
 16 17  1  0  0  0
M  END
> <minimizedAffinity>
-8.25520

$$$$
4Q08_V90_A_305


 30 31  0  0  0  0  0  0  0  0999 V2000
   -4.6173    0.8629   11.7429 F   0  0  0  0  0  0  0  0  0  0  0  0
   -3.4661    1.5069   11.6385 C   0  0  0  0  0  0  0  0  0  0  0  0
   -2.5335    0.9111   10.7502 C   0  0  0  0  0  0  0  0  0  0  0  0
   -1.2246    1.5138   10.8070 C   0  0  0  0  0  0  0  0  0  0  0  0
   -0.2357    1.0600   10.0446 F   0  0  0  0  0  0  0  0  0  0  0  0
   -3.2653    2.6976   12.3108 C   0  0  0  0  0  0  0  0  0  0  0  0
   -1.9982    3.3350   12.2223 C   0  0  0  0  0  0  0  0  0  0  0  0
   -1.0426    2.7220   11.4893 C   0  0  0  0  0  0  0  0  0  0  0  0
    0.1976    3.2367   11.3774 F   0  0  0  0  0  0  0  0  0  0  0  0
   -1.5310    4.8014   13.0889 S   0  0  0  0  0  0  0  0  0  0  0  0
   -2.7897    5.4950   13.2961 O   0  0  0  0  0  0  0  0  0  0  0  0
   -0.8700    4.4426   14.4767 N   0  0  0  0  0  0  0  0  0  0  0  0
   -0.5577    5.4813   12.2351 O   0  0  0  0  0  0  0  0  0  0  0  0
   -1.5540    3.9689   15.0667 H   0  0  0  0  0  0  0  0  0  0  0  0
   -0.5590    5.2984   14.9364 H   0  0  0  0  0  0  0  0  0  0  0  0
   -4.3584    3.1913   13.0447 N   0  0  0  0  0  0  0  0  0  0  0  0
   -4.9214    3.8773   12.6186 H   0  0  0  0  0  0  0  0  0  0  0  0
   -4.7126    2.7695   14.3661 C   0  0  0  0  0  0  0  0  0  0  0  0
   -3.5265    1.9090   14.8662 C   0  0  0  0  0  0  0  0  0  0  0  0
   -4.1135    0.5436   15.1445 C   0  0  0  0  0  0  0  0  0  0  0  0
   -4.7551    0.4654   16.5701 C   0  0  0  0  0  0  0  0  0  0  0  0
   -6.1014    1.2108   16.6808 C   0  0  0  0  0  0  0  0  0  0  0  0
   -5.9121    2.6077   17.3573 C   0  0  0  0  0  0  0  0  0  0  0  0
   -6.2146    3.6624   16.2930 C   0  0  0  0  0  0  0  0  0  0  0  0
   -5.0494    3.9366   15.3043 C   0  0  0  0  0  0  0  0  0  0  0  0
   -2.8612   -0.5525    9.8455 S   0  0  0  0  0  0  0  0  0  0  0  0
   -2.0013   -1.8676   10.7511 C   0  0  0  0  0  0  0  0  0  0  0  0
   -3.0326   -2.8171   11.2790 C   0  0  0  0  0  0  0  0  0  0  0  0
   -2.6250   -4.1298   11.2327 O   0  0  0  0  0  0  0  0  0  0  0  0
   -1.8380   -4.2438   11.7882 H   0  0  0  0  0  0  0  0  0  0  0  0
 23 22  1  0  0  0
 23 24  1  0  0  0
 22 21  1  0  0  0
 21 20  1  0  0  0
 29 28  1  0  0  0
 24 25  1  0  0  0
 28 27  1  0  0  0
 20 19  1  0  0  0
 25 18  1  0  0  0
 27 26  1  0  0  0
 19 18  1  0  0  0
 18 16  1  0  0  0
  1  2  1  0  0  0
 26  3  1  0  0  0
  2  3  2  0  0  0
  2  6  1  0  0  0
 16  6  1  0  0  0
  3  4  1  0  0  0
  6  7  2  0  0  0
  4  5  1  0  0  0
  4  8  2  0  0  0
  7  8  1  0  0  0
  7 10  1  0  0  0
 12 10  1  0  0  0
  8  9  1  0  0  0
 11 10  2  0  0  0
 10 13  2  0  0  0
 29 30  1  0  0  0
 12 14  1  0  0  0
 12 15  1  0  0  0
 16 17  1  0  0  0
M  END
> <minimizedAffinity>
-8.07894

$$$$
4Q08_V90_A_305


 30 31  0  0  0  0  0  0  0  0999 V2000
   -4.5591    2.9785   11.0923 F   0  0  0  0  0  0  0  0  0  0  0  0
   -4.2516    2.0389   11.9717 C   0  0  0  0  0  0  0  0  0  0  0  0
   -3.7386    0.8434   11.4048 C   0  0  0  0  0  0  0  0  0  0  0  0
   -3.6023   -0.2291   12.3593 C   0  0  0  0  0  0  0  0  0  0  0  0
   -3.1471   -1.4187   11.9816 F   0  0  0  0  0  0  0  0  0  0  0  0
   -4.3755    2.2794   13.3270 C   0  0  0  0  0  0  0  0  0  0  0  0
   -4.0907    1.2308   14.2429 C   0  0  0  0  0  0  0  0  0  0  0  0
   -3.7270    0.0357   13.7277 C   0  0  0  0  0  0  0  0  0  0  0  0
   -3.4708   -1.0240   14.5196 F   0  0  0  0  0  0  0  0  0  0  0  0
   -4.2890    1.3251   15.9954 S   0  0  0  0  0  0  0  0  0  0  0  0
   -2.9380    1.5352   16.4843 O   0  0  0  0  0  0  0  0  0  0  0  0
   -5.2083    2.5466   16.3880 N   0  0  0  0  0  0  0  0  0  0  0  0
   -4.9279    0.0723   16.3967 O   0  0  0  0  0  0  0  0  0  0  0  0
   -4.7569    3.4165   16.1054 H   0  0  0  0  0  0  0  0  0  0  0  0
   -5.3543    2.5517   17.3975 H   0  0  0  0  0  0  0  0  0  0  0  0
   -4.7832    3.5736   13.6959 N   0  0  0  0  0  0  0  0  0  0  0  0
   -5.7403    3.7160   13.8773 H   0  0  0  0  0  0  0  0  0  0  0  0
   -3.9086    4.6994   13.8270 C   0  0  0  0  0  0  0  0  0  0  0  0
   -4.6885    5.7440   14.6624 C   0  0  0  0  0  0  0  0  0  0  0  0
   -4.8044    6.9608   13.7722 C   0  0  0  0  0  0  0  0  0  0  0  0
   -3.5296    7.8654   13.8538 C   0  0  0  0  0  0  0  0  0  0  0  0
   -2.3099    7.2784   13.1135 C   0  0  0  0  0  0  0  0  0  0  0  0
   -1.3194    6.6031   14.1174 C   0  0  0  0  0  0  0  0  0  0  0  0
   -1.3390    5.1036   13.8214 C   0  0  0  0  0  0  0  0  0  0  0  0
   -2.5447    4.3393   14.4318 C   0  0  0  0  0  0  0  0  0  0  0  0
   -3.5114    0.6110    9.6837 S   0  0  0  0  0  0  0  0  0  0  0  0
   -1.8250   -0.0346    9.5149 C   0  0  0  0  0  0  0  0  0  0  0  0
   -0.9247    0.7891   10.3836 C   0  0  0  0  0  0  0  0  0  0  0  0
   -0.5151    1.9538    9.7775 O   0  0  0  0  0  0  0  0  0  0  0  0
   -1.2883    2.5062    9.5829 H   0  0  0  0  0  0  0  0  0  0  0  0
 23 22  1  0  0  0
 23 24  1  0  0  0
 22 21  1  0  0  0
 21 20  1  0  0  0
 29 28  1  0  0  0
 24 25  1  0  0  0
 28 27  1  0  0  0
 20 19  1  0  0  0
 25 18  1  0  0  0
 27 26  1  0  0  0
 19 18  1  0  0  0
 18 16  1  0  0  0
  1  2  1  0  0  0
 26  3  1  0  0  0
  2  3  2  0  0  0
  2  6  1  0  0  0
 16  6  1  0  0  0
  3  4  1  0  0  0
  6  7  2  0  0  0
  4  5  1  0  0  0
  4  8  2  0  0  0
  7  8  1  0  0  0
  7 10  1  0  0  0
 12 10  1  0  0  0
  8  9  1  0  0  0
 11 10  2  0  0  0
 10 13  2  0  0  0
 29 30  1  0  0  0
 12 14  1  0  0  0
 12 15  1  0  0  0
 16 17  1  0  0  0
M  END
> <minimizedAffinity>
-8.03335

$$$$
4Q08_V90_A_305


 30 31  0  0  0  0  0  0  0  0999 V2000
   -2.8639    5.4103   12.2055 F   0  0  0  0  0  0  0  0  0  0  0  0
   -3.5542    4.8393   13.1794 C   0  0  0  0  0  0  0  0  0  0  0  0
   -4.5290    5.6759   13.7824 C   0  0  0  0  0  0  0  0  0  0  0  0
   -5.1229    5.1013   14.9643 C   0  0  0  0  0  0  0  0  0  0  0  0
   -6.0445    5.7669   15.6518 F   0  0  0  0  0  0  0  0  0  0  0  0
   -3.3493    3.5103   13.4982 C   0  0  0  0  0  0  0  0  0  0  0  0
   -4.0664    2.9429   14.5860 C   0  0  0  0  0  0  0  0  0  0  0  0
   -4.9068    3.7524   15.2676 C   0  0  0  0  0  0  0  0  0  0  0  0
   -5.6020    3.3089   16.3333 F   0  0  0  0  0  0  0  0  0  0  0  0
   -3.8607    1.2985   15.1968 S   0  0  0  0  0  0  0  0  0  0  0  0
   -2.7959    1.4251   16.1757 O   0  0  0  0  0  0  0  0  0  0  0  0
   -5.1843    0.7917   15.8916 N   0  0  0  0  0  0  0  0  0  0  0  0
   -3.5626    0.4694   14.0295 O   0  0  0  0  0  0  0  0  0  0  0  0
   -5.3861    1.3740   16.7043 H   0  0  0  0  0  0  0  0  0  0  0  0
   -5.0631   -0.1765   16.1887 H   0  0  0  0  0  0  0  0  0  0  0  0
   -2.4252    2.8129   12.7000 N   0  0  0  0  0  0  0  0  0  0  0  0
   -1.4683    2.9397   12.8934 H   0  0  0  0  0  0  0  0  0  0  0  0
   -2.7738    1.9321   11.6267 C   0  0  0  0  0  0  0  0  0  0  0  0
   -3.4873    2.8137   10.5726 C   0  0  0  0  0  0  0  0  0  0  0  0
   -4.8732    2.2253   10.4326 C   0  0  0  0  0  0  0  0  0  0  0  0
   -4.8975    1.0256    9.4276 C   0  0  0  0  0  0  0  0  0  0  0  0
   -4.2655   -0.2635    9.9925 C   0  0  0  0  0  0  0  0  0  0  0  0
   -2.8098   -0.4537    9.4543 C   0  0  0  0  0  0  0  0  0  0  0  0
   -1.8699   -0.3031   10.6503 C   0  0  0  0  0  0  0  0  0  0  0  0
   -1.5720    1.1650   11.0583 C   0  0  0  0  0  0  0  0  0  0  0  0
   -4.8207    7.3305   13.2874 S   0  0  0  0  0  0  0  0  0  0  0  0
   -6.5832    7.3909   12.8642 C   0  0  0  0  0  0  0  0  0  0  0  0
   -6.7124    8.0091   11.5059 C   0  0  0  0  0  0  0  0  0  0  0  0
   -7.2911    9.2564   11.5384 O   0  0  0  0  0  0  0  0  0  0  0  0
   -6.7364    9.8566   12.0608 H   0  0  0  0  0  0  0  0  0  0  0  0
 23 22  1  0  0  0
 23 24  1  0  0  0
 22 21  1  0  0  0
 21 20  1  0  0  0
 29 28  1  0  0  0
 24 25  1  0  0  0
 28 27  1  0  0  0
 20 19  1  0  0  0
 25 18  1  0  0  0
 27 26  1  0  0  0
 19 18  1  0  0  0
 18 16  1  0  0  0
  1  2  1  0  0  0
 26  3  1  0  0  0
  2  3  2  0  0  0
  2  6  1  0  0  0
 16  6  1  0  0  0
  3  4  1  0  0  0
  6  7  2  0  0  0
  4  5  1  0  0  0
  4  8  2  0  0  0
  7  8  1  0  0  0
  7 10  1  0  0  0
 12 10  1  0  0  0
  8  9  1  0  0  0
 11 10  2  0  0  0
 10 13  2  0  0  0
 29 30  1  0  0  0
 12 14  1  0  0  0
 12 15  1  0  0  0
 16 17  1  0  0  0
M  END
> <minimizedAffinity>
-7.90532

$$$$
4Q08_V90_A_305


 30 31  0  0  0  0  0  0  0  0999 V2000
   -3.2521    2.1435   13.5256 F   0  0  0  0  0  0  0  0  0  0  0  0
   -3.7981    3.3409   13.6628 C   0  0  0  0  0  0  0  0  0  0  0  0
   -4.4007    3.5749   14.9261 C   0  0  0  0  0  0  0  0  0  0  0  0
   -5.1583    4.8009   14.9797 C   0  0  0  0  0  0  0  0  0  0  0  0
   -5.7944    5.1566   16.0905 F   0  0  0  0  0  0  0  0  0  0  0  0
   -3.7012    4.2760   12.6498 C   0  0  0  0  0  0  0  0  0  0  0  0
   -4.3467    5.5325   12.8062 C   0  0  0  0  0  0  0  0  0  0  0  0
   -5.0432    5.7370   13.9459 C   0  0  0  0  0  0  0  0  0  0  0  0
   -5.7140    6.8850   14.1649 F   0  0  0  0  0  0  0  0  0  0  0  0
   -4.4140    6.8042   11.5824 S   0  0  0  0  0  0  0  0  0  0  0  0
   -3.8072    7.9477   12.2400 O   0  0  0  0  0  0  0  0  0  0  0  0
   -3.5751    6.3977   10.3086 N   0  0  0  0  0  0  0  0  0  0  0  0
   -5.8250    6.9451   11.2248 O   0  0  0  0  0  0  0  0  0  0  0  0
   -2.5926    6.3012   10.5651 H   0  0  0  0  0  0  0  0  0  0  0  0
   -3.6706    7.1193    9.5941 H   0  0  0  0  0  0  0  0  0  0  0  0
   -2.9538    3.8969   11.5206 N   0  0  0  0  0  0  0  0  0  0  0  0
   -2.3239    4.5555   11.1484 H   0  0  0  0  0  0  0  0  0  0  0  0
   -3.0418    2.6234   10.8727 C   0  0  0  0  0  0  0  0  0  0  0  0
   -3.9559    2.8389    9.6417 C   0  0  0  0  0  0  0  0  0  0  0  0
   -5.1307    1.9099    9.8496 C   0  0  0  0  0  0  0  0  0  0  0  0
   -4.8212    0.4591    9.3502 C   0  0  0  0  0  0  0  0  0  0  0  0
   -3.8709   -0.3226   10.2810 C   0  0  0  0  0  0  0  0  0  0  0  0
   -2.4126   -0.3230    9.7171 C   0  0  0  0  0  0  0  0  0  0  0  0
   -1.5597    0.4937   10.6879 C   0  0  0  0  0  0  0  0  0  0  0  0
   -1.6723    2.0320   10.5114 C   0  0  0  0  0  0  0  0  0  0  0  0
   -4.4229    2.3933   16.2189 S   0  0  0  0  0  0  0  0  0  0  0  0
   -6.1619    1.9040   16.3788 C   0  0  0  0  0  0  0  0  0  0  0  0
   -6.2146    0.6341   17.1715 C   0  0  0  0  0  0  0  0  0  0  0  0
   -5.1856   -0.2276   16.8710 O   0  0  0  0  0  0  0  0  0  0  0  0
   -4.3384    0.1936   17.0846 H   0  0  0  0  0  0  0  0  0  0  0  0
 23 22  1  0  0  0
 23 24  1  0  0  0
 22 21  1  0  0  0
 21 20  1  0  0  0
 29 28  1  0  0  0
 24 25  1  0  0  0
 28 27  1  0  0  0
 20 19  1  0  0  0
 25 18  1  0  0  0
 27 26  1  0  0  0
 19 18  1  0  0  0
 18 16  1  0  0  0
  1  2  1  0  0  0
 26  3  1  0  0  0
  2  3  2  0  0  0
  2  6  1  0  0  0
 16  6  1  0  0  0
  3  4  1  0  0  0
  6  7  2  0  0  0
  4  5  1  0  0  0
  4  8  2  0  0  0
  7  8  1  0  0  0
  7 10  1  0  0  0
 12 10  1  0  0  0
  8  9  1  0  0  0
 11 10  2  0  0  0
 10 13  2  0  0  0
 29 30  1  0  0  0
 12 14  1  0  0  0
 12 15  1  0  0  0
 16 17  1  0  0  0
M  END
> <minimizedAffinity>
-7.58196

$$$$
4Q08_V90_A_305


 30 31  0  0  0  0  0  0  0  0999 V2000
   -3.1828    4.6696   15.2054 F   0  0  0  0  0  0  0  0  0  0  0  0
   -3.4494    3.9501   14.1275 C   0  0  0  0  0  0  0  0  0  0  0  0
   -3.7901    2.5975   14.3885 C   0  0  0  0  0  0  0  0  0  0  0  0
   -3.8780    1.7900   13.1969 C   0  0  0  0  0  0  0  0  0  0  0  0
   -4.1754    0.4974   13.2745 F   0  0  0  0  0  0  0  0  0  0  0  0
   -3.4483    4.5357   12.8756 C   0  0  0  0  0  0  0  0  0  0  0  0
   -3.6832    3.7234   11.7334 C   0  0  0  0  0  0  0  0  0  0  0  0
   -3.8796    2.4023   11.9386 C   0  0  0  0  0  0  0  0  0  0  0  0
   -4.0762    1.5517   10.9121 F   0  0  0  0  0  0  0  0  0  0  0  0
   -3.6208    4.2771   10.0574 S   0  0  0  0  0  0  0  0  0  0  0  0
   -5.0038    4.5917    9.7466 O   0  0  0  0  0  0  0  0  0  0  0  0
   -2.7244    5.5701    9.9300 N   0  0  0  0  0  0  0  0  0  0  0  0
   -3.0255    3.1817    9.2929 O   0  0  0  0  0  0  0  0  0  0  0  0
   -3.1452    6.3296   10.4652 H   0  0  0  0  0  0  0  0  0  0  0  0
   -2.6572    5.8419    8.9492 H   0  0  0  0  0  0  0  0  0  0  0  0
   -3.2086    5.9207   12.8354 N   0  0  0  0  0  0  0  0  0  0  0  0
   -2.3251    6.2218   12.5222 H   0  0  0  0  0  0  0  0  0  0  0  0
   -4.1550    6.9250   13.2163 C   0  0  0  0  0  0  0  0  0  0  0  0
   -3.3239    8.0714   13.8428 C   0  0  0  0  0  0  0  0  0  0  0  0
   -3.8308    8.2024   15.2614 C   0  0  0  0  0  0  0  0  0  0  0  0
   -5.1093    9.1018   15.3420 C   0  0  0  0  0  0  0  0  0  0  0  0
   -6.3827    8.4102   14.8123 C   0  0  0  0  0  0  0  0  0  0  0  0
   -6.7134    8.8861   13.3601 C   0  0  0  0  0  0  0  0  0  0  0  0
   -6.5207    7.6795   12.4416 C   0  0  0  0  0  0  0  0  0  0  0  0
   -5.0452    7.3895   12.0554 C   0  0  0  0  0  0  0  0  0  0  0  0
   -3.8687    1.9154   15.9999 S   0  0  0  0  0  0  0  0  0  0  0  0
   -5.6031    2.0904   16.5005 C   0  0  0  0  0  0  0  0  0  0  0  0
   -6.0711    0.7655   17.0198 C   0  0  0  0  0  0  0  0  0  0  0  0
   -5.1614   -0.2440   16.8080 O   0  0  0  0  0  0  0  0  0  0  0  0
   -4.3377   -0.0409   17.2784 H   0  0  0  0  0  0  0  0  0  0  0  0
 23 22  1  0  0  0
 23 24  1  0  0  0
 22 21  1  0  0  0
 21 20  1  0  0  0
 29 28  1  0  0  0
 24 25  1  0  0  0
 28 27  1  0  0  0
 20 19  1  0  0  0
 25 18  1  0  0  0
 27 26  1  0  0  0
 19 18  1  0  0  0
 18 16  1  0  0  0
  1  2  1  0  0  0
 26  3  1  0  0  0
  2  3  2  0  0  0
  2  6  1  0  0  0
 16  6  1  0  0  0
  3  4  1  0  0  0
  6  7  2  0  0  0
  4  5  1  0  0  0
  4  8  2  0  0  0
  7  8  1  0  0  0
  7 10  1  0  0  0
 12 10  1  0  0  0
  8  9  1  0  0  0
 11 10  2  0  0  0
 10 13  2  0  0  0
 29 30  1  0  0  0
 12 14  1  0  0  0
 12 15  1  0  0  0
 16 17  1  0  0  0
M  END
> <minimizedAffinity>
-7.57835

$$$$
4Q08_V90_A_305


 30 31  0  0  0  0  0  0  0  0999 V2000
   -3.5509    4.0320   13.6370 F   0  0  0  0  0  0  0  0  0  0  0  0
   -3.6731    2.8071   13.1517 C   0  0  0  0  0  0  0  0  0  0  0  0
   -3.8612    1.7986   14.1321 C   0  0  0  0  0  0  0  0  0  0  0  0
   -3.7899    0.4611   13.5974 C   0  0  0  0  0  0  0  0  0  0  0  0
   -3.9329   -0.5947   14.3910 F   0  0  0  0  0  0  0  0  0  0  0  0
   -3.6783    2.5909   11.7867 C   0  0  0  0  0  0  0  0  0  0  0  0
   -3.7546    1.2581   11.2992 C   0  0  0  0  0  0  0  0  0  0  0  0
   -3.8005    0.2629   12.2122 C   0  0  0  0  0  0  0  0  0  0  0  0
   -3.8403   -1.0319   11.8410 F   0  0  0  0  0  0  0  0  0  0  0  0
   -3.6733    0.7875    9.5988 S   0  0  0  0  0  0  0  0  0  0  0  0
   -3.7025    2.0538    8.8890 O   0  0  0  0  0  0  0  0  0  0  0  0
   -2.3267    0.0220    9.2955 N   0  0  0  0  0  0  0  0  0  0  0  0
   -4.8127   -0.1007    9.3716 O   0  0  0  0  0  0  0  0  0  0  0  0
   -1.5367    0.6470    9.4559 H   0  0  0  0  0  0  0  0  0  0  0  0
   -2.3232   -0.2879    8.3237 H   0  0  0  0  0  0  0  0  0  0  0  0
   -3.6055    3.7359   10.9738 N   0  0  0  0  0  0  0  0  0  0  0  0
   -4.3601    3.9131   10.3668 H   0  0  0  0  0  0  0  0  0  0  0  0
   -2.5147    4.6630   10.9641 C   0  0  0  0  0  0  0  0  0  0  0  0
   -1.2851    3.8621   10.4701 C   0  0  0  0  0  0  0  0  0  0  0  0
   -0.2815    3.9354   11.5988 C   0  0  0  0  0  0  0  0  0  0  0  0
    0.5663    5.2498   11.5396 C   0  0  0  0  0  0  0  0  0  0  0  0
   -0.2145    6.5061   11.9781 C   0  0  0  0  0  0  0  0  0  0  0  0
   -0.7013    7.3224   10.7365 C   0  0  0  0  0  0  0  0  0  0  0  0
   -2.2275    7.2366   10.7180 C   0  0  0  0  0  0  0  0  0  0  0  0
   -2.7941    5.9180   10.1258 C   0  0  0  0  0  0  0  0  0  0  0  0
   -3.9397    2.1258   15.8511 S   0  0  0  0  0  0  0  0  0  0  0  0
   -5.7066    2.0828   16.2577 C   0  0  0  0  0  0  0  0  0  0  0  0
   -5.9962    0.7743   16.9269 C   0  0  0  0  0  0  0  0  0  0  0  0
   -4.8687    0.1714   17.4339 O   0  0  0  0  0  0  0  0  0  0  0  0
   -4.4727    0.7431   18.1100 H   0  0  0  0  0  0  0  0  0  0  0  0
 23 22  1  0  0  0
 23 24  1  0  0  0
 22 21  1  0  0  0
 21 20  1  0  0  0
 29 28  1  0  0  0
 24 25  1  0  0  0
 28 27  1  0  0  0
 20 19  1  0  0  0
 25 18  1  0  0  0
 27 26  1  0  0  0
 19 18  1  0  0  0
 18 16  1  0  0  0
  1  2  1  0  0  0
 26  3  1  0  0  0
  2  3  2  0  0  0
  2  6  1  0  0  0
 16  6  1  0  0  0
  3  4  1  0  0  0
  6  7  2  0  0  0
  4  5  1  0  0  0
  4  8  2  0  0  0
  7  8  1  0  0  0
  7 10  1  0  0  0
 12 10  1  0  0  0
  8  9  1  0  0  0
 11 10  2  0  0  0
 10 13  2  0  0  0
 29 30  1  0  0  0
 12 14  1  0  0  0
 12 15  1  0  0  0
 16 17  1  0  0  0
M  END
> <minimizedAffinity>
-7.55341

$$$$
4Q08_V90_A_305


 30 31  0  0  0  0  0  0  0  0999 V2000
   -3.4201    0.4871   13.0465 F   0  0  0  0  0  0  0  0  0  0  0  0
   -3.6755    1.4963   12.2298 C   0  0  0  0  0  0  0  0  0  0  0  0
   -4.0937    1.1133   10.9290 C   0  0  0  0  0  0  0  0  0  0  0  0
   -4.1703    2.2177   10.0049 C   0  0  0  0  0  0  0  0  0  0  0  0
   -4.5343    2.0212    8.7424 F   0  0  0  0  0  0  0  0  0  0  0  0
   -3.5917    2.8005   12.6793 C   0  0  0  0  0  0  0  0  0  0  0  0
   -3.8173    3.8625   11.7622 C   0  0  0  0  0  0  0  0  0  0  0  0
   -4.0874    3.5313   10.4802 C   0  0  0  0  0  0  0  0  0  0  0  0
   -4.2818    4.4724    9.5357 F   0  0  0  0  0  0  0  0  0  0  0  0
   -3.6557    5.5819   12.1324 S   0  0  0  0  0  0  0  0  0  0  0  0
   -5.0278    6.0333   12.2792 O   0  0  0  0  0  0  0  0  0  0  0  0
   -2.8646    5.7899   13.4824 N   0  0  0  0  0  0  0  0  0  0  0  0
   -2.9049    6.1646   11.0209 O   0  0  0  0  0  0  0  0  0  0  0  0
   -3.3936    5.3814   14.2529 H   0  0  0  0  0  0  0  0  0  0  0  0
   -2.7351    6.7877   13.6503 H   0  0  0  0  0  0  0  0  0  0  0  0
   -3.2822    2.9724   14.0401 N   0  0  0  0  0  0  0  0  0  0  0  0
   -2.3812    3.2991   14.2653 H   0  0  0  0  0  0  0  0  0  0  0  0
   -4.1811    2.7072   15.1222 C   0  0  0  0  0  0  0  0  0  0  0  0
   -3.4275    1.7418   16.0695 C   0  0  0  0  0  0  0  0  0  0  0  0
   -4.2761    0.4913   16.1223 C   0  0  0  0  0  0  0  0  0  0  0  0
   -5.4247    0.6116   17.1789 C   0  0  0  0  0  0  0  0  0  0  0  0
   -6.5786    1.5329   16.7315 C   0  0  0  0  0  0  0  0  0  0  0  0
   -6.4575    2.9425   17.3972 C   0  0  0  0  0  0  0  0  0  0  0  0
   -6.1594    3.9395   16.2774 C   0  0  0  0  0  0  0  0  0  0  0  0
   -4.6748    3.9794   15.8249 C   0  0  0  0  0  0  0  0  0  0  0  0
   -4.2751   -0.5545   10.4252 S   0  0  0  0  0  0  0  0  0  0  0  0
   -2.5957   -1.2388   10.4507 C   0  0  0  0  0  0  0  0  0  0  0  0
   -1.6666   -0.2069    9.8887 C   0  0  0  0  0  0  0  0  0  0  0  0
   -0.7687    0.2668   10.8166 O   0  0  0  0  0  0  0  0  0  0  0  0
   -0.2110   -0.4629   11.1288 H   0  0  0  0  0  0  0  0  0  0  0  0
 23 22  1  0  0  0
 23 24  1  0  0  0
 22 21  1  0  0  0
 21 20  1  0  0  0
 29 28  1  0  0  0
 24 25  1  0  0  0
 28 27  1  0  0  0
 20 19  1  0  0  0
 25 18  1  0  0  0
 27 26  1  0  0  0
 19 18  1  0  0  0
 18 16  1  0  0  0
  1  2  1  0  0  0
 26  3  1  0  0  0
  2  3  2  0  0  0
  2  6  1  0  0  0
 16  6  1  0  0  0
  3  4  1  0  0  0
  6  7  2  0  0  0
  4  5  1  0  0  0
  4  8  2  0  0  0
  7  8  1  0  0  0
  7 10  1  0  0  0
 12 10  1  0  0  0
  8  9  1  0  0  0
 11 10  2  0  0  0
 10 13  2  0  0  0
 29 30  1  0  0  0
 12 14  1  0  0  0
 12 15  1  0  0  0
 16 17  1  0  0  0
M  END
> <minimizedAffinity>
-7.22690

$$$$
4Q08_V90_A_305


 30 31  0  0  0  0  0  0  0  0999 V2000
   -2.3649    3.4073   10.0717 F   0  0  0  0  0  0  0  0  0  0  0  0
   -2.9067    2.9271   11.1792 C   0  0  0  0  0  0  0  0  0  0  0  0
   -2.9646    1.5107   11.2433 C   0  0  0  0  0  0  0  0  0  0  0  0
   -3.7354    1.0200   12.3591 C   0  0  0  0  0  0  0  0  0  0  0  0
   -3.8956   -0.2849   12.5507 F   0  0  0  0  0  0  0  0  0  0  0  0
   -3.3061    3.7794   12.1911 C   0  0  0  0  0  0  0  0  0  0  0  0
   -3.9357    3.2356   13.3433 C   0  0  0  0  0  0  0  0  0  0  0  0
   -4.1266    1.8983   13.3758 C   0  0  0  0  0  0  0  0  0  0  0  0
   -4.7451    1.3002   14.4129 F   0  0  0  0  0  0  0  0  0  0  0  0
   -4.5979    4.1761   14.6837 S   0  0  0  0  0  0  0  0  0  0  0  0
   -5.8664    4.6616   14.1705 O   0  0  0  0  0  0  0  0  0  0  0  0
   -4.8344    3.2584   15.9460 N   0  0  0  0  0  0  0  0  0  0  0  0
   -3.5980    5.1979   14.9917 O   0  0  0  0  0  0  0  0  0  0  0  0
   -5.5324    2.5484   15.7242 H   0  0  0  0  0  0  0  0  0  0  0  0
   -5.1651    3.8290   16.7241 H   0  0  0  0  0  0  0  0  0  0  0  0
   -3.0500    5.1476   11.9914 N   0  0  0  0  0  0  0  0  0  0  0  0
   -2.1226    5.4590   12.1021 H   0  0  0  0  0  0  0  0  0  0  0  0
   -4.0389    6.1208   11.6388 C   0  0  0  0  0  0  0  0  0  0  0  0
   -3.5147    7.4714   12.1850 C   0  0  0  0  0  0  0  0  0  0  0  0
   -4.5666    7.9409   13.1646 C   0  0  0  0  0  0  0  0  0  0  0  0
   -5.7336    8.6981   12.4471 C   0  0  0  0  0  0  0  0  0  0  0  0
   -6.6863    7.7659   11.6702 C   0  0  0  0  0  0  0  0  0  0  0  0
   -6.3621    7.7854   10.1407 C   0  0  0  0  0  0  0  0  0  0  0  0
   -5.8368    6.3961    9.7793 C   0  0  0  0  0  0  0  0  0  0  0  0
   -4.3449    6.1557   10.1351 C   0  0  0  0  0  0  0  0  0  0  0  0
   -2.3636    0.4615    9.9760 S   0  0  0  0  0  0  0  0  0  0  0  0
   -3.8473   -0.2263    9.1918 C   0  0  0  0  0  0  0  0  0  0  0  0
   -4.3938    0.8037    8.2514 C   0  0  0  0  0  0  0  0  0  0  0  0
   -4.5813    0.3196    6.9778 O   0  0  0  0  0  0  0  0  0  0  0  0
   -5.2281   -0.4030    6.9985 H   0  0  0  0  0  0  0  0  0  0  0  0
 23 22  1  0  0  0
 23 24  1  0  0  0
 22 21  1  0  0  0
 21 20  1  0  0  0
 29 28  1  0  0  0
 24 25  1  0  0  0
 28 27  1  0  0  0
 20 19  1  0  0  0
 25 18  1  0  0  0
 27 26  1  0  0  0
 19 18  1  0  0  0
 18 16  1  0  0  0
  1  2  1  0  0  0
 26  3  1  0  0  0
  2  3  2  0  0  0
  2  6  1  0  0  0
 16  6  1  0  0  0
  3  4  1  0  0  0
  6  7  2  0  0  0
  4  5  1  0  0  0
  4  8  2  0  0  0
  7  8  1  0  0  0
  7 10  1  0  0  0
 12 10  1  0  0  0
  8  9  1  0  0  0
 11 10  2  0  0  0
 10 13  2  0  0  0
 29 30  1  0  0  0
 12 14  1  0  0  0
 12 15  1  0  0  0
 16 17  1  0  0  0
M  END
> <minimizedAffinity>
-6.90932

$$$$
