3OE5_611_A_223


 36 38  0  0  0  0  0  0  0  0999 V2000
   20.5653  -30.4741   11.1071 C   0  0  0  0  0  0  0  0  0  0  0  0
   20.5117  -29.7375   10.0327 C   0  0  0  0  0  0  0  0  0  0  0  0
   20.6232  -30.9387   13.5513 C   0  0  0  0  0  0  0  0  0  0  0  0
   19.2848  -31.6800   13.3567 C   0  0  0  0  0  0  0  0  0  0  0  0
   18.2790  -30.5626   13.0691 C   0  0  0  0  0  0  0  0  0  0  0  0
   19.0676  -29.4618   12.5949 O   0  0  0  0  0  0  0  0  0  0  0  0
   20.4056  -29.8699   12.4366 C   0  0  0  0  0  0  0  0  0  0  0  0
   20.6534  -30.2610   14.8054 O   0  0  0  0  0  0  0  0  0  0  0  0
   18.8710  -32.4197   14.5124 O   0  0  0  0  0  0  0  0  0  0  0  0
   19.8705  -29.6938   14.8853 H   0  0  0  0  0  0  0  0  0  0  0  0
   18.7762  -31.8160   15.2657 H   0  0  0  0  0  0  0  0  0  0  0  0
   17.1061  -31.1447   11.8361 S   0  0  0  0  0  0  0  0  0  0  0  0
   15.5918  -30.8944   12.4965 C   0  0  0  0  0  0  0  0  0  0  0  0
   15.3704  -29.8795   13.5186 C   0  0  0  0  0  0  0  0  0  0  0  0
   14.0869  -29.6666   14.0362 C   0  0  0  0  0  0  0  0  0  0  0  0
   12.9715  -30.3763   13.6577 N   0  0  0  0  0  0  0  0  0  0  0  0
   13.1791  -31.3513   12.6909 C   0  0  0  0  0  0  0  0  0  0  0  0
   14.4187  -31.6124   12.1145 C   0  0  0  0  0  0  0  0  0  0  0  0
   20.6464  -30.2887    8.6518 C   0  0  0  0  0  0  0  0  0  0  0  0
   21.6226  -29.5800    7.8642 N   0  0  0  0  0  0  0  0  0  0  0  0
   22.4828  -30.1190    6.9807 C   0  0  0  0  0  0  0  0  0  0  0  0
   22.4011  -31.3463    6.6810 O   0  0  0  0  0  0  0  0  0  0  0  0
   21.6645  -28.6038    7.9844 H   0  0  0  0  0  0  0  0  0  0  0  0
   23.5529  -29.3011    6.3557 C   0  0  0  0  0  0  0  0  0  0  0  0
   23.6039  -27.8887    6.5291 C   0  0  0  0  0  0  0  0  0  0  0  0
   24.6914  -27.2078    5.9171 C   0  0  0  0  0  0  0  0  0  0  0  0
   25.6574  -27.8065    5.1587 C   0  0  0  0  0  0  0  0  0  0  0  0
   25.5816  -29.2105    5.0240 C   0  0  0  0  0  0  0  0  0  0  0  0
   24.5359  -29.9526    5.6154 C   0  0  0  0  0  0  0  0  0  0  0  0
   22.7054  -27.1631    7.2038 O   0  0  0  0  0  0  0  0  0  0  0  0
   24.7617  -25.8362    6.0734 O   0  0  0  0  0  0  0  0  0  0  0  0
   21.9781  -27.5848    7.6175 H   0  0  0  0  0  0  0  0  0  0  0  0
   24.1173  -25.3895    6.5864 H   0  0  0  0  0  0  0  0  0  0  0  0
   26.5697  -29.9142    4.2369 N   0  0  0  0  0  0  0  0  0  0  0  0
   26.6642  -31.1128    4.2703 O   0  0  0  0  0  0  0  0  0  0  0  0
   27.3212  -29.2251    3.5625 O   0  0  0  0  0  0  0  0  0  0  0  0
  3  4  1  0  0  0
  3  7  1  0  0  0
  3  8  1  0  0  0
  4  5  1  0  0  0
  4  9  1  0  0  0
  5  6  1  0  0  0
  5 12  1  0  0  0
  6  7  1  0  0  0
  7  1  1  0  0  0
  1  2  2  0  0  0
 12 13  1  0  0  0
  2 19  1  0  0  0
 13 14  2  0  0  0
 13 18  1  0  0  0
 19 20  1  0  0  0
 20 21  1  0  0  0
 21 24  1  0  0  0
 21 22  2  0  0  0
 24 25  2  0  0  0
 24 29  1  0  0  0
 25 26  1  0  0  0
 25 30  1  0  0  0
 26 27  2  0  0  0
 26 31  1  0  0  0
 27 28  1  0  0  0
 28 29  2  0  0  0
 28 34  1  0  0  0
 34 35  2  0  0  0
 34 36  1  0  0  0
 14 15  1  0  0  0
 15 16  2  0  0  0
 16 17  1  0  0  0
 17 18  2  0  0  0
  8 10  1  0  0  0
  9 11  1  0  0  0
 20 23  1  0  0  0
 30 32  1  0  0  0
 31 33  1  0  0  0
M  CHG 1  34   1
M  CHG 1  36  -1
M  END
> <minimizedAffinity>
-10.98211

$$$$
3OE5_611_A_223


 36 38  0  0  0  0  0  0  0  0999 V2000
   19.8573  -30.2663   10.5278 C   0  0  0  0  0  0  0  0  0  0  0  0
   20.5823  -29.8680    9.5199 C   0  0  0  0  0  0  0  0  0  0  0  0
   20.5427  -30.3120   12.9197 C   0  0  0  0  0  0  0  0  0  0  0  0
   19.4142  -31.3408   13.1361 C   0  0  0  0  0  0  0  0  0  0  0  0
   18.1300  -30.5218   12.9845 C   0  0  0  0  0  0  0  0  0  0  0  0
   18.5090  -29.3694   12.2186 O   0  0  0  0  0  0  0  0  0  0  0  0
   19.8413  -29.5052   11.7842 C   0  0  0  0  0  0  0  0  0  0  0  0
   20.6726  -29.4520   14.0495 O   0  0  0  0  0  0  0  0  0  0  0  0
   19.4468  -31.9571   14.4296 O   0  0  0  0  0  0  0  0  0  0  0  0
   19.8108  -29.0578   14.2565 H   0  0  0  0  0  0  0  0  0  0  0  0
   19.3702  -31.2748   15.1148 H   0  0  0  0  0  0  0  0  0  0  0  0
   16.8996  -31.5278   12.1426 S   0  0  0  0  0  0  0  0  0  0  0  0
   15.4163  -30.9508   12.6514 C   0  0  0  0  0  0  0  0  0  0  0  0
   14.1723  -31.5665   12.2076 C   0  0  0  0  0  0  0  0  0  0  0  0
   12.9416  -31.0853   12.6708 C   0  0  0  0  0  0  0  0  0  0  0  0
   12.7999  -30.0238   13.5335 N   0  0  0  0  0  0  0  0  0  0  0  0
   13.9823  -29.4275   13.9517 C   0  0  0  0  0  0  0  0  0  0  0  0
   15.2445  -29.8566   13.5518 C   0  0  0  0  0  0  0  0  0  0  0  0
   20.6297  -30.5822    8.2097 C   0  0  0  0  0  0  0  0  0  0  0  0
   21.7771  -30.2157    7.4193 N   0  0  0  0  0  0  0  0  0  0  0  0
   22.4626  -31.0172    6.5834 C   0  0  0  0  0  0  0  0  0  0  0  0
   22.0423  -32.1851    6.3344 O   0  0  0  0  0  0  0  0  0  0  0  0
   22.0910  -29.2860    7.4986 H   0  0  0  0  0  0  0  0  0  0  0  0
   23.7286  -30.5646    5.9531 C   0  0  0  0  0  0  0  0  0  0  0  0
   24.6187  -31.4860    5.3318 C   0  0  0  0  0  0  0  0  0  0  0  0
   25.7843  -30.9411    4.7274 C   0  0  0  0  0  0  0  0  0  0  0  0
   26.1170  -29.6159    4.7318 C   0  0  0  0  0  0  0  0  0  0  0  0
   25.2005  -28.7319    5.3434 C   0  0  0  0  0  0  0  0  0  0  0  0
   24.0164  -29.2022    5.9521 C   0  0  0  0  0  0  0  0  0  0  0  0
   24.4483  -32.8120    5.2901 O   0  0  0  0  0  0  0  0  0  0  0  0
   26.6622  -31.8173    4.1171 O   0  0  0  0  0  0  0  0  0  0  0  0
   23.6894  -33.1993    5.6802 H   0  0  0  0  0  0  0  0  0  0  0  0
   26.4688  -32.7338    4.0937 H   0  0  0  0  0  0  0  0  0  0  0  0
   25.4841  -27.3146    5.3859 N   0  0  0  0  0  0  0  0  0  0  0  0
   26.4295  -26.8441    4.8101 O   0  0  0  0  0  0  0  0  0  0  0  0
   24.7317  -26.6280    6.0619 O   0  0  0  0  0  0  0  0  0  0  0  0
  3  4  1  0  0  0
  3  7  1  0  0  0
  3  8  1  0  0  0
  4  5  1  0  0  0
  4  9  1  0  0  0
  5  6  1  0  0  0
  5 12  1  0  0  0
  6  7  1  0  0  0
  7  1  1  0  0  0
  1  2  2  0  0  0
 12 13  1  0  0  0
  2 19  1  0  0  0
 13 14  2  0  0  0
 13 18  1  0  0  0
 19 20  1  0  0  0
 20 21  1  0  0  0
 21 24  1  0  0  0
 21 22  2  0  0  0
 24 25  2  0  0  0
 24 29  1  0  0  0
 25 26  1  0  0  0
 25 30  1  0  0  0
 26 27  2  0  0  0
 26 31  1  0  0  0
 27 28  1  0  0  0
 28 29  2  0  0  0
 28 34  1  0  0  0
 34 35  2  0  0  0
 34 36  1  0  0  0
 14 15  1  0  0  0
 15 16  2  0  0  0
 16 17  1  0  0  0
 17 18  2  0  0  0
  8 10  1  0  0  0
  9 11  1  0  0  0
 20 23  1  0  0  0
 30 32  1  0  0  0
 31 33  1  0  0  0
M  CHG 1  34   1
M  CHG 1  36  -1
M  END
> <minimizedAffinity>
-9.88460

$$$$
3OE5_611_A_223


 36 38  0  0  0  0  0  0  0  0999 V2000
   20.4646  -30.5058   10.6274 C   0  0  0  0  0  0  0  0  0  0  0  0
   20.2866  -30.3699    9.3429 C   0  0  0  0  0  0  0  0  0  0  0  0
   20.3947  -29.2089   12.7502 C   0  0  0  0  0  0  0  0  0  0  0  0
   20.7196  -30.5330   13.4714 C   0  0  0  0  0  0  0  0  0  0  0  0
   19.4380  -31.3579   13.3301 C   0  0  0  0  0  0  0  0  0  0  0  0
   18.7547  -30.7974   12.1999 O   0  0  0  0  0  0  0  0  0  0  0  0
   19.5725  -29.8329   11.5811 C   0  0  0  0  0  0  0  0  0  0  0  0
   19.5079  -28.4084   13.5284 O   0  0  0  0  0  0  0  0  0  0  0  0
   21.0362  -30.3621   14.8587 O   0  0  0  0  0  0  0  0  0  0  0  0
   18.7269  -28.9312   13.7686 H   0  0  0  0  0  0  0  0  0  0  0  0
   20.2866  -29.9460   15.3125 H   0  0  0  0  0  0  0  0  0  0  0  0
   19.8856  -33.0807   13.0731 S   0  0  0  0  0  0  0  0  0  0  0  0
   21.5478  -33.1461   13.2309 C   0  0  0  0  0  0  0  0  0  0  0  0
   22.1733  -33.5831   14.4724 C   0  0  0  0  0  0  0  0  0  0  0  0
   23.5680  -33.6589   14.5721 C   0  0  0  0  0  0  0  0  0  0  0  0
   24.4362  -33.3253   13.5592 N   0  0  0  0  0  0  0  0  0  0  0  0
   23.8450  -32.8989   12.3771 C   0  0  0  0  0  0  0  0  0  0  0  0
   22.4683  -32.8127   12.1922 C   0  0  0  0  0  0  0  0  0  0  0  0
   21.1429  -31.0402    8.3200 C   0  0  0  0  0  0  0  0  0  0  0  0
   22.0678  -30.1329    7.6900 N   0  0  0  0  0  0  0  0  0  0  0  0
   22.6348  -30.2808    6.4785 C   0  0  0  0  0  0  0  0  0  0  0  0
   22.2757  -31.2282    5.7194 O   0  0  0  0  0  0  0  0  0  0  0  0
   22.3092  -29.3239    8.1963 H   0  0  0  0  0  0  0  0  0  0  0  0
   23.7007  -29.3577    6.0129 C   0  0  0  0  0  0  0  0  0  0  0  0
   23.6881  -27.9762    6.3574 C   0  0  0  0  0  0  0  0  0  0  0  0
   24.7761  -27.1902    5.8891 C   0  0  0  0  0  0  0  0  0  0  0  0
   25.7998  -27.6595    5.1154 C   0  0  0  0  0  0  0  0  0  0  0  0
   25.7853  -29.0383    4.8091 C   0  0  0  0  0  0  0  0  0  0  0  0
   24.7425  -29.8812    5.2518 C   0  0  0  0  0  0  0  0  0  0  0  0
   22.7308  -27.3685    7.0668 O   0  0  0  0  0  0  0  0  0  0  0  0
   24.7851  -25.8463    6.2127 O   0  0  0  0  0  0  0  0  0  0  0  0
   22.0016  -27.8613    7.3884 H   0  0  0  0  0  0  0  0  0  0  0  0
   24.1001  -25.4872    6.7415 H   0  0  0  0  0  0  0  0  0  0  0  0
   26.8365  -29.6076    3.9955 N   0  0  0  0  0  0  0  0  0  0  0  0
   27.5037  -28.9268    3.2620 O   0  0  0  0  0  0  0  0  0  0  0  0
   26.9887  -30.8184    4.0702 O   0  0  0  0  0  0  0  0  0  0  0  0
  3  4  1  0  0  0
  3  7  1  0  0  0
  3  8  1  0  0  0
  4  5  1  0  0  0
  4  9  1  0  0  0
  5  6  1  0  0  0
  5 12  1  0  0  0
  6  7  1  0  0  0
  7  1  1  0  0  0
  1  2  2  0  0  0
 12 13  1  0  0  0
  2 19  1  0  0  0
 13 14  2  0  0  0
 13 18  1  0  0  0
 19 20  1  0  0  0
 20 21  1  0  0  0
 21 24  1  0  0  0
 21 22  2  0  0  0
 24 25  2  0  0  0
 24 29  1  0  0  0
 25 26  1  0  0  0
 25 30  1  0  0  0
 26 27  2  0  0  0
 26 31  1  0  0  0
 27 28  1  0  0  0
 28 29  2  0  0  0
 28 34  1  0  0  0
 34 35  2  0  0  0
 34 36  1  0  0  0
 14 15  1  0  0  0
 15 16  2  0  0  0
 16 17  1  0  0  0
 17 18  2  0  0  0
  8 10  1  0  0  0
  9 11  1  0  0  0
 20 23  1  0  0  0
 30 32  1  0  0  0
 31 33  1  0  0  0
M  CHG 1  34   1
M  CHG 1  36  -1
M  END
> <minimizedAffinity>
-8.67284

$$$$
3OE5_611_A_223


 36 38  0  0  0  0  0  0  0  0999 V2000
   19.8100  -29.0946   11.1498 C   0  0  0  0  0  0  0  0  0  0  0  0
   20.8481  -29.4958   10.4704 C   0  0  0  0  0  0  0  0  0  0  0  0
   20.5268  -30.4540   13.1072 C   0  0  0  0  0  0  0  0  0  0  0  0
   19.4071  -31.4430   12.7237 C   0  0  0  0  0  0  0  0  0  0  0  0
   18.1163  -30.6935   13.0628 C   0  0  0  0  0  0  0  0  0  0  0  0
   18.4787  -29.3053   13.0641 O   0  0  0  0  0  0  0  0  0  0  0  0
   19.8059  -29.1607   12.6174 C   0  0  0  0  0  0  0  0  0  0  0  0
   20.6663  -30.3657   14.5235 O   0  0  0  0  0  0  0  0  0  0  0  0
   19.4601  -32.6739   13.4559 O   0  0  0  0  0  0  0  0  0  0  0  0
   19.8051  -30.1635   14.9213 H   0  0  0  0  0  0  0  0  0  0  0  0
   19.3885  -32.4887   14.4053 H   0  0  0  0  0  0  0  0  0  0  0  0
   16.8809  -31.0764   11.8131 S   0  0  0  0  0  0  0  0  0  0  0  0
   15.4007  -30.8203   12.5448 C   0  0  0  0  0  0  0  0  0  0  0  0
   14.2485  -31.6567   12.2344 C   0  0  0  0  0  0  0  0  0  0  0  0
   13.0256  -31.4430   12.8822 C   0  0  0  0  0  0  0  0  0  0  0  0
   12.8050  -30.4569   13.8150 N   0  0  0  0  0  0  0  0  0  0  0  0
   13.8975  -29.6509   14.1071 C   0  0  0  0  0  0  0  0  0  0  0  0
   15.1498  -29.8093   13.5207 C   0  0  0  0  0  0  0  0  0  0  0  0
   20.9263  -29.4385    8.9807 C   0  0  0  0  0  0  0  0  0  0  0  0
   20.8031  -30.7366    8.3682 N   0  0  0  0  0  0  0  0  0  0  0  0
   21.4314  -31.1602    7.2561 C   0  0  0  0  0  0  0  0  0  0  0  0
   22.3171  -30.4378    6.7116 O   0  0  0  0  0  0  0  0  0  0  0  0
   20.1987  -31.3779    8.8072 H   0  0  0  0  0  0  0  0  0  0  0  0
   21.0913  -32.4643    6.6327 C   0  0  0  0  0  0  0  0  0  0  0  0
   21.9990  -33.5609    6.6646 C   0  0  0  0  0  0  0  0  0  0  0  0
   21.5577  -34.7741    6.0695 C   0  0  0  0  0  0  0  0  0  0  0  0
   20.3517  -34.9444    5.4504 C   0  0  0  0  0  0  0  0  0  0  0  0
   19.4728  -33.8386    5.4543 C   0  0  0  0  0  0  0  0  0  0  0  0
   19.8402  -32.6067    6.0384 C   0  0  0  0  0  0  0  0  0  0  0  0
   23.2275  -33.5281    7.1927 O   0  0  0  0  0  0  0  0  0  0  0  0
   22.4223  -35.8525    6.0900 O   0  0  0  0  0  0  0  0  0  0  0  0
   23.5451  -32.7420    7.5917 H   0  0  0  0  0  0  0  0  0  0  0  0
   23.2587  -35.7745    6.5051 H   0  0  0  0  0  0  0  0  0  0  0  0
   18.1780  -33.9440    4.8192 N   0  0  0  0  0  0  0  0  0  0  0  0
   17.3927  -34.8009    5.1287 O   0  0  0  0  0  0  0  0  0  0  0  0
   17.9384  -33.1374    3.9323 O   0  0  0  0  0  0  0  0  0  0  0  0
  3  4  1  0  0  0
  3  7  1  0  0  0
  3  8  1  0  0  0
  4  5  1  0  0  0
  4  9  1  0  0  0
  5  6  1  0  0  0
  5 12  1  0  0  0
  6  7  1  0  0  0
  7  1  1  0  0  0
  1  2  2  0  0  0
 12 13  1  0  0  0
  2 19  1  0  0  0
 13 14  2  0  0  0
 13 18  1  0  0  0
 19 20  1  0  0  0
 20 21  1  0  0  0
 21 24  1  0  0  0
 21 22  2  0  0  0
 24 25  2  0  0  0
 24 29  1  0  0  0
 25 26  1  0  0  0
 25 30  1  0  0  0
 26 27  2  0  0  0
 26 31  1  0  0  0
 27 28  1  0  0  0
 28 29  2  0  0  0
 28 34  1  0  0  0
 34 35  2  0  0  0
 34 36  1  0  0  0
 14 15  1  0  0  0
 15 16  2  0  0  0
 16 17  1  0  0  0
 17 18  2  0  0  0
  8 10  1  0  0  0
  9 11  1  0  0  0
 20 23  1  0  0  0
 30 32  1  0  0  0
 31 33  1  0  0  0
M  CHG 1  34   1
M  CHG 1  36  -1
M  END
> <minimizedAffinity>
-8.55895

$$$$
3OE5_611_A_223


 36 38  0  0  0  0  0  0  0  0999 V2000
   21.0275  -31.8519   11.3466 C   0  0  0  0  0  0  0  0  0  0  0  0
   21.5697  -32.7453   10.5670 C   0  0  0  0  0  0  0  0  0  0  0  0
   21.1469  -29.4047   11.7825 C   0  0  0  0  0  0  0  0  0  0  0  0
   20.0985  -29.6362   12.8898 C   0  0  0  0  0  0  0  0  0  0  0  0
   18.8135  -29.9601   12.1237 C   0  0  0  0  0  0  0  0  0  0  0  0
   19.2505  -30.4159   10.8354 O   0  0  0  0  0  0  0  0  0  0  0  0
   20.6536  -30.5311   10.8234 C   0  0  0  0  0  0  0  0  0  0  0  0
   20.9343  -28.1538   11.1320 O   0  0  0  0  0  0  0  0  0  0  0  0
   19.8899  -28.4897   13.7242 O   0  0  0  0  0  0  0  0  0  0  0  0
   20.0155  -28.1008   10.8256 H   0  0  0  0  0  0  0  0  0  0  0  0
   19.5956  -27.7428   13.1797 H   0  0  0  0  0  0  0  0  0  0  0  0
   17.9072  -31.2252   13.0252 S   0  0  0  0  0  0  0  0  0  0  0  0
   16.3012  -30.7692   12.9558 C   0  0  0  0  0  0  0  0  0  0  0  0
   15.3435  -31.4949   12.1312 C   0  0  0  0  0  0  0  0  0  0  0  0
   13.9963  -31.1135   12.1119 C   0  0  0  0  0  0  0  0  0  0  0  0
   13.4806  -30.0554   12.8229 N   0  0  0  0  0  0  0  0  0  0  0  0
   14.3913  -29.3546   13.6027 C   0  0  0  0  0  0  0  0  0  0  0  0
   15.7415  -29.6805   13.6900 C   0  0  0  0  0  0  0  0  0  0  0  0
   21.9556  -34.1118   11.0282 C   0  0  0  0  0  0  0  0  0  0  0  0
   23.3803  -34.2655   11.1769 N   0  0  0  0  0  0  0  0  0  0  0  0
   24.0725  -34.2386   12.3307 C   0  0  0  0  0  0  0  0  0  0  0  0
   23.4611  -34.1919   13.4383 O   0  0  0  0  0  0  0  0  0  0  0  0
   23.8994  -34.4041   10.3520 H   0  0  0  0  0  0  0  0  0  0  0  0
   25.5573  -34.2422   12.3344 C   0  0  0  0  0  0  0  0  0  0  0  0
   26.2953  -34.5823   13.5037 C   0  0  0  0  0  0  0  0  0  0  0  0
   27.7121  -34.5893   13.3864 C   0  0  0  0  0  0  0  0  0  0  0  0
   28.4013  -34.2649   12.2523 C   0  0  0  0  0  0  0  0  0  0  0  0
   27.6335  -33.9495   11.1093 C   0  0  0  0  0  0  0  0  0  0  0  0
   26.2221  -33.9353   11.1501 C   0  0  0  0  0  0  0  0  0  0  0  0
   25.7598  -34.8761   14.6936 O   0  0  0  0  0  0  0  0  0  0  0  0
   28.4489  -34.9179   14.5089 O   0  0  0  0  0  0  0  0  0  0  0  0
   24.8289  -34.8792   14.8005 H   0  0  0  0  0  0  0  0  0  0  0  0
   28.0120  -35.1461   15.3058 H   0  0  0  0  0  0  0  0  0  0  0  0
   28.2932  -33.5970    9.8718 N   0  0  0  0  0  0  0  0  0  0  0  0
   27.9227  -34.0338    8.8141 O   0  0  0  0  0  0  0  0  0  0  0  0
   29.2635  -32.8588    9.9622 O   0  0  0  0  0  0  0  0  0  0  0  0
  3  4  1  0  0  0
  3  7  1  0  0  0
  3  8  1  0  0  0
  4  5  1  0  0  0
  4  9  1  0  0  0
  5  6  1  0  0  0
  5 12  1  0  0  0
  6  7  1  0  0  0
  7  1  1  0  0  0
  1  2  2  0  0  0
 12 13  1  0  0  0
  2 19  1  0  0  0
 13 14  2  0  0  0
 13 18  1  0  0  0
 19 20  1  0  0  0
 20 21  1  0  0  0
 21 24  1  0  0  0
 21 22  2  0  0  0
 24 25  2  0  0  0
 24 29  1  0  0  0
 25 26  1  0  0  0
 25 30  1  0  0  0
 26 27  2  0  0  0
 26 31  1  0  0  0
 27 28  1  0  0  0
 28 29  2  0  0  0
 28 34  1  0  0  0
 34 35  2  0  0  0
 34 36  1  0  0  0
 14 15  1  0  0  0
 15 16  2  0  0  0
 16 17  1  0  0  0
 17 18  2  0  0  0
  8 10  1  0  0  0
  9 11  1  0  0  0
 20 23  1  0  0  0
 30 32  1  0  0  0
 31 33  1  0  0  0
M  CHG 1  34   1
M  CHG 1  36  -1
M  END
> <minimizedAffinity>
-8.16813

$$$$
3OE5_611_A_223


 36 38  0  0  0  0  0  0  0  0999 V2000
   20.7025  -30.8856   10.2008 C   0  0  0  0  0  0  0  0  0  0  0  0
   21.3107  -31.1284    9.0733 C   0  0  0  0  0  0  0  0  0  0  0  0
   21.2644  -29.1389   11.8820 C   0  0  0  0  0  0  0  0  0  0  0  0
   20.4428  -29.9661   12.8917 C   0  0  0  0  0  0  0  0  0  0  0  0
   18.9949  -29.7872   12.4284 C   0  0  0  0  0  0  0  0  0  0  0  0
   19.0873  -29.4162   11.0456 O   0  0  0  0  0  0  0  0  0  0  0  0
   20.4260  -29.5046   10.6188 C   0  0  0  0  0  0  0  0  0  0  0  0
   21.1078  -27.7418   12.1198 O   0  0  0  0  0  0  0  0  0  0  0  0
   20.5792  -29.5112   14.2440 O   0  0  0  0  0  0  0  0  0  0  0  0
   20.1635  -27.5208   12.1383 H   0  0  0  0  0  0  0  0  0  0  0  0
   20.2917  -28.5868   14.3047 H   0  0  0  0  0  0  0  0  0  0  0  0
   18.1179  -31.3399   12.6625 S   0  0  0  0  0  0  0  0  0  0  0  0
   16.5015  -30.9341   12.7844 C   0  0  0  0  0  0  0  0  0  0  0  0
   16.0516  -29.8816   13.6864 C   0  0  0  0  0  0  0  0  0  0  0  0
   14.6957  -29.5378   13.7499 C   0  0  0  0  0  0  0  0  0  0  0  0
   13.7068  -30.1469   13.0137 N   0  0  0  0  0  0  0  0  0  0  0  0
   14.1293  -31.1572   12.1598 C   0  0  0  0  0  0  0  0  0  0  0  0
   15.4589  -31.5461   12.0256 C   0  0  0  0  0  0  0  0  0  0  0  0
   21.6052  -32.5061    8.5795 C   0  0  0  0  0  0  0  0  0  0  0  0
   21.1043  -32.7374    7.2487 N   0  0  0  0  0  0  0  0  0  0  0  0
   21.8123  -33.1764    6.1917 C   0  0  0  0  0  0  0  0  0  0  0  0
   23.0127  -33.5500    6.3410 O   0  0  0  0  0  0  0  0  0  0  0  0
   20.1486  -32.5563    7.0974 H   0  0  0  0  0  0  0  0  0  0  0  0
   21.2165  -33.2145    4.8322 C   0  0  0  0  0  0  0  0  0  0  0  0
   22.0301  -33.1727    3.6643 C   0  0  0  0  0  0  0  0  0  0  0  0
   21.3588  -33.2517    2.4138 C   0  0  0  0  0  0  0  0  0  0  0  0
   20.0034  -33.3313    2.2611 C   0  0  0  0  0  0  0  0  0  0  0  0
   19.2321  -33.3872    3.4432 C   0  0  0  0  0  0  0  0  0  0  0  0
   19.8332  -33.3264    4.7194 C   0  0  0  0  0  0  0  0  0  0  0  0
   23.3620  -33.0497    3.6581 O   0  0  0  0  0  0  0  0  0  0  0  0
   22.1290  -33.2143    1.2666 O   0  0  0  0  0  0  0  0  0  0  0  0
   23.8313  -32.9954    4.4673 H   0  0  0  0  0  0  0  0  0  0  0  0
   23.0623  -33.1597    1.3304 H   0  0  0  0  0  0  0  0  0  0  0  0
   17.7910  -33.4732    3.3609 N   0  0  0  0  0  0  0  0  0  0  0  0
   17.1123  -33.6259    4.3420 O   0  0  0  0  0  0  0  0  0  0  0  0
   17.3043  -33.4139    2.2410 O   0  0  0  0  0  0  0  0  0  0  0  0
  3  4  1  0  0  0
  3  7  1  0  0  0
  3  8  1  0  0  0
  4  5  1  0  0  0
  4  9  1  0  0  0
  5  6  1  0  0  0
  5 12  1  0  0  0
  6  7  1  0  0  0
  7  1  1  0  0  0
  1  2  2  0  0  0
 12 13  1  0  0  0
  2 19  1  0  0  0
 13 14  2  0  0  0
 13 18  1  0  0  0
 19 20  1  0  0  0
 20 21  1  0  0  0
 21 24  1  0  0  0
 21 22  2  0  0  0
 24 25  2  0  0  0
 24 29  1  0  0  0
 25 26  1  0  0  0
 25 30  1  0  0  0
 26 27  2  0  0  0
 26 31  1  0  0  0
 27 28  1  0  0  0
 28 29  2  0  0  0
 28 34  1  0  0  0
 34 35  2  0  0  0
 34 36  1  0  0  0
 14 15  1  0  0  0
 15 16  2  0  0  0
 16 17  1  0  0  0
 17 18  2  0  0  0
  8 10  1  0  0  0
  9 11  1  0  0  0
 20 23  1  0  0  0
 30 32  1  0  0  0
 31 33  1  0  0  0
M  CHG 1  34   1
M  CHG 1  36  -1
M  END
> <minimizedAffinity>
-8.04887

$$$$
