5VCY_DB8_A_401


 37 40  0  0  0  0  0  0  0  0999 V2000
  -14.3428   -4.4588   -1.0730 C   0  0  0  0  0  0  0  0  0  0  0  0
  -17.5889   -6.1195   -0.7270 C   0  0  0  0  0  0  0  0  0  0  0  0
  -18.3585   -3.8221   -2.2076 C   0  0  0  0  0  0  0  0  0  0  0  0
  -15.3114   -5.3816   -0.7571 N   0  0  0  0  0  0  0  0  0  0  0  0
  -14.5972   -3.2805   -1.7646 C   0  0  0  0  0  0  0  0  0  0  0  0
  -19.3099   -4.7515   -1.8387 C   0  0  0  0  0  0  0  0  0  0  0  0
  -18.9204   -5.8919   -1.1057 C   0  0  0  0  0  0  0  0  0  0  0  0
  -15.9356   -3.0294   -2.1749 C   0  0  0  0  0  0  0  0  0  0  0  0
  -16.6133   -5.1468   -1.1235 C   0  0  0  0  0  0  0  0  0  0  0  0
  -16.9664   -3.9997   -1.8520 C   0  0  0  0  0  0  0  0  0  0  0  0
  -21.4272   -3.6317   -1.4620 C   0  0  0  0  0  0  0  0  0  0  0  0
  -20.6504   -4.5080   -2.1894 O   0  0  0  0  0  0  0  0  0  0  0  0
  -12.6202   -1.6595   -2.1826 N   0  0  0  0  0  0  0  0  0  0  0  0
  -13.3979   -2.3295   -1.9851 C   0  0  0  0  0  0  0  0  0  0  0  0
  -16.3587   -1.8374   -2.9774 N   0  0  0  0  0  0  0  0  0  0  0  0
  -15.8984   -1.5949   -3.8132 H   0  0  0  0  0  0  0  0  0  0  0  0
  -20.6864    1.7393   -1.0080 Cl  0  0  0  0  0  0  0  0  0  0  0  0
  -15.5671    0.1558   -0.9724 Cl  0  0  0  0  0  0  0  0  0  0  0  0
  -18.1783    0.8032   -1.1025 C   0  0  0  0  0  0  0  0  0  0  0  0
  -18.7508   -1.1811   -2.9418 C   0  0  0  0  0  0  0  0  0  0  0  0
  -19.8104   -0.2954   -2.4882 C   0  0  0  0  0  0  0  0  0  0  0  0
  -19.4822    0.6729   -1.5705 C   0  0  0  0  0  0  0  0  0  0  0  0
  -17.1637   -0.0406   -1.5419 C   0  0  0  0  0  0  0  0  0  0  0  0
  -17.4624   -1.0605   -2.4814 C   0  0  0  0  0  0  0  0  0  0  0  0
  -21.0928   -0.4127   -2.9531 O   0  0  0  0  0  0  0  0  0  0  0  0
  -21.3861   -1.0883   -4.1957 C   0  0  0  0  0  0  0  0  0  0  0  0
  -19.9616   -6.8287   -0.7311 O   0  0  0  0  0  0  0  0  0  0  0  0
  -20.1957   -7.0356    0.6096 C   0  0  0  0  0  0  0  0  0  0  0  0
  -21.5825   -6.4545    0.8940 C   0  0  0  0  0  0  0  0  0  0  0  0
  -22.6616   -7.4288    0.4171 C   0  0  0  0  0  0  0  0  0  0  0  0
  -26.8631   -6.0572   -3.1162 C   0  0  0  0  0  0  0  0  0  0  0  0
  -24.9698   -7.3217   -0.1522 C   0  0  0  0  0  0  0  0  0  0  0  0
  -23.3703   -6.7657   -1.8269 C   0  0  0  0  0  0  0  0  0  0  0  0
  -26.0904   -6.6980   -0.9578 C   0  0  0  0  0  0  0  0  0  0  0  0
  -24.5192   -6.1208   -2.5743 C   0  0  0  0  0  0  0  0  0  0  0  0
  -23.6526   -6.7457   -0.4261 N   0  0  0  0  0  0  0  0  0  0  0  0
  -25.7984   -6.7265   -2.3626 N   0  0  0  0  0  0  0  0  0  0  0  0
 11 12  1  0  0  0
 21 25  1  0  0  0
 26 25  1  0  0  0
 36 30  1  0  0  0
 29 30  1  0  0  0
 14 13  3  0  0  0
 17 22  1  0  0  0
 18 23  1  0  0  0
  5 14  1  0  0  0
  5  1  2  0  0  0
  4  1  1  0  0  0
 19 23  2  0  0  0
 19 22  1  0  0  0
 24 20  2  0  0  0
 21 20  1  0  0  0
  7  2  2  0  0  0
  2  9  1  0  0  0
  6  3  2  0  0  0
  3 10  1  0  0  0
 29 28  1  0  0  0
 27 28  1  0  0  0
 31 37  1  0  0  0
 36 32  1  0  0  0
 34 32  1  0  0  0
 35 33  1  0  0  0
 33 36  1  0  0  0
 37 34  1  0  0  0
 35 37  1  0  0  0
  9  4  2  0  0  0
 24 15  1  0  0  0
 15  8  1  0  0  0
 12  6  1  0  0  0
 27  7  1  0  0  0
 22 21  2  0  0  0
 23 24  1  0  0  0
  8  5  1  0  0  0
  6  7  1  0  0  0
 10  8  2  0  0  0
 10  9  1  0  0  0
 15 16  1  0  0  0
M  END
> <minimizedAffinity>
-9.15629

$$$$
5VCY_DB8_A_401


 37 40  0  0  0  0  0  0  0  0999 V2000
  -17.2749    1.0253   -1.2381 C   0  0  0  0  0  0  0  0  0  0  0  0
  -14.1203   -0.8237   -1.0271 C   0  0  0  0  0  0  0  0  0  0  0  0
  -15.7257   -2.7289   -2.3891 C   0  0  0  0  0  0  0  0  0  0  0  0
  -15.9618    0.7059   -0.9862 N   0  0  0  0  0  0  0  0  0  0  0  0
  -18.1697    0.1680   -1.8672 C   0  0  0  0  0  0  0  0  0  0  0  0
  -14.4135   -3.0293   -2.0845 C   0  0  0  0  0  0  0  0  0  0  0  0
  -13.6207   -2.0773   -1.4102 C   0  0  0  0  0  0  0  0  0  0  0  0
  -17.6879   -1.1047   -2.2807 C   0  0  0  0  0  0  0  0  0  0  0  0
  -15.4835   -0.5264   -1.3564 C   0  0  0  0  0  0  0  0  0  0  0  0
  -16.3011   -1.4512   -2.0254 C   0  0  0  0  0  0  0  0  0  0  0  0
  -14.2936   -5.4262   -1.7390 C   0  0  0  0  0  0  0  0  0  0  0  0
  -13.9210   -4.2986   -2.4391 O   0  0  0  0  0  0  0  0  0  0  0  0
  -20.6232    0.9746   -2.0683 N   0  0  0  0  0  0  0  0  0  0  0  0
  -19.6247    0.6690   -2.0191 C   0  0  0  0  0  0  0  0  0  0  0  0
  -18.5100   -2.1139   -3.0220 N   0  0  0  0  0  0  0  0  0  0  0  0
  -18.5204   -2.1406   -4.0061 H   0  0  0  0  0  0  0  0  0  0  0  0
  -21.9130   -6.0750   -0.1708 Cl  0  0  0  0  0  0  0  0  0  0  0  0
  -21.3980   -1.9178   -3.5127 Cl  0  0  0  0  0  0  0  0  0  0  0  0
  -21.4713   -3.9913   -1.7953 C   0  0  0  0  0  0  0  0  0  0  0  0
  -18.7339   -3.9790   -1.4018 C   0  0  0  0  0  0  0  0  0  0  0  0
  -19.5524   -4.9688   -0.7212 C   0  0  0  0  0  0  0  0  0  0  0  0
  -20.9080   -4.9351   -0.9419 C   0  0  0  0  0  0  0  0  0  0  0  0
  -20.6865   -3.0487   -2.4511 C   0  0  0  0  0  0  0  0  0  0  0  0
  -19.2834   -3.0422   -2.2426 C   0  0  0  0  0  0  0  0  0  0  0  0
  -19.0023   -5.9060    0.1115 O   0  0  0  0  0  0  0  0  0  0  0  0
  -17.6028   -6.2553    0.0343 C   0  0  0  0  0  0  0  0  0  0  0  0
  -12.2539   -2.4497   -1.1016 O   0  0  0  0  0  0  0  0  0  0  0  0
  -11.2592   -2.0299   -1.9557 C   0  0  0  0  0  0  0  0  0  0  0  0
   -9.9376   -2.4506   -1.3089 C   0  0  0  0  0  0  0  0  0  0  0  0
   -9.1440   -3.3323   -2.2753 C   0  0  0  0  0  0  0  0  0  0  0  0
   -8.2479   -8.4116    0.0521 C   0  0  0  0  0  0  0  0  0  0  0  0
   -8.8123   -5.6832   -2.4391 C   0  0  0  0  0  0  0  0  0  0  0  0
   -9.1205   -4.7379   -0.2749 C   0  0  0  0  0  0  0  0  0  0  0  0
   -8.2896   -6.9746   -1.8452 C   0  0  0  0  0  0  0  0  0  0  0  0
   -8.5543   -6.0343    0.2668 C   0  0  0  0  0  0  0  0  0  0  0  0
   -8.6014   -4.5121   -1.5872 N   0  0  0  0  0  0  0  0  0  0  0  0
   -8.8196   -7.1933   -0.5296 N   0  0  0  0  0  0  0  0  0  0  0  0
 11 12  1  0  0  0
 21 25  1  0  0  0
 26 25  1  0  0  0
 36 30  1  0  0  0
 29 30  1  0  0  0
 14 13  3  0  0  0
 17 22  1  0  0  0
 18 23  1  0  0  0
  5 14  1  0  0  0
  5  1  2  0  0  0
  4  1  1  0  0  0
 19 23  2  0  0  0
 19 22  1  0  0  0
 24 20  2  0  0  0
 21 20  1  0  0  0
  7  2  2  0  0  0
  2  9  1  0  0  0
  6  3  2  0  0  0
  3 10  1  0  0  0
 29 28  1  0  0  0
 27 28  1  0  0  0
 31 37  1  0  0  0
 36 32  1  0  0  0
 34 32  1  0  0  0
 35 33  1  0  0  0
 33 36  1  0  0  0
 37 34  1  0  0  0
 35 37  1  0  0  0
  9  4  2  0  0  0
 24 15  1  0  0  0
 15  8  1  0  0  0
 12  6  1  0  0  0
 27  7  1  0  0  0
 22 21  2  0  0  0
 23 24  1  0  0  0
  8  5  1  0  0  0
  6  7  1  0  0  0
 10  8  2  0  0  0
 10  9  1  0  0  0
 15 16  1  0  0  0
M  END
> <minimizedAffinity>
-9.10910

$$$$
5VCY_DB8_A_401


 37 40  0  0  0  0  0  0  0  0999 V2000
  -17.2512    1.0224   -1.2867 C   0  0  0  0  0  0  0  0  0  0  0  0
  -14.0990   -0.8243   -1.0263 C   0  0  0  0  0  0  0  0  0  0  0  0
  -15.6928   -2.7451   -2.3800 C   0  0  0  0  0  0  0  0  0  0  0  0
  -15.9405    0.7058   -1.0196 N   0  0  0  0  0  0  0  0  0  0  0  0
  -18.1407    0.1579   -1.9135 C   0  0  0  0  0  0  0  0  0  0  0  0
  -14.3833   -3.0422   -2.0604 C   0  0  0  0  0  0  0  0  0  0  0  0
  -13.5963   -2.0824   -1.3904 C   0  0  0  0  0  0  0  0  0  0  0  0
  -17.6555   -1.1196   -2.3078 C   0  0  0  0  0  0  0  0  0  0  0  0
  -15.4592   -0.5308   -1.3711 C   0  0  0  0  0  0  0  0  0  0  0  0
  -16.2711   -1.4632   -2.0363 C   0  0  0  0  0  0  0  0  0  0  0  0
  -14.3032   -5.4409   -1.7164 C   0  0  0  0  0  0  0  0  0  0  0  0
  -13.8880   -4.3155   -2.3957 O   0  0  0  0  0  0  0  0  0  0  0  0
  -20.5904    0.9389   -2.2287 N   0  0  0  0  0  0  0  0  0  0  0  0
  -19.5941    0.6573   -2.0840 C   0  0  0  0  0  0  0  0  0  0  0  0
  -18.4713   -2.1373   -3.0445 N   0  0  0  0  0  0  0  0  0  0  0  0
  -18.4435   -2.2004   -4.0266 H   0  0  0  0  0  0  0  0  0  0  0  0
  -22.0611   -5.9290   -0.1920 Cl  0  0  0  0  0  0  0  0  0  0  0  0
  -21.3178   -1.9898   -3.7482 Cl  0  0  0  0  0  0  0  0  0  0  0  0
  -21.5090   -3.9503   -1.9112 C   0  0  0  0  0  0  0  0  0  0  0  0
  -18.8062   -3.8968   -1.3281 C   0  0  0  0  0  0  0  0  0  0  0  0
  -19.6692   -4.8461   -0.6449 C   0  0  0  0  0  0  0  0  0  0  0  0
  -21.0060   -4.8346   -0.9619 C   0  0  0  0  0  0  0  0  0  0  0  0
  -20.6813   -3.0467   -2.5692 C   0  0  0  0  0  0  0  0  0  0  0  0
  -19.2964   -3.0187   -2.2636 C   0  0  0  0  0  0  0  0  0  0  0  0
  -19.1778   -5.7253    0.2825 O   0  0  0  0  0  0  0  0  0  0  0  0
  -18.2653   -6.7818   -0.0886 C   0  0  0  0  0  0  0  0  0  0  0  0
  -12.2323   -2.4512   -1.0655 O   0  0  0  0  0  0  0  0  0  0  0  0
  -11.2386   -2.1067   -1.9537 C   0  0  0  0  0  0  0  0  0  0  0  0
   -9.9150   -2.4385   -1.2609 C   0  0  0  0  0  0  0  0  0  0  0  0
   -8.7623   -1.7330   -1.9782 C   0  0  0  0  0  0  0  0  0  0  0  0
   -4.9491    1.5737    0.5798 C   0  0  0  0  0  0  0  0  0  0  0  0
   -7.6030    0.3317   -1.7403 C   0  0  0  0  0  0  0  0  0  0  0  0
   -6.8596   -1.5313   -0.4561 C   0  0  0  0  0  0  0  0  0  0  0  0
   -6.8059    1.2926   -0.8829 C   0  0  0  0  0  0  0  0  0  0  0  0
   -6.1126   -0.5247    0.3945 C   0  0  0  0  0  0  0  0  0  0  0  0
   -7.9956   -0.8951   -1.0456 N   0  0  0  0  0  0  0  0  0  0  0  0
   -5.6661    0.6447   -0.2990 N   0  0  0  0  0  0  0  0  0  0  0  0
 11 12  1  0  0  0
 21 25  1  0  0  0
 26 25  1  0  0  0
 36 30  1  0  0  0
 29 30  1  0  0  0
 14 13  3  0  0  0
 17 22  1  0  0  0
 18 23  1  0  0  0
  5 14  1  0  0  0
  5  1  2  0  0  0
  4  1  1  0  0  0
 19 23  2  0  0  0
 19 22  1  0  0  0
 24 20  2  0  0  0
 21 20  1  0  0  0
  7  2  2  0  0  0
  2  9  1  0  0  0
  6  3  2  0  0  0
  3 10  1  0  0  0
 29 28  1  0  0  0
 27 28  1  0  0  0
 31 37  1  0  0  0
 36 32  1  0  0  0
 34 32  1  0  0  0
 35 33  1  0  0  0
 33 36  1  0  0  0
 37 34  1  0  0  0
 35 37  1  0  0  0
  9  4  2  0  0  0
 24 15  1  0  0  0
 15  8  1  0  0  0
 12  6  1  0  0  0
 27  7  1  0  0  0
 22 21  2  0  0  0
 23 24  1  0  0  0
  8  5  1  0  0  0
  6  7  1  0  0  0
 10  8  2  0  0  0
 10  9  1  0  0  0
 15 16  1  0  0  0
M  END
> <minimizedAffinity>
-8.74647

$$$$
5VCY_DB8_A_401


 37 40  0  0  0  0  0  0  0  0999 V2000
  -17.0049   -5.3402   -0.6814 C   0  0  0  0  0  0  0  0  0  0  0  0
  -20.0696   -6.9932    0.4543 C   0  0  0  0  0  0  0  0  0  0  0  0
  -21.1574   -5.1556   -1.4171 C   0  0  0  0  0  0  0  0  0  0  0  0
  -17.8660   -6.1960   -0.0367 N   0  0  0  0  0  0  0  0  0  0  0  0
  -17.4160   -4.3757   -1.5937 C   0  0  0  0  0  0  0  0  0  0  0  0
  -21.9951   -6.0043   -0.7220 C   0  0  0  0  0  0  0  0  0  0  0  0
  -21.4479   -6.9166    0.2041 C   0  0  0  0  0  0  0  0  0  0  0  0
  -18.8064   -4.2843   -1.8790 C   0  0  0  0  0  0  0  0  0  0  0  0
  -19.2140   -6.1083   -0.2806 C   0  0  0  0  0  0  0  0  0  0  0  0
  -19.7251   -5.1869   -1.2085 C   0  0  0  0  0  0  0  0  0  0  0  0
  -23.8978   -5.9633   -2.2242 C   0  0  0  0  0  0  0  0  0  0  0  0
  -23.3802   -5.9058   -0.9478 O   0  0  0  0  0  0  0  0  0  0  0  0
  -15.5558   -2.8913   -2.6168 N   0  0  0  0  0  0  0  0  0  0  0  0
  -16.3174   -3.4604   -2.1822 C   0  0  0  0  0  0  0  0  0  0  0  0
  -19.3983   -3.3401   -2.8801 N   0  0  0  0  0  0  0  0  0  0  0  0
  -19.5367   -3.6098   -3.8167 H   0  0  0  0  0  0  0  0  0  0  0  0
  -21.2245    1.9168   -0.7752 Cl  0  0  0  0  0  0  0  0  0  0  0  0
  -22.2173   -2.6729   -3.3568 Cl  0  0  0  0  0  0  0  0  0  0  0  0
  -21.5347   -0.4148   -2.0571 C   0  0  0  0  0  0  0  0  0  0  0  0
  -18.8944   -1.1832   -1.7631 C   0  0  0  0  0  0  0  0  0  0  0  0
  -19.3357    0.0912   -1.2208 C   0  0  0  0  0  0  0  0  0  0  0  0
  -20.6546    0.4349   -1.3940 C   0  0  0  0  0  0  0  0  0  0  0  0
  -21.1129   -1.6369   -2.5700 C   0  0  0  0  0  0  0  0  0  0  0  0
  -19.7567   -2.0252   -2.4218 C   0  0  0  0  0  0  0  0  0  0  0  0
  -18.4764    0.9263   -0.5586 O   0  0  0  0  0  0  0  0  0  0  0  0
  -17.0729    0.9860   -0.8952 C   0  0  0  0  0  0  0  0  0  0  0  0
  -22.3734   -7.7746    0.9178 O   0  0  0  0  0  0  0  0  0  0  0  0
  -22.9670   -8.8056    0.2251 C   0  0  0  0  0  0  0  0  0  0  0  0
  -22.1280  -10.0519    0.5159 C   0  0  0  0  0  0  0  0  0  0  0  0
  -21.8807  -10.8255   -0.7809 C   0  0  0  0  0  0  0  0  0  0  0  0
  -16.4557   -9.3963   -1.5199 C   0  0  0  0  0  0  0  0  0  0  0  0
  -19.6462  -10.6036    0.0073 C   0  0  0  0  0  0  0  0  0  0  0  0
  -20.1881   -9.6733   -2.1171 C   0  0  0  0  0  0  0  0  0  0  0  0
  -18.1628  -10.4978   -0.2794 C   0  0  0  0  0  0  0  0  0  0  0  0
  -18.6954   -9.6260   -2.3701 C   0  0  0  0  0  0  0  0  0  0  0  0
  -20.4737  -10.7259   -1.1935 N   0  0  0  0  0  0  0  0  0  0  0  0
  -17.8870   -9.4360   -1.2046 N   0  0  0  0  0  0  0  0  0  0  0  0
 11 12  1  0  0  0
 21 25  1  0  0  0
 26 25  1  0  0  0
 36 30  1  0  0  0
 29 30  1  0  0  0
 14 13  3  0  0  0
 17 22  1  0  0  0
 18 23  1  0  0  0
  5 14  1  0  0  0
  5  1  2  0  0  0
  4  1  1  0  0  0
 19 23  2  0  0  0
 19 22  1  0  0  0
 24 20  2  0  0  0
 21 20  1  0  0  0
  7  2  2  0  0  0
  2  9  1  0  0  0
  6  3  2  0  0  0
  3 10  1  0  0  0
 29 28  1  0  0  0
 27 28  1  0  0  0
 31 37  1  0  0  0
 36 32  1  0  0  0
 34 32  1  0  0  0
 35 33  1  0  0  0
 33 36  1  0  0  0
 37 34  1  0  0  0
 35 37  1  0  0  0
  9  4  2  0  0  0
 24 15  1  0  0  0
 15  8  1  0  0  0
 12  6  1  0  0  0
 27  7  1  0  0  0
 22 21  2  0  0  0
 23 24  1  0  0  0
  8  5  1  0  0  0
  6  7  1  0  0  0
 10  8  2  0  0  0
 10  9  1  0  0  0
 15 16  1  0  0  0
M  END
> <minimizedAffinity>
-8.68384

$$$$
5VCY_DB8_A_401


 37 40  0  0  0  0  0  0  0  0999 V2000
  -16.4399   -5.4517   -0.6028 C   0  0  0  0  0  0  0  0  0  0  0  0
  -18.8732   -3.4374   -2.4564 C   0  0  0  0  0  0  0  0  0  0  0  0
  -20.6295   -5.1348   -1.0085 C   0  0  0  0  0  0  0  0  0  0  0  0
  -16.9907   -4.4964   -1.4234 N   0  0  0  0  0  0  0  0  0  0  0  0
  -17.1900   -6.3617    0.1325 C   0  0  0  0  0  0  0  0  0  0  0  0
  -21.1452   -4.1893   -1.8718 C   0  0  0  0  0  0  0  0  0  0  0  0
  -20.2672   -3.3474   -2.5858 C   0  0  0  0  0  0  0  0  0  0  0  0
  -18.6068   -6.2852    0.0331 C   0  0  0  0  0  0  0  0  0  0  0  0
  -18.3553   -4.4212   -1.5513 C   0  0  0  0  0  0  0  0  0  0  0  0
  -19.2003   -5.2763   -0.8261 C   0  0  0  0  0  0  0  0  0  0  0  0
  -23.2167   -5.0391   -2.8019 C   0  0  0  0  0  0  0  0  0  0  0  0
  -22.5417   -4.1201   -2.0272 O   0  0  0  0  0  0  0  0  0  0  0  0
  -15.9197   -8.1075    1.5640 N   0  0  0  0  0  0  0  0  0  0  0  0
  -16.4039   -7.4047    0.9603 C   0  0  0  0  0  0  0  0  0  0  0  0
  -19.5514   -7.1534    0.8064 N   0  0  0  0  0  0  0  0  0  0  0  0
  -19.8138   -6.9280    1.7281 H   0  0  0  0  0  0  0  0  0  0  0  0
  -21.9264  -11.7501   -2.1312 Cl  0  0  0  0  0  0  0  0  0  0  0  0
  -22.4831   -7.3087    0.8150 Cl  0  0  0  0  0  0  0  0  0  0  0  0
  -22.0159   -9.5284   -0.6373 C   0  0  0  0  0  0  0  0  0  0  0  0
  -19.2684   -9.2565   -0.4785 C   0  0  0  0  0  0  0  0  0  0  0  0
  -19.8378  -10.3682   -1.2219 C   0  0  0  0  0  0  0  0  0  0  0  0
  -21.2073  -10.4672   -1.2706 C   0  0  0  0  0  0  0  0  0  0  0  0
  -21.4701   -8.4613    0.0684 C   0  0  0  0  0  0  0  0  0  0  0  0
  -20.0604   -8.3282    0.1520 C   0  0  0  0  0  0  0  0  0  0  0  0
  -19.0470  -11.2889   -1.8554 O   0  0  0  0  0  0  0  0  0  0  0  0
  -17.7381  -10.9410   -2.3577 C   0  0  0  0  0  0  0  0  0  0  0  0
  -20.8608   -2.3820   -3.4900 O   0  0  0  0  0  0  0  0  0  0  0  0
  -21.2353   -1.1600   -2.9787 C   0  0  0  0  0  0  0  0  0  0  0  0
  -20.1374   -0.1744   -3.3849 C   0  0  0  0  0  0  0  0  0  0  0  0
  -19.5683    0.5108   -2.1407 C   0  0  0  0  0  0  0  0  0  0  0  0
  -14.0483   -0.4918   -1.4045 C   0  0  0  0  0  0  0  0  0  0  0  0
  -17.4589    1.0174   -1.1624 C   0  0  0  0  0  0  0  0  0  0  0  0
  -17.5366   -0.6310   -2.8797 C   0  0  0  0  0  0  0  0  0  0  0  0
  -16.0708    0.5771   -0.7464 C   0  0  0  0  0  0  0  0  0  0  0  0
  -16.1652   -1.0585   -2.3989 C   0  0  0  0  0  0  0  0  0  0  0  0
  -18.2510   -0.0397   -1.7922 N   0  0  0  0  0  0  0  0  0  0  0  0
  -15.3612   -0.0116   -1.8462 N   0  0  0  0  0  0  0  0  0  0  0  0
 11 12  1  0  0  0
 21 25  1  0  0  0
 26 25  1  0  0  0
 36 30  1  0  0  0
 29 30  1  0  0  0
 14 13  3  0  0  0
 17 22  1  0  0  0
 18 23  1  0  0  0
  5 14  1  0  0  0
  5  1  2  0  0  0
  4  1  1  0  0  0
 19 23  2  0  0  0
 19 22  1  0  0  0
 24 20  2  0  0  0
 21 20  1  0  0  0
  7  2  2  0  0  0
  2  9  1  0  0  0
  6  3  2  0  0  0
  3 10  1  0  0  0
 29 28  1  0  0  0
 27 28  1  0  0  0
 31 37  1  0  0  0
 36 32  1  0  0  0
 34 32  1  0  0  0
 35 33  1  0  0  0
 33 36  1  0  0  0
 37 34  1  0  0  0
 35 37  1  0  0  0
  9  4  2  0  0  0
 24 15  1  0  0  0
 15  8  1  0  0  0
 12  6  1  0  0  0
 27  7  1  0  0  0
 22 21  2  0  0  0
 23 24  1  0  0  0
  8  5  1  0  0  0
  6  7  1  0  0  0
 10  8  2  0  0  0
 10  9  1  0  0  0
 15 16  1  0  0  0
M  END
> <minimizedAffinity>
-8.65188

$$$$
5VCY_DB8_A_401


 37 40  0  0  0  0  0  0  0  0999 V2000
  -16.9528   -4.4606   -1.5042 C   0  0  0  0  0  0  0  0  0  0  0  0
  -20.2536   -3.3516   -2.6396 C   0  0  0  0  0  0  0  0  0  0  0  0
  -21.0067   -5.4822   -0.9204 C   0  0  0  0  0  0  0  0  0  0  0  0
  -17.9487   -3.7442   -2.1243 N   0  0  0  0  0  0  0  0  0  0  0  0
  -17.1898   -5.5436   -0.6662 C   0  0  0  0  0  0  0  0  0  0  0  0
  -21.9771   -4.7650   -1.5905 C   0  0  0  0  0  0  0  0  0  0  0  0
  -21.5963   -3.7061   -2.4408 C   0  0  0  0  0  0  0  0  0  0  0  0
  -18.5422   -5.9173   -0.4336 C   0  0  0  0  0  0  0  0  0  0  0  0
  -19.2594   -4.1034   -1.9314 C   0  0  0  0  0  0  0  0  0  0  0  0
  -19.6031   -5.1644   -1.0786 C   0  0  0  0  0  0  0  0  0  0  0  0
  -23.9150   -6.0629   -2.2528 C   0  0  0  0  0  0  0  0  0  0  0  0
  -23.3218   -5.1406   -1.4174 O   0  0  0  0  0  0  0  0  0  0  0  0
  -15.1448   -6.8133    0.2913 N   0  0  0  0  0  0  0  0  0  0  0  0
  -15.9482   -6.2692   -0.0978 C   0  0  0  0  0  0  0  0  0  0  0  0
  -18.9623   -7.0209    0.4881 N   0  0  0  0  0  0  0  0  0  0  0  0
  -19.0290   -6.8771    1.4598 H   0  0  0  0  0  0  0  0  0  0  0  0
  -20.6197  -12.1536   -2.0235 Cl  0  0  0  0  0  0  0  0  0  0  0  0
  -21.4419   -8.2127    1.5133 Cl  0  0  0  0  0  0  0  0  0  0  0  0
  -20.8599  -10.1149   -0.3026 C   0  0  0  0  0  0  0  0  0  0  0  0
  -18.5143   -8.8804   -1.0915 C   0  0  0  0  0  0  0  0  0  0  0  0
  -18.9234  -10.1199   -1.7312 C   0  0  0  0  0  0  0  0  0  0  0  0
  -20.0930  -10.7011   -1.3048 C   0  0  0  0  0  0  0  0  0  0  0  0
  -20.4710   -8.9254    0.3044 C   0  0  0  0  0  0  0  0  0  0  0  0
  -19.2645   -8.2980   -0.0993 C   0  0  0  0  0  0  0  0  0  0  0  0
  -18.1778  -10.6956   -2.7247 O   0  0  0  0  0  0  0  0  0  0  0  0
  -16.8880  -11.2870   -2.4538 C   0  0  0  0  0  0  0  0  0  0  0  0
  -22.6544   -2.9954   -3.1318 O   0  0  0  0  0  0  0  0  0  0  0  0
  -23.0779   -1.7946   -2.6083 C   0  0  0  0  0  0  0  0  0  0  0  0
  -22.7529   -0.7331   -3.6616 C   0  0  0  0  0  0  0  0  0  0  0  0
  -22.1314    0.4926   -2.9890 C   0  0  0  0  0  0  0  0  0  0  0  0
  -16.8055    0.6086   -1.0811 C   0  0  0  0  0  0  0  0  0  0  0  0
  -20.4921    1.1404   -1.3901 C   0  0  0  0  0  0  0  0  0  0  0  0
  -19.7510    0.1372   -3.4191 C   0  0  0  0  0  0  0  0  0  0  0  0
  -19.1404    0.9242   -0.7420 C   0  0  0  0  0  0  0  0  0  0  0  0
  -18.4310   -0.0913   -2.7119 C   0  0  0  0  0  0  0  0  0  0  0  0
  -20.8005    0.1795   -2.4500 N   0  0  0  0  0  0  0  0  0  0  0  0
  -18.0938    0.8869   -1.7233 N   0  0  0  0  0  0  0  0  0  0  0  0
 11 12  1  0  0  0
 21 25  1  0  0  0
 26 25  1  0  0  0
 36 30  1  0  0  0
 29 30  1  0  0  0
 14 13  3  0  0  0
 17 22  1  0  0  0
 18 23  1  0  0  0
  5 14  1  0  0  0
  5  1  2  0  0  0
  4  1  1  0  0  0
 19 23  2  0  0  0
 19 22  1  0  0  0
 24 20  2  0  0  0
 21 20  1  0  0  0
  7  2  2  0  0  0
  2  9  1  0  0  0
  6  3  2  0  0  0
  3 10  1  0  0  0
 29 28  1  0  0  0
 27 28  1  0  0  0
 31 37  1  0  0  0
 36 32  1  0  0  0
 34 32  1  0  0  0
 35 33  1  0  0  0
 33 36  1  0  0  0
 37 34  1  0  0  0
 35 37  1  0  0  0
  9  4  2  0  0  0
 24 15  1  0  0  0
 15  8  1  0  0  0
 12  6  1  0  0  0
 27  7  1  0  0  0
 22 21  2  0  0  0
 23 24  1  0  0  0
  8  5  1  0  0  0
  6  7  1  0  0  0
 10  8  2  0  0  0
 10  9  1  0  0  0
 15 16  1  0  0  0
M  END
> <minimizedAffinity>
-8.60687

$$$$
5VCY_DB8_A_401


 37 40  0  0  0  0  0  0  0  0999 V2000
  -16.6714   -8.3250   -0.9364 C   0  0  0  0  0  0  0  0  0  0  0  0
  -16.7644   -4.8747   -2.1615 C   0  0  0  0  0  0  0  0  0  0  0  0
  -19.1498   -4.9225   -0.6221 C   0  0  0  0  0  0  0  0  0  0  0  0
  -16.3239   -7.1494   -1.5582 N   0  0  0  0  0  0  0  0  0  0  0  0
  -17.8277   -8.4857   -0.1824 C   0  0  0  0  0  0  0  0  0  0  0  0
  -18.7883   -3.7713   -1.2923 C   0  0  0  0  0  0  0  0  0  0  0  0
  -17.6007   -3.7536   -2.0530 C   0  0  0  0  0  0  0  0  0  0  0  0
  -18.6880   -7.3618   -0.0419 C   0  0  0  0  0  0  0  0  0  0  0  0
  -17.1523   -6.0598   -1.4543 C   0  0  0  0  0  0  0  0  0  0  0  0
  -18.3285   -6.1128   -0.6894 C   0  0  0  0  0  0  0  0  0  0  0  0
  -20.9991   -2.8137   -1.0202 C   0  0  0  0  0  0  0  0  0  0  0  0
  -19.6429   -2.6567   -1.2110 O   0  0  0  0  0  0  0  0  0  0  0  0
  -18.2085  -10.8639    0.7715 N   0  0  0  0  0  0  0  0  0  0  0  0
  -18.0898   -9.8941    0.3996 C   0  0  0  0  0  0  0  0  0  0  0  0
  -19.9370   -7.3579    0.7851 N   0  0  0  0  0  0  0  0  0  0  0  0
  -19.9151   -7.1277    1.7420 H   0  0  0  0  0  0  0  0  0  0  0  0
  -25.2246   -8.7993   -1.5309 Cl  0  0  0  0  0  0  0  0  0  0  0  0
  -21.2518   -9.7115    1.9477 Cl  0  0  0  0  0  0  0  0  0  0  0  0
  -23.1401   -9.1181    0.1211 C   0  0  0  0  0  0  0  0  0  0  0  0
  -21.7215   -6.9722   -0.8944 C   0  0  0  0  0  0  0  0  0  0  0  0
  -23.0246   -7.2985   -1.4496 C   0  0  0  0  0  0  0  0  0  0  0  0
  -23.6920   -8.3754   -0.9182 C   0  0  0  0  0  0  0  0  0  0  0  0
  -21.8960   -8.8011    0.6560 C   0  0  0  0  0  0  0  0  0  0  0  0
  -21.1690   -7.7029    0.1290 C   0  0  0  0  0  0  0  0  0  0  0  0
  -23.5768   -6.5651   -2.4652 O   0  0  0  0  0  0  0  0  0  0  0  0
  -22.9310   -5.3784   -2.9765 C   0  0  0  0  0  0  0  0  0  0  0  0
  -17.2756   -2.5239   -2.7489 O   0  0  0  0  0  0  0  0  0  0  0  0
  -16.4105   -1.6434   -2.1394 C   0  0  0  0  0  0  0  0  0  0  0  0
  -16.8588   -0.2434   -2.5647 C   0  0  0  0  0  0  0  0  0  0  0  0
  -17.6942    0.3945   -1.4527 C   0  0  0  0  0  0  0  0  0  0  0  0
  -23.1731    1.0807   -2.6889 C   0  0  0  0  0  0  0  0  0  0  0  0
  -19.9291    0.9342   -0.8386 C   0  0  0  0  0  0  0  0  0  0  0  0
  -19.5440    0.0368   -3.0109 C   0  0  0  0  0  0  0  0  0  0  0  0
  -21.3183    1.3933   -1.2301 C   0  0  0  0  0  0  0  0  0  0  0  0
  -20.9246    0.5510   -3.3633 C   0  0  0  0  0  0  0  0  0  0  0  0
  -18.9977    0.8413   -1.9636 N   0  0  0  0  0  0  0  0  0  0  0  0
  -21.8586    0.5769   -2.2794 N   0  0  0  0  0  0  0  0  0  0  0  0
 11 12  1  0  0  0
 21 25  1  0  0  0
 26 25  1  0  0  0
 36 30  1  0  0  0
 29 30  1  0  0  0
 14 13  3  0  0  0
 17 22  1  0  0  0
 18 23  1  0  0  0
  5 14  1  0  0  0
  5  1  2  0  0  0
  4  1  1  0  0  0
 19 23  2  0  0  0
 19 22  1  0  0  0
 24 20  2  0  0  0
 21 20  1  0  0  0
  7  2  2  0  0  0
  2  9  1  0  0  0
  6  3  2  0  0  0
  3 10  1  0  0  0
 29 28  1  0  0  0
 27 28  1  0  0  0
 31 37  1  0  0  0
 36 32  1  0  0  0
 34 32  1  0  0  0
 35 33  1  0  0  0
 33 36  1  0  0  0
 37 34  1  0  0  0
 35 37  1  0  0  0
  9  4  2  0  0  0
 24 15  1  0  0  0
 15  8  1  0  0  0
 12  6  1  0  0  0
 27  7  1  0  0  0
 22 21  2  0  0  0
 23 24  1  0  0  0
  8  5  1  0  0  0
  6  7  1  0  0  0
 10  8  2  0  0  0
 10  9  1  0  0  0
 15 16  1  0  0  0
M  END
> <minimizedAffinity>
-8.60079

$$$$
5VCY_DB8_A_401


 37 40  0  0  0  0  0  0  0  0999 V2000
  -21.5703   -4.8429   -1.2888 C   0  0  0  0  0  0  0  0  0  0  0  0
  -18.4943   -3.2309   -2.4523 C   0  0  0  0  0  0  0  0  0  0  0  0
  -17.4059   -5.1612   -0.6770 C   0  0  0  0  0  0  0  0  0  0  0  0
  -20.7007   -4.0271   -1.9728 N   0  0  0  0  0  0  0  0  0  0  0  0
  -21.1649   -5.8033   -0.3698 C   0  0  0  0  0  0  0  0  0  0  0  0
  -16.5659   -4.2987   -1.3521 C   0  0  0  0  0  0  0  0  0  0  0  0
  -17.1130   -3.3441   -2.2346 C   0  0  0  0  0  0  0  0  0  0  0  0
  -19.7693   -5.9516   -0.1392 C   0  0  0  0  0  0  0  0  0  0  0  0
  -19.3513   -4.1384   -1.7472 C   0  0  0  0  0  0  0  0  0  0  0  0
  -18.8406   -5.0995   -0.8602 C   0  0  0  0  0  0  0  0  0  0  0  0
  -14.4002   -5.2961   -1.7921 C   0  0  0  0  0  0  0  0  0  0  0  0
  -15.1831   -4.3895   -1.1098 O   0  0  0  0  0  0  0  0  0  0  0  0
  -23.0797   -7.1022    0.7954 N   0  0  0  0  0  0  0  0  0  0  0  0
  -22.2820   -6.5942    0.3498 C   0  0  0  0  0  0  0  0  0  0  0  0
  -19.1730   -6.9791    0.7733 N   0  0  0  0  0  0  0  0  0  0  0  0
  -19.1089   -6.8248    1.7435 H   0  0  0  0  0  0  0  0  0  0  0  0
  -17.0732  -12.1524   -1.2828 Cl  0  0  0  0  0  0  0  0  0  0  0  0
  -16.4052   -7.6267    1.5078 Cl  0  0  0  0  0  0  0  0  0  0  0  0
  -16.9093   -9.8338    0.0486 C   0  0  0  0  0  0  0  0  0  0  0  0
  -19.4730   -9.0237   -0.5990 C   0  0  0  0  0  0  0  0  0  0  0  0
  -18.9801  -10.3022   -1.0842 C   0  0  0  0  0  0  0  0  0  0  0  0
  -17.6991  -10.6624   -0.7424 C   0  0  0  0  0  0  0  0  0  0  0  0
  -17.3841   -8.6135    0.5179 C   0  0  0  0  0  0  0  0  0  0  0  0
  -18.6978   -8.1991    0.1792 C   0  0  0  0  0  0  0  0  0  0  0  0
  -19.7565  -11.1259   -1.8543 O   0  0  0  0  0  0  0  0  0  0  0  0
  -21.1988  -11.0570   -1.8153 C   0  0  0  0  0  0  0  0  0  0  0  0
  -16.1874   -2.4533   -2.9068 O   0  0  0  0  0  0  0  0  0  0  0  0
  -15.6669   -1.3990   -2.1908 C   0  0  0  0  0  0  0  0  0  0  0  0
  -16.3870   -0.1461   -2.6944 C   0  0  0  0  0  0  0  0  0  0  0  0
  -17.4019    0.3245   -1.6504 C   0  0  0  0  0  0  0  0  0  0  0  0
  -22.6751   -0.2886   -3.6089 C   0  0  0  0  0  0  0  0  0  0  0  0
  -19.7332   -0.0204   -1.3194 C   0  0  0  0  0  0  0  0  0  0  0  0
  -18.8913   -0.0808   -3.5465 C   0  0  0  0  0  0  0  0  0  0  0  0
  -21.1577    0.1065   -1.8180 C   0  0  0  0  0  0  0  0  0  0  0  0
  -20.3292    0.0872   -3.9925 C   0  0  0  0  0  0  0  0  0  0  0  0
  -18.7317    0.5006   -2.2507 N   0  0  0  0  0  0  0  0  0  0  0  0
  -21.3076   -0.4834   -3.1177 N   0  0  0  0  0  0  0  0  0  0  0  0
 11 12  1  0  0  0
 21 25  1  0  0  0
 26 25  1  0  0  0
 36 30  1  0  0  0
 29 30  1  0  0  0
 14 13  3  0  0  0
 17 22  1  0  0  0
 18 23  1  0  0  0
  5 14  1  0  0  0
  5  1  2  0  0  0
  4  1  1  0  0  0
 19 23  2  0  0  0
 19 22  1  0  0  0
 24 20  2  0  0  0
 21 20  1  0  0  0
  7  2  2  0  0  0
  2  9  1  0  0  0
  6  3  2  0  0  0
  3 10  1  0  0  0
 29 28  1  0  0  0
 27 28  1  0  0  0
 31 37  1  0  0  0
 36 32  1  0  0  0
 34 32  1  0  0  0
 35 33  1  0  0  0
 33 36  1  0  0  0
 37 34  1  0  0  0
 35 37  1  0  0  0
  9  4  2  0  0  0
 24 15  1  0  0  0
 15  8  1  0  0  0
 12  6  1  0  0  0
 27  7  1  0  0  0
 22 21  2  0  0  0
 23 24  1  0  0  0
  8  5  1  0  0  0
  6  7  1  0  0  0
 10  8  2  0  0  0
 10  9  1  0  0  0
 15 16  1  0  0  0
M  END
> <minimizedAffinity>
-8.54932

$$$$
5VCY_DB8_A_401


 37 40  0  0  0  0  0  0  0  0999 V2000
  -22.5575   -8.5063   -0.8476 C   0  0  0  0  0  0  0  0  0  0  0  0
  -21.9314   -4.9098   -1.1437 C   0  0  0  0  0  0  0  0  0  0  0  0
  -19.5273   -5.9288   -2.2592 C   0  0  0  0  0  0  0  0  0  0  0  0
  -22.7260   -7.1427   -0.8046 N   0  0  0  0  0  0  0  0  0  0  0  0
  -21.4151   -9.1267   -1.3389 C   0  0  0  0  0  0  0  0  0  0  0  0
  -19.7156   -4.5648   -2.1638 C   0  0  0  0  0  0  0  0  0  0  0  0
  -20.9134   -4.0653   -1.6112 C   0  0  0  0  0  0  0  0  0  0  0  0
  -20.3717   -8.2965   -1.8338 C   0  0  0  0  0  0  0  0  0  0  0  0
  -21.7212   -6.3235   -1.2558 C   0  0  0  0  0  0  0  0  0  0  0  0
  -20.5406   -6.8547   -1.7990 C   0  0  0  0  0  0  0  0  0  0  0  0
  -17.4369   -3.7508   -2.0110 C   0  0  0  0  0  0  0  0  0  0  0  0
  -18.6819   -3.7172   -2.6020 O   0  0  0  0  0  0  0  0  0  0  0  0
  -21.4017  -11.7150   -1.2325 N   0  0  0  0  0  0  0  0  0  0  0  0
  -21.3720  -10.6704   -1.2596 C   0  0  0  0  0  0  0  0  0  0  0  0
  -19.1072   -8.8130   -2.4487 N   0  0  0  0  0  0  0  0  0  0  0  0
  -19.0292   -8.9454   -3.4211 H   0  0  0  0  0  0  0  0  0  0  0  0
  -14.3588  -10.2005    0.8571 Cl  0  0  0  0  0  0  0  0  0  0  0  0
  -18.1450  -11.5774   -2.6764 Cl  0  0  0  0  0  0  0  0  0  0  0  0
  -16.3305  -10.7184   -0.8807 C   0  0  0  0  0  0  0  0  0  0  0  0
  -17.4200   -8.1802   -0.7438 C   0  0  0  0  0  0  0  0  0  0  0  0
  -16.2434   -8.5000    0.0476 C   0  0  0  0  0  0  0  0  0  0  0  0
  -15.7386   -9.7742   -0.0475 C   0  0  0  0  0  0  0  0  0  0  0  0
  -17.4525  -10.4096   -1.6425 C   0  0  0  0  0  0  0  0  0  0  0  0
  -18.0116   -9.1082   -1.5656 C   0  0  0  0  0  0  0  0  0  0  0  0
  -15.6510   -7.5718    0.8612 O   0  0  0  0  0  0  0  0  0  0  0  0
  -15.6564   -6.1656    0.5307 C   0  0  0  0  0  0  0  0  0  0  0  0
  -21.0536   -2.6251   -1.5209 O   0  0  0  0  0  0  0  0  0  0  0  0
  -22.0048   -2.0159   -2.3077 C   0  0  0  0  0  0  0  0  0  0  0  0
  -21.9261   -0.5210   -1.9897 C   0  0  0  0  0  0  0  0  0  0  0  0
  -21.1540    0.2047   -3.0936 C   0  0  0  0  0  0  0  0  0  0  0  0
  -15.9010    0.3540   -0.9954 C   0  0  0  0  0  0  0  0  0  0  0  0
  -18.8496   -0.3848   -3.1700 C   0  0  0  0  0  0  0  0  0  0  0  0
  -19.6677    0.7090   -1.2189 C   0  0  0  0  0  0  0  0  0  0  0  0
  -17.4146   -0.1057   -2.7741 C   0  0  0  0  0  0  0  0  0  0  0  0
  -18.2176    0.9970   -0.8889 C   0  0  0  0  0  0  0  0  0  0  0  0
  -19.8095    0.5819   -2.6353 N   0  0  0  0  0  0  0  0  0  0  0  0
  -17.2829    0.0165   -1.3503 N   0  0  0  0  0  0  0  0  0  0  0  0
 11 12  1  0  0  0
 21 25  1  0  0  0
 26 25  1  0  0  0
 36 30  1  0  0  0
 29 30  1  0  0  0
 14 13  3  0  0  0
 17 22  1  0  0  0
 18 23  1  0  0  0
  5 14  1  0  0  0
  5  1  2  0  0  0
  4  1  1  0  0  0
 19 23  2  0  0  0
 19 22  1  0  0  0
 24 20  2  0  0  0
 21 20  1  0  0  0
  7  2  2  0  0  0
  2  9  1  0  0  0
  6  3  2  0  0  0
  3 10  1  0  0  0
 29 28  1  0  0  0
 27 28  1  0  0  0
 31 37  1  0  0  0
 36 32  1  0  0  0
 34 32  1  0  0  0
 35 33  1  0  0  0
 33 36  1  0  0  0
 37 34  1  0  0  0
 35 37  1  0  0  0
  9  4  2  0  0  0
 24 15  1  0  0  0
 15  8  1  0  0  0
 12  6  1  0  0  0
 27  7  1  0  0  0
 22 21  2  0  0  0
 23 24  1  0  0  0
  8  5  1  0  0  0
  6  7  1  0  0  0
 10  8  2  0  0  0
 10  9  1  0  0  0
 15 16  1  0  0  0
M  END
> <minimizedAffinity>
-8.30885

$$$$
5VCY_DB8_A_401


 37 40  0  0  0  0  0  0  0  0999 V2000
  -20.9419   -3.0806    0.0909 C   0  0  0  0  0  0  0  0  0  0  0  0
  -20.5788   -6.6614    0.7690 C   0  0  0  0  0  0  0  0  0  0  0  0
  -18.7607   -6.3757   -1.3933 C   0  0  0  0  0  0  0  0  0  0  0  0
  -21.0745   -4.3213    0.6676 N   0  0  0  0  0  0  0  0  0  0  0  0
  -20.1109   -2.8185   -0.9917 C   0  0  0  0  0  0  0  0  0  0  0  0
  -18.9492   -7.6142   -0.8141 C   0  0  0  0  0  0  0  0  0  0  0  0
  -19.8518   -7.7487    0.2615 C   0  0  0  0  0  0  0  0  0  0  0  0
  -19.3497   -3.8983   -1.5186 C   0  0  0  0  0  0  0  0  0  0  0  0
  -20.3663   -5.3816    0.1591 C   0  0  0  0  0  0  0  0  0  0  0  0
  -19.4769   -5.2124   -0.9140 C   0  0  0  0  0  0  0  0  0  0  0  0
  -18.7825   -9.4790   -2.3547 C   0  0  0  0  0  0  0  0  0  0  0  0
  -18.2455   -8.7114   -1.3433 O   0  0  0  0  0  0  0  0  0  0  0  0
  -20.1500   -0.3805   -1.8664 N   0  0  0  0  0  0  0  0  0  0  0  0
  -20.1273   -1.3764   -1.5494 C   0  0  0  0  0  0  0  0  0  0  0  0
  -18.3672   -3.7645   -2.6414 N   0  0  0  0  0  0  0  0  0  0  0  0
  -18.5946   -4.0498   -3.5557 H   0  0  0  0  0  0  0  0  0  0  0  0
  -12.8856   -1.6353   -1.7362 Cl  0  0  0  0  0  0  0  0  0  0  0  0
  -16.1907   -5.7325   -2.7391 Cl  0  0  0  0  0  0  0  0  0  0  0  0
  -14.6831   -3.5642   -2.2097 C   0  0  0  0  0  0  0  0  0  0  0  0
  -16.8653   -1.8698   -2.0860 C   0  0  0  0  0  0  0  0  0  0  0  0
  -15.5283   -1.3339   -1.8904 C   0  0  0  0  0  0  0  0  0  0  0  0
  -14.4739   -2.2122   -1.9555 C   0  0  0  0  0  0  0  0  0  0  0  0
  -15.9622   -4.0750   -2.4032 C   0  0  0  0  0  0  0  0  0  0  0  0
  -17.0794   -3.2037   -2.3337 C   0  0  0  0  0  0  0  0  0  0  0  0
  -15.3161   -0.0028   -1.6501 O   0  0  0  0  0  0  0  0  0  0  0  0
  -16.3077    0.8116   -0.9868 C   0  0  0  0  0  0  0  0  0  0  0  0
  -20.0232   -9.0742    0.8234 O   0  0  0  0  0  0  0  0  0  0  0  0
  -21.2668   -9.4192    1.3025 C   0  0  0  0  0  0  0  0  0  0  0  0
  -22.0478   -9.9646    0.1048 C   0  0  0  0  0  0  0  0  0  0  0  0
  -23.5476   -9.9365    0.4065 C   0  0  0  0  0  0  0  0  0  0  0  0
  -26.4668   -5.6096   -1.7785 C   0  0  0  0  0  0  0  0  0  0  0  0
  -25.5827   -8.7659    0.0173 C   0  0  0  0  0  0  0  0  0  0  0  0
  -23.6249   -8.0294   -1.1215 C   0  0  0  0  0  0  0  0  0  0  0  0
  -26.3079   -7.4777   -0.3118 C   0  0  0  0  0  0  0  0  0  0  0  0
  -24.3804   -6.7442   -1.3896 C   0  0  0  0  0  0  0  0  0  0  0  0
  -24.1270   -8.6271    0.0757 N   0  0  0  0  0  0  0  0  0  0  0  0
  -25.7986   -6.8881   -1.5170 N   0  0  0  0  0  0  0  0  0  0  0  0
 11 12  1  0  0  0
 21 25  1  0  0  0
 26 25  1  0  0  0
 36 30  1  0  0  0
 29 30  1  0  0  0
 14 13  3  0  0  0
 17 22  1  0  0  0
 18 23  1  0  0  0
  5 14  1  0  0  0
  5  1  2  0  0  0
  4  1  1  0  0  0
 19 23  2  0  0  0
 19 22  1  0  0  0
 24 20  2  0  0  0
 21 20  1  0  0  0
  7  2  2  0  0  0
  2  9  1  0  0  0
  6  3  2  0  0  0
  3 10  1  0  0  0
 29 28  1  0  0  0
 27 28  1  0  0  0
 31 37  1  0  0  0
 36 32  1  0  0  0
 34 32  1  0  0  0
 35 33  1  0  0  0
 33 36  1  0  0  0
 37 34  1  0  0  0
 35 37  1  0  0  0
  9  4  2  0  0  0
 24 15  1  0  0  0
 15  8  1  0  0  0
 12  6  1  0  0  0
 27  7  1  0  0  0
 22 21  2  0  0  0
 23 24  1  0  0  0
  8  5  1  0  0  0
  6  7  1  0  0  0
 10  8  2  0  0  0
 10  9  1  0  0  0
 15 16  1  0  0  0
M  END
> <minimizedAffinity>
-8.30155

$$$$
