1D4L_PI9_A_201


 48 50  0  0  0  0  0  0  0  0999 V2000
    5.2657    4.2772    9.0761 C   0  0  0  0  0  0  0  0  0  0  0  0
    3.7956    4.2941    9.4100 C   0  0  0  0  0  0  0  0  0  0  0  0
    3.4947    3.6177   10.7355 C   0  0  0  0  0  0  0  0  0  0  0  0
    3.4755    4.2814   11.7619 O   0  0  0  0  0  0  0  0  0  0  0  0
    5.5224    3.2111    8.0512 C   0  0  0  0  0  0  0  0  0  0  0  0
    6.8179    3.4249    7.3071 C   0  0  0  0  0  0  0  0  0  0  0  0
    3.3145    2.2977   10.7302 N   0  0  0  0  0  0  0  0  0  0  0  0
    2.9930    1.5644   11.9665 C   0  0  0  0  0  0  0  0  0  0  0  0
    4.0334    0.5142   12.3984 C   0  0  0  0  0  0  0  0  0  0  0  0
    4.1760   -0.5404   11.7598 O   0  0  0  0  0  0  0  0  0  0  0  0
    4.7444    0.8069   13.4853 N   0  0  0  0  0  0  0  0  0  0  0  0
    5.7712   -0.1120   14.0265 C   0  0  0  0  0  0  0  0  0  0  0  0
    7.1498    0.5616   13.9950 C   0  0  0  0  0  0  0  0  0  0  0  0
    7.4981    1.1482   12.6380 C   0  0  0  0  0  0  0  0  0  0  0  0
    7.5040    2.5205   12.4468 C   0  0  0  0  0  0  0  0  0  0  0  0
    7.8094    3.0657   11.2391 C   0  0  0  0  0  0  0  0  0  0  0  0
    7.8124    0.3281   11.5495 C   0  0  0  0  0  0  0  0  0  0  0  0
    8.1195    0.8677   10.3227 C   0  0  0  0  0  0  0  0  0  0  0  0
    8.1179    2.2421   10.1847 C   0  0  0  0  0  0  0  0  0  0  0  0
    8.4348    2.8501    9.0074 O   0  0  0  0  0  0  0  0  0  0  0  0
    7.8709    2.4393    7.7775 C   0  0  0  0  0  0  0  0  0  0  0  0
    3.3978    1.8027    9.8833 H   0  0  0  0  0  0  0  0  0  0  0  0
    4.5819    1.6626   13.9443 H   0  0  0  0  0  0  0  0  0  0  0  0
    1.5985    0.8988   11.8613 C   0  0  0  0  0  0  0  0  0  0  0  0
    1.1077    0.4842   13.2370 C   0  0  0  0  0  0  0  0  0  0  0  0
    0.5998    1.8562   11.2138 C   0  0  0  0  0  0  0  0  0  0  0  0
    5.4156   -0.5557   15.4511 C   0  0  0  0  0  0  0  0  0  0  0  0
    5.3550    0.5855   16.3075 O   0  0  0  0  0  0  0  0  0  0  0  0
    6.2218    1.0203   16.3286 H   0  0  0  0  0  0  0  0  0  0  0  0
    6.4590   -1.5301   16.0044 C   0  0  0  0  0  0  0  0  0  0  0  0
    6.2627   -2.9111   15.5301 N   0  0  0  0  0  0  0  0  0  0  0  0
    7.4248   -3.6016   14.5881 S   0  0  0  0  0  0  0  0  0  0  0  0
    7.9191   -2.6147   13.6325 O   0  0  0  0  0  0  0  0  0  0  0  0
    6.8393   -4.7307   13.8780 O   0  0  0  0  0  0  0  0  0  0  0  0
    8.6662   -4.1080   15.5401 C   0  0  0  0  0  0  0  0  0  0  0  0
    8.6614   -5.4001   16.0340 C   0  0  0  0  0  0  0  0  0  0  0  0
    9.7713   -3.3025   15.7734 C   0  0  0  0  0  0  0  0  0  0  0  0
    9.7410   -5.9031   16.7404 C   0  0  0  0  0  0  0  0  0  0  0  0
   10.8662   -3.7992   16.4815 C   0  0  0  0  0  0  0  0  0  0  0  0
   10.8390   -5.1034   16.9614 C   0  0  0  0  0  0  0  0  0  0  0  0
   11.9210   -5.6466   17.6215 N   0  0  0  0  0  0  0  0  0  0  0  0
   11.8809   -6.5726   17.9535 H   0  0  0  0  0  0  0  0  0  0  0  0
   12.7335   -5.1084   17.7608 H   0  0  0  0  0  0  0  0  0  0  0  0
    5.4732   -3.7521   16.4411 C   0  0  0  0  0  0  0  0  0  0  0  0
    4.0370   -3.4255   16.0744 C   0  0  0  0  0  0  0  0  0  0  0  0
    3.5481   -4.1155   14.7972 C   0  0  0  0  0  0  0  0  0  0  0  0
    2.3468   -4.9844   15.1379 C   0  0  0  0  0  0  0  0  0  0  0  0
    3.2260   -3.0871   13.7203 C   0  0  0  0  0  0  0  0  0  0  0  0
  1  2  1  0  0  0
  1  5  1  0  0  0
  2  3  1  0  0  0
  3  4  2  0  0  0
  3  7  1  0  0  0
  5  6  1  0  0  0
  6 21  1  0  0  0
  7  8  1  0  0  0
  8 24  1  0  0  0
  8  9  1  0  0  0
 24 25  1  0  0  0
 24 26  1  0  0  0
  9 10  2  0  0  0
  9 11  1  0  0  0
 11 12  1  0  0  0
 12 13  1  0  0  0
 12 27  1  0  0  0
 13 14  1  0  0  0
 14 15  2  0  0  0
 14 17  1  0  0  0
 15 16  1  0  0  0
 16 19  2  0  0  0
 17 18  2  0  0  0
 18 19  1  0  0  0
 19 20  1  0  0  0
 20 21  1  0  0  0
 27 28  1  0  0  0
 27 30  1  0  0  0
 30 31  1  0  0  0
 31 44  1  0  0  0
 31 32  1  0  0  0
 44 45  1  0  0  0
 45 46  1  0  0  0
 46 47  1  0  0  0
 46 48  1  0  0  0
 32 33  2  0  0  0
 32 34  2  0  0  0
 32 35  1  0  0  0
 35 36  2  0  0  0
 35 37  1  0  0  0
 36 38  1  0  0  0
 37 39  2  0  0  0
 38 40  2  0  0  0
 39 40  1  0  0  0
 40 41  1  0  0  0
  7 22  1  0  0  0
 11 23  1  0  0  0
 28 29  1  0  0  0
 41 42  1  0  0  0
 41 43  1  0  0  0
M  END
> <minimizedAffinity>
-11.69090

$$$$
1D4L_PI9_A_201


 48 50  0  0  0  0  0  0  0  0999 V2000
    5.2948    4.2732    9.0457 C   0  0  0  0  0  0  0  0  0  0  0  0
    3.8395    4.3666    9.4282 C   0  0  0  0  0  0  0  0  0  0  0  0
    3.5492    3.7122   10.7671 C   0  0  0  0  0  0  0  0  0  0  0  0
    3.5983    4.3804   11.7895 O   0  0  0  0  0  0  0  0  0  0  0  0
    5.4622    3.1909    8.0193 C   0  0  0  0  0  0  0  0  0  0  0  0
    6.7413    3.3350    7.2312 C   0  0  0  0  0  0  0  0  0  0  0  0
    3.3018    2.4032   10.7757 N   0  0  0  0  0  0  0  0  0  0  0  0
    2.9850    1.6925   12.0264 C   0  0  0  0  0  0  0  0  0  0  0  0
    3.9844    0.5923   12.4297 C   0  0  0  0  0  0  0  0  0  0  0  0
    4.0515   -0.4709   11.7930 O   0  0  0  0  0  0  0  0  0  0  0  0
    4.7455    0.8529   13.4905 N   0  0  0  0  0  0  0  0  0  0  0  0
    5.7417   -0.1150   14.0027 C   0  0  0  0  0  0  0  0  0  0  0  0
    7.1510    0.4871   13.9213 C   0  0  0  0  0  0  0  0  0  0  0  0
    7.4830    1.0493   12.5499 C   0  0  0  0  0  0  0  0  0  0  0  0
    7.5524    2.4187   12.3504 C   0  0  0  0  0  0  0  0  0  0  0  0
    7.8446    2.9423   11.1300 C   0  0  0  0  0  0  0  0  0  0  0  0
    7.7184    0.2096   11.4566 C   0  0  0  0  0  0  0  0  0  0  0  0
    8.0112    0.7274   10.2170 C   0  0  0  0  0  0  0  0  0  0  0  0
    8.0751    2.0995   10.0708 C   0  0  0  0  0  0  0  0  0  0  0  0
    8.3829    2.6855    8.8801 O   0  0  0  0  0  0  0  0  0  0  0  0
    7.7578    2.2988    7.6721 C   0  0  0  0  0  0  0  0  0  0  0  0
    3.3313    1.9009    9.9295 H   0  0  0  0  0  0  0  0  0  0  0  0
    4.6423    1.7177   13.9495 H   0  0  0  0  0  0  0  0  0  0  0  0
    1.5557    1.0987   11.9716 C   0  0  0  0  0  0  0  0  0  0  0  0
    1.2249    0.4008   13.2789 C   0  0  0  0  0  0  0  0  0  0  0  0
    0.5335    2.1982   11.6899 C   0  0  0  0  0  0  0  0  0  0  0  0
    5.4119   -0.5338   15.4410 C   0  0  0  0  0  0  0  0  0  0  0  0
    5.3696    0.6218   16.2790 O   0  0  0  0  0  0  0  0  0  0  0  0
    6.2376    1.0549   16.2765 H   0  0  0  0  0  0  0  0  0  0  0  0
    6.4636   -1.5011   15.9911 C   0  0  0  0  0  0  0  0  0  0  0  0
    5.9473   -2.8696   16.1686 N   0  0  0  0  0  0  0  0  0  0  0  0
    4.3567   -3.1665   15.8577 S   0  0  0  0  0  0  0  0  0  0  0  0
    4.0687   -2.8363   14.4651 O   0  0  0  0  0  0  0  0  0  0  0  0
    3.5466   -2.3396   16.7419 O   0  0  0  0  0  0  0  0  0  0  0  0
    4.0403   -4.7591   16.1171 C   0  0  0  0  0  0  0  0  0  0  0  0
    3.7407   -5.1936   17.3957 C   0  0  0  0  0  0  0  0  0  0  0  0
    3.9635   -5.6599   15.0649 C   0  0  0  0  0  0  0  0  0  0  0  0
    3.3542   -6.5011   17.6379 C   0  0  0  0  0  0  0  0  0  0  0  0
    3.5725   -6.9792   15.2963 C   0  0  0  0  0  0  0  0  0  0  0  0
    3.2704   -7.3888   16.5896 C   0  0  0  0  0  0  0  0  0  0  0  0
    2.8322   -8.6698   16.8515 N   0  0  0  0  0  0  0  0  0  0  0  0
    2.6236   -8.9396   17.7751 H   0  0  0  0  0  0  0  0  0  0  0  0
    2.7279   -9.3146   16.1149 H   0  0  0  0  0  0  0  0  0  0  0  0
    6.9428   -3.9231   15.9247 C   0  0  0  0  0  0  0  0  0  0  0  0
    7.5650   -3.5265   14.5982 C   0  0  0  0  0  0  0  0  0  0  0  0
    8.8921   -4.2300   14.2979 C   0  0  0  0  0  0  0  0  0  0  0  0
    9.9871   -3.5922   15.1396 C   0  0  0  0  0  0  0  0  0  0  0  0
    8.7749   -5.7282   14.5480 C   0  0  0  0  0  0  0  0  0  0  0  0
  1  2  1  0  0  0
  1  5  1  0  0  0
  2  3  1  0  0  0
  3  4  2  0  0  0
  3  7  1  0  0  0
  5  6  1  0  0  0
  6 21  1  0  0  0
  7  8  1  0  0  0
  8 24  1  0  0  0
  8  9  1  0  0  0
 24 25  1  0  0  0
 24 26  1  0  0  0
  9 10  2  0  0  0
  9 11  1  0  0  0
 11 12  1  0  0  0
 12 13  1  0  0  0
 12 27  1  0  0  0
 13 14  1  0  0  0
 14 15  2  0  0  0
 14 17  1  0  0  0
 15 16  1  0  0  0
 16 19  2  0  0  0
 17 18  2  0  0  0
 18 19  1  0  0  0
 19 20  1  0  0  0
 20 21  1  0  0  0
 27 28  1  0  0  0
 27 30  1  0  0  0
 30 31  1  0  0  0
 31 44  1  0  0  0
 31 32  1  0  0  0
 44 45  1  0  0  0
 45 46  1  0  0  0
 46 47  1  0  0  0
 46 48  1  0  0  0
 32 33  2  0  0  0
 32 34  2  0  0  0
 32 35  1  0  0  0
 35 36  2  0  0  0
 35 37  1  0  0  0
 36 38  1  0  0  0
 37 39  2  0  0  0
 38 40  2  0  0  0
 39 40  1  0  0  0
 40 41  1  0  0  0
  7 22  1  0  0  0
 11 23  1  0  0  0
 28 29  1  0  0  0
 41 42  1  0  0  0
 41 43  1  0  0  0
M  END
> <minimizedAffinity>
-10.45111

$$$$
1D4L_PI9_A_201


 48 50  0  0  0  0  0  0  0  0999 V2000
    6.2058   -8.8757   18.0629 C   0  0  0  0  0  0  0  0  0  0  0  0
    7.6652   -8.5466   18.2487 C   0  0  0  0  0  0  0  0  0  0  0  0
    7.9436   -7.0590   18.1273 C   0  0  0  0  0  0  0  0  0  0  0  0
    7.9196   -6.3563   19.1273 O   0  0  0  0  0  0  0  0  0  0  0  0
    6.0012   -9.4304   16.6832 C   0  0  0  0  0  0  0  0  0  0  0  0
    4.7226  -10.2232   16.5630 C   0  0  0  0  0  0  0  0  0  0  0  0
    8.1528   -6.5657   16.9076 N   0  0  0  0  0  0  0  0  0  0  0  0
    8.4556   -5.1392   16.7007 C   0  0  0  0  0  0  0  0  0  0  0  0
    7.4267   -4.3634   15.8571 C   0  0  0  0  0  0  0  0  0  0  0  0
    7.3251   -4.5624   14.6363 O   0  0  0  0  0  0  0  0  0  0  0  0
    6.6794   -3.4784   16.5134 N   0  0  0  0  0  0  0  0  0  0  0  0
    5.6582   -2.6504   15.8328 C   0  0  0  0  0  0  0  0  0  0  0  0
    4.2666   -2.9566   16.4029 C   0  0  0  0  0  0  0  0  0  0  0  0
    3.9436   -4.4406   16.4278 C   0  0  0  0  0  0  0  0  0  0  0  0
    3.9131   -5.1325   17.6278 C   0  0  0  0  0  0  0  0  0  0  0  0
    3.6296   -6.4617   17.6716 C   0  0  0  0  0  0  0  0  0  0  0  0
    3.6779   -5.1474   15.2506 C   0  0  0  0  0  0  0  0  0  0  0  0
    3.3935   -6.4923   15.2819 C   0  0  0  0  0  0  0  0  0  0  0  0
    3.3689   -7.1356   16.5040 C   0  0  0  0  0  0  0  0  0  0  0  0
    3.0718   -8.4604   16.6170 O   0  0  0  0  0  0  0  0  0  0  0  0
    3.6787   -9.4363   15.7932 C   0  0  0  0  0  0  0  0  0  0  0  0
    8.1040   -7.1665   16.1292 H   0  0  0  0  0  0  0  0  0  0  0  0
    6.8102   -3.3710   17.4832 H   0  0  0  0  0  0  0  0  0  0  0  0
    9.8667   -4.9624   16.0873 C   0  0  0  0  0  0  0  0  0  0  0  0
   10.1899   -3.4876   15.9264 C   0  0  0  0  0  0  0  0  0  0  0  0
   10.9172   -5.6375   16.9670 C   0  0  0  0  0  0  0  0  0  0  0  0
    5.9834   -1.1574   15.9659 C   0  0  0  0  0  0  0  0  0  0  0  0
    5.3352   -0.6268   17.1225 O   0  0  0  0  0  0  0  0  0  0  0  0
    4.3748   -0.7247   17.0283 H   0  0  0  0  0  0  0  0  0  0  0  0
    5.5115   -0.3760   14.7366 C   0  0  0  0  0  0  0  0  0  0  0  0
    5.6304   -1.1467   13.4866 N   0  0  0  0  0  0  0  0  0  0  0  0
    4.2748   -1.4278   12.5931 S   0  0  0  0  0  0  0  0  0  0  0  0
    3.2663   -2.0636   13.4357 O   0  0  0  0  0  0  0  0  0  0  0  0
    4.6212   -2.3064   11.4841 O   0  0  0  0  0  0  0  0  0  0  0  0
    3.6905    0.0014   12.0277 C   0  0  0  0  0  0  0  0  0  0  0  0
    2.3539    0.3089   12.2081 C   0  0  0  0  0  0  0  0  0  0  0  0
    4.5300    0.9526   11.4667 C   0  0  0  0  0  0  0  0  0  0  0  0
    1.8476    1.5479   11.8530 C   0  0  0  0  0  0  0  0  0  0  0  0
    4.0319    2.2056   11.1075 C   0  0  0  0  0  0  0  0  0  0  0  0
    2.6862    2.4917   11.3054 C   0  0  0  0  0  0  0  0  0  0  0  0
    2.1671    3.7347   11.0102 N   0  0  0  0  0  0  0  0  0  0  0  0
    1.2109    3.9165   11.1579 H   0  0  0  0  0  0  0  0  0  0  0  0
    2.7527    4.4402   10.6518 H   0  0  0  0  0  0  0  0  0  0  0  0
    6.9266   -0.9971   12.8100 C   0  0  0  0  0  0  0  0  0  0  0  0
    7.4037    0.3746   13.2514 C   0  0  0  0  0  0  0  0  0  0  0  0
    8.2883    1.0868   12.2234 C   0  0  0  0  0  0  0  0  0  0  0  0
    8.3121    0.2651   10.9434 C   0  0  0  0  0  0  0  0  0  0  0  0
    7.7960    2.5085   11.9838 C   0  0  0  0  0  0  0  0  0  0  0  0
  1  2  1  0  0  0
  1  5  1  0  0  0
  2  3  1  0  0  0
  3  4  2  0  0  0
  3  7  1  0  0  0
  5  6  1  0  0  0
  6 21  1  0  0  0
  7  8  1  0  0  0
  8 24  1  0  0  0
  8  9  1  0  0  0
 24 25  1  0  0  0
 24 26  1  0  0  0
  9 10  2  0  0  0
  9 11  1  0  0  0
 11 12  1  0  0  0
 12 13  1  0  0  0
 12 27  1  0  0  0
 13 14  1  0  0  0
 14 15  2  0  0  0
 14 17  1  0  0  0
 15 16  1  0  0  0
 16 19  2  0  0  0
 17 18  2  0  0  0
 18 19  1  0  0  0
 19 20  1  0  0  0
 20 21  1  0  0  0
 27 28  1  0  0  0
 27 30  1  0  0  0
 30 31  1  0  0  0
 31 44  1  0  0  0
 31 32  1  0  0  0
 44 45  1  0  0  0
 45 46  1  0  0  0
 46 47  1  0  0  0
 46 48  1  0  0  0
 32 33  2  0  0  0
 32 34  2  0  0  0
 32 35  1  0  0  0
 35 36  2  0  0  0
 35 37  1  0  0  0
 36 38  1  0  0  0
 37 39  2  0  0  0
 38 40  2  0  0  0
 39 40  1  0  0  0
 40 41  1  0  0  0
  7 22  1  0  0  0
 11 23  1  0  0  0
 28 29  1  0  0  0
 41 42  1  0  0  0
 41 43  1  0  0  0
M  END
> <minimizedAffinity>
-10.44061

$$$$
1D4L_PI9_A_201


 48 50  0  0  0  0  0  0  0  0999 V2000
    6.2342   -8.8239   18.0987 C   0  0  0  0  0  0  0  0  0  0  0  0
    7.6882   -8.4656   18.2725 C   0  0  0  0  0  0  0  0  0  0  0  0
    7.9408   -6.9768   18.1153 C   0  0  0  0  0  0  0  0  0  0  0  0
    7.9073   -6.2512   19.0985 O   0  0  0  0  0  0  0  0  0  0  0  0
    6.0357   -9.4144   16.7332 C   0  0  0  0  0  0  0  0  0  0  0  0
    4.7705  -10.2315   16.6353 C   0  0  0  0  0  0  0  0  0  0  0  0
    8.1385   -6.5090   16.8837 N   0  0  0  0  0  0  0  0  0  0  0  0
    8.4163   -5.0828   16.6423 C   0  0  0  0  0  0  0  0  0  0  0  0
    7.3722   -4.3448   15.7837 C   0  0  0  0  0  0  0  0  0  0  0  0
    7.2710   -4.5743   14.5682 O   0  0  0  0  0  0  0  0  0  0  0  0
    6.6115   -3.4574   16.4211 N   0  0  0  0  0  0  0  0  0  0  0  0
    5.5745   -2.6632   15.7241 C   0  0  0  0  0  0  0  0  0  0  0  0
    4.1898   -2.9796   16.3053 C   0  0  0  0  0  0  0  0  0  0  0  0
    3.8924   -4.4678   16.3661 C   0  0  0  0  0  0  0  0  0  0  0  0
    3.8767   -5.1316   17.5822 C   0  0  0  0  0  0  0  0  0  0  0  0
    3.6161   -6.4641   17.6581 C   0  0  0  0  0  0  0  0  0  0  0  0
    3.6358   -5.2067   15.2067 C   0  0  0  0  0  0  0  0  0  0  0  0
    3.3746   -6.5551   15.2705 C   0  0  0  0  0  0  0  0  0  0  0  0
    3.3640   -7.1697   16.5075 C   0  0  0  0  0  0  0  0  0  0  0  0
    3.0900   -8.4963   16.6526 O   0  0  0  0  0  0  0  0  0  0  0  0
    3.7114   -9.4809   15.8503 C   0  0  0  0  0  0  0  0  0  0  0  0
    8.0981   -7.1287   16.1198 H   0  0  0  0  0  0  0  0  0  0  0  0
    6.7429   -3.3250   17.3877 H   0  0  0  0  0  0  0  0  0  0  0  0
    9.8226   -4.8965   16.0209 C   0  0  0  0  0  0  0  0  0  0  0  0
   10.0035   -3.4654   15.5469 C   0  0  0  0  0  0  0  0  0  0  0  0
   10.9049   -5.2539   17.0378 C   0  0  0  0  0  0  0  0  0  0  0  0
    5.8746   -1.1622   15.8210 C   0  0  0  0  0  0  0  0  0  0  0  0
    5.3734   -0.6520   17.0571 O   0  0  0  0  0  0  0  0  0  0  0  0
    4.4119   -0.7759   17.0920 H   0  0  0  0  0  0  0  0  0  0  0  0
    5.2212   -0.3914   14.6707 C   0  0  0  0  0  0  0  0  0  0  0  0
    5.3381   -1.0850   13.3760 N   0  0  0  0  0  0  0  0  0  0  0  0
    3.9650   -1.5816   12.6126 S   0  0  0  0  0  0  0  0  0  0  0  0
    3.3743   -2.6897   13.3572 O   0  0  0  0  0  0  0  0  0  0  0  0
    4.3115   -2.0166   11.2663 O   0  0  0  0  0  0  0  0  0  0  0  0
    2.8954   -0.3342   12.5517 C   0  0  0  0  0  0  0  0  0  0  0  0
    3.0739    0.6699   11.6170 C   0  0  0  0  0  0  0  0  0  0  0  0
    1.7586   -0.3193   13.3466 C   0  0  0  0  0  0  0  0  0  0  0  0
    2.1349    1.6745   11.4538 C   0  0  0  0  0  0  0  0  0  0  0  0
    0.8041    0.6863   13.1893 C   0  0  0  0  0  0  0  0  0  0  0  0
    1.0041    1.6798   12.2382 C   0  0  0  0  0  0  0  0  0  0  0  0
    0.0609    2.6614   12.0182 N   0  0  0  0  0  0  0  0  0  0  0  0
    0.2224    3.3561   11.3396 H   0  0  0  0  0  0  0  0  0  0  0  0
   -0.7741    2.6675   12.5399 H   0  0  0  0  0  0  0  0  0  0  0  0
    6.5035   -0.6762   12.5791 C   0  0  0  0  0  0  0  0  0  0  0  0
    6.4420    0.8401   12.6080 C   0  0  0  0  0  0  0  0  0  0  0  0
    7.7269    1.5246   12.1316 C   0  0  0  0  0  0  0  0  0  0  0  0
    8.3486    2.2707   13.3025 C   0  0  0  0  0  0  0  0  0  0  0  0
    8.6850    0.5071   11.5254 C   0  0  0  0  0  0  0  0  0  0  0  0
  1  2  1  0  0  0
  1  5  1  0  0  0
  2  3  1  0  0  0
  3  4  2  0  0  0
  3  7  1  0  0  0
  5  6  1  0  0  0
  6 21  1  0  0  0
  7  8  1  0  0  0
  8 24  1  0  0  0
  8  9  1  0  0  0
 24 25  1  0  0  0
 24 26  1  0  0  0
  9 10  2  0  0  0
  9 11  1  0  0  0
 11 12  1  0  0  0
 12 13  1  0  0  0
 12 27  1  0  0  0
 13 14  1  0  0  0
 14 15  2  0  0  0
 14 17  1  0  0  0
 15 16  1  0  0  0
 16 19  2  0  0  0
 17 18  2  0  0  0
 18 19  1  0  0  0
 19 20  1  0  0  0
 20 21  1  0  0  0
 27 28  1  0  0  0
 27 30  1  0  0  0
 30 31  1  0  0  0
 31 44  1  0  0  0
 31 32  1  0  0  0
 44 45  1  0  0  0
 45 46  1  0  0  0
 46 47  1  0  0  0
 46 48  1  0  0  0
 32 33  2  0  0  0
 32 34  2  0  0  0
 32 35  1  0  0  0
 35 36  2  0  0  0
 35 37  1  0  0  0
 36 38  1  0  0  0
 37 39  2  0  0  0
 38 40  2  0  0  0
 39 40  1  0  0  0
 40 41  1  0  0  0
  7 22  1  0  0  0
 11 23  1  0  0  0
 28 29  1  0  0  0
 41 42  1  0  0  0
 41 43  1  0  0  0
M  END
> <minimizedAffinity>
-10.41051

$$$$
1D4L_PI9_A_201


 48 50  0  0  0  0  0  0  0  0999 V2000
    6.0225   -8.5967   18.1167 C   0  0  0  0  0  0  0  0  0  0  0  0
    7.4708   -8.2339   18.3252 C   0  0  0  0  0  0  0  0  0  0  0  0
    7.7280   -6.7486   18.1438 C   0  0  0  0  0  0  0  0  0  0  0  0
    7.6658   -6.0023   19.1100 O   0  0  0  0  0  0  0  0  0  0  0  0
    5.8639   -9.2161   16.7588 C   0  0  0  0  0  0  0  0  0  0  0  0
    4.6021  -10.0359   16.6414 C   0  0  0  0  0  0  0  0  0  0  0  0
    7.9615   -6.3069   16.9089 N   0  0  0  0  0  0  0  0  0  0  0  0
    8.2463   -4.8860   16.6455 C   0  0  0  0  0  0  0  0  0  0  0  0
    7.2277   -4.1671   15.7412 C   0  0  0  0  0  0  0  0  0  0  0  0
    7.1620   -4.4223   14.5285 O   0  0  0  0  0  0  0  0  0  0  0  0
    6.4488   -3.2668   16.3372 N   0  0  0  0  0  0  0  0  0  0  0  0
    5.4326   -2.4882   15.5935 C   0  0  0  0  0  0  0  0  0  0  0  0
    4.0315   -2.7929   16.1406 C   0  0  0  0  0  0  0  0  0  0  0  0
    3.7324   -4.2797   16.2244 C   0  0  0  0  0  0  0  0  0  0  0  0
    3.6812   -4.9176   17.4533 C   0  0  0  0  0  0  0  0  0  0  0  0
    3.4185   -6.2482   17.5498 C   0  0  0  0  0  0  0  0  0  0  0  0
    3.5097   -5.0432   15.0739 C   0  0  0  0  0  0  0  0  0  0  0  0
    3.2467   -6.3901   15.1587 C   0  0  0  0  0  0  0  0  0  0  0  0
    3.2000   -6.9783   16.4076 C   0  0  0  0  0  0  0  0  0  0  0  0
    2.9218   -8.3017   16.5728 O   0  0  0  0  0  0  0  0  0  0  0  0
    3.5664   -9.3028   15.8101 C   0  0  0  0  0  0  0  0  0  0  0  0
    7.9434   -6.9428   16.1575 H   0  0  0  0  0  0  0  0  0  0  0  0
    6.5519   -3.1137   17.3042 H   0  0  0  0  0  0  0  0  0  0  0  0
    9.6701   -4.7121   16.0615 C   0  0  0  0  0  0  0  0  0  0  0  0
    9.9802   -3.2395   15.8593 C   0  0  0  0  0  0  0  0  0  0  0  0
   10.7061   -5.3446   16.9889 C   0  0  0  0  0  0  0  0  0  0  0  0
    5.7297   -0.9852   15.6672 C   0  0  0  0  0  0  0  0  0  0  0  0
    5.5758   -0.5316   17.0126 O   0  0  0  0  0  0  0  0  0  0  0  0
    4.6612   -0.6783   17.3006 H   0  0  0  0  0  0  0  0  0  0  0  0
    4.7802   -0.1882   14.7686 C   0  0  0  0  0  0  0  0  0  0  0  0
    5.2800   -0.0451   13.3900 N   0  0  0  0  0  0  0  0  0  0  0  0
    6.9039    0.0804   13.1414 S   0  0  0  0  0  0  0  0  0  0  0  0
    7.5020   -1.2507   13.1864 O   0  0  0  0  0  0  0  0  0  0  0  0
    7.4729    0.9163   14.1899 O   0  0  0  0  0  0  0  0  0  0  0  0
    7.1776    0.7512   11.6653 C   0  0  0  0  0  0  0  0  0  0  0  0
    8.2630    0.3309   10.9178 C   0  0  0  0  0  0  0  0  0  0  0  0
    6.2849    1.6543   11.1067 C   0  0  0  0  0  0  0  0  0  0  0  0
    8.4629    0.7835    9.6244 C   0  0  0  0  0  0  0  0  0  0  0  0
    6.4744    2.1151    9.8033 C   0  0  0  0  0  0  0  0  0  0  0  0
    7.5696    1.6721    9.0711 C   0  0  0  0  0  0  0  0  0  0  0  0
    7.7636    2.0652    7.7636 N   0  0  0  0  0  0  0  0  0  0  0  0
    8.5461    1.7397    7.2627 H   0  0  0  0  0  0  0  0  0  0  0  0
    7.1196    2.6714    7.3311 H   0  0  0  0  0  0  0  0  0  0  0  0
    4.4394   -0.6975   12.3760 C   0  0  0  0  0  0  0  0  0  0  0  0
    3.0408   -0.6053   12.9583 C   0  0  0  0  0  0  0  0  0  0  0  0
    2.1198    0.3673   12.2151 C   0  0  0  0  0  0  0  0  0  0  0  0
    0.8093    0.4830   12.9789 C   0  0  0  0  0  0  0  0  0  0  0  0
    2.7995    1.7185   12.0332 C   0  0  0  0  0  0  0  0  0  0  0  0
  1  2  1  0  0  0
  1  5  1  0  0  0
  2  3  1  0  0  0
  3  4  2  0  0  0
  3  7  1  0  0  0
  5  6  1  0  0  0
  6 21  1  0  0  0
  7  8  1  0  0  0
  8 24  1  0  0  0
  8  9  1  0  0  0
 24 25  1  0  0  0
 24 26  1  0  0  0
  9 10  2  0  0  0
  9 11  1  0  0  0
 11 12  1  0  0  0
 12 13  1  0  0  0
 12 27  1  0  0  0
 13 14  1  0  0  0
 14 15  2  0  0  0
 14 17  1  0  0  0
 15 16  1  0  0  0
 16 19  2  0  0  0
 17 18  2  0  0  0
 18 19  1  0  0  0
 19 20  1  0  0  0
 20 21  1  0  0  0
 27 28  1  0  0  0
 27 30  1  0  0  0
 30 31  1  0  0  0
 31 44  1  0  0  0
 31 32  1  0  0  0
 44 45  1  0  0  0
 45 46  1  0  0  0
 46 47  1  0  0  0
 46 48  1  0  0  0
 32 33  2  0  0  0
 32 34  2  0  0  0
 32 35  1  0  0  0
 35 36  2  0  0  0
 35 37  1  0  0  0
 36 38  1  0  0  0
 37 39  2  0  0  0
 38 40  2  0  0  0
 39 40  1  0  0  0
 40 41  1  0  0  0
  7 22  1  0  0  0
 11 23  1  0  0  0
 28 29  1  0  0  0
 41 42  1  0  0  0
 41 43  1  0  0  0
M  END
> <minimizedAffinity>
-10.25853

$$$$
1D4L_PI9_A_201


 48 50  0  0  0  0  0  0  0  0999 V2000
    5.1569    4.9261    3.7353 C   0  0  0  0  0  0  0  0  0  0  0  0
    6.3158    4.0857    4.2080 C   0  0  0  0  0  0  0  0  0  0  0  0
    6.0100    3.3524    5.5018 C   0  0  0  0  0  0  0  0  0  0  0  0
    5.5390    2.2251    5.4605 O   0  0  0  0  0  0  0  0  0  0  0  0
    5.4303    6.3651    4.0632 C   0  0  0  0  0  0  0  0  0  0  0  0
    4.6039    7.3145    3.2305 C   0  0  0  0  0  0  0  0  0  0  0  0
    6.2216    4.0010    6.6460 N   0  0  0  0  0  0  0  0  0  0  0  0
    5.9766    3.3564    7.9476 C   0  0  0  0  0  0  0  0  0  0  0  0
    4.8926    4.0203    8.8173 C   0  0  0  0  0  0  0  0  0  0  0  0
    5.0928    5.1218    9.3529 O   0  0  0  0  0  0  0  0  0  0  0  0
    3.7571    3.3398    8.9583 N   0  0  0  0  0  0  0  0  0  0  0  0
    2.6310    3.8461    9.7753 C   0  0  0  0  0  0  0  0  0  0  0  0
    1.3917    4.0517    8.8938 C   0  0  0  0  0  0  0  0  0  0  0  0
    1.6728    4.8759    7.6493 C   0  0  0  0  0  0  0  0  0  0  0  0
    1.7035    4.2750    6.4012 C   0  0  0  0  0  0  0  0  0  0  0  0
    1.9568    4.9941    5.2753 C   0  0  0  0  0  0  0  0  0  0  0  0
    1.9145    6.2513    7.7265 C   0  0  0  0  0  0  0  0  0  0  0  0
    2.1753    6.9883    6.5955 C   0  0  0  0  0  0  0  0  0  0  0  0
    2.1885    6.3439    5.3737 C   0  0  0  0  0  0  0  0  0  0  0  0
    2.4156    7.0110    4.2078 O   0  0  0  0  0  0  0  0  0  0  0  0
    3.4890    7.9199    4.0624 C   0  0  0  0  0  0  0  0  0  0  0  0
    6.5481    4.9294    6.6212 H   0  0  0  0  0  0  0  0  0  0  0  0
    3.6631    2.4712    8.5045 H   0  0  0  0  0  0  0  0  0  0  0  0
    7.2915    3.2413    8.7577 C   0  0  0  0  0  0  0  0  0  0  0  0
    7.9455    1.8933    8.5112 C   0  0  0  0  0  0  0  0  0  0  0  0
    8.2506    4.3678    8.3776 C   0  0  0  0  0  0  0  0  0  0  0  0
    2.3207    2.8915   10.9350 C   0  0  0  0  0  0  0  0  0  0  0  0
    1.1077    3.2916   11.5737 O   0  0  0  0  0  0  0  0  0  0  0  0
    1.2112    4.1869   11.9323 H   0  0  0  0  0  0  0  0  0  0  0  0
    3.4467    2.8960   11.9725 C   0  0  0  0  0  0  0  0  0  0  0  0
    4.0714    1.5731   12.1469 N   0  0  0  0  0  0  0  0  0  0  0  0
    3.1244    0.2971   12.5826 S   0  0  0  0  0  0  0  0  0  0  0  0
    2.9523   -0.5886   11.4348 O   0  0  0  0  0  0  0  0  0  0  0  0
    1.8298    0.8043   13.0171 O   0  0  0  0  0  0  0  0  0  0  0  0
    3.8529   -0.5285   13.8038 C   0  0  0  0  0  0  0  0  0  0  0  0
    3.6422   -1.8903   13.9248 C   0  0  0  0  0  0  0  0  0  0  0  0
    4.7580    0.0905   14.6535 C   0  0  0  0  0  0  0  0  0  0  0  0
    4.3266   -2.6424   14.8647 C   0  0  0  0  0  0  0  0  0  0  0  0
    5.4558   -0.6574   15.6026 C   0  0  0  0  0  0  0  0  0  0  0  0
    5.2306   -2.0256   15.6992 C   0  0  0  0  0  0  0  0  0  0  0  0
    5.9366   -2.8068   16.5896 N   0  0  0  0  0  0  0  0  0  0  0  0
    5.7615   -3.7742   16.6420 H   0  0  0  0  0  0  0  0  0  0  0  0
    6.6157   -2.3971   17.1729 H   0  0  0  0  0  0  0  0  0  0  0  0
    5.2454    1.3463   11.2922 C   0  0  0  0  0  0  0  0  0  0  0  0
    6.2998    2.2650   11.8822 C   0  0  0  0  0  0  0  0  0  0  0  0
    7.5918    1.5498   12.2889 C   0  0  0  0  0  0  0  0  0  0  0  0
    7.9164    1.9056   13.7319 C   0  0  0  0  0  0  0  0  0  0  0  0
    7.4610    0.0458   12.0839 C   0  0  0  0  0  0  0  0  0  0  0  0
  1  2  1  0  0  0
  1  5  1  0  0  0
  2  3  1  0  0  0
  3  4  2  0  0  0
  3  7  1  0  0  0
  5  6  1  0  0  0
  6 21  1  0  0  0
  7  8  1  0  0  0
  8 24  1  0  0  0
  8  9  1  0  0  0
 24 25  1  0  0  0
 24 26  1  0  0  0
  9 10  2  0  0  0
  9 11  1  0  0  0
 11 12  1  0  0  0
 12 13  1  0  0  0
 12 27  1  0  0  0
 13 14  1  0  0  0
 14 15  2  0  0  0
 14 17  1  0  0  0
 15 16  1  0  0  0
 16 19  2  0  0  0
 17 18  2  0  0  0
 18 19  1  0  0  0
 19 20  1  0  0  0
 20 21  1  0  0  0
 27 28  1  0  0  0
 27 30  1  0  0  0
 30 31  1  0  0  0
 31 44  1  0  0  0
 31 32  1  0  0  0
 44 45  1  0  0  0
 45 46  1  0  0  0
 46 47  1  0  0  0
 46 48  1  0  0  0
 32 33  2  0  0  0
 32 34  2  0  0  0
 32 35  1  0  0  0
 35 36  2  0  0  0
 35 37  1  0  0  0
 36 38  1  0  0  0
 37 39  2  0  0  0
 38 40  2  0  0  0
 39 40  1  0  0  0
 40 41  1  0  0  0
  7 22  1  0  0  0
 11 23  1  0  0  0
 28 29  1  0  0  0
 41 42  1  0  0  0
 41 43  1  0  0  0
M  END
> <minimizedAffinity>
-9.21582

$$$$
1D4L_PI9_A_201


 48 50  0  0  0  0  0  0  0  0999 V2000
    3.1004    3.1623   10.0287 C   0  0  0  0  0  0  0  0  0  0  0  0
    4.4784    3.7692    9.9542 C   0  0  0  0  0  0  0  0  0  0  0  0
    5.5504    2.8410   10.4966 C   0  0  0  0  0  0  0  0  0  0  0  0
    6.1248    2.0731    9.7385 O   0  0  0  0  0  0  0  0  0  0  0  0
    2.3642    3.7614   11.1914 C   0  0  0  0  0  0  0  0  0  0  0  0
    0.8681    3.6023   11.0721 C   0  0  0  0  0  0  0  0  0  0  0  0
    5.7853    2.8657   11.8077 N   0  0  0  0  0  0  0  0  0  0  0  0
    6.8252    2.0175   12.4149 C   0  0  0  0  0  0  0  0  0  0  0  0
    6.3175    0.9842   13.4379 C   0  0  0  0  0  0  0  0  0  0  0  0
    5.9003    1.3422   14.5505 O   0  0  0  0  0  0  0  0  0  0  0  0
    6.3667   -0.2904   13.0564 N   0  0  0  0  0  0  0  0  0  0  0  0
    5.9251   -1.3946   13.9380 C   0  0  0  0  0  0  0  0  0  0  0  0
    4.7504   -2.1443   13.2951 C   0  0  0  0  0  0  0  0  0  0  0  0
    3.6281   -1.2248   12.8458 C   0  0  0  0  0  0  0  0  0  0  0  0
    3.4137   -0.9850   11.4981 C   0  0  0  0  0  0  0  0  0  0  0  0
    2.4169   -0.1626   11.0751 C   0  0  0  0  0  0  0  0  0  0  0  0
    2.7907   -0.5928   13.7707 C   0  0  0  0  0  0  0  0  0  0  0  0
    1.7816    0.2437   13.3552 C   0  0  0  0  0  0  0  0  0  0  0  0
    1.6045    0.4454   12.0002 C   0  0  0  0  0  0  0  0  0  0  0  0
    0.6120    1.2408   11.5121 O   0  0  0  0  0  0  0  0  0  0  0  0
    0.3685    2.5349   12.0273 C   0  0  0  0  0  0  0  0  0  0  0  0
    5.2533    3.4626   12.3821 H   0  0  0  0  0  0  0  0  0  0  0  0
    6.7079   -0.5056   12.1583 H   0  0  0  0  0  0  0  0  0  0  0  0
    7.9314    2.8867   13.0626 C   0  0  0  0  0  0  0  0  0  0  0  0
    9.2810    2.2030   12.9343 C   0  0  0  0  0  0  0  0  0  0  0  0
    7.9765    4.2655   12.4066 C   0  0  0  0  0  0  0  0  0  0  0  0
    7.0832   -2.3545   14.2385 C   0  0  0  0  0  0  0  0  0  0  0  0
    8.2127   -2.0089   13.4359 O   0  0  0  0  0  0  0  0  0  0  0  0
    7.9804   -2.0921   12.4978 H   0  0  0  0  0  0  0  0  0  0  0  0
    6.6928   -3.8043   13.9387 C   0  0  0  0  0  0  0  0  0  0  0  0
    7.0435   -4.7302   15.0298 N   0  0  0  0  0  0  0  0  0  0  0  0
    8.5729   -5.3395   15.0957 S   0  0  0  0  0  0  0  0  0  0  0  0
    9.5209   -4.2429   15.2692 O   0  0  0  0  0  0  0  0  0  0  0  0
    8.8489   -6.0422   13.8499 O   0  0  0  0  0  0  0  0  0  0  0  0
    8.6927   -6.3705   16.3710 C   0  0  0  0  0  0  0  0  0  0  0  0
    8.2999   -7.6882   16.2197 C   0  0  0  0  0  0  0  0  0  0  0  0
    9.2772   -5.9755   17.5655 C   0  0  0  0  0  0  0  0  0  0  0  0
    8.4929   -8.6158   17.2296 C   0  0  0  0  0  0  0  0  0  0  0  0
    9.4795   -6.9018   18.5892 C   0  0  0  0  0  0  0  0  0  0  0  0
    9.0818   -8.2214   18.4093 C   0  0  0  0  0  0  0  0  0  0  0  0
    9.3099   -9.1767   19.3773 N   0  0  0  0  0  0  0  0  0  0  0  0
    9.0200  -10.1059   19.2298 H   0  0  0  0  0  0  0  0  0  0  0  0
    9.7626   -8.9295   20.2158 H   0  0  0  0  0  0  0  0  0  0  0  0
    6.3016   -4.4966   16.2770 C   0  0  0  0  0  0  0  0  0  0  0  0
    5.1738   -5.5107   16.2171 C   0  0  0  0  0  0  0  0  0  0  0  0
    3.7771   -4.8853   16.1495 C   0  0  0  0  0  0  0  0  0  0  0  0
    3.8730   -3.4243   16.5622 C   0  0  0  0  0  0  0  0  0  0  0  0
    3.1809   -5.0507   14.7573 C   0  0  0  0  0  0  0  0  0  0  0  0
  1  2  1  0  0  0
  1  5  1  0  0  0
  2  3  1  0  0  0
  3  4  2  0  0  0
  3  7  1  0  0  0
  5  6  1  0  0  0
  6 21  1  0  0  0
  7  8  1  0  0  0
  8 24  1  0  0  0
  8  9  1  0  0  0
 24 25  1  0  0  0
 24 26  1  0  0  0
  9 10  2  0  0  0
  9 11  1  0  0  0
 11 12  1  0  0  0
 12 13  1  0  0  0
 12 27  1  0  0  0
 13 14  1  0  0  0
 14 15  2  0  0  0
 14 17  1  0  0  0
 15 16  1  0  0  0
 16 19  2  0  0  0
 17 18  2  0  0  0
 18 19  1  0  0  0
 19 20  1  0  0  0
 20 21  1  0  0  0
 27 28  1  0  0  0
 27 30  1  0  0  0
 30 31  1  0  0  0
 31 44  1  0  0  0
 31 32  1  0  0  0
 44 45  1  0  0  0
 45 46  1  0  0  0
 46 47  1  0  0  0
 46 48  1  0  0  0
 32 33  2  0  0  0
 32 34  2  0  0  0
 32 35  1  0  0  0
 35 36  2  0  0  0
 35 37  1  0  0  0
 36 38  1  0  0  0
 37 39  2  0  0  0
 38 40  2  0  0  0
 39 40  1  0  0  0
 40 41  1  0  0  0
  7 22  1  0  0  0
 11 23  1  0  0  0
 28 29  1  0  0  0
 41 42  1  0  0  0
 41 43  1  0  0  0
M  END
> <minimizedAffinity>
-9.10973

$$$$
1D4L_PI9_A_201


 48 50  0  0  0  0  0  0  0  0999 V2000
    3.9746    4.7090    7.6783 C   0  0  0  0  0  0  0  0  0  0  0  0
    2.6536    4.6169    8.3989 C   0  0  0  0  0  0  0  0  0  0  0  0
    2.8050    4.1184    9.8250 C   0  0  0  0  0  0  0  0  0  0  0  0
    2.9553    4.9225   10.7334 O   0  0  0  0  0  0  0  0  0  0  0  0
    4.1097    3.5353    6.7526 C   0  0  0  0  0  0  0  0  0  0  0  0
    5.1251    3.7737    5.6617 C   0  0  0  0  0  0  0  0  0  0  0  0
    2.8218    2.8009   10.0218 N   0  0  0  0  0  0  0  0  0  0  0  0
    2.9388    2.2308   11.3749 C   0  0  0  0  0  0  0  0  0  0  0  0
    4.1956    1.3758   11.6226 C   0  0  0  0  0  0  0  0  0  0  0  0
    4.3194    0.2590   11.0956 O   0  0  0  0  0  0  0  0  0  0  0  0
    5.1125    1.9031   12.4310 N   0  0  0  0  0  0  0  0  0  0  0  0
    6.3655    1.1920   12.7717 C   0  0  0  0  0  0  0  0  0  0  0  0
    7.5775    1.9981   12.2851 C   0  0  0  0  0  0  0  0  0  0  0  0
    7.4761    2.4088   10.8263 C   0  0  0  0  0  0  0  0  0  0  0  0
    7.2346    3.7294   10.4838 C   0  0  0  0  0  0  0  0  0  0  0  0
    7.1368    4.1171    9.1841 C   0  0  0  0  0  0  0  0  0  0  0  0
    7.6144    1.4736    9.7956 C   0  0  0  0  0  0  0  0  0  0  0  0
    7.5140    1.8530    8.4779 C   0  0  0  0  0  0  0  0  0  0  0  0
    7.2788    3.1829    8.1879 C   0  0  0  0  0  0  0  0  0  0  0  0
    7.1907    3.6382    6.9069 O   0  0  0  0  0  0  0  0  0  0  0  0
    6.3944    2.9892    5.9352 C   0  0  0  0  0  0  0  0  0  0  0  0
    2.7547    2.1964    9.2477 H   0  0  0  0  0  0  0  0  0  0  0  0
    4.9521    2.7953   12.8150 H   0  0  0  0  0  0  0  0  0  0  0  0
    1.6753    1.4104   11.7344 C   0  0  0  0  0  0  0  0  0  0  0  0
    1.8916    0.6517   13.0317 C   0  0  0  0  0  0  0  0  0  0  0  0
    0.4620    2.3299   11.8596 C   0  0  0  0  0  0  0  0  0  0  0  0
    6.4566    0.9311   14.2804 C   0  0  0  0  0  0  0  0  0  0  0  0
    7.1899    1.9851   14.9057 O   0  0  0  0  0  0  0  0  0  0  0  0
    8.0894    2.0120   14.5438 H   0  0  0  0  0  0  0  0  0  0  0  0
    7.1609   -0.3969   14.5713 C   0  0  0  0  0  0  0  0  0  0  0  0
    6.2697   -1.5617   14.4307 N   0  0  0  0  0  0  0  0  0  0  0  0
    6.8293   -2.9025   13.6536 S   0  0  0  0  0  0  0  0  0  0  0  0
    7.8692   -2.5110   12.7066 O   0  0  0  0  0  0  0  0  0  0  0  0
    5.7208   -3.5268   12.9440 O   0  0  0  0  0  0  0  0  0  0  0  0
    7.4610   -3.9459   14.7563 C   0  0  0  0  0  0  0  0  0  0  0  0
    8.7453   -3.7419   15.2280 C   0  0  0  0  0  0  0  0  0  0  0  0
    6.6973   -4.9665   15.3036 C   0  0  0  0  0  0  0  0  0  0  0  0
    9.2715   -4.5259   16.2409 C   0  0  0  0  0  0  0  0  0  0  0  0
    7.2158   -5.7612   16.3267 C   0  0  0  0  0  0  0  0  0  0  0  0
    8.5068   -5.5311   16.7873 C   0  0  0  0  0  0  0  0  0  0  0  0
    9.0362   -6.2617   17.8302 N   0  0  0  0  0  0  0  0  0  0  0  0
    9.9530   -6.0827   18.1411 H   0  0  0  0  0  0  0  0  0  0  0  0
    8.4974   -6.9623   18.2638 H   0  0  0  0  0  0  0  0  0  0  0  0
    5.2981   -1.7096   15.5237 C   0  0  0  0  0  0  0  0  0  0  0  0
    3.9707   -1.8620   14.8035 C   0  0  0  0  0  0  0  0  0  0  0  0
    3.0508   -2.9250   15.4118 C   0  0  0  0  0  0  0  0  0  0  0  0
    2.8536   -4.0418   14.3978 C   0  0  0  0  0  0  0  0  0  0  0  0
    3.6199   -3.4387   16.7283 C   0  0  0  0  0  0  0  0  0  0  0  0
  1  2  1  0  0  0
  1  5  1  0  0  0
  2  3  1  0  0  0
  3  4  2  0  0  0
  3  7  1  0  0  0
  5  6  1  0  0  0
  6 21  1  0  0  0
  7  8  1  0  0  0
  8 24  1  0  0  0
  8  9  1  0  0  0
 24 25  1  0  0  0
 24 26  1  0  0  0
  9 10  2  0  0  0
  9 11  1  0  0  0
 11 12  1  0  0  0
 12 13  1  0  0  0
 12 27  1  0  0  0
 13 14  1  0  0  0
 14 15  2  0  0  0
 14 17  1  0  0  0
 15 16  1  0  0  0
 16 19  2  0  0  0
 17 18  2  0  0  0
 18 19  1  0  0  0
 19 20  1  0  0  0
 20 21  1  0  0  0
 27 28  1  0  0  0
 27 30  1  0  0  0
 30 31  1  0  0  0
 31 44  1  0  0  0
 31 32  1  0  0  0
 44 45  1  0  0  0
 45 46  1  0  0  0
 46 47  1  0  0  0
 46 48  1  0  0  0
 32 33  2  0  0  0
 32 34  2  0  0  0
 32 35  1  0  0  0
 35 36  2  0  0  0
 35 37  1  0  0  0
 36 38  1  0  0  0
 37 39  2  0  0  0
 38 40  2  0  0  0
 39 40  1  0  0  0
 40 41  1  0  0  0
  7 22  1  0  0  0
 11 23  1  0  0  0
 28 29  1  0  0  0
 41 42  1  0  0  0
 41 43  1  0  0  0
M  END
> <minimizedAffinity>
-8.86779

$$$$
1D4L_PI9_A_201


 48 50  0  0  0  0  0  0  0  0999 V2000
    5.4787   -0.4501   13.1246 C   0  0  0  0  0  0  0  0  0  0  0  0
    4.0003   -0.7401   13.1800 C   0  0  0  0  0  0  0  0  0  0  0  0
    3.2308   -0.0409   12.0737 C   0  0  0  0  0  0  0  0  0  0  0  0
    3.0452   -0.6152   11.0106 O   0  0  0  0  0  0  0  0  0  0  0  0
    5.8178    0.5654   14.1765 C   0  0  0  0  0  0  0  0  0  0  0  0
    7.2851    0.5638   14.5295 C   0  0  0  0  0  0  0  0  0  0  0  0
    2.8305    1.2106   12.2934 N   0  0  0  0  0  0  0  0  0  0  0  0
    2.0562    1.9546   11.2851 C   0  0  0  0  0  0  0  0  0  0  0  0
    2.7357    3.2239   10.7382 C   0  0  0  0  0  0  0  0  0  0  0  0
    2.8621    4.2341   11.4480 O   0  0  0  0  0  0  0  0  0  0  0  0
    3.1582    3.1648    9.4771 N   0  0  0  0  0  0  0  0  0  0  0  0
    3.8176    4.3114    8.8122 C   0  0  0  0  0  0  0  0  0  0  0  0
    5.2470    3.9317    8.4025 C   0  0  0  0  0  0  0  0  0  0  0  0
    6.0543    3.3273    9.5383 C   0  0  0  0  0  0  0  0  0  0  0  0
    6.3533    1.9744    9.5449 C   0  0  0  0  0  0  0  0  0  0  0  0
    7.0716    1.4131   10.5539 C   0  0  0  0  0  0  0  0  0  0  0  0
    6.5085    4.1096   10.6050 C   0  0  0  0  0  0  0  0  0  0  0  0
    7.2325    3.5526   11.6326 C   0  0  0  0  0  0  0  0  0  0  0  0
    7.5102    2.2001   11.5900 C   0  0  0  0  0  0  0  0  0  0  0  0
    8.2418    1.5821   12.5589 O   0  0  0  0  0  0  0  0  0  0  0  0
    7.9772    1.7756   13.9343 C   0  0  0  0  0  0  0  0  0  0  0  0
    3.0567    1.6469   13.1465 H   0  0  0  0  0  0  0  0  0  0  0  0
    3.0278    2.3311    8.9699 H   0  0  0  0  0  0  0  0  0  0  0  0
    0.6511    2.3129   11.8289 C   0  0  0  0  0  0  0  0  0  0  0  0
   -0.3135    2.5493   10.6803 C   0  0  0  0  0  0  0  0  0  0  0  0
    0.1295    1.1965   12.7315 C   0  0  0  0  0  0  0  0  0  0  0  0
    3.0098    4.7798    7.5954 C   0  0  0  0  0  0  0  0  0  0  0  0
    2.4849    3.6463    6.9033 O   0  0  0  0  0  0  0  0  0  0  0  0
    3.2163    3.0909    6.5911 H   0  0  0  0  0  0  0  0  0  0  0  0
    3.8820    5.5851    6.6283 C   0  0  0  0  0  0  0  0  0  0  0  0
    3.3801    5.5562    5.2433 N   0  0  0  0  0  0  0  0  0  0  0  0
    2.4901    6.8288    4.6928 S   0  0  0  0  0  0  0  0  0  0  0  0
    2.5105    6.8347    3.2330 O   0  0  0  0  0  0  0  0  0  0  0  0
    3.0746    8.0618    5.2027 O   0  0  0  0  0  0  0  0  0  0  0  0
    0.9388    6.6738    5.2156 C   0  0  0  0  0  0  0  0  0  0  0  0
    0.2613    5.4884    4.9933 C   0  0  0  0  0  0  0  0  0  0  0  0
    0.3285    7.6669    5.9677 C   0  0  0  0  0  0  0  0  0  0  0  0
   -1.0020    5.2737    5.5182 C   0  0  0  0  0  0  0  0  0  0  0  0
   -0.9430    7.4609    6.5042 C   0  0  0  0  0  0  0  0  0  0  0  0
   -1.5996    6.2582    6.2716 C   0  0  0  0  0  0  0  0  0  0  0  0
   -2.8350    5.9975    6.8260 N   0  0  0  0  0  0  0  0  0  0  0  0
   -3.2830    5.1390    6.6485 H   0  0  0  0  0  0  0  0  0  0  0  0
   -3.2691    6.6699    7.3993 H   0  0  0  0  0  0  0  0  0  0  0  0
    4.2381    4.8133    4.3093 C   0  0  0  0  0  0  0  0  0  0  0  0
    5.6339    5.0113    4.8719 C   0  0  0  0  0  0  0  0  0  0  0  0
    6.5193    3.7637    4.7943 C   0  0  0  0  0  0  0  0  0  0  0  0
    7.7951    4.0175    5.5830 C   0  0  0  0  0  0  0  0  0  0  0  0
    5.7669    2.5385    5.2982 C   0  0  0  0  0  0  0  0  0  0  0  0
  1  2  1  0  0  0
  1  5  1  0  0  0
  2  3  1  0  0  0
  3  4  2  0  0  0
  3  7  1  0  0  0
  5  6  1  0  0  0
  6 21  1  0  0  0
  7  8  1  0  0  0
  8 24  1  0  0  0
  8  9  1  0  0  0
 24 25  1  0  0  0
 24 26  1  0  0  0
  9 10  2  0  0  0
  9 11  1  0  0  0
 11 12  1  0  0  0
 12 13  1  0  0  0
 12 27  1  0  0  0
 13 14  1  0  0  0
 14 15  2  0  0  0
 14 17  1  0  0  0
 15 16  1  0  0  0
 16 19  2  0  0  0
 17 18  2  0  0  0
 18 19  1  0  0  0
 19 20  1  0  0  0
 20 21  1  0  0  0
 27 28  1  0  0  0
 27 30  1  0  0  0
 30 31  1  0  0  0
 31 44  1  0  0  0
 31 32  1  0  0  0
 44 45  1  0  0  0
 45 46  1  0  0  0
 46 47  1  0  0  0
 46 48  1  0  0  0
 32 33  2  0  0  0
 32 34  2  0  0  0
 32 35  1  0  0  0
 35 36  2  0  0  0
 35 37  1  0  0  0
 36 38  1  0  0  0
 37 39  2  0  0  0
 38 40  2  0  0  0
 39 40  1  0  0  0
 40 41  1  0  0  0
  7 22  1  0  0  0
 11 23  1  0  0  0
 28 29  1  0  0  0
 41 42  1  0  0  0
 41 43  1  0  0  0
M  END
> <minimizedAffinity>
-8.81063

$$$$
1D4L_PI9_A_201


 48 50  0  0  0  0  0  0  0  0999 V2000
    6.2182   -8.1459   18.0515 C   0  0  0  0  0  0  0  0  0  0  0  0
    7.6724   -7.7607   17.9535 C   0  0  0  0  0  0  0  0  0  0  0  0
    7.8615   -6.2902   17.6264 C   0  0  0  0  0  0  0  0  0  0  0  0
    7.9704   -5.4785   18.5339 O   0  0  0  0  0  0  0  0  0  0  0  0
    5.8155   -8.8598   16.7941 C   0  0  0  0  0  0  0  0  0  0  0  0
    4.5706   -9.6934   16.9764 C   0  0  0  0  0  0  0  0  0  0  0  0
    7.8466   -5.9346   16.3426 N   0  0  0  0  0  0  0  0  0  0  0  0
    8.0483   -4.5339   15.9342 C   0  0  0  0  0  0  0  0  0  0  0  0
    6.8622   -3.8861   15.1955 C   0  0  0  0  0  0  0  0  0  0  0  0
    6.5713   -4.2260   14.0379 O   0  0  0  0  0  0  0  0  0  0  0  0
    6.1940   -2.9511   15.8675 N   0  0  0  0  0  0  0  0  0  0  0  0
    5.0398   -2.2326   15.2816 C   0  0  0  0  0  0  0  0  0  0  0  0
    3.7750   -2.5068   16.1065 C   0  0  0  0  0  0  0  0  0  0  0  0
    3.5262   -3.9859   16.3461 C   0  0  0  0  0  0  0  0  0  0  0  0
    3.7227   -4.5365   17.6023 C   0  0  0  0  0  0  0  0  0  0  0  0
    3.5090   -5.8587   17.8370 C   0  0  0  0  0  0  0  0  0  0  0  0
    3.1029   -4.8293   15.3139 C   0  0  0  0  0  0  0  0  0  0  0  0
    2.8870   -6.1685   15.5383 C   0  0  0  0  0  0  0  0  0  0  0  0
    3.0908   -6.6682   16.8098 C   0  0  0  0  0  0  0  0  0  0  0  0
    2.8749   -7.9784   17.1141 O   0  0  0  0  0  0  0  0  0  0  0  0
    3.3813   -9.0265   16.3114 C   0  0  0  0  0  0  0  0  0  0  0  0
    7.6977   -6.6216   15.6533 H   0  0  0  0  0  0  0  0  0  0  0  0
    6.4768   -2.7302   16.7843 H   0  0  0  0  0  0  0  0  0  0  0  0
    9.3310   -4.3927   15.0778 C   0  0  0  0  0  0  0  0  0  0  0  0
   10.5580   -4.3461   15.9709 C   0  0  0  0  0  0  0  0  0  0  0  0
    9.4426   -5.5540   14.0919 C   0  0  0  0  0  0  0  0  0  0  0  0
    5.3164   -0.7264   15.1954 C   0  0  0  0  0  0  0  0  0  0  0  0
    5.3102   -0.1620   16.5072 O   0  0  0  0  0  0  0  0  0  0  0  0
    4.4376   -0.2914   16.9107 H   0  0  0  0  0  0  0  0  0  0  0  0
    4.2557   -0.0160   14.3501 C   0  0  0  0  0  0  0  0  0  0  0  0
    4.8139    0.6173   13.1426 N   0  0  0  0  0  0  0  0  0  0  0  0
    3.7833    1.1263   11.9622 S   0  0  0  0  0  0  0  0  0  0  0  0
    2.7406    1.9561   12.5586 O   0  0  0  0  0  0  0  0  0  0  0  0
    3.1867   -0.0418   11.3286 O   0  0  0  0  0  0  0  0  0  0  0  0
    4.6182    2.0114   10.8562 C   0  0  0  0  0  0  0  0  0  0  0  0
    4.3540    3.3630   10.7270 C   0  0  0  0  0  0  0  0  0  0  0  0
    5.6559    1.4554   10.1223 C   0  0  0  0  0  0  0  0  0  0  0  0
    5.1131    4.1669    9.8933 C   0  0  0  0  0  0  0  0  0  0  0  0
    6.4296    2.2560    9.2811 C   0  0  0  0  0  0  0  0  0  0  0  0
    6.1475    3.6128    9.1744 C   0  0  0  0  0  0  0  0  0  0  0  0
    6.9201    4.4458    8.3929 N   0  0  0  0  0  0  0  0  0  0  0  0
    6.7030    5.4041    8.3311 H   0  0  0  0  0  0  0  0  0  0  0  0
    7.6889    4.0823    7.8968 H   0  0  0  0  0  0  0  0  0  0  0  0
    6.0695    1.3460   13.3728 C   0  0  0  0  0  0  0  0  0  0  0  0
    7.1352    0.3893   12.8700 C   0  0  0  0  0  0  0  0  0  0  0  0
    8.4728    1.0618   12.5461 C   0  0  0  0  0  0  0  0  0  0  0  0
    9.0149    0.4772   11.2505 C   0  0  0  0  0  0  0  0  0  0  0  0
    8.3093    2.5745   12.4693 C   0  0  0  0  0  0  0  0  0  0  0  0
  1  2  1  0  0  0
  1  5  1  0  0  0
  2  3  1  0  0  0
  3  4  2  0  0  0
  3  7  1  0  0  0
  5  6  1  0  0  0
  6 21  1  0  0  0
  7  8  1  0  0  0
  8 24  1  0  0  0
  8  9  1  0  0  0
 24 25  1  0  0  0
 24 26  1  0  0  0
  9 10  2  0  0  0
  9 11  1  0  0  0
 11 12  1  0  0  0
 12 13  1  0  0  0
 12 27  1  0  0  0
 13 14  1  0  0  0
 14 15  2  0  0  0
 14 17  1  0  0  0
 15 16  1  0  0  0
 16 19  2  0  0  0
 17 18  2  0  0  0
 18 19  1  0  0  0
 19 20  1  0  0  0
 20 21  1  0  0  0
 27 28  1  0  0  0
 27 30  1  0  0  0
 30 31  1  0  0  0
 31 44  1  0  0  0
 31 32  1  0  0  0
 44 45  1  0  0  0
 45 46  1  0  0  0
 46 47  1  0  0  0
 46 48  1  0  0  0
 32 33  2  0  0  0
 32 34  2  0  0  0
 32 35  1  0  0  0
 35 36  2  0  0  0
 35 37  1  0  0  0
 36 38  1  0  0  0
 37 39  2  0  0  0
 38 40  2  0  0  0
 39 40  1  0  0  0
 40 41  1  0  0  0
  7 22  1  0  0  0
 11 23  1  0  0  0
 28 29  1  0  0  0
 41 42  1  0  0  0
 41 43  1  0  0  0
M  END
> <minimizedAffinity>
-8.73793

$$$$
