1DF8_BTN_A_201
  RCSB PDB12061702163D
Coordinates from PDB:1DF8:A:201 Model:1 without hydrogens
 16 17  0  0  0  0            999 V2000
   32.5640   18.1390   14.0710   C 0  0  0  0  0  0  0  0  0  0  0  0
   33.4260   17.4630   13.4730   O 0  0  0  0  0  0  0  0  0  0  0  0
   32.5320   19.3920   13.9660   O 0  0  0  0  0  0  0  0  0  0  0  0
   31.5990   17.4500   14.9620   C 0  0  0  0  0  0  0  0  0  0  0  0
   31.2260   16.0460   14.5600   C 0  0  0  0  0  0  0  0  0  0  0  0
   30.5160   16.0360   13.2000   C 0  0  0  0  0  0  0  0  0  0  0  0
   30.0160   14.6260   12.8220   C 0  0  0  0  0  0  0  0  0  0  0  0
   29.2080   14.5510   11.5450   C 0  0  0  0  0  0  0  0  0  0  0  0
   27.5110   15.2280   11.7030   S 0  0  0  0  0  0  0  0  0  0  0  0
   27.1670   14.6500   10.0230   C 0  0  0  0  0  0  0  0  0  0  0  0
   27.7360   13.2480    9.9740   C 0  0  0  0  0  0  0  0  0  0  0  0
   26.8850   12.1810   10.4970   N 0  0  0  0  0  0  0  0  0  0  0  0
   27.4580   11.5460   11.5290   C 0  0  0  0  0  0  0  0  0  0  0  0
   26.9770   10.6020   12.2050   O 0  0  0  0  0  0  0  0  0  0  0  0
   28.6480   12.1210   11.8210   N 0  0  0  0  0  0  0  0  0  0  0  0
   28.9670   13.2060   10.9010   C 0  0  0  0  0  0  0  0  0  0  0  0
  1  2  2  0  0  0  0
  1  3  1  0  0  0  0
  1  4  1  0  0  0  0
  4  5  1  0  0  0  0
  5  6  1  0  0  0  0
  6  7  1  0  0  0  0
  7  8  1  0  0  0  0
  8  9  1  0  0  0  0
  8 16  1  0  0  0  0
  9 10  1  0  0  0  0
 10 11  1  0  0  0  0
 11 12  1  0  0  0  0
 11 16  1  0  0  0  0
 12 13  1  0  0  0  0
 13 14  2  0  0  0  0
 13 15  1  0  0  0  0
 15 16  1  0  0  0  0
A    1
C11
A    2
O11
A    3
O12
A    4
C10
A    5
C9
A    6
C8
A    7
C7
A    8
C2
A    9
S1
A   10
C6
A   11
C5
A   12
N1
A   13
C3
A   14
O3
A   15
N2
A   16
C4
M  END
>  <InstanceId>
1DF8_BTN_A_201

>  <ChemCompId>
BTN

>  <PdbId>
1DF8

>  <ChainId>
A

>  <ResidueNumber>
201

>  <InsertionCode>


>  <Model>
1

>  <AltIds>


>  <MissingHeavyAtoms>
0

>  <ObservedFormula>
C10 N2 O3 S

>  <Name>
BIOTIN

>  <SystematicName>
5-[(3aS,4S,6aR)-2-oxidanylidene-1,3,3a,4,6,6a-hexahydrothieno[3,4-d]imidazol-4-yl]pentanoic acid

>  <Synonyms>


>  <Type>
NON-POLYMER

>  <Formula>
C10 H16 N2 O3 S

>  <MolecularWeight>
244.311

>  <ModifiedDate>
2014-04-29

>  <Parent>


>  <OneLetterCode>


>  <SubcomponentList>


>  <AmbiguousFlag>
N

>  <InChI>
InChI=1S/C10H16N2O3S/c13-8(14)4-2-1-3-7-9-6(5-16-7)11-10(15)12-9/h6-7,9H,1-5H2,(H,13,14)(H2,11,12,15)/t6-,7-,9-/m0/s1

>  <InChIKey>
YBJHBAHKTGYVGT-ZKWXMUAHSA-N

>  <SMILES>
C1[C@H]2[C@@H]([C@@H](S1)CCCCC(=O)O)NC(=O)N2

$$$$
