5DH5_5AY_A_803


 29 33  0  0  0  0  0  0  0  0999 V2000
    4.8707   13.6370   43.7684 C   0  0  0  0  0  0  0  0  0  0  0  0
    4.8906   12.8301   44.8935 C   0  0  0  0  0  0  0  0  0  0  0  0
    4.0670   13.3648   45.9591 N   0  0  0  0  0  0  0  0  0  0  0  0
    3.8549   12.7977   47.2601 N   0  0  0  0  0  0  0  0  0  0  0  0
    3.0316   13.6369   47.9584 C   0  0  0  0  0  0  0  0  0  0  0  0
    2.7302   14.7308   47.1399 C   0  0  0  0  0  0  0  0  0  0  0  0
    3.3851   14.5503   45.8996 C   0  0  0  0  0  0  0  0  0  0  0  0
    3.3974   15.2985   44.7842 N   0  0  0  0  0  0  0  0  0  0  0  0
    4.1237   14.8016   43.7690 C   0  0  0  0  0  0  0  0  0  0  0  0
    5.5517   11.6124   45.1586 N   0  0  0  0  0  0  0  0  0  0  0  0
    5.0841   10.7647   45.3376 H   0  0  0  0  0  0  0  0  0  0  0  0
    6.9978   11.7462   45.1383 C   0  0  0  0  0  0  0  0  0  0  0  0
    7.7435   10.5264   44.7743 C   0  0  0  0  0  0  0  0  0  0  0  0
    9.1620    9.1334   43.6786 N   0  0  0  0  0  0  0  0  0  0  0  0
    7.6845    9.2855   45.3773 C   0  0  0  0  0  0  0  0  0  0  0  0
    8.5557    8.4994   44.6855 N   0  0  0  0  0  0  0  0  0  0  0  0
    8.6761   10.3798   43.7196 C   0  0  0  0  0  0  0  0  0  0  0  0
    8.8553    7.1040   44.9550 C   0  0  0  0  0  0  0  0  0  0  0  0
    4.1766   15.5046   42.5720 O   0  0  0  0  0  0  0  0  0  0  0  0
    3.1759   15.0838   41.6587 C   0  0  0  0  0  0  0  0  0  0  0  0
    3.6479   15.3289   40.2797 C   0  0  0  0  0  0  0  0  0  0  0  0
    3.2904   14.2739   39.2675 C   0  0  0  0  0  0  0  0  0  0  0  0
    2.6417   15.6326   39.2068 C   0  0  0  0  0  0  0  0  0  0  0  0
    2.9030   16.6585   38.1520 C   0  0  0  0  0  0  0  0  0  0  0  0
    2.7343   17.4365   35.8952 C   0  0  0  0  0  0  0  0  0  0  0  0
    2.4947   16.4620   36.8449 C   0  0  0  0  0  0  0  0  0  0  0  0
    3.3744   18.6094   36.2311 C   0  0  0  0  0  0  0  0  0  0  0  0
    3.7537   18.7474   37.5501 C   0  0  0  0  0  0  0  0  0  0  0  0
    3.5188   17.8086   38.4829 N   0  0  0  0  0  0  0  0  0  0  0  0
  5  4  2  0  0  0
  5  6  1  0  0  0
  4  3  1  0  0  0
  6  7  2  0  0  0
  3  7  1  0  0  0
  3  2  1  0  0  0
  7  8  1  0  0  0
 10  2  1  0  0  0
 10 12  1  0  0  0
  2  1  2  0  0  0
  8  9  2  0  0  0
 15 13  2  0  0  0
 15 16  1  0  0  0
 12 13  1  0  0  0
 18 16  1  0  0  0
  1  9  1  0  0  0
  9 19  1  0  0  0
 13 17  1  0  0  0
 16 14  1  0  0  0
 20 19  1  0  0  0
 20 21  1  0  0  0
 17 14  2  0  0  0
 21 23  1  0  0  0
 21 22  1  0  0  0
 23 22  1  0  0  0
 23 24  1  0  0  0
 29 24  2  0  0  0
 29 28  1  0  0  0
 24 26  1  0  0  0
 28 27  2  0  0  0
 26 25  2  0  0  0
 27 25  1  0  0  0
 10 11  1  0  0  0
M  END
> <minimizedAffinity>
-8.94145

$$$$
5DH5_5AY_A_803


 29 33  0  0  0  0  0  0  0  0999 V2000
    1.9722   14.9273   39.1212 C   0  0  0  0  0  0  0  0  0  0  0  0
    1.6374   14.7326   37.7918 C   0  0  0  0  0  0  0  0  0  0  0  0
    2.1236   15.8051   36.9474 N   0  0  0  0  0  0  0  0  0  0  0  0
    1.9606   15.9338   35.5275 N   0  0  0  0  0  0  0  0  0  0  0  0
    2.5495   17.1049   35.1384 C   0  0  0  0  0  0  0  0  0  0  0  0
    3.0664   17.7312   36.2778 C   0  0  0  0  0  0  0  0  0  0  0  0
    2.7902   16.9128   37.3974 C   0  0  0  0  0  0  0  0  0  0  0  0
    3.0916   17.0560   38.6985 N   0  0  0  0  0  0  0  0  0  0  0  0
    2.6842   16.0533   39.4946 C   0  0  0  0  0  0  0  0  0  0  0  0
    0.9328   13.6938   37.1480 N   0  0  0  0  0  0  0  0  0  0  0  0
    0.9820   13.5181   36.1806 H   0  0  0  0  0  0  0  0  0  0  0  0
    0.1267   12.9117   38.0690 C   0  0  0  0  0  0  0  0  0  0  0  0
    0.5075   11.4923   38.1986 C   0  0  0  0  0  0  0  0  0  0  0  0
    0.4498    9.2335   37.9801 N   0  0  0  0  0  0  0  0  0  0  0  0
    1.5989   10.9646   38.8601 C   0  0  0  0  0  0  0  0  0  0  0  0
    1.5146    9.6158   38.6894 N   0  0  0  0  0  0  0  0  0  0  0  0
   -0.1791   10.3733   37.6692 C   0  0  0  0  0  0  0  0  0  0  0  0
    2.4503    8.6253   39.1924 C   0  0  0  0  0  0  0  0  0  0  0  0
    2.9699   16.1136   40.8527 O   0  0  0  0  0  0  0  0  0  0  0  0
    4.0445   15.2601   41.2128 C   0  0  0  0  0  0  0  0  0  0  0  0
    3.6259   14.4104   42.3473 C   0  0  0  0  0  0  0  0  0  0  0  0
    4.4868   13.2053   42.6161 C   0  0  0  0  0  0  0  0  0  0  0  0
    4.4831   14.3638   43.5797 C   0  0  0  0  0  0  0  0  0  0  0  0
    3.8882   14.3340   44.9503 C   0  0  0  0  0  0  0  0  0  0  0  0
    3.6023   13.3029   47.0909 C   0  0  0  0  0  0  0  0  0  0  0  0
    4.1523   13.2940   45.8234 C   0  0  0  0  0  0  0  0  0  0  0  0
    2.7925   14.3385   47.5033 C   0  0  0  0  0  0  0  0  0  0  0  0
    2.5697   15.3470   46.5889 C   0  0  0  0  0  0  0  0  0  0  0  0
    3.1059   15.3512   45.3564 N   0  0  0  0  0  0  0  0  0  0  0  0
  5  4  2  0  0  0
  5  6  1  0  0  0
  4  3  1  0  0  0
  6  7  2  0  0  0
  3  7  1  0  0  0
  3  2  1  0  0  0
  7  8  1  0  0  0
 10  2  1  0  0  0
 10 12  1  0  0  0
  2  1  2  0  0  0
  8  9  2  0  0  0
 15 13  2  0  0  0
 15 16  1  0  0  0
 12 13  1  0  0  0
 18 16  1  0  0  0
  1  9  1  0  0  0
  9 19  1  0  0  0
 13 17  1  0  0  0
 16 14  1  0  0  0
 20 19  1  0  0  0
 20 21  1  0  0  0
 17 14  2  0  0  0
 21 23  1  0  0  0
 21 22  1  0  0  0
 23 22  1  0  0  0
 23 24  1  0  0  0
 29 24  2  0  0  0
 29 28  1  0  0  0
 24 26  1  0  0  0
 28 27  2  0  0  0
 26 25  2  0  0  0
 27 25  1  0  0  0
 10 11  1  0  0  0
M  END
> <minimizedAffinity>
-8.81659

$$$$
5DH5_5AY_A_803


 29 33  0  0  0  0  0  0  0  0999 V2000
    7.4978   10.4006   44.6193 C   0  0  0  0  0  0  0  0  0  0  0  0
    8.7178   10.4041   43.9644 C   0  0  0  0  0  0  0  0  0  0  0  0
    9.4466   11.6375   44.1819 N   0  0  0  0  0  0  0  0  0  0  0  0
   10.7362   11.9875   43.6587 N   0  0  0  0  0  0  0  0  0  0  0  0
   11.0384   13.2501   44.0878 C   0  0  0  0  0  0  0  0  0  0  0  0
    9.9658   13.7170   44.8552 C   0  0  0  0  0  0  0  0  0  0  0  0
    8.9800   12.7042   44.9018 C   0  0  0  0  0  0  0  0  0  0  0  0
    7.7882   12.6521   45.5190 N   0  0  0  0  0  0  0  0  0  0  0  0
    7.1120   11.5017   45.3630 C   0  0  0  0  0  0  0  0  0  0  0  0
    9.3473    9.4343   43.1560 N   0  0  0  0  0  0  0  0  0  0  0  0
   10.3146    9.4198   42.9734 H   0  0  0  0  0  0  0  0  0  0  0  0
    8.4118    8.4596   42.6227 C   0  0  0  0  0  0  0  0  0  0  0  0
    8.8268    7.8007   41.3696 C   0  0  0  0  0  0  0  0  0  0  0  0
    9.8596    6.3616   39.9499 N   0  0  0  0  0  0  0  0  0  0  0  0
    8.4501    8.1189   40.0797 C   0  0  0  0  0  0  0  0  0  0  0  0
    9.0917    7.2234   39.2785 N   0  0  0  0  0  0  0  0  0  0  0  0
    9.7075    6.7006   41.2357 C   0  0  0  0  0  0  0  0  0  0  0  0
    8.9994    7.1442   37.8311 C   0  0  0  0  0  0  0  0  0  0  0  0
    5.8770   11.3575   45.9825 O   0  0  0  0  0  0  0  0  0  0  0  0
    5.2956   12.6078   46.3163 C   0  0  0  0  0  0  0  0  0  0  0  0
    4.2930   12.9627   45.2901 C   0  0  0  0  0  0  0  0  0  0  0  0
    3.5080   14.2207   45.5482 C   0  0  0  0  0  0  0  0  0  0  0  0
    4.5219   14.1756   44.4343 C   0  0  0  0  0  0  0  0  0  0  0  0
    4.1917   14.1828   42.9768 C   0  0  0  0  0  0  0  0  0  0  0  0
    4.1127   13.1107   40.8387 C   0  0  0  0  0  0  0  0  0  0  0  0
    4.4455   13.0812   42.1794 C   0  0  0  0  0  0  0  0  0  0  0  0
    3.5257   14.2250   40.2800 C   0  0  0  0  0  0  0  0  0  0  0  0
    3.2953   15.2891   41.1269 C   0  0  0  0  0  0  0  0  0  0  0  0
    3.6086   15.2675   42.4339 N   0  0  0  0  0  0  0  0  0  0  0  0
  5  4  2  0  0  0
  5  6  1  0  0  0
  4  3  1  0  0  0
  6  7  2  0  0  0
  3  7  1  0  0  0
  3  2  1  0  0  0
  7  8  1  0  0  0
 10  2  1  0  0  0
 10 12  1  0  0  0
  2  1  2  0  0  0
  8  9  2  0  0  0
 15 13  2  0  0  0
 15 16  1  0  0  0
 12 13  1  0  0  0
 18 16  1  0  0  0
  1  9  1  0  0  0
  9 19  1  0  0  0
 13 17  1  0  0  0
 16 14  1  0  0  0
 20 19  1  0  0  0
 20 21  1  0  0  0
 17 14  2  0  0  0
 21 23  1  0  0  0
 21 22  1  0  0  0
 23 22  1  0  0  0
 23 24  1  0  0  0
 29 24  2  0  0  0
 29 28  1  0  0  0
 24 26  1  0  0  0
 28 27  2  0  0  0
 26 25  2  0  0  0
 27 25  1  0  0  0
 10 11  1  0  0  0
M  END
> <minimizedAffinity>
-8.78655

$$$$
5DH5_5AY_A_803


 29 33  0  0  0  0  0  0  0  0999 V2000
    6.2395   12.3500   45.2393 C   0  0  0  0  0  0  0  0  0  0  0  0
    5.2293   13.2812   45.0666 C   0  0  0  0  0  0  0  0  0  0  0  0
    4.3982   13.4049   46.2471 N   0  0  0  0  0  0  0  0  0  0  0  0
    3.2647   14.2671   46.4242 N   0  0  0  0  0  0  0  0  0  0  0  0
    2.7579   14.0481   47.6751 C   0  0  0  0  0  0  0  0  0  0  0  0
    3.5299   13.0562   48.2895 C   0  0  0  0  0  0  0  0  0  0  0  0
    4.5449   12.6619   47.3873 C   0  0  0  0  0  0  0  0  0  0  0  0
    5.5418   11.7696   47.5063 N   0  0  0  0  0  0  0  0  0  0  0  0
    6.3491   11.6667   46.4373 C   0  0  0  0  0  0  0  0  0  0  0  0
    4.8949   14.1050   43.9713 N   0  0  0  0  0  0  0  0  0  0  0  0
    4.9595   15.0872   43.9867 H   0  0  0  0  0  0  0  0  0  0  0  0
    4.4448   13.3450   42.8182 C   0  0  0  0  0  0  0  0  0  0  0  0
    3.8065   14.1341   41.7474 C   0  0  0  0  0  0  0  0  0  0  0  0
    2.7144   15.8240   40.6964 N   0  0  0  0  0  0  0  0  0  0  0  0
    3.6750   13.8019   40.4134 C   0  0  0  0  0  0  0  0  0  0  0  0
    3.0226   14.8495   39.8369 N   0  0  0  0  0  0  0  0  0  0  0  0
    3.1899   15.4019   41.8741 C   0  0  0  0  0  0  0  0  0  0  0  0
    2.6648   14.9732   38.4347 C   0  0  0  0  0  0  0  0  0  0  0  0
    7.4164   10.7786   46.4828 O   0  0  0  0  0  0  0  0  0  0  0  0
    7.0546    9.5352   47.0624 C   0  0  0  0  0  0  0  0  0  0  0  0
    7.4721    8.4425   46.1591 C   0  0  0  0  0  0  0  0  0  0  0  0
    6.6057    8.2267   44.9474 C   0  0  0  0  0  0  0  0  0  0  0  0
    7.9973    8.7841   44.7941 C   0  0  0  0  0  0  0  0  0  0  0  0
    9.1503    8.0506   44.1893 C   0  0  0  0  0  0  0  0  0  0  0  0
   10.8433    6.3618   44.2824 C   0  0  0  0  0  0  0  0  0  0  0  0
    9.7916    7.0343   44.8746 C   0  0  0  0  0  0  0  0  0  0  0  0
   11.2647    6.6866   43.0115 C   0  0  0  0  0  0  0  0  0  0  0  0
   10.5835    7.7058   42.3791 C   0  0  0  0  0  0  0  0  0  0  0  0
    9.5546    8.3611   42.9437 N   0  0  0  0  0  0  0  0  0  0  0  0
  5  4  2  0  0  0
  5  6  1  0  0  0
  4  3  1  0  0  0
  6  7  2  0  0  0
  3  7  1  0  0  0
  3  2  1  0  0  0
  7  8  1  0  0  0
 10  2  1  0  0  0
 10 12  1  0  0  0
  2  1  2  0  0  0
  8  9  2  0  0  0
 15 13  2  0  0  0
 15 16  1  0  0  0
 12 13  1  0  0  0
 18 16  1  0  0  0
  1  9  1  0  0  0
  9 19  1  0  0  0
 13 17  1  0  0  0
 16 14  1  0  0  0
 20 19  1  0  0  0
 20 21  1  0  0  0
 17 14  2  0  0  0
 21 23  1  0  0  0
 21 22  1  0  0  0
 23 22  1  0  0  0
 23 24  1  0  0  0
 29 24  2  0  0  0
 29 28  1  0  0  0
 24 26  1  0  0  0
 28 27  2  0  0  0
 26 25  2  0  0  0
 27 25  1  0  0  0
 10 11  1  0  0  0
M  END
> <minimizedAffinity>
-8.50960

$$$$
5DH5_5AY_A_803


 29 33  0  0  0  0  0  0  0  0999 V2000
    4.5952   13.5864   43.8143 C   0  0  0  0  0  0  0  0  0  0  0  0
    4.7829   12.7672   44.9147 C   0  0  0  0  0  0  0  0  0  0  0  0
    4.0605   13.2453   46.0763 N   0  0  0  0  0  0  0  0  0  0  0  0
    4.0261   12.6514   47.3822 N   0  0  0  0  0  0  0  0  0  0  0  0
    3.2471   13.4382   48.1845 C   0  0  0  0  0  0  0  0  0  0  0  0
    2.8009   14.5257   47.4258 C   0  0  0  0  0  0  0  0  0  0  0  0
    3.3185   14.3949   46.1163 C   0  0  0  0  0  0  0  0  0  0  0  0
    3.1667   15.1570   45.0208 N   0  0  0  0  0  0  0  0  0  0  0  0
    3.7965   14.7111   43.9209 C   0  0  0  0  0  0  0  0  0  0  0  0
    5.5292   11.5816   45.0807 N   0  0  0  0  0  0  0  0  0  0  0  0
    5.1257   10.7050   45.2756 H   0  0  0  0  0  0  0  0  0  0  0  0
    6.9580   11.7960   44.9325 C   0  0  0  0  0  0  0  0  0  0  0  0
    7.7520   10.5921   44.6211 C   0  0  0  0  0  0  0  0  0  0  0  0
    9.2353    9.2147   43.5936 N   0  0  0  0  0  0  0  0  0  0  0  0
    7.7281    9.3711   45.2657 C   0  0  0  0  0  0  0  0  0  0  0  0
    8.6369    8.5939   44.6134 N   0  0  0  0  0  0  0  0  0  0  0  0
    8.7049   10.4435   43.5849 C   0  0  0  0  0  0  0  0  0  0  0  0
    8.9818    7.2201   44.9349 C   0  0  0  0  0  0  0  0  0  0  0  0
    3.6780   15.4312   42.7389 O   0  0  0  0  0  0  0  0  0  0  0  0
    3.6469   14.5879   41.5984 C   0  0  0  0  0  0  0  0  0  0  0  0
    2.8913   15.2613   40.5214 C   0  0  0  0  0  0  0  0  0  0  0  0
    3.7195   15.8713   39.4225 C   0  0  0  0  0  0  0  0  0  0  0  0
    2.8773   14.6522   39.1485 C   0  0  0  0  0  0  0  0  0  0  0  0
    1.6420   14.6376   38.3077 C   0  0  0  0  0  0  0  0  0  0  0  0
   -0.4883   13.7157   37.7254 C   0  0  0  0  0  0  0  0  0  0  0  0
    0.6512   13.6929   38.5066 C   0  0  0  0  0  0  0  0  0  0  0  0
   -0.6565   14.6715   36.7475 C   0  0  0  0  0  0  0  0  0  0  0  0
    0.3645   15.5873   36.6001 C   0  0  0  0  0  0  0  0  0  0  0  0
    1.4733   15.5781   37.3598 N   0  0  0  0  0  0  0  0  0  0  0  0
  5  4  2  0  0  0
  5  6  1  0  0  0
  4  3  1  0  0  0
  6  7  2  0  0  0
  3  7  1  0  0  0
  3  2  1  0  0  0
  7  8  1  0  0  0
 10  2  1  0  0  0
 10 12  1  0  0  0
  2  1  2  0  0  0
  8  9  2  0  0  0
 15 13  2  0  0  0
 15 16  1  0  0  0
 12 13  1  0  0  0
 18 16  1  0  0  0
  1  9  1  0  0  0
  9 19  1  0  0  0
 13 17  1  0  0  0
 16 14  1  0  0  0
 20 19  1  0  0  0
 20 21  1  0  0  0
 17 14  2  0  0  0
 21 23  1  0  0  0
 21 22  1  0  0  0
 23 22  1  0  0  0
 23 24  1  0  0  0
 29 24  2  0  0  0
 29 28  1  0  0  0
 24 26  1  0  0  0
 28 27  2  0  0  0
 26 25  2  0  0  0
 27 25  1  0  0  0
 10 11  1  0  0  0
M  END
> <minimizedAffinity>
-8.43799

$$$$
5DH5_5AY_A_803


 29 33  0  0  0  0  0  0  0  0999 V2000
    5.3076   12.7844   43.9440 C   0  0  0  0  0  0  0  0  0  0  0  0
    4.4800   13.8820   43.7779 C   0  0  0  0  0  0  0  0  0  0  0  0
    3.8173   14.2533   45.0118 N   0  0  0  0  0  0  0  0  0  0  0  0
    2.8933   15.3333   45.2100 N   0  0  0  0  0  0  0  0  0  0  0  0
    2.4896   15.3104   46.5162 C   0  0  0  0  0  0  0  0  0  0  0  0
    3.1202   14.2328   47.1474 C   0  0  0  0  0  0  0  0  0  0  0  0
    3.9405   13.5809   46.1978 C   0  0  0  0  0  0  0  0  0  0  0  0
    4.7569   12.5200   46.3083 N   0  0  0  0  0  0  0  0  0  0  0  0
    5.4120   12.1819   45.1851 C   0  0  0  0  0  0  0  0  0  0  0  0
    4.1937   14.6737   42.6459 N   0  0  0  0  0  0  0  0  0  0  0  0
    4.2132   15.6580   42.6487 H   0  0  0  0  0  0  0  0  0  0  0  0
    3.8670   13.8775   41.4759 C   0  0  0  0  0  0  0  0  0  0  0  0
    3.3969   14.6371   40.3018 C   0  0  0  0  0  0  0  0  0  0  0  0
    2.2023   15.1969   38.4544 N   0  0  0  0  0  0  0  0  0  0  0  0
    3.8659   15.8483   39.8327 C   0  0  0  0  0  0  0  0  0  0  0  0
    3.1116   16.1337   38.7349 N   0  0  0  0  0  0  0  0  0  0  0  0
    2.3623   14.2711   39.4076 C   0  0  0  0  0  0  0  0  0  0  0  0
    3.2198   17.3183   37.9015 C   0  0  0  0  0  0  0  0  0  0  0  0
    6.2901   11.1059   45.2161 O   0  0  0  0  0  0  0  0  0  0  0  0
    6.1136   10.3032   46.3725 C   0  0  0  0  0  0  0  0  0  0  0  0
    6.7108    8.9728   46.1318 C   0  0  0  0  0  0  0  0  0  0  0  0
    5.7654    7.9091   45.6417 C   0  0  0  0  0  0  0  0  0  0  0  0
    6.8211    8.4663   44.7221 C   0  0  0  0  0  0  0  0  0  0  0  0
    8.0241    7.7171   44.2481 C   0  0  0  0  0  0  0  0  0  0  0  0
    9.2660    6.6197   42.5216 C   0  0  0  0  0  0  0  0  0  0  0  0
    8.1335    7.2946   42.9353 C   0  0  0  0  0  0  0  0  0  0  0  0
   10.2959    6.3616   43.3997 C   0  0  0  0  0  0  0  0  0  0  0  0
   10.1290    6.8110   44.6931 C   0  0  0  0  0  0  0  0  0  0  0  0
    9.0346    7.4747   45.1034 N   0  0  0  0  0  0  0  0  0  0  0  0
  5  4  2  0  0  0
  5  6  1  0  0  0
  4  3  1  0  0  0
  6  7  2  0  0  0
  3  7  1  0  0  0
  3  2  1  0  0  0
  7  8  1  0  0  0
 10  2  1  0  0  0
 10 12  1  0  0  0
  2  1  2  0  0  0
  8  9  2  0  0  0
 15 13  2  0  0  0
 15 16  1  0  0  0
 12 13  1  0  0  0
 18 16  1  0  0  0
  1  9  1  0  0  0
  9 19  1  0  0  0
 13 17  1  0  0  0
 16 14  1  0  0  0
 20 19  1  0  0  0
 20 21  1  0  0  0
 17 14  2  0  0  0
 21 23  1  0  0  0
 21 22  1  0  0  0
 23 22  1  0  0  0
 23 24  1  0  0  0
 29 24  2  0  0  0
 29 28  1  0  0  0
 24 26  1  0  0  0
 28 27  2  0  0  0
 26 25  2  0  0  0
 27 25  1  0  0  0
 10 11  1  0  0  0
M  END
> <minimizedAffinity>
-8.38139

$$$$
5DH5_5AY_A_803


 29 33  0  0  0  0  0  0  0  0999 V2000
    4.1661   13.6844   41.6494 C   0  0  0  0  0  0  0  0  0  0  0  0
    3.8604   13.0751   40.4441 C   0  0  0  0  0  0  0  0  0  0  0  0
    3.1787   13.9771   39.5379 N   0  0  0  0  0  0  0  0  0  0  0  0
    2.7137   13.6875   38.2115 N   0  0  0  0  0  0  0  0  0  0  0  0
    2.1048   14.8097   37.7221 C   0  0  0  0  0  0  0  0  0  0  0  0
    2.1558   15.7983   38.7109 C   0  0  0  0  0  0  0  0  0  0  0  0
    2.8234   15.2646   39.8375 C   0  0  0  0  0  0  0  0  0  0  0  0
    3.1427   15.8110   41.0222 N   0  0  0  0  0  0  0  0  0  0  0  0
    3.8103   15.0041   41.8639 C   0  0  0  0  0  0  0  0  0  0  0  0
    4.1032   11.7691   39.9692 N   0  0  0  0  0  0  0  0  0  0  0  0
    3.9935   11.5008   39.0283 H   0  0  0  0  0  0  0  0  0  0  0  0
    4.5329   10.8637   41.0205 C   0  0  0  0  0  0  0  0  0  0  0  0
    5.9501   10.4569   40.9684 C   0  0  0  0  0  0  0  0  0  0  0  0
    7.9902    9.9131   40.1344 N   0  0  0  0  0  0  0  0  0  0  0  0
    6.7840   10.1529   42.0263 C   0  0  0  0  0  0  0  0  0  0  0  0
    7.9873    9.8431   41.4680 N   0  0  0  0  0  0  0  0  0  0  0  0
    6.7475   10.2902   39.8107 C   0  0  0  0  0  0  0  0  0  0  0  0
    9.1955    9.4687   42.1817 C   0  0  0  0  0  0  0  0  0  0  0  0
    4.1941   15.4957   43.1052 O   0  0  0  0  0  0  0  0  0  0  0  0
    3.4653   14.8995   44.1664 C   0  0  0  0  0  0  0  0  0  0  0  0
    4.4107   14.2280   45.0828 C   0  0  0  0  0  0  0  0  0  0  0  0
    3.7929   13.5227   46.2602 C   0  0  0  0  0  0  0  0  0  0  0  0
    4.4243   12.7275   45.1469 C   0  0  0  0  0  0  0  0  0  0  0  0
    5.6997   11.9574   45.2630 C   0  0  0  0  0  0  0  0  0  0  0  0
    8.0877   11.8281   45.1722 C   0  0  0  0  0  0  0  0  0  0  0  0
    6.9241   12.5614   45.0396 C   0  0  0  0  0  0  0  0  0  0  0  0
    8.0486   10.4977   45.5285 C   0  0  0  0  0  0  0  0  0  0  0  0
    6.7988    9.9540   45.7409 C   0  0  0  0  0  0  0  0  0  0  0  0
    5.6617   10.6607   45.6216 N   0  0  0  0  0  0  0  0  0  0  0  0
  5  4  2  0  0  0
  5  6  1  0  0  0
  4  3  1  0  0  0
  6  7  2  0  0  0
  3  7  1  0  0  0
  3  2  1  0  0  0
  7  8  1  0  0  0
 10  2  1  0  0  0
 10 12  1  0  0  0
  2  1  2  0  0  0
  8  9  2  0  0  0
 15 13  2  0  0  0
 15 16  1  0  0  0
 12 13  1  0  0  0
 18 16  1  0  0  0
  1  9  1  0  0  0
  9 19  1  0  0  0
 13 17  1  0  0  0
 16 14  1  0  0  0
 20 19  1  0  0  0
 20 21  1  0  0  0
 17 14  2  0  0  0
 21 23  1  0  0  0
 21 22  1  0  0  0
 23 22  1  0  0  0
 23 24  1  0  0  0
 29 24  2  0  0  0
 29 28  1  0  0  0
 24 26  1  0  0  0
 28 27  2  0  0  0
 26 25  2  0  0  0
 27 25  1  0  0  0
 10 11  1  0  0  0
M  END
> <minimizedAffinity>
-8.25382

$$$$
5DH5_5AY_A_803


 29 33  0  0  0  0  0  0  0  0999 V2000
    9.2202    8.8644   43.4636 C   0  0  0  0  0  0  0  0  0  0  0  0
   10.4084    8.5948   42.8057 C   0  0  0  0  0  0  0  0  0  0  0  0
   11.2294    9.7800   42.6614 N   0  0  0  0  0  0  0  0  0  0  0  0
   12.5166    9.8732   42.0338 N   0  0  0  0  0  0  0  0  0  0  0  0
   12.9235   11.1772   42.0944 C   0  0  0  0  0  0  0  0  0  0  0  0
   11.9195   11.9169   42.7286 C   0  0  0  0  0  0  0  0  0  0  0  0
   10.8689   11.0350   43.0723 C   0  0  0  0  0  0  0  0  0  0  0  0
    9.7039   11.2456   43.7066 N   0  0  0  0  0  0  0  0  0  0  0  0
    8.9436   10.1525   43.8862 C   0  0  0  0  0  0  0  0  0  0  0  0
   10.9341    7.3961   42.2795 N   0  0  0  0  0  0  0  0  0  0  0  0
   11.8810    7.2741   42.0390 H   0  0  0  0  0  0  0  0  0  0  0  0
    9.9254    6.3616   42.1316 C   0  0  0  0  0  0  0  0  0  0  0  0
    9.0522    6.4905   40.9494 C   0  0  0  0  0  0  0  0  0  0  0  0
    8.3984    6.7070   38.7864 N   0  0  0  0  0  0  0  0  0  0  0  0
    7.6721    6.5266   40.9151 C   0  0  0  0  0  0  0  0  0  0  0  0
    7.3408    6.6499   39.5996 N   0  0  0  0  0  0  0  0  0  0  0  0
    9.4578    6.6089   39.5984 C   0  0  0  0  0  0  0  0  0  0  0  0
    5.9964    6.7150   39.0539 C   0  0  0  0  0  0  0  0  0  0  0  0
    7.7292   10.2786   44.5489 O   0  0  0  0  0  0  0  0  0  0  0  0
    7.6332   11.5002   45.2639 C   0  0  0  0  0  0  0  0  0  0  0  0
    6.3781   12.1829   44.8856 C   0  0  0  0  0  0  0  0  0  0  0  0
    5.2339   11.2844   44.4998 C   0  0  0  0  0  0  0  0  0  0  0  0
    5.1828   12.0656   45.7874 C   0  0  0  0  0  0  0  0  0  0  0  0
    4.2780   13.2260   46.0481 C   0  0  0  0  0  0  0  0  0  0  0  0
    3.2806   15.2983   45.3861 C   0  0  0  0  0  0  0  0  0  0  0  0
    4.1387   14.2472   45.1252 C   0  0  0  0  0  0  0  0  0  0  0  0
    2.5546   15.3450   46.5562 C   0  0  0  0  0  0  0  0  0  0  0  0
    2.7344   14.2964   47.4341 C   0  0  0  0  0  0  0  0  0  0  0  0
    3.5609   13.2658   47.1863 N   0  0  0  0  0  0  0  0  0  0  0  0
  5  4  2  0  0  0
  5  6  1  0  0  0
  4  3  1  0  0  0
  6  7  2  0  0  0
  3  7  1  0  0  0
  3  2  1  0  0  0
  7  8  1  0  0  0
 10  2  1  0  0  0
 10 12  1  0  0  0
  2  1  2  0  0  0
  8  9  2  0  0  0
 15 13  2  0  0  0
 15 16  1  0  0  0
 12 13  1  0  0  0
 18 16  1  0  0  0
  1  9  1  0  0  0
  9 19  1  0  0  0
 13 17  1  0  0  0
 16 14  1  0  0  0
 20 19  1  0  0  0
 20 21  1  0  0  0
 17 14  2  0  0  0
 21 23  1  0  0  0
 21 22  1  0  0  0
 23 22  1  0  0  0
 23 24  1  0  0  0
 29 24  2  0  0  0
 29 28  1  0  0  0
 24 26  1  0  0  0
 28 27  2  0  0  0
 26 25  2  0  0  0
 27 25  1  0  0  0
 10 11  1  0  0  0
M  END
> <minimizedAffinity>
-7.92821

$$$$
5DH5_5AY_A_803


 29 33  0  0  0  0  0  0  0  0999 V2000
    2.9929   15.4085   39.3809 C   0  0  0  0  0  0  0  0  0  0  0  0
    2.1722   15.1869   38.2879 C   0  0  0  0  0  0  0  0  0  0  0  0
    1.9247   13.7754   38.0728 N   0  0  0  0  0  0  0  0  0  0  0  0
    1.1263   13.1818   37.0387 N   0  0  0  0  0  0  0  0  0  0  0  0
    1.1831   11.8238   37.1871 C   0  0  0  0  0  0  0  0  0  0  0  0
    2.0116   11.5400   38.2783 C   0  0  0  0  0  0  0  0  0  0  0  0
    2.4697   12.7643   38.8174 C   0  0  0  0  0  0  0  0  0  0  0  0
    3.2614   13.0311   39.8692 N   0  0  0  0  0  0  0  0  0  0  0  0
    3.4727   14.3357   40.1109 C   0  0  0  0  0  0  0  0  0  0  0  0
    1.5537   16.0795   37.3874 N   0  0  0  0  0  0  0  0  0  0  0  0
    0.6857   16.5122   37.5567 H   0  0  0  0  0  0  0  0  0  0  0  0
    2.3378   16.2902   36.1831 C   0  0  0  0  0  0  0  0  0  0  0  0
    2.9891   17.6093   36.0720 C   0  0  0  0  0  0  0  0  0  0  0  0
    3.7640   19.5432   35.1704 N   0  0  0  0  0  0  0  0  0  0  0  0
    3.6105   18.3344   37.0695 C   0  0  0  0  0  0  0  0  0  0  0  0
    4.0461   19.4794   36.4740 N   0  0  0  0  0  0  0  0  0  0  0  0
    3.1135   18.4035   34.9069 C   0  0  0  0  0  0  0  0  0  0  0  0
    4.7504   20.5717   37.1224 C   0  0  0  0  0  0  0  0  0  0  0  0
    4.2667   14.7001   41.1910 O   0  0  0  0  0  0  0  0  0  0  0  0
    3.5064   14.8981   42.3723 C   0  0  0  0  0  0  0  0  0  0  0  0
    4.3753   14.6777   43.5474 C   0  0  0  0  0  0  0  0  0  0  0  0
    3.7356   14.9147   44.8891 C   0  0  0  0  0  0  0  0  0  0  0  0
    4.0928   13.5161   44.4567 C   0  0  0  0  0  0  0  0  0  0  0  0
    5.1926   12.6935   45.0459 C   0  0  0  0  0  0  0  0  0  0  0  0
    6.2446   11.6254   46.9112 C   0  0  0  0  0  0  0  0  0  0  0  0
    5.2247   12.4037   46.3982 C   0  0  0  0  0  0  0  0  0  0  0  0
    7.2348   11.1276   46.0926 C   0  0  0  0  0  0  0  0  0  0  0  0
    7.1456   11.4484   44.7540 C   0  0  0  0  0  0  0  0  0  0  0  0
    6.1536   12.1985   44.2441 N   0  0  0  0  0  0  0  0  0  0  0  0
  5  4  2  0  0  0
  5  6  1  0  0  0
  4  3  1  0  0  0
  6  7  2  0  0  0
  3  7  1  0  0  0
  3  2  1  0  0  0
  7  8  1  0  0  0
 10  2  1  0  0  0
 10 12  1  0  0  0
  2  1  2  0  0  0
  8  9  2  0  0  0
 15 13  2  0  0  0
 15 16  1  0  0  0
 12 13  1  0  0  0
 18 16  1  0  0  0
  1  9  1  0  0  0
  9 19  1  0  0  0
 13 17  1  0  0  0
 16 14  1  0  0  0
 20 19  1  0  0  0
 20 21  1  0  0  0
 17 14  2  0  0  0
 21 23  1  0  0  0
 21 22  1  0  0  0
 23 22  1  0  0  0
 23 24  1  0  0  0
 29 24  2  0  0  0
 29 28  1  0  0  0
 24 26  1  0  0  0
 28 27  2  0  0  0
 26 25  2  0  0  0
 27 25  1  0  0  0
 10 11  1  0  0  0
M  END
> <minimizedAffinity>
-7.88454

$$$$
5DH5_5AY_A_803


 29 33  0  0  0  0  0  0  0  0999 V2000
    3.1039   15.4645   40.9609 C   0  0  0  0  0  0  0  0  0  0  0  0
    2.6718   14.9556   39.7478 C   0  0  0  0  0  0  0  0  0  0  0  0
    3.0771   13.5767   39.5628 N   0  0  0  0  0  0  0  0  0  0  0  0
    2.8078   12.7372   38.4305 N   0  0  0  0  0  0  0  0  0  0  0  0
    3.3931   11.5222   38.6558 C   0  0  0  0  0  0  0  0  0  0  0  0
    4.0420   11.5752   39.8942 C   0  0  0  0  0  0  0  0  0  0  0  0
    3.8405   12.8616   40.4457 C   0  0  0  0  0  0  0  0  0  0  0  0
    4.2358   13.4006   41.6107 N   0  0  0  0  0  0  0  0  0  0  0  0
    3.8376   14.6665   41.8206 C   0  0  0  0  0  0  0  0  0  0  0  0
    1.9215   15.5373   38.7043 N   0  0  0  0  0  0  0  0  0  0  0  0
    0.9714   15.3394   38.5386 H   0  0  0  0  0  0  0  0  0  0  0  0
    2.7044   16.4601   37.9012 C   0  0  0  0  0  0  0  0  0  0  0  0
    2.3235   16.5446   36.4783 C   0  0  0  0  0  0  0  0  0  0  0  0
    2.2363   17.2614   34.3262 N   0  0  0  0  0  0  0  0  0  0  0  0
    1.4340   15.7432   35.7902 C   0  0  0  0  0  0  0  0  0  0  0  0
    1.4290   16.2140   34.5119 N   0  0  0  0  0  0  0  0  0  0  0  0
    2.7948   17.4770   35.5232 C   0  0  0  0  0  0  0  0  0  0  0  0
    0.6552   15.6835   33.4031 C   0  0  0  0  0  0  0  0  0  0  0  0
    4.1892   15.2945   43.0088 O   0  0  0  0  0  0  0  0  0  0  0  0
    3.5556   14.7063   44.1337 C   0  0  0  0  0  0  0  0  0  0  0  0
    4.5677   13.9880   44.9362 C   0  0  0  0  0  0  0  0  0  0  0  0
    4.0497   13.2693   46.1531 C   0  0  0  0  0  0  0  0  0  0  0  0
    4.5455   12.4865   44.9648 C   0  0  0  0  0  0  0  0  0  0  0  0
    5.8040   11.6811   44.9361 C   0  0  0  0  0  0  0  0  0  0  0  0
    8.1917   11.5199   44.9440 C   0  0  0  0  0  0  0  0  0  0  0  0
    7.0454   12.2913   44.9529 C   0  0  0  0  0  0  0  0  0  0  0  0
    8.1183   10.1442   44.9215 C   0  0  0  0  0  0  0  0  0  0  0  0
    6.8527    9.5957   44.9091 C   0  0  0  0  0  0  0  0  0  0  0  0
    5.7318   10.3372   44.9250 N   0  0  0  0  0  0  0  0  0  0  0  0
  5  4  2  0  0  0
  5  6  1  0  0  0
  4  3  1  0  0  0
  6  7  2  0  0  0
  3  7  1  0  0  0
  3  2  1  0  0  0
  7  8  1  0  0  0
 10  2  1  0  0  0
 10 12  1  0  0  0
  2  1  2  0  0  0
  8  9  2  0  0  0
 15 13  2  0  0  0
 15 16  1  0  0  0
 12 13  1  0  0  0
 18 16  1  0  0  0
  1  9  1  0  0  0
  9 19  1  0  0  0
 13 17  1  0  0  0
 16 14  1  0  0  0
 20 19  1  0  0  0
 20 21  1  0  0  0
 17 14  2  0  0  0
 21 23  1  0  0  0
 21 22  1  0  0  0
 23 22  1  0  0  0
 23 24  1  0  0  0
 29 24  2  0  0  0
 29 28  1  0  0  0
 24 26  1  0  0  0
 28 27  2  0  0  0
 26 25  2  0  0  0
 27 25  1  0  0  0
 10 11  1  0  0  0
M  END
> <minimizedAffinity>
-7.88179

$$$$
