6E7J_HWY_A_201


 48 52  0  0  0  0  0  0  0  0999 V2000
   18.0845   23.8948   18.4754 C   0  0  0  0  0  0  0  0  0  0  0  0
   19.2870   24.7716   16.6220 C   0  0  0  0  0  0  0  0  0  0  0  0
   18.9464   23.9857   15.7303 O   0  0  0  0  0  0  0  0  0  0  0  0
   18.9440   24.8313   17.8361 N   0  0  0  0  0  0  0  0  0  0  0  0
   19.2949   25.5757   18.3764 H   0  0  0  0  0  0  0  0  0  0  0  0
   20.0964   25.7904   16.1074 O   0  0  0  0  0  0  0  0  0  0  0  0
   20.4626   25.7441   14.7550 C   0  0  0  0  0  0  0  0  0  0  0  0
   21.6412   27.8313   14.5912 C   0  0  0  0  0  0  0  0  0  0  0  0
   22.4017   27.9673   16.7538 C   0  0  0  0  0  0  0  0  0  0  0  0
   22.7049   26.7880   14.7797 C   0  0  0  0  0  0  0  0  0  0  0  0
   22.3754   28.3811   17.8934 O   0  0  0  0  0  0  0  0  0  0  0  0
   21.4651   28.4607   15.8989 O   0  0  0  0  0  0  0  0  0  0  0  0
   23.1999   27.1281   16.1189 N   0  0  0  0  0  0  0  0  0  0  0  0
   20.3250   27.2108   14.2257 C   0  0  0  0  0  0  0  0  0  0  0  0
   21.9347   25.4487   14.7017 C   0  0  0  0  0  0  0  0  0  0  0  0
   24.4184   26.6560   16.6808 C   0  0  0  0  0  0  0  0  0  0  0  0
   25.5336   26.6460   15.8666 C   0  0  0  0  0  0  0  0  0  0  0  0
   26.7684   26.1858   16.3665 C   0  0  0  0  0  0  0  0  0  0  0  0
   26.8355   25.7267   17.6597 C   0  0  0  0  0  0  0  0  0  0  0  0
   25.7336   25.7405   18.4822 C   0  0  0  0  0  0  0  0  0  0  0  0
   24.4972   26.1828   17.9728 C   0  0  0  0  0  0  0  0  0  0  0  0
   16.5601   24.0580   18.0630 C   0  0  0  0  0  0  0  0  0  0  0  0
   16.1019   25.1400   18.9240 O   0  0  0  0  0  0  0  0  0  0  0  0
   16.2336   24.8922   19.8525 H   0  0  0  0  0  0  0  0  0  0  0  0
   15.7261   22.7904   18.3400 C   0  0  0  0  0  0  0  0  0  0  0  0
   16.4372   21.6300   17.7358 N   0  0  0  0  0  0  0  0  0  0  0  0
   16.5821   20.2884   18.7252 S   0  0  0  0  0  0  0  0  0  0  0  0
   17.3137   20.7081   19.8907 O   0  0  0  0  0  0  0  0  0  0  0  0
   17.1112   19.2804   17.8542 O   0  0  0  0  0  0  0  0  0  0  0  0
   15.0651   19.7607   19.2652 C   0  0  0  0  0  0  0  0  0  0  0  0
   13.9750   19.5743   18.3709 C   0  0  0  0  0  0  0  0  0  0  0  0
   12.8135   19.0115   18.8403 C   0  0  0  0  0  0  0  0  0  0  0  0
   14.8920   19.4156   20.5609 C   0  0  0  0  0  0  0  0  0  0  0  0
   13.6856   18.8545   21.0358 C   0  0  0  0  0  0  0  0  0  0  0  0
   12.6680   18.6514   20.1290 C   0  0  0  0  0  0  0  0  0  0  0  0
   11.4979   17.9850   20.4457 O   0  0  0  0  0  0  0  0  0  0  0  0
   11.2218   16.7874   19.7187 C   0  0  0  0  0  0  0  0  0  0  0  0
   16.1897   21.3513   16.3126 C   0  0  0  0  0  0  0  0  0  0  0  0
   15.3814   23.1024   14.6821 C   0  0  0  0  0  0  0  0  0  0  0  0
   14.9379   22.0838   15.7528 C   0  0  0  0  0  0  0  0  0  0  0  0
   14.1202   21.0047   15.0970 C   0  0  0  0  0  0  0  0  0  0  0  0
   18.3989   23.9127   19.9501 C   0  0  0  0  0  0  0  0  0  0  0  0
   19.8372   23.6317   20.1999 C   0  0  0  0  0  0  0  0  0  0  0  0
   20.2750   22.3045   20.0644 C   0  0  0  0  0  0  0  0  0  0  0  0
   21.6146   21.9650   20.2791 C   0  0  0  0  0  0  0  0  0  0  0  0
   22.5465   22.9662   20.6074 C   0  0  0  0  0  0  0  0  0  0  0  0
   22.0979   24.2654   20.7454 C   0  0  0  0  0  0  0  0  0  0  0  0
   20.7389   24.5866   20.5785 C   0  0  0  0  0  0  0  0  0  0  0  0
 14  7  1  0  0  0
 14  8  1  0  0  0
 41 40  1  0  0  0
 39 40  1  0  0  0
  7 15  1  0  0  0
  7  6  1  0  0  0
  8 10  1  0  0  0
  8 12  1  0  0  0
 40 38  1  0  0  0
 15 10  1  0  0  0
 10 13  1  0  0  0
  3  2  2  0  0  0
  6  2  1  0  0  0
 12  9  1  0  0  0
 38 26  1  0  0  0
  2  4  1  0  0  0
 13  9  1  0  0  0
 13 16  1  0  0  0
 29 27  2  0  0  0
  9 11  2  0  0  0
 26 27  1  0  0  0
 26 25  1  0  0  0
  4  1  1  0  0  0
 17 16  2  0  0  0
 17 18  1  0  0  0
 22  1  1  0  0  0
 22 25  1  0  0  0
 22 23  1  0  0  0
 33 34  2  0  0  0
 33 30  1  0  0  0
 16 21  1  0  0  0
 27 30  1  0  0  0
 27 28  2  0  0  0
  1 42  1  0  0  0
 34 35  1  0  0  0
 30 31  2  0  0  0
 18 19  2  0  0  0
 21 20  2  0  0  0
 37 36  1  0  0  0
 44 45  2  0  0  0
 44 43  1  0  0  0
 42 43  1  0  0  0
 35 36  1  0  0  0
 35 32  2  0  0  0
 45 46  1  0  0  0
 43 48  2  0  0  0
 19 20  1  0  0  0
 46 47  2  0  0  0
 31 32  1  0  0  0
 48 47  1  0  0  0
  4  5  1  0  0  0
 23 24  1  0  0  0
M  END
> <minimizedAffinity>
-10.71429

$$$$
6E7J_HWY_A_201


 48 52  0  0  0  0  0  0  0  0999 V2000
   19.8795   24.1887   19.5431 C   0  0  0  0  0  0  0  0  0  0  0  0
   20.3146   24.5411   17.2332 C   0  0  0  0  0  0  0  0  0  0  0  0
   20.4125   23.3750   16.8338 O   0  0  0  0  0  0  0  0  0  0  0  0
   20.0565   24.9940   18.3836 N   0  0  0  0  0  0  0  0  0  0  0  0
   19.9721   25.9696   18.4848 H   0  0  0  0  0  0  0  0  0  0  0  0
   20.4112   25.4434   16.1681 O   0  0  0  0  0  0  0  0  0  0  0  0
   20.9093   24.9875   14.9395 C   0  0  0  0  0  0  0  0  0  0  0  0
   21.8692   27.0309   14.1174 C   0  0  0  0  0  0  0  0  0  0  0  0
   22.3981   27.9972   16.1325 C   0  0  0  0  0  0  0  0  0  0  0  0
   23.0147   26.2665   14.7167 C   0  0  0  0  0  0  0  0  0  0  0  0
   22.2179   28.7678   17.0513 O   0  0  0  0  0  0  0  0  0  0  0  0
   21.5014   28.0394   15.1099 O   0  0  0  0  0  0  0  0  0  0  0  0
   23.3388   27.1062   15.8760 N   0  0  0  0  0  0  0  0  0  0  0  0
   20.6681   26.1530   13.9229 C   0  0  0  0  0  0  0  0  0  0  0  0
   22.4027   24.8910   15.0723 C   0  0  0  0  0  0  0  0  0  0  0  0
   24.5406   27.0216   16.6323 C   0  0  0  0  0  0  0  0  0  0  0  0
   25.6670   27.6242   16.1080 C   0  0  0  0  0  0  0  0  0  0  0  0
   26.8879   27.5704   16.8100 C   0  0  0  0  0  0  0  0  0  0  0  0
   26.9423   26.8908   18.0029 C   0  0  0  0  0  0  0  0  0  0  0  0
   25.8251   26.2948   18.5388 C   0  0  0  0  0  0  0  0  0  0  0  0
   24.6117   26.3341   17.8246 C   0  0  0  0  0  0  0  0  0  0  0  0
   18.3776   23.7222   19.7607 C   0  0  0  0  0  0  0  0  0  0  0  0
   18.1636   23.9593   21.1820 O   0  0  0  0  0  0  0  0  0  0  0  0
   18.8112   23.4517   21.6956 H   0  0  0  0  0  0  0  0  0  0  0  0
   18.1645   22.2265   19.4498 C   0  0  0  0  0  0  0  0  0  0  0  0
   16.9388   22.0999   18.6139 N   0  0  0  0  0  0  0  0  0  0  0  0
   15.5038   21.9772   19.4659 S   0  0  0  0  0  0  0  0  0  0  0  0
   14.6251   22.9923   18.9491 O   0  0  0  0  0  0  0  0  0  0  0  0
   15.9207   22.0007   20.8371 O   0  0  0  0  0  0  0  0  0  0  0  0
   14.7492   20.4871   19.1803 C   0  0  0  0  0  0  0  0  0  0  0  0
   15.0437   19.3364   19.9625 C   0  0  0  0  0  0  0  0  0  0  0  0
   14.3014   18.1954   19.7797 C   0  0  0  0  0  0  0  0  0  0  0  0
   13.7733   20.3917   18.2495 C   0  0  0  0  0  0  0  0  0  0  0  0
   13.0289   19.2064   18.0580 C   0  0  0  0  0  0  0  0  0  0  0  0
   13.3167   18.1268   18.8645 C   0  0  0  0  0  0  0  0  0  0  0  0
   12.5662   16.9648   18.8650 O   0  0  0  0  0  0  0  0  0  0  0  0
   11.4665   16.9088   19.7740 C   0  0  0  0  0  0  0  0  0  0  0  0
   16.8809   22.8899   17.3741 C   0  0  0  0  0  0  0  0  0  0  0  0
   16.0405   21.2228   15.6734 C   0  0  0  0  0  0  0  0  0  0  0  0
   17.2545   22.0707   16.1068 C   0  0  0  0  0  0  0  0  0  0  0  0
   17.5369   23.1028   15.0492 C   0  0  0  0  0  0  0  0  0  0  0  0
   20.5512   24.8890   20.6975 C   0  0  0  0  0  0  0  0  0  0  0  0
   21.9993   24.5592   20.7613 C   0  0  0  0  0  0  0  0  0  0  0  0
   22.8064   25.3303   21.6131 C   0  0  0  0  0  0  0  0  0  0  0  0
   24.1767   25.0756   21.7286 C   0  0  0  0  0  0  0  0  0  0  0  0
   24.7551   24.0162   21.0064 C   0  0  0  0  0  0  0  0  0  0  0  0
   23.9490   23.2729   20.1662 C   0  0  0  0  0  0  0  0  0  0  0  0
   22.5827   23.5714   20.0182 C   0  0  0  0  0  0  0  0  0  0  0  0
 14  7  1  0  0  0
 14  8  1  0  0  0
 41 40  1  0  0  0
 39 40  1  0  0  0
  7 15  1  0  0  0
  7  6  1  0  0  0
  8 10  1  0  0  0
  8 12  1  0  0  0
 40 38  1  0  0  0
 15 10  1  0  0  0
 10 13  1  0  0  0
  3  2  2  0  0  0
  6  2  1  0  0  0
 12  9  1  0  0  0
 38 26  1  0  0  0
  2  4  1  0  0  0
 13  9  1  0  0  0
 13 16  1  0  0  0
 29 27  2  0  0  0
  9 11  2  0  0  0
 26 27  1  0  0  0
 26 25  1  0  0  0
  4  1  1  0  0  0
 17 16  2  0  0  0
 17 18  1  0  0  0
 22  1  1  0  0  0
 22 25  1  0  0  0
 22 23  1  0  0  0
 33 34  2  0  0  0
 33 30  1  0  0  0
 16 21  1  0  0  0
 27 30  1  0  0  0
 27 28  2  0  0  0
  1 42  1  0  0  0
 34 35  1  0  0  0
 30 31  2  0  0  0
 18 19  2  0  0  0
 21 20  2  0  0  0
 37 36  1  0  0  0
 44 45  2  0  0  0
 44 43  1  0  0  0
 42 43  1  0  0  0
 35 36  1  0  0  0
 35 32  2  0  0  0
 45 46  1  0  0  0
 43 48  2  0  0  0
 19 20  1  0  0  0
 46 47  2  0  0  0
 31 32  1  0  0  0
 48 47  1  0  0  0
  4  5  1  0  0  0
 23 24  1  0  0  0
M  END
> <minimizedAffinity>
-10.28473

$$$$
6E7J_HWY_A_201


 48 52  0  0  0  0  0  0  0  0999 V2000
   19.3091   25.1594   17.9274 C   0  0  0  0  0  0  0  0  0  0  0  0
   21.0380   24.6229   19.4678 C   0  0  0  0  0  0  0  0  0  0  0  0
   21.7539   23.8949   18.7704 O   0  0  0  0  0  0  0  0  0  0  0  0
   19.9739   25.2408   19.1826 N   0  0  0  0  0  0  0  0  0  0  0  0
   19.5781   25.8176   19.8754 H   0  0  0  0  0  0  0  0  0  0  0  0
   21.6158   24.8356   20.7242 O   0  0  0  0  0  0  0  0  0  0  0  0
   21.6842   26.1438   21.2236 C   0  0  0  0  0  0  0  0  0  0  0  0
   24.0091   26.2177   21.8256 C   0  0  0  0  0  0  0  0  0  0  0  0
   24.8168   24.7457   20.2588 C   0  0  0  0  0  0  0  0  0  0  0  0
   23.9263   26.8761   20.4782 C   0  0  0  0  0  0  0  0  0  0  0  0
   25.2252   23.6658   19.8877 O   0  0  0  0  0  0  0  0  0  0  0  0
   24.5001   24.8633   21.5770 O   0  0  0  0  0  0  0  0  0  0  0  0
   24.6356   25.8999   19.6429 N   0  0  0  0  0  0  0  0  0  0  0  0
   22.6525   26.0809   22.4519 C   0  0  0  0  0  0  0  0  0  0  0  0
   22.4075   26.9738   20.2012 C   0  0  0  0  0  0  0  0  0  0  0  0
   25.1219   26.1524   18.3301 C   0  0  0  0  0  0  0  0  0  0  0  0
   24.2002   26.1711   17.3021 C   0  0  0  0  0  0  0  0  0  0  0  0
   24.6229   26.4125   15.9794 C   0  0  0  0  0  0  0  0  0  0  0  0
   25.9608   26.6013   15.7304 C   0  0  0  0  0  0  0  0  0  0  0  0
   26.8862   26.5938   16.7474 C   0  0  0  0  0  0  0  0  0  0  0  0
   26.4622   26.3328   18.0649 C   0  0  0  0  0  0  0  0  0  0  0  0
   17.9104   24.4121   18.0047 C   0  0  0  0  0  0  0  0  0  0  0  0
   17.3258   24.9373   19.2313 O   0  0  0  0  0  0  0  0  0  0  0  0
   17.9152   24.7466   19.9777 H   0  0  0  0  0  0  0  0  0  0  0  0
   18.0553   22.8807   18.1173 C   0  0  0  0  0  0  0  0  0  0  0  0
   16.7243   22.2709   17.8461 N   0  0  0  0  0  0  0  0  0  0  0  0
   15.7150   22.1414   19.1744 S   0  0  0  0  0  0  0  0  0  0  0  0
   14.6646   23.1078   18.9947 O   0  0  0  0  0  0  0  0  0  0  0  0
   16.6099   22.2340   20.2904 O   0  0  0  0  0  0  0  0  0  0  0  0
   14.9728   20.6192   19.2318 C   0  0  0  0  0  0  0  0  0  0  0  0
   15.3708   19.6267   20.1697 C   0  0  0  0  0  0  0  0  0  0  0  0
   14.6423   18.4664   20.2653 C   0  0  0  0  0  0  0  0  0  0  0  0
   13.9129   20.3541   18.4354 C   0  0  0  0  0  0  0  0  0  0  0  0
   13.1826   19.1486   18.5305 C   0  0  0  0  0  0  0  0  0  0  0  0
   13.5746   18.2304   19.4804 C   0  0  0  0  0  0  0  0  0  0  0  0
   12.8565   17.0816   19.7600 O   0  0  0  0  0  0  0  0  0  0  0  0
   12.3880   16.9251   21.0997 C   0  0  0  0  0  0  0  0  0  0  0  0
   16.0680   22.6166   16.5756 C   0  0  0  0  0  0  0  0  0  0  0  0
   15.3757   20.9016   14.8558 C   0  0  0  0  0  0  0  0  0  0  0  0
   16.5530   21.7505   15.3791 C   0  0  0  0  0  0  0  0  0  0  0  0
   16.9530   22.7427   14.3213 C   0  0  0  0  0  0  0  0  0  0  0  0
   20.3011   24.6489   16.9127 C   0  0  0  0  0  0  0  0  0  0  0  0
   20.7494   25.7343   16.0013 C   0  0  0  0  0  0  0  0  0  0  0  0
   21.0582   25.3868   14.6764 C   0  0  0  0  0  0  0  0  0  0  0  0
   21.4822   26.3550   13.7605 C   0  0  0  0  0  0  0  0  0  0  0  0
   21.5751   27.7012   14.1576 C   0  0  0  0  0  0  0  0  0  0  0  0
   21.2762   28.0249   15.4668 C   0  0  0  0  0  0  0  0  0  0  0  0
   20.9014   27.0350   16.3928 C   0  0  0  0  0  0  0  0  0  0  0  0
 14  7  1  0  0  0
 14  8  1  0  0  0
 41 40  1  0  0  0
 39 40  1  0  0  0
  7 15  1  0  0  0
  7  6  1  0  0  0
  8 10  1  0  0  0
  8 12  1  0  0  0
 40 38  1  0  0  0
 15 10  1  0  0  0
 10 13  1  0  0  0
  3  2  2  0  0  0
  6  2  1  0  0  0
 12  9  1  0  0  0
 38 26  1  0  0  0
  2  4  1  0  0  0
 13  9  1  0  0  0
 13 16  1  0  0  0
 29 27  2  0  0  0
  9 11  2  0  0  0
 26 27  1  0  0  0
 26 25  1  0  0  0
  4  1  1  0  0  0
 17 16  2  0  0  0
 17 18  1  0  0  0
 22  1  1  0  0  0
 22 25  1  0  0  0
 22 23  1  0  0  0
 33 34  2  0  0  0
 33 30  1  0  0  0
 16 21  1  0  0  0
 27 30  1  0  0  0
 27 28  2  0  0  0
  1 42  1  0  0  0
 34 35  1  0  0  0
 30 31  2  0  0  0
 18 19  2  0  0  0
 21 20  2  0  0  0
 37 36  1  0  0  0
 44 45  2  0  0  0
 44 43  1  0  0  0
 42 43  1  0  0  0
 35 36  1  0  0  0
 35 32  2  0  0  0
 45 46  1  0  0  0
 43 48  2  0  0  0
 19 20  1  0  0  0
 46 47  2  0  0  0
 31 32  1  0  0  0
 48 47  1  0  0  0
  4  5  1  0  0  0
 23 24  1  0  0  0
M  END
> <minimizedAffinity>
-10.05763

$$$$
6E7J_HWY_A_201


 48 52  0  0  0  0  0  0  0  0999 V2000
   19.4830   23.9848   16.6284 C   0  0  0  0  0  0  0  0  0  0  0  0
   18.6224   21.7828   16.8733 C   0  0  0  0  0  0  0  0  0  0  0  0
   19.5854   21.2134   17.3998 O   0  0  0  0  0  0  0  0  0  0  0  0
   18.4721   22.9886   16.5287 N   0  0  0  0  0  0  0  0  0  0  0  0
   17.5968   23.2571   16.1668 H   0  0  0  0  0  0  0  0  0  0  0  0
   17.5264   20.9189   16.7711 O   0  0  0  0  0  0  0  0  0  0  0  0
   16.8617   20.5297   17.9424 C   0  0  0  0  0  0  0  0  0  0  0  0
   15.1382   22.2028   17.9954 C   0  0  0  0  0  0  0  0  0  0  0  0
   14.9376   22.5613   15.7359 C   0  0  0  0  0  0  0  0  0  0  0  0
   14.4964   20.9903   17.3842 C   0  0  0  0  0  0  0  0  0  0  0  0
   15.1302   23.1784   14.7099 O   0  0  0  0  0  0  0  0  0  0  0  0
   15.4506   23.0930   16.8786 O   0  0  0  0  0  0  0  0  0  0  0  0
   14.2774   21.4502   16.0078 N   0  0  0  0  0  0  0  0  0  0  0  0
   16.4409   21.8582   18.6552 C   0  0  0  0  0  0  0  0  0  0  0  0
   15.5693   19.8852   17.5281 C   0  0  0  0  0  0  0  0  0  0  0  0
   13.4239   20.8154   15.0633 C   0  0  0  0  0  0  0  0  0  0  0  0
   12.0775   21.1170   15.1178 C   0  0  0  0  0  0  0  0  0  0  0  0
   11.1823   20.5163   14.2101 C   0  0  0  0  0  0  0  0  0  0  0  0
   11.6659   19.6131   13.2947 C   0  0  0  0  0  0  0  0  0  0  0  0
   13.0058   19.3121   13.2254 C   0  0  0  0  0  0  0  0  0  0  0  0
   13.8942   19.8997   14.1470 C   0  0  0  0  0  0  0  0  0  0  0  0
   19.5188   24.7041   18.0433 C   0  0  0  0  0  0  0  0  0  0  0  0
   18.1198   25.0360   18.2775 O   0  0  0  0  0  0  0  0  0  0  0  0
   17.7965   25.6003   17.5577 H   0  0  0  0  0  0  0  0  0  0  0  0
   20.3610   25.9962   18.0368 C   0  0  0  0  0  0  0  0  0  0  0  0
   21.5513   25.7746   18.9035 N   0  0  0  0  0  0  0  0  0  0  0  0
   22.4772   27.1353   19.2054 S   0  0  0  0  0  0  0  0  0  0  0  0
   22.8473   27.0868   20.5948 O   0  0  0  0  0  0  0  0  0  0  0  0
   21.6748   28.2102   18.7000 O   0  0  0  0  0  0  0  0  0  0  0  0
   23.9186   27.1033   18.3152 C   0  0  0  0  0  0  0  0  0  0  0  0
   24.7670   25.9618   18.3043 C   0  0  0  0  0  0  0  0  0  0  0  0
   25.8469   25.9390   17.4560 C   0  0  0  0  0  0  0  0  0  0  0  0
   24.2425   28.1450   17.5165 C   0  0  0  0  0  0  0  0  0  0  0  0
   25.3668   28.1172   16.6616 C   0  0  0  0  0  0  0  0  0  0  0  0
   26.1397   26.9763   16.6497 C   0  0  0  0  0  0  0  0  0  0  0  0
   27.1786   26.7788   15.7580 O   0  0  0  0  0  0  0  0  0  0  0  0
   27.7844   27.9480   15.2058 C   0  0  0  0  0  0  0  0  0  0  0  0
   21.4036   24.8389   20.0292 C   0  0  0  0  0  0  0  0  0  0  0  0
   23.4555   23.7704   21.0423 C   0  0  0  0  0  0  0  0  0  0  0  0
   22.3744   23.6271   19.9509 C   0  0  0  0  0  0  0  0  0  0  0  0
   21.5201   22.4275   20.2585 C   0  0  0  0  0  0  0  0  0  0  0  0
   19.3770   24.8721   15.4136 C   0  0  0  0  0  0  0  0  0  0  0  0
   20.6915   25.4734   15.0667 C   0  0  0  0  0  0  0  0  0  0  0  0
   20.7015   26.8041   14.6187 C   0  0  0  0  0  0  0  0  0  0  0  0
   21.9009   27.4379   14.2785 C   0  0  0  0  0  0  0  0  0  0  0  0
   23.1195   26.7482   14.4118 C   0  0  0  0  0  0  0  0  0  0  0  0
   23.0914   25.4369   14.8455 C   0  0  0  0  0  0  0  0  0  0  0  0
   21.8750   24.7931   15.1348 C   0  0  0  0  0  0  0  0  0  0  0  0
 14  7  1  0  0  0
 14  8  1  0  0  0
 41 40  1  0  0  0
 39 40  1  0  0  0
  7 15  1  0  0  0
  7  6  1  0  0  0
  8 10  1  0  0  0
  8 12  1  0  0  0
 40 38  1  0  0  0
 15 10  1  0  0  0
 10 13  1  0  0  0
  3  2  2  0  0  0
  6  2  1  0  0  0
 12  9  1  0  0  0
 38 26  1  0  0  0
  2  4  1  0  0  0
 13  9  1  0  0  0
 13 16  1  0  0  0
 29 27  2  0  0  0
  9 11  2  0  0  0
 26 27  1  0  0  0
 26 25  1  0  0  0
  4  1  1  0  0  0
 17 16  2  0  0  0
 17 18  1  0  0  0
 22  1  1  0  0  0
 22 25  1  0  0  0
 22 23  1  0  0  0
 33 34  2  0  0  0
 33 30  1  0  0  0
 16 21  1  0  0  0
 27 30  1  0  0  0
 27 28  2  0  0  0
  1 42  1  0  0  0
 34 35  1  0  0  0
 30 31  2  0  0  0
 18 19  2  0  0  0
 21 20  2  0  0  0
 37 36  1  0  0  0
 44 45  2  0  0  0
 44 43  1  0  0  0
 42 43  1  0  0  0
 35 36  1  0  0  0
 35 32  2  0  0  0
 45 46  1  0  0  0
 43 48  2  0  0  0
 19 20  1  0  0  0
 46 47  2  0  0  0
 31 32  1  0  0  0
 48 47  1  0  0  0
  4  5  1  0  0  0
 23 24  1  0  0  0
M  END
> <minimizedAffinity>
-9.96671

$$$$
6E7J_HWY_A_201


 48 52  0  0  0  0  0  0  0  0999 V2000
   15.1539   19.7107   18.1615 C   0  0  0  0  0  0  0  0  0  0  0  0
   13.2315   20.0528   16.8061 C   0  0  0  0  0  0  0  0  0  0  0  0
   12.3901   20.3438   17.6641 O   0  0  0  0  0  0  0  0  0  0  0  0
   14.4617   19.7909   16.9210 N   0  0  0  0  0  0  0  0  0  0  0  0
   14.9763   19.6316   16.0969 H   0  0  0  0  0  0  0  0  0  0  0  0
   12.6888   20.1533   15.5203 O   0  0  0  0  0  0  0  0  0  0  0  0
   11.3473   20.5357   15.3812 C   0  0  0  0  0  0  0  0  0  0  0  0
   10.9680   19.8359   13.1143 C   0  0  0  0  0  0  0  0  0  0  0  0
   12.4542   18.0866   13.0413 C   0  0  0  0  0  0  0  0  0  0  0  0
   10.4267   18.7257   13.9689 C   0  0  0  0  0  0  0  0  0  0  0  0
   13.5064   17.5634   12.7418 O   0  0  0  0  0  0  0  0  0  0  0  0
   12.2736   19.3756   12.6445 O   0  0  0  0  0  0  0  0  0  0  0  0
   11.3774   17.6488   13.6685 N   0  0  0  0  0  0  0  0  0  0  0  0
   11.2083   21.0787   13.9197 C   0  0  0  0  0  0  0  0  0  0  0  0
   10.5211   19.2813   15.4095 C   0  0  0  0  0  0  0  0  0  0  0  0
   11.1718   16.2737   13.9691 C   0  0  0  0  0  0  0  0  0  0  0  0
   11.4725   15.8495   15.2483 C   0  0  0  0  0  0  0  0  0  0  0  0
   11.2929   14.4977   15.6042 C   0  0  0  0  0  0  0  0  0  0  0  0
   10.8417   13.6122   14.6555 C   0  0  0  0  0  0  0  0  0  0  0  0
   10.5306   14.0251   13.3814 C   0  0  0  0  0  0  0  0  0  0  0  0
   10.7301   15.3729   13.0243 C   0  0  0  0  0  0  0  0  0  0  0  0
   16.4929   20.5633   18.1900 C   0  0  0  0  0  0  0  0  0  0  0  0
   17.0037   20.3260   19.5335 O   0  0  0  0  0  0  0  0  0  0  0  0
   16.3433   20.6091   20.1852 H   0  0  0  0  0  0  0  0  0  0  0  0
   16.2456   22.0727   17.9918 C   0  0  0  0  0  0  0  0  0  0  0  0
   17.1498   22.5492   16.9089 N   0  0  0  0  0  0  0  0  0  0  0  0
   18.7591   22.7048   17.3403 S   0  0  0  0  0  0  0  0  0  0  0  0
   19.4716   21.6445   16.6787 O   0  0  0  0  0  0  0  0  0  0  0  0
   18.7209   22.7776   18.7714 O   0  0  0  0  0  0  0  0  0  0  0  0
   19.4076   24.1611   16.7657 C   0  0  0  0  0  0  0  0  0  0  0  0
   19.7891   25.2103   17.6468 C   0  0  0  0  0  0  0  0  0  0  0  0
   20.4383   26.3084   17.1379 C   0  0  0  0  0  0  0  0  0  0  0  0
   19.6614   24.3134   15.4466 C   0  0  0  0  0  0  0  0  0  0  0  0
   20.3135   25.4563   14.9324 C   0  0  0  0  0  0  0  0  0  0  0  0
   20.7044   26.4315   15.8242 C   0  0  0  0  0  0  0  0  0  0  0  0
   21.4698   27.5242   15.4587 O   0  0  0  0  0  0  0  0  0  0  0  0
   22.2871   27.3785   14.2969 C   0  0  0  0  0  0  0  0  0  0  0  0
   16.8979   22.0494   15.5483 C   0  0  0  0  0  0  0  0  0  0  0  0
   16.4866   22.7338   13.1524 C   0  0  0  0  0  0  0  0  0  0  0  0
   16.2136   23.0978   14.6267 C   0  0  0  0  0  0  0  0  0  0  0  0
   14.7420   22.9544   14.9049 C   0  0  0  0  0  0  0  0  0  0  0  0
   15.2637   18.2536   18.5345 C   0  0  0  0  0  0  0  0  0  0  0  0
   14.0346   17.7772   19.2216 C   0  0  0  0  0  0  0  0  0  0  0  0
   13.0951   17.0661   18.4578 C   0  0  0  0  0  0  0  0  0  0  0  0
   11.9173   16.5829   19.0368 C   0  0  0  0  0  0  0  0  0  0  0  0
   11.6779   16.7835   20.4083 C   0  0  0  0  0  0  0  0  0  0  0  0
   12.6079   17.4926   21.1435 C   0  0  0  0  0  0  0  0  0  0  0  0
   13.7636   18.0191   20.5393 C   0  0  0  0  0  0  0  0  0  0  0  0
 14  7  1  0  0  0
 14  8  1  0  0  0
 41 40  1  0  0  0
 39 40  1  0  0  0
  7 15  1  0  0  0
  7  6  1  0  0  0
  8 10  1  0  0  0
  8 12  1  0  0  0
 40 38  1  0  0  0
 15 10  1  0  0  0
 10 13  1  0  0  0
  3  2  2  0  0  0
  6  2  1  0  0  0
 12  9  1  0  0  0
 38 26  1  0  0  0
  2  4  1  0  0  0
 13  9  1  0  0  0
 13 16  1  0  0  0
 29 27  2  0  0  0
  9 11  2  0  0  0
 26 27  1  0  0  0
 26 25  1  0  0  0
  4  1  1  0  0  0
 17 16  2  0  0  0
 17 18  1  0  0  0
 22  1  1  0  0  0
 22 25  1  0  0  0
 22 23  1  0  0  0
 33 34  2  0  0  0
 33 30  1  0  0  0
 16 21  1  0  0  0
 27 30  1  0  0  0
 27 28  2  0  0  0
  1 42  1  0  0  0
 34 35  1  0  0  0
 30 31  2  0  0  0
 18 19  2  0  0  0
 21 20  2  0  0  0
 37 36  1  0  0  0
 44 45  2  0  0  0
 44 43  1  0  0  0
 42 43  1  0  0  0
 35 36  1  0  0  0
 35 32  2  0  0  0
 45 46  1  0  0  0
 43 48  2  0  0  0
 19 20  1  0  0  0
 46 47  2  0  0  0
 31 32  1  0  0  0
 48 47  1  0  0  0
  4  5  1  0  0  0
 23 24  1  0  0  0
M  END
> <minimizedAffinity>
-9.87957

$$$$
6E7J_HWY_A_201


 48 52  0  0  0  0  0  0  0  0999 V2000
   18.7000   23.5936   18.6597 C   0  0  0  0  0  0  0  0  0  0  0  0
   19.6608   24.6353   16.7514 C   0  0  0  0  0  0  0  0  0  0  0  0
   19.7697   23.6686   15.9883 O   0  0  0  0  0  0  0  0  0  0  0  0
   19.1825   24.7079   17.9182 N   0  0  0  0  0  0  0  0  0  0  0  0
   19.1407   25.5950   18.3430 H   0  0  0  0  0  0  0  0  0  0  0  0
   20.0502   25.8195   16.1160 O   0  0  0  0  0  0  0  0  0  0  0  0
   20.4570   25.7647   14.7756 C   0  0  0  0  0  0  0  0  0  0  0  0
   21.6755   27.8313   14.6457 C   0  0  0  0  0  0  0  0  0  0  0  0
   22.3713   27.9580   16.8306 C   0  0  0  0  0  0  0  0  0  0  0  0
   22.7150   26.7703   14.8682 C   0  0  0  0  0  0  0  0  0  0  0  0
   22.3170   28.3741   17.9684 O   0  0  0  0  0  0  0  0  0  0  0  0
   21.4701   28.4658   15.9466 O   0  0  0  0  0  0  0  0  0  0  0  0
   23.1743   27.1042   16.2215 N   0  0  0  0  0  0  0  0  0  0  0  0
   20.3608   27.2326   14.2406 C   0  0  0  0  0  0  0  0  0  0  0  0
   21.9248   25.4442   14.7681 C   0  0  0  0  0  0  0  0  0  0  0  0
   24.3667   26.6125   16.8213 C   0  0  0  0  0  0  0  0  0  0  0  0
   25.5146   26.6173   16.0539 C   0  0  0  0  0  0  0  0  0  0  0  0
   26.7258   26.1387   16.5926 C   0  0  0  0  0  0  0  0  0  0  0  0
   26.7376   25.6474   17.8756 C   0  0  0  0  0  0  0  0  0  0  0  0
   25.6027   25.6461   18.6520 C   0  0  0  0  0  0  0  0  0  0  0  0
   24.3901   26.1070   18.1032 C   0  0  0  0  0  0  0  0  0  0  0  0
   17.2423   23.1356   18.2284 C   0  0  0  0  0  0  0  0  0  0  0  0
   16.5224   23.0993   19.4943 O   0  0  0  0  0  0  0  0  0  0  0  0
   16.9646   22.4842   20.1001 H   0  0  0  0  0  0  0  0  0  0  0  0
   17.2214   21.7348   17.5832 C   0  0  0  0  0  0  0  0  0  0  0  0
   15.8276   21.4516   17.1423 N   0  0  0  0  0  0  0  0  0  0  0  0
   15.4918   21.8348   15.5484 S   0  0  0  0  0  0  0  0  0  0  0  0
   16.6247   21.4090   14.7706 O   0  0  0  0  0  0  0  0  0  0  0  0
   15.1217   23.2185   15.6032 O   0  0  0  0  0  0  0  0  0  0  0  0
   14.1543   20.9639   14.9793 C   0  0  0  0  0  0  0  0  0  0  0  0
   12.8361   21.2278   15.4435 C   0  0  0  0  0  0  0  0  0  0  0  0
   11.7763   20.5906   14.8459 C   0  0  0  0  0  0  0  0  0  0  0  0
   14.3114   20.0535   13.9923 C   0  0  0  0  0  0  0  0  0  0  0  0
   13.2146   19.3906   13.3979 C   0  0  0  0  0  0  0  0  0  0  0  0
   11.9505   19.7050   13.8474 C   0  0  0  0  0  0  0  0  0  0  0  0
   10.7976   19.2273   13.2505 O   0  0  0  0  0  0  0  0  0  0  0  0
   10.0436   20.1561   12.4711 C   0  0  0  0  0  0  0  0  0  0  0  0
   15.1921   20.2269   17.6531 C   0  0  0  0  0  0  0  0  0  0  0  0
   15.2981   19.8870   20.1533 C   0  0  0  0  0  0  0  0  0  0  0  0
   15.9867   19.5611   18.8116 C   0  0  0  0  0  0  0  0  0  0  0  0
   15.8830   18.0829   18.5513 C   0  0  0  0  0  0  0  0  0  0  0  0
   18.9198   23.8838   20.1231 C   0  0  0  0  0  0  0  0  0  0  0  0
   20.3685   23.9602   20.4475 C   0  0  0  0  0  0  0  0  0  0  0  0
   21.1548   22.8257   20.1902 C   0  0  0  0  0  0  0  0  0  0  0  0
   22.5260   22.8252   20.4655 C   0  0  0  0  0  0  0  0  0  0  0  0
   23.1371   23.9828   20.9803 C   0  0  0  0  0  0  0  0  0  0  0  0
   22.3480   25.0873   21.2360 C   0  0  0  0  0  0  0  0  0  0  0  0
   20.9611   25.0589   21.0044 C   0  0  0  0  0  0  0  0  0  0  0  0
 14  7  1  0  0  0
 14  8  1  0  0  0
 41 40  1  0  0  0
 39 40  1  0  0  0
  7 15  1  0  0  0
  7  6  1  0  0  0
  8 10  1  0  0  0
  8 12  1  0  0  0
 40 38  1  0  0  0
 15 10  1  0  0  0
 10 13  1  0  0  0
  3  2  2  0  0  0
  6  2  1  0  0  0
 12  9  1  0  0  0
 38 26  1  0  0  0
  2  4  1  0  0  0
 13  9  1  0  0  0
 13 16  1  0  0  0
 29 27  2  0  0  0
  9 11  2  0  0  0
 26 27  1  0  0  0
 26 25  1  0  0  0
  4  1  1  0  0  0
 17 16  2  0  0  0
 17 18  1  0  0  0
 22  1  1  0  0  0
 22 25  1  0  0  0
 22 23  1  0  0  0
 33 34  2  0  0  0
 33 30  1  0  0  0
 16 21  1  0  0  0
 27 30  1  0  0  0
 27 28  2  0  0  0
  1 42  1  0  0  0
 34 35  1  0  0  0
 30 31  2  0  0  0
 18 19  2  0  0  0
 21 20  2  0  0  0
 37 36  1  0  0  0
 44 45  2  0  0  0
 44 43  1  0  0  0
 42 43  1  0  0  0
 35 36  1  0  0  0
 35 32  2  0  0  0
 45 46  1  0  0  0
 43 48  2  0  0  0
 19 20  1  0  0  0
 46 47  2  0  0  0
 31 32  1  0  0  0
 48 47  1  0  0  0
  4  5  1  0  0  0
 23 24  1  0  0  0
M  END
> <minimizedAffinity>
-9.84398

$$$$
6E7J_HWY_A_201


 48 52  0  0  0  0  0  0  0  0999 V2000
   21.7873   26.5749   18.5863 C   0  0  0  0  0  0  0  0  0  0  0  0
   20.4893   24.5870   18.4729 C   0  0  0  0  0  0  0  0  0  0  0  0
   21.3773   23.7354   18.3499 O   0  0  0  0  0  0  0  0  0  0  0  0
   20.5694   25.8398   18.6119 N   0  0  0  0  0  0  0  0  0  0  0  0
   19.7331   26.3413   18.7469 H   0  0  0  0  0  0  0  0  0  0  0  0
   19.2303   23.9846   18.5725 O   0  0  0  0  0  0  0  0  0  0  0  0
   18.1121   24.6708   18.0783 C   0  0  0  0  0  0  0  0  0  0  0  0
   17.4811   23.1768   16.3056 C   0  0  0  0  0  0  0  0  0  0  0  0
   18.2439   21.2142   17.2222 C   0  0  0  0  0  0  0  0  0  0  0  0
   16.5893   22.8220   17.4608 C   0  0  0  0  0  0  0  0  0  0  0  0
   19.0364   20.3042   17.3426 O   0  0  0  0  0  0  0  0  0  0  0  0
   18.5307   22.1594   16.2863 O   0  0  0  0  0  0  0  0  0  0  0  0
   17.0893   21.4854   17.8034 N   0  0  0  0  0  0  0  0  0  0  0  0
   18.1588   24.4976   16.5233 C   0  0  0  0  0  0  0  0  0  0  0  0
   16.8929   23.9106   18.5171 C   0  0  0  0  0  0  0  0  0  0  0  0
   16.4099   20.5494   18.6316 C   0  0  0  0  0  0  0  0  0  0  0  0
   16.0687   19.3340   18.0722 C   0  0  0  0  0  0  0  0  0  0  0  0
   15.3911   18.3677   18.8427 C   0  0  0  0  0  0  0  0  0  0  0  0
   15.0561   18.6649   20.1416 C   0  0  0  0  0  0  0  0  0  0  0  0
   15.3987   19.8684   20.7117 C   0  0  0  0  0  0  0  0  0  0  0  0
   16.0585   20.8387   19.9324 C   0  0  0  0  0  0  0  0  0  0  0  0
   22.1699   27.2057   19.9921 C   0  0  0  0  0  0  0  0  0  0  0  0
   21.2842   28.3585   20.0858 O   0  0  0  0  0  0  0  0  0  0  0  0
   21.4425   28.9498   19.3334 H   0  0  0  0  0  0  0  0  0  0  0  0
   23.6373   27.6765   20.0575 C   0  0  0  0  0  0  0  0  0  0  0  0
   24.4582   26.5530   20.5876 N   0  0  0  0  0  0  0  0  0  0  0  0
   25.8970   26.2775   19.7789 S   0  0  0  0  0  0  0  0  0  0  0  0
   25.8687   24.9098   19.3336 O   0  0  0  0  0  0  0  0  0  0  0  0
   26.8967   26.7241   20.7041 O   0  0  0  0  0  0  0  0  0  0  0  0
   26.0112   27.2407   18.3895 C   0  0  0  0  0  0  0  0  0  0  0  0
   26.5169   28.5691   18.4385 C   0  0  0  0  0  0  0  0  0  0  0  0
   26.7188   29.2518   17.2640 C   0  0  0  0  0  0  0  0  0  0  0  0
   25.7042   26.7204   17.1800 C   0  0  0  0  0  0  0  0  0  0  0  0
   25.8989   27.4396   15.9797 C   0  0  0  0  0  0  0  0  0  0  0  0
   26.4301   28.7081   16.0670 C   0  0  0  0  0  0  0  0  0  0  0  0
   26.7936   29.4512   14.9583 O   0  0  0  0  0  0  0  0  0  0  0  0
   27.4955   30.6705   15.2020 C   0  0  0  0  0  0  0  0  0  0  0  0
   24.5013   26.3768   22.0476 C   0  0  0  0  0  0  0  0  0  0  0  0
   23.3411   24.2551   21.3191 C   0  0  0  0  0  0  0  0  0  0  0  0
   23.9963   24.9818   22.5121 C   0  0  0  0  0  0  0  0  0  0  0  0
   25.2386   24.2376   22.9200 C   0  0  0  0  0  0  0  0  0  0  0  0
   21.7339   27.5143   17.4078 C   0  0  0  0  0  0  0  0  0  0  0  0
   21.6571   26.7680   16.1245 C   0  0  0  0  0  0  0  0  0  0  0  0
   22.6383   25.7947   15.8768 C   0  0  0  0  0  0  0  0  0  0  0  0
   22.6278   25.0497   14.6932 C   0  0  0  0  0  0  0  0  0  0  0  0
   21.6070   25.2531   13.7471 C   0  0  0  0  0  0  0  0  0  0  0  0
   20.6544   26.2205   14.0020 C   0  0  0  0  0  0  0  0  0  0  0  0
   20.7051   26.9999   15.1715 C   0  0  0  0  0  0  0  0  0  0  0  0
 14  7  1  0  0  0
 14  8  1  0  0  0
 41 40  1  0  0  0
 39 40  1  0  0  0
  7 15  1  0  0  0
  7  6  1  0  0  0
  8 10  1  0  0  0
  8 12  1  0  0  0
 40 38  1  0  0  0
 15 10  1  0  0  0
 10 13  1  0  0  0
  3  2  2  0  0  0
  6  2  1  0  0  0
 12  9  1  0  0  0
 38 26  1  0  0  0
  2  4  1  0  0  0
 13  9  1  0  0  0
 13 16  1  0  0  0
 29 27  2  0  0  0
  9 11  2  0  0  0
 26 27  1  0  0  0
 26 25  1  0  0  0
  4  1  1  0  0  0
 17 16  2  0  0  0
 17 18  1  0  0  0
 22  1  1  0  0  0
 22 25  1  0  0  0
 22 23  1  0  0  0
 33 34  2  0  0  0
 33 30  1  0  0  0
 16 21  1  0  0  0
 27 30  1  0  0  0
 27 28  2  0  0  0
  1 42  1  0  0  0
 34 35  1  0  0  0
 30 31  2  0  0  0
 18 19  2  0  0  0
 21 20  2  0  0  0
 37 36  1  0  0  0
 44 45  2  0  0  0
 44 43  1  0  0  0
 42 43  1  0  0  0
 35 36  1  0  0  0
 35 32  2  0  0  0
 45 46  1  0  0  0
 43 48  2  0  0  0
 19 20  1  0  0  0
 46 47  2  0  0  0
 31 32  1  0  0  0
 48 47  1  0  0  0
  4  5  1  0  0  0
 23 24  1  0  0  0
M  END
> <minimizedAffinity>
-9.61147

$$$$
6E7J_HWY_A_201


 48 52  0  0  0  0  0  0  0  0999 V2000
   15.6582   20.2503   17.7686 C   0  0  0  0  0  0  0  0  0  0  0  0
   14.0288   20.9410   16.1819 C   0  0  0  0  0  0  0  0  0  0  0  0
   14.1088   22.1705   16.2858 O   0  0  0  0  0  0  0  0  0  0  0  0
   14.6791   20.0261   16.7610 N   0  0  0  0  0  0  0  0  0  0  0  0
   14.4962   19.0953   16.4974 H   0  0  0  0  0  0  0  0  0  0  0  0
   13.1322   20.5828   15.1692 O   0  0  0  0  0  0  0  0  0  0  0  0
   11.7888   20.9650   15.2900 C   0  0  0  0  0  0  0  0  0  0  0  0
   10.8865   19.8602   13.3566 C   0  0  0  0  0  0  0  0  0  0  0  0
   12.3493   18.0926   13.2568 C   0  0  0  0  0  0  0  0  0  0  0  0
   10.5936   18.9445   14.5105 C   0  0  0  0  0  0  0  0  0  0  0  0
   13.3088   17.4967   12.8153 O   0  0  0  0  0  0  0  0  0  0  0  0
   12.0491   19.2878   12.6798 O   0  0  0  0  0  0  0  0  0  0  0  0
   11.4669   17.8073   14.1972 N   0  0  0  0  0  0  0  0  0  0  0  0
   11.2872   21.2262   13.8304 C   0  0  0  0  0  0  0  0  0  0  0  0
   11.0224   19.7589   15.7538 C   0  0  0  0  0  0  0  0  0  0  0  0
   11.3712   16.5189   14.7925 C   0  0  0  0  0  0  0  0  0  0  0  0
   11.4526   16.4456   16.1690 C   0  0  0  0  0  0  0  0  0  0  0  0
   11.3680   15.1961   16.8156 C   0  0  0  0  0  0  0  0  0  0  0  0
   11.2304   14.0596   16.0559 C   0  0  0  0  0  0  0  0  0  0  0  0
   11.1392   14.1215   14.6853 C   0  0  0  0  0  0  0  0  0  0  0  0
   11.2438   15.3701   14.0420 C   0  0  0  0  0  0  0  0  0  0  0  0
   16.9157   21.0698   17.2513 C   0  0  0  0  0  0  0  0  0  0  0  0
   18.0146   20.1301   17.4288 O   0  0  0  0  0  0  0  0  0  0  0  0
   18.0710   19.8709   18.3618 H   0  0  0  0  0  0  0  0  0  0  0  0
   17.1851   22.3408   18.0826 C   0  0  0  0  0  0  0  0  0  0  0  0
   18.4327   22.9710   17.5695 N   0  0  0  0  0  0  0  0  0  0  0  0
   18.2233   24.4379   16.7922 S   0  0  0  0  0  0  0  0  0  0  0  0
   17.6574   25.3428   17.7568 O   0  0  0  0  0  0  0  0  0  0  0  0
   17.5009   24.0916   15.6035 O   0  0  0  0  0  0  0  0  0  0  0  0
   19.7112   25.0968   16.3194 C   0  0  0  0  0  0  0  0  0  0  0  0
   20.3712   24.6796   15.1306 C   0  0  0  0  0  0  0  0  0  0  0  0
   21.5010   25.3461   14.7237 C   0  0  0  0  0  0  0  0  0  0  0  0
   20.2567   26.1104   17.0284 C   0  0  0  0  0  0  0  0  0  0  0  0
   21.4301   26.7763   16.6093 C   0  0  0  0  0  0  0  0  0  0  0  0
   22.0160   26.3695   15.4302 C   0  0  0  0  0  0  0  0  0  0  0  0
   23.0821   27.0331   14.8499 O   0  0  0  0  0  0  0  0  0  0  0  0
   24.3619   26.8491   15.4557 C   0  0  0  0  0  0  0  0  0  0  0  0
   19.6409   22.8545   18.4008 C   0  0  0  0  0  0  0  0  0  0  0  0
   20.4242   21.5288   20.4026 C   0  0  0  0  0  0  0  0  0  0  0  0
   19.3344   22.4880   19.8803 C   0  0  0  0  0  0  0  0  0  0  0  0
   19.4255   23.7905   20.6276 C   0  0  0  0  0  0  0  0  0  0  0  0
   15.9338   18.9310   18.4451 C   0  0  0  0  0  0  0  0  0  0  0  0
   14.7969   18.5185   19.3095 C   0  0  0  0  0  0  0  0  0  0  0  0
   13.9765   17.4744   18.8531 C   0  0  0  0  0  0  0  0  0  0  0  0
   12.8909   17.0294   19.6143 C   0  0  0  0  0  0  0  0  0  0  0  0
   12.6291   17.6118   20.8676 C   0  0  0  0  0  0  0  0  0  0  0  0
   13.4403   18.6436   21.2980 C   0  0  0  0  0  0  0  0  0  0  0  0
   14.4973   19.1181   20.5007 C   0  0  0  0  0  0  0  0  0  0  0  0
 14  7  1  0  0  0
 14  8  1  0  0  0
 41 40  1  0  0  0
 39 40  1  0  0  0
  7 15  1  0  0  0
  7  6  1  0  0  0
  8 10  1  0  0  0
  8 12  1  0  0  0
 40 38  1  0  0  0
 15 10  1  0  0  0
 10 13  1  0  0  0
  3  2  2  0  0  0
  6  2  1  0  0  0
 12  9  1  0  0  0
 38 26  1  0  0  0
  2  4  1  0  0  0
 13  9  1  0  0  0
 13 16  1  0  0  0
 29 27  2  0  0  0
  9 11  2  0  0  0
 26 27  1  0  0  0
 26 25  1  0  0  0
  4  1  1  0  0  0
 17 16  2  0  0  0
 17 18  1  0  0  0
 22  1  1  0  0  0
 22 25  1  0  0  0
 22 23  1  0  0  0
 33 34  2  0  0  0
 33 30  1  0  0  0
 16 21  1  0  0  0
 27 30  1  0  0  0
 27 28  2  0  0  0
  1 42  1  0  0  0
 34 35  1  0  0  0
 30 31  2  0  0  0
 18 19  2  0  0  0
 21 20  2  0  0  0
 37 36  1  0  0  0
 44 45  2  0  0  0
 44 43  1  0  0  0
 42 43  1  0  0  0
 35 36  1  0  0  0
 35 32  2  0  0  0
 45 46  1  0  0  0
 43 48  2  0  0  0
 19 20  1  0  0  0
 46 47  2  0  0  0
 31 32  1  0  0  0
 48 47  1  0  0  0
  4  5  1  0  0  0
 23 24  1  0  0  0
M  END
> <minimizedAffinity>
-9.60893

$$$$
6E7J_HWY_A_201


 48 52  0  0  0  0  0  0  0  0999 V2000
   21.3184   25.2301   19.8641 C   0  0  0  0  0  0  0  0  0  0  0  0
   19.3183   24.0926   19.2682 C   0  0  0  0  0  0  0  0  0  0  0  0
   18.5622   24.4600   20.1749 O   0  0  0  0  0  0  0  0  0  0  0  0
   20.5216   24.3953   19.0320 N   0  0  0  0  0  0  0  0  0  0  0  0
   20.9359   24.0290   18.2175 H   0  0  0  0  0  0  0  0  0  0  0  0
   18.6343   23.3039   18.3366 O   0  0  0  0  0  0  0  0  0  0  0  0
   19.1248   22.0231   18.0462 C   0  0  0  0  0  0  0  0  0  0  0  0
   17.4925   20.6996   19.2108 C   0  0  0  0  0  0  0  0  0  0  0  0
   15.7015   22.1258   19.0306 C   0  0  0  0  0  0  0  0  0  0  0  0
   17.0454   20.7107   17.7770 C   0  0  0  0  0  0  0  0  0  0  0  0
   14.9276   22.9603   19.4491 O   0  0  0  0  0  0  0  0  0  0  0  0
   16.6469   21.6738   19.8987 O   0  0  0  0  0  0  0  0  0  0  0  0
   15.8131   21.5022   17.8716 N   0  0  0  0  0  0  0  0  0  0  0  0
   18.9078   21.1788   19.3463 C   0  0  0  0  0  0  0  0  0  0  0  0
   18.2029   21.4130   17.0287 C   0  0  0  0  0  0  0  0  0  0  0  0
   14.8133   21.5762   16.8624 C   0  0  0  0  0  0  0  0  0  0  0  0
   13.9405   20.5120   16.7513 C   0  0  0  0  0  0  0  0  0  0  0  0
   12.9312   20.5266   15.7677 C   0  0  0  0  0  0  0  0  0  0  0  0
   12.8489   21.5982   14.9119 C   0  0  0  0  0  0  0  0  0  0  0  0
   13.7069   22.6674   15.0191 C   0  0  0  0  0  0  0  0  0  0  0  0
   14.7263   22.6400   15.9906 C   0  0  0  0  0  0  0  0  0  0  0  0
   22.1801   26.2877   19.0519 C   0  0  0  0  0  0  0  0  0  0  0  0
   21.3327   27.4726   19.0554 O   0  0  0  0  0  0  0  0  0  0  0  0
   20.4799   27.2614   18.6441 H   0  0  0  0  0  0  0  0  0  0  0  0
   22.4488   25.8504   17.5974 C   0  0  0  0  0  0  0  0  0  0  0  0
   21.7900   26.8321   16.6922 N   0  0  0  0  0  0  0  0  0  0  0  0
   22.8114   27.9648   16.0039 S   0  0  0  0  0  0  0  0  0  0  0  0
   22.5423   29.2185   16.6562 O   0  0  0  0  0  0  0  0  0  0  0  0
   22.5888   27.8109   14.5963 O   0  0  0  0  0  0  0  0  0  0  0  0
   24.4350   27.5920   16.3144 C   0  0  0  0  0  0  0  0  0  0  0  0
   25.1309   26.5993   15.5708 C   0  0  0  0  0  0  0  0  0  0  0  0
   26.4804   26.4383   15.7692 C   0  0  0  0  0  0  0  0  0  0  0  0
   25.1300   28.3082   17.2264 C   0  0  0  0  0  0  0  0  0  0  0  0
   26.5146   28.1206   17.4348 C   0  0  0  0  0  0  0  0  0  0  0  0
   27.1606   27.1780   16.6647 C   0  0  0  0  0  0  0  0  0  0  0  0
   28.5328   27.0035   16.6804 O   0  0  0  0  0  0  0  0  0  0  0  0
   29.0507   25.9040   15.9309 C   0  0  0  0  0  0  0  0  0  0  0  0
   20.7102   26.3346   15.8256 C   0  0  0  0  0  0  0  0  0  0  0  0
   19.4099   24.2889   15.1167 C   0  0  0  0  0  0  0  0  0  0  0  0
   20.7958   24.8060   15.5553 C   0  0  0  0  0  0  0  0  0  0  0  0
   21.7581   24.6703   14.4068 C   0  0  0  0  0  0  0  0  0  0  0  0
   22.0607   24.3428   20.8315 C   0  0  0  0  0  0  0  0  0  0  0  0
   22.7774   25.1434   21.8588 C   0  0  0  0  0  0  0  0  0  0  0  0
   22.0924   26.2236   22.4380 C   0  0  0  0  0  0  0  0  0  0  0  0
   22.7007   27.0189   23.4144 C   0  0  0  0  0  0  0  0  0  0  0  0
   24.0055   26.7208   23.8470 C   0  0  0  0  0  0  0  0  0  0  0  0
   24.6687   25.6602   23.2609 C   0  0  0  0  0  0  0  0  0  0  0  0
   24.0664   24.8997   22.2427 C   0  0  0  0  0  0  0  0  0  0  0  0
 14  7  1  0  0  0
 14  8  1  0  0  0
 41 40  1  0  0  0
 39 40  1  0  0  0
  7 15  1  0  0  0
  7  6  1  0  0  0
  8 10  1  0  0  0
  8 12  1  0  0  0
 40 38  1  0  0  0
 15 10  1  0  0  0
 10 13  1  0  0  0
  3  2  2  0  0  0
  6  2  1  0  0  0
 12  9  1  0  0  0
 38 26  1  0  0  0
  2  4  1  0  0  0
 13  9  1  0  0  0
 13 16  1  0  0  0
 29 27  2  0  0  0
  9 11  2  0  0  0
 26 27  1  0  0  0
 26 25  1  0  0  0
  4  1  1  0  0  0
 17 16  2  0  0  0
 17 18  1  0  0  0
 22  1  1  0  0  0
 22 25  1  0  0  0
 22 23  1  0  0  0
 33 34  2  0  0  0
 33 30  1  0  0  0
 16 21  1  0  0  0
 27 30  1  0  0  0
 27 28  2  0  0  0
  1 42  1  0  0  0
 34 35  1  0  0  0
 30 31  2  0  0  0
 18 19  2  0  0  0
 21 20  2  0  0  0
 37 36  1  0  0  0
 44 45  2  0  0  0
 44 43  1  0  0  0
 42 43  1  0  0  0
 35 36  1  0  0  0
 35 32  2  0  0  0
 45 46  1  0  0  0
 43 48  2  0  0  0
 19 20  1  0  0  0
 46 47  2  0  0  0
 31 32  1  0  0  0
 48 47  1  0  0  0
  4  5  1  0  0  0
 23 24  1  0  0  0
M  END
> <minimizedAffinity>
-9.60662

$$$$
6E7J_HWY_A_201


 48 52  0  0  0  0  0  0  0  0999 V2000
   17.7645   23.2525   18.5085 C   0  0  0  0  0  0  0  0  0  0  0  0
   19.0802   24.1666   16.7526 C   0  0  0  0  0  0  0  0  0  0  0  0
   18.7984   23.3981   15.8259 O   0  0  0  0  0  0  0  0  0  0  0  0
   18.6609   24.2021   17.9435 N   0  0  0  0  0  0  0  0  0  0  0  0
   18.9754   24.9360   18.5194 H   0  0  0  0  0  0  0  0  0  0  0  0
   19.9186   25.1959   16.3104 O   0  0  0  0  0  0  0  0  0  0  0  0
   20.4956   25.0970   15.0366 C   0  0  0  0  0  0  0  0  0  0  0  0
   21.5436   27.2551   14.9069 C   0  0  0  0  0  0  0  0  0  0  0  0
   21.9430   27.5783   17.1452 C   0  0  0  0  0  0  0  0  0  0  0  0
   22.6314   26.3097   15.3296 C   0  0  0  0  0  0  0  0  0  0  0  0
   21.7100   28.0563   18.2351 O   0  0  0  0  0  0  0  0  0  0  0  0
   21.1221   27.9462   16.1243 O   0  0  0  0  0  0  0  0  0  0  0  0
   22.8854   26.7665   16.7010 N   0  0  0  0  0  0  0  0  0  0  0  0
   20.3457   26.5144   14.3896 C   0  0  0  0  0  0  0  0  0  0  0  0
   21.9740   24.9129   15.2302 C   0  0  0  0  0  0  0  0  0  0  0  0
   24.0289   26.4239   17.4748 C   0  0  0  0  0  0  0  0  0  0  0  0
   23.8271   25.6540   18.6031 C   0  0  0  0  0  0  0  0  0  0  0  0
   24.9214   25.2860   19.4115 C   0  0  0  0  0  0  0  0  0  0  0  0
   26.1784   25.7257   19.0734 C   0  0  0  0  0  0  0  0  0  0  0  0
   26.3923   26.4852   17.9473 C   0  0  0  0  0  0  0  0  0  0  0  0
   25.2936   26.8670   17.1531 C   0  0  0  0  0  0  0  0  0  0  0  0
   16.2532   23.4832   18.0803 C   0  0  0  0  0  0  0  0  0  0  0  0
   16.0202   24.8758   18.4385 O   0  0  0  0  0  0  0  0  0  0  0  0
   16.1830   24.9973   19.3870 H   0  0  0  0  0  0  0  0  0  0  0  0
   15.2682   22.5809   18.8515 C   0  0  0  0  0  0  0  0  0  0  0  0
   15.0860   21.3257   18.0714 N   0  0  0  0  0  0  0  0  0  0  0  0
   14.7789   21.5379   16.4402 S   0  0  0  0  0  0  0  0  0  0  0  0
   15.9070   20.9963   15.7306 O   0  0  0  0  0  0  0  0  0  0  0  0
   14.4492   22.9290   16.3355 O   0  0  0  0  0  0  0  0  0  0  0  0
   13.4225   20.6469   15.9529 C   0  0  0  0  0  0  0  0  0  0  0  0
   13.1669   20.3607   14.5834 C   0  0  0  0  0  0  0  0  0  0  0  0
   12.1331   19.5171   14.2579 C   0  0  0  0  0  0  0  0  0  0  0  0
   12.5995   20.1080   16.8804 C   0  0  0  0  0  0  0  0  0  0  0  0
   11.5277   19.2562   16.5320 C   0  0  0  0  0  0  0  0  0  0  0  0
   11.3391   18.9702   15.1972 C   0  0  0  0  0  0  0  0  0  0  0  0
   10.4148   18.0442   14.7479 O   0  0  0  0  0  0  0  0  0  0  0  0
   10.3692   17.8108   13.3400 C   0  0  0  0  0  0  0  0  0  0  0  0
   15.9465   20.1836   18.4168 C   0  0  0  0  0  0  0  0  0  0  0  0
   15.8439   17.6783   18.7189 C   0  0  0  0  0  0  0  0  0  0  0  0
   15.1744   19.0167   19.0944 C   0  0  0  0  0  0  0  0  0  0  0  0
   15.3378   19.2517   20.5714 C   0  0  0  0  0  0  0  0  0  0  0  0
   18.0509   23.1713   19.9868 C   0  0  0  0  0  0  0  0  0  0  0  0
   19.5102   23.0673   20.2501 C   0  0  0  0  0  0  0  0  0  0  0  0
   20.0986   21.7952   20.1659 C   0  0  0  0  0  0  0  0  0  0  0  0
   21.4670   21.6205   20.3962 C   0  0  0  0  0  0  0  0  0  0  0  0
   22.2755   22.7340   20.6881 C   0  0  0  0  0  0  0  0  0  0  0  0
   21.6796   23.9771   20.7757 C   0  0  0  0  0  0  0  0  0  0  0  0
   20.2937   24.1332   20.5939 C   0  0  0  0  0  0  0  0  0  0  0  0
 14  7  1  0  0  0
 14  8  1  0  0  0
 41 40  1  0  0  0
 39 40  1  0  0  0
  7 15  1  0  0  0
  7  6  1  0  0  0
  8 10  1  0  0  0
  8 12  1  0  0  0
 40 38  1  0  0  0
 15 10  1  0  0  0
 10 13  1  0  0  0
  3  2  2  0  0  0
  6  2  1  0  0  0
 12  9  1  0  0  0
 38 26  1  0  0  0
  2  4  1  0  0  0
 13  9  1  0  0  0
 13 16  1  0  0  0
 29 27  2  0  0  0
  9 11  2  0  0  0
 26 27  1  0  0  0
 26 25  1  0  0  0
  4  1  1  0  0  0
 17 16  2  0  0  0
 17 18  1  0  0  0
 22  1  1  0  0  0
 22 25  1  0  0  0
 22 23  1  0  0  0
 33 34  2  0  0  0
 33 30  1  0  0  0
 16 21  1  0  0  0
 27 30  1  0  0  0
 27 28  2  0  0  0
  1 42  1  0  0  0
 34 35  1  0  0  0
 30 31  2  0  0  0
 18 19  2  0  0  0
 21 20  2  0  0  0
 37 36  1  0  0  0
 44 45  2  0  0  0
 44 43  1  0  0  0
 42 43  1  0  0  0
 35 36  1  0  0  0
 35 32  2  0  0  0
 45 46  1  0  0  0
 43 48  2  0  0  0
 19 20  1  0  0  0
 46 47  2  0  0  0
 31 32  1  0  0  0
 48 47  1  0  0  0
  4  5  1  0  0  0
 23 24  1  0  0  0
M  END
> <minimizedAffinity>
-9.58976

$$$$
