2VBA_P4T_A_1405


 17 18  0  0  0  0  0  0  0  0999 V2000
   41.9479   70.3424   64.3579 N   0  0  0  0  0  0  0  0  0  0  0  0
   40.6212   70.5530   64.4380 C   0  0  0  0  0  0  0  0  0  0  0  0
   42.5965   71.3881   63.7751 C   0  0  0  0  0  0  0  0  0  0  0  0
   41.6128   72.4317   63.3691 C   0  0  0  0  0  0  0  0  0  0  0  0
   44.0807   71.4429   63.5752 C   0  0  0  0  0  0  0  0  0  0  0  0
   39.9799   72.0167   63.7661 S   0  0  0  0  0  0  0  0  0  0  0  0
   41.8109   73.7693   62.7047 C   0  0  0  0  0  0  0  0  0  0  0  0
   41.1642   74.0170   61.3811 C   0  0  0  0  0  0  0  0  0  0  0  0
   42.4846   74.6439   63.2514 O   0  0  0  0  0  0  0  0  0  0  0  0
   39.7129   69.6714   64.9659 N   0  0  0  0  0  0  0  0  0  0  0  0
   38.7820   69.9912   64.9475 H   0  0  0  0  0  0  0  0  0  0  0  0
   39.8717   68.3974   65.5267 C   0  0  0  0  0  0  0  0  0  0  0  0
   38.8525   67.9195   66.3689 C   0  0  0  0  0  0  0  0  0  0  0  0
   38.9537   66.6511   66.9738 C   0  0  0  0  0  0  0  0  0  0  0  0
   40.0645   65.8547   66.7084 C   0  0  0  0  0  0  0  0  0  0  0  0
   41.0627   66.3297   65.8578 C   0  0  0  0  0  0  0  0  0  0  0  0
   40.9779   67.5943   65.2586 C   0  0  0  0  0  0  0  0  0  0  0  0
  1  2  2  0  0  0
  1  3  1  0  0  0
  2 10  1  0  0  0
  2  6  1  0  0  0
 10 12  1  0  0  0
  3  4  2  0  0  0
  3  5  1  0  0  0
  4  7  1  0  0  0
  4  6  1  0  0  0
  7  8  1  0  0  0
  7  9  2  0  0  0
 12 13  1  0  0  0
 12 17  2  0  0  0
 13 14  2  0  0  0
 14 15  1  0  0  0
 15 16  2  0  0  0
 16 17  1  0  0  0
 10 11  1  0  0  0
M  END
> <minimizedAffinity>
-7.12897

$$$$
2VBA_P4T_A_1405


 17 18  0  0  0  0  0  0  0  0999 V2000
   44.5468   75.2074   62.7825 N   0  0  0  0  0  0  0  0  0  0  0  0
   43.6851   74.4084   62.1267 C   0  0  0  0  0  0  0  0  0  0  0  0
   45.6472   75.4947   62.0340 C   0  0  0  0  0  0  0  0  0  0  0  0
   45.5658   74.7911   60.7225 C   0  0  0  0  0  0  0  0  0  0  0  0
   46.7633   76.3812   62.4969 C   0  0  0  0  0  0  0  0  0  0  0  0
   44.1215   73.8540   60.5433 S   0  0  0  0  0  0  0  0  0  0  0  0
   46.5072   74.7843   59.5463 C   0  0  0  0  0  0  0  0  0  0  0  0
   46.6071   76.0103   58.6986 C   0  0  0  0  0  0  0  0  0  0  0  0
   47.1889   73.7885   59.2984 O   0  0  0  0  0  0  0  0  0  0  0  0
   42.4976   73.9450   62.6328 N   0  0  0  0  0  0  0  0  0  0  0  0
   41.7542   74.5875   62.5710 H   0  0  0  0  0  0  0  0  0  0  0  0
   42.1523   72.7217   63.2218 C   0  0  0  0  0  0  0  0  0  0  0  0
   43.1930   71.9088   63.7040 C   0  0  0  0  0  0  0  0  0  0  0  0
   42.9162   70.6616   64.2982 C   0  0  0  0  0  0  0  0  0  0  0  0
   41.5936   70.2474   64.4321 C   0  0  0  0  0  0  0  0  0  0  0  0
   40.5664   71.0682   63.9664 C   0  0  0  0  0  0  0  0  0  0  0  0
   40.8303   72.3063   63.3642 C   0  0  0  0  0  0  0  0  0  0  0  0
  1  2  2  0  0  0
  1  3  1  0  0  0
  2 10  1  0  0  0
  2  6  1  0  0  0
 10 12  1  0  0  0
  3  4  2  0  0  0
  3  5  1  0  0  0
  4  7  1  0  0  0
  4  6  1  0  0  0
  7  8  1  0  0  0
  7  9  2  0  0  0
 12 13  1  0  0  0
 12 17  2  0  0  0
 13 14  2  0  0  0
 14 15  1  0  0  0
 15 16  2  0  0  0
 16 17  1  0  0  0
 10 11  1  0  0  0
M  END
> <minimizedAffinity>
-6.62747

$$$$
2VBA_P4T_A_1405


 17 18  0  0  0  0  0  0  0  0999 V2000
   44.2293   74.2152   60.2034 N   0  0  0  0  0  0  0  0  0  0  0  0
   44.0080   74.3549   61.5234 C   0  0  0  0  0  0  0  0  0  0  0  0
   45.3732   74.8394   59.8087 C   0  0  0  0  0  0  0  0  0  0  0  0
   46.0053   75.5224   60.9730 C   0  0  0  0  0  0  0  0  0  0  0  0
   45.8850   74.8316   58.4003 C   0  0  0  0  0  0  0  0  0  0  0  0
   45.1232   75.3082   62.4468 S   0  0  0  0  0  0  0  0  0  0  0  0
   47.2723   76.3314   61.0738 C   0  0  0  0  0  0  0  0  0  0  0  0
   47.3201   77.6758   60.4244 C   0  0  0  0  0  0  0  0  0  0  0  0
   48.2445   75.8939   61.6912 O   0  0  0  0  0  0  0  0  0  0  0  0
   42.9305   73.8442   62.2010 N   0  0  0  0  0  0  0  0  0  0  0  0
   42.1259   74.4105   62.1656 H   0  0  0  0  0  0  0  0  0  0  0  0
   42.7689   72.6616   62.9346 C   0  0  0  0  0  0  0  0  0  0  0  0
   41.4582   72.2344   63.2103 C   0  0  0  0  0  0  0  0  0  0  0  0
   41.2248   71.0596   63.9520 C   0  0  0  0  0  0  0  0  0  0  0  0
   42.3079   70.3020   64.3900 C   0  0  0  0  0  0  0  0  0  0  0  0
   43.6046   70.7241   64.0970 C   0  0  0  0  0  0  0  0  0  0  0  0
   43.8492   71.8968   63.3688 C   0  0  0  0  0  0  0  0  0  0  0  0
  1  2  2  0  0  0
  1  3  1  0  0  0
  2 10  1  0  0  0
  2  6  1  0  0  0
 10 12  1  0  0  0
  3  4  2  0  0  0
  3  5  1  0  0  0
  4  7  1  0  0  0
  4  6  1  0  0  0
  7  8  1  0  0  0
  7  9  2  0  0  0
 12 13  1  0  0  0
 12 17  2  0  0  0
 13 14  2  0  0  0
 14 15  1  0  0  0
 15 16  2  0  0  0
 16 17  1  0  0  0
 10 11  1  0  0  0
M  END
> <minimizedAffinity>
-6.38728

$$$$
2VBA_P4T_A_1405


 17 18  0  0  0  0  0  0  0  0999 V2000
   43.1438   74.3673   60.8103 N   0  0  0  0  0  0  0  0  0  0  0  0
   43.8942   74.0993   61.8947 C   0  0  0  0  0  0  0  0  0  0  0  0
   43.9021   74.7534   59.7474 C   0  0  0  0  0  0  0  0  0  0  0  0
   45.3395   74.7958   60.1394 C   0  0  0  0  0  0  0  0  0  0  0  0
   43.3400   75.0915   58.4000 C   0  0  0  0  0  0  0  0  0  0  0  0
   45.6081   74.3363   61.7864 S   0  0  0  0  0  0  0  0  0  0  0  0
   46.5697   75.1444   59.3425 C   0  0  0  0  0  0  0  0  0  0  0  0
   47.1336   74.1243   58.4081 C   0  0  0  0  0  0  0  0  0  0  0  0
   47.0910   76.2551   59.4533 O   0  0  0  0  0  0  0  0  0  0  0  0
   43.4063   73.7000   63.1127 N   0  0  0  0  0  0  0  0  0  0  0  0
   43.6139   74.3156   63.8523 H   0  0  0  0  0  0  0  0  0  0  0  0
   42.6657   72.5734   63.4934 C   0  0  0  0  0  0  0  0  0  0  0  0
   41.2767   72.5977   63.2776 C   0  0  0  0  0  0  0  0  0  0  0  0
   40.4713   71.5022   63.6468 C   0  0  0  0  0  0  0  0  0  0  0  0
   41.0669   70.3743   64.2051 C   0  0  0  0  0  0  0  0  0  0  0  0
   42.4479   70.3519   64.3996 C   0  0  0  0  0  0  0  0  0  0  0  0
   43.2579   71.4401   64.0459 C   0  0  0  0  0  0  0  0  0  0  0  0
  1  2  2  0  0  0
  1  3  1  0  0  0
  2 10  1  0  0  0
  2  6  1  0  0  0
 10 12  1  0  0  0
  3  4  2  0  0  0
  3  5  1  0  0  0
  4  7  1  0  0  0
  4  6  1  0  0  0
  7  8  1  0  0  0
  7  9  2  0  0  0
 12 13  1  0  0  0
 12 17  2  0  0  0
 13 14  2  0  0  0
 14 15  1  0  0  0
 15 16  2  0  0  0
 16 17  1  0  0  0
 10 11  1  0  0  0
M  END
> <minimizedAffinity>
-6.33268

$$$$
2VBA_P4T_A_1405


 17 18  0  0  0  0  0  0  0  0999 V2000
   42.6548   73.9327   61.9515 N   0  0  0  0  0  0  0  0  0  0  0  0
   43.2731   74.1585   60.7778 C   0  0  0  0  0  0  0  0  0  0  0  0
   41.3000   73.9087   61.8185 C   0  0  0  0  0  0  0  0  0  0  0  0
   40.9250   74.1834   60.4023 C   0  0  0  0  0  0  0  0  0  0  0  0
   40.3543   73.6537   62.9526 C   0  0  0  0  0  0  0  0  0  0  0  0
   42.2946   74.4291   59.3727 S   0  0  0  0  0  0  0  0  0  0  0  0
   39.5762   74.2566   59.7351 C   0  0  0  0  0  0  0  0  0  0  0  0
   39.2659   73.2957   58.6342 C   0  0  0  0  0  0  0  0  0  0  0  0
   38.7431   75.0871   60.1013 O   0  0  0  0  0  0  0  0  0  0  0  0
   44.6309   74.2471   60.6056 N   0  0  0  0  0  0  0  0  0  0  0  0
   45.0527   73.4162   60.2878 H   0  0  0  0  0  0  0  0  0  0  0  0
   45.5255   75.3074   60.8006 C   0  0  0  0  0  0  0  0  0  0  0  0
   45.9162   75.6022   62.1185 C   0  0  0  0  0  0  0  0  0  0  0  0
   46.8050   76.6622   62.3860 C   0  0  0  0  0  0  0  0  0  0  0  0
   47.3210   77.4045   61.3271 C   0  0  0  0  0  0  0  0  0  0  0  0
   46.9414   77.0939   60.0213 C   0  0  0  0  0  0  0  0  0  0  0  0
   46.0496   76.0484   59.7438 C   0  0  0  0  0  0  0  0  0  0  0  0
  1  2  2  0  0  0
  1  3  1  0  0  0
  2 10  1  0  0  0
  2  6  1  0  0  0
 10 12  1  0  0  0
  3  4  2  0  0  0
  3  5  1  0  0  0
  4  7  1  0  0  0
  4  6  1  0  0  0
  7  8  1  0  0  0
  7  9  2  0  0  0
 12 13  1  0  0  0
 12 17  2  0  0  0
 13 14  2  0  0  0
 14 15  1  0  0  0
 15 16  2  0  0  0
 16 17  1  0  0  0
 10 11  1  0  0  0
M  END
> <minimizedAffinity>
-6.30534

$$$$
2VBA_P4T_A_1405


 17 18  0  0  0  0  0  0  0  0999 V2000
   40.3783   70.9602   62.7582 N   0  0  0  0  0  0  0  0  0  0  0  0
   40.8669   70.7249   63.9899 C   0  0  0  0  0  0  0  0  0  0  0  0
   41.2834   71.5935   61.9624 C   0  0  0  0  0  0  0  0  0  0  0  0
   42.5314   71.8647   62.7308 C   0  0  0  0  0  0  0  0  0  0  0  0
   41.0249   71.9608   60.5327 C   0  0  0  0  0  0  0  0  0  0  0  0
   42.4622   71.2915   64.3626 S   0  0  0  0  0  0  0  0  0  0  0  0
   43.8221   72.5222   62.3164 C   0  0  0  0  0  0  0  0  0  0  0  0
   43.9203   74.0118   62.3730 C   0  0  0  0  0  0  0  0  0  0  0  0
   44.7803   71.8402   61.9497 O   0  0  0  0  0  0  0  0  0  0  0  0
   40.1802   70.1133   65.0074 N   0  0  0  0  0  0  0  0  0  0  0  0
   39.5870   70.7148   65.5129 H   0  0  0  0  0  0  0  0  0  0  0  0
   40.1713   68.7864   65.4568 C   0  0  0  0  0  0  0  0  0  0  0  0
   39.0632   68.3551   66.2067 C   0  0  0  0  0  0  0  0  0  0  0  0
   38.9953   67.0364   66.6980 C   0  0  0  0  0  0  0  0  0  0  0  0
   40.0270   66.1466   66.4104 C   0  0  0  0  0  0  0  0  0  0  0  0
   41.1144   66.5781   65.6510 C   0  0  0  0  0  0  0  0  0  0  0  0
   41.1978   67.8907   65.1657 C   0  0  0  0  0  0  0  0  0  0  0  0
  1  2  2  0  0  0
  1  3  1  0  0  0
  2 10  1  0  0  0
  2  6  1  0  0  0
 10 12  1  0  0  0
  3  4  2  0  0  0
  3  5  1  0  0  0
  4  7  1  0  0  0
  4  6  1  0  0  0
  7  8  1  0  0  0
  7  9  2  0  0  0
 12 13  1  0  0  0
 12 17  2  0  0  0
 13 14  2  0  0  0
 14 15  1  0  0  0
 15 16  2  0  0  0
 16 17  1  0  0  0
 10 11  1  0  0  0
M  END
> <minimizedAffinity>
-6.24087

$$$$
2VBA_P4T_A_1405


 17 18  0  0  0  0  0  0  0  0999 V2000
   43.7964   72.1803   62.0978 N   0  0  0  0  0  0  0  0  0  0  0  0
   43.6989   72.9934   61.0298 C   0  0  0  0  0  0  0  0  0  0  0  0
   42.5785   71.8961   62.6359 C   0  0  0  0  0  0  0  0  0  0  0  0
   41.5120   72.6178   61.8852 C   0  0  0  0  0  0  0  0  0  0  0  0
   42.3773   70.9966   63.8175 C   0  0  0  0  0  0  0  0  0  0  0  0
   42.1274   73.5662   60.5745 S   0  0  0  0  0  0  0  0  0  0  0  0
   40.0165   72.6345   62.0667 C   0  0  0  0  0  0  0  0  0  0  0  0
   39.4581   73.0303   63.3945 C   0  0  0  0  0  0  0  0  0  0  0  0
   39.2710   72.3382   61.1317 O   0  0  0  0  0  0  0  0  0  0  0  0
   44.7580   73.4573   60.2923 N   0  0  0  0  0  0  0  0  0  0  0  0
   45.1227   72.8029   59.6535 H   0  0  0  0  0  0  0  0  0  0  0  0
   45.4141   74.6951   60.2844 C   0  0  0  0  0  0  0  0  0  0  0  0
   45.8968   75.1897   61.5086 C   0  0  0  0  0  0  0  0  0  0  0  0
   46.5567   76.4328   61.5732 C   0  0  0  0  0  0  0  0  0  0  0  0
   46.7553   77.1621   60.4039 C   0  0  0  0  0  0  0  0  0  0  0  0
   46.2885   76.6556   59.1910 C   0  0  0  0  0  0  0  0  0  0  0  0
   45.6212   75.4250   59.1161 C   0  0  0  0  0  0  0  0  0  0  0  0
  1  2  2  0  0  0
  1  3  1  0  0  0
  2 10  1  0  0  0
  2  6  1  0  0  0
 10 12  1  0  0  0
  3  4  2  0  0  0
  3  5  1  0  0  0
  4  7  1  0  0  0
  4  6  1  0  0  0
  7  8  1  0  0  0
  7  9  2  0  0  0
 12 13  1  0  0  0
 12 17  2  0  0  0
 13 14  2  0  0  0
 14 15  1  0  0  0
 15 16  2  0  0  0
 16 17  1  0  0  0
 10 11  1  0  0  0
M  END
> <minimizedAffinity>
-6.15388

$$$$
2VBA_P4T_A_1405


 17 18  0  0  0  0  0  0  0  0999 V2000
   40.3632   70.8473   64.0103 N   0  0  0  0  0  0  0  0  0  0  0  0
   41.5026   70.1782   64.2655 C   0  0  0  0  0  0  0  0  0  0  0  0
   40.6022   72.1148   63.5743 C   0  0  0  0  0  0  0  0  0  0  0  0
   42.0696   72.3760   63.5558 C   0  0  0  0  0  0  0  0  0  0  0  0
   39.5244   73.0827   63.1907 C   0  0  0  0  0  0  0  0  0  0  0  0
   43.0081   71.0146   64.0675 S   0  0  0  0  0  0  0  0  0  0  0  0
   42.8489   73.5999   63.1501 C   0  0  0  0  0  0  0  0  0  0  0  0
   44.1524   73.4200   62.4429 C   0  0  0  0  0  0  0  0  0  0  0  0
   42.4104   74.7263   63.3883 O   0  0  0  0  0  0  0  0  0  0  0  0
   41.5738   68.8887   64.7271 N   0  0  0  0  0  0  0  0  0  0  0  0
   42.4281   68.4381   64.5363 H   0  0  0  0  0  0  0  0  0  0  0  0
   40.6493   68.0975   65.4213 C   0  0  0  0  0  0  0  0  0  0  0  0
   41.0560   66.8131   65.8229 C   0  0  0  0  0  0  0  0  0  0  0  0
   40.1726   65.9617   66.5155 C   0  0  0  0  0  0  0  0  0  0  0  0
   38.8931   66.4134   66.8278 C   0  0  0  0  0  0  0  0  0  0  0  0
   38.5039   67.6957   66.4407 C   0  0  0  0  0  0  0  0  0  0  0  0
   39.3707   68.5477   65.7420 C   0  0  0  0  0  0  0  0  0  0  0  0
  1  2  2  0  0  0
  1  3  1  0  0  0
  2 10  1  0  0  0
  2  6  1  0  0  0
 10 12  1  0  0  0
  3  4  2  0  0  0
  3  5  1  0  0  0
  4  7  1  0  0  0
  4  6  1  0  0  0
  7  8  1  0  0  0
  7  9  2  0  0  0
 12 13  1  0  0  0
 12 17  2  0  0  0
 13 14  2  0  0  0
 14 15  1  0  0  0
 15 16  2  0  0  0
 16 17  1  0  0  0
 10 11  1  0  0  0
M  END
> <minimizedAffinity>
-5.95879

$$$$
2VBA_P4T_A_1405


 17 18  0  0  0  0  0  0  0  0999 V2000
   40.5306   70.6672   62.1904 N   0  0  0  0  0  0  0  0  0  0  0  0
   41.2447   71.1126   63.2405 C   0  0  0  0  0  0  0  0  0  0  0  0
   40.4413   71.5989   61.2016 C   0  0  0  0  0  0  0  0  0  0  0  0
   41.1388   72.8485   61.6184 C   0  0  0  0  0  0  0  0  0  0  0  0
   39.7277   71.3726   59.9034 C   0  0  0  0  0  0  0  0  0  0  0  0
   41.8503   72.7362   63.1924 S   0  0  0  0  0  0  0  0  0  0  0  0
   41.3386   74.1551   60.8955 C   0  0  0  0  0  0  0  0  0  0  0  0
   42.5384   74.3160   60.0202 C   0  0  0  0  0  0  0  0  0  0  0  0
   40.5194   75.0672   61.0172 O   0  0  0  0  0  0  0  0  0  0  0  0
   41.4926   70.3995   64.3854 N   0  0  0  0  0  0  0  0  0  0  0  0
   42.2899   70.6960   64.8811 H   0  0  0  0  0  0  0  0  0  0  0  0
   40.8152   69.3250   64.9764 C   0  0  0  0  0  0  0  0  0  0  0  0
   41.4957   68.0996   65.0838 C   0  0  0  0  0  0  0  0  0  0  0  0
   40.8693   66.9759   65.6581 C   0  0  0  0  0  0  0  0  0  0  0  0
   39.5717   67.0940   66.1489 C   0  0  0  0  0  0  0  0  0  0  0  0
   38.9102   68.3183   66.0540 C   0  0  0  0  0  0  0  0  0  0  0  0
   39.5196   69.4403   65.4750 C   0  0  0  0  0  0  0  0  0  0  0  0
  1  2  2  0  0  0
  1  3  1  0  0  0
  2 10  1  0  0  0
  2  6  1  0  0  0
 10 12  1  0  0  0
  3  4  2  0  0  0
  3  5  1  0  0  0
  4  7  1  0  0  0
  4  6  1  0  0  0
  7  8  1  0  0  0
  7  9  2  0  0  0
 12 13  1  0  0  0
 12 17  2  0  0  0
 13 14  2  0  0  0
 14 15  1  0  0  0
 15 16  2  0  0  0
 16 17  1  0  0  0
 10 11  1  0  0  0
M  END
> <minimizedAffinity>
-5.80454

$$$$
2VBA_P4T_A_1405


 17 18  0  0  0  0  0  0  0  0999 V2000
   41.0090   67.6898   65.2165 N   0  0  0  0  0  0  0  0  0  0  0  0
   40.1035   68.6848   65.1854 C   0  0  0  0  0  0  0  0  0  0  0  0
   40.6224   66.6731   66.0353 C   0  0  0  0  0  0  0  0  0  0  0  0
   39.3193   67.0071   66.6772 C   0  0  0  0  0  0  0  0  0  0  0  0
   41.4202   65.4223   66.2469 C   0  0  0  0  0  0  0  0  0  0  0  0
   38.6957   68.5457   66.1874 S   0  0  0  0  0  0  0  0  0  0  0  0
   38.4669   66.2271   67.6441 C   0  0  0  0  0  0  0  0  0  0  0  0
   39.0725   65.7744   68.9325 C   0  0  0  0  0  0  0  0  0  0  0  0
   37.2896   65.9793   67.3787 O   0  0  0  0  0  0  0  0  0  0  0  0
   40.2267   69.8413   64.4585 N   0  0  0  0  0  0  0  0  0  0  0  0
   39.3713   70.2137   64.1442 H   0  0  0  0  0  0  0  0  0  0  0  0
   41.3511   70.5878   64.0829 C   0  0  0  0  0  0  0  0  0  0  0  0
   41.1419   71.7513   63.3219 C   0  0  0  0  0  0  0  0  0  0  0  0
   42.2295   72.5424   62.9020 C   0  0  0  0  0  0  0  0  0  0  0  0
   43.5216   72.1785   63.2719 C   0  0  0  0  0  0  0  0  0  0  0  0
   43.7185   71.0321   64.0418 C   0  0  0  0  0  0  0  0  0  0  0  0
   42.6450   70.2315   64.4564 C   0  0  0  0  0  0  0  0  0  0  0  0
  1  2  2  0  0  0
  1  3  1  0  0  0
  2 10  1  0  0  0
  2  6  1  0  0  0
 10 12  1  0  0  0
  3  4  2  0  0  0
  3  5  1  0  0  0
  4  7  1  0  0  0
  4  6  1  0  0  0
  7  8  1  0  0  0
  7  9  2  0  0  0
 12 13  1  0  0  0
 12 17  2  0  0  0
 13 14  2  0  0  0
 14 15  1  0  0  0
 15 16  2  0  0  0
 16 17  1  0  0  0
 10 11  1  0  0  0
M  END
> <minimizedAffinity>
-5.68962

$$$$
