3FED_BIX_A_1
  RCSB PDB12061708353D
Coordinates from PDB:3FED:A:1 Model:1 without hydrogens
 20 19  0  0  0  0            999 V2000
   22.7110   44.6760   15.8310   C 0  0  0  0  0  0  0  0  0  0  0  0
   21.0930   45.2890   17.7790   C 0  0  0  0  0  0  0  0  0  0  0  0
   22.4110   45.9540   15.1150   C 0  0  0  0  0  0  0  0  0  0  0  0
   21.5760   44.2040   16.7940   C 0  0  0  0  0  0  0  0  0  0  0  0
   18.5420   43.8280   18.1310   C 0  0  0  0  0  0  0  0  0  0  0  0
   22.8480   46.9960   15.6410   O 0  0  0  0  0  0  0  0  0  0  0  0
   14.8810   40.5640   16.7220   O 0  0  0  0  0  0  0  0  0  0  0  0
   15.6400   41.2130   16.0280   C 0  0  0  0  0  0  0  0  0  0  0  0
   15.4790   41.3710   14.8060   O 0  0  0  0  0  0  0  0  0  0  0  0
   16.8510   41.8730   16.6490   C 0  0  0  0  0  0  0  0  0  0  0  0
   16.8120   41.9870   18.1830   C 0  0  0  0  0  0  0  0  0  0  0  0
   18.1300   42.5160   18.7980   C 0  0  0  0  0  0  0  0  0  0  0  0
   19.1500   41.4400   18.5880   C 0  0  0  0  0  0  0  0  0  0  0  0
   19.1900   40.4590   19.3500   O 0  0  0  0  0  0  0  0  0  0  0  0
   19.9940   41.5290   17.6280   O 0  0  0  0  0  0  0  0  0  0  0  0
   19.8950   44.7490   19.0050   P 0  0  0  0  0  0  0  0  0  0  0  0
   20.5680   43.8330   19.9820   O 0  0  0  0  0  0  0  0  0  0  0  0
   19.2410   45.8780   19.6660   O 0  0  0  0  0  0  0  0  0  0  0  0
   23.9310   44.7870   16.5960   N 0  0  0  0  0  0  0  0  0  0  0  0
   21.7070   45.9640   14.0650   O 0  0  0  0  0  0  0  0  0  0  0  0
  1  3  1  0  0  0  0
  1  4  1  0  0  0  0
  1 19  1  0  0  0  0
  2  4  1  0  0  0  0
  2 16  1  0  0  0  0
  3  6  1  0  0  0  0
  3 20  2  0  0  0  0
  5 12  1  0  0  0  0
  5 16  1  0  0  0  0
  7  8  1  0  0  0  0
  8  9  2  0  0  0  0
  8 10  1  0  0  0  0
 10 11  1  0  0  0  0
 11 12  1  0  0  0  0
 12 13  1  0  0  0  0
 13 14  1  0  0  0  0
 13 15  2  0  0  0  0
 16 17  1  0  0  0  0
 16 18  2  0  0  0  0
A    1
C2
A    2
C5
A    3
C3
A    4
C4
A    5
C1
A    6
O1
A    7
OE2
A    8
CD
A    9
OE1
A   10
CG
A   11
CB
A   12
CA
A   13
C
A   14
OC
A   15
O
A   16
P6
A   17
O61
A   18
O6
A   19
N
A   20
O3
M  END
>  <InstanceId>
3FED_BIX_A_1

>  <ChemCompId>
BIX

>  <PdbId>
3FED

>  <ChainId>
A

>  <ResidueNumber>
1

>  <InsertionCode>


>  <Model>
1

>  <AltIds>


>  <MissingHeavyAtoms>
0

>  <ObservedFormula>
C10 N O8 P

>  <Name>
(2S)-2-{[(S)-[(3S)-3-amino-3-carboxypropyl](hydroxy)phosphoryl]methyl}pentanedioic acid

>  <SystematicName>
(2S)-2-[[[(3S)-3-amino-4-hydroxy-4-oxo-butyl]-hydroxy-phosphoryl]methyl]pentanedioic acid

>  <Synonyms>


>  <Type>
NON-POLYMER

>  <Formula>
C10 H18 N O8 P

>  <MolecularWeight>
311.226

>  <ModifiedDate>
2011-06-04

>  <Parent>


>  <OneLetterCode>


>  <SubcomponentList>


>  <AmbiguousFlag>
N

>  <InChI>
InChI=1S/C10H18NO8P/c11-7(10(16)17)3-4-20(18,19)5-6(9(14)15)1-2-8(12)13/h6-7H,1-5,11H2,(H,12,13)(H,14,15)(H,16,17)(H,18,19)/t6-,7+/m1/s1

>  <InChIKey>
YLHAQDFYEKJARV-RQJHMYQMSA-N

>  <SMILES>
C(CC(=O)O)[C@H](C[P@](=O)(CC[C@@H](C(=O)O)N)O)C(=O)O

$$$$
