3FED_BIX_A_1


 26 25  0  0  0  0  0  0  0  0999 V2000
   19.6550   44.4007   19.1409 P   0  0  0  0  0  0  0  0  0  0  0  0
   19.1626   45.2851   20.2463 O   0  0  0  0  0  0  0  0  0  0  0  0
   20.3960   43.2452   19.6460 O   0  0  0  0  0  0  0  0  0  0  0  0
   18.6786   46.0359   19.8683 H   0  0  0  0  0  0  0  0  0  0  0  0
   18.2654   43.9114   18.1116 C   0  0  0  0  0  0  0  0  0  0  0  0
   18.3971   42.5382   17.4204 C   0  0  0  0  0  0  0  0  0  0  0  0
   17.5687   41.4009   18.0977 C   0  0  0  0  0  0  0  0  0  0  0  0
   16.4333   42.0040   18.7559 N   0  0  0  0  0  0  0  0  0  0  0  0
   16.7603   42.6434   19.4801 H   0  0  0  0  0  0  0  0  0  0  0  0
   15.8593   41.2751   19.1797 H   0  0  0  0  0  0  0  0  0  0  0  0
   18.3546   40.5594   19.0518 C   0  0  0  0  0  0  0  0  0  0  0  0
   19.5939   40.5923   18.9236 O   0  0  0  0  0  0  0  0  0  0  0  0
   17.7764   39.8211   19.8997 O   0  0  0  0  0  0  0  0  0  0  0  0
   19.9839   41.1536   18.2826 H   0  0  0  0  0  0  0  0  0  0  0  0
   20.8561   45.3446   18.0877 C   0  0  0  0  0  0  0  0  0  0  0  0
   21.7132   46.3558   18.8485 C   0  0  0  0  0  0  0  0  0  0  0  0
   21.8921   47.6266   18.0769 C   0  0  0  0  0  0  0  0  0  0  0  0
   21.2779   47.8027   17.0109 O   0  0  0  0  0  0  0  0  0  0  0  0
   22.6869   48.5357   18.5055 O   0  0  0  0  0  0  0  0  0  0  0  0
   20.6950   47.1422   16.6915 H   0  0  0  0  0  0  0  0  0  0  0  0
   23.1346   45.7909   19.0847 C   0  0  0  0  0  0  0  0  0  0  0  0
   23.5978   44.8131   17.9907 C   0  0  0  0  0  0  0  0  0  0  0  0
   24.9880   46.2572   16.7332 O   0  0  0  0  0  0  0  0  0  0  0  0
   24.8935   45.1891   17.3068 C   0  0  0  0  0  0  0  0  0  0  0  0
   25.8204   44.3636   17.3667 O   0  0  0  0  0  0  0  0  0  0  0  0
   24.2594   46.8461   16.7163 H   0  0  0  0  0  0  0  0  0  0  0  0
  7 11  1  0  0  0
  7  6  1  0  0  0
  7  8  1  0  0  0
  5  6  1  0  0  0
  5  1  1  0  0  0
 11 12  1  0  0  0
 11 13  2  0  0  0
 15 16  1  0  0  0
 15  1  1  0  0  0
 23 24  1  0  0  0
 24 25  2  0  0  0
 24 22  1  0  0  0
 22 21  1  0  0  0
 21 16  1  0  0  0
 16 17  1  0  0  0
 17 18  1  0  0  0
 17 19  2  0  0  0
  1  2  1  0  0  0
  1  3  2  0  0  0
 12 14  1  0  0  0
 23 26  1  0  0  0
 18 20  1  0  0  0
  2  4  1  0  0  0
  8  9  1  0  0  0
  8 10  1  0  0  0
M  END
> <minimizedAffinity>
-8.85829

$$$$
3FED_BIX_A_1


 26 25  0  0  0  0  0  0  0  0999 V2000
   19.7202   44.4570   19.0615 P   0  0  0  0  0  0  0  0  0  0  0  0
   19.3671   45.5092   20.0689 O   0  0  0  0  0  0  0  0  0  0  0  0
   20.4902   43.3627   19.6520 O   0  0  0  0  0  0  0  0  0  0  0  0
   18.8588   46.2132   19.6365 H   0  0  0  0  0  0  0  0  0  0  0  0
   18.2183   43.8711   18.2673 C   0  0  0  0  0  0  0  0  0  0  0  0
   18.3349   42.5190   17.5331 C   0  0  0  0  0  0  0  0  0  0  0  0
   17.5242   41.3608   18.1962 C   0  0  0  0  0  0  0  0  0  0  0  0
   16.3287   41.9256   18.7775 N   0  0  0  0  0  0  0  0  0  0  0  0
   16.5868   42.5972   19.5005 H   0  0  0  0  0  0  0  0  0  0  0  0
   15.7667   41.1811   19.1900 H   0  0  0  0  0  0  0  0  0  0  0  0
   18.2953   40.5806   19.2124 C   0  0  0  0  0  0  0  0  0  0  0  0
   19.5367   40.6763   19.1546 O   0  0  0  0  0  0  0  0  0  0  0  0
   17.7074   39.8295   20.0421 O   0  0  0  0  0  0  0  0  0  0  0  0
   19.9339   41.2448   18.5246 H   0  0  0  0  0  0  0  0  0  0  0  0
   20.8170   45.1960   17.7601 C   0  0  0  0  0  0  0  0  0  0  0  0
   22.1214   45.7918   18.2889 C   0  0  0  0  0  0  0  0  0  0  0  0
   21.9995   47.2625   18.5428 C   0  0  0  0  0  0  0  0  0  0  0  0
   21.7956   47.6835   19.6942 O   0  0  0  0  0  0  0  0  0  0  0  0
   22.0944   48.0950   17.5733 O   0  0  0  0  0  0  0  0  0  0  0  0
   21.7251   47.0805   20.4079 H   0  0  0  0  0  0  0  0  0  0  0  0
   23.2534   45.6263   17.2466 C   0  0  0  0  0  0  0  0  0  0  0  0
   22.7824   45.0053   15.9199 C   0  0  0  0  0  0  0  0  0  0  0  0
   22.7755   47.1764   14.9787 O   0  0  0  0  0  0  0  0  0  0  0  0
   22.5996   45.9887   14.7854 C   0  0  0  0  0  0  0  0  0  0  0  0
   22.2683   45.5196   13.6834 O   0  0  0  0  0  0  0  0  0  0  0  0
   23.0249   47.4808   15.8290 H   0  0  0  0  0  0  0  0  0  0  0  0
  7 11  1  0  0  0
  7  6  1  0  0  0
  7  8  1  0  0  0
  5  6  1  0  0  0
  5  1  1  0  0  0
 11 12  1  0  0  0
 11 13  2  0  0  0
 15 16  1  0  0  0
 15  1  1  0  0  0
 23 24  1  0  0  0
 24 25  2  0  0  0
 24 22  1  0  0  0
 22 21  1  0  0  0
 21 16  1  0  0  0
 16 17  1  0  0  0
 17 18  1  0  0  0
 17 19  2  0  0  0
  1  2  1  0  0  0
  1  3  2  0  0  0
 12 14  1  0  0  0
 23 26  1  0  0  0
 18 20  1  0  0  0
  2  4  1  0  0  0
  8  9  1  0  0  0
  8 10  1  0  0  0
M  END
> <minimizedAffinity>
-8.80187

$$$$
3FED_BIX_A_1


 26 25  0  0  0  0  0  0  0  0999 V2000
   19.0704   41.8831   18.2995 P   0  0  0  0  0  0  0  0  0  0  0  0
   18.1291   42.4396   19.3246 O   0  0  0  0  0  0  0  0  0  0  0  0
   20.0525   40.9726   18.8873 O   0  0  0  0  0  0  0  0  0  0  0  0
   17.4972   43.0360   18.8934 H   0  0  0  0  0  0  0  0  0  0  0  0
   18.1219   41.0965   16.9912 C   0  0  0  0  0  0  0  0  0  0  0  0
   17.5956   42.0388   15.8886 C   0  0  0  0  0  0  0  0  0  0  0  0
   16.2924   41.5377   15.1894 C   0  0  0  0  0  0  0  0  0  0  0  0
   15.8546   42.5617   14.2698 N   0  0  0  0  0  0  0  0  0  0  0  0
   15.6388   43.4137   14.7873 H   0  0  0  0  0  0  0  0  0  0  0  0
   15.0204   42.2424   13.7774 H   0  0  0  0  0  0  0  0  0  0  0  0
   15.1966   41.1658   16.1364 C   0  0  0  0  0  0  0  0  0  0  0  0
   14.9216   42.0036   17.0172 O   0  0  0  0  0  0  0  0  0  0  0  0
   14.6280   40.0389   16.0663 O   0  0  0  0  0  0  0  0  0  0  0  0
   15.3662   42.8282   17.0346 H   0  0  0  0  0  0  0  0  0  0  0  0
   20.0547   43.2678   17.5534 C   0  0  0  0  0  0  0  0  0  0  0  0
   20.7656   44.1632   18.5676 C   0  0  0  0  0  0  0  0  0  0  0  0
   19.8953   45.2957   19.0173 C   0  0  0  0  0  0  0  0  0  0  0  0
   19.8159   46.3320   18.3359 O   0  0  0  0  0  0  0  0  0  0  0  0
   19.2354   45.2074   20.1121 O   0  0  0  0  0  0  0  0  0  0  0  0
   20.2957   46.4035   17.5342 H   0  0  0  0  0  0  0  0  0  0  0  0
   22.0206   44.8092   17.9329 C   0  0  0  0  0  0  0  0  0  0  0  0
   21.9610   44.8904   16.3974 C   0  0  0  0  0  0  0  0  0  0  0  0
   21.2604   47.0249   15.6540 O   0  0  0  0  0  0  0  0  0  0  0  0
   22.1982   46.2691   15.8225 C   0  0  0  0  0  0  0  0  0  0  0  0
   23.3717   46.5667   15.5426 O   0  0  0  0  0  0  0  0  0  0  0  0
   20.3930   46.7532   15.8813 H   0  0  0  0  0  0  0  0  0  0  0  0
  7 11  1  0  0  0
  7  6  1  0  0  0
  7  8  1  0  0  0
  5  6  1  0  0  0
  5  1  1  0  0  0
 11 12  1  0  0  0
 11 13  2  0  0  0
 15 16  1  0  0  0
 15  1  1  0  0  0
 23 24  1  0  0  0
 24 25  2  0  0  0
 24 22  1  0  0  0
 22 21  1  0  0  0
 21 16  1  0  0  0
 16 17  1  0  0  0
 17 18  1  0  0  0
 17 19  2  0  0  0
  1  2  1  0  0  0
  1  3  2  0  0  0
 12 14  1  0  0  0
 23 26  1  0  0  0
 18 20  1  0  0  0
  2  4  1  0  0  0
  8  9  1  0  0  0
  8 10  1  0  0  0
M  END
> <minimizedAffinity>
-8.80063

$$$$
3FED_BIX_A_1


 26 25  0  0  0  0  0  0  0  0999 V2000
   20.2014   44.2712   18.5648 P   0  0  0  0  0  0  0  0  0  0  0  0
   20.5602   43.6048   19.8584 O   0  0  0  0  0  0  0  0  0  0  0  0
   19.4013   45.4786   18.7682 O   0  0  0  0  0  0  0  0  0  0  0  0
   21.0886   42.8116   19.6779 H   0  0  0  0  0  0  0  0  0  0  0  0
   21.7032   44.6076   17.6366 C   0  0  0  0  0  0  0  0  0  0  0  0
   22.7414   45.5009   18.3470 C   0  0  0  0  0  0  0  0  0  0  0  0
   22.5231   47.0315   18.1276 C   0  0  0  0  0  0  0  0  0  0  0  0
   21.8437   47.5586   19.2880 N   0  0  0  0  0  0  0  0  0  0  0  0
   20.9322   47.1103   19.3811 H   0  0  0  0  0  0  0  0  0  0  0  0
   21.7181   48.5651   19.1805 H   0  0  0  0  0  0  0  0  0  0  0  0
   21.7799   47.3679   16.8744 C   0  0  0  0  0  0  0  0  0  0  0  0
   20.5720   47.6448   17.0076 O   0  0  0  0  0  0  0  0  0  0  0  0
   22.3472   47.3175   15.7458 O   0  0  0  0  0  0  0  0  0  0  0  0
   20.1891   47.6719   17.8624 H   0  0  0  0  0  0  0  0  0  0  0  0
   19.1389   43.1296   17.5595 C   0  0  0  0  0  0  0  0  0  0  0  0
   18.0996   42.3510   18.3656 C   0  0  0  0  0  0  0  0  0  0  0  0
   18.6020   40.9971   18.7617 C   0  0  0  0  0  0  0  0  0  0  0  0
   17.8139   40.1407   19.1976 O   0  0  0  0  0  0  0  0  0  0  0  0
   19.8484   40.7167   18.6632 O   0  0  0  0  0  0  0  0  0  0  0  0
   16.9011   40.3388   19.2724 H   0  0  0  0  0  0  0  0  0  0  0  0
   16.8281   42.1083   17.5175 C   0  0  0  0  0  0  0  0  0  0  0  0
   17.1087   41.9824   16.0098 C   0  0  0  0  0  0  0  0  0  0  0  0
   14.8750   41.4320   15.4558 O   0  0  0  0  0  0  0  0  0  0  0  0
   15.8815   42.0299   15.1269 C   0  0  0  0  0  0  0  0  0  0  0  0
   15.9676   42.6950   14.0808 O   0  0  0  0  0  0  0  0  0  0  0  0
   14.8602   40.9439   16.2555 H   0  0  0  0  0  0  0  0  0  0  0  0
  7 11  1  0  0  0
  7  6  1  0  0  0
  7  8  1  0  0  0
  5  6  1  0  0  0
  5  1  1  0  0  0
 11 12  1  0  0  0
 11 13  2  0  0  0
 15 16  1  0  0  0
 15  1  1  0  0  0
 23 24  1  0  0  0
 24 25  2  0  0  0
 24 22  1  0  0  0
 22 21  1  0  0  0
 21 16  1  0  0  0
 16 17  1  0  0  0
 17 18  1  0  0  0
 17 19  2  0  0  0
  1  2  1  0  0  0
  1  3  2  0  0  0
 12 14  1  0  0  0
 23 26  1  0  0  0
 18 20  1  0  0  0
  2  4  1  0  0  0
  8  9  1  0  0  0
  8 10  1  0  0  0
M  END
> <minimizedAffinity>
-8.71758

$$$$
3FED_BIX_A_1


 26 25  0  0  0  0  0  0  0  0999 V2000
   24.3246   44.8826   17.0894 P   0  0  0  0  0  0  0  0  0  0  0  0
   24.8605   46.2818   17.0511 O   0  0  0  0  0  0  0  0  0  0  0  0
   25.3409   43.9123   17.4952 O   0  0  0  0  0  0  0  0  0  0  0  0
   24.1563   46.8905   16.7782 H   0  0  0  0  0  0  0  0  0  0  0  0
   22.8806   44.8316   18.1582 C   0  0  0  0  0  0  0  0  0  0  0  0
   21.5487   44.4766   17.4649 C   0  0  0  0  0  0  0  0  0  0  0  0
   20.3056   45.2151   18.0547 C   0  0  0  0  0  0  0  0  0  0  0  0
   20.6401   46.6130   18.1967 N   0  0  0  0  0  0  0  0  0  0  0  0
   21.4171   46.7120   18.8499 H   0  0  0  0  0  0  0  0  0  0  0  0
   19.8305   47.1219   18.5517 H   0  0  0  0  0  0  0  0  0  0  0  0
   19.8171   44.6483   19.3493 C   0  0  0  0  0  0  0  0  0  0  0  0
   19.3348   45.4626   20.1603 O   0  0  0  0  0  0  0  0  0  0  0  0
   19.9425   43.4180   19.6117 O   0  0  0  0  0  0  0  0  0  0  0  0
   19.2589   46.3669   19.9271 H   0  0  0  0  0  0  0  0  0  0  0  0
   23.8033   44.3774   15.3818 C   0  0  0  0  0  0  0  0  0  0  0  0
   23.6450   45.5340   14.3953 C   0  0  0  0  0  0  0  0  0  0  0  0
   22.4082   46.3331   14.6675 C   0  0  0  0  0  0  0  0  0  0  0  0
   21.3679   46.1140   14.0238 O   0  0  0  0  0  0  0  0  0  0  0  0
   22.4178   47.2541   15.5583 O   0  0  0  0  0  0  0  0  0  0  0  0
   21.3537   45.4421   13.3709 H   0  0  0  0  0  0  0  0  0  0  0  0
   23.5025   44.9973   12.9507 C   0  0  0  0  0  0  0  0  0  0  0  0
   24.1944   45.8783   11.8958 C   0  0  0  0  0  0  0  0  0  0  0  0
   22.0813   46.6168   11.1283 O   0  0  0  0  0  0  0  0  0  0  0  0
   23.2780   46.8310   11.1608 C   0  0  0  0  0  0  0  0  0  0  0  0
   23.8099   47.8104   10.6112 O   0  0  0  0  0  0  0  0  0  0  0  0
   21.7284   45.8632   11.5591 H   0  0  0  0  0  0  0  0  0  0  0  0
  7 11  1  0  0  0
  7  6  1  0  0  0
  7  8  1  0  0  0
  5  6  1  0  0  0
  5  1  1  0  0  0
 11 12  1  0  0  0
 11 13  2  0  0  0
 15 16  1  0  0  0
 15  1  1  0  0  0
 23 24  1  0  0  0
 24 25  2  0  0  0
 24 22  1  0  0  0
 22 21  1  0  0  0
 21 16  1  0  0  0
 16 17  1  0  0  0
 17 18  1  0  0  0
 17 19  2  0  0  0
  1  2  1  0  0  0
  1  3  2  0  0  0
 12 14  1  0  0  0
 23 26  1  0  0  0
 18 20  1  0  0  0
  2  4  1  0  0  0
  8  9  1  0  0  0
  8 10  1  0  0  0
M  END
> <minimizedAffinity>
-8.34262

$$$$
3FED_BIX_A_1


 26 25  0  0  0  0  0  0  0  0999 V2000
   22.3057   46.0674   16.3467 P   0  0  0  0  0  0  0  0  0  0  0  0
   21.3029   45.0867   15.8183 O   0  0  0  0  0  0  0  0  0  0  0  0
   22.3633   47.2870   15.5414 O   0  0  0  0  0  0  0  0  0  0  0  0
   21.2974   44.2957   16.3798 H   0  0  0  0  0  0  0  0  0  0  0  0
   21.9395   46.4164   18.0712 C   0  0  0  0  0  0  0  0  0  0  0  0
   21.4757   45.2093   18.9130 C   0  0  0  0  0  0  0  0  0  0  0  0
   19.9384   44.9418   18.8520 C   0  0  0  0  0  0  0  0  0  0  0  0
   19.3791   45.2424   20.1492 N   0  0  0  0  0  0  0  0  0  0  0  0
   19.7893   44.6230   20.8482 H   0  0  0  0  0  0  0  0  0  0  0  0
   18.3687   45.1046   20.1240 H   0  0  0  0  0  0  0  0  0  0  0  0
   19.5772   43.5559   18.4223 C   0  0  0  0  0  0  0  0  0  0  0  0
   19.1533   43.4333   17.2567 O   0  0  0  0  0  0  0  0  0  0  0  0
   19.6531   42.5829   19.2259 O   0  0  0  0  0  0  0  0  0  0  0  0
   19.1128   44.1798   16.6919 H   0  0  0  0  0  0  0  0  0  0  0  0
   24.0026   45.3231   16.2506 C   0  0  0  0  0  0  0  0  0  0  0  0
   24.0951   44.0543   15.4034 C   0  0  0  0  0  0  0  0  0  0  0  0
   24.8543   42.9706   16.1045 C   0  0  0  0  0  0  0  0  0  0  0  0
   25.8527   42.4596   15.5690 O   0  0  0  0  0  0  0  0  0  0  0  0
   24.4734   42.5564   17.2557 O   0  0  0  0  0  0  0  0  0  0  0  0
   26.1369   42.7574   14.7273 H   0  0  0  0  0  0  0  0  0  0  0  0
   24.8612   44.3364   14.0886 C   0  0  0  0  0  0  0  0  0  0  0  0
   23.9573   44.8218   12.9419 C   0  0  0  0  0  0  0  0  0  0  0  0
   23.6889   47.1719   13.0132 O   0  0  0  0  0  0  0  0  0  0  0  0
   24.2322   46.2312   12.4665 C   0  0  0  0  0  0  0  0  0  0  0  0
   25.0201   46.3591   11.5142 O   0  0  0  0  0  0  0  0  0  0  0  0
   23.1020   47.0230   13.7283 H   0  0  0  0  0  0  0  0  0  0  0  0
  7 11  1  0  0  0
  7  6  1  0  0  0
  7  8  1  0  0  0
  5  6  1  0  0  0
  5  1  1  0  0  0
 11 12  1  0  0  0
 11 13  2  0  0  0
 15 16  1  0  0  0
 15  1  1  0  0  0
 23 24  1  0  0  0
 24 25  2  0  0  0
 24 22  1  0  0  0
 22 21  1  0  0  0
 21 16  1  0  0  0
 16 17  1  0  0  0
 17 18  1  0  0  0
 17 19  2  0  0  0
  1  2  1  0  0  0
  1  3  2  0  0  0
 12 14  1  0  0  0
 23 26  1  0  0  0
 18 20  1  0  0  0
  2  4  1  0  0  0
  8  9  1  0  0  0
  8 10  1  0  0  0
M  END
> <minimizedAffinity>
-8.16897

$$$$
3FED_BIX_A_1


 26 25  0  0  0  0  0  0  0  0999 V2000
   20.3697   44.8101   19.0030 P   0  0  0  0  0  0  0  0  0  0  0  0
   21.5302   44.3507   19.8330 O   0  0  0  0  0  0  0  0  0  0  0  0
   19.2615   45.2971   19.8238 O   0  0  0  0  0  0  0  0  0  0  0  0
   22.2399   44.0371   19.2510 H   0  0  0  0  0  0  0  0  0  0  0  0
   20.9350   46.0501   17.8313 C   0  0  0  0  0  0  0  0  0  0  0  0
   21.7267   45.5132   16.6207 C   0  0  0  0  0  0  0  0  0  0  0  0
   23.0406   46.3006   16.3175 C   0  0  0  0  0  0  0  0  0  0  0  0
   22.8989   46.9290   15.0248 N   0  0  0  0  0  0  0  0  0  0  0  0
   22.7773   46.2119   14.3097 H   0  0  0  0  0  0  0  0  0  0  0  0
   23.7349   47.4759   14.8192 H   0  0  0  0  0  0  0  0  0  0  0  0
   24.2791   45.4644   16.3723 C   0  0  0  0  0  0  0  0  0  0  0  0
   25.3039   46.0252   16.8066 O   0  0  0  0  0  0  0  0  0  0  0  0
   24.2816   44.2734   15.9483 O   0  0  0  0  0  0  0  0  0  0  0  0
   25.2600   46.9100   17.1120 H   0  0  0  0  0  0  0  0  0  0  0  0
   19.6908   43.3721   18.0470 C   0  0  0  0  0  0  0  0  0  0  0  0
   18.5028   42.6721   18.7063 C   0  0  0  0  0  0  0  0  0  0  0  0
   18.7000   41.1895   18.7790 C   0  0  0  0  0  0  0  0  0  0  0  0
   17.7558   40.4481   19.1006 O   0  0  0  0  0  0  0  0  0  0  0  0
   19.8456   40.6772   18.5200 O   0  0  0  0  0  0  0  0  0  0  0  0
   16.9154   40.8159   19.2914 H   0  0  0  0  0  0  0  0  0  0  0  0
   17.2150   42.8959   17.8776 C   0  0  0  0  0  0  0  0  0  0  0  0
   17.3249   42.4023   16.4244 C   0  0  0  0  0  0  0  0  0  0  0  0
   15.5705   41.8146   14.9491 O   0  0  0  0  0  0  0  0  0  0  0  0
   16.1818   41.5273   15.9604 C   0  0  0  0  0  0  0  0  0  0  0  0
   15.9175   40.5325   16.6566 O   0  0  0  0  0  0  0  0  0  0  0  0
   15.8087   42.5763   14.4582 H   0  0  0  0  0  0  0  0  0  0  0  0
  7 11  1  0  0  0
  7  6  1  0  0  0
  7  8  1  0  0  0
  5  6  1  0  0  0
  5  1  1  0  0  0
 11 12  1  0  0  0
 11 13  2  0  0  0
 15 16  1  0  0  0
 15  1  1  0  0  0
 23 24  1  0  0  0
 24 25  2  0  0  0
 24 22  1  0  0  0
 22 21  1  0  0  0
 21 16  1  0  0  0
 16 17  1  0  0  0
 17 18  1  0  0  0
 17 19  2  0  0  0
  1  2  1  0  0  0
  1  3  2  0  0  0
 12 14  1  0  0  0
 23 26  1  0  0  0
 18 20  1  0  0  0
  2  4  1  0  0  0
  8  9  1  0  0  0
  8 10  1  0  0  0
M  END
> <minimizedAffinity>
-8.09325

$$$$
3FED_BIX_A_1


 26 25  0  0  0  0  0  0  0  0999 V2000
   22.3470   45.9075   15.4166 P   0  0  0  0  0  0  0  0  0  0  0  0
   21.2592   46.9385   15.4086 O   0  0  0  0  0  0  0  0  0  0  0  0
   23.6466   46.4778   15.7704 O   0  0  0  0  0  0  0  0  0  0  0  0
   20.4178   46.5190   15.1699 H   0  0  0  0  0  0  0  0  0  0  0  0
   21.8802   44.5639   16.5150 C   0  0  0  0  0  0  0  0  0  0  0  0
   22.0175   44.8563   18.0238 C   0  0  0  0  0  0  0  0  0  0  0  0
   20.7975   45.6105   18.6412 C   0  0  0  0  0  0  0  0  0  0  0  0
   21.2989   46.7461   19.3794 N   0  0  0  0  0  0  0  0  0  0  0  0
   21.8979   46.4207   20.1382 H   0  0  0  0  0  0  0  0  0  0  0  0
   20.5158   47.2728   19.7664 H   0  0  0  0  0  0  0  0  0  0  0  0
   19.9249   44.7555   19.5036 C   0  0  0  0  0  0  0  0  0  0  0  0
   19.1986   45.3559   20.3194 O   0  0  0  0  0  0  0  0  0  0  0  0
   19.9728   43.4942   19.4331 O   0  0  0  0  0  0  0  0  0  0  0  0
   19.1918   46.2926   20.3397 H   0  0  0  0  0  0  0  0  0  0  0  0
   22.5518   45.2173   13.7065 C   0  0  0  0  0  0  0  0  0  0  0  0
   23.8529   45.6150   13.0101 C   0  0  0  0  0  0  0  0  0  0  0  0
   23.6101   46.1160   11.6200 C   0  0  0  0  0  0  0  0  0  0  0  0
   22.4488   46.2686   11.2042 O   0  0  0  0  0  0  0  0  0  0  0  0
   24.5975   46.3807   10.8475 O   0  0  0  0  0  0  0  0  0  0  0  0
   21.7220   46.0770   11.7636 H   0  0  0  0  0  0  0  0  0  0  0  0
   24.7879   44.3898   12.8699 C   0  0  0  0  0  0  0  0  0  0  0  0
   24.9960   43.6208   14.1863 C   0  0  0  0  0  0  0  0  0  0  0  0
   26.7796   42.3091   13.3507 O   0  0  0  0  0  0  0  0  0  0  0  0
   26.3257   42.9099   14.3057 C   0  0  0  0  0  0  0  0  0  0  0  0
   26.9018   42.9768   15.4048 O   0  0  0  0  0  0  0  0  0  0  0  0
   26.3062   42.2881   12.5424 H   0  0  0  0  0  0  0  0  0  0  0  0
  7 11  1  0  0  0
  7  6  1  0  0  0
  7  8  1  0  0  0
  5  6  1  0  0  0
  5  1  1  0  0  0
 11 12  1  0  0  0
 11 13  2  0  0  0
 15 16  1  0  0  0
 15  1  1  0  0  0
 23 24  1  0  0  0
 24 25  2  0  0  0
 24 22  1  0  0  0
 22 21  1  0  0  0
 21 16  1  0  0  0
 16 17  1  0  0  0
 17 18  1  0  0  0
 17 19  2  0  0  0
  1  2  1  0  0  0
  1  3  2  0  0  0
 12 14  1  0  0  0
 23 26  1  0  0  0
 18 20  1  0  0  0
  2  4  1  0  0  0
  8  9  1  0  0  0
  8 10  1  0  0  0
M  END
> <minimizedAffinity>
-7.84271

$$$$
3FED_BIX_A_1


 26 25  0  0  0  0  0  0  0  0999 V2000
   21.8864   46.6431   18.0720 P   0  0  0  0  0  0  0  0  0  0  0  0
   20.6557   47.2343   17.4536 O   0  0  0  0  0  0  0  0  0  0  0  0
   22.5021   47.5430   19.0468 O   0  0  0  0  0  0  0  0  0  0  0  0
   20.2809   46.6067   16.8159 H   0  0  0  0  0  0  0  0  0  0  0  0
   21.4781   45.0481   18.7927 C   0  0  0  0  0  0  0  0  0  0  0  0
   20.5706   44.1407   17.9362 C   0  0  0  0  0  0  0  0  0  0  0  0
   19.1999   43.7986   18.6013 C   0  0  0  0  0  0  0  0  0  0  0  0
   19.0998   44.5466   19.8328 N   0  0  0  0  0  0  0  0  0  0  0  0
   19.8479   44.2622   20.4651 H   0  0  0  0  0  0  0  0  0  0  0  0
   18.1968   44.3625   20.2699 H   0  0  0  0  0  0  0  0  0  0  0  0
   18.9875   42.3385   18.8441 C   0  0  0  0  0  0  0  0  0  0  0  0
   17.9140   42.0215   19.3924 O   0  0  0  0  0  0  0  0  0  0  0  0
   19.8797   41.4918   18.5520 O   0  0  0  0  0  0  0  0  0  0  0  0
   17.2779   42.6797   19.5926 H   0  0  0  0  0  0  0  0  0  0  0  0
   23.1677   46.3770   16.7567 C   0  0  0  0  0  0  0  0  0  0  0  0
   23.6890   44.9438   16.6552 C   0  0  0  0  0  0  0  0  0  0  0  0
   25.1852   44.8967   16.6170 C   0  0  0  0  0  0  0  0  0  0  0  0
   25.8373   45.9267   16.3748 O   0  0  0  0  0  0  0  0  0  0  0  0
   25.8019   43.7927   16.8237 O   0  0  0  0  0  0  0  0  0  0  0  0
   25.3930   46.7375   16.2226 H   0  0  0  0  0  0  0  0  0  0  0  0
   23.2030   44.2830   15.3429 C   0  0  0  0  0  0  0  0  0  0  0  0
   22.2650   45.1779   14.5140 C   0  0  0  0  0  0  0  0  0  0  0  0
   22.3092   45.2471   12.1490 O   0  0  0  0  0  0  0  0  0  0  0  0
   22.8248   45.6273   13.1827 C   0  0  0  0  0  0  0  0  0  0  0  0
   23.8116   46.3820   13.2142 O   0  0  0  0  0  0  0  0  0  0  0  0
   21.5656   44.6776   12.1782 H   0  0  0  0  0  0  0  0  0  0  0  0
  7 11  1  0  0  0
  7  6  1  0  0  0
  7  8  1  0  0  0
  5  6  1  0  0  0
  5  1  1  0  0  0
 11 12  1  0  0  0
 11 13  2  0  0  0
 15 16  1  0  0  0
 15  1  1  0  0  0
 23 24  1  0  0  0
 24 25  2  0  0  0
 24 22  1  0  0  0
 22 21  1  0  0  0
 21 16  1  0  0  0
 16 17  1  0  0  0
 17 18  1  0  0  0
 17 19  2  0  0  0
  1  2  1  0  0  0
  1  3  2  0  0  0
 12 14  1  0  0  0
 23 26  1  0  0  0
 18 20  1  0  0  0
  2  4  1  0  0  0
  8  9  1  0  0  0
  8 10  1  0  0  0
M  END
> <minimizedAffinity>
-7.82809

$$$$
3FED_BIX_A_1


 26 25  0  0  0  0  0  0  0  0999 V2000
   22.9126   45.8263   15.0536 P   0  0  0  0  0  0  0  0  0  0  0  0
   22.9192   47.3131   14.8643 O   0  0  0  0  0  0  0  0  0  0  0  0
   21.6882   45.2096   14.5440 O   0  0  0  0  0  0  0  0  0  0  0  0
   23.7459   47.6800   15.2149 H   0  0  0  0  0  0  0  0  0  0  0  0
   24.3843   45.1271   14.2952 C   0  0  0  0  0  0  0  0  0  0  0  0
   24.2457   44.7283   12.8112 C   0  0  0  0  0  0  0  0  0  0  0  0
   24.6428   45.8566   11.8073 C   0  0  0  0  0  0  0  0  0  0  0  0
   25.6639   46.6689   12.4266 N   0  0  0  0  0  0  0  0  0  0  0  0
   25.2886   47.1018   13.2704 H   0  0  0  0  0  0  0  0  0  0  0  0
   25.9619   47.3952   11.7754 H   0  0  0  0  0  0  0  0  0  0  0  0
   23.4944   46.6982   11.3505 C   0  0  0  0  0  0  0  0  0  0  0  0
   22.3559   46.2304   11.5467 O   0  0  0  0  0  0  0  0  0  0  0  0
   23.6867   47.7955   10.7527 O   0  0  0  0  0  0  0  0  0  0  0  0
   22.2560   45.4133   11.9943 H   0  0  0  0  0  0  0  0  0  0  0  0
   22.9516   45.4377   16.8676 C   0  0  0  0  0  0  0  0  0  0  0  0
   21.7952   46.0312   17.6716 C   0  0  0  0  0  0  0  0  0  0  0  0
   22.1405   47.3748   18.2354 C   0  0  0  0  0  0  0  0  0  0  0  0
   21.9373   48.4037   17.5686 O   0  0  0  0  0  0  0  0  0  0  0  0
   22.6567   47.4712   19.4042 O   0  0  0  0  0  0  0  0  0  0  0  0
   21.5601   48.3407   16.7131 H   0  0  0  0  0  0  0  0  0  0  0  0
   21.4592   45.1284   18.8829 C   0  0  0  0  0  0  0  0  0  0  0  0
   19.9591   45.0889   19.2235 C   0  0  0  0  0  0  0  0  0  0  0  0
   18.2454   43.9634   18.0419 O   0  0  0  0  0  0  0  0  0  0  0  0
   19.2299   43.8523   18.7472 C   0  0  0  0  0  0  0  0  0  0  0  0
   19.6860   42.7556   19.1124 O   0  0  0  0  0  0  0  0  0  0  0  0
   17.9405   44.8139   17.7935 H   0  0  0  0  0  0  0  0  0  0  0  0
  7 11  1  0  0  0
  7  6  1  0  0  0
  7  8  1  0  0  0
  5  6  1  0  0  0
  5  1  1  0  0  0
 11 12  1  0  0  0
 11 13  2  0  0  0
 15 16  1  0  0  0
 15  1  1  0  0  0
 23 24  1  0  0  0
 24 25  2  0  0  0
 24 22  1  0  0  0
 22 21  1  0  0  0
 21 16  1  0  0  0
 16 17  1  0  0  0
 17 18  1  0  0  0
 17 19  2  0  0  0
  1  2  1  0  0  0
  1  3  2  0  0  0
 12 14  1  0  0  0
 23 26  1  0  0  0
 18 20  1  0  0  0
  2  4  1  0  0  0
  8  9  1  0  0  0
  8 10  1  0  0  0
M  END
> <minimizedAffinity>
-7.71531

$$$$
