2RKD_3PP_A_703


 12 11  0  0  0  0  0  0  0  0999 V2000
   -2.3557   -3.8223   12.8877 C   0  0  0  0  0  0  0  0  0  0  0  0
   -4.0138   -3.4474   12.2445 P   0  0  0  0  0  0  0  0  0  0  0  0
   -4.0245   -3.9480   10.8131 O   0  0  0  0  0  0  0  0  0  0  0  0
   -4.9444   -4.1897   13.1766 O   0  0  0  0  0  0  0  0  0  0  0  0
   -4.1449   -1.9481   12.3569 O   0  0  0  0  0  0  0  0  0  0  0  0
   -3.9374   -4.9141   10.8078 H   0  0  0  0  0  0  0  0  0  0  0  0
   -3.5286   -1.5226   11.7404 H   0  0  0  0  0  0  0  0  0  0  0  0
   -1.3544   -2.7635   12.4216 C   0  0  0  0  0  0  0  0  0  0  0  0
   -0.6822   -3.1580   11.1260 C   0  0  0  0  0  0  0  0  0  0  0  0
    0.3915   -3.8113   11.1703 O   0  0  0  0  0  0  0  0  0  0  0  0
   -1.2300   -2.7984   10.0597 O   0  0  0  0  0  0  0  0  0  0  0  0
   -2.0308   -2.3126   10.0850 H   0  0  0  0  0  0  0  0  0  0  0  0
  1  8  1  0  0  0
  1  2  1  0  0  0
  8  9  1  0  0  0
  2  3  1  0  0  0
  2  4  2  0  0  0
  2  5  1  0  0  0
  9 10  2  0  0  0
  9 11  1  0  0  0
 11 12  1  0  0  0
  3  6  1  0  0  0
  5  7  1  0  0  0
M  END
> <minimizedAffinity>
-4.97259

$$$$
2RKD_3PP_A_703


 12 11  0  0  0  0  0  0  0  0999 V2000
   -1.7661   -2.5109   12.4982 C   0  0  0  0  0  0  0  0  0  0  0  0
   -2.9509   -3.8093   12.9606 P   0  0  0  0  0  0  0  0  0  0  0  0
   -2.1156   -5.0276   13.3037 O   0  0  0  0  0  0  0  0  0  0  0  0
   -3.7063   -3.2165   14.1284 O   0  0  0  0  0  0  0  0  0  0  0  0
   -3.8160   -3.9996   11.7387 O   0  0  0  0  0  0  0  0  0  0  0  0
   -1.5844   -4.8433   14.0942 H   0  0  0  0  0  0  0  0  0  0  0  0
   -3.2845   -4.3809   11.0224 H   0  0  0  0  0  0  0  0  0  0  0  0
   -0.5036   -3.1341   11.8991 C   0  0  0  0  0  0  0  0  0  0  0  0
   -0.6804   -3.4623   10.4338 C   0  0  0  0  0  0  0  0  0  0  0  0
    0.0913   -4.2989    9.8989 O   0  0  0  0  0  0  0  0  0  0  0  0
   -1.5912   -2.8667    9.8156 O   0  0  0  0  0  0  0  0  0  0  0  0
   -2.1379   -2.2522   10.2645 H   0  0  0  0  0  0  0  0  0  0  0  0
  1  8  1  0  0  0
  1  2  1  0  0  0
  8  9  1  0  0  0
  2  3  1  0  0  0
  2  4  2  0  0  0
  2  5  1  0  0  0
  9 10  2  0  0  0
  9 11  1  0  0  0
 11 12  1  0  0  0
  3  6  1  0  0  0
  5  7  1  0  0  0
M  END
> <minimizedAffinity>
-4.76172

$$$$
2RKD_3PP_A_703


 12 11  0  0  0  0  0  0  0  0999 V2000
   -1.2437   -2.1418   13.4493 C   0  0  0  0  0  0  0  0  0  0  0  0
   -1.2171   -3.3651   12.1053 P   0  0  0  0  0  0  0  0  0  0  0  0
   -1.7813   -2.6555   10.8896 O   0  0  0  0  0  0  0  0  0  0  0  0
    0.2406   -3.7487   11.9884 O   0  0  0  0  0  0  0  0  0  0  0  0
   -2.0844   -4.4993   12.5943 O   0  0  0  0  0  0  0  0  0  0  0  0
   -1.1814   -1.9406   10.6252 H   0  0  0  0  0  0  0  0  0  0  0  0
   -3.0055   -4.2007   12.6509 H   0  0  0  0  0  0  0  0  0  0  0  0
   -2.2570   -1.0376   13.1412 C   0  0  0  0  0  0  0  0  0  0  0  0
   -3.6782   -1.4993   13.3715 C   0  0  0  0  0  0  0  0  0  0  0  0
   -4.0403   -1.7997   14.5379 O   0  0  0  0  0  0  0  0  0  0  0  0
   -4.4295   -1.5722   12.3732 O   0  0  0  0  0  0  0  0  0  0  0  0
   -4.1070   -1.3356   11.5259 H   0  0  0  0  0  0  0  0  0  0  0  0
  1  8  1  0  0  0
  1  2  1  0  0  0
  8  9  1  0  0  0
  2  3  1  0  0  0
  2  4  2  0  0  0
  2  5  1  0  0  0
  9 10  2  0  0  0
  9 11  1  0  0  0
 11 12  1  0  0  0
  3  6  1  0  0  0
  5  7  1  0  0  0
M  END
> <minimizedAffinity>
-4.73365

$$$$
2RKD_3PP_A_703


 12 11  0  0  0  0  0  0  0  0999 V2000
   -1.6964   -3.4124   10.8902 C   0  0  0  0  0  0  0  0  0  0  0  0
    0.1133   -3.3273   11.0361 P   0  0  0  0  0  0  0  0  0  0  0  0
    0.6557   -4.3373   10.0433 O   0  0  0  0  0  0  0  0  0  0  0  0
    0.4396   -1.8877   10.7093 O   0  0  0  0  0  0  0  0  0  0  0  0
    0.4049   -3.6827   12.4735 O   0  0  0  0  0  0  0  0  0  0  0  0
    0.4369   -4.0540    9.1417 H   0  0  0  0  0  0  0  0  0  0  0  0
    0.1787   -4.6131   12.6288 H   0  0  0  0  0  0  0  0  0  0  0  0
   -2.3563   -2.8985   12.1714 C   0  0  0  0  0  0  0  0  0  0  0  0
   -2.9869   -4.0191   12.9668 C   0  0  0  0  0  0  0  0  0  0  0  0
   -4.2001   -3.9321   13.2867 O   0  0  0  0  0  0  0  0  0  0  0  0
   -2.2556   -4.9848   13.2817 O   0  0  0  0  0  0  0  0  0  0  0  0
   -1.3571   -4.9981   13.0163 H   0  0  0  0  0  0  0  0  0  0  0  0
  1  8  1  0  0  0
  1  2  1  0  0  0
  8  9  1  0  0  0
  2  3  1  0  0  0
  2  4  2  0  0  0
  2  5  1  0  0  0
  9 10  2  0  0  0
  9 11  1  0  0  0
 11 12  1  0  0  0
  3  6  1  0  0  0
  5  7  1  0  0  0
M  END
> <minimizedAffinity>
-4.61804

$$$$
2RKD_3PP_A_703


 12 11  0  0  0  0  0  0  0  0999 V2000
   -2.6033   -3.5294   12.3829 C   0  0  0  0  0  0  0  0  0  0  0  0
   -3.1325   -1.8921   12.9683 P   0  0  0  0  0  0  0  0  0  0  0  0
   -4.5067   -1.6634   12.3689 O   0  0  0  0  0  0  0  0  0  0  0  0
   -3.1176   -2.0195   14.4747 O   0  0  0  0  0  0  0  0  0  0  0  0
   -2.0854   -0.9366   12.4505 O   0  0  0  0  0  0  0  0  0  0  0  0
   -5.1321   -2.3055   12.7397 H   0  0  0  0  0  0  0  0  0  0  0  0
   -2.1383   -0.8923   11.4829 H   0  0  0  0  0  0  0  0  0  0  0  0
   -2.5884   -3.5663   10.8534 C   0  0  0  0  0  0  0  0  0  0  0  0
   -1.1793   -3.5944   10.3061 C   0  0  0  0  0  0  0  0  0  0  0  0
   -0.7599   -4.6443    9.7552 O   0  0  0  0  0  0  0  0  0  0  0  0
   -0.4874   -2.5603   10.4421 O   0  0  0  0  0  0  0  0  0  0  0  0
   -0.8510   -1.8052   10.8611 H   0  0  0  0  0  0  0  0  0  0  0  0
  1  8  1  0  0  0
  1  2  1  0  0  0
  8  9  1  0  0  0
  2  3  1  0  0  0
  2  4  2  0  0  0
  2  5  1  0  0  0
  9 10  2  0  0  0
  9 11  1  0  0  0
 11 12  1  0  0  0
  3  6  1  0  0  0
  5  7  1  0  0  0
M  END
> <minimizedAffinity>
-4.56873

$$$$
2RKD_3PP_A_703


 12 11  0  0  0  0  0  0  0  0999 V2000
    1.4241   -5.5250    8.9612 C   0  0  0  0  0  0  0  0  0  0  0  0
    1.7074   -4.0369    9.9655 P   0  0  0  0  0  0  0  0  0  0  0  0
    1.8297   -2.8906    8.9802 O   0  0  0  0  0  0  0  0  0  0  0  0
    0.4939   -3.9655   10.8645 O   0  0  0  0  0  0  0  0  0  0  0  0
    2.9825   -4.3157   10.7231 O   0  0  0  0  0  0  0  0  0  0  0  0
    0.9817   -2.7616    8.5273 H   0  0  0  0  0  0  0  0  0  0  0  0
    3.7265   -4.3510   10.1018 H   0  0  0  0  0  0  0  0  0  0  0  0
    2.6735   -5.8586    8.1435 C   0  0  0  0  0  0  0  0  0  0  0  0
    3.4013   -7.0632    8.6963 C   0  0  0  0  0  0  0  0  0  0  0  0
    3.1961   -7.4053    9.8890 O   0  0  0  0  0  0  0  0  0  0  0  0
    4.1920   -7.6599    7.9313 O   0  0  0  0  0  0  0  0  0  0  0  0
    4.3066   -7.3615    7.0505 H   0  0  0  0  0  0  0  0  0  0  0  0
  1  8  1  0  0  0
  1  2  1  0  0  0
  8  9  1  0  0  0
  2  3  1  0  0  0
  2  4  2  0  0  0
  2  5  1  0  0  0
  9 10  2  0  0  0
  9 11  1  0  0  0
 11 12  1  0  0  0
  3  6  1  0  0  0
  5  7  1  0  0  0
M  END
> <minimizedAffinity>
-4.56717

$$$$
2RKD_3PP_A_703


 12 11  0  0  0  0  0  0  0  0999 V2000
   -1.6861   -2.7988   14.5967 C   0  0  0  0  0  0  0  0  0  0  0  0
   -2.9488   -3.9579   13.9921 P   0  0  0  0  0  0  0  0  0  0  0  0
   -2.2613   -4.8056   12.9393 O   0  0  0  0  0  0  0  0  0  0  0  0
   -3.3730   -4.7154   15.2299 O   0  0  0  0  0  0  0  0  0  0  0  0
   -4.0455   -3.0830   13.4358 O   0  0  0  0  0  0  0  0  0  0  0  0
   -1.5701   -5.3426   13.3574 H   0  0  0  0  0  0  0  0  0  0  0  0
   -3.7219   -2.6218   12.6462 H   0  0  0  0  0  0  0  0  0  0  0  0
   -2.2432   -1.3741   14.6228 C   0  0  0  0  0  0  0  0  0  0  0  0
   -1.7221   -0.5462   13.4699 C   0  0  0  0  0  0  0  0  0  0  0  0
   -0.7628    0.2421   13.6698 O   0  0  0  0  0  0  0  0  0  0  0  0
   -2.2885   -0.6802   12.3618 O   0  0  0  0  0  0  0  0  0  0  0  0
   -2.9996   -1.2832   12.2690 H   0  0  0  0  0  0  0  0  0  0  0  0
  1  8  1  0  0  0
  1  2  1  0  0  0
  8  9  1  0  0  0
  2  3  1  0  0  0
  2  4  2  0  0  0
  2  5  1  0  0  0
  9 10  2  0  0  0
  9 11  1  0  0  0
 11 12  1  0  0  0
  3  6  1  0  0  0
  5  7  1  0  0  0
M  END
> <minimizedAffinity>
-4.52118

$$$$
2RKD_3PP_A_703


 12 11  0  0  0  0  0  0  0  0999 V2000
   -2.0263   -3.1848   13.1799 C   0  0  0  0  0  0  0  0  0  0  0  0
   -2.8115   -1.5884   13.5522 P   0  0  0  0  0  0  0  0  0  0  0  0
   -2.4376   -0.6672   12.4070 O   0  0  0  0  0  0  0  0  0  0  0  0
   -4.2848   -1.9166   13.6391 O   0  0  0  0  0  0  0  0  0  0  0  0
   -2.2258   -1.1664   14.8775 O   0  0  0  0  0  0  0  0  0  0  0  0
   -2.8424   -0.9902   11.5869 H   0  0  0  0  0  0  0  0  0  0  0  0
   -1.2828   -0.9684   14.7659 H   0  0  0  0  0  0  0  0  0  0  0  0
   -0.6116   -2.9666   12.6395 C   0  0  0  0  0  0  0  0  0  0  0  0
   -0.5197   -3.2808   11.1633 C   0  0  0  0  0  0  0  0  0  0  0  0
    0.4243   -4.0023   10.7510 O   0  0  0  0  0  0  0  0  0  0  0  0
   -1.3935   -2.7894   10.4140 O   0  0  0  0  0  0  0  0  0  0  0  0
   -2.0756   -2.2582   10.7752 H   0  0  0  0  0  0  0  0  0  0  0  0
  1  8  1  0  0  0
  1  2  1  0  0  0
  8  9  1  0  0  0
  2  3  1  0  0  0
  2  4  2  0  0  0
  2  5  1  0  0  0
  9 10  2  0  0  0
  9 11  1  0  0  0
 11 12  1  0  0  0
  3  6  1  0  0  0
  5  7  1  0  0  0
M  END
> <minimizedAffinity>
-4.30907

$$$$
2RKD_3PP_A_703


 12 11  0  0  0  0  0  0  0  0999 V2000
   -1.4234   -1.9286   12.6207 C   0  0  0  0  0  0  0  0  0  0  0  0
   -1.2650   -3.3145   11.4555 P   0  0  0  0  0  0  0  0  0  0  0  0
   -1.5589   -2.7371   10.0844 O   0  0  0  0  0  0  0  0  0  0  0  0
    0.1572   -3.7912   11.6448 O   0  0  0  0  0  0  0  0  0  0  0  0
   -2.2878   -4.3258   11.9125 O   0  0  0  0  0  0  0  0  0  0  0  0
   -0.8692   -2.0970    9.8486 H   0  0  0  0  0  0  0  0  0  0  0  0
   -3.1793   -3.9713   11.7695 H   0  0  0  0  0  0  0  0  0  0  0  0
   -2.8762   -1.7838   13.0780 C   0  0  0  0  0  0  0  0  0  0  0  0
   -3.0718   -2.2803   14.4927 C   0  0  0  0  0  0  0  0  0  0  0  0
   -2.8581   -1.4934   15.4502 O   0  0  0  0  0  0  0  0  0  0  0  0
   -3.4296   -3.4704   14.6415 O   0  0  0  0  0  0  0  0  0  0  0  0
   -3.5750   -4.0132   13.8917 H   0  0  0  0  0  0  0  0  0  0  0  0
  1  8  1  0  0  0
  1  2  1  0  0  0
  8  9  1  0  0  0
  2  3  1  0  0  0
  2  4  2  0  0  0
  2  5  1  0  0  0
  9 10  2  0  0  0
  9 11  1  0  0  0
 11 12  1  0  0  0
  3  6  1  0  0  0
  5  7  1  0  0  0
M  END
> <minimizedAffinity>
-4.28748

$$$$
2RKD_3PP_A_703


 12 11  0  0  0  0  0  0  0  0999 V2000
   -2.4669   -3.2103   11.7269 C   0  0  0  0  0  0  0  0  0  0  0  0
   -4.1863   -3.1753   12.3152 P   0  0  0  0  0  0  0  0  0  0  0  0
   -4.5521   -1.7085   12.4351 O   0  0  0  0  0  0  0  0  0  0  0  0
   -4.9525   -3.9288   11.2517 O   0  0  0  0  0  0  0  0  0  0  0  0
   -4.1590   -3.8972   13.6402 O   0  0  0  0  0  0  0  0  0  0  0  0
   -4.5525   -1.3023   11.5543 H   0  0  0  0  0  0  0  0  0  0  0  0
   -3.6572   -3.3729   14.2838 H   0  0  0  0  0  0  0  0  0  0  0  0
   -1.5013   -3.0347   12.9007 C   0  0  0  0  0  0  0  0  0  0  0  0
   -0.0681   -2.9113   12.4352 C   0  0  0  0  0  0  0  0  0  0  0  0
    0.7630   -3.7898   12.7804 O   0  0  0  0  0  0  0  0  0  0  0  0
    0.2255   -1.9199   11.7299 O   0  0  0  0  0  0  0  0  0  0  0  0
   -0.4345   -1.2951   11.5020 H   0  0  0  0  0  0  0  0  0  0  0  0
  1  8  1  0  0  0
  1  2  1  0  0  0
  8  9  1  0  0  0
  2  3  1  0  0  0
  2  4  2  0  0  0
  2  5  1  0  0  0
  9 10  2  0  0  0
  9 11  1  0  0  0
 11 12  1  0  0  0
  3  6  1  0  0  0
  5  7  1  0  0  0
M  END
> <minimizedAffinity>
-4.26372

$$$$
