2RKD_3PP_A_703
  RCSB PDB12061706563D
Coordinates from PDB:2RKD:A:703 Model:1 without hydrogens
  9  8  0  0  0  0            999 V2000
    0.5060   -4.5950    9.2440   C 0  0  0  0  0  0  0  0  0  0  0  0
    1.8000   -5.4000    9.3800   C 0  0  0  0  0  0  0  0  0  0  0  0
    0.3370   -3.4350   10.6330   P 0  0  0  0  0  0  0  0  0  0  0  0
    2.3480   -5.8140    8.0330   C 0  0  0  0  0  0  0  0  0  0  0  0
    2.8940   -6.9410    7.9170   O 0  0  0  0  0  0  0  0  0  0  0  0
    2.2400   -4.9970    7.0910   O 0  0  0  0  0  0  0  0  0  0  0  0
    1.6770   -2.7350   10.7520   O 0  0  0  0  0  0  0  0  0  0  0  0
   -0.8070   -2.5360   10.2220   O 0  0  0  0  0  0  0  0  0  0  0  0
    0.0040   -4.3000   11.8240   O 0  0  0  0  0  0  0  0  0  0  0  0
  1  2  1  0  0  0  0
  1  3  1  0  0  0  0
  2  4  1  0  0  0  0
  3  7  1  0  0  0  0
  3  8  2  0  0  0  0
  3  9  1  0  0  0  0
  4  5  2  0  0  0  0
  4  6  1  0  0  0  0
A    1
CB
A    2
CG
A    3
P
A    4
CD
A    5
OE1
A    6
OE2
A    7
O1
A    8
O2
A    9
O3
M  END
>  <InstanceId>
2RKD_3PP_A_703

>  <ChemCompId>
3PP

>  <PdbId>
2RKD

>  <ChainId>
A

>  <ResidueNumber>
703

>  <InsertionCode>


>  <Model>
1

>  <AltIds>


>  <MissingHeavyAtoms>
0

>  <ObservedFormula>
C3 O5 P

>  <Name>
3-PHOSPHONOPROPANOIC ACID

>  <SystematicName>
3-phosphonopropanoic acid

>  <Synonyms>
2-CARBOXYETHYLPHOSPHONIC ACID

>  <Type>
NON-POLYMER

>  <Formula>
C3 H7 O5 P

>  <MolecularWeight>
154.058

>  <ModifiedDate>
2011-06-04

>  <Parent>


>  <OneLetterCode>


>  <SubcomponentList>


>  <AmbiguousFlag>
N

>  <InChI>
InChI=1S/C3H7O5P/c4-3(5)1-2-9(6,7)8/h1-2H2,(H,4,5)(H2,6,7,8)

>  <InChIKey>
NLBSQHGCGGFVJW-UHFFFAOYSA-N

>  <SMILES>
C(CP(=O)(O)O)C(=O)O

$$$$
