2J95_GSX_A_1245


 32 35  0  0  0  0  0  0  0  0999 V2000
    6.4629    8.2448   20.4743 N   0  0  0  0  0  0  0  0  0  0  0  0
    7.4435    8.0156   20.3124 H   0  0  0  0  0  0  0  0  0  0  0  0
    5.8348    7.0774   21.0908 C   0  0  0  0  0  0  0  0  0  0  0  0
    4.5667    6.6042   20.3835 C   0  0  0  0  0  0  0  0  0  0  0  0
    4.5608    5.0803   20.5557 C   0  0  0  0  0  0  0  0  0  0  0  0
    6.7259    5.8450   21.0031 C   0  0  0  0  0  0  0  0  0  0  0  0
    7.9342    5.8736   21.1887 O   0  0  0  0  0  0  0  0  0  0  0  0
    5.9745    4.7451   20.7301 N   0  0  0  0  0  0  0  0  0  0  0  0
    6.5275    3.3559   20.6656 C   0  0  0  0  0  0  0  0  0  0  0  0
    5.9224    2.3461   21.6776 C   0  0  0  0  0  0  0  0  0  0  0  0
    6.4618    2.7573   19.2500 C   0  0  0  0  0  0  0  0  0  0  0  0
    5.3744    2.3391   18.8660 O   0  0  0  0  0  0  0  0  0  0  0  0
    7.5923    2.7467   18.4478 N   0  0  0  0  0  0  0  0  0  0  0  0
    7.4301    2.2197   17.0742 C   0  0  0  0  0  0  0  0  0  0  0  0
    8.7263    1.8167   16.3621 C   0  0  0  0  0  0  0  0  0  0  0  0
    9.8054    2.6629   16.7107 O   0  0  0  0  0  0  0  0  0  0  0  0
   10.0999    2.6697   18.0835 C   0  0  0  0  0  0  0  0  0  0  0  0
    8.9237    3.2836   18.8446 C   0  0  0  0  0  0  0  0  0  0  0  0
    6.4186    9.6304   21.3000 S   0  0  0  0  0  0  0  0  0  0  0  0
    5.0718    9.9846   21.6758 O   0  0  0  0  0  0  0  0  0  0  0  0
    7.2174   10.5621   20.5536 O   0  0  0  0  0  0  0  0  0  0  0  0
    8.7163    8.5603   24.7293 C   0  0  0  0  0  0  0  0  0  0  0  0
    7.3902    8.7502   25.1515 C   0  0  0  0  0  0  0  0  0  0  0  0
    6.5173    9.0819   24.1038 C   0  0  0  0  0  0  0  0  0  0  0  0
    7.1676    9.2035   22.8715 C   0  0  0  0  0  0  0  0  0  0  0  0
    8.8542    8.8862   23.0568 S   0  0  0  0  0  0  0  0  0  0  0  0
   13.8519    7.8942   26.8099 Cl  0  0  0  0  0  0  0  0  0  0  0  0
   12.1475    7.9548   26.5349 C   0  0  0  0  0  0  0  0  0  0  0  0
   11.1581    7.4489   27.3910 C   0  0  0  0  0  0  0  0  0  0  0  0
    9.8605    7.6138   26.8494 C   0  0  0  0  0  0  0  0  0  0  0  0
    9.8713    8.2704   25.6101 C   0  0  0  0  0  0  0  0  0  0  0  0
   11.4672    8.6321   25.1153 S   0  0  0  0  0  0  0  0  0  0  0  0
 27 28  1  0  0  0
 28 29  2  0  0  0
 28 32  1  0  0  0
 29 30  1  0  0  0
 30 31  2  0  0  0
 31 22  1  0  0  0
 31 32  1  0  0  0
 22 23  2  0  0  0
 22 26  1  0  0  0
 23 24  1  0  0  0
 24 25  2  0  0  0
 25 19  1  0  0  0
 25 26  1  0  0  0
 19 20  2  0  0  0
 19 21  2  0  0  0
 19  1  1  0  0  0
  1  3  1  0  0  0
  3  4  1  0  0  0
  3  6  1  0  0  0
  4  5  1  0  0  0
  5  8  1  0  0  0
  6  7  2  0  0  0
  6  8  1  0  0  0
  8  9  1  0  0  0
  9 10  1  0  0  0
  9 11  1  0  0  0
 11 12  2  0  0  0
 11 13  1  0  0  0
 13 14  1  0  0  0
 13 18  1  0  0  0
 14 15  1  0  0  0
 15 16  1  0  0  0
 16 17  1  0  0  0
 17 18  1  0  0  0
  1  2  1  0  0  0
M  END
> <minimizedAffinity>
-8.59533

$$$$
2J95_GSX_A_1245


 32 35  0  0  0  0  0  0  0  0999 V2000
    5.6144    7.9247   20.8490 N   0  0  0  0  0  0  0  0  0  0  0  0
    6.0365    8.6433   20.2610 H   0  0  0  0  0  0  0  0  0  0  0  0
    6.5421    6.7958   20.8974 C   0  0  0  0  0  0  0  0  0  0  0  0
    5.8729    5.4485   21.1613 C   0  0  0  0  0  0  0  0  0  0  0  0
    6.7094    4.4292   20.3783 C   0  0  0  0  0  0  0  0  0  0  0  0
    7.2128    6.5585   19.5505 C   0  0  0  0  0  0  0  0  0  0  0  0
    7.6182    7.4613   18.8322 O   0  0  0  0  0  0  0  0  0  0  0  0
    7.3132    5.2242   19.3084 N   0  0  0  0  0  0  0  0  0  0  0  0
    8.0029    4.6461   18.1126 C   0  0  0  0  0  0  0  0  0  0  0  0
    9.2902    3.8312   18.4103 C   0  0  0  0  0  0  0  0  0  0  0  0
    7.0607    3.8044   17.2347 C   0  0  0  0  0  0  0  0  0  0  0  0
    6.9547    2.6127   17.5054 O   0  0  0  0  0  0  0  0  0  0  0  0
    6.3396    4.4065   16.2152 N   0  0  0  0  0  0  0  0  0  0  0  0
    5.4015    3.5436   15.4628 C   0  0  0  0  0  0  0  0  0  0  0  0
    4.9464    4.0873   14.1038 C   0  0  0  0  0  0  0  0  0  0  0  0
    4.8131    5.4959   14.1164 O   0  0  0  0  0  0  0  0  0  0  0  0
    6.0012    6.1750   14.4307 C   0  0  0  0  0  0  0  0  0  0  0  0
    6.3933    5.8553   15.8741 C   0  0  0  0  0  0  0  0  0  0  0  0
    5.2187    8.6168   22.2519 S   0  0  0  0  0  0  0  0  0  0  0  0
    4.5523    7.6906   23.1343 O   0  0  0  0  0  0  0  0  0  0  0  0
    4.5840    9.8606   21.9149 O   0  0  0  0  0  0  0  0  0  0  0  0
    8.8135    8.7532   24.5416 C   0  0  0  0  0  0  0  0  0  0  0  0
    8.9093    9.7386   23.5454 C   0  0  0  0  0  0  0  0  0  0  0  0
    7.7680    9.8176   22.7325 C   0  0  0  0  0  0  0  0  0  0  0  0
    6.8011    8.8607   23.0576 C   0  0  0  0  0  0  0  0  0  0  0  0
    7.3434    7.8955   24.3821 S   0  0  0  0  0  0  0  0  0  0  0  0
   13.7289    7.7707   26.9953 Cl  0  0  0  0  0  0  0  0  0  0  0  0
   12.0567    7.9333   26.5933 C   0  0  0  0  0  0  0  0  0  0  0  0
   10.9775    7.4795   27.3660 C   0  0  0  0  0  0  0  0  0  0  0  0
    9.7365    7.7245   26.7302 C   0  0  0  0  0  0  0  0  0  0  0  0
    9.8795    8.3891   25.5034 C   0  0  0  0  0  0  0  0  0  0  0  0
   11.5267    8.6605   25.1349 S   0  0  0  0  0  0  0  0  0  0  0  0
 27 28  1  0  0  0
 28 29  2  0  0  0
 28 32  1  0  0  0
 29 30  1  0  0  0
 30 31  2  0  0  0
 31 22  1  0  0  0
 31 32  1  0  0  0
 22 23  2  0  0  0
 22 26  1  0  0  0
 23 24  1  0  0  0
 24 25  2  0  0  0
 25 19  1  0  0  0
 25 26  1  0  0  0
 19 20  2  0  0  0
 19 21  2  0  0  0
 19  1  1  0  0  0
  1  3  1  0  0  0
  3  4  1  0  0  0
  3  6  1  0  0  0
  4  5  1  0  0  0
  5  8  1  0  0  0
  6  7  2  0  0  0
  6  8  1  0  0  0
  8  9  1  0  0  0
  9 10  1  0  0  0
  9 11  1  0  0  0
 11 12  2  0  0  0
 11 13  1  0  0  0
 13 14  1  0  0  0
 13 18  1  0  0  0
 14 15  1  0  0  0
 15 16  1  0  0  0
 16 17  1  0  0  0
 17 18  1  0  0  0
  1  2  1  0  0  0
M  END
> <minimizedAffinity>
-7.84732

$$$$
2J95_GSX_A_1245


 32 35  0  0  0  0  0  0  0  0999 V2000
    5.2610    7.5524   21.9462 N   0  0  0  0  0  0  0  0  0  0  0  0
    4.3909    7.0570   22.1412 H   0  0  0  0  0  0  0  0  0  0  0  0
    5.3889    7.6609   20.4939 C   0  0  0  0  0  0  0  0  0  0  0  0
    6.8301    7.7684   20.0003 C   0  0  0  0  0  0  0  0  0  0  0  0
    6.8415    7.0474   18.6469 C   0  0  0  0  0  0  0  0  0  0  0  0
    4.9053    6.4000   19.7891 C   0  0  0  0  0  0  0  0  0  0  0  0
    3.9014    5.7861   20.1216 O   0  0  0  0  0  0  0  0  0  0  0  0
    5.7264    6.1050   18.7461 N   0  0  0  0  0  0  0  0  0  0  0  0
    5.4845    4.9788   17.7906 C   0  0  0  0  0  0  0  0  0  0  0  0
    4.3882    5.2315   16.7209 C   0  0  0  0  0  0  0  0  0  0  0  0
    6.7724    4.5044   17.0957 C   0  0  0  0  0  0  0  0  0  0  0  0
    7.0151    4.9658   15.9853 O   0  0  0  0  0  0  0  0  0  0  0  0
    7.6269    3.6256   17.7431 N   0  0  0  0  0  0  0  0  0  0  0  0
    8.8798    3.2732   17.0382 C   0  0  0  0  0  0  0  0  0  0  0  0
    9.5895    2.0105   17.5400 C   0  0  0  0  0  0  0  0  0  0  0  0
    9.4532    1.8490   18.9391 O   0  0  0  0  0  0  0  0  0  0  0  0
    8.1212    1.7460   19.3709 C   0  0  0  0  0  0  0  0  0  0  0  0
    7.4061    3.0724   19.1082 C   0  0  0  0  0  0  0  0  0  0  0  0
    5.2360    8.9270   22.7907 S   0  0  0  0  0  0  0  0  0  0  0  0
    4.4160    8.8126   23.9719 O   0  0  0  0  0  0  0  0  0  0  0  0
    4.9726    9.9713   21.8402 O   0  0  0  0  0  0  0  0  0  0  0  0
    8.9838    8.7803   24.8197 C   0  0  0  0  0  0  0  0  0  0  0  0
    9.1196    9.6746   23.7453 C   0  0  0  0  0  0  0  0  0  0  0  0
    7.9376    9.8364   23.0062 C   0  0  0  0  0  0  0  0  0  0  0  0
    6.8921    9.0303   23.4684 C   0  0  0  0  0  0  0  0  0  0  0  0
    7.4153    8.1005   24.8254 S   0  0  0  0  0  0  0  0  0  0  0  0
   13.9468    7.6301   27.0985 Cl  0  0  0  0  0  0  0  0  0  0  0  0
   12.2670    7.8257   26.7455 C   0  0  0  0  0  0  0  0  0  0  0  0
   11.2026    7.3361   27.5167 C   0  0  0  0  0  0  0  0  0  0  0  0
    9.9491    7.6243   26.9249 C   0  0  0  0  0  0  0  0  0  0  0  0
   10.0689    8.3559   25.7343 C   0  0  0  0  0  0  0  0  0  0  0  0
   11.7091    8.6371   25.3430 S   0  0  0  0  0  0  0  0  0  0  0  0
 27 28  1  0  0  0
 28 29  2  0  0  0
 28 32  1  0  0  0
 29 30  1  0  0  0
 30 31  2  0  0  0
 31 22  1  0  0  0
 31 32  1  0  0  0
 22 23  2  0  0  0
 22 26  1  0  0  0
 23 24  1  0  0  0
 24 25  2  0  0  0
 25 19  1  0  0  0
 25 26  1  0  0  0
 19 20  2  0  0  0
 19 21  2  0  0  0
 19  1  1  0  0  0
  1  3  1  0  0  0
  3  4  1  0  0  0
  3  6  1  0  0  0
  4  5  1  0  0  0
  5  8  1  0  0  0
  6  7  2  0  0  0
  6  8  1  0  0  0
  8  9  1  0  0  0
  9 10  1  0  0  0
  9 11  1  0  0  0
 11 12  2  0  0  0
 11 13  1  0  0  0
 13 14  1  0  0  0
 13 18  1  0  0  0
 14 15  1  0  0  0
 15 16  1  0  0  0
 16 17  1  0  0  0
 17 18  1  0  0  0
  1  2  1  0  0  0
M  END
> <minimizedAffinity>
-7.74290

$$$$
2J95_GSX_A_1245


 32 35  0  0  0  0  0  0  0  0999 V2000
    2.9220    3.6012   24.1014 N   0  0  0  0  0  0  0  0  0  0  0  0
    3.9350    3.6834   24.1878 H   0  0  0  0  0  0  0  0  0  0  0  0
    2.4348    4.8234   23.4640 C   0  0  0  0  0  0  0  0  0  0  0  0
    1.5290    5.6729   24.3530 C   0  0  0  0  0  0  0  0  0  0  0  0
    1.8203    7.1228   23.9469 C   0  0  0  0  0  0  0  0  0  0  0  0
    3.5709    5.7893   23.1533 C   0  0  0  0  0  0  0  0  0  0  0  0
    4.6534    5.4344   22.7088 O   0  0  0  0  0  0  0  0  0  0  0  0
    3.1802    7.0663   23.4095 N   0  0  0  0  0  0  0  0  0  0  0  0
    4.0277    8.2671   23.1273 C   0  0  0  0  0  0  0  0  0  0  0  0
    3.2529    9.5744   22.8096 C   0  0  0  0  0  0  0  0  0  0  0  0
    5.0539    8.5427   24.2398 C   0  0  0  0  0  0  0  0  0  0  0  0
    4.6177    8.8616   25.3410 O   0  0  0  0  0  0  0  0  0  0  0  0
    6.4081    8.3841   23.9895 N   0  0  0  0  0  0  0  0  0  0  0  0
    7.3264    8.5984   25.1304 C   0  0  0  0  0  0  0  0  0  0  0  0
    8.7942    8.8432   24.7623 C   0  0  0  0  0  0  0  0  0  0  0  0
    9.1843    8.0988   23.6240 O   0  0  0  0  0  0  0  0  0  0  0  0
    8.4383    8.3928   22.4713 C   0  0  0  0  0  0  0  0  0  0  0  0
    6.9893    7.9534   22.6875 C   0  0  0  0  0  0  0  0  0  0  0  0
    2.6106    2.2043   23.3564 S   0  0  0  0  0  0  0  0  0  0  0  0
    1.2663    2.1661   22.8348 O   0  0  0  0  0  0  0  0  0  0  0  0
    3.0571    1.1711   24.2488 O   0  0  0  0  0  0  0  0  0  0  0  0
    5.4605    2.3634   20.1883 C   0  0  0  0  0  0  0  0  0  0  0  0
    4.1838    2.4795   19.6145 C   0  0  0  0  0  0  0  0  0  0  0  0
    3.1478    2.4694   20.5612 C   0  0  0  0  0  0  0  0  0  0  0  0
    3.6084    2.2929   21.8700 C   0  0  0  0  0  0  0  0  0  0  0  0
    5.3292    2.1568   21.8801 S   0  0  0  0  0  0  0  0  0  0  0  0
    9.3634    2.3342   16.1992 Cl  0  0  0  0  0  0  0  0  0  0  0  0
    8.4738    2.2434   17.6772 C   0  0  0  0  0  0  0  0  0  0  0  0
    8.9719    1.7982   18.9105 C   0  0  0  0  0  0  0  0  0  0  0  0
    7.9717    1.8000   19.9126 C   0  0  0  0  0  0  0  0  0  0  0  0
    6.7384    2.2761   19.4444 C   0  0  0  0  0  0  0  0  0  0  0  0
    6.8172    2.6694   17.7825 S   0  0  0  0  0  0  0  0  0  0  0  0
 27 28  1  0  0  0
 28 29  2  0  0  0
 28 32  1  0  0  0
 29 30  1  0  0  0
 30 31  2  0  0  0
 31 22  1  0  0  0
 31 32  1  0  0  0
 22 23  2  0  0  0
 22 26  1  0  0  0
 23 24  1  0  0  0
 24 25  2  0  0  0
 25 19  1  0  0  0
 25 26  1  0  0  0
 19 20  2  0  0  0
 19 21  2  0  0  0
 19  1  1  0  0  0
  1  3  1  0  0  0
  3  4  1  0  0  0
  3  6  1  0  0  0
  4  5  1  0  0  0
  5  8  1  0  0  0
  6  7  2  0  0  0
  6  8  1  0  0  0
  8  9  1  0  0  0
  9 10  1  0  0  0
  9 11  1  0  0  0
 11 12  2  0  0  0
 11 13  1  0  0  0
 13 14  1  0  0  0
 13 18  1  0  0  0
 14 15  1  0  0  0
 15 16  1  0  0  0
 16 17  1  0  0  0
 17 18  1  0  0  0
  1  2  1  0  0  0
M  END
> <minimizedAffinity>
-7.68399

$$$$
2J95_GSX_A_1245


 32 35  0  0  0  0  0  0  0  0999 V2000
    4.6342    7.9807   21.6598 N   0  0  0  0  0  0  0  0  0  0  0  0
    5.2944    8.5134   21.0935 H   0  0  0  0  0  0  0  0  0  0  0  0
    5.0531    6.5805   21.6225 C   0  0  0  0  0  0  0  0  0  0  0  0
    3.9275    5.6003   21.2992 C   0  0  0  0  0  0  0  0  0  0  0  0
    4.5982    4.4731   20.5047 C   0  0  0  0  0  0  0  0  0  0  0  0
    6.0386    6.3163   20.4914 C   0  0  0  0  0  0  0  0  0  0  0  0
    6.9475    7.0802   20.1985 O   0  0  0  0  0  0  0  0  0  0  0  0
    5.7695    5.1172   19.9093 N   0  0  0  0  0  0  0  0  0  0  0  0
    6.6048    4.5143   18.8237 C   0  0  0  0  0  0  0  0  0  0  0  0
    7.2727    5.5248   17.8527 C   0  0  0  0  0  0  0  0  0  0  0  0
    7.6728    3.5485   19.3651 C   0  0  0  0  0  0  0  0  0  0  0  0
    7.9693    3.6455   20.5515 O   0  0  0  0  0  0  0  0  0  0  0  0
    8.2262    2.5882   18.5324 N   0  0  0  0  0  0  0  0  0  0  0  0
    9.1936    1.6511   19.1463 C   0  0  0  0  0  0  0  0  0  0  0  0
   10.1000    0.8984   18.1657 C   0  0  0  0  0  0  0  0  0  0  0  0
    9.4302    0.5897   16.9581 O   0  0  0  0  0  0  0  0  0  0  0  0
    8.9588    1.7174   16.2671 C   0  0  0  0  0  0  0  0  0  0  0  0
    7.8690    2.3949   17.0995 C   0  0  0  0  0  0  0  0  0  0  0  0
    4.5539    8.6899   23.1068 S   0  0  0  0  0  0  0  0  0  0  0  0
    4.0113    7.8027   24.1064 O   0  0  0  0  0  0  0  0  0  0  0  0
    3.9438    9.9716   22.8866 O   0  0  0  0  0  0  0  0  0  0  0  0
    8.4887    8.6940   24.7503 C   0  0  0  0  0  0  0  0  0  0  0  0
    8.5230    9.4541   23.5697 C   0  0  0  0  0  0  0  0  0  0  0  0
    7.2731    9.5558   22.9397 C   0  0  0  0  0  0  0  0  0  0  0  0
    6.2720    8.8333   23.5970 C   0  0  0  0  0  0  0  0  0  0  0  0
    6.9218    8.0557   24.9944 S   0  0  0  0  0  0  0  0  0  0  0  0
   13.6564    7.9165   26.7094 Cl  0  0  0  0  0  0  0  0  0  0  0  0
   11.9479    7.9890   26.4641 C   0  0  0  0  0  0  0  0  0  0  0  0
   10.9726    7.4289   27.3023 C   0  0  0  0  0  0  0  0  0  0  0  0
    9.6665    7.6230   26.7912 C   0  0  0  0  0  0  0  0  0  0  0  0
    9.6574    8.3541   25.5944 C   0  0  0  0  0  0  0  0  0  0  0  0
   11.2450    8.7499   25.0988 S   0  0  0  0  0  0  0  0  0  0  0  0
 27 28  1  0  0  0
 28 29  2  0  0  0
 28 32  1  0  0  0
 29 30  1  0  0  0
 30 31  2  0  0  0
 31 22  1  0  0  0
 31 32  1  0  0  0
 22 23  2  0  0  0
 22 26  1  0  0  0
 23 24  1  0  0  0
 24 25  2  0  0  0
 25 19  1  0  0  0
 25 26  1  0  0  0
 19 20  2  0  0  0
 19 21  2  0  0  0
 19  1  1  0  0  0
  1  3  1  0  0  0
  3  4  1  0  0  0
  3  6  1  0  0  0
  4  5  1  0  0  0
  5  8  1  0  0  0
  6  7  2  0  0  0
  6  8  1  0  0  0
  8  9  1  0  0  0
  9 10  1  0  0  0
  9 11  1  0  0  0
 11 12  2  0  0  0
 11 13  1  0  0  0
 13 14  1  0  0  0
 13 18  1  0  0  0
 14 15  1  0  0  0
 15 16  1  0  0  0
 16 17  1  0  0  0
 17 18  1  0  0  0
  1  2  1  0  0  0
M  END
> <minimizedAffinity>
-7.35344

$$$$
2J95_GSX_A_1245


 32 35  0  0  0  0  0  0  0  0999 V2000
    5.5162    6.4269   23.0304 N   0  0  0  0  0  0  0  0  0  0  0  0
    6.2642    5.7352   22.9816 H   0  0  0  0  0  0  0  0  0  0  0  0
    6.1319    7.7197   23.3251 C   0  0  0  0  0  0  0  0  0  0  0  0
    5.8265    8.2525   24.7235 C   0  0  0  0  0  0  0  0  0  0  0  0
    7.0882    9.0173   25.1416 C   0  0  0  0  0  0  0  0  0  0  0  0
    7.6523    7.6292   23.3451 C   0  0  0  0  0  0  0  0  0  0  0  0
    8.2987    6.9821   22.5335 O   0  0  0  0  0  0  0  0  0  0  0  0
    8.1513    8.3892   24.3563 N   0  0  0  0  0  0  0  0  0  0  0  0
    9.6139    8.5920   24.5997 C   0  0  0  0  0  0  0  0  0  0  0  0
   10.1507   10.0186   24.3052 C   0  0  0  0  0  0  0  0  0  0  0  0
   10.0430    8.1702   26.0155 C   0  0  0  0  0  0  0  0  0  0  0  0
    9.1603    8.0521   26.8591 O   0  0  0  0  0  0  0  0  0  0  0  0
   11.3753    7.8974   26.2846 N   0  0  0  0  0  0  0  0  0  0  0  0
   11.6969    7.4285   27.6511 C   0  0  0  0  0  0  0  0  0  0  0  0
   13.1695    7.5429   28.0612 C   0  0  0  0  0  0  0  0  0  0  0  0
   14.0408    7.3095   26.9711 O   0  0  0  0  0  0  0  0  0  0  0  0
   13.8628    8.2018   25.9017 C   0  0  0  0  0  0  0  0  0  0  0  0
   12.4796    7.9780   25.2884 C   0  0  0  0  0  0  0  0  0  0  0  0
    4.6580    6.3101   21.6690 S   0  0  0  0  0  0  0  0  0  0  0  0
    4.2716    7.6068   21.1691 O   0  0  0  0  0  0  0  0  0  0  0  0
    3.6525    5.3152   21.9186 O   0  0  0  0  0  0  0  0  0  0  0  0
    7.4862    4.4720   19.0601 C   0  0  0  0  0  0  0  0  0  0  0  0
    7.3736    5.8192   18.6795 C   0  0  0  0  0  0  0  0  0  0  0  0
    6.4861    6.5501   19.4844 C   0  0  0  0  0  0  0  0  0  0  0  0
    5.8647    5.7649   20.4609 C   0  0  0  0  0  0  0  0  0  0  0  0
    6.4190    4.1337   20.3519 S   0  0  0  0  0  0  0  0  0  0  0  0
   10.5039   -0.0559   17.8192 Cl  0  0  0  0  0  0  0  0  0  0  0  0
    9.6446    1.4427   17.8089 C   0  0  0  0  0  0  0  0  0  0  0  0
    9.6247    2.3718   16.7582 C   0  0  0  0  0  0  0  0  0  0  0  0
    8.8652    3.5205   17.0870 C   0  0  0  0  0  0  0  0  0  0  0  0
    8.2892    3.4406   18.3633 C   0  0  0  0  0  0  0  0  0  0  0  0
    8.7235    1.9853   19.1484 S   0  0  0  0  0  0  0  0  0  0  0  0
 27 28  1  0  0  0
 28 29  2  0  0  0
 28 32  1  0  0  0
 29 30  1  0  0  0
 30 31  2  0  0  0
 31 22  1  0  0  0
 31 32  1  0  0  0
 22 23  2  0  0  0
 22 26  1  0  0  0
 23 24  1  0  0  0
 24 25  2  0  0  0
 25 19  1  0  0  0
 25 26  1  0  0  0
 19 20  2  0  0  0
 19 21  2  0  0  0
 19  1  1  0  0  0
  1  3  1  0  0  0
  3  4  1  0  0  0
  3  6  1  0  0  0
  4  5  1  0  0  0
  5  8  1  0  0  0
  6  7  2  0  0  0
  6  8  1  0  0  0
  8  9  1  0  0  0
  9 10  1  0  0  0
  9 11  1  0  0  0
 11 12  2  0  0  0
 11 13  1  0  0  0
 13 14  1  0  0  0
 13 18  1  0  0  0
 14 15  1  0  0  0
 15 16  1  0  0  0
 16 17  1  0  0  0
 17 18  1  0  0  0
  1  2  1  0  0  0
M  END
> <minimizedAffinity>
-7.03892

$$$$
2J95_GSX_A_1245


 32 35  0  0  0  0  0  0  0  0999 V2000
    5.7531    7.9234   19.4753 N   0  0  0  0  0  0  0  0  0  0  0  0
    6.2567    7.7388   18.6077 H   0  0  0  0  0  0  0  0  0  0  0  0
    6.0996    6.8620   20.4189 C   0  0  0  0  0  0  0  0  0  0  0  0
    4.9836    5.8460   20.6533 C   0  0  0  0  0  0  0  0  0  0  0  0
    5.7034    4.5129   20.8911 C   0  0  0  0  0  0  0  0  0  0  0  0
    7.2243    5.9814   19.8896 C   0  0  0  0  0  0  0  0  0  0  0  0
    8.2046    6.4205   19.3053 O   0  0  0  0  0  0  0  0  0  0  0  0
    6.9808    4.6794   20.1970 N   0  0  0  0  0  0  0  0  0  0  0  0
    7.9328    3.5634   19.9003 C   0  0  0  0  0  0  0  0  0  0  0  0
    7.4815    2.1546   20.3710 C   0  0  0  0  0  0  0  0  0  0  0  0
    8.3272    3.5003   18.4146 C   0  0  0  0  0  0  0  0  0  0  0  0
    9.5022    3.7143   18.1349 O   0  0  0  0  0  0  0  0  0  0  0  0
    7.3799    3.1675   17.4587 N   0  0  0  0  0  0  0  0  0  0  0  0
    7.8537    3.0575   16.0608 C   0  0  0  0  0  0  0  0  0  0  0  0
    6.7632    3.1181   14.9852 C   0  0  0  0  0  0  0  0  0  0  0  0
    5.5638    2.5019   15.4140 O   0  0  0  0  0  0  0  0  0  0  0  0
    5.0088    3.0820   16.5659 C   0  0  0  0  0  0  0  0  0  0  0  0
    5.9531    2.8516   17.7468 C   0  0  0  0  0  0  0  0  0  0  0  0
    6.0842    9.4402   19.9148 S   0  0  0  0  0  0  0  0  0  0  0  0
    4.8830   10.1915   20.1854 O   0  0  0  0  0  0  0  0  0  0  0  0
    7.0305    9.9337   18.9533 O   0  0  0  0  0  0  0  0  0  0  0  0
    8.3202    8.8627   23.4996 C   0  0  0  0  0  0  0  0  0  0  0  0
    7.0058    9.1916   23.8697 C   0  0  0  0  0  0  0  0  0  0  0  0
    6.1522    9.3817   22.7720 C   0  0  0  0  0  0  0  0  0  0  0  0
    6.8087    9.2538   21.5436 C   0  0  0  0  0  0  0  0  0  0  0  0
    8.4760    8.8861   21.7974 S   0  0  0  0  0  0  0  0  0  0  0  0
   11.5055    7.5852   27.9005 Cl  0  0  0  0  0  0  0  0  0  0  0  0
   10.8755    8.1228   26.3845 C   0  0  0  0  0  0  0  0  0  0  0  0
   11.5784    8.8523   25.4143 C   0  0  0  0  0  0  0  0  0  0  0  0
   10.7588    9.1797   24.3073 C   0  0  0  0  0  0  0  0  0  0  0  0
    9.4578    8.6702   24.4284 C   0  0  0  0  0  0  0  0  0  0  0  0
    9.2532    7.8410   25.9094 S   0  0  0  0  0  0  0  0  0  0  0  0
 27 28  1  0  0  0
 28 29  2  0  0  0
 28 32  1  0  0  0
 29 30  1  0  0  0
 30 31  2  0  0  0
 31 22  1  0  0  0
 31 32  1  0  0  0
 22 23  2  0  0  0
 22 26  1  0  0  0
 23 24  1  0  0  0
 24 25  2  0  0  0
 25 19  1  0  0  0
 25 26  1  0  0  0
 19 20  2  0  0  0
 19 21  2  0  0  0
 19  1  1  0  0  0
  1  3  1  0  0  0
  3  4  1  0  0  0
  3  6  1  0  0  0
  4  5  1  0  0  0
  5  8  1  0  0  0
  6  7  2  0  0  0
  6  8  1  0  0  0
  8  9  1  0  0  0
  9 10  1  0  0  0
  9 11  1  0  0  0
 11 12  2  0  0  0
 11 13  1  0  0  0
 13 14  1  0  0  0
 13 18  1  0  0  0
 14 15  1  0  0  0
 15 16  1  0  0  0
 16 17  1  0  0  0
 17 18  1  0  0  0
  1  2  1  0  0  0
M  END
> <minimizedAffinity>
-6.96545

$$$$
2J95_GSX_A_1245


 32 35  0  0  0  0  0  0  0  0999 V2000
    1.7461    5.0146   22.6855 N   0  0  0  0  0  0  0  0  0  0  0  0
    2.2114    4.7155   23.5425 H   0  0  0  0  0  0  0  0  0  0  0  0
    2.4357    6.2110   22.2057 C   0  0  0  0  0  0  0  0  0  0  0  0
    1.5164    7.4059   21.9613 C   0  0  0  0  0  0  0  0  0  0  0  0
    2.3630    8.6363   22.3095 C   0  0  0  0  0  0  0  0  0  0  0  0
    3.4016    6.7615   23.2471 C   0  0  0  0  0  0  0  0  0  0  0  0
    4.1240    6.0545   23.9352 O   0  0  0  0  0  0  0  0  0  0  0  0
    3.3525    8.1204   23.2561 N   0  0  0  0  0  0  0  0  0  0  0  0
    4.2415    8.9785   24.1006 C   0  0  0  0  0  0  0  0  0  0  0  0
    3.8536    9.0726   25.6008 C   0  0  0  0  0  0  0  0  0  0  0  0
    5.7254    8.5900   23.9831 C   0  0  0  0  0  0  0  0  0  0  0  0
    6.2064    7.9243   24.8943 O   0  0  0  0  0  0  0  0  0  0  0  0
    6.4511    8.9534   22.8593 N   0  0  0  0  0  0  0  0  0  0  0  0
    7.8519    8.4806   22.7887 C   0  0  0  0  0  0  0  0  0  0  0  0
    8.7517    9.2218   21.7933 C   0  0  0  0  0  0  0  0  0  0  0  0
    8.0425    9.6199   20.6355 O   0  0  0  0  0  0  0  0  0  0  0  0
    6.9625   10.4775   20.8991 C   0  0  0  0  0  0  0  0  0  0  0  0
    5.9059    9.7187   21.7037 C   0  0  0  0  0  0  0  0  0  0  0  0
    1.6939    3.7435   21.6930 S   0  0  0  0  0  0  0  0  0  0  0  0
    1.2033    4.1069   20.3862 O   0  0  0  0  0  0  0  0  0  0  0  0
    1.0476    2.6926   22.4288 O   0  0  0  0  0  0  0  0  0  0  0  0
    5.7303    3.1960   20.4314 C   0  0  0  0  0  0  0  0  0  0  0  0
    5.5858    2.5581   21.6743 C   0  0  0  0  0  0  0  0  0  0  0  0
    4.2838    2.6407   22.1915 C   0  0  0  0  0  0  0  0  0  0  0  0
    3.4225    3.3870   21.3806 C   0  0  0  0  0  0  0  0  0  0  0  0
    4.2650    3.9547   19.9850 S   0  0  0  0  0  0  0  0  0  0  0  0
   10.6639    2.2653   17.9941 Cl  0  0  0  0  0  0  0  0  0  0  0  0
    9.1932    2.9360   18.6035 C   0  0  0  0  0  0  0  0  0  0  0  0
    8.8288    4.2899   18.5644 C   0  0  0  0  0  0  0  0  0  0  0  0
    7.5810    4.5165   19.1940 C   0  0  0  0  0  0  0  0  0  0  0  0
    6.9948    3.3357   19.6728 C   0  0  0  0  0  0  0  0  0  0  0  0
    7.9998    1.9836   19.3819 S   0  0  0  0  0  0  0  0  0  0  0  0
 27 28  1  0  0  0
 28 29  2  0  0  0
 28 32  1  0  0  0
 29 30  1  0  0  0
 30 31  2  0  0  0
 31 22  1  0  0  0
 31 32  1  0  0  0
 22 23  2  0  0  0
 22 26  1  0  0  0
 23 24  1  0  0  0
 24 25  2  0  0  0
 25 19  1  0  0  0
 25 26  1  0  0  0
 19 20  2  0  0  0
 19 21  2  0  0  0
 19  1  1  0  0  0
  1  3  1  0  0  0
  3  4  1  0  0  0
  3  6  1  0  0  0
  4  5  1  0  0  0
  5  8  1  0  0  0
  6  7  2  0  0  0
  6  8  1  0  0  0
  8  9  1  0  0  0
  9 10  1  0  0  0
  9 11  1  0  0  0
 11 12  2  0  0  0
 11 13  1  0  0  0
 13 14  1  0  0  0
 13 18  1  0  0  0
 14 15  1  0  0  0
 15 16  1  0  0  0
 16 17  1  0  0  0
 17 18  1  0  0  0
  1  2  1  0  0  0
M  END
> <minimizedAffinity>
-6.48875

$$$$
2J95_GSX_A_1245


 32 35  0  0  0  0  0  0  0  0999 V2000
    3.9496    3.5535   23.0885 N   0  0  0  0  0  0  0  0  0  0  0  0
    4.9434    3.7375   22.9514 H   0  0  0  0  0  0  0  0  0  0  0  0
    3.2377    4.8148   22.8893 C   0  0  0  0  0  0  0  0  0  0  0  0
    2.4426    5.2820   24.1067 C   0  0  0  0  0  0  0  0  0  0  0  0
    2.5143    6.8133   24.0642 C   0  0  0  0  0  0  0  0  0  0  0  0
    4.1983    5.9769   22.6725 C   0  0  0  0  0  0  0  0  0  0  0  0
    5.2046    5.8984   21.9822 O   0  0  0  0  0  0  0  0  0  0  0  0
    3.7460    7.0829   23.3215 N   0  0  0  0  0  0  0  0  0  0  0  0
    4.4080    8.4227   23.2410 C   0  0  0  0  0  0  0  0  0  0  0  0
    3.5136    9.6355   23.6138 C   0  0  0  0  0  0  0  0  0  0  0  0
    5.7146    8.4874   24.0505 C   0  0  0  0  0  0  0  0  0  0  0  0
    5.6633    8.1515   25.2292 O   0  0  0  0  0  0  0  0  0  0  0  0
    6.8952    8.8703   23.4330 N   0  0  0  0  0  0  0  0  0  0  0  0
    8.1215    8.8381   24.2613 C   0  0  0  0  0  0  0  0  0  0  0  0
    9.3057    9.6491   23.7231 C   0  0  0  0  0  0  0  0  0  0  0  0
    9.3629    9.6254   22.3095 O   0  0  0  0  0  0  0  0  0  0  0  0
    8.2175   10.1468   21.6869 C   0  0  0  0  0  0  0  0  0  0  0  0
    7.0240    9.2417   21.9964 C   0  0  0  0  0  0  0  0  0  0  0  0
    3.5483    2.3189   22.1303 S   0  0  0  0  0  0  0  0  0  0  0  0
    2.2978    2.5553   21.4513 O   0  0  0  0  0  0  0  0  0  0  0  0
    3.7145    1.1322   22.9225 O   0  0  0  0  0  0  0  0  0  0  0  0
    5.9204    2.5219   18.5925 C   0  0  0  0  0  0  0  0  0  0  0  0
    6.7950    2.5636   19.6907 C   0  0  0  0  0  0  0  0  0  0  0  0
    6.1366    2.4753   20.9270 C   0  0  0  0  0  0  0  0  0  0  0  0
    4.7449    2.4176   20.7996 C   0  0  0  0  0  0  0  0  0  0  0  0
    4.2995    2.4629   19.1324 S   0  0  0  0  0  0  0  0  0  0  0  0
    6.5738    1.7658   13.1018 Cl  0  0  0  0  0  0  0  0  0  0  0  0
    6.6203    2.3231   14.7363 C   0  0  0  0  0  0  0  0  0  0  0  0
    7.4336    3.3533   15.2308 C   0  0  0  0  0  0  0  0  0  0  0  0
    7.2676    3.5301   16.6257 C   0  0  0  0  0  0  0  0  0  0  0  0
    6.3104    2.6617   17.1704 C   0  0  0  0  0  0  0  0  0  0  0  0
    5.6675    1.6213   15.9759 S   0  0  0  0  0  0  0  0  0  0  0  0
 27 28  1  0  0  0
 28 29  2  0  0  0
 28 32  1  0  0  0
 29 30  1  0  0  0
 30 31  2  0  0  0
 31 22  1  0  0  0
 31 32  1  0  0  0
 22 23  2  0  0  0
 22 26  1  0  0  0
 23 24  1  0  0  0
 24 25  2  0  0  0
 25 19  1  0  0  0
 25 26  1  0  0  0
 19 20  2  0  0  0
 19 21  2  0  0  0
 19  1  1  0  0  0
  1  3  1  0  0  0
  3  4  1  0  0  0
  3  6  1  0  0  0
  4  5  1  0  0  0
  5  8  1  0  0  0
  6  7  2  0  0  0
  6  8  1  0  0  0
  8  9  1  0  0  0
  9 10  1  0  0  0
  9 11  1  0  0  0
 11 12  2  0  0  0
 11 13  1  0  0  0
 13 14  1  0  0  0
 13 18  1  0  0  0
 14 15  1  0  0  0
 15 16  1  0  0  0
 16 17  1  0  0  0
 17 18  1  0  0  0
  1  2  1  0  0  0
M  END
> <minimizedAffinity>
-6.39849

$$$$
2J95_GSX_A_1245


 32 35  0  0  0  0  0  0  0  0999 V2000
    7.0818    4.0567   20.2839 N   0  0  0  0  0  0  0  0  0  0  0  0
    7.8887    4.4326   19.7859 H   0  0  0  0  0  0  0  0  0  0  0  0
    6.1771    5.1716   20.5592 C   0  0  0  0  0  0  0  0  0  0  0  0
    5.1881    4.9079   21.6928 C   0  0  0  0  0  0  0  0  0  0  0  0
    4.9842    6.2701   22.3670 C   0  0  0  0  0  0  0  0  0  0  0  0
    6.9276    6.3944   21.0709 C   0  0  0  0  0  0  0  0  0  0  0  0
    7.9976    6.7681   20.6118 O   0  0  0  0  0  0  0  0  0  0  0  0
    6.2167    6.9971   22.0610 N   0  0  0  0  0  0  0  0  0  0  0  0
    6.6288    8.2763   22.7196 C   0  0  0  0  0  0  0  0  0  0  0  0
    5.5614    9.4035   22.7206 C   0  0  0  0  0  0  0  0  0  0  0  0
    7.1455    8.0649   24.1531 C   0  0  0  0  0  0  0  0  0  0  0  0
    6.3327    7.6987   24.9958 O   0  0  0  0  0  0  0  0  0  0  0  0
    8.4898    8.2449   24.4398 N   0  0  0  0  0  0  0  0  0  0  0  0
    8.9208    7.9526   25.8253 C   0  0  0  0  0  0  0  0  0  0  0  0
   10.2711    8.5491   26.2387 C   0  0  0  0  0  0  0  0  0  0  0  0
   11.1903    8.5703   25.1633 O   0  0  0  0  0  0  0  0  0  0  0  0
   10.7540    9.3198   24.0591 C   0  0  0  0  0  0  0  0  0  0  0  0
    9.5271    8.6415   23.4473 C   0  0  0  0  0  0  0  0  0  0  0  0
    6.5003    2.8313   19.4100 S   0  0  0  0  0  0  0  0  0  0  0  0
    5.1803    2.4453   19.8449 O   0  0  0  0  0  0  0  0  0  0  0  0
    7.5477    1.8497   19.3580 O   0  0  0  0  0  0  0  0  0  0  0  0
    6.1279    5.0359   15.7789 C   0  0  0  0  0  0  0  0  0  0  0  0
    5.3180    3.8941   15.6651 C   0  0  0  0  0  0  0  0  0  0  0  0
    5.3292    3.0898   16.8151 C   0  0  0  0  0  0  0  0  0  0  0  0
    6.1872    3.5728   17.8085 C   0  0  0  0  0  0  0  0  0  0  0  0
    6.9475    5.0293   17.2791 S   0  0  0  0  0  0  0  0  0  0  0  0
    6.0788    9.6220   12.5989 Cl  0  0  0  0  0  0  0  0  0  0  0  0
    6.3409    8.0584   13.2851 C   0  0  0  0  0  0  0  0  0  0  0  0
    7.0136    6.9926   12.6694 C   0  0  0  0  0  0  0  0  0  0  0  0
    7.0115    5.8318   13.4799 C   0  0  0  0  0  0  0  0  0  0  0  0
    6.3715    6.0334   14.7114 C   0  0  0  0  0  0  0  0  0  0  0  0
    5.7500    7.6214   14.8333 S   0  0  0  0  0  0  0  0  0  0  0  0
 27 28  1  0  0  0
 28 29  2  0  0  0
 28 32  1  0  0  0
 29 30  1  0  0  0
 30 31  2  0  0  0
 31 22  1  0  0  0
 31 32  1  0  0  0
 22 23  2  0  0  0
 22 26  1  0  0  0
 23 24  1  0  0  0
 24 25  2  0  0  0
 25 19  1  0  0  0
 25 26  1  0  0  0
 19 20  2  0  0  0
 19 21  2  0  0  0
 19  1  1  0  0  0
  1  3  1  0  0  0
  3  4  1  0  0  0
  3  6  1  0  0  0
  4  5  1  0  0  0
  5  8  1  0  0  0
  6  7  2  0  0  0
  6  8  1  0  0  0
  8  9  1  0  0  0
  9 10  1  0  0  0
  9 11  1  0  0  0
 11 12  2  0  0  0
 11 13  1  0  0  0
 13 14  1  0  0  0
 13 18  1  0  0  0
 14 15  1  0  0  0
 15 16  1  0  0  0
 16 17  1  0  0  0
 17 18  1  0  0  0
  1  2  1  0  0  0
M  END
> <minimizedAffinity>
-6.37565

$$$$
