6CFC_BLG_A_601
  RCSB PDB05261800303D
Coordinates from PDB:6CFC:A:601 Model:1 without hydrogens
 35 36  0  0  0  0            999 V2000
  -42.2150   24.2610   -4.8540   C 0  0  0  0  0  0  0  0  0  0  0  0
  -43.4210   23.5300   -4.4950   C 0  0  0  0  0  0  0  0  0  0  0  0
  -44.2870   23.3950   -5.7600   C 0  0  0  0  0  0  0  0  0  0  0  0
  -44.5800   24.7800   -6.3280   C 0  0  0  0  0  0  0  0  0  0  0  0
  -43.2650   25.5160   -6.5560   C 0  0  0  0  0  0  0  0  0  0  0  0
  -42.5710   25.5540   -5.2880   O 0  0  0  0  0  0  0  0  0  0  0  0
  -41.3820   24.4520   -3.7010   O 0  0  0  0  0  0  0  0  0  0  0  0
  -42.9870   22.1960   -4.0050   N 0  0  0  0  0  0  0  0  0  0  0  0
  -43.1770   21.8370   -2.7320   C 0  0  0  0  0  0  0  0  0  0  0  0
  -43.7400   22.5280   -1.8770   O 0  0  0  0  0  0  0  0  0  0  0  0
  -42.6200   20.4740   -2.3780   C 0  0  0  0  0  0  0  0  0  0  0  0
  -45.4990   22.7290   -5.4130   O 0  0  0  0  0  0  0  0  0  0  0  0
  -45.2400   24.5850   -7.5590   O 0  0  0  0  0  0  0  0  0  0  0  0
  -46.7420   24.9420   -7.6970   S 0  0  0  0  0  0  0  0  0  0  0  0
  -47.0310   26.1810   -6.8940   O 0  0  0  0  0  0  0  0  0  0  0  0
  -47.5740   23.8220   -7.1560   O 0  0  0  0  0  0  0  0  0  0  0  0
  -47.0720   25.1900   -9.1610   O 0  0  0  0  0  0  0  0  0  0  0  0
  -43.3910   26.9440   -7.1120   C 0  0  0  0  0  0  0  0  0  0  0  0
  -44.1390   27.6430   -6.1290   O 0  0  0  0  0  0  0  0  0  0  0  0
  -39.1870   23.7890   -2.9490   C 0  0  0  0  0  0  0  0  0  0  0  0
  -39.9920   24.5260   -4.0140   C 0  0  0  0  0  0  0  0  0  0  0  0
  -39.4850   25.9420   -3.9130   C 0  0  0  0  0  0  0  0  0  0  0  0
  -38.0050   25.7220   -3.8030   C 0  0  0  0  0  0  0  0  0  0  0  0
  -37.8540   24.4250   -3.0580   N 0  3  0  0  0  0  0  0  0  0  0  0
  -39.1770   22.2970   -3.2530   C 0  0  0  0  0  0  0  0  0  0  0  0
  -38.2480   22.1240   -4.3630   O 0  0  0  0  0  0  0  0  0  0  0  0
  -37.2900   26.8980   -3.0610   C 0  0  0  0  0  0  0  0  0  0  0  0
  -37.5360   27.1500   -1.8720   O 0  0  0  0  0  0  0  0  0  0  0  0
  -36.3880   27.5490   -3.7990   N 0  0  0  0  0  0  0  0  0  0  0  0
  -35.4800   28.5680   -3.2770   C 0  0  0  0  0  0  0  0  0  0  0  0
  -34.2750   27.7280   -2.8160   C 0  0  0  0  0  0  0  0  0  0  0  0
  -32.9150   28.6870   -2.0600   S 0  0  0  0  0  0  0  0  0  0  0  0
  -31.7290   27.7640   -1.8100   O 0  0  0  0  0  0  0  0  0  0  0  0
  -33.3460   29.2320   -0.6920   O 0  0  0  0  0  0  0  0  0  0  0  0
  -32.5190   29.7880   -3.0610   O 0  0  0  0  0  0  0  0  0  0  0  0
  1  2  1  0  0  0  0
  1  6  1  0  0  0  0
  1  7  1  0  0  0  0
  2  3  1  0  0  0  0
  2  8  1  0  0  0  0
  3  4  1  0  0  0  0
  3 12  1  0  0  0  0
  4  5  1  0  0  0  0
  4 13  1  0  0  0  0
  5  6  1  0  0  0  0
  5 18  1  0  0  0  0
  7 21  1  0  0  0  0
  8  9  1  0  0  0  0
  9 10  2  0  0  0  0
  9 11  1  0  0  0  0
 13 14  1  0  0  0  0
 14 15  2  0  0  0  0
 14 16  2  0  0  0  0
 14 17  1  0  0  0  0
 18 19  1  0  0  0  0
 20 21  1  0  0  0  0
 20 24  1  0  0  0  0
 20 25  1  0  0  0  0
 21 22  1  0  0  0  0
 22 23  1  0  0  0  0
 23 24  1  0  0  0  0
 23 27  1  0  0  0  0
 25 26  1  0  0  0  0
 27 28  2  0  0  0  0
 27 29  1  0  0  0  0
 29 30  1  0  0  0  0
 30 31  1  0  0  0  0
 31 32  1  0  0  0  0
 32 33  2  0  0  0  0
 32 34  2  0  0  0  0
 32 35  1  0  0  0  0
M  CHG  1  24   1
A    1
C1
A    2
C2
A    3
C3
A    4
C4
A    5
C5
A    6
O5
A    7
O1
A    8
N2
A    9
C7
A   10
O7
A   11
C8
A   12
O3
A   13
O4
A   14
S4
A   15
O41
A   16
O42
A   17
O43
A   18
C6
A   19
O6
A   20
CA
A   21
CB
A   22
CG
A   23
CD
A   24
N
A   25
C9
A   26
O9
A   27
C10
A   28
O10
A   29
N3
A   30
C11
A   31
C12
A   32
S
A   33
OS1
A   34
OS2
A   35
OS3
M  END
>  <InstanceId>
6CFC_BLG_A_601

>  <ChemCompId>
BLG

>  <PdbId>
6CFC

>  <ChainId>
A

>  <ResidueNumber>
601

>  <InsertionCode>


>  <Model>
1

>  <AltIds>


>  <MissingHeavyAtoms>
0

>  <ObservedFormula>
C16 N3 O14 S2

>  <Name>
4-O-(4-O-SULFONYL-N-ACETYLGLUCOSAMININYL)-5-METHYLHYDROXY-L-PROLINE-TAURINE

>  <SystematicName>
2-[[(2S,4S,5R)-4-[(2R,3R,4R,5S,6R)-3-acetamido-4-hydroxy-6-(hydroxymethyl)-5-sulfooxy-oxan-2-yl]oxy-5-(hydroxymethyl)pyrrolidin-1-ium-2-yl]carbonylamino]ethanesulfonic acid

>  <Synonyms>
BULGECIN A

>  <Type>
NON-POLYMER

>  <Formula>
C16 H30 N3 O14 S2

>  <MolecularWeight>
552.551

>  <ModifiedDate>
2011-06-04

>  <Parent>


>  <OneLetterCode>


>  <SubcomponentList>


>  <AmbiguousFlag>
N

>  <InChI>
InChI=1S/C16H29N3O14S2/c1-7(22)18-12-13(23)14(33-35(28,29)30)11(6-21)32-16(12)31-10-4-8(19-9(10)5-20)15(24)17-2-3-34(25,26)27/h8-14,16,19-21,23H,2-6H2,1H3,(H,17,24)(H,18,22)(H,25,26,27)(H,28,29,30)/p+1/t8-,9+,10-,11+,12+,13+,14+,16+/m0/s1

>  <InChIKey>
RPNZWZDLNYCCIG-HMMVDTEZSA-O

>  <SMILES>
CC(=O)N[C@@H]1[C@H]([C@@H]([C@H](O[C@H]1O[C@H]2C[C@H]([NH2+][C@@H]2CO)C(=O)NCCS(=O)(=O)O)CO)OS(=O)(=O)O)O

$$$$
