6CFC_BLG_A_601


 44 45  0  0  0  0  0  0  0  0999 V2000
  -42.2094   24.2914   -4.8733 C   0  0  0  0  0  0  0  0  0  0  0  0
  -43.3962   23.5612   -4.4539 C   0  0  0  0  0  0  0  0  0  0  0  0
  -44.3161   23.4094   -5.6783 C   0  0  0  0  0  0  0  0  0  0  0  0
  -44.6380   24.7871   -6.2485 C   0  0  0  0  0  0  0  0  0  0  0  0
  -43.3366   25.5241   -6.5418 C   0  0  0  0  0  0  0  0  0  0  0  0
  -42.5882   25.5784   -5.3058 O   0  0  0  0  0  0  0  0  0  0  0  0
  -45.5096   22.7440   -5.2713 O   0  0  0  0  0  0  0  0  0  0  0  0
  -45.9506   23.2642   -4.5815 H   0  0  0  0  0  0  0  0  0  0  0  0
  -42.9369   22.2340   -3.9683 N   0  0  0  0  0  0  0  0  0  0  0  0
  -43.1370   21.8596   -2.7013 C   0  0  0  0  0  0  0  0  0  0  0  0
  -43.7295   22.5292   -1.8493 O   0  0  0  0  0  0  0  0  0  0  0  0
  -42.5520   20.5076   -2.3502 C   0  0  0  0  0  0  0  0  0  0  0  0
  -42.4788   21.6221   -4.5888 H   0  0  0  0  0  0  0  0  0  0  0  0
  -43.4914   26.9453   -7.1078 C   0  0  0  0  0  0  0  0  0  0  0  0
  -43.7141   26.7523   -8.4962 O   0  0  0  0  0  0  0  0  0  0  0  0
  -42.9703   26.2602   -8.8776 H   0  0  0  0  0  0  0  0  0  0  0  0
  -41.3275   24.4977   -3.7599 O   0  0  0  0  0  0  0  0  0  0  0  0
  -39.1946   23.5474   -3.1512 C   0  0  0  0  0  0  0  0  0  0  0  0
  -39.9469   24.4563   -4.1172 C   0  0  0  0  0  0  0  0  0  0  0  0
  -39.2903   25.7978   -3.9128 C   0  0  0  0  0  0  0  0  0  0  0  0
  -37.8394   25.4177   -3.8779 C   0  0  0  0  0  0  0  0  0  0  0  0
  -37.8055   24.0501   -3.2545 N   0  0  0  0  0  0  0  0  0  0  0  0
  -37.2537   23.4200   -3.8367 H   0  0  0  0  0  0  0  0  0  0  0  0
  -37.3810   24.0982   -2.3283 H   0  0  0  0  0  0  0  0  0  0  0  0
  -36.9834   26.4421   -3.0640 C   0  0  0  0  0  0  0  0  0  0  0  0
  -37.4946   27.1460   -2.1803 O   0  0  0  0  0  0  0  0  0  0  0  0
  -35.6853   26.4475   -3.3758 N   0  0  0  0  0  0  0  0  0  0  0  0
  -35.3958   25.9147   -4.1513 H   0  0  0  0  0  0  0  0  0  0  0  0
  -34.6665   27.1933   -2.6402 C   0  0  0  0  0  0  0  0  0  0  0  0
  -33.4539   26.2473   -2.7097 C   0  0  0  0  0  0  0  0  0  0  0  0
  -33.8440   24.4795   -2.4576 S   0  0  0  0  0  0  0  0  0  0  0  0
  -32.5466   23.6985   -2.2904 O   0  0  0  0  0  0  0  0  0  0  0  0
  -34.5461   23.9086   -3.6967 O   0  0  0  0  0  0  0  0  0  0  0  0
  -34.6867   24.3748   -1.1731 O   0  0  0  0  0  0  0  0  0  0  0  0
  -34.1904   24.7506   -0.4293 H   0  0  0  0  0  0  0  0  0  0  0  0
  -39.3511   22.0958   -3.5837 C   0  0  0  0  0  0  0  0  0  0  0  0
  -38.5823   21.9632   -4.8152 O   0  0  0  0  0  0  0  0  0  0  0  0
  -38.9204   22.5874   -5.4762 H   0  0  0  0  0  0  0  0  0  0  0  0
  -45.3504   24.5763   -7.4472 O   0  0  0  0  0  0  0  0  0  0  0  0
  -46.8173   25.0613   -7.5714 S   0  0  0  0  0  0  0  0  0  0  0  0
  -46.9718   26.3620   -6.8313 O   0  0  0  0  0  0  0  0  0  0  0  0
  -47.7319   24.0520   -6.9515 O   0  0  0  0  0  0  0  0  0  0  0  0
  -47.1631   25.2611   -9.0391 O   0  0  0  0  0  0  0  0  0  0  0  0
  -46.5625   25.9171   -9.4264 H   0  0  0  0  0  0  0  0  0  0  0  0
  1  2  1  0  0  0
  1  6  1  0  0  0
  1 17  1  0  0  0
  2  3  1  0  0  0
  2  9  1  0  0  0
  3  4  1  0  0  0
  3  7  1  0  0  0
  4  5  1  0  0  0
  4 39  1  0  0  0
  5  6  1  0  0  0
  5 14  1  0  0  0
 17 19  1  0  0  0
  9 10  1  0  0  0
 10 11  2  0  0  0
 10 12  1  0  0  0
 39 40  1  0  0  0
 40 41  2  0  0  0
 40 42  2  0  0  0
 40 43  1  0  0  0
 14 15  1  0  0  0
 18 19  1  0  0  0
 18 22  1  0  0  0
 18 36  1  0  0  0
 19 20  1  0  0  0
 20 21  1  0  0  0
 21 22  1  0  0  0
 21 25  1  0  0  0
 36 37  1  0  0  0
 25 26  2  0  0  0
 25 27  1  0  0  0
 27 29  1  0  0  0
 29 30  1  0  0  0
 30 31  1  0  0  0
 31 32  2  0  0  0
 31 33  2  0  0  0
 31 34  1  0  0  0
  9 13  1  0  0  0
  7  8  1  0  0  0
 43 44  1  0  0  0
 15 16  1  0  0  0
 22 23  1  0  0  0
 22 24  1  0  0  0
 37 38  1  0  0  0
 27 28  1  0  0  0
 34 35  1  0  0  0
M  CHG 1  22   1
M  END
> <minimizedAffinity>
-8.28465

$$$$
6CFC_BLG_A_601


 44 45  0  0  0  0  0  0  0  0999 V2000
  -38.9225   26.6120   -2.6812 C   0  0  0  0  0  0  0  0  0  0  0  0
  -38.9157   25.2538   -3.2034 C   0  0  0  0  0  0  0  0  0  0  0  0
  -37.6350   24.5612   -2.7049 C   0  0  0  0  0  0  0  0  0  0  0  0
  -36.4161   25.3693   -3.1384 C   0  0  0  0  0  0  0  0  0  0  0  0
  -36.5696   26.8060   -2.6533 C   0  0  0  0  0  0  0  0  0  0  0  0
  -37.8114   27.3101   -3.1962 O   0  0  0  0  0  0  0  0  0  0  0  0
  -37.5855   23.2462   -3.2537 O   0  0  0  0  0  0  0  0  0  0  0  0
  -37.5838   23.2999   -4.2222 H   0  0  0  0  0  0  0  0  0  0  0  0
  -40.1262   24.5793   -2.6668 N   0  0  0  0  0  0  0  0  0  0  0  0
  -40.7889   23.6764   -3.3955 C   0  0  0  0  0  0  0  0  0  0  0  0
  -40.4606   23.2970   -4.5241 O   0  0  0  0  0  0  0  0  0  0  0  0
  -42.0357   23.1313   -2.7308 C   0  0  0  0  0  0  0  0  0  0  0  0
  -40.4442   24.8008   -1.7618 H   0  0  0  0  0  0  0  0  0  0  0  0
  -35.4237   27.7598   -3.0291 C   0  0  0  0  0  0  0  0  0  0  0  0
  -34.3650   27.4056   -2.1527 O   0  0  0  0  0  0  0  0  0  0  0  0
  -34.6619   27.4966   -1.2337 H   0  0  0  0  0  0  0  0  0  0  0  0
  -40.0795   27.3227   -3.1460 O   0  0  0  0  0  0  0  0  0  0  0  0
  -40.3054   28.8786   -4.9767 C   0  0  0  0  0  0  0  0  0  0  0  0
  -40.1509   27.4176   -4.5678 C   0  0  0  0  0  0  0  0  0  0  0  0
  -41.4091   26.7759   -5.0946 C   0  0  0  0  0  0  0  0  0  0  0  0
  -41.5083   27.3899   -6.4598 C   0  0  0  0  0  0  0  0  0  0  0  0
  -40.9361   28.7723   -6.3124 N   0  0  0  0  0  0  0  0  0  0  0  0
  -40.2370   28.9346   -7.0371 H   0  0  0  0  0  0  0  0  0  0  0  0
  -41.6753   29.4688   -6.4068 H   0  0  0  0  0  0  0  0  0  0  0  0
  -42.9823   27.4302   -6.9799 C   0  0  0  0  0  0  0  0  0  0  0  0
  -43.3031   28.1415   -7.9437 O   0  0  0  0  0  0  0  0  0  0  0  0
  -43.8185   26.6155   -6.3324 N   0  0  0  0  0  0  0  0  0  0  0  0
  -43.4849   26.1594   -5.5263 H   0  0  0  0  0  0  0  0  0  0  0  0
  -45.1968   26.3571   -6.7430 C   0  0  0  0  0  0  0  0  0  0  0  0
  -45.1245   24.9002   -7.2352 C   0  0  0  0  0  0  0  0  0  0  0  0
  -44.3936   23.7228   -6.0434 S   0  0  0  0  0  0  0  0  0  0  0  0
  -44.9631   22.3329   -6.2980 O   0  0  0  0  0  0  0  0  0  0  0  0
  -44.7866   24.1049   -4.6103 O   0  0  0  0  0  0  0  0  0  0  0  0
  -42.8721   23.7160   -6.2803 O   0  0  0  0  0  0  0  0  0  0  0  0
  -42.6892   23.4681   -7.2001 H   0  0  0  0  0  0  0  0  0  0  0  0
  -38.9404   29.5531   -4.9993 C   0  0  0  0  0  0  0  0  0  0  0  0
  -38.0406   28.6073   -5.6480 O   0  0  0  0  0  0  0  0  0  0  0  0
  -38.0359   27.7735   -5.1524 H   0  0  0  0  0  0  0  0  0  0  0  0
  -35.2933   24.7741   -2.5268 O   0  0  0  0  0  0  0  0  0  0  0  0
  -34.1938   24.1173   -3.3998 S   0  0  0  0  0  0  0  0  0  0  0  0
  -33.3433   25.1945   -4.0160 O   0  0  0  0  0  0  0  0  0  0  0  0
  -34.8328   23.3304   -4.5005 O   0  0  0  0  0  0  0  0  0  0  0  0
  -33.3301   23.2138   -2.5328 O   0  0  0  0  0  0  0  0  0  0  0  0
  -32.9233   23.7376   -1.8250 H   0  0  0  0  0  0  0  0  0  0  0  0
  1  2  1  0  0  0
  1  6  1  0  0  0
  1 17  1  0  0  0
  2  3  1  0  0  0
  2  9  1  0  0  0
  3  4  1  0  0  0
  3  7  1  0  0  0
  4  5  1  0  0  0
  4 39  1  0  0  0
  5  6  1  0  0  0
  5 14  1  0  0  0
 17 19  1  0  0  0
  9 10  1  0  0  0
 10 11  2  0  0  0
 10 12  1  0  0  0
 39 40  1  0  0  0
 40 41  2  0  0  0
 40 42  2  0  0  0
 40 43  1  0  0  0
 14 15  1  0  0  0
 18 19  1  0  0  0
 18 22  1  0  0  0
 18 36  1  0  0  0
 19 20  1  0  0  0
 20 21  1  0  0  0
 21 22  1  0  0  0
 21 25  1  0  0  0
 36 37  1  0  0  0
 25 26  2  0  0  0
 25 27  1  0  0  0
 27 29  1  0  0  0
 29 30  1  0  0  0
 30 31  1  0  0  0
 31 32  2  0  0  0
 31 33  2  0  0  0
 31 34  1  0  0  0
  9 13  1  0  0  0
  7  8  1  0  0  0
 43 44  1  0  0  0
 15 16  1  0  0  0
 22 23  1  0  0  0
 22 24  1  0  0  0
 37 38  1  0  0  0
 27 28  1  0  0  0
 34 35  1  0  0  0
M  CHG 1  22   1
M  END
> <minimizedAffinity>
-7.70374

$$$$
6CFC_BLG_A_601


 44 45  0  0  0  0  0  0  0  0999 V2000
  -42.8909   25.7106   -5.2343 C   0  0  0  0  0  0  0  0  0  0  0  0
  -42.8459   24.2639   -5.0836 C   0  0  0  0  0  0  0  0  0  0  0  0
  -41.9152   23.9398   -3.9016 C   0  0  0  0  0  0  0  0  0  0  0  0
  -40.5410   24.5530   -4.1511 C   0  0  0  0  0  0  0  0  0  0  0  0
  -40.6999   26.0447   -4.4204 C   0  0  0  0  0  0  0  0  0  0  0  0
  -41.5994   26.1827   -5.5442 O   0  0  0  0  0  0  0  0  0  0  0  0
  -41.8162   22.5230   -3.7753 O   0  0  0  0  0  0  0  0  0  0  0  0
  -41.4600   22.1493   -4.5964 H   0  0  0  0  0  0  0  0  0  0  0  0
  -44.2347   23.8161   -4.8028 N   0  0  0  0  0  0  0  0  0  0  0  0
  -44.8368   22.9151   -5.5846 C   0  0  0  0  0  0  0  0  0  0  0  0
  -44.3153   22.3576   -6.5555 O   0  0  0  0  0  0  0  0  0  0  0  0
  -46.2710   22.6155   -5.2016 C   0  0  0  0  0  0  0  0  0  0  0  0
  -44.7179   24.1884   -4.0301 H   0  0  0  0  0  0  0  0  0  0  0  0
  -39.3981   26.8093   -4.7116 C   0  0  0  0  0  0  0  0  0  0  0  0
  -38.6631   25.9466   -5.5659 O   0  0  0  0  0  0  0  0  0  0  0  0
  -38.5237   25.0949   -5.1230 H   0  0  0  0  0  0  0  0  0  0  0  0
  -43.7171   26.0734   -6.3503 O   0  0  0  0  0  0  0  0  0  0  0  0
  -44.7280   28.0416   -7.3133 C   0  0  0  0  0  0  0  0  0  0  0  0
  -43.4327   27.3732   -6.8651 C   0  0  0  0  0  0  0  0  0  0  0  0
  -42.6272   27.2918   -8.1367 C   0  0  0  0  0  0  0  0  0  0  0  0
  -42.8570   28.6534   -8.7233 C   0  0  0  0  0  0  0  0  0  0  0  0
  -44.2506   29.0321   -8.3054 N   0  0  0  0  0  0  0  0  0  0  0  0
  -44.2436   29.9624   -7.8872 H   0  0  0  0  0  0  0  0  0  0  0  0
  -44.8689   29.0409   -9.1165 H   0  0  0  0  0  0  0  0  0  0  0  0
  -42.7026   28.6562  -10.2793 C   0  0  0  0  0  0  0  0  0  0  0  0
  -43.1458   29.5887  -10.9660 O   0  0  0  0  0  0  0  0  0  0  0  0
  -42.0294   27.6126  -10.7689 N   0  0  0  0  0  0  0  0  0  0  0  0
  -41.7963   26.8834  -10.1498 H   0  0  0  0  0  0  0  0  0  0  0  0
  -41.6162   27.4826  -12.1645 C   0  0  0  0  0  0  0  0  0  0  0  0
  -40.3552   26.6064  -12.0526 C   0  0  0  0  0  0  0  0  0  0  0  0
  -39.0971   27.2184  -10.8765 S   0  0  0  0  0  0  0  0  0  0  0  0
  -39.1472   28.7406  -10.8354 O   0  0  0  0  0  0  0  0  0  0  0  0
  -37.6908   26.8360  -11.3565 O   0  0  0  0  0  0  0  0  0  0  0  0
  -39.4482   26.6460   -9.4908 O   0  0  0  0  0  0  0  0  0  0  0  0
  -40.3451   26.9217   -9.2449 H   0  0  0  0  0  0  0  0  0  0  0  0
  -45.4249   28.6684   -6.1133 C   0  0  0  0  0  0  0  0  0  0  0  0
  -44.3980   28.8141   -5.0889 O   0  0  0  0  0  0  0  0  0  0  0  0
  -44.0175   27.9450   -4.8867 H   0  0  0  0  0  0  0  0  0  0  0  0
  -39.7865   24.3557   -2.9760 O   0  0  0  0  0  0  0  0  0  0  0  0
  -38.5414   23.4329   -3.0015 S   0  0  0  0  0  0  0  0  0  0  0  0
  -37.5189   23.9561   -2.0298 O   0  0  0  0  0  0  0  0  0  0  0  0
  -37.9406   23.4413   -4.3719 O   0  0  0  0  0  0  0  0  0  0  0  0
  -38.9484   22.0209   -2.6084 O   0  0  0  0  0  0  0  0  0  0  0  0
  -39.3356   22.0318   -1.7190 H   0  0  0  0  0  0  0  0  0  0  0  0
  1  2  1  0  0  0
  1  6  1  0  0  0
  1 17  1  0  0  0
  2  3  1  0  0  0
  2  9  1  0  0  0
  3  4  1  0  0  0
  3  7  1  0  0  0
  4  5  1  0  0  0
  4 39  1  0  0  0
  5  6  1  0  0  0
  5 14  1  0  0  0
 17 19  1  0  0  0
  9 10  1  0  0  0
 10 11  2  0  0  0
 10 12  1  0  0  0
 39 40  1  0  0  0
 40 41  2  0  0  0
 40 42  2  0  0  0
 40 43  1  0  0  0
 14 15  1  0  0  0
 18 19  1  0  0  0
 18 22  1  0  0  0
 18 36  1  0  0  0
 19 20  1  0  0  0
 20 21  1  0  0  0
 21 22  1  0  0  0
 21 25  1  0  0  0
 36 37  1  0  0  0
 25 26  2  0  0  0
 25 27  1  0  0  0
 27 29  1  0  0  0
 29 30  1  0  0  0
 30 31  1  0  0  0
 31 32  2  0  0  0
 31 33  2  0  0  0
 31 34  1  0  0  0
  9 13  1  0  0  0
  7  8  1  0  0  0
 43 44  1  0  0  0
 15 16  1  0  0  0
 22 23  1  0  0  0
 22 24  1  0  0  0
 37 38  1  0  0  0
 27 28  1  0  0  0
 34 35  1  0  0  0
M  CHG 1  22   1
M  END
> <minimizedAffinity>
-7.66073

$$$$
6CFC_BLG_A_601


 44 45  0  0  0  0  0  0  0  0999 V2000
  -41.8550   23.9613   -4.4193 C   0  0  0  0  0  0  0  0  0  0  0  0
  -40.7483   23.0975   -4.0362 C   0  0  0  0  0  0  0  0  0  0  0  0
  -39.9086   23.8426   -2.9835 C   0  0  0  0  0  0  0  0  0  0  0  0
  -39.4472   25.1805   -3.5526 C   0  0  0  0  0  0  0  0  0  0  0  0
  -40.6611   25.9626   -4.0400 C   0  0  0  0  0  0  0  0  0  0  0  0
  -41.3422   25.1340   -5.0098 O   0  0  0  0  0  0  0  0  0  0  0  0
  -38.7879   23.0317   -2.6380 O   0  0  0  0  0  0  0  0  0  0  0  0
  -38.2570   22.8590   -3.4312 H   0  0  0  0  0  0  0  0  0  0  0  0
  -41.3435   21.8628   -3.4623 N   0  0  0  0  0  0  0  0  0  0  0  0
  -42.2969   21.9302   -2.5285 C   0  0  0  0  0  0  0  0  0  0  0  0
  -42.7878   22.9755   -2.0907 O   0  0  0  0  0  0  0  0  0  0  0  0
  -42.7505   20.5849   -2.0013 C   0  0  0  0  0  0  0  0  0  0  0  0
  -41.0310   20.9830   -3.7744 H   0  0  0  0  0  0  0  0  0  0  0  0
  -40.3600   27.3356   -4.6633 C   0  0  0  0  0  0  0  0  0  0  0  0
  -40.0784   28.1750   -3.5540 O   0  0  0  0  0  0  0  0  0  0  0  0
  -40.8380   28.1794   -2.9508 H   0  0  0  0  0  0  0  0  0  0  0  0
  -42.6553   23.3327   -5.4313 O   0  0  0  0  0  0  0  0  0  0  0  0
  -44.8522   22.7868   -6.2671 C   0  0  0  0  0  0  0  0  0  0  0  0
  -44.0271   23.7226   -5.3902 C   0  0  0  0  0  0  0  0  0  0  0  0
  -44.2304   25.0700   -6.0348 C   0  0  0  0  0  0  0  0  0  0  0  0
  -45.7062   25.0522   -6.3043 C   0  0  0  0  0  0  0  0  0  0  0  0
  -46.0366   23.6142   -6.5923 N   0  0  0  0  0  0  0  0  0  0  0  0
  -46.8286   23.3216   -6.0200 H   0  0  0  0  0  0  0  0  0  0  0  0
  -46.2825   23.5019   -7.5759 H   0  0  0  0  0  0  0  0  0  0  0  0
  -46.0962   25.9823   -7.4991 C   0  0  0  0  0  0  0  0  0  0  0  0
  -45.8927   27.2047   -7.4532 O   0  0  0  0  0  0  0  0  0  0  0  0
  -46.6097   25.3422   -8.5521 N   0  0  0  0  0  0  0  0  0  0  0  0
  -46.8117   24.3836   -8.4546 H   0  0  0  0  0  0  0  0  0  0  0  0
  -46.8912   25.9725   -9.8400 C   0  0  0  0  0  0  0  0  0  0  0  0
  -47.4891   24.8083  -10.6508 C   0  0  0  0  0  0  0  0  0  0  0  0
  -48.6428   23.7381   -9.7210 S   0  0  0  0  0  0  0  0  0  0  0  0
  -49.4359   24.5903   -8.7382 O   0  0  0  0  0  0  0  0  0  0  0  0
  -47.8620   22.7140   -8.8869 O   0  0  0  0  0  0  0  0  0  0  0  0
  -49.5970   23.0951  -10.7443 O   0  0  0  0  0  0  0  0  0  0  0  0
  -50.0589   23.7910  -11.2375 H   0  0  0  0  0  0  0  0  0  0  0  0
  -45.1882   21.5196   -5.4925 C   0  0  0  0  0  0  0  0  0  0  0  0
  -44.1763   20.5416   -5.8727 O   0  0  0  0  0  0  0  0  0  0  0  0
  -44.2002   20.4084   -6.8332 H   0  0  0  0  0  0  0  0  0  0  0  0
  -38.8193   25.8772   -2.4993 O   0  0  0  0  0  0  0  0  0  0  0  0
  -37.3070   26.2066   -2.5824 S   0  0  0  0  0  0  0  0  0  0  0  0
  -37.1143   27.6891   -2.4133 O   0  0  0  0  0  0  0  0  0  0  0  0
  -36.7821   25.8110   -3.9268 O   0  0  0  0  0  0  0  0  0  0  0  0
  -36.5647   25.4633   -1.4823 O   0  0  0  0  0  0  0  0  0  0  0  0
  -36.9157   25.7300   -0.6183 H   0  0  0  0  0  0  0  0  0  0  0  0
  1  2  1  0  0  0
  1  6  1  0  0  0
  1 17  1  0  0  0
  2  3  1  0  0  0
  2  9  1  0  0  0
  3  4  1  0  0  0
  3  7  1  0  0  0
  4  5  1  0  0  0
  4 39  1  0  0  0
  5  6  1  0  0  0
  5 14  1  0  0  0
 17 19  1  0  0  0
  9 10  1  0  0  0
 10 11  2  0  0  0
 10 12  1  0  0  0
 39 40  1  0  0  0
 40 41  2  0  0  0
 40 42  2  0  0  0
 40 43  1  0  0  0
 14 15  1  0  0  0
 18 19  1  0  0  0
 18 22  1  0  0  0
 18 36  1  0  0  0
 19 20  1  0  0  0
 20 21  1  0  0  0
 21 22  1  0  0  0
 21 25  1  0  0  0
 36 37  1  0  0  0
 25 26  2  0  0  0
 25 27  1  0  0  0
 27 29  1  0  0  0
 29 30  1  0  0  0
 30 31  1  0  0  0
 31 32  2  0  0  0
 31 33  2  0  0  0
 31 34  1  0  0  0
  9 13  1  0  0  0
  7  8  1  0  0  0
 43 44  1  0  0  0
 15 16  1  0  0  0
 22 23  1  0  0  0
 22 24  1  0  0  0
 37 38  1  0  0  0
 27 28  1  0  0  0
 34 35  1  0  0  0
M  CHG 1  22   1
M  END
> <minimizedAffinity>
-7.49393

$$$$
6CFC_BLG_A_601


 44 45  0  0  0  0  0  0  0  0999 V2000
  -38.4249   25.8581   -3.8315 C   0  0  0  0  0  0  0  0  0  0  0  0
  -39.3989   26.5775   -4.6387 C   0  0  0  0  0  0  0  0  0  0  0  0
  -40.8019   26.0969   -4.2277 C   0  0  0  0  0  0  0  0  0  0  0  0
  -40.8930   24.5838   -4.3971 C   0  0  0  0  0  0  0  0  0  0  0  0
  -39.7617   23.9238   -3.6177 C   0  0  0  0  0  0  0  0  0  0  0  0
  -38.5215   24.4799   -4.1111 O   0  0  0  0  0  0  0  0  0  0  0  0
  -41.7661   26.7521   -5.0486 O   0  0  0  0  0  0  0  0  0  0  0  0
  -41.5966   26.5386   -5.9796 H   0  0  0  0  0  0  0  0  0  0  0  0
  -39.2246   28.0224   -4.3390 N   0  0  0  0  0  0  0  0  0  0  0  0
  -39.3186   28.9403   -5.3054 C   0  0  0  0  0  0  0  0  0  0  0  0
  -39.5844   28.7005   -6.4875 O   0  0  0  0  0  0  0  0  0  0  0  0
  -39.0510   30.3587   -4.8474 C   0  0  0  0  0  0  0  0  0  0  0  0
  -39.0372   28.3074   -3.4154 H   0  0  0  0  0  0  0  0  0  0  0  0
  -39.7030   22.3897   -3.7034 C   0  0  0  0  0  0  0  0  0  0  0  0
  -38.8444   22.0073   -2.6399 O   0  0  0  0  0  0  0  0  0  0  0  0
  -37.9817   22.4367   -2.7506 H   0  0  0  0  0  0  0  0  0  0  0  0
  -37.0904   26.2381   -4.1982 O   0  0  0  0  0  0  0  0  0  0  0  0
  -35.0575   27.1936   -3.3166 C   0  0  0  0  0  0  0  0  0  0  0  0
  -36.1640   26.1636   -3.1158 C   0  0  0  0  0  0  0  0  0  0  0  0
  -35.4213   24.8519   -3.1230 C   0  0  0  0  0  0  0  0  0  0  0  0
  -34.2365   25.1749   -2.2613 C   0  0  0  0  0  0  0  0  0  0  0  0
  -33.9439   26.6263   -2.5220 N   0  0  0  0  0  0  0  0  0  0  0  0
  -33.8636   27.1257   -1.6363 H   0  0  0  0  0  0  0  0  0  0  0  0
  -33.0661   26.7200   -3.0330 H   0  0  0  0  0  0  0  0  0  0  0  0
  -33.0046   24.2712   -2.5938 C   0  0  0  0  0  0  0  0  0  0  0  0
  -33.1139   23.0379   -2.6627 O   0  0  0  0  0  0  0  0  0  0  0  0
  -31.8757   24.9428   -2.8319 N   0  0  0  0  0  0  0  0  0  0  0  0
  -31.8733   25.9131   -2.6655 H   0  0  0  0  0  0  0  0  0  0  0  0
  -30.6433   24.3306   -3.3236 C   0  0  0  0  0  0  0  0  0  0  0  0
  -30.3338   25.1751   -4.5731 C   0  0  0  0  0  0  0  0  0  0  0  0
  -31.6063   25.1025   -5.8832 S   0  0  0  0  0  0  0  0  0  0  0  0
  -32.7177   26.0926   -5.5584 O   0  0  0  0  0  0  0  0  0  0  0  0
  -32.2518   23.7110   -5.9201 O   0  0  0  0  0  0  0  0  0  0  0  0
  -30.9247   25.4969   -7.2064 O   0  0  0  0  0  0  0  0  0  0  0  0
  -30.5378   26.3821   -7.1195 H   0  0  0  0  0  0  0  0  0  0  0  0
  -35.5268   28.5552   -2.8225 C   0  0  0  0  0  0  0  0  0  0  0  0
  -36.8996   28.3626   -2.3714 O   0  0  0  0  0  0  0  0  0  0  0  0
  -37.4372   28.0273   -3.1058 H   0  0  0  0  0  0  0  0  0  0  0  0
  -42.1372   24.1876   -3.8642 O   0  0  0  0  0  0  0  0  0  0  0  0
  -43.2980   23.7989   -4.8150 S   0  0  0  0  0  0  0  0  0  0  0  0
  -44.2683   24.9451   -4.9042 O   0  0  0  0  0  0  0  0  0  0  0  0
  -44.0192   22.6094   -4.2634 O   0  0  0  0  0  0  0  0  0  0  0  0
  -42.7405   23.4890   -6.1959 O   0  0  0  0  0  0  0  0  0  0  0  0
  -42.2765   24.2685   -6.5396 H   0  0  0  0  0  0  0  0  0  0  0  0
  1  2  1  0  0  0
  1  6  1  0  0  0
  1 17  1  0  0  0
  2  3  1  0  0  0
  2  9  1  0  0  0
  3  4  1  0  0  0
  3  7  1  0  0  0
  4  5  1  0  0  0
  4 39  1  0  0  0
  5  6  1  0  0  0
  5 14  1  0  0  0
 17 19  1  0  0  0
  9 10  1  0  0  0
 10 11  2  0  0  0
 10 12  1  0  0  0
 39 40  1  0  0  0
 40 41  2  0  0  0
 40 42  2  0  0  0
 40 43  1  0  0  0
 14 15  1  0  0  0
 18 19  1  0  0  0
 18 22  1  0  0  0
 18 36  1  0  0  0
 19 20  1  0  0  0
 20 21  1  0  0  0
 21 22  1  0  0  0
 21 25  1  0  0  0
 36 37  1  0  0  0
 25 26  2  0  0  0
 25 27  1  0  0  0
 27 29  1  0  0  0
 29 30  1  0  0  0
 30 31  1  0  0  0
 31 32  2  0  0  0
 31 33  2  0  0  0
 31 34  1  0  0  0
  9 13  1  0  0  0
  7  8  1  0  0  0
 43 44  1  0  0  0
 15 16  1  0  0  0
 22 23  1  0  0  0
 22 24  1  0  0  0
 37 38  1  0  0  0
 27 28  1  0  0  0
 34 35  1  0  0  0
M  CHG 1  22   1
M  END
> <minimizedAffinity>
-7.45574

$$$$
6CFC_BLG_A_601


 44 45  0  0  0  0  0  0  0  0999 V2000
  -40.7755   26.1237   -5.1169 C   0  0  0  0  0  0  0  0  0  0  0  0
  -40.1301   27.2790   -4.5115 C   0  0  0  0  0  0  0  0  0  0  0  0
  -38.6123   27.0246   -4.5062 C   0  0  0  0  0  0  0  0  0  0  0  0
  -38.3155   25.7240   -3.7664 C   0  0  0  0  0  0  0  0  0  0  0  0
  -39.1281   24.5961   -4.3912 C   0  0  0  0  0  0  0  0  0  0  0  0
  -40.5193   24.9850   -4.3266 O   0  0  0  0  0  0  0  0  0  0  0  0
  -37.9688   28.1237   -3.8653 O   0  0  0  0  0  0  0  0  0  0  0  0
  -38.2992   28.2071   -2.9572 H   0  0  0  0  0  0  0  0  0  0  0  0
  -40.4676   28.4537   -5.3566 N   0  0  0  0  0  0  0  0  0  0  0  0
  -41.0583   29.5307   -4.8307 C   0  0  0  0  0  0  0  0  0  0  0  0
  -41.3397   29.6729   -3.6365 O   0  0  0  0  0  0  0  0  0  0  0  0
  -41.3937   30.6122   -5.8363 C   0  0  0  0  0  0  0  0  0  0  0  0
  -40.2530   28.4382   -6.3173 H   0  0  0  0  0  0  0  0  0  0  0  0
  -38.9539   23.2134   -3.7415 C   0  0  0  0  0  0  0  0  0  0  0  0
  -37.7600   22.7007   -4.3127 O   0  0  0  0  0  0  0  0  0  0  0  0
  -37.8512   22.6687   -5.2779 H   0  0  0  0  0  0  0  0  0  0  0  0
  -42.2014   26.2872   -5.1151 O   0  0  0  0  0  0  0  0  0  0  0  0
  -44.0131   26.0522   -6.6917 C   0  0  0  0  0  0  0  0  0  0  0  0
  -42.8786   25.3511   -5.9521 C   0  0  0  0  0  0  0  0  0  0  0  0
  -43.5928   24.3054   -5.1342 C   0  0  0  0  0  0  0  0  0  0  0  0
  -44.5731   23.7638   -6.1324 C   0  0  0  0  0  0  0  0  0  0  0  0
  -44.9287   24.9323   -7.0090 N   0  0  0  0  0  0  0  0  0  0  0  0
  -44.8260   24.6708   -7.9896 H   0  0  0  0  0  0  0  0  0  0  0  0
  -45.8952   25.2128   -6.8431 H   0  0  0  0  0  0  0  0  0  0  0  0
  -45.8381   23.1561   -5.4431 C   0  0  0  0  0  0  0  0  0  0  0  0
  -45.8707   22.9630   -4.2186 O   0  0  0  0  0  0  0  0  0  0  0  0
  -46.8574   22.9182   -6.2715 N   0  0  0  0  0  0  0  0  0  0  0  0
  -46.6999   23.0234   -7.2376 H   0  0  0  0  0  0  0  0  0  0  0  0
  -48.1921   22.5118   -5.8370 C   0  0  0  0  0  0  0  0  0  0  0  0
  -48.1318   20.9803   -5.9825 C   0  0  0  0  0  0  0  0  0  0  0  0
  -47.4673   20.3865   -7.5783 S   0  0  0  0  0  0  0  0  0  0  0  0
  -47.7295   21.4348   -8.6522 O   0  0  0  0  0  0  0  0  0  0  0  0
  -48.2002   19.1120   -8.0175 O   0  0  0  0  0  0  0  0  0  0  0  0
  -45.9507   20.1899   -7.3985 O   0  0  0  0  0  0  0  0  0  0  0  0
  -45.5467   21.0272   -7.1217 H   0  0  0  0  0  0  0  0  0  0  0  0
  -43.4642   26.7584   -7.9240 C   0  0  0  0  0  0  0  0  0  0  0  0
  -42.8441   27.9841   -7.4362 O   0  0  0  0  0  0  0  0  0  0  0  0
  -43.5050   28.5158   -6.9656 H   0  0  0  0  0  0  0  0  0  0  0  0
  -36.9379   25.4684   -3.9270 O   0  0  0  0  0  0  0  0  0  0  0  0
  -36.0045   25.4510   -2.6897 S   0  0  0  0  0  0  0  0  0  0  0  0
  -35.4098   26.8199   -2.5003 O   0  0  0  0  0  0  0  0  0  0  0  0
  -34.8907   24.4779   -2.9172 O   0  0  0  0  0  0  0  0  0  0  0  0
  -36.8051   25.0634   -1.4558 O   0  0  0  0  0  0  0  0  0  0  0  0
  -37.5223   25.7026   -1.3218 H   0  0  0  0  0  0  0  0  0  0  0  0
  1  2  1  0  0  0
  1  6  1  0  0  0
  1 17  1  0  0  0
  2  3  1  0  0  0
  2  9  1  0  0  0
  3  4  1  0  0  0
  3  7  1  0  0  0
  4  5  1  0  0  0
  4 39  1  0  0  0
  5  6  1  0  0  0
  5 14  1  0  0  0
 17 19  1  0  0  0
  9 10  1  0  0  0
 10 11  2  0  0  0
 10 12  1  0  0  0
 39 40  1  0  0  0
 40 41  2  0  0  0
 40 42  2  0  0  0
 40 43  1  0  0  0
 14 15  1  0  0  0
 18 19  1  0  0  0
 18 22  1  0  0  0
 18 36  1  0  0  0
 19 20  1  0  0  0
 20 21  1  0  0  0
 21 22  1  0  0  0
 21 25  1  0  0  0
 36 37  1  0  0  0
 25 26  2  0  0  0
 25 27  1  0  0  0
 27 29  1  0  0  0
 29 30  1  0  0  0
 30 31  1  0  0  0
 31 32  2  0  0  0
 31 33  2  0  0  0
 31 34  1  0  0  0
  9 13  1  0  0  0
  7  8  1  0  0  0
 43 44  1  0  0  0
 15 16  1  0  0  0
 22 23  1  0  0  0
 22 24  1  0  0  0
 37 38  1  0  0  0
 27 28  1  0  0  0
 34 35  1  0  0  0
M  CHG 1  22   1
M  END
> <minimizedAffinity>
-7.31529

$$$$
6CFC_BLG_A_601


 44 45  0  0  0  0  0  0  0  0999 V2000
  -41.4730   26.6241   -5.1845 C   0  0  0  0  0  0  0  0  0  0  0  0
  -40.3685   27.5451   -4.9622 C   0  0  0  0  0  0  0  0  0  0  0  0
  -39.0558   26.7629   -5.1450 C   0  0  0  0  0  0  0  0  0  0  0  0
  -39.0350   25.5712   -4.1931 C   0  0  0  0  0  0  0  0  0  0  0  0
  -40.2887   24.7329   -4.4131 C   0  0  0  0  0  0  0  0  0  0  0  0
  -41.4257   25.6036   -4.2133 O   0  0  0  0  0  0  0  0  0  0  0  0
  -37.9630   27.6384   -4.8759 O   0  0  0  0  0  0  0  0  0  0  0  0
  -38.0322   27.9721   -3.9678 H   0  0  0  0  0  0  0  0  0  0  0  0
  -40.4913   28.6198   -5.9810 N   0  0  0  0  0  0  0  0  0  0  0  0
  -40.1067   29.8703   -5.7095 C   0  0  0  0  0  0  0  0  0  0  0  0
  -39.5980   30.2407   -4.6467 O   0  0  0  0  0  0  0  0  0  0  0  0
  -40.3583   30.8579   -6.8297 C   0  0  0  0  0  0  0  0  0  0  0  0
  -40.8613   28.4075   -6.8683 H   0  0  0  0  0  0  0  0  0  0  0  0
  -40.4276   23.4963   -3.5099 C   0  0  0  0  0  0  0  0  0  0  0  0
  -39.9470   23.9248   -2.2451 O   0  0  0  0  0  0  0  0  0  0  0  0
  -39.0341   24.2400   -2.3359 H   0  0  0  0  0  0  0  0  0  0  0  0
  -42.7291   27.2904   -4.9894 O   0  0  0  0  0  0  0  0  0  0  0  0
  -43.2107   26.0368   -6.9943 C   0  0  0  0  0  0  0  0  0  0  0  0
  -43.5788   27.2411   -6.1344 C   0  0  0  0  0  0  0  0  0  0  0  0
  -43.3269   28.4110   -7.0512 C   0  0  0  0  0  0  0  0  0  0  0  0
  -43.9315   27.9207   -8.3337 C   0  0  0  0  0  0  0  0  0  0  0  0
  -43.7079   26.4341   -8.3315 N   0  0  0  0  0  0  0  0  0  0  0  0
  -44.5857   25.9537   -8.5292 H   0  0  0  0  0  0  0  0  0  0  0  0
  -43.0265   26.1817   -9.0474 H   0  0  0  0  0  0  0  0  0  0  0  0
  -43.2832   28.5979   -9.5851 C   0  0  0  0  0  0  0  0  0  0  0  0
  -43.3282   29.8268   -9.7447 O   0  0  0  0  0  0  0  0  0  0  0  0
  -42.6603   27.7526  -10.4094 N   0  0  0  0  0  0  0  0  0  0  0  0
  -42.7576   26.7878  -10.2393 H   0  0  0  0  0  0  0  0  0  0  0  0
  -41.8433   28.1669  -11.5479 C   0  0  0  0  0  0  0  0  0  0  0  0
  -40.6429   27.2073  -11.4564 C   0  0  0  0  0  0  0  0  0  0  0  0
  -39.5292   27.5043  -10.0378 S   0  0  0  0  0  0  0  0  0  0  0  0
  -39.2321   28.9951   -9.9369 O   0  0  0  0  0  0  0  0  0  0  0  0
  -38.1843   26.8006  -10.2621 O   0  0  0  0  0  0  0  0  0  0  0  0
  -40.2647   27.0306   -8.7707 O   0  0  0  0  0  0  0  0  0  0  0  0
  -41.1034   27.5103   -8.6853 H   0  0  0  0  0  0  0  0  0  0  0  0
  -43.8813   24.7864   -6.4417 C   0  0  0  0  0  0  0  0  0  0  0  0
  -43.0249   23.6721   -6.8292 O   0  0  0  0  0  0  0  0  0  0  0  0
  -42.9376   23.6521   -7.7950 H   0  0  0  0  0  0  0  0  0  0  0  0
  -37.8893   24.8135   -4.5127 O   0  0  0  0  0  0  0  0  0  0  0  0
  -36.6996   24.7535   -3.5210 S   0  0  0  0  0  0  0  0  0  0  0  0
  -35.6884   23.7586   -4.0222 O   0  0  0  0  0  0  0  0  0  0  0  0
  -37.1876   24.2990   -2.1814 O   0  0  0  0  0  0  0  0  0  0  0  0
  -36.0582   26.1286   -3.4144 O   0  0  0  0  0  0  0  0  0  0  0  0
  -35.7474   26.4091   -4.2894 H   0  0  0  0  0  0  0  0  0  0  0  0
  1  2  1  0  0  0
  1  6  1  0  0  0
  1 17  1  0  0  0
  2  3  1  0  0  0
  2  9  1  0  0  0
  3  4  1  0  0  0
  3  7  1  0  0  0
  4  5  1  0  0  0
  4 39  1  0  0  0
  5  6  1  0  0  0
  5 14  1  0  0  0
 17 19  1  0  0  0
  9 10  1  0  0  0
 10 11  2  0  0  0
 10 12  1  0  0  0
 39 40  1  0  0  0
 40 41  2  0  0  0
 40 42  2  0  0  0
 40 43  1  0  0  0
 14 15  1  0  0  0
 18 19  1  0  0  0
 18 22  1  0  0  0
 18 36  1  0  0  0
 19 20  1  0  0  0
 20 21  1  0  0  0
 21 22  1  0  0  0
 21 25  1  0  0  0
 36 37  1  0  0  0
 25 26  2  0  0  0
 25 27  1  0  0  0
 27 29  1  0  0  0
 29 30  1  0  0  0
 30 31  1  0  0  0
 31 32  2  0  0  0
 31 33  2  0  0  0
 31 34  1  0  0  0
  9 13  1  0  0  0
  7  8  1  0  0  0
 43 44  1  0  0  0
 15 16  1  0  0  0
 22 23  1  0  0  0
 22 24  1  0  0  0
 37 38  1  0  0  0
 27 28  1  0  0  0
 34 35  1  0  0  0
M  CHG 1  22   1
M  END
> <minimizedAffinity>
-7.04482

$$$$
6CFC_BLG_A_601


 44 45  0  0  0  0  0  0  0  0999 V2000
  -41.3419   25.6100   -4.9246 C   0  0  0  0  0  0  0  0  0  0  0  0
  -40.8028   26.8871   -4.4817 C   0  0  0  0  0  0  0  0  0  0  0  0
  -39.2737   26.8391   -4.6490 C   0  0  0  0  0  0  0  0  0  0  0  0
  -38.7119   25.6553   -3.8681 C   0  0  0  0  0  0  0  0  0  0  0  0
  -39.4214   24.3813   -4.3111 C   0  0  0  0  0  0  0  0  0  0  0  0
  -40.8373   24.5848   -4.0992 O   0  0  0  0  0  0  0  0  0  0  0  0
  -38.7245   28.0634   -4.1671 O   0  0  0  0  0  0  0  0  0  0  0  0
  -38.9573   28.1765   -3.2323 H   0  0  0  0  0  0  0  0  0  0  0  0
  -41.3988   27.9325   -5.3535 N   0  0  0  0  0  0  0  0  0  0  0  0
  -41.6503   29.1575   -4.8828 C   0  0  0  0  0  0  0  0  0  0  0  0
  -41.3923   29.5441   -3.7385 O   0  0  0  0  0  0  0  0  0  0  0  0
  -42.3174   30.0838   -5.8779 C   0  0  0  0  0  0  0  0  0  0  0  0
  -41.6113   27.7195   -6.2909 H   0  0  0  0  0  0  0  0  0  0  0  0
  -38.9787   23.0926   -3.5987 C   0  0  0  0  0  0  0  0  0  0  0  0
  -37.7632   22.7335   -4.2376 O   0  0  0  0  0  0  0  0  0  0  0  0
  -37.9191   22.6190   -5.1881 H   0  0  0  0  0  0  0  0  0  0  0  0
  -42.7668   25.5810   -4.7557 O   0  0  0  0  0  0  0  0  0  0  0  0
  -44.7831   25.7162   -6.0745 C   0  0  0  0  0  0  0  0  0  0  0  0
  -43.4552   24.9976   -5.8608 C   0  0  0  0  0  0  0  0  0  0  0  0
  -43.8729   23.5815   -5.5568 C   0  0  0  0  0  0  0  0  0  0  0  0
  -44.9363   23.3555   -6.5908 C   0  0  0  0  0  0  0  0  0  0  0  0
  -45.5886   24.6961   -6.7843 N   0  0  0  0  0  0  0  0  0  0  0  0
  -45.6281   24.9194   -7.7788 H   0  0  0  0  0  0  0  0  0  0  0  0
  -46.5385   24.6798   -6.4131 H   0  0  0  0  0  0  0  0  0  0  0  0
  -45.9706   22.2720   -6.1424 C   0  0  0  0  0  0  0  0  0  0  0  0
  -45.6062   21.1301   -5.8248 O   0  0  0  0  0  0  0  0  0  0  0  0
  -47.2338   22.7012   -6.0949 N   0  0  0  0  0  0  0  0  0  0  0  0
  -47.4292   23.5981   -6.4508 H   0  0  0  0  0  0  0  0  0  0  0  0
  -48.3453   21.9256   -5.5487 C   0  0  0  0  0  0  0  0  0  0  0  0
  -48.9306   21.2604   -6.8077 C   0  0  0  0  0  0  0  0  0  0  0  0
  -49.3029   22.4088   -8.1801 S   0  0  0  0  0  0  0  0  0  0  0  0
  -48.1120   22.4592   -9.1290 O   0  0  0  0  0  0  0  0  0  0  0  0
  -49.4994   23.8325   -7.6427 O   0  0  0  0  0  0  0  0  0  0  0  0
  -50.5365   21.8567   -8.9178 O   0  0  0  0  0  0  0  0  0  0  0  0
  -50.3502   20.9581   -9.2318 H   0  0  0  0  0  0  0  0  0  0  0  0
  -44.5563   26.9853   -6.8847 C   0  0  0  0  0  0  0  0  0  0  0  0
  -43.2449   26.8329   -7.5028 O   0  0  0  0  0  0  0  0  0  0  0  0
  -42.5749   26.7066   -6.8129 H   0  0  0  0  0  0  0  0  0  0  0  0
  -37.3394   25.5737   -4.1821 O   0  0  0  0  0  0  0  0  0  0  0  0
  -36.2780   25.7659   -3.0691 S   0  0  0  0  0  0  0  0  0  0  0  0
  -36.5926   27.0185   -2.2974 O   0  0  0  0  0  0  0  0  0  0  0  0
  -34.9248   25.9190   -3.6895 O   0  0  0  0  0  0  0  0  0  0  0  0
  -36.3011   24.5667   -2.1336 O   0  0  0  0  0  0  0  0  0  0  0  0
  -37.1834   24.4808   -1.7398 H   0  0  0  0  0  0  0  0  0  0  0  0
  1  2  1  0  0  0
  1  6  1  0  0  0
  1 17  1  0  0  0
  2  3  1  0  0  0
  2  9  1  0  0  0
  3  4  1  0  0  0
  3  7  1  0  0  0
  4  5  1  0  0  0
  4 39  1  0  0  0
  5  6  1  0  0  0
  5 14  1  0  0  0
 17 19  1  0  0  0
  9 10  1  0  0  0
 10 11  2  0  0  0
 10 12  1  0  0  0
 39 40  1  0  0  0
 40 41  2  0  0  0
 40 42  2  0  0  0
 40 43  1  0  0  0
 14 15  1  0  0  0
 18 19  1  0  0  0
 18 22  1  0  0  0
 18 36  1  0  0  0
 19 20  1  0  0  0
 20 21  1  0  0  0
 21 22  1  0  0  0
 21 25  1  0  0  0
 36 37  1  0  0  0
 25 26  2  0  0  0
 25 27  1  0  0  0
 27 29  1  0  0  0
 29 30  1  0  0  0
 30 31  1  0  0  0
 31 32  2  0  0  0
 31 33  2  0  0  0
 31 34  1  0  0  0
  9 13  1  0  0  0
  7  8  1  0  0  0
 43 44  1  0  0  0
 15 16  1  0  0  0
 22 23  1  0  0  0
 22 24  1  0  0  0
 37 38  1  0  0  0
 27 28  1  0  0  0
 34 35  1  0  0  0
M  CHG 1  22   1
M  END
> <minimizedAffinity>
-7.02568

$$$$
6CFC_BLG_A_601


 44 45  0  0  0  0  0  0  0  0999 V2000
  -41.5501   24.0824   -4.1901 C   0  0  0  0  0  0  0  0  0  0  0  0
  -40.5124   23.0835   -3.9827 C   0  0  0  0  0  0  0  0  0  0  0  0
  -39.5117   23.6462   -2.9579 C   0  0  0  0  0  0  0  0  0  0  0  0
  -38.9616   24.9775   -3.4598 C   0  0  0  0  0  0  0  0  0  0  0  0
  -40.1231   25.9151   -3.7672 C   0  0  0  0  0  0  0  0  0  0  0  0
  -40.9684   25.2467   -4.7313 O   0  0  0  0  0  0  0  0  0  0  0  0
  -38.4577   22.7017   -2.7849 O   0  0  0  0  0  0  0  0  0  0  0  0
  -38.0178   22.5487   -3.6357 H   0  0  0  0  0  0  0  0  0  0  0  0
  -41.1837   21.8673   -3.4552 N   0  0  0  0  0  0  0  0  0  0  0  0
  -42.1477   21.9598   -2.5345 C   0  0  0  0  0  0  0  0  0  0  0  0
  -42.5882   23.0174   -2.0732 O   0  0  0  0  0  0  0  0  0  0  0  0
  -42.6828   20.6268   -2.0549 C   0  0  0  0  0  0  0  0  0  0  0  0
  -40.9144   20.9810   -3.7887 H   0  0  0  0  0  0  0  0  0  0  0  0
  -39.7328   27.3017   -4.3051 C   0  0  0  0  0  0  0  0  0  0  0  0
  -38.6798   27.0436   -5.2210 O   0  0  0  0  0  0  0  0  0  0  0  0
  -37.9575   26.5863   -4.7628 H   0  0  0  0  0  0  0  0  0  0  0  0
  -42.4960   23.6276   -5.1691 O   0  0  0  0  0  0  0  0  0  0  0  0
  -44.7607   23.7816   -5.9878 C   0  0  0  0  0  0  0  0  0  0  0  0
  -43.5870   24.5266   -5.3612 C   0  0  0  0  0  0  0  0  0  0  0  0
  -43.2538   25.5762   -6.3907 C   0  0  0  0  0  0  0  0  0  0  0  0
  -44.6198   26.0700   -6.7663 C   0  0  0  0  0  0  0  0  0  0  0  0
  -45.5195   24.8720   -6.6423 N   0  0  0  0  0  0  0  0  0  0  0  0
  -46.3349   25.1109   -6.0779 H   0  0  0  0  0  0  0  0  0  0  0  0
  -45.8346   24.5740   -7.5655 H   0  0  0  0  0  0  0  0  0  0  0  0
  -44.6519   26.6662   -8.2114 C   0  0  0  0  0  0  0  0  0  0  0  0
  -45.6592   26.5597   -8.9268 O   0  0  0  0  0  0  0  0  0  0  0  0
  -43.5411   27.3167   -8.5649 N   0  0  0  0  0  0  0  0  0  0  0  0
  -42.7667   27.2685   -7.9589 H   0  0  0  0  0  0  0  0  0  0  0  0
  -43.4004   28.0957   -9.7931 C   0  0  0  0  0  0  0  0  0  0  0  0
  -42.3016   29.1060   -9.4164 C   0  0  0  0  0  0  0  0  0  0  0  0
  -40.8744   28.3913   -8.5257 S   0  0  0  0  0  0  0  0  0  0  0  0
  -41.1511   28.4225   -7.0279 O   0  0  0  0  0  0  0  0  0  0  0  0
  -39.6207   29.2441   -8.7606 O   0  0  0  0  0  0  0  0  0  0  0  0
  -40.7217   26.9341   -8.9992 O   0  0  0  0  0  0  0  0  0  0  0  0
  -41.5435   26.4494   -8.8241 H   0  0  0  0  0  0  0  0  0  0  0  0
  -45.5474   23.0571   -4.9039 C   0  0  0  0  0  0  0  0  0  0  0  0
  -45.0721   23.6007   -3.6376 O   0  0  0  0  0  0  0  0  0  0  0  0
  -44.1157   23.4571   -3.5627 H   0  0  0  0  0  0  0  0  0  0  0  0
  -38.1757   25.5130   -2.4183 O   0  0  0  0  0  0  0  0  0  0  0  0
  -36.6394   25.6279   -2.5886 S   0  0  0  0  0  0  0  0  0  0  0  0
  -36.2859   25.4199   -4.0360 O   0  0  0  0  0  0  0  0  0  0  0  0
  -35.9656   24.5650   -1.7788 O   0  0  0  0  0  0  0  0  0  0  0  0
  -36.1812   27.0075   -2.1409 O   0  0  0  0  0  0  0  0  0  0  0  0
  -36.6260   27.6848   -2.6743 H   0  0  0  0  0  0  0  0  0  0  0  0
  1  2  1  0  0  0
  1  6  1  0  0  0
  1 17  1  0  0  0
  2  3  1  0  0  0
  2  9  1  0  0  0
  3  4  1  0  0  0
  3  7  1  0  0  0
  4  5  1  0  0  0
  4 39  1  0  0  0
  5  6  1  0  0  0
  5 14  1  0  0  0
 17 19  1  0  0  0
  9 10  1  0  0  0
 10 11  2  0  0  0
 10 12  1  0  0  0
 39 40  1  0  0  0
 40 41  2  0  0  0
 40 42  2  0  0  0
 40 43  1  0  0  0
 14 15  1  0  0  0
 18 19  1  0  0  0
 18 22  1  0  0  0
 18 36  1  0  0  0
 19 20  1  0  0  0
 20 21  1  0  0  0
 21 22  1  0  0  0
 21 25  1  0  0  0
 36 37  1  0  0  0
 25 26  2  0  0  0
 25 27  1  0  0  0
 27 29  1  0  0  0
 29 30  1  0  0  0
 30 31  1  0  0  0
 31 32  2  0  0  0
 31 33  2  0  0  0
 31 34  1  0  0  0
  9 13  1  0  0  0
  7  8  1  0  0  0
 43 44  1  0  0  0
 15 16  1  0  0  0
 22 23  1  0  0  0
 22 24  1  0  0  0
 37 38  1  0  0  0
 27 28  1  0  0  0
 34 35  1  0  0  0
M  CHG 1  22   1
M  END
> <minimizedAffinity>
-7.00291

$$$$
6CFC_BLG_A_601


 44 45  0  0  0  0  0  0  0  0999 V2000
  -39.1511   26.9212   -3.7105 C   0  0  0  0  0  0  0  0  0  0  0  0
  -38.9451   25.4812   -3.6682 C   0  0  0  0  0  0  0  0  0  0  0  0
  -37.8874   25.1857   -2.5900 C   0  0  0  0  0  0  0  0  0  0  0  0
  -36.6101   25.9586   -2.9029 C   0  0  0  0  0  0  0  0  0  0  0  0
  -36.9439   27.4384   -3.0508 C   0  0  0  0  0  0  0  0  0  0  0  0
  -37.9465   27.5489   -4.0869 O   0  0  0  0  0  0  0  0  0  0  0  0
  -37.6331   23.7829   -2.5742 O   0  0  0  0  0  0  0  0  0  0  0  0
  -37.3126   23.5025   -3.4458 H   0  0  0  0  0  0  0  0  0  0  0  0
  -40.2511   24.8689   -3.3113 N   0  0  0  0  0  0  0  0  0  0  0  0
  -40.5537   23.6249   -3.6940 C   0  0  0  0  0  0  0  0  0  0  0  0
  -39.8015   22.8740   -4.3231 O   0  0  0  0  0  0  0  0  0  0  0  0
  -41.9464   23.1739   -3.3065 C   0  0  0  0  0  0  0  0  0  0  0  0
  -40.9026   25.3870   -2.7855 H   0  0  0  0  0  0  0  0  0  0  0  0
  -35.7575   28.3563   -3.3884 C   0  0  0  0  0  0  0  0  0  0  0  0
  -36.1245   28.9755   -4.6116 O   0  0  0  0  0  0  0  0  0  0  0  0
  -36.2926   28.2942   -5.2813 H   0  0  0  0  0  0  0  0  0  0  0  0
  -40.1035   27.2622   -4.7285 O   0  0  0  0  0  0  0  0  0  0  0  0
  -40.5560   29.0261   -6.3119 C   0  0  0  0  0  0  0  0  0  0  0  0
  -39.5381   28.0108   -5.8034 C   0  0  0  0  0  0  0  0  0  0  0  0
  -39.2910   27.1363   -7.0061 C   0  0  0  0  0  0  0  0  0  0  0  0
  -39.1713   28.1578   -8.0984 C   0  0  0  0  0  0  0  0  0  0  0  0
  -40.0974   29.2724   -7.6983 N   0  0  0  0  0  0  0  0  0  0  0  0
  -39.6035   30.1637   -7.7443 H   0  0  0  0  0  0  0  0  0  0  0  0
  -40.8971   29.3068   -8.3305 H   0  0  0  0  0  0  0  0  0  0  0  0
  -39.5499   27.5695   -9.4968 C   0  0  0  0  0  0  0  0  0  0  0  0
  -39.0276   26.5260   -9.9162 O   0  0  0  0  0  0  0  0  0  0  0  0
  -40.4916   28.2562  -10.1478 N   0  0  0  0  0  0  0  0  0  0  0  0
  -40.7781   29.1183   -9.7683 H   0  0  0  0  0  0  0  0  0  0  0  0
  -41.1244   27.8109  -11.3874 C   0  0  0  0  0  0  0  0  0  0  0  0
  -41.6515   29.1310  -11.9787 C   0  0  0  0  0  0  0  0  0  0  0  0
  -40.6675   30.6107  -11.5511 S   0  0  0  0  0  0  0  0  0  0  0  0
  -41.0167   31.7402  -12.5120 O   0  0  0  0  0  0  0  0  0  0  0  0
  -39.1711   30.3240  -11.7323 O   0  0  0  0  0  0  0  0  0  0  0  0
  -41.0446   31.0120  -10.1131 O   0  0  0  0  0  0  0  0  0  0  0  0
  -41.9988   31.1792  -10.0638 H   0  0  0  0  0  0  0  0  0  0  0  0
  -40.5277   30.2677   -5.4310 C   0  0  0  0  0  0  0  0  0  0  0  0
  -39.2912   30.1823   -4.6637 O   0  0  0  0  0  0  0  0  0  0  0  0
  -39.2863   29.3601   -4.1489 H   0  0  0  0  0  0  0  0  0  0  0  0
  -35.7408   25.7703   -1.8085 O   0  0  0  0  0  0  0  0  0  0  0  0
  -34.4459   24.9364   -1.9832 S   0  0  0  0  0  0  0  0  0  0  0  0
  -33.2820   25.8679   -2.1854 O   0  0  0  0  0  0  0  0  0  0  0  0
  -34.5715   24.0654   -3.1935 O   0  0  0  0  0  0  0  0  0  0  0  0
  -34.2165   24.0896   -0.7406 O   0  0  0  0  0  0  0  0  0  0  0  0
  -34.1372   24.6675    0.0344 H   0  0  0  0  0  0  0  0  0  0  0  0
  1  2  1  0  0  0
  1  6  1  0  0  0
  1 17  1  0  0  0
  2  3  1  0  0  0
  2  9  1  0  0  0
  3  4  1  0  0  0
  3  7  1  0  0  0
  4  5  1  0  0  0
  4 39  1  0  0  0
  5  6  1  0  0  0
  5 14  1  0  0  0
 17 19  1  0  0  0
  9 10  1  0  0  0
 10 11  2  0  0  0
 10 12  1  0  0  0
 39 40  1  0  0  0
 40 41  2  0  0  0
 40 42  2  0  0  0
 40 43  1  0  0  0
 14 15  1  0  0  0
 18 19  1  0  0  0
 18 22  1  0  0  0
 18 36  1  0  0  0
 19 20  1  0  0  0
 20 21  1  0  0  0
 21 22  1  0  0  0
 21 25  1  0  0  0
 36 37  1  0  0  0
 25 26  2  0  0  0
 25 27  1  0  0  0
 27 29  1  0  0  0
 29 30  1  0  0  0
 30 31  1  0  0  0
 31 32  2  0  0  0
 31 33  2  0  0  0
 31 34  1  0  0  0
  9 13  1  0  0  0
  7  8  1  0  0  0
 43 44  1  0  0  0
 15 16  1  0  0  0
 22 23  1  0  0  0
 22 24  1  0  0  0
 37 38  1  0  0  0
 27 28  1  0  0  0
 34 35  1  0  0  0
M  CHG 1  22   1
M  END
> <minimizedAffinity>
-6.84063

$$$$
