3DX2_MZB_A_1048


 17 17  0  0  0  0  0  0  0  0999 V2000
   30.4540   65.8410    7.9806 C   0  0  0  0  0  0  0  0  0  0  0  0
   30.8275   65.7619    9.4545 C   0  0  0  0  0  0  0  0  0  0  0  0
   30.6016   64.4430   10.0517 N   0  0  0  0  0  0  0  0  0  0  0  0
   32.3188   66.1654    9.5469 C   0  0  0  0  0  0  0  0  0  0  0  0
   33.1249   65.0646    9.9721 O   0  0  0  0  0  0  0  0  0  0  0  0
   32.7089   66.6620    8.1506 C   0  0  0  0  0  0  0  0  0  0  0  0
   33.4069   65.6307    7.4192 O   0  0  0  0  0  0  0  0  0  0  0  0
   31.3632   66.9723    7.4925 C   0  0  0  0  0  0  0  0  0  0  0  0
   31.4416   67.1033    6.0667 O   0  0  0  0  0  0  0  0  0  0  0  0
   31.1731   63.7491    9.5696 H   0  0  0  0  0  0  0  0  0  0  0  0
   29.6166   64.1936    9.9625 H   0  0  0  0  0  0  0  0  0  0  0  0
   33.0257   64.3304    9.3460 H   0  0  0  0  0  0  0  0  0  0  0  0
   32.8501   64.8382    7.3668 H   0  0  0  0  0  0  0  0  0  0  0  0
   31.7843   66.2801    5.6847 H   0  0  0  0  0  0  0  0  0  0  0  0
   27.9460   65.1595    8.7530 O   0  0  0  0  0  0  0  0  0  0  0  0
   28.7455   66.3313    7.8436 S   0  0  0  0  0  0  0  0  0  0  0  0
   28.4374   65.7873    6.1983 C   0  0  0  0  0  0  0  0  0  0  0  0
 16 15  2  0  0  0
 16  1  1  0  0  0
 17 16  1  0  0  0
  1  2  1  0  0  0
  2  4  1  0  0  0
  2  3  1  0  0  0
  4  5  1  0  0  0
  6  4  1  0  0  0
  7  6  1  0  0  0
  8  1  1  0  0  0
  8  6  1  0  0  0
  9  8  1  0  0  0
  3 10  1  0  0  0
  3 11  1  0  0  0
  5 12  1  0  0  0
  7 13  1  0  0  0
  9 14  1  0  0  0
M  END
> <minimizedAffinity>
-7.67187

$$$$
3DX2_MZB_A_1048


 17 17  0  0  0  0  0  0  0  0999 V2000
   30.4144   65.2659    8.7374 C   0  0  0  0  0  0  0  0  0  0  0  0
   31.6304   65.8848    9.4130 C   0  0  0  0  0  0  0  0  0  0  0  0
   32.5377   64.9025   10.0122 N   0  0  0  0  0  0  0  0  0  0  0  0
   32.3530   66.7183    8.3274 C   0  0  0  0  0  0  0  0  0  0  0  0
   33.6363   66.1674    8.0241 O   0  0  0  0  0  0  0  0  0  0  0  0
   31.4230   66.7216    7.1093 C   0  0  0  0  0  0  0  0  0  0  0  0
   31.8552   65.7469    6.1352 O   0  0  0  0  0  0  0  0  0  0  0  0
   30.0647   66.3320    7.6954 C   0  0  0  0  0  0  0  0  0  0  0  0
   29.1153   65.9122    6.7060 O   0  0  0  0  0  0  0  0  0  0  0  0
   32.8937   64.2810    9.2860 H   0  0  0  0  0  0  0  0  0  0  0  0
   32.0337   64.3558   10.7105 H   0  0  0  0  0  0  0  0  0  0  0  0
   33.5313   65.2539    7.7153 H   0  0  0  0  0  0  0  0  0  0  0  0
   31.8890   64.8700    6.5484 H   0  0  0  0  0  0  0  0  0  0  0  0
   29.4682   65.1489    6.2226 H   0  0  0  0  0  0  0  0  0  0  0  0
   27.7140   65.2203    8.9761 O   0  0  0  0  0  0  0  0  0  0  0  0
   29.0983   65.1280    9.9321 S   0  0  0  0  0  0  0  0  0  0  0  0
   29.1784   66.7490   10.6134 C   0  0  0  0  0  0  0  0  0  0  0  0
 16 15  2  0  0  0
 16  1  1  0  0  0
 17 16  1  0  0  0
  1  2  1  0  0  0
  2  4  1  0  0  0
  2  3  1  0  0  0
  4  5  1  0  0  0
  6  4  1  0  0  0
  7  6  1  0  0  0
  8  1  1  0  0  0
  8  6  1  0  0  0
  9  8  1  0  0  0
  3 10  1  0  0  0
  3 11  1  0  0  0
  5 12  1  0  0  0
  7 13  1  0  0  0
  9 14  1  0  0  0
M  END
> <minimizedAffinity>
-6.66608

$$$$
3DX2_MZB_A_1048


 17 17  0  0  0  0  0  0  0  0999 V2000
   29.4409   65.1412    9.5270 C   0  0  0  0  0  0  0  0  0  0  0  0
   30.7402   65.9307    9.4441 C   0  0  0  0  0  0  0  0  0  0  0  0
   31.9327   65.1419    9.7650 N   0  0  0  0  0  0  0  0  0  0  0  0
   30.8164   66.4916    8.0037 C   0  0  0  0  0  0  0  0  0  0  0  0
   31.9043   65.9108    7.2815 O   0  0  0  0  0  0  0  0  0  0  0  0
   29.4621   66.1805    7.3575 C   0  0  0  0  0  0  0  0  0  0  0  0
   29.5545   65.0083    6.5190 O   0  0  0  0  0  0  0  0  0  0  0  0
   28.5471   65.9158    8.5545 C   0  0  0  0  0  0  0  0  0  0  0  0
   27.3268   65.2492    8.2039 O   0  0  0  0  0  0  0  0  0  0  0  0
   32.0186   64.3708    9.1029 H   0  0  0  0  0  0  0  0  0  0  0  0
   31.8499   64.7700   10.7112 H   0  0  0  0  0  0  0  0  0  0  0  0
   31.7933   64.9478    7.2492 H   0  0  0  0  0  0  0  0  0  0  0  0
   29.8725   64.2583    7.0456 H   0  0  0  0  0  0  0  0  0  0  0  0
   27.5318   64.3992    7.7841 H   0  0  0  0  0  0  0  0  0  0  0  0
   27.1638   64.8905   10.9770 O   0  0  0  0  0  0  0  0  0  0  0  0
   28.7927   65.2690   11.1828 S   0  0  0  0  0  0  0  0  0  0  0  0
   28.7436   67.0230   11.3212 C   0  0  0  0  0  0  0  0  0  0  0  0
 16 15  2  0  0  0
 16  1  1  0  0  0
 17 16  1  0  0  0
  1  2  1  0  0  0
  2  4  1  0  0  0
  2  3  1  0  0  0
  4  5  1  0  0  0
  6  4  1  0  0  0
  7  6  1  0  0  0
  8  1  1  0  0  0
  8  6  1  0  0  0
  9  8  1  0  0  0
  3 10  1  0  0  0
  3 11  1  0  0  0
  5 12  1  0  0  0
  7 13  1  0  0  0
  9 14  1  0  0  0
M  END
> <minimizedAffinity>
-5.87725

$$$$
3DX2_MZB_A_1048


 17 17  0  0  0  0  0  0  0  0999 V2000
   29.0789   65.3180    8.6344 C   0  0  0  0  0  0  0  0  0  0  0  0
   27.6260   65.6238    8.9717 C   0  0  0  0  0  0  0  0  0  0  0  0
   26.6875   65.2954    7.8954 N   0  0  0  0  0  0  0  0  0  0  0  0
   27.3004   64.8235   10.2558 C   0  0  0  0  0  0  0  0  0  0  0  0
   26.3284   63.8083    9.9976 O   0  0  0  0  0  0  0  0  0  0  0  0
   28.6326   64.2389   10.7377 C   0  0  0  0  0  0  0  0  0  0  0  0
   28.7557   62.8558   10.3410 O   0  0  0  0  0  0  0  0  0  0  0  0
   29.6788   65.0987   10.0261 C   0  0  0  0  0  0  0  0  0  0  0  0
   30.9905   64.5193   10.0272 O   0  0  0  0  0  0  0  0  0  0  0  0
   26.7352   64.2963    7.6957 H   0  0  0  0  0  0  0  0  0  0  0  0
   26.9338   65.8218    7.0571 H   0  0  0  0  0  0  0  0  0  0  0  0
   26.6638   63.2054    9.3159 H   0  0  0  0  0  0  0  0  0  0  0  0
   28.6707   62.7871    9.3771 H   0  0  0  0  0  0  0  0  0  0  0  0
   30.9617   63.6530    9.5918 H   0  0  0  0  0  0  0  0  0  0  0  0
   28.6286   67.2416    6.7776 O   0  0  0  0  0  0  0  0  0  0  0  0
   29.8104   66.7560    7.8761 S   0  0  0  0  0  0  0  0  0  0  0  0
   30.9718   65.9496    6.8277 C   0  0  0  0  0  0  0  0  0  0  0  0
 16 15  2  0  0  0
 16  1  1  0  0  0
 17 16  1  0  0  0
  1  2  1  0  0  0
  2  4  1  0  0  0
  2  3  1  0  0  0
  4  5  1  0  0  0
  6  4  1  0  0  0
  7  6  1  0  0  0
  8  1  1  0  0  0
  8  6  1  0  0  0
  9  8  1  0  0  0
  3 10  1  0  0  0
  3 11  1  0  0  0
  5 12  1  0  0  0
  7 13  1  0  0  0
  9 14  1  0  0  0
M  END
> <minimizedAffinity>
-5.86991

$$$$
3DX2_MZB_A_1048


 17 17  0  0  0  0  0  0  0  0999 V2000
   27.7835   64.8558    9.7481 C   0  0  0  0  0  0  0  0  0  0  0  0
   28.9192   65.1464   10.7196 C   0  0  0  0  0  0  0  0  0  0  0  0
   29.2871   64.0024   11.5581 N   0  0  0  0  0  0  0  0  0  0  0  0
   30.1182   65.6128    9.8593 C   0  0  0  0  0  0  0  0  0  0  0  0
   31.1950   64.6757    9.9252 O   0  0  0  0  0  0  0  0  0  0  0  0
   29.5778   65.7730    8.4341 C   0  0  0  0  0  0  0  0  0  0  0  0
   29.9131   64.6217    7.6294 O   0  0  0  0  0  0  0  0  0  0  0  0
   28.0642   65.8683    8.6341 C   0  0  0  0  0  0  0  0  0  0  0  0
   27.3147   65.6556    7.4302 O   0  0  0  0  0  0  0  0  0  0  0  0
   29.6012   63.2337   10.9657 H   0  0  0  0  0  0  0  0  0  0  0  0
   28.4768   63.7041   12.1010 H   0  0  0  0  0  0  0  0  0  0  0  0
   30.8895   63.8095    9.6133 H   0  0  0  0  0  0  0  0  0  0  0  0
   29.5628   63.8205    8.0494 H   0  0  0  0  0  0  0  0  0  0  0  0
   27.5196   64.7775    7.0727 H   0  0  0  0  0  0  0  0  0  0  0  0
   25.3519   65.9708    9.3064 O   0  0  0  0  0  0  0  0  0  0  0  0
   26.2334   65.2380   10.5413 S   0  0  0  0  0  0  0  0  0  0  0  0
   26.7496   66.6261   11.4926 C   0  0  0  0  0  0  0  0  0  0  0  0
 16 15  2  0  0  0
 16  1  1  0  0  0
 17 16  1  0  0  0
  1  2  1  0  0  0
  2  4  1  0  0  0
  2  3  1  0  0  0
  4  5  1  0  0  0
  6  4  1  0  0  0
  7  6  1  0  0  0
  8  1  1  0  0  0
  8  6  1  0  0  0
  9  8  1  0  0  0
  3 10  1  0  0  0
  3 11  1  0  0  0
  5 12  1  0  0  0
  7 13  1  0  0  0
  9 14  1  0  0  0
M  END
> <minimizedAffinity>
-5.73817

$$$$
3DX2_MZB_A_1048


 17 17  0  0  0  0  0  0  0  0999 V2000
   27.1490   63.1120   10.9204 C   0  0  0  0  0  0  0  0  0  0  0  0
   27.3651   63.1340   12.4273 C   0  0  0  0  0  0  0  0  0  0  0  0
   27.7660   61.8400   12.9860 N   0  0  0  0  0  0  0  0  0  0  0  0
   28.4422   64.2125   12.6959 C   0  0  0  0  0  0  0  0  0  0  0  0
   29.6419   63.6269   13.2057 O   0  0  0  0  0  0  0  0  0  0  0  0
   28.6697   64.9240   11.3577 C   0  0  0  0  0  0  0  0  0  0  0  0
   29.8556   64.4185   10.7068 O   0  0  0  0  0  0  0  0  0  0  0  0
   27.4198   64.5726   10.5488 C   0  0  0  0  0  0  0  0  0  0  0  0
   27.5629   64.8150    9.1427 O   0  0  0  0  0  0  0  0  0  0  0  0
   28.6508   61.5494   12.5698 H   0  0  0  0  0  0  0  0  0  0  0  0
   27.0490   61.1443   12.7808 H   0  0  0  0  0  0  0  0  0  0  0  0
   29.9824   62.9801   12.5679 H   0  0  0  0  0  0  0  0  0  0  0  0
   29.7738   63.4597   10.5848 H   0  0  0  0  0  0  0  0  0  0  0  0
   28.3046   64.2932    8.7984 H   0  0  0  0  0  0  0  0  0  0  0  0
   25.3308   62.9108    8.9192 O   0  0  0  0  0  0  0  0  0  0  0  0
   25.4454   62.7052   10.5876 S   0  0  0  0  0  0  0  0  0  0  0  0
   24.6918   64.1782   11.1880 C   0  0  0  0  0  0  0  0  0  0  0  0
 16 15  2  0  0  0
 16  1  1  0  0  0
 17 16  1  0  0  0
  1  2  1  0  0  0
  2  4  1  0  0  0
  2  3  1  0  0  0
  4  5  1  0  0  0
  6  4  1  0  0  0
  7  6  1  0  0  0
  8  1  1  0  0  0
  8  6  1  0  0  0
  9  8  1  0  0  0
  3 10  1  0  0  0
  3 11  1  0  0  0
  5 12  1  0  0  0
  7 13  1  0  0  0
  9 14  1  0  0  0
M  END
> <minimizedAffinity>
-5.72041

$$$$
3DX2_MZB_A_1048


 17 17  0  0  0  0  0  0  0  0999 V2000
   27.7035   63.4331   11.0609 C   0  0  0  0  0  0  0  0  0  0  0  0
   28.7182   64.4484   10.5534 C   0  0  0  0  0  0  0  0  0  0  0  0
   29.8334   63.8509    9.8143 N   0  0  0  0  0  0  0  0  0  0  0  0
   27.9315   65.4416    9.6645 C   0  0  0  0  0  0  0  0  0  0  0  0
   28.3424   65.3478    8.2991 O   0  0  0  0  0  0  0  0  0  0  0  0
   26.4511   65.0906    9.8480 C   0  0  0  0  0  0  0  0  0  0  0  0
   25.9767   64.2886    8.7447 O   0  0  0  0  0  0  0  0  0  0  0  0
   26.4331   64.2837   11.1475 C   0  0  0  0  0  0  0  0  0  0  0  0
   25.2247   63.5357   11.3384 O   0  0  0  0  0  0  0  0  0  0  0  0
   29.4748   63.3633    8.9933 H   0  0  0  0  0  0  0  0  0  0  0  0
   30.3239   63.1888   10.4155 H   0  0  0  0  0  0  0  0  0  0  0  0
   28.1993   64.4431    7.9797 H   0  0  0  0  0  0  0  0  0  0  0  0
   26.5201   63.4887    8.6693 H   0  0  0  0  0  0  0  0  0  0  0  0
   25.1040   62.9215   10.5974 H   0  0  0  0  0  0  0  0  0  0  0  0
   26.7289   62.4063   13.3732 O   0  0  0  0  0  0  0  0  0  0  0  0
   28.1890   62.8969   12.6903 S   0  0  0  0  0  0  0  0  0  0  0  0
   28.4273   64.4735   13.4357 C   0  0  0  0  0  0  0  0  0  0  0  0
 16 15  2  0  0  0
 16  1  1  0  0  0
 17 16  1  0  0  0
  1  2  1  0  0  0
  2  4  1  0  0  0
  2  3  1  0  0  0
  4  5  1  0  0  0
  6  4  1  0  0  0
  7  6  1  0  0  0
  8  1  1  0  0  0
  8  6  1  0  0  0
  9  8  1  0  0  0
  3 10  1  0  0  0
  3 11  1  0  0  0
  5 12  1  0  0  0
  7 13  1  0  0  0
  9 14  1  0  0  0
M  END
> <minimizedAffinity>
-5.65189

$$$$
3DX2_MZB_A_1048


 17 17  0  0  0  0  0  0  0  0999 V2000
   26.7792   64.4199   10.9186 C   0  0  0  0  0  0  0  0  0  0  0  0
   28.0996   63.6957   11.1428 C   0  0  0  0  0  0  0  0  0  0  0  0
   28.1586   62.3689   10.5237 N   0  0  0  0  0  0  0  0  0  0  0  0
   29.2040   64.6215   10.5783 C   0  0  0  0  0  0  0  0  0  0  0  0
   29.8412   64.0309    9.4437 O   0  0  0  0  0  0  0  0  0  0  0  0
   28.5095   65.9422   10.2288 C   0  0  0  0  0  0  0  0  0  0  0  0
   28.2314   66.0130    8.8134 O   0  0  0  0  0  0  0  0  0  0  0  0
   27.2084   65.8855   11.0313 C   0  0  0  0  0  0  0  0  0  0  0  0
   26.2249   66.8320   10.5919 O   0  0  0  0  0  0  0  0  0  0  0  0
   28.0446   62.4594    9.5141 H   0  0  0  0  0  0  0  0  0  0  0  0
   27.4114   61.7850   10.8993 H   0  0  0  0  0  0  0  0  0  0  0  0
   29.1800   63.8576    8.7554 H   0  0  0  0  0  0  0  0  0  0  0  0
   27.6899   65.2520    8.5518 H   0  0  0  0  0  0  0  0  0  0  0  0
   26.0141   66.6698    9.6591 H   0  0  0  0  0  0  0  0  0  0  0  0
   26.3522   62.6158   12.8969 O   0  0  0  0  0  0  0  0  0  0  0  0
   25.6629   64.0089   12.2465 S   0  0  0  0  0  0  0  0  0  0  0  0
   24.3384   63.3484   11.2937 C   0  0  0  0  0  0  0  0  0  0  0  0
 16 15  2  0  0  0
 16  1  1  0  0  0
 17 16  1  0  0  0
  1  2  1  0  0  0
  2  4  1  0  0  0
  2  3  1  0  0  0
  4  5  1  0  0  0
  6  4  1  0  0  0
  7  6  1  0  0  0
  8  1  1  0  0  0
  8  6  1  0  0  0
  9  8  1  0  0  0
  3 10  1  0  0  0
  3 11  1  0  0  0
  5 12  1  0  0  0
  7 13  1  0  0  0
  9 14  1  0  0  0
M  END
> <minimizedAffinity>
-5.52758

$$$$
3DX2_MZB_A_1048


 17 17  0  0  0  0  0  0  0  0999 V2000
   27.1943   64.9139   10.5668 C   0  0  0  0  0  0  0  0  0  0  0  0
   27.3986   63.6289   11.3575 C   0  0  0  0  0  0  0  0  0  0  0  0
   28.2155   62.6306   10.6623 N   0  0  0  0  0  0  0  0  0  0  0  0
   28.0504   64.0434   12.6988 C   0  0  0  0  0  0  0  0  0  0  0  0
   29.3801   63.5308   12.8054 O   0  0  0  0  0  0  0  0  0  0  0  0
   28.0174   65.5752   12.7284 C   0  0  0  0  0  0  0  0  0  0  0  0
   29.3006   66.1203   12.3519 O   0  0  0  0  0  0  0  0  0  0  0  0
   26.9547   65.9302   11.6868 C   0  0  0  0  0  0  0  0  0  0  0  0
   26.9999   67.3014   11.2695 O   0  0  0  0  0  0  0  0  0  0  0  0
   29.1441   63.0140   10.4861 H   0  0  0  0  0  0  0  0  0  0  0  0
   27.7739   62.3878    9.7755 H   0  0  0  0  0  0  0  0  0  0  0  0
   29.9152   63.8640   12.0681 H   0  0  0  0  0  0  0  0  0  0  0  0
   29.5462   65.7916   11.4729 H   0  0  0  0  0  0  0  0  0  0  0  0
   27.8722   67.4961   10.8926 H   0  0  0  0  0  0  0  0  0  0  0  0
   25.7341   63.1167    9.1565 O   0  0  0  0  0  0  0  0  0  0  0  0
   25.7258   64.7502    9.5692 S   0  0  0  0  0  0  0  0  0  0  0  0
   26.3161   65.5016    8.0910 C   0  0  0  0  0  0  0  0  0  0  0  0
 16 15  2  0  0  0
 16  1  1  0  0  0
 17 16  1  0  0  0
  1  2  1  0  0  0
  2  4  1  0  0  0
  2  3  1  0  0  0
  4  5  1  0  0  0
  6  4  1  0  0  0
  7  6  1  0  0  0
  8  1  1  0  0  0
  8  6  1  0  0  0
  9  8  1  0  0  0
  3 10  1  0  0  0
  3 11  1  0  0  0
  5 12  1  0  0  0
  7 13  1  0  0  0
  9 14  1  0  0  0
M  END
> <minimizedAffinity>
-5.35930

$$$$
3DX2_MZB_A_1048


 17 17  0  0  0  0  0  0  0  0999 V2000
   27.0164   64.7504    9.7611 C   0  0  0  0  0  0  0  0  0  0  0  0
   27.2111   64.7834   11.2708 C   0  0  0  0  0  0  0  0  0  0  0  0
   26.6478   63.6224   11.9650 N   0  0  0  0  0  0  0  0  0  0  0  0
   28.7368   64.8868   11.5098 C   0  0  0  0  0  0  0  0  0  0  0  0
   29.2402   63.7086   12.1427 O   0  0  0  0  0  0  0  0  0  0  0  0
   29.3652   65.1157   10.1309 C   0  0  0  0  0  0  0  0  0  0  0  0
   29.8971   63.8816    9.6019 O   0  0  0  0  0  0  0  0  0  0  0  0
   28.1921   65.6053    9.2799 C   0  0  0  0  0  0  0  0  0  0  0  0
   28.4425   65.5379    7.8696 O   0  0  0  0  0  0  0  0  0  0  0  0
   27.1035   62.7729   11.6318 H   0  0  0  0  0  0  0  0  0  0  0  0
   25.6466   63.5671   11.7777 H   0  0  0  0  0  0  0  0  0  0  0  0
   29.0506   62.9368   11.5867 H   0  0  0  0  0  0  0  0  0  0  0  0
   29.1917   63.2172    9.5600 H   0  0  0  0  0  0  0  0  0  0  0  0
   28.6380   64.6214    7.6194 H   0  0  0  0  0  0  0  0  0  0  0  0
   24.5284   65.2442   10.7188 O   0  0  0  0  0  0  0  0  0  0  0  0
   25.4759   65.5533    9.3603 S   0  0  0  0  0  0  0  0  0  0  0  0
   24.8503   64.3807    8.2063 C   0  0  0  0  0  0  0  0  0  0  0  0
 16 15  2  0  0  0
 16  1  1  0  0  0
 17 16  1  0  0  0
  1  2  1  0  0  0
  2  4  1  0  0  0
  2  3  1  0  0  0
  4  5  1  0  0  0
  6  4  1  0  0  0
  7  6  1  0  0  0
  8  1  1  0  0  0
  8  6  1  0  0  0
  9  8  1  0  0  0
  3 10  1  0  0  0
  3 11  1  0  0  0
  5 12  1  0  0  0
  7 13  1  0  0  0
  9 14  1  0  0  0
M  END
> <minimizedAffinity>
-5.32914

$$$$
