5D0C_E0B_A_206


 30 33  0  0  0  0  0  0  0  0999 V2000
    1.6747    9.9416    2.8204 S   0  0  0  0  0  0  0  0  0  0  0  0
    0.2210   10.2211    2.6860 O   0  0  0  0  0  0  0  0  0  0  0  0
    2.5506   11.0423    3.3285 O   0  0  0  0  0  0  0  0  0  0  0  0
    2.3123    9.3966    1.2409 C   0  0  0  0  0  0  0  0  0  0  0  0
    1.4052    8.9750    0.2931 C   0  0  0  0  0  0  0  0  0  0  0  0
    1.7918    8.5168   -0.9599 C   0  0  0  0  0  0  0  0  0  0  0  0
    3.1153    8.4857   -1.2620 C   0  0  0  0  0  0  0  0  0  0  0  0
    3.9992    8.8758   -0.3150 C   0  0  0  0  0  0  0  0  0  0  0  0
    3.6855    9.3407    0.9117 C   0  0  0  0  0  0  0  0  0  0  0  0
    4.7555    9.7151    1.7768 C   0  0  0  0  0  0  0  0  0  0  0  0
    6.0720    9.5833    1.2947 C   0  0  0  0  0  0  0  0  0  0  0  0
    6.2919    9.0746    0.0037 C   0  0  0  0  0  0  0  0  0  0  0  0
    5.2476    8.7384   -0.8036 C   0  0  0  0  0  0  0  0  0  0  0  0
    5.0959    8.1998   -2.0640 C   0  0  0  0  0  0  0  0  0  0  0  0
    5.9845    7.7779   -2.8376 O   0  0  0  0  0  0  0  0  0  0  0  0
    3.8042    8.0581   -2.3346 N   0  0  0  0  0  0  0  0  0  0  0  0
    3.2196    7.5056   -3.5641 C   0  0  0  0  0  0  0  0  0  0  0  0
    2.9839    8.6259   -4.5965 C   0  0  0  0  0  0  0  0  0  0  0  0
    1.8763    8.7191    3.8749 N   0  0  0  0  0  0  0  0  0  0  0  0
    1.0139    8.6262    4.4117 H   0  0  0  0  0  0  0  0  0  0  0  0
    3.0049    8.8620    4.8465 C   0  0  0  0  0  0  0  0  0  0  0  0
    5.1971    7.5372    4.8089 C   0  0  0  0  0  0  0  0  0  0  0  0
    5.7955    6.1756    5.0771 C   0  0  0  0  0  0  0  0  0  0  0  0
    5.5910    5.9509    6.5417 N   0  0  0  0  0  0  0  0  0  0  0  0
    6.5852    6.0014    7.4618 C   0  0  0  0  0  0  0  0  0  0  0  0
    7.7750    6.1450    7.1741 O   0  0  0  0  0  0  0  0  0  0  0  0
    6.2669    5.7888    8.9486 C   0  0  0  0  0  0  0  0  0  0  0  0
    4.1296    5.8494    6.8404 C   0  0  0  0  0  0  0  0  0  0  0  0
    3.4595    7.1721    6.5927 C   0  0  0  0  0  0  0  0  0  0  0  0
    3.6759    7.5181    5.1099 C   0  0  0  0  0  0  0  0  0  0  0  0
 26 25  2  0  0  0
 27 25  1  0  0  0
 25 24  1  0  0  0
 24 23  1  0  0  0
 24 28  1  0  0  0
 23 22  1  0  0  0
 28 29  1  0  0  0
 22 30  1  0  0  0
 29 30  1  0  0  0
 30 21  1  0  0  0
 21 19  1  0  0  0
 19  1  1  0  0  0
  2  1  2  0  0  0
  1  3  2  0  0  0
  1  4  1  0  0  0
  4  5  2  0  0  0
  4  9  1  0  0  0
 10  9  2  0  0  0
 10 11  1  0  0  0
  5  6  1  0  0  0
  9  8  1  0  0  0
 11 12  2  0  0  0
  8  7  1  0  0  0
  8 13  2  0  0  0
  6  7  2  0  0  0
 12 13  1  0  0  0
  7 16  1  0  0  0
 13 14  1  0  0  0
 16 14  1  0  0  0
 16 17  1  0  0  0
 14 15  2  0  0  0
 18 17  1  0  0  0
 19 20  1  0  0  0
M  END
> <minimizedAffinity>
-8.38336

$$$$
5D0C_E0B_A_206


 30 33  0  0  0  0  0  0  0  0999 V2000
    3.4748   10.1561    2.7850 S   0  0  0  0  0  0  0  0  0  0  0  0
    2.5169   11.2815    2.6261 O   0  0  0  0  0  0  0  0  0  0  0  0
    4.7696   10.4374    3.4786 O   0  0  0  0  0  0  0  0  0  0  0  0
    3.8354    9.4655    1.1752 C   0  0  0  0  0  0  0  0  0  0  0  0
    5.1564    9.3876    0.7911 C   0  0  0  0  0  0  0  0  0  0  0  0
    5.5476    8.8838   -0.4428 C   0  0  0  0  0  0  0  0  0  0  0  0
    4.5901    8.4495   -1.3021 C   0  0  0  0  0  0  0  0  0  0  0  0
    3.2947    8.5556   -0.9266 C   0  0  0  0  0  0  0  0  0  0  0  0
    2.8540    9.0231    0.2594 C   0  0  0  0  0  0  0  0  0  0  0  0
    1.4461    9.0525    0.4832 C   0  0  0  0  0  0  0  0  0  0  0  0
    0.6038    8.5851   -0.5440 C   0  0  0  0  0  0  0  0  0  0  0  0
    1.1641    8.1305   -1.7495 C   0  0  0  0  0  0  0  0  0  0  0  0
    2.5142    8.1026   -1.9274 C   0  0  0  0  0  0  0  0  0  0  0  0
    3.3778    7.7658   -2.9485 C   0  0  0  0  0  0  0  0  0  0  0  0
    3.0968    7.4270   -4.1199 O   0  0  0  0  0  0  0  0  0  0  0  0
    4.6297    7.9717   -2.5583 N   0  0  0  0  0  0  0  0  0  0  0  0
    5.8452    7.7533   -3.3543 C   0  0  0  0  0  0  0  0  0  0  0  0
    6.1347    8.9820   -4.2391 C   0  0  0  0  0  0  0  0  0  0  0  0
    2.7663    8.9879    3.6685 N   0  0  0  0  0  0  0  0  0  0  0  0
    1.7607    9.1585    3.6600 H   0  0  0  0  0  0  0  0  0  0  0  0
    3.1991    8.8833    5.0967 C   0  0  0  0  0  0  0  0  0  0  0  0
    5.2701    7.3770    5.0335 C   0  0  0  0  0  0  0  0  0  0  0  0
    5.7653    5.9831    5.3436 C   0  0  0  0  0  0  0  0  0  0  0  0
    5.6098    5.8438    6.8246 N   0  0  0  0  0  0  0  0  0  0  0  0
    6.6457    5.8518    7.6990 C   0  0  0  0  0  0  0  0  0  0  0  0
    7.8289    5.8806    7.3554 O   0  0  0  0  0  0  0  0  0  0  0  0
    6.3789    5.7352    9.2065 C   0  0  0  0  0  0  0  0  0  0  0  0
    4.1602    5.8804    7.1885 C   0  0  0  0  0  0  0  0  0  0  0  0
    3.5912    7.2425    6.9039 C   0  0  0  0  0  0  0  0  0  0  0  0
    3.7679    7.5007    5.3981 C   0  0  0  0  0  0  0  0  0  0  0  0
 26 25  2  0  0  0
 27 25  1  0  0  0
 25 24  1  0  0  0
 24 23  1  0  0  0
 24 28  1  0  0  0
 23 22  1  0  0  0
 28 29  1  0  0  0
 22 30  1  0  0  0
 29 30  1  0  0  0
 30 21  1  0  0  0
 21 19  1  0  0  0
 19  1  1  0  0  0
  2  1  2  0  0  0
  1  3  2  0  0  0
  1  4  1  0  0  0
  4  5  2  0  0  0
  4  9  1  0  0  0
 10  9  2  0  0  0
 10 11  1  0  0  0
  5  6  1  0  0  0
  9  8  1  0  0  0
 11 12  2  0  0  0
  8  7  1  0  0  0
  8 13  2  0  0  0
  6  7  2  0  0  0
 12 13  1  0  0  0
  7 16  1  0  0  0
 13 14  1  0  0  0
 16 14  1  0  0  0
 16 17  1  0  0  0
 14 15  2  0  0  0
 18 17  1  0  0  0
 19 20  1  0  0  0
M  END
> <minimizedAffinity>
-8.16486

$$$$
5D0C_E0B_A_206


 30 33  0  0  0  0  0  0  0  0999 V2000
    5.8770   10.3559    1.4484 S   0  0  0  0  0  0  0  0  0  0  0  0
    7.3398   10.1753    1.2568 O   0  0  0  0  0  0  0  0  0  0  0  0
    5.3465   11.7540    1.4765 O   0  0  0  0  0  0  0  0  0  0  0  0
    5.3804    9.5335    2.9568 C   0  0  0  0  0  0  0  0  0  0  0  0
    6.3418    8.8343    3.6535 C   0  0  0  0  0  0  0  0  0  0  0  0
    6.0623    8.1463    4.8273 C   0  0  0  0  0  0  0  0  0  0  0  0
    4.7921    8.1662    5.3070 C   0  0  0  0  0  0  0  0  0  0  0  0
    3.8498    8.8326    4.6011 C   0  0  0  0  0  0  0  0  0  0  0  0
    4.0616    9.5278    3.4648 C   0  0  0  0  0  0  0  0  0  0  0  0
    2.9442   10.1772    2.8623 C   0  0  0  0  0  0  0  0  0  0  0  0
    1.6913   10.0589    3.4942 C   0  0  0  0  0  0  0  0  0  0  0  0
    1.5749    9.2988    4.6698 C   0  0  0  0  0  0  0  0  0  0  0  0
    2.6642    8.7014    5.2282 C   0  0  0  0  0  0  0  0  0  0  0  0
    2.9064    7.8860    6.3137 C   0  0  0  0  0  0  0  0  0  0  0  0
    2.0772    7.3837    7.1048 O   0  0  0  0  0  0  0  0  0  0  0  0
    4.1960    7.5745    6.3570 N   0  0  0  0  0  0  0  0  0  0  0  0
    4.8593    6.7143    7.3463 C   0  0  0  0  0  0  0  0  0  0  0  0
    4.9367    5.2639    6.8299 C   0  0  0  0  0  0  0  0  0  0  0  0
    5.0957    9.6314    0.2188 N   0  0  0  0  0  0  0  0  0  0  0  0
    5.6077    8.7813   -0.0169 H   0  0  0  0  0  0  0  0  0  0  0  0
    4.9437   10.4345   -1.0342 C   0  0  0  0  0  0  0  0  0  0  0  0
    3.1343    8.8730   -1.9559 C   0  0  0  0  0  0  0  0  0  0  0  0
    1.7276    8.8397   -2.5075 C   0  0  0  0  0  0  0  0  0  0  0  0
    0.8641    9.3057   -1.3786 N   0  0  0  0  0  0  0  0  0  0  0  0
    0.0521    8.4918   -0.6603 C   0  0  0  0  0  0  0  0  0  0  0  0
   -0.1284    7.3017   -0.9245 O   0  0  0  0  0  0  0  0  0  0  0  0
   -0.7715    9.0618    0.5033 C   0  0  0  0  0  0  0  0  0  0  0  0
    1.1720   10.7336   -1.0600 C   0  0  0  0  0  0  0  0  0  0  0  0
    2.5646   10.8498   -0.5059 C   0  0  0  0  0  0  0  0  0  0  0  0
    3.5262   10.3271   -1.5865 C   0  0  0  0  0  0  0  0  0  0  0  0
 26 25  2  0  0  0
 27 25  1  0  0  0
 25 24  1  0  0  0
 24 23  1  0  0  0
 24 28  1  0  0  0
 23 22  1  0  0  0
 28 29  1  0  0  0
 22 30  1  0  0  0
 29 30  1  0  0  0
 30 21  1  0  0  0
 21 19  1  0  0  0
 19  1  1  0  0  0
  2  1  2  0  0  0
  1  3  2  0  0  0
  1  4  1  0  0  0
  4  5  2  0  0  0
  4  9  1  0  0  0
 10  9  2  0  0  0
 10 11  1  0  0  0
  5  6  1  0  0  0
  9  8  1  0  0  0
 11 12  2  0  0  0
  8  7  1  0  0  0
  8 13  2  0  0  0
  6  7  2  0  0  0
 12 13  1  0  0  0
  7 16  1  0  0  0
 13 14  1  0  0  0
 16 14  1  0  0  0
 16 17  1  0  0  0
 14 15  2  0  0  0
 18 17  1  0  0  0
 19 20  1  0  0  0
M  END
> <minimizedAffinity>
-8.08724

$$$$
5D0C_E0B_A_206


 30 33  0  0  0  0  0  0  0  0999 V2000
    5.2482   11.8495    0.4953 S   0  0  0  0  0  0  0  0  0  0  0  0
    6.5293   11.5884   -0.2118 O   0  0  0  0  0  0  0  0  0  0  0  0
    4.9875   13.2436    0.9702 O   0  0  0  0  0  0  0  0  0  0  0  0
    5.1182   10.7431    1.8944 C   0  0  0  0  0  0  0  0  0  0  0  0
    6.2728   10.1440    2.3487 C   0  0  0  0  0  0  0  0  0  0  0  0
    6.2839    9.2563    3.4170 C   0  0  0  0  0  0  0  0  0  0  0  0
    5.1107    8.9704    4.0382 C   0  0  0  0  0  0  0  0  0  0  0  0
    3.9789    9.5426    3.5672 C   0  0  0  0  0  0  0  0  0  0  0  0
    3.9060   10.4193    2.5447 C   0  0  0  0  0  0  0  0  0  0  0  0
    2.6212   10.9276    2.1924 C   0  0  0  0  0  0  0  0  0  0  0  0
    1.5098   10.4889    2.9378 C   0  0  0  0  0  0  0  0  0  0  0  0
    1.6922    9.5612    3.9770 C   0  0  0  0  0  0  0  0  0  0  0  0
    2.9347    9.1046    4.2978 C   0  0  0  0  0  0  0  0  0  0  0  0
    3.4632    8.2030    5.1977 C   0  0  0  0  0  0  0  0  0  0  0  0
    2.8519    7.4476    5.9860 O   0  0  0  0  0  0  0  0  0  0  0  0
    4.7791    8.1348    5.0381 N   0  0  0  0  0  0  0  0  0  0  0  0
    5.7119    7.2819    5.7872 C   0  0  0  0  0  0  0  0  0  0  0  0
    5.8805    5.9220    5.0810 C   0  0  0  0  0  0  0  0  0  0  0  0
    4.0167   11.5081   -0.5116 N   0  0  0  0  0  0  0  0  0  0  0  0
    3.1471   11.6418    0.0043 H   0  0  0  0  0  0  0  0  0  0  0  0
    3.9967   10.1282   -1.0892 C   0  0  0  0  0  0  0  0  0  0  0  0
    2.0812    8.5212   -0.5319 C   0  0  0  0  0  0  0  0  0  0  0  0
    0.6736    8.1315   -0.9206 C   0  0  0  0  0  0  0  0  0  0  0  0
   -0.1520    9.3444   -0.6301 N   0  0  0  0  0  0  0  0  0  0  0  0
   -1.0154    9.4414    0.4104 C   0  0  0  0  0  0  0  0  0  0  0  0
   -1.2781    8.5064    1.1690 O   0  0  0  0  0  0  0  0  0  0  0  0
   -1.7940   10.7441    0.6430 C   0  0  0  0  0  0  0  0  0  0  0  0
    0.2542   10.4634   -1.5346 C   0  0  0  0  0  0  0  0  0  0  0  0
    1.6535   10.9070   -1.2099 C   0  0  0  0  0  0  0  0  0  0  0  0
    2.5732    9.6926   -1.4210 C   0  0  0  0  0  0  0  0  0  0  0  0
 26 25  2  0  0  0
 27 25  1  0  0  0
 25 24  1  0  0  0
 24 23  1  0  0  0
 24 28  1  0  0  0
 23 22  1  0  0  0
 28 29  1  0  0  0
 22 30  1  0  0  0
 29 30  1  0  0  0
 30 21  1  0  0  0
 21 19  1  0  0  0
 19  1  1  0  0  0
  2  1  2  0  0  0
  1  3  2  0  0  0
  1  4  1  0  0  0
  4  5  2  0  0  0
  4  9  1  0  0  0
 10  9  2  0  0  0
 10 11  1  0  0  0
  5  6  1  0  0  0
  9  8  1  0  0  0
 11 12  2  0  0  0
  8  7  1  0  0  0
  8 13  2  0  0  0
  6  7  2  0  0  0
 12 13  1  0  0  0
  7 16  1  0  0  0
 13 14  1  0  0  0
 16 14  1  0  0  0
 16 17  1  0  0  0
 14 15  2  0  0  0
 18 17  1  0  0  0
 19 20  1  0  0  0
M  END
> <minimizedAffinity>
-7.89707

$$$$
5D0C_E0B_A_206


 30 33  0  0  0  0  0  0  0  0999 V2000
    6.0182   11.1378    0.9509 S   0  0  0  0  0  0  0  0  0  0  0  0
    7.5003   11.2131    0.8685 O   0  0  0  0  0  0  0  0  0  0  0  0
    5.2560   12.4246    0.9636 O   0  0  0  0  0  0  0  0  0  0  0  0
    5.5617   10.1972    2.4018 C   0  0  0  0  0  0  0  0  0  0  0  0
    6.5630    9.5376    3.0807 C   0  0  0  0  0  0  0  0  0  0  0  0
    6.3181    8.7661    4.2095 C   0  0  0  0  0  0  0  0  0  0  0  0
    5.0421    8.6605    4.6617 C   0  0  0  0  0  0  0  0  0  0  0  0
    4.0626    9.2894    3.9722 C   0  0  0  0  0  0  0  0  0  0  0  0
    4.2387   10.0607    2.8798 C   0  0  0  0  0  0  0  0  0  0  0  0
    3.0843   10.6533    2.2887 C   0  0  0  0  0  0  0  0  0  0  0  0
    1.8338   10.4030    2.8858 C   0  0  0  0  0  0  0  0  0  0  0  0
    1.7571    9.5723    4.0161 C   0  0  0  0  0  0  0  0  0  0  0  0
    2.8803    9.0317    4.5653 C   0  0  0  0  0  0  0  0  0  0  0  0
    3.1671    8.1790    5.6105 C   0  0  0  0  0  0  0  0  0  0  0  0
    2.3663    7.5706    6.3552 O   0  0  0  0  0  0  0  0  0  0  0  0
    4.4762    7.9670    5.6652 N   0  0  0  0  0  0  0  0  0  0  0  0
    5.1880    7.1078    6.6212 C   0  0  0  0  0  0  0  0  0  0  0  0
    5.3830    5.6967    6.0320 C   0  0  0  0  0  0  0  0  0  0  0  0
    5.4631   10.3300   -0.3477 N   0  0  0  0  0  0  0  0  0  0  0  0
    4.4449   10.3888   -0.3386 H   0  0  0  0  0  0  0  0  0  0  0  0
    5.8355    8.8837   -0.4369 C   0  0  0  0  0  0  0  0  0  0  0  0
    3.3581    8.5524   -0.9979 C   0  0  0  0  0  0  0  0  0  0  0  0
    2.4040    7.7345   -1.8375 C   0  0  0  0  0  0  0  0  0  0  0  0
    2.7635    8.0623   -3.2519 N   0  0  0  0  0  0  0  0  0  0  0  0
    2.0055    8.8371   -4.0659 C   0  0  0  0  0  0  0  0  0  0  0  0
    0.8961    9.2738   -3.7540 O   0  0  0  0  0  0  0  0  0  0  0  0
    2.4786    9.1426   -5.4942 C   0  0  0  0  0  0  0  0  0  0  0  0
    4.1414    7.5666   -3.5532 C   0  0  0  0  0  0  0  0  0  0  0  0
    5.1531    8.3341   -2.7486 C   0  0  0  0  0  0  0  0  0  0  0  0
    4.8187    8.1051   -1.2650 C   0  0  0  0  0  0  0  0  0  0  0  0
 26 25  2  0  0  0
 27 25  1  0  0  0
 25 24  1  0  0  0
 24 23  1  0  0  0
 24 28  1  0  0  0
 23 22  1  0  0  0
 28 29  1  0  0  0
 22 30  1  0  0  0
 29 30  1  0  0  0
 30 21  1  0  0  0
 21 19  1  0  0  0
 19  1  1  0  0  0
  2  1  2  0  0  0
  1  3  2  0  0  0
  1  4  1  0  0  0
  4  5  2  0  0  0
  4  9  1  0  0  0
 10  9  2  0  0  0
 10 11  1  0  0  0
  5  6  1  0  0  0
  9  8  1  0  0  0
 11 12  2  0  0  0
  8  7  1  0  0  0
  8 13  2  0  0  0
  6  7  2  0  0  0
 12 13  1  0  0  0
  7 16  1  0  0  0
 13 14  1  0  0  0
 16 14  1  0  0  0
 16 17  1  0  0  0
 14 15  2  0  0  0
 18 17  1  0  0  0
 19 20  1  0  0  0
M  END
> <minimizedAffinity>
-7.73285

$$$$
5D0C_E0B_A_206


 30 33  0  0  0  0  0  0  0  0999 V2000
    0.4875   10.7656    1.9617 S   0  0  0  0  0  0  0  0  0  0  0  0
    0.7692   12.0804    1.3282 O   0  0  0  0  0  0  0  0  0  0  0  0
   -0.5708   10.7145    3.0172 O   0  0  0  0  0  0  0  0  0  0  0  0
    2.0036   10.1133    2.6506 C   0  0  0  0  0  0  0  0  0  0  0  0
    1.9027    9.2306    3.7038 C   0  0  0  0  0  0  0  0  0  0  0  0
    3.0153    8.6764    4.3238 C   0  0  0  0  0  0  0  0  0  0  0  0
    4.2497    9.0170    3.8720 C   0  0  0  0  0  0  0  0  0  0  0  0
    4.3386    9.9053    2.8555 C   0  0  0  0  0  0  0  0  0  0  0  0
    3.2979   10.4668    2.2066 C   0  0  0  0  0  0  0  0  0  0  0  0
    3.5851   11.3789    1.1489 C   0  0  0  0  0  0  0  0  0  0  0  0
    4.9362   11.6313    0.8426 C   0  0  0  0  0  0  0  0  0  0  0  0
    5.9472   11.0042    1.5897 C   0  0  0  0  0  0  0  0  0  0  0  0
    5.6401   10.1272    2.5857 C   0  0  0  0  0  0  0  0  0  0  0  0
    6.3431    9.3829    3.5096 C   0  0  0  0  0  0  0  0  0  0  0  0
    7.5755    9.3825    3.7270 O   0  0  0  0  0  0  0  0  0  0  0  0
    5.4946    8.7100    4.2770 N   0  0  0  0  0  0  0  0  0  0  0  0
    5.8372    7.8151    5.3908 C   0  0  0  0  0  0  0  0  0  0  0  0
    5.8508    6.3486    4.9159 C   0  0  0  0  0  0  0  0  0  0  0  0
   -0.0109    9.7279    0.8120 N   0  0  0  0  0  0  0  0  0  0  0  0
    0.6680    8.9682    0.7633 H   0  0  0  0  0  0  0  0  0  0  0  0
   -0.1654   10.2902   -0.5658 C   0  0  0  0  0  0  0  0  0  0  0  0
    1.8047   10.7214   -2.1452 C   0  0  0  0  0  0  0  0  0  0  0  0
    2.7672   10.0466   -3.0952 C   0  0  0  0  0  0  0  0  0  0  0  0
    3.5559    9.1092   -2.2371 N   0  0  0  0  0  0  0  0  0  0  0  0
    4.8490    9.3115   -1.8844 C   0  0  0  0  0  0  0  0  0  0  0  0
    5.5357   10.2414   -2.3118 O   0  0  0  0  0  0  0  0  0  0  0  0
    5.5622    8.3047   -0.9707 C   0  0  0  0  0  0  0  0  0  0  0  0
    2.6602    8.0417   -1.6954 C   0  0  0  0  0  0  0  0  0  0  0  0
    1.6661    8.6388   -0.7388 C   0  0  0  0  0  0  0  0  0  0  0  0
    0.8443    9.6723   -1.5273 C   0  0  0  0  0  0  0  0  0  0  0  0
 26 25  2  0  0  0
 27 25  1  0  0  0
 25 24  1  0  0  0
 24 23  1  0  0  0
 24 28  1  0  0  0
 23 22  1  0  0  0
 28 29  1  0  0  0
 22 30  1  0  0  0
 29 30  1  0  0  0
 30 21  1  0  0  0
 21 19  1  0  0  0
 19  1  1  0  0  0
  2  1  2  0  0  0
  1  3  2  0  0  0
  1  4  1  0  0  0
  4  5  2  0  0  0
  4  9  1  0  0  0
 10  9  2  0  0  0
 10 11  1  0  0  0
  5  6  1  0  0  0
  9  8  1  0  0  0
 11 12  2  0  0  0
  8  7  1  0  0  0
  8 13  2  0  0  0
  6  7  2  0  0  0
 12 13  1  0  0  0
  7 16  1  0  0  0
 13 14  1  0  0  0
 16 14  1  0  0  0
 16 17  1  0  0  0
 14 15  2  0  0  0
 18 17  1  0  0  0
 19 20  1  0  0  0
M  END
> <minimizedAffinity>
-7.62557

$$$$
5D0C_E0B_A_206


 30 33  0  0  0  0  0  0  0  0999 V2000
    2.0194   11.4114    1.8342 S   0  0  0  0  0  0  0  0  0  0  0  0
    2.6786   12.7405    1.9247 O   0  0  0  0  0  0  0  0  0  0  0  0
    0.5366   11.3561    2.0216 O   0  0  0  0  0  0  0  0  0  0  0  0
    2.7790   10.3022    3.0137 C   0  0  0  0  0  0  0  0  0  0  0  0
    1.9615    9.6920    3.9400 C   0  0  0  0  0  0  0  0  0  0  0  0
    2.4479    8.8256    4.9106 C   0  0  0  0  0  0  0  0  0  0  0  0
    3.7810    8.5692    4.9455 C   0  0  0  0  0  0  0  0  0  0  0  0
    4.5785    9.1945    4.0493 C   0  0  0  0  0  0  0  0  0  0  0  0
    4.1651   10.0342    3.0780 C   0  0  0  0  0  0  0  0  0  0  0  0
    5.1530   10.5946    2.2159 C   0  0  0  0  0  0  0  0  0  0  0  0
    6.4971   10.2315    2.4270 C   0  0  0  0  0  0  0  0  0  0  0  0
    6.8243    9.3581    3.4776 C   0  0  0  0  0  0  0  0  0  0  0  0
    5.8556    8.8289    4.2756 C   0  0  0  0  0  0  0  0  0  0  0  0
    5.8150    7.9994    5.3766 C   0  0  0  0  0  0  0  0  0  0  0  0
    6.7748    7.5287    6.0271 O   0  0  0  0  0  0  0  0  0  0  0  0
    4.5567    7.8426    5.7690 N   0  0  0  0  0  0  0  0  0  0  0  0
    4.0854    7.0497    6.9127 C   0  0  0  0  0  0  0  0  0  0  0  0
    4.4393    5.5623    6.7164 C   0  0  0  0  0  0  0  0  0  0  0  0
    2.2818   10.7981    0.3503 N   0  0  0  0  0  0  0  0  0  0  0  0
    1.8058   11.3987   -0.3229 H   0  0  0  0  0  0  0  0  0  0  0  0
    1.8137    9.3958    0.1210 C   0  0  0  0  0  0  0  0  0  0  0  0
    2.3927    7.9817   -1.9351 C   0  0  0  0  0  0  0  0  0  0  0  0
    3.4923    7.1654   -2.5745 C   0  0  0  0  0  0  0  0  0  0  0  0
    4.5903    8.1458   -2.8395 N   0  0  0  0  0  0  0  0  0  0  0  0
    4.9156    8.6035   -4.0733 C   0  0  0  0  0  0  0  0  0  0  0  0
    4.4015    8.1875   -5.1132 O   0  0  0  0  0  0  0  0  0  0  0  0
    6.0398    9.6362   -4.2373 C   0  0  0  0  0  0  0  0  0  0  0  0
    5.1309    8.6643   -1.5456 C   0  0  0  0  0  0  0  0  0  0  0  0
    4.0878    9.4889   -0.8442 C   0  0  0  0  0  0  0  0  0  0  0  0
    2.8826    8.5690   -0.5860 C   0  0  0  0  0  0  0  0  0  0  0  0
 26 25  2  0  0  0
 27 25  1  0  0  0
 25 24  1  0  0  0
 24 23  1  0  0  0
 24 28  1  0  0  0
 23 22  1  0  0  0
 28 29  1  0  0  0
 22 30  1  0  0  0
 29 30  1  0  0  0
 30 21  1  0  0  0
 21 19  1  0  0  0
 19  1  1  0  0  0
  2  1  2  0  0  0
  1  3  2  0  0  0
  1  4  1  0  0  0
  4  5  2  0  0  0
  4  9  1  0  0  0
 10  9  2  0  0  0
 10 11  1  0  0  0
  5  6  1  0  0  0
  9  8  1  0  0  0
 11 12  2  0  0  0
  8  7  1  0  0  0
  8 13  2  0  0  0
  6  7  2  0  0  0
 12 13  1  0  0  0
  7 16  1  0  0  0
 13 14  1  0  0  0
 16 14  1  0  0  0
 16 17  1  0  0  0
 14 15  2  0  0  0
 18 17  1  0  0  0
 19 20  1  0  0  0
M  END
> <minimizedAffinity>
-7.61995

$$$$
5D0C_E0B_A_206


 30 33  0  0  0  0  0  0  0  0999 V2000
    6.0914   10.3746    1.3907 S   0  0  0  0  0  0  0  0  0  0  0  0
    7.5260   10.7381    1.5287 O   0  0  0  0  0  0  0  0  0  0  0  0
    5.1267   11.4662    1.0518 O   0  0  0  0  0  0  0  0  0  0  0  0
    5.5424    9.5842    2.8981 C   0  0  0  0  0  0  0  0  0  0  0  0
    6.4802    8.9062    3.6460 C   0  0  0  0  0  0  0  0  0  0  0  0
    6.1600    8.2437    4.8241 C   0  0  0  0  0  0  0  0  0  0  0  0
    4.8727    8.2678    5.2555 C   0  0  0  0  0  0  0  0  0  0  0  0
    3.9545    8.9129    4.4998 C   0  0  0  0  0  0  0  0  0  0  0  0
    4.2055    9.5831    3.3565 C   0  0  0  0  0  0  0  0  0  0  0  0
    3.1086   10.2127    2.6980 C   0  0  0  0  0  0  0  0  0  0  0  0
    1.8335   10.1022    3.2853 C   0  0  0  0  0  0  0  0  0  0  0  0
    1.6765    9.3684    4.4729 C   0  0  0  0  0  0  0  0  0  0  0  0
    2.7469    8.7897    5.0851 C   0  0  0  0  0  0  0  0  0  0  0  0
    2.9520    8.0006    6.1974 C   0  0  0  0  0  0  0  0  0  0  0  0
    2.0960    7.5121    6.9684 O   0  0  0  0  0  0  0  0  0  0  0  0
    4.2404    7.6970    6.2958 N   0  0  0  0  0  0  0  0  0  0  0  0
    4.8700    6.8631    7.3287 C   0  0  0  0  0  0  0  0  0  0  0  0
    4.9615    5.3993    6.8541 C   0  0  0  0  0  0  0  0  0  0  0  0
    5.9409    9.2885    0.1887 N   0  0  0  0  0  0  0  0  0  0  0  0
    6.3973    9.6744   -0.6379 H   0  0  0  0  0  0  0  0  0  0  0  0
    4.5441    8.9141   -0.1946 C   0  0  0  0  0  0  0  0  0  0  0  0
    5.6536    8.8883   -2.5034 C   0  0  0  0  0  0  0  0  0  0  0  0
    5.3790    9.0358   -3.9822 C   0  0  0  0  0  0  0  0  0  0  0  0
    4.4704    7.8959   -4.3170 N   0  0  0  0  0  0  0  0  0  0  0  0
    4.8545    6.8024   -5.0201 C   0  0  0  0  0  0  0  0  0  0  0  0
    5.9669    6.6787   -5.5361 O   0  0  0  0  0  0  0  0  0  0  0  0
    3.8535    5.6686   -5.2840 C   0  0  0  0  0  0  0  0  0  0  0  0
    3.1623    8.0659   -3.6133 C   0  0  0  0  0  0  0  0  0  0  0  0
    3.3547    7.9350   -2.1281 C   0  0  0  0  0  0  0  0  0  0  0  0
    4.3357    9.0394   -1.7002 C   0  0  0  0  0  0  0  0  0  0  0  0
 26 25  2  0  0  0
 27 25  1  0  0  0
 25 24  1  0  0  0
 24 23  1  0  0  0
 24 28  1  0  0  0
 23 22  1  0  0  0
 28 29  1  0  0  0
 22 30  1  0  0  0
 29 30  1  0  0  0
 30 21  1  0  0  0
 21 19  1  0  0  0
 19  1  1  0  0  0
  2  1  2  0  0  0
  1  3  2  0  0  0
  1  4  1  0  0  0
  4  5  2  0  0  0
  4  9  1  0  0  0
 10  9  2  0  0  0
 10 11  1  0  0  0
  5  6  1  0  0  0
  9  8  1  0  0  0
 11 12  2  0  0  0
  8  7  1  0  0  0
  8 13  2  0  0  0
  6  7  2  0  0  0
 12 13  1  0  0  0
  7 16  1  0  0  0
 13 14  1  0  0  0
 16 14  1  0  0  0
 16 17  1  0  0  0
 14 15  2  0  0  0
 18 17  1  0  0  0
 19 20  1  0  0  0
M  END
> <minimizedAffinity>
-7.36933

$$$$
5D0C_E0B_A_206


 30 33  0  0  0  0  0  0  0  0999 V2000
    2.1774   10.1125   -0.4606 S   0  0  0  0  0  0  0  0  0  0  0  0
    3.1284   11.0178   -1.1571 O   0  0  0  0  0  0  0  0  0  0  0  0
    0.7750   10.5941   -0.2651 O   0  0  0  0  0  0  0  0  0  0  0  0
    2.8518    9.6756    1.1371 C   0  0  0  0  0  0  0  0  0  0  0  0
    1.9678    9.3147    2.1305 C   0  0  0  0  0  0  0  0  0  0  0  0
    2.3817    8.9724    3.4114 C   0  0  0  0  0  0  0  0  0  0  0  0
    3.7098    8.9926    3.6937 C   0  0  0  0  0  0  0  0  0  0  0  0
    4.5673    9.3748    2.7196 C   0  0  0  0  0  0  0  0  0  0  0  0
    4.2282    9.7057    1.4567 C   0  0  0  0  0  0  0  0  0  0  0  0
    5.2737   10.0758    0.5606 C   0  0  0  0  0  0  0  0  0  0  0  0
    6.5953   10.0659    1.0469 C   0  0  0  0  0  0  0  0  0  0  0  0
    6.8406    9.7181    2.3858 C   0  0  0  0  0  0  0  0  0  0  0  0
    5.8211    9.3562    3.2133 C   0  0  0  0  0  0  0  0  0  0  0  0
    5.6928    9.0005    4.5395 C   0  0  0  0  0  0  0  0  0  0  0  0
    6.5759    8.9858    5.4259 O   0  0  0  0  0  0  0  0  0  0  0  0
    4.4146    8.7755    4.8180 N   0  0  0  0  0  0  0  0  0  0  0  0
    3.8537    8.3912    6.1204 C   0  0  0  0  0  0  0  0  0  0  0  0
    3.6573    6.8638    6.1902 C   0  0  0  0  0  0  0  0  0  0  0  0
    2.0371    8.7394   -1.3220 N   0  0  0  0  0  0  0  0  0  0  0  0
    1.3152    8.1687   -0.8819 H   0  0  0  0  0  0  0  0  0  0  0  0
    3.2715    7.9023   -1.4394 C   0  0  0  0  0  0  0  0  0  0  0  0
    5.4957    8.2054   -2.6736 C   0  0  0  0  0  0  0  0  0  0  0  0
    6.1039    8.4277   -4.0392 C   0  0  0  0  0  0  0  0  0  0  0  0
    5.7446    7.2039   -4.8205 N   0  0  0  0  0  0  0  0  0  0  0  0
    6.6278    6.2303   -5.1517 C   0  0  0  0  0  0  0  0  0  0  0  0
    7.8370    6.2991   -4.9236 O   0  0  0  0  0  0  0  0  0  0  0  0
    6.1525    4.9946   -5.9290 C   0  0  0  0  0  0  0  0  0  0  0  0
    4.2630    7.1398   -5.0103 C   0  0  0  0  0  0  0  0  0  0  0  0
    3.5825    6.9223   -3.6876 C   0  0  0  0  0  0  0  0  0  0  0  0
    3.9518    8.1136   -2.7878 C   0  0  0  0  0  0  0  0  0  0  0  0
 26 25  2  0  0  0
 27 25  1  0  0  0
 25 24  1  0  0  0
 24 23  1  0  0  0
 24 28  1  0  0  0
 23 22  1  0  0  0
 28 29  1  0  0  0
 22 30  1  0  0  0
 29 30  1  0  0  0
 30 21  1  0  0  0
 21 19  1  0  0  0
 19  1  1  0  0  0
  2  1  2  0  0  0
  1  3  2  0  0  0
  1  4  1  0  0  0
  4  5  2  0  0  0
  4  9  1  0  0  0
 10  9  2  0  0  0
 10 11  1  0  0  0
  5  6  1  0  0  0
  9  8  1  0  0  0
 11 12  2  0  0  0
  8  7  1  0  0  0
  8 13  2  0  0  0
  6  7  2  0  0  0
 12 13  1  0  0  0
  7 16  1  0  0  0
 13 14  1  0  0  0
 16 14  1  0  0  0
 16 17  1  0  0  0
 14 15  2  0  0  0
 18 17  1  0  0  0
 19 20  1  0  0  0
M  END
> <minimizedAffinity>
-7.21468

$$$$
5D0C_E0B_A_206


 30 33  0  0  0  0  0  0  0  0999 V2000
    0.9382    9.6207   -0.0976 S   0  0  0  0  0  0  0  0  0  0  0  0
   -0.4661    9.2983    0.2673 O   0  0  0  0  0  0  0  0  0  0  0  0
    1.5527    8.8659   -1.2332 O   0  0  0  0  0  0  0  0  0  0  0  0
    1.9770    9.4162    1.3437 C   0  0  0  0  0  0  0  0  0  0  0  0
    1.3586    9.2962    2.5692 C   0  0  0  0  0  0  0  0  0  0  0  0
    2.0689    9.1493    3.7538 C   0  0  0  0  0  0  0  0  0  0  0  0
    3.4255    9.1209    3.7003 C   0  0  0  0  0  0  0  0  0  0  0  0
    4.0236    9.2670    2.4957 C   0  0  0  0  0  0  0  0  0  0  0  0
    3.3899    9.4004    1.3125 C   0  0  0  0  0  0  0  0  0  0  0  0
    4.1891    9.5344    0.1393 C   0  0  0  0  0  0  0  0  0  0  0  0
    5.5893    9.5119    0.2874 C   0  0  0  0  0  0  0  0  0  0  0  0
    6.1507    9.3817    1.5686 C   0  0  0  0  0  0  0  0  0  0  0  0
    5.3598    9.2422    2.6687 C   0  0  0  0  0  0  0  0  0  0  0  0
    5.5561    9.1293    4.0291 C   0  0  0  0  0  0  0  0  0  0  0  0
    6.6315    9.2025    4.6647 O   0  0  0  0  0  0  0  0  0  0  0  0
    4.3819    9.0489    4.6427 N   0  0  0  0  0  0  0  0  0  0  0  0
    4.1526    8.9353    6.0895 C   0  0  0  0  0  0  0  0  0  0  0  0
    3.9655    7.4581    6.4886 C   0  0  0  0  0  0  0  0  0  0  0  0
    1.0177   11.1853   -0.5371 N   0  0  0  0  0  0  0  0  0  0  0  0
    1.7267   11.2679   -1.2657 H   0  0  0  0  0  0  0  0  0  0  0  0
    1.3598   12.1604    0.5447 C   0  0  0  0  0  0  0  0  0  0  0  0
    3.7304   12.9873    1.0534 C   0  0  0  0  0  0  0  0  0  0  0  0
    4.8134   13.9294    0.5804 C   0  0  0  0  0  0  0  0  0  0  0  0
    5.1938   13.4237   -0.7748 N   0  0  0  0  0  0  0  0  0  0  0  0
    6.3539   12.7758   -1.0433 C   0  0  0  0  0  0  0  0  0  0  0  0
    7.2557   12.6200   -0.2178 O   0  0  0  0  0  0  0  0  0  0  0  0
    6.6374   12.2655   -2.4633 C   0  0  0  0  0  0  0  0  0  0  0  0
    4.0424   13.5782   -1.7159 C   0  0  0  0  0  0  0  0  0  0  0  0
    2.9166   12.6697   -1.3070 C   0  0  0  0  0  0  0  0  0  0  0  0
    2.4989   13.0791    0.1154 C   0  0  0  0  0  0  0  0  0  0  0  0
 26 25  2  0  0  0
 27 25  1  0  0  0
 25 24  1  0  0  0
 24 23  1  0  0  0
 24 28  1  0  0  0
 23 22  1  0  0  0
 28 29  1  0  0  0
 22 30  1  0  0  0
 29 30  1  0  0  0
 30 21  1  0  0  0
 21 19  1  0  0  0
 19  1  1  0  0  0
  2  1  2  0  0  0
  1  3  2  0  0  0
  1  4  1  0  0  0
  4  5  2  0  0  0
  4  9  1  0  0  0
 10  9  2  0  0  0
 10 11  1  0  0  0
  5  6  1  0  0  0
  9  8  1  0  0  0
 11 12  2  0  0  0
  8  7  1  0  0  0
  8 13  2  0  0  0
  6  7  2  0  0  0
 12 13  1  0  0  0
  7 16  1  0  0  0
 13 14  1  0  0  0
 16 14  1  0  0  0
 16 17  1  0  0  0
 14 15  2  0  0  0
 18 17  1  0  0  0
 19 20  1  0  0  0
M  END
> <minimizedAffinity>
-7.20396

$$$$
