3N35_A2G_A_401
  RCSB PDB12061709513D
Coordinates from PDB:3N35:A:401 Model:1 without hydrogens
 15 15  0  0  0  0            999 V2000
  -38.1420  -30.9680   -4.4990   O 0  0  0  0  0  0  0  0  0  0  0  0
  -39.5710  -31.0370   -4.4820   C 0  0  0  0  0  0  0  0  0  0  0  0
  -40.0240  -31.3780   -5.8100   O 0  0  0  0  0  0  0  0  0  0  0  0
  -40.1010  -29.6570   -4.0580   C 0  0  0  0  0  0  0  0  0  0  0  0
  -41.5460  -29.6860   -4.2150   N 0  0  0  0  0  0  0  0  0  0  0  0
  -39.5820  -28.5810   -5.0160   C 0  0  0  0  0  0  0  0  0  0  0  0
  -39.9420  -27.2920   -4.5340   O 0  0  0  0  0  0  0  0  0  0  0  0
  -38.0600  -28.6610   -5.1530   C 0  0  0  0  0  0  0  0  0  0  0  0
  -37.4800  -28.3160   -3.8900   O 0  0  0  0  0  0  0  0  0  0  0  0
  -37.6370  -30.0810   -5.5030   C 0  0  0  0  0  0  0  0  0  0  0  0
  -36.1230  -30.2210   -5.5580   C 0  0  0  0  0  0  0  0  0  0  0  0
  -35.8420  -31.0310   -6.6930   O 0  0  0  0  0  0  0  0  0  0  0  0
  -42.3660  -29.1980   -3.2660   C 0  0  0  0  0  0  0  0  0  0  0  0
  -41.9580  -28.7050   -2.2260   O 0  0  0  0  0  0  0  0  0  0  0  0
  -43.8370  -29.2930   -3.5500   C 0  0  0  0  0  0  0  0  0  0  0  0
  1 10  1  0  0  0  0
  2  1  1  0  0  0  0
  2  4  1  0  0  0  0
  3  2  1  0  0  0  0
  4  6  1  0  0  0  0
  5  4  1  0  0  0  0
  6  8  1  0  0  0  0
  6  7  1  0  0  0  0
  8  9  1  0  0  0  0
 10  8  1  0  0  0  0
 10 11  1  0  0  0  0
 11 12  1  0  0  0  0
 13  5  1  0  0  0  0
 14 13  2  0  0  0  0
 15 13  1  0  0  0  0
A    1
O
A    2
C1
A    3
O1
A    4
C2
A    5
N2
A    6
C3
A    7
O3
A    8
C4
A    9
O4
A   10
C5
A   11
C6
A   12
O6
A   13
C7
A   14
O7
A   15
C8
M  END
>  <InstanceId>
3N35_A2G_A_401

>  <ChemCompId>
A2G

>  <PdbId>
3N35

>  <ChainId>
A

>  <ResidueNumber>
401

>  <InsertionCode>


>  <Model>
1

>  <AltIds>


>  <MissingHeavyAtoms>
0

>  <ObservedFormula>
C8 N O6

>  <Name>
N-ACETYL-2-DEOXY-2-AMINO-GALACTOSE

>  <SystematicName>
N-[(2S,3R,4R,5R,6R)-2,4,5-trihydroxy-6-(hydroxymethyl)oxan-3-yl]ethanamide

>  <Synonyms>


>  <Type>
SACCHARIDE

>  <Formula>
C8 H15 N O6

>  <MolecularWeight>
221.208

>  <ModifiedDate>
2011-06-04

>  <Parent>


>  <OneLetterCode>


>  <SubcomponentList>


>  <AmbiguousFlag>
N

>  <InChI>
InChI=1S/C8H15NO6/c1-3(11)9-5-7(13)6(12)4(2-10)15-8(5)14/h4-8,10,12-14H,2H2,1H3,(H,9,11)/t4-,5-,6+,7-,8+/m1/s1

>  <InChIKey>
OVRNDRQMDRJTHS-CBQIKETKSA-N

>  <SMILES>
CC(=O)N[C@@H]1[C@H]([C@H]([C@H](O[C@@H]1O)CO)O)O

$$$$
