2YEL_WSH_A_1170


 33 37  0  0  0  0  0  0  0  0999 V2000
   -8.3707   -6.9052   -0.2139 C   0  0  0  0  0  0  0  0  0  0  0  0
   -9.0748   -6.5097   -1.3307 C   0  0  0  0  0  0  0  0  0  0  0  0
   -8.9255   -6.7930    1.0367 C   0  0  0  0  0  0  0  0  0  0  0  0
  -10.3452   -5.9935   -1.1975 C   0  0  0  0  0  0  0  0  0  0  0  0
  -10.2001   -6.2741    1.1671 C   0  0  0  0  0  0  0  0  0  0  0  0
  -10.9155   -5.8721    0.0527 C   0  0  0  0  0  0  0  0  0  0  0  0
  -13.2554   -5.8275    0.9026 C   0  0  0  0  0  0  0  0  0  0  0  0
  -12.8317   -4.3124   -0.6016 C   0  0  0  0  0  0  0  0  0  0  0  0
  -10.7765   -6.1501    2.5356 C   0  0  0  0  0  0  0  0  0  0  0  0
  -12.9127   -6.9390    1.8723 C   0  0  0  0  0  0  0  0  0  0  0  0
  -12.1106   -3.4546   -1.5754 C   0  0  0  0  0  0  0  0  0  0  0  0
  -14.3786   -5.2034    0.6364 N   0  0  0  0  0  0  0  0  0  0  0  0
  -14.1117   -4.2501   -0.3205 N   0  0  0  0  0  0  0  0  0  0  0  0
  -11.9874   -6.4028    2.8775 N   0  0  0  0  0  0  0  0  0  0  0  0
  -12.2395   -5.3079    0.1452 N   0  0  0  0  0  0  0  0  0  0  0  0
   -8.3095   -4.5988    5.6458 C   0  0  0  0  0  0  0  0  0  0  0  0
   -7.8840   -4.5625    4.3376 C   0  0  0  0  0  0  0  0  0  0  0  0
   -9.5300   -5.1452    5.9472 C   0  0  0  0  0  0  0  0  0  0  0  0
   -8.6768   -5.0693    3.3345 C   0  0  0  0  0  0  0  0  0  0  0  0
  -10.3265   -5.6507    4.9426 C   0  0  0  0  0  0  0  0  0  0  0  0
   -9.9069   -5.6163    3.6283 C   0  0  0  0  0  0  0  0  0  0  0  0
  -14.2209   -8.4270    3.2817 C   0  0  0  0  0  0  0  0  0  0  0  0
  -14.1251   -7.2961    2.5607 N   0  0  0  0  0  0  0  0  0  0  0  0
  -15.2099   -8.7881    3.9073 O   0  0  0  0  0  0  0  0  0  0  0  0
  -14.9042   -6.6971    2.5022 H   0  0  0  0  0  0  0  0  0  0  0  0
  -13.0571   -9.1170    3.2029 O   0  0  0  0  0  0  0  0  0  0  0  0
  -12.6354   -9.8774    4.3224 C   0  0  0  0  0  0  0  0  0  0  0  0
   -8.4946   -9.0110    4.7632 C   0  0  0  0  0  0  0  0  0  0  0  0
   -9.3151   -8.9708    5.8667 C   0  0  0  0  0  0  0  0  0  0  0  0
   -9.0224   -9.3302    3.5319 C   0  0  0  0  0  0  0  0  0  0  0  0
  -10.6578   -9.2533    5.7328 C   0  0  0  0  0  0  0  0  0  0  0  0
  -10.3609   -9.6054    3.3998 C   0  0  0  0  0  0  0  0  0  0  0  0
  -11.1847   -9.5669    4.5013 C   0  0  0  0  0  0  0  0  0  0  0  0
 16 17  1  0  0  0
 16 18  2  0  0  0
 28 29  1  0  0  0
 28 30  2  0  0  0
 17 19  2  0  0  0
 18 20  1  0  0  0
  1  2  1  0  0  0
  1  3  2  0  0  0
 29 31  2  0  0  0
 30 32  1  0  0  0
  2  4  2  0  0  0
 19 21  1  0  0  0
 20 21  2  0  0  0
  3  5  1  0  0  0
 31 33  1  0  0  0
 32 33  2  0  0  0
  4  6  1  0  0  0
 21  9  1  0  0  0
  5  6  2  0  0  0
  5  9  1  0  0  0
 33 27  1  0  0  0
  6 15  1  0  0  0
  7 10  1  0  0  0
  7 12  2  0  0  0
  7 15  1  0  0  0
  8 11  1  0  0  0
  8 13  2  0  0  0
  8 15  1  0  0  0
  9 14  2  0  0  0
 22 23  1  0  0  0
 22 24  2  0  0  0
 22 26  1  0  0  0
 10 14  1  0  0  0
 10 23  1  0  0  0
 27 26  1  0  0  0
 12 13  1  0  0  0
 23 25  1  0  0  0
M  END
> <minimizedAffinity>
-9.45851

$$$$
2YEL_WSH_A_1170


 33 37  0  0  0  0  0  0  0  0999 V2000
   -8.4482   -4.5256    4.1389 C   0  0  0  0  0  0  0  0  0  0  0  0
   -9.1390   -4.9118    5.2672 C   0  0  0  0  0  0  0  0  0  0  0  0
   -8.8081   -5.0025    2.9030 C   0  0  0  0  0  0  0  0  0  0  0  0
  -10.1985   -5.7860    5.1611 C   0  0  0  0  0  0  0  0  0  0  0  0
   -9.8712   -5.8801    2.8000 C   0  0  0  0  0  0  0  0  0  0  0  0
  -10.5708   -6.2760    3.9265 C   0  0  0  0  0  0  0  0  0  0  0  0
  -12.7004   -7.1343    2.9635 C   0  0  0  0  0  0  0  0  0  0  0  0
  -12.0527   -8.1863    4.7554 C   0  0  0  0  0  0  0  0  0  0  0  0
  -10.2353   -6.3942    1.4497 C   0  0  0  0  0  0  0  0  0  0  0  0
  -12.5658   -6.1521    1.8188 C   0  0  0  0  0  0  0  0  0  0  0  0
  -11.2397   -8.6230    5.9184 C   0  0  0  0  0  0  0  0  0  0  0  0
  -13.6346   -8.0004    3.2782 N   0  0  0  0  0  0  0  0  0  0  0  0
  -13.2280   -8.6605    4.4160 N   0  0  0  0  0  0  0  0  0  0  0  0
  -11.4233   -6.5618    0.9936 N   0  0  0  0  0  0  0  0  0  0  0  0
  -11.6731   -7.2040    3.8665 N   0  0  0  0  0  0  0  0  0  0  0  0
   -7.0882   -7.6158   -1.1521 C   0  0  0  0  0  0  0  0  0  0  0  0
   -8.1236   -6.8443   -1.6280 C   0  0  0  0  0  0  0  0  0  0  0  0
   -7.0769   -7.9986    0.1641 C   0  0  0  0  0  0  0  0  0  0  0  0
   -9.1429   -6.4558   -0.7904 C   0  0  0  0  0  0  0  0  0  0  0  0
   -8.0961   -7.6074    1.0051 C   0  0  0  0  0  0  0  0  0  0  0  0
   -9.1369   -6.8325    0.5350 C   0  0  0  0  0  0  0  0  0  0  0  0
  -13.9876   -5.4461   -0.0230 C   0  0  0  0  0  0  0  0  0  0  0  0
  -13.7446   -6.2803    1.0031 N   0  0  0  0  0  0  0  0  0  0  0  0
  -14.9564   -5.5034   -0.7700 O   0  0  0  0  0  0  0  0  0  0  0  0
  -14.3896   -6.9972    1.2016 H   0  0  0  0  0  0  0  0  0  0  0  0
  -13.0008   -4.5203   -0.1004 O   0  0  0  0  0  0  0  0  0  0  0  0
  -13.3526   -3.1587   -0.2781 C   0  0  0  0  0  0  0  0  0  0  0  0
  -12.8960   -2.3412   -4.4271 C   0  0  0  0  0  0  0  0  0  0  0  0
  -11.8511   -2.9011   -3.7292 C   0  0  0  0  0  0  0  0  0  0  0  0
  -14.0746   -2.0524   -3.7757 C   0  0  0  0  0  0  0  0  0  0  0  0
  -11.9922   -3.1720   -2.3848 C   0  0  0  0  0  0  0  0  0  0  0  0
  -14.2108   -2.3175   -2.4356 C   0  0  0  0  0  0  0  0  0  0  0  0
  -13.1681   -2.8781   -1.7342 C   0  0  0  0  0  0  0  0  0  0  0  0
 16 17  1  0  0  0
 16 18  2  0  0  0
 28 29  1  0  0  0
 28 30  2  0  0  0
 17 19  2  0  0  0
 18 20  1  0  0  0
  1  2  1  0  0  0
  1  3  2  0  0  0
 29 31  2  0  0  0
 30 32  1  0  0  0
  2  4  2  0  0  0
 19 21  1  0  0  0
 20 21  2  0  0  0
  3  5  1  0  0  0
 31 33  1  0  0  0
 32 33  2  0  0  0
  4  6  1  0  0  0
 21  9  1  0  0  0
  5  6  2  0  0  0
  5  9  1  0  0  0
 33 27  1  0  0  0
  6 15  1  0  0  0
  7 10  1  0  0  0
  7 12  2  0  0  0
  7 15  1  0  0  0
  8 11  1  0  0  0
  8 13  2  0  0  0
  8 15  1  0  0  0
  9 14  2  0  0  0
 22 23  1  0  0  0
 22 24  2  0  0  0
 22 26  1  0  0  0
 10 14  1  0  0  0
 10 23  1  0  0  0
 27 26  1  0  0  0
 12 13  1  0  0  0
 23 25  1  0  0  0
M  END
> <minimizedAffinity>
-8.69898

$$$$
2YEL_WSH_A_1170


 33 37  0  0  0  0  0  0  0  0999 V2000
  -11.4690  -10.7821    2.8003 C   0  0  0  0  0  0  0  0  0  0  0  0
  -12.1342  -11.5866    3.7001 C   0  0  0  0  0  0  0  0  0  0  0  0
  -11.7465   -9.4397    2.7265 C   0  0  0  0  0  0  0  0  0  0  0  0
  -13.0892  -11.0460    4.5330 C   0  0  0  0  0  0  0  0  0  0  0  0
  -12.7058   -8.9004    3.5631 C   0  0  0  0  0  0  0  0  0  0  0  0
  -13.3812   -9.6993    4.4692 C   0  0  0  0  0  0  0  0  0  0  0  0
  -14.2846   -8.0347    6.0854 C   0  0  0  0  0  0  0  0  0  0  0  0
  -15.5692   -9.7664    5.7886 C   0  0  0  0  0  0  0  0  0  0  0  0
  -12.9990   -7.4435    3.4561 C   0  0  0  0  0  0  0  0  0  0  0  0
  -13.0983   -7.1359    5.8058 C   0  0  0  0  0  0  0  0  0  0  0  0
  -16.1177  -11.0423    5.2638 C   0  0  0  0  0  0  0  0  0  0  0  0
  -15.2952   -7.9296    6.9158 N   0  0  0  0  0  0  0  0  0  0  0  0
  -16.1038   -9.0290    6.7329 N   0  0  0  0  0  0  0  0  0  0  0  0
  -13.2143   -6.6365    4.4306 N   0  0  0  0  0  0  0  0  0  0  0  0
  -14.4022   -9.1817    5.3464 N   0  0  0  0  0  0  0  0  0  0  0  0
  -13.3905   -5.7041   -0.4152 C   0  0  0  0  0  0  0  0  0  0  0  0
  -14.4165   -6.4497    0.1188 C   0  0  0  0  0  0  0  0  0  0  0  0
  -12.2349   -5.5292    0.3010 C   0  0  0  0  0  0  0  0  0  0  0  0
  -14.2878   -7.0170    1.3651 C   0  0  0  0  0  0  0  0  0  0  0  0
  -12.1060   -6.0946    1.5511 C   0  0  0  0  0  0  0  0  0  0  0  0
  -13.1313   -6.8424    2.0936 C   0  0  0  0  0  0  0  0  0  0  0  0
  -12.1552   -5.5442    7.3835 C   0  0  0  0  0  0  0  0  0  0  0  0
  -13.2074   -5.9978    6.6801 N   0  0  0  0  0  0  0  0  0  0  0  0
  -12.1664   -4.5744    8.1314 O   0  0  0  0  0  0  0  0  0  0  0  0
  -14.0747   -5.5397    6.7652 H   0  0  0  0  0  0  0  0  0  0  0  0
  -11.0773   -6.3315    7.1488 O   0  0  0  0  0  0  0  0  0  0  0  0
   -9.7934   -5.7337    7.0888 C   0  0  0  0  0  0  0  0  0  0  0  0
   -8.6787   -5.6997    2.9843 C   0  0  0  0  0  0  0  0  0  0  0  0
   -9.1900   -6.8512    3.5366 C   0  0  0  0  0  0  0  0  0  0  0  0
   -8.5339   -4.5744    3.7650 C   0  0  0  0  0  0  0  0  0  0  0  0
   -9.5566   -6.8695    4.8655 C   0  0  0  0  0  0  0  0  0  0  0  0
   -8.8941   -4.5967    5.0896 C   0  0  0  0  0  0  0  0  0  0  0  0
   -9.4064   -5.7464    5.6455 C   0  0  0  0  0  0  0  0  0  0  0  0
 16 17  1  0  0  0
 16 18  2  0  0  0
 28 29  1  0  0  0
 28 30  2  0  0  0
 17 19  2  0  0  0
 18 20  1  0  0  0
  1  2  1  0  0  0
  1  3  2  0  0  0
 29 31  2  0  0  0
 30 32  1  0  0  0
  2  4  2  0  0  0
 19 21  1  0  0  0
 20 21  2  0  0  0
  3  5  1  0  0  0
 31 33  1  0  0  0
 32 33  2  0  0  0
  4  6  1  0  0  0
 21  9  1  0  0  0
  5  6  2  0  0  0
  5  9  1  0  0  0
 33 27  1  0  0  0
  6 15  1  0  0  0
  7 10  1  0  0  0
  7 12  2  0  0  0
  7 15  1  0  0  0
  8 11  1  0  0  0
  8 13  2  0  0  0
  8 15  1  0  0  0
  9 14  2  0  0  0
 22 23  1  0  0  0
 22 24  2  0  0  0
 22 26  1  0  0  0
 10 14  1  0  0  0
 10 23  1  0  0  0
 27 26  1  0  0  0
 12 13  1  0  0  0
 23 25  1  0  0  0
M  END
> <minimizedAffinity>
-8.33395

$$$$
2YEL_WSH_A_1170


 33 37  0  0  0  0  0  0  0  0999 V2000
   -8.1810   -6.9691    0.0136 C   0  0  0  0  0  0  0  0  0  0  0  0
   -8.8231   -6.5926   -1.1463 C   0  0  0  0  0  0  0  0  0  0  0  0
   -8.7941   -6.8153    1.2321 C   0  0  0  0  0  0  0  0  0  0  0  0
  -10.0897   -6.0537   -1.0890 C   0  0  0  0  0  0  0  0  0  0  0  0
  -10.0648   -6.2735    1.2863 C   0  0  0  0  0  0  0  0  0  0  0  0
  -10.7182   -5.8904    0.1280 C   0  0  0  0  0  0  0  0  0  0  0  0
  -13.0957   -5.7874    0.8604 C   0  0  0  0  0  0  0  0  0  0  0  0
  -12.5741   -4.3194   -0.6596 C   0  0  0  0  0  0  0  0  0  0  0  0
  -10.7051   -6.1045    2.6211 C   0  0  0  0  0  0  0  0  0  0  0  0
  -12.8192   -6.8779    1.8741 C   0  0  0  0  0  0  0  0  0  0  0  0
  -11.7922   -3.4989   -1.6186 C   0  0  0  0  0  0  0  0  0  0  0  0
  -14.1941   -5.1535    0.5233 N   0  0  0  0  0  0  0  0  0  0  0  0
  -13.8651   -4.2301   -0.4436 N   0  0  0  0  0  0  0  0  0  0  0  0
  -11.9353   -6.3294    2.9094 N   0  0  0  0  0  0  0  0  0  0  0  0
  -12.0356   -5.3037    0.1407 N   0  0  0  0  0  0  0  0  0  0  0  0
   -8.3414   -4.5676    5.8175 C   0  0  0  0  0  0  0  0  0  0  0  0
   -9.5240   -5.2209    6.0792 C   0  0  0  0  0  0  0  0  0  0  0  0
   -7.9290   -4.4048    4.5204 C   0  0  0  0  0  0  0  0  0  0  0  0
  -10.2904   -5.7107    5.0476 C   0  0  0  0  0  0  0  0  0  0  0  0
   -8.6947   -4.8978    3.4861 C   0  0  0  0  0  0  0  0  0  0  0  0
   -9.8810   -5.5553    3.7411 C   0  0  0  0  0  0  0  0  0  0  0  0
  -14.1972   -8.2640    3.3204 C   0  0  0  0  0  0  0  0  0  0  0  0
  -14.0695   -7.1980    2.5110 N   0  0  0  0  0  0  0  0  0  0  0  0
  -15.2203   -8.5891    3.9097 O   0  0  0  0  0  0  0  0  0  0  0  0
  -14.8513   -6.6217    2.3500 H   0  0  0  0  0  0  0  0  0  0  0  0
  -13.0212   -8.9353    3.3779 O   0  0  0  0  0  0  0  0  0  0  0  0
  -12.4438   -9.1966    4.6459 C   0  0  0  0  0  0  0  0  0  0  0  0
  -12.5730  -13.4214    5.1203 C   0  0  0  0  0  0  0  0  0  0  0  0
  -13.6403  -12.6610    5.5389 C   0  0  0  0  0  0  0  0  0  0  0  0
  -11.4779  -12.8072    4.5543 C   0  0  0  0  0  0  0  0  0  0  0  0
  -13.6074  -11.2912    5.3858 C   0  0  0  0  0  0  0  0  0  0  0  0
  -11.4450  -11.4425    4.4083 C   0  0  0  0  0  0  0  0  0  0  0  0
  -12.5108  -10.6786    4.8251 C   0  0  0  0  0  0  0  0  0  0  0  0
 16 17  1  0  0  0
 16 18  2  0  0  0
 28 29  1  0  0  0
 28 30  2  0  0  0
 17 19  2  0  0  0
 18 20  1  0  0  0
  1  2  1  0  0  0
  1  3  2  0  0  0
 29 31  2  0  0  0
 30 32  1  0  0  0
  2  4  2  0  0  0
 19 21  1  0  0  0
 20 21  2  0  0  0
  3  5  1  0  0  0
 31 33  1  0  0  0
 32 33  2  0  0  0
  4  6  1  0  0  0
 21  9  1  0  0  0
  5  6  2  0  0  0
  5  9  1  0  0  0
 33 27  1  0  0  0
  6 15  1  0  0  0
  7 10  1  0  0  0
  7 12  2  0  0  0
  7 15  1  0  0  0
  8 11  1  0  0  0
  8 13  2  0  0  0
  8 15  1  0  0  0
  9 14  2  0  0  0
 22 23  1  0  0  0
 22 24  2  0  0  0
 22 26  1  0  0  0
 10 14  1  0  0  0
 10 23  1  0  0  0
 27 26  1  0  0  0
 12 13  1  0  0  0
 23 25  1  0  0  0
M  END
> <minimizedAffinity>
-7.96061

$$$$
2YEL_WSH_A_1170


 33 37  0  0  0  0  0  0  0  0999 V2000
  -11.7950  -11.0333    2.9644 C   0  0  0  0  0  0  0  0  0  0  0  0
  -12.2255  -11.4212    4.2149 C   0  0  0  0  0  0  0  0  0  0  0  0
  -11.8085   -9.7095    2.6014 C   0  0  0  0  0  0  0  0  0  0  0  0
  -12.6774  -10.4779    5.1115 C   0  0  0  0  0  0  0  0  0  0  0  0
  -12.2632   -8.7655    3.5031 C   0  0  0  0  0  0  0  0  0  0  0  0
  -12.6994   -9.1440    4.7608 C   0  0  0  0  0  0  0  0  0  0  0  0
  -12.5922   -7.0066    6.0334 C   0  0  0  0  0  0  0  0  0  0  0  0
  -14.2110   -8.3236    6.6516 C   0  0  0  0  0  0  0  0  0  0  0  0
  -12.2804   -7.3363    3.0821 C   0  0  0  0  0  0  0  0  0  0  0  0
  -11.4408   -6.5564    5.1588 C   0  0  0  0  0  0  0  0  0  0  0  0
  -15.1556   -9.4677    6.7065 C   0  0  0  0  0  0  0  0  0  0  0  0
  -13.1818   -6.4565    7.0686 N   0  0  0  0  0  0  0  0  0  0  0  0
  -14.2010   -7.2935    7.4640 N   0  0  0  0  0  0  0  0  0  0  0  0
  -11.9557   -6.3259    3.8039 N   0  0  0  0  0  0  0  0  0  0  0  0
  -13.1993   -8.1947    5.7246 N   0  0  0  0  0  0  0  0  0  0  0  0
  -13.7206   -6.3554   -0.8076 C   0  0  0  0  0  0  0  0  0  0  0  0
  -14.6025   -6.5642    0.2280 C   0  0  0  0  0  0  0  0  0  0  0  0
  -12.3731   -6.4728   -0.5851 C   0  0  0  0  0  0  0  0  0  0  0  0
  -14.1384   -6.8876    1.4816 C   0  0  0  0  0  0  0  0  0  0  0  0
  -11.9068   -6.7939    0.6713 C   0  0  0  0  0  0  0  0  0  0  0  0
  -12.7853   -7.0032    1.7149 C   0  0  0  0  0  0  0  0  0  0  0  0
   -9.7038   -5.0686    5.9841 C   0  0  0  0  0  0  0  0  0  0  0  0
  -10.9912   -5.2855    5.6627 N   0  0  0  0  0  0  0  0  0  0  0  0
   -9.2445   -4.0124    6.4005 O   0  0  0  0  0  0  0  0  0  0  0  0
  -11.6430   -4.5562    5.7750 H   0  0  0  0  0  0  0  0  0  0  0  0
   -8.9884   -6.2030    5.7883 O   0  0  0  0  0  0  0  0  0  0  0  0
   -7.7499   -6.1212    5.1036 C   0  0  0  0  0  0  0  0  0  0  0  0
   -8.5284   -7.4282    1.1316 C   0  0  0  0  0  0  0  0  0  0  0  0
   -8.6471   -6.0926    1.4395 C   0  0  0  0  0  0  0  0  0  0  0  0
   -8.1601   -8.3240    2.1107 C   0  0  0  0  0  0  0  0  0  0  0  0
   -8.3935   -5.6606    2.7239 C   0  0  0  0  0  0  0  0  0  0  0  0
   -7.9138   -7.8923    3.3904 C   0  0  0  0  0  0  0  0  0  0  0  0
   -8.0309   -6.5572    3.7022 C   0  0  0  0  0  0  0  0  0  0  0  0
 16 17  1  0  0  0
 16 18  2  0  0  0
 28 29  1  0  0  0
 28 30  2  0  0  0
 17 19  2  0  0  0
 18 20  1  0  0  0
  1  2  1  0  0  0
  1  3  2  0  0  0
 29 31  2  0  0  0
 30 32  1  0  0  0
  2  4  2  0  0  0
 19 21  1  0  0  0
 20 21  2  0  0  0
  3  5  1  0  0  0
 31 33  1  0  0  0
 32 33  2  0  0  0
  4  6  1  0  0  0
 21  9  1  0  0  0
  5  6  2  0  0  0
  5  9  1  0  0  0
 33 27  1  0  0  0
  6 15  1  0  0  0
  7 10  1  0  0  0
  7 12  2  0  0  0
  7 15  1  0  0  0
  8 11  1  0  0  0
  8 13  2  0  0  0
  8 15  1  0  0  0
  9 14  2  0  0  0
 22 23  1  0  0  0
 22 24  2  0  0  0
 22 26  1  0  0  0
 10 14  1  0  0  0
 10 23  1  0  0  0
 27 26  1  0  0  0
 12 13  1  0  0  0
 23 25  1  0  0  0
M  END
> <minimizedAffinity>
-7.72856

$$$$
2YEL_WSH_A_1170


 33 37  0  0  0  0  0  0  0  0999 V2000
  -11.8021  -10.1028    3.0204 C   0  0  0  0  0  0  0  0  0  0  0  0
  -12.4188  -10.2466    4.2445 C   0  0  0  0  0  0  0  0  0  0  0  0
  -11.3381   -8.8769    2.6127 C   0  0  0  0  0  0  0  0  0  0  0  0
  -12.5769   -9.1544    5.0692 C   0  0  0  0  0  0  0  0  0  0  0  0
  -11.4989   -7.7827    3.4421 C   0  0  0  0  0  0  0  0  0  0  0  0
  -12.1182   -7.9154    4.6726 C   0  0  0  0  0  0  0  0  0  0  0  0
  -11.3674   -5.8691    5.8762 C   0  0  0  0  0  0  0  0  0  0  0  0
  -13.3755   -6.5202    6.4062 C   0  0  0  0  0  0  0  0  0  0  0  0
  -10.9986   -6.4600    2.9727 C   0  0  0  0  0  0  0  0  0  0  0  0
  -10.0779   -5.8888    5.0826 C   0  0  0  0  0  0  0  0  0  0  0  0
  -14.6563   -7.2710    6.4237 C   0  0  0  0  0  0  0  0  0  0  0  0
  -11.7982   -5.0912    6.8412 N   0  0  0  0  0  0  0  0  0  0  0  0
  -13.0656   -5.5080    7.1813 N   0  0  0  0  0  0  0  0  0  0  0  0
  -10.3946   -5.5785    3.6835 N   0  0  0  0  0  0  0  0  0  0  0  0
  -12.3236   -6.7972    5.5600 N   0  0  0  0  0  0  0  0  0  0  0  0
  -11.7692   -5.2816   -1.0502 C   0  0  0  0  0  0  0  0  0  0  0  0
  -12.7957   -5.3457   -0.1359 C   0  0  0  0  0  0  0  0  0  0  0  0
  -10.4950   -5.6073   -0.6635 C   0  0  0  0  0  0  0  0  0  0  0  0
  -12.5485   -5.7327    1.1606 C   0  0  0  0  0  0  0  0  0  0  0  0
  -10.2457   -5.9924    0.6359 C   0  0  0  0  0  0  0  0  0  0  0  0
  -11.2700   -6.0576    1.5586 C   0  0  0  0  0  0  0  0  0  0  0  0
   -8.0893   -5.0557    6.2066 C   0  0  0  0  0  0  0  0  0  0  0  0
   -9.2535   -4.8179    5.5776 N   0  0  0  0  0  0  0  0  0  0  0  0
   -7.3279   -4.1990    6.6383 O   0  0  0  0  0  0  0  0  0  0  0  0
   -9.5497   -3.8874    5.4524 H   0  0  0  0  0  0  0  0  0  0  0  0
   -7.8885   -6.3926    6.3025 O   0  0  0  0  0  0  0  0  0  0  0  0
   -6.7477   -6.9595    5.6808 C   0  0  0  0  0  0  0  0  0  0  0  0
   -8.1622  -10.4992    3.7939 C   0  0  0  0  0  0  0  0  0  0  0  0
   -7.1735   -9.7589    3.1882 C   0  0  0  0  0  0  0  0  0  0  0  0
   -8.6812  -10.0864    5.0009 C   0  0  0  0  0  0  0  0  0  0  0  0
   -6.7074   -8.6120    3.7948 C   0  0  0  0  0  0  0  0  0  0  0  0
   -8.2197   -8.9408    5.6003 C   0  0  0  0  0  0  0  0  0  0  0  0
   -7.2304   -8.1979    4.9979 C   0  0  0  0  0  0  0  0  0  0  0  0
 16 17  1  0  0  0
 16 18  2  0  0  0
 28 29  1  0  0  0
 28 30  2  0  0  0
 17 19  2  0  0  0
 18 20  1  0  0  0
  1  2  1  0  0  0
  1  3  2  0  0  0
 29 31  2  0  0  0
 30 32  1  0  0  0
  2  4  2  0  0  0
 19 21  1  0  0  0
 20 21  2  0  0  0
  3  5  1  0  0  0
 31 33  1  0  0  0
 32 33  2  0  0  0
  4  6  1  0  0  0
 21  9  1  0  0  0
  5  6  2  0  0  0
  5  9  1  0  0  0
 33 27  1  0  0  0
  6 15  1  0  0  0
  7 10  1  0  0  0
  7 12  2  0  0  0
  7 15  1  0  0  0
  8 11  1  0  0  0
  8 13  2  0  0  0
  8 15  1  0  0  0
  9 14  2  0  0  0
 22 23  1  0  0  0
 22 24  2  0  0  0
 22 26  1  0  0  0
 10 14  1  0  0  0
 10 23  1  0  0  0
 27 26  1  0  0  0
 12 13  1  0  0  0
 23 25  1  0  0  0
M  END
> <minimizedAffinity>
-7.35543

$$$$
2YEL_WSH_A_1170


 33 37  0  0  0  0  0  0  0  0999 V2000
   -8.3243   -4.3922    4.2171 C   0  0  0  0  0  0  0  0  0  0  0  0
   -7.6003   -4.8189    5.3095 C   0  0  0  0  0  0  0  0  0  0  0  0
   -8.7814   -5.2932    3.2877 C   0  0  0  0  0  0  0  0  0  0  0  0
   -7.3267   -6.1591    5.4742 C   0  0  0  0  0  0  0  0  0  0  0  0
   -8.5046   -6.6371    3.4555 C   0  0  0  0  0  0  0  0  0  0  0  0
   -7.7769   -7.0765    4.5476 C   0  0  0  0  0  0  0  0  0  0  0  0
   -8.3383   -9.5009    4.6281 C   0  0  0  0  0  0  0  0  0  0  0  0
   -6.3133   -9.0399    5.2794 C   0  0  0  0  0  0  0  0  0  0  0  0
   -9.0001   -7.5948    2.4271 C   0  0  0  0  0  0  0  0  0  0  0  0
   -9.6969   -9.1948    4.0334 C   0  0  0  0  0  0  0  0  0  0  0  0
   -5.0638   -8.2976    5.5826 C   0  0  0  0  0  0  0  0  0  0  0  0
   -7.7912  -10.6158    5.0521 N   0  0  0  0  0  0  0  0  0  0  0  0
   -6.5128  -10.3224    5.4709 N   0  0  0  0  0  0  0  0  0  0  0  0
   -9.5029   -8.7550    2.6466 N   0  0  0  0  0  0  0  0  0  0  0  0
   -7.4495   -8.4662    4.7509 N   0  0  0  0  0  0  0  0  0  0  0  0
   -8.5800   -6.5880   -1.6931 C   0  0  0  0  0  0  0  0  0  0  0  0
   -7.5459   -7.1934   -1.0165 C   0  0  0  0  0  0  0  0  0  0  0  0
   -9.7466   -6.3012   -1.0329 C   0  0  0  0  0  0  0  0  0  0  0  0
   -7.6785   -7.5120    0.3149 C   0  0  0  0  0  0  0  0  0  0  0  0
   -9.8818   -6.6227    0.3003 C   0  0  0  0  0  0  0  0  0  0  0  0
   -8.8494   -7.2312    0.9848 C   0  0  0  0  0  0  0  0  0  0  0  0
  -11.6706  -10.5359    4.5004 C   0  0  0  0  0  0  0  0  0  0  0  0
  -10.4326  -10.4309    3.9865 N   0  0  0  0  0  0  0  0  0  0  0  0
  -12.3632  -11.5457    4.4824 O   0  0  0  0  0  0  0  0  0  0  0  0
  -10.0188  -11.2198    3.5673 H   0  0  0  0  0  0  0  0  0  0  0  0
  -12.0350   -9.3540    5.0548 O   0  0  0  0  0  0  0  0  0  0  0  0
  -13.3754   -8.9157    4.9119 C   0  0  0  0  0  0  0  0  0  0  0  0
  -13.3034   -6.1273    1.7008 C   0  0  0  0  0  0  0  0  0  0  0  0
  -14.2316   -7.1427    1.6940 C   0  0  0  0  0  0  0  0  0  0  0  0
  -12.4105   -6.0261    2.7444 C   0  0  0  0  0  0  0  0  0  0  0  0
  -14.2635   -8.0487    2.7326 C   0  0  0  0  0  0  0  0  0  0  0  0
  -12.4403   -6.9330    3.7747 C   0  0  0  0  0  0  0  0  0  0  0  0
  -13.3676   -7.9496    3.7718 C   0  0  0  0  0  0  0  0  0  0  0  0
 16 17  1  0  0  0
 16 18  2  0  0  0
 28 29  1  0  0  0
 28 30  2  0  0  0
 17 19  2  0  0  0
 18 20  1  0  0  0
  1  2  1  0  0  0
  1  3  2  0  0  0
 29 31  2  0  0  0
 30 32  1  0  0  0
  2  4  2  0  0  0
 19 21  1  0  0  0
 20 21  2  0  0  0
  3  5  1  0  0  0
 31 33  1  0  0  0
 32 33  2  0  0  0
  4  6  1  0  0  0
 21  9  1  0  0  0
  5  6  2  0  0  0
  5  9  1  0  0  0
 33 27  1  0  0  0
  6 15  1  0  0  0
  7 10  1  0  0  0
  7 12  2  0  0  0
  7 15  1  0  0  0
  8 11  1  0  0  0
  8 13  2  0  0  0
  8 15  1  0  0  0
  9 14  2  0  0  0
 22 23  1  0  0  0
 22 24  2  0  0  0
 22 26  1  0  0  0
 10 14  1  0  0  0
 10 23  1  0  0  0
 27 26  1  0  0  0
 12 13  1  0  0  0
 23 25  1  0  0  0
M  END
> <minimizedAffinity>
-7.32559

$$$$
2YEL_WSH_A_1170


 33 37  0  0  0  0  0  0  0  0999 V2000
   -9.3862   -5.5229    4.6345 C   0  0  0  0  0  0  0  0  0  0  0  0
   -8.8947   -6.6422    5.2709 C   0  0  0  0  0  0  0  0  0  0  0  0
  -10.4211   -5.6275    3.7387 C   0  0  0  0  0  0  0  0  0  0  0  0
   -9.4399   -7.8798    5.0079 C   0  0  0  0  0  0  0  0  0  0  0  0
  -10.9655   -6.8708    3.4763 C   0  0  0  0  0  0  0  0  0  0  0  0
  -10.4786   -8.0016    4.1084 C   0  0  0  0  0  0  0  0  0  0  0  0
  -12.3373   -9.6303    3.8045 C   0  0  0  0  0  0  0  0  0  0  0  0
  -10.3580  -10.5356    3.7962 C   0  0  0  0  0  0  0  0  0  0  0  0
  -12.0794   -6.9613    2.4909 C   0  0  0  0  0  0  0  0  0  0  0  0
  -13.3277   -8.4847    3.8126 C   0  0  0  0  0  0  0  0  0  0  0  0
   -8.8826  -10.7011    3.8099 C   0  0  0  0  0  0  0  0  0  0  0  0
  -12.4931  -10.9313    3.7343 N   0  0  0  0  0  0  0  0  0  0  0  0
  -11.2410  -11.5041    3.7365 N   0  0  0  0  0  0  0  0  0  0  0  0
  -13.1273   -7.6955    2.5914 N   0  0  0  0  0  0  0  0  0  0  0  0
  -11.0043   -9.3195    3.8498 N   0  0  0  0  0  0  0  0  0  0  0  0
  -11.7471   -4.7304   -1.1256 C   0  0  0  0  0  0  0  0  0  0  0  0
  -12.8847   -4.6420   -0.3563 C   0  0  0  0  0  0  0  0  0  0  0  0
  -10.7211   -5.5478   -0.7278 C   0  0  0  0  0  0  0  0  0  0  0  0
  -12.9952   -5.3671    0.8071 C   0  0  0  0  0  0  0  0  0  0  0  0
  -10.8294   -6.2726    0.4393 C   0  0  0  0  0  0  0  0  0  0  0  0
  -11.9667   -6.1877    1.2165 C   0  0  0  0  0  0  0  0  0  0  0  0
  -15.4398   -9.1510    4.8161 C   0  0  0  0  0  0  0  0  0  0  0  0
  -14.6459   -9.0572    3.7350 N   0  0  0  0  0  0  0  0  0  0  0  0
  -16.5760   -9.6080    4.8247 O   0  0  0  0  0  0  0  0  0  0  0  0
  -14.9747   -9.3887    2.8683 H   0  0  0  0  0  0  0  0  0  0  0  0
  -14.7870   -8.6722    5.9031 O   0  0  0  0  0  0  0  0  0  0  0  0
  -15.3722   -7.6127    6.6409 C   0  0  0  0  0  0  0  0  0  0  0  0
  -12.1040   -5.4667    8.3155 C   0  0  0  0  0  0  0  0  0  0  0  0
  -12.9235   -6.2023    9.1400 C   0  0  0  0  0  0  0  0  0  0  0  0
  -12.3510   -5.4336    6.9611 C   0  0  0  0  0  0  0  0  0  0  0  0
  -13.9831   -6.9031    8.6046 C   0  0  0  0  0  0  0  0  0  0  0  0
  -13.4103   -6.1276    6.4308 C   0  0  0  0  0  0  0  0  0  0  0  0
  -14.2319   -6.8650    7.2522 C   0  0  0  0  0  0  0  0  0  0  0  0
 16 17  1  0  0  0
 16 18  2  0  0  0
 28 29  1  0  0  0
 28 30  2  0  0  0
 17 19  2  0  0  0
 18 20  1  0  0  0
  1  2  1  0  0  0
  1  3  2  0  0  0
 29 31  2  0  0  0
 30 32  1  0  0  0
  2  4  2  0  0  0
 19 21  1  0  0  0
 20 21  2  0  0  0
  3  5  1  0  0  0
 31 33  1  0  0  0
 32 33  2  0  0  0
  4  6  1  0  0  0
 21  9  1  0  0  0
  5  6  2  0  0  0
  5  9  1  0  0  0
 33 27  1  0  0  0
  6 15  1  0  0  0
  7 10  1  0  0  0
  7 12  2  0  0  0
  7 15  1  0  0  0
  8 11  1  0  0  0
  8 13  2  0  0  0
  8 15  1  0  0  0
  9 14  2  0  0  0
 22 23  1  0  0  0
 22 24  2  0  0  0
 22 26  1  0  0  0
 10 14  1  0  0  0
 10 23  1  0  0  0
 27 26  1  0  0  0
 12 13  1  0  0  0
 23 25  1  0  0  0
M  END
> <minimizedAffinity>
-7.09352

$$$$
2YEL_WSH_A_1170


 33 37  0  0  0  0  0  0  0  0999 V2000
   -8.5489   -6.7875    1.7768 C   0  0  0  0  0  0  0  0  0  0  0  0
   -8.1061   -7.9286    2.4102 C   0  0  0  0  0  0  0  0  0  0  0  0
   -9.8683   -6.4157    1.8507 C   0  0  0  0  0  0  0  0  0  0  0  0
   -8.9905   -8.7088    3.1224 C   0  0  0  0  0  0  0  0  0  0  0  0
  -10.7533   -7.2010    2.5655 C   0  0  0  0  0  0  0  0  0  0  0  0
  -10.3200   -8.3498    3.2040 C   0  0  0  0  0  0  0  0  0  0  0  0
  -12.1390   -8.7683    4.8518 C   0  0  0  0  0  0  0  0  0  0  0  0
  -11.2181  -10.5797    4.0721 C   0  0  0  0  0  0  0  0  0  0  0  0
  -12.1828   -6.7842    2.6209 C   0  0  0  0  0  0  0  0  0  0  0  0
  -12.3951   -7.2779    4.9311 C   0  0  0  0  0  0  0  0  0  0  0  0
  -10.3684  -11.4988    3.2735 C   0  0  0  0  0  0  0  0  0  0  0  0
  -12.6642   -9.7892    5.4873 N   0  0  0  0  0  0  0  0  0  0  0  0
  -12.0761  -10.9344    4.9991 N   0  0  0  0  0  0  0  0  0  0  0  0
  -12.9525   -6.8385    3.6465 N   0  0  0  0  0  0  0  0  0  0  0  0
  -11.2127   -9.2076    3.9437 N   0  0  0  0  0  0  0  0  0  0  0  0
  -14.0192   -5.4431   -0.9839 C   0  0  0  0  0  0  0  0  0  0  0  0
  -13.7737   -4.5591    0.0417 C   0  0  0  0  0  0  0  0  0  0  0  0
  -13.6778   -6.7627   -0.8384 C   0  0  0  0  0  0  0  0  0  0  0  0
  -13.1875   -4.9929    1.2078 C   0  0  0  0  0  0  0  0  0  0  0  0
  -13.0877   -7.1979    0.3284 C   0  0  0  0  0  0  0  0  0  0  0  0
  -12.8371   -6.3167    1.3605 C   0  0  0  0  0  0  0  0  0  0  0  0
  -13.1075   -6.6873    7.1795 C   0  0  0  0  0  0  0  0  0  0  0  0
  -13.4128   -7.0702    5.9274 N   0  0  0  0  0  0  0  0  0  0  0  0
  -13.9169   -6.4744    8.0737 O   0  0  0  0  0  0  0  0  0  0  0  0
  -14.3566   -7.2122    5.6858 H   0  0  0  0  0  0  0  0  0  0  0  0
  -11.7624   -6.5826    7.3084 O   0  0  0  0  0  0  0  0  0  0  0  0
  -11.1634   -5.3016    7.2113 C   0  0  0  0  0  0  0  0  0  0  0  0
   -7.4412   -5.8628    5.2311 C   0  0  0  0  0  0  0  0  0  0  0  0
   -7.8264   -6.7487    6.2106 C   0  0  0  0  0  0  0  0  0  0  0  0
   -8.2631   -4.8072    4.9043 C   0  0  0  0  0  0  0  0  0  0  0  0
   -9.0328   -6.5755    6.8550 C   0  0  0  0  0  0  0  0  0  0  0  0
   -9.4613   -4.6333    5.5515 C   0  0  0  0  0  0  0  0  0  0  0  0
   -9.8504   -5.5176    6.5313 C   0  0  0  0  0  0  0  0  0  0  0  0
 16 17  1  0  0  0
 16 18  2  0  0  0
 28 29  1  0  0  0
 28 30  2  0  0  0
 17 19  2  0  0  0
 18 20  1  0  0  0
  1  2  1  0  0  0
  1  3  2  0  0  0
 29 31  2  0  0  0
 30 32  1  0  0  0
  2  4  2  0  0  0
 19 21  1  0  0  0
 20 21  2  0  0  0
  3  5  1  0  0  0
 31 33  1  0  0  0
 32 33  2  0  0  0
  4  6  1  0  0  0
 21  9  1  0  0  0
  5  6  2  0  0  0
  5  9  1  0  0  0
 33 27  1  0  0  0
  6 15  1  0  0  0
  7 10  1  0  0  0
  7 12  2  0  0  0
  7 15  1  0  0  0
  8 11  1  0  0  0
  8 13  2  0  0  0
  8 15  1  0  0  0
  9 14  2  0  0  0
 22 23  1  0  0  0
 22 24  2  0  0  0
 22 26  1  0  0  0
 10 14  1  0  0  0
 10 23  1  0  0  0
 27 26  1  0  0  0
 12 13  1  0  0  0
 23 25  1  0  0  0
M  END
> <minimizedAffinity>
-7.01260

$$$$
2YEL_WSH_A_1170


 33 37  0  0  0  0  0  0  0  0999 V2000
   -7.8763   -6.9166   -0.3600 C   0  0  0  0  0  0  0  0  0  0  0  0
   -8.8808   -6.6161   -1.2544 C   0  0  0  0  0  0  0  0  0  0  0  0
   -8.1550   -7.0762    0.9747 C   0  0  0  0  0  0  0  0  0  0  0  0
  -10.1771   -6.4701   -0.8113 C   0  0  0  0  0  0  0  0  0  0  0  0
   -9.4566   -6.9283    1.4162 C   0  0  0  0  0  0  0  0  0  0  0  0
  -10.4728   -6.6249    0.5272 C   0  0  0  0  0  0  0  0  0  0  0  0
  -12.5117   -7.2834    1.7955 C   0  0  0  0  0  0  0  0  0  0  0  0
  -12.8018   -5.5729    0.4812 C   0  0  0  0  0  0  0  0  0  0  0  0
   -9.7328   -7.0936    2.8711 C   0  0  0  0  0  0  0  0  0  0  0  0
  -11.7099   -8.3524    2.5078 C   0  0  0  0  0  0  0  0  0  0  0  0
  -12.5373   -4.4652   -0.4713 C   0  0  0  0  0  0  0  0  0  0  0  0
  -13.7818   -6.9565    1.8393 N   0  0  0  0  0  0  0  0  0  0  0  0
  -13.9663   -5.8791    1.0021 N   0  0  0  0  0  0  0  0  0  0  0  0
  -10.7433   -7.6896    3.3913 N   0  0  0  0  0  0  0  0  0  0  0  0
  -11.8403   -6.4431    0.9478 N   0  0  0  0  0  0  0  0  0  0  0  0
   -7.0471   -5.2794    5.6391 C   0  0  0  0  0  0  0  0  0  0  0  0
   -7.1538   -6.6496    5.5704 C   0  0  0  0  0  0  0  0  0  0  0  0
   -7.8164   -4.4970    4.8173 C   0  0  0  0  0  0  0  0  0  0  0  0
   -8.0255   -7.2353    4.6822 C   0  0  0  0  0  0  0  0  0  0  0  0
   -8.6879   -5.0827    3.9249 C   0  0  0  0  0  0  0  0  0  0  0  0
   -8.7992   -6.4563    3.8495 C   0  0  0  0  0  0  0  0  0  0  0  0
  -12.3427  -10.3250    3.7809 C   0  0  0  0  0  0  0  0  0  0  0  0
  -12.6212   -9.0824    3.3493 N   0  0  0  0  0  0  0  0  0  0  0  0
  -13.0581  -10.9996    4.5110 O   0  0  0  0  0  0  0  0  0  0  0  0
  -13.4702   -8.6611    3.6157 H   0  0  0  0  0  0  0  0  0  0  0  0
  -11.1510  -10.7261    3.2752 O   0  0  0  0  0  0  0  0  0  0  0  0
  -10.7081  -12.0476    3.5334 C   0  0  0  0  0  0  0  0  0  0  0  0
   -6.4625  -11.8175    3.4196 C   0  0  0  0  0  0  0  0  0  0  0  0
   -7.0819  -13.0176    3.1576 C   0  0  0  0  0  0  0  0  0  0  0  0
   -7.2225  -10.7076    3.7151 C   0  0  0  0  0  0  0  0  0  0  0  0
   -8.4578  -13.0997    3.1895 C   0  0  0  0  0  0  0  0  0  0  0  0
   -8.5922  -10.7932    3.7521 C   0  0  0  0  0  0  0  0  0  0  0  0
   -9.2155  -11.9916    3.4901 C   0  0  0  0  0  0  0  0  0  0  0  0
 16 17  1  0  0  0
 16 18  2  0  0  0
 28 29  1  0  0  0
 28 30  2  0  0  0
 17 19  2  0  0  0
 18 20  1  0  0  0
  1  2  1  0  0  0
  1  3  2  0  0  0
 29 31  2  0  0  0
 30 32  1  0  0  0
  2  4  2  0  0  0
 19 21  1  0  0  0
 20 21  2  0  0  0
  3  5  1  0  0  0
 31 33  1  0  0  0
 32 33  2  0  0  0
  4  6  1  0  0  0
 21  9  1  0  0  0
  5  6  2  0  0  0
  5  9  1  0  0  0
 33 27  1  0  0  0
  6 15  1  0  0  0
  7 10  1  0  0  0
  7 12  2  0  0  0
  7 15  1  0  0  0
  8 11  1  0  0  0
  8 13  2  0  0  0
  8 15  1  0  0  0
  9 14  2  0  0  0
 22 23  1  0  0  0
 22 24  2  0  0  0
 22 26  1  0  0  0
 10 14  1  0  0  0
 10 23  1  0  0  0
 27 26  1  0  0  0
 12 13  1  0  0  0
 23 25  1  0  0  0
M  END
> <minimizedAffinity>
-6.94840

$$$$
