3P2E_SAH_A_6732


 33 35  0  0  0  0  0  0  0  0999 V2000
   10.1525   11.0677   -2.2346 C   0  0  0  0  0  0  0  0  0  0  0  0
    8.7887   10.7805   -2.5708 O   0  0  0  0  0  0  0  0  0  0  0  0
   10.9536   11.1059   -3.5200 C   0  0  0  0  0  0  0  0  0  0  0  0
   12.0298   10.1159   -3.4895 O   0  0  0  0  0  0  0  0  0  0  0  0
    9.8841   10.8861   -4.6519 C   0  0  0  0  0  0  0  0  0  0  0  0
   10.3252   10.1940   -5.7994 O   0  0  0  0  0  0  0  0  0  0  0  0
    8.7624   10.1489   -3.8894 C   0  0  0  0  0  0  0  0  0  0  0  0
   11.6536    9.2338   -3.3436 H   0  0  0  0  0  0  0  0  0  0  0  0
   10.6345    9.3105   -5.5451 H   0  0  0  0  0  0  0  0  0  0  0  0
    7.3847   10.3205   -4.4998 N   0  0  0  0  0  0  0  0  0  0  0  0
    6.8444   11.4947   -5.0430 C   0  0  0  0  0  0  0  0  0  0  0  0
    5.6391   11.3141   -5.5523 N   0  0  0  0  0  0  0  0  0  0  0  0
    5.4150    9.9188   -5.3029 C   0  0  0  0  0  0  0  0  0  0  0  0
    4.2414    9.1669   -5.6547 C   0  0  0  0  0  0  0  0  0  0  0  0
    3.1837    9.7285   -6.2865 N   0  0  0  0  0  0  0  0  0  0  0  0
    4.2958    7.8321   -5.2919 N   0  0  0  0  0  0  0  0  0  0  0  0
    5.3942    7.2604   -4.6376 C   0  0  0  0  0  0  0  0  0  0  0  0
    6.5252    7.9990   -4.3021 N   0  0  0  0  0  0  0  0  0  0  0  0
    6.4426    9.3175   -4.6763 C   0  0  0  0  0  0  0  0  0  0  0  0
    3.2010   10.6847   -6.5204 H   0  0  0  0  0  0  0  0  0  0  0  0
    2.3974    9.1807   -6.5119 H   0  0  0  0  0  0  0  0  0  0  0  0
   10.0168   12.4660   -1.4712 C   0  0  0  0  0  0  0  0  0  0  0  0
   11.6082   12.8588   -0.7335 S   0  0  0  0  0  0  0  0  0  0  0  0
   12.5063   11.4031   -0.3088 C   0  0  0  0  0  0  0  0  0  0  0  0
   12.6548   11.0805    1.1484 C   0  0  0  0  0  0  0  0  0  0  0  0
   10.4968   11.0152    2.1455 N   0  0  0  0  0  0  0  0  0  0  0  0
   11.5704   10.2339    1.8203 C   0  0  0  0  0  0  0  0  0  0  0  0
   10.1882   11.5295    1.3205 H   0  0  0  0  0  0  0  0  0  0  0  0
   10.7648   11.6742    2.8764 H   0  0  0  0  0  0  0  0  0  0  0  0
   12.0432    9.4368    3.1128 C   0  0  0  0  0  0  0  0  0  0  0  0
   12.8214   10.1146    3.6380 O   0  0  0  0  0  0  0  0  0  0  0  0
   11.6577    8.4057    3.4381 O   0  0  0  0  0  0  0  0  0  0  0  0
   11.0203    7.9581    2.9172 H   0  0  0  0  0  0  0  0  0  0  0  0
 26 27  1  0  0  0
 27 25  1  0  0  0
 27 30  1  0  0  0
 25 24  1  0  0  0
 24 23  1  0  0  0
 23 22  1  0  0  0
 30 31  2  0  0  0
 30 32  1  0  0  0
 22  1  1  0  0  0
  1  2  1  0  0  0
  1  3  1  0  0  0
  2  7  1  0  0  0
  3  4  1  0  0  0
  3  5  1  0  0  0
  5  6  1  0  0  0
  5  7  1  0  0  0
  7 10  1  0  0  0
 10 11  1  0  0  0
 10 19  1  0  0  0
 11 12  2  0  0  0
 12 13  1  0  0  0
 13 14  1  0  0  0
 13 19  2  0  0  0
 14 15  1  0  0  0
 14 16  2  0  0  0
 16 17  1  0  0  0
 17 18  2  0  0  0
 18 19  1  0  0  0
 26 28  1  0  0  0
 26 29  1  0  0  0
 32 33  1  0  0  0
  4  8  1  0  0  0
  6  9  1  0  0  0
 15 20  1  0  0  0
 15 21  1  0  0  0
M  END
> <minimizedAffinity>
-9.51885

$$$$
3P2E_SAH_A_6732


 33 35  0  0  0  0  0  0  0  0999 V2000
    9.1726   10.9700   -3.2413 C   0  0  0  0  0  0  0  0  0  0  0  0
   10.4599   10.5588   -2.7624 O   0  0  0  0  0  0  0  0  0  0  0  0
    8.6949   12.1170   -2.3745 C   0  0  0  0  0  0  0  0  0  0  0  0
    7.4231   11.7864   -1.7323 O   0  0  0  0  0  0  0  0  0  0  0  0
    9.8879   12.3793   -1.3837 C   0  0  0  0  0  0  0  0  0  0  0  0
    9.5381   12.8291   -0.0931 O   0  0  0  0  0  0  0  0  0  0  0  0
   10.6028   11.0112   -1.3792 C   0  0  0  0  0  0  0  0  0  0  0  0
    7.5265   10.9772   -1.2076 H   0  0  0  0  0  0  0  0  0  0  0  0
    8.9707   12.1699    0.3362 H   0  0  0  0  0  0  0  0  0  0  0  0
   12.0759   11.0853   -1.0259 N   0  0  0  0  0  0  0  0  0  0  0  0
   13.1217   11.5071   -1.8590 C   0  0  0  0  0  0  0  0  0  0  0  0
   14.2914   11.5156   -1.2455 N   0  0  0  0  0  0  0  0  0  0  0  0
   13.9424   11.0614    0.0703 C   0  0  0  0  0  0  0  0  0  0  0  0
   14.8422   10.8783    1.1763 C   0  0  0  0  0  0  0  0  0  0  0  0
   16.1692   11.1294    1.0798 N   0  0  0  0  0  0  0  0  0  0  0  0
   14.2305   10.4280    2.3336 N   0  0  0  0  0  0  0  0  0  0  0  0
   12.8570   10.1700    2.4234 C   0  0  0  0  0  0  0  0  0  0  0  0
   11.9956   10.3512    1.3451 N   0  0  0  0  0  0  0  0  0  0  0  0
   12.6304   10.8000    0.2134 C   0  0  0  0  0  0  0  0  0  0  0  0
   16.5492   11.4487    0.2295 H   0  0  0  0  0  0  0  0  0  0  0  0
   16.7541   10.9928    1.8598 H   0  0  0  0  0  0  0  0  0  0  0  0
    9.4917   11.3483   -4.7617 C   0  0  0  0  0  0  0  0  0  0  0  0
    8.0774   10.8762   -5.7656 S   0  0  0  0  0  0  0  0  0  0  0  0
    6.7390   10.2990   -4.7748 C   0  0  0  0  0  0  0  0  0  0  0  0
    6.3759    8.8474   -4.8778 C   0  0  0  0  0  0  0  0  0  0  0  0
    4.7691    7.0960   -4.7989 N   0  0  0  0  0  0  0  0  0  0  0  0
    4.9008    8.4560   -4.7561 C   0  0  0  0  0  0  0  0  0  0  0  0
    5.3830    6.6729   -4.1028 H   0  0  0  0  0  0  0  0  0  0  0  0
    5.0243    6.7588   -5.7271 H   0  0  0  0  0  0  0  0  0  0  0  0
    3.9401    9.1054   -5.8446 C   0  0  0  0  0  0  0  0  0  0  0  0
    3.9673    8.3944   -6.7581 O   0  0  0  0  0  0  0  0  0  0  0  0
    3.3426   10.0766   -5.7118 O   0  0  0  0  0  0  0  0  0  0  0  0
    3.4107   10.5632   -4.9139 H   0  0  0  0  0  0  0  0  0  0  0  0
 26 27  1  0  0  0
 27 25  1  0  0  0
 27 30  1  0  0  0
 25 24  1  0  0  0
 24 23  1  0  0  0
 23 22  1  0  0  0
 30 31  2  0  0  0
 30 32  1  0  0  0
 22  1  1  0  0  0
  1  2  1  0  0  0
  1  3  1  0  0  0
  2  7  1  0  0  0
  3  4  1  0  0  0
  3  5  1  0  0  0
  5  6  1  0  0  0
  5  7  1  0  0  0
  7 10  1  0  0  0
 10 11  1  0  0  0
 10 19  1  0  0  0
 11 12  2  0  0  0
 12 13  1  0  0  0
 13 14  1  0  0  0
 13 19  2  0  0  0
 14 15  1  0  0  0
 14 16  2  0  0  0
 16 17  1  0  0  0
 17 18  2  0  0  0
 18 19  1  0  0  0
 26 28  1  0  0  0
 26 29  1  0  0  0
 32 33  1  0  0  0
  4  8  1  0  0  0
  6  9  1  0  0  0
 15 20  1  0  0  0
 15 21  1  0  0  0
M  END
> <minimizedAffinity>
-8.87504

$$$$
3P2E_SAH_A_6732


 33 35  0  0  0  0  0  0  0  0999 V2000
   10.0414   11.2039   -2.1412 C   0  0  0  0  0  0  0  0  0  0  0  0
    8.6868   10.9079   -2.5060 O   0  0  0  0  0  0  0  0  0  0  0  0
   10.8845   11.1645   -3.3993 C   0  0  0  0  0  0  0  0  0  0  0  0
   11.9503   10.1702   -3.2780 O   0  0  0  0  0  0  0  0  0  0  0  0
    9.8508   10.8891   -4.5522 C   0  0  0  0  0  0  0  0  0  0  0  0
   10.3232   10.1307   -5.6440 O   0  0  0  0  0  0  0  0  0  0  0  0
    8.6982   10.2037   -3.7875 C   0  0  0  0  0  0  0  0  0  0  0  0
   11.5617    9.3003   -3.0957 H   0  0  0  0  0  0  0  0  0  0  0  0
   10.6162    9.2607   -5.3308 H   0  0  0  0  0  0  0  0  0  0  0  0
    7.3429   10.3505   -4.4521 N   0  0  0  0  0  0  0  0  0  0  0  0
    6.8082   11.5120   -5.0271 C   0  0  0  0  0  0  0  0  0  0  0  0
    5.6259   11.3100   -5.5806 N   0  0  0  0  0  0  0  0  0  0  0  0
    5.4111    9.9141   -5.3262 C   0  0  0  0  0  0  0  0  0  0  0  0
    4.2622    9.1427   -5.7154 C   0  0  0  0  0  0  0  0  0  0  0  0
    3.2222    9.6837   -6.3928 N   0  0  0  0  0  0  0  0  0  0  0  0
    4.3206    7.8122   -5.3376 N   0  0  0  0  0  0  0  0  0  0  0  0
    5.4006    7.2620   -4.6360 C   0  0  0  0  0  0  0  0  0  0  0  0
    6.5078    8.0193   -4.2646 N   0  0  0  0  0  0  0  0  0  0  0  0
    6.4219    9.3329   -4.6547 C   0  0  0  0  0  0  0  0  0  0  0  0
    3.2356   10.6378   -6.6352 H   0  0  0  0  0  0  0  0  0  0  0  0
    2.4526    9.1231   -6.6428 H   0  0  0  0  0  0  0  0  0  0  0  0
    9.8930   12.6437   -1.4618 C   0  0  0  0  0  0  0  0  0  0  0  0
   10.9971   12.7114   -0.0449 S   0  0  0  0  0  0  0  0  0  0  0  0
   12.6304   13.1789   -0.5137 C   0  0  0  0  0  0  0  0  0  0  0  0
   13.6809   12.1086   -0.5272 C   0  0  0  0  0  0  0  0  0  0  0  0
   14.4309   12.9618   -2.6165 N   0  0  0  0  0  0  0  0  0  0  0  0
   14.8283   12.2278   -1.5338 C   0  0  0  0  0  0  0  0  0  0  0  0
   14.0443   13.8513   -2.3008 H   0  0  0  0  0  0  0  0  0  0  0  0
   13.7190   12.4462   -3.1339 H   0  0  0  0  0  0  0  0  0  0  0  0
   15.4291   10.8438   -2.0367 C   0  0  0  0  0  0  0  0  0  0  0  0
   14.7416   10.4930   -2.8998 O   0  0  0  0  0  0  0  0  0  0  0  0
   16.3669   10.3322   -1.6164 O   0  0  0  0  0  0  0  0  0  0  0  0
   16.8377   10.7257   -0.9082 H   0  0  0  0  0  0  0  0  0  0  0  0
 26 27  1  0  0  0
 27 25  1  0  0  0
 27 30  1  0  0  0
 25 24  1  0  0  0
 24 23  1  0  0  0
 23 22  1  0  0  0
 30 31  2  0  0  0
 30 32  1  0  0  0
 22  1  1  0  0  0
  1  2  1  0  0  0
  1  3  1  0  0  0
  2  7  1  0  0  0
  3  4  1  0  0  0
  3  5  1  0  0  0
  5  6  1  0  0  0
  5  7  1  0  0  0
  7 10  1  0  0  0
 10 11  1  0  0  0
 10 19  1  0  0  0
 11 12  2  0  0  0
 12 13  1  0  0  0
 13 14  1  0  0  0
 13 19  2  0  0  0
 14 15  1  0  0  0
 14 16  2  0  0  0
 16 17  1  0  0  0
 17 18  2  0  0  0
 18 19  1  0  0  0
 26 28  1  0  0  0
 26 29  1  0  0  0
 32 33  1  0  0  0
  4  8  1  0  0  0
  6  9  1  0  0  0
 15 20  1  0  0  0
 15 21  1  0  0  0
M  END
> <minimizedAffinity>
-8.67980

$$$$
3P2E_SAH_A_6732


 33 35  0  0  0  0  0  0  0  0999 V2000
    9.7841   10.7392   -2.5969 C   0  0  0  0  0  0  0  0  0  0  0  0
   10.9205   10.3365   -1.8209 O   0  0  0  0  0  0  0  0  0  0  0  0
    9.2606   12.0390   -2.0209 C   0  0  0  0  0  0  0  0  0  0  0  0
    7.8686   11.8941   -1.5960 O   0  0  0  0  0  0  0  0  0  0  0  0
   10.2713   12.3890   -0.8679 C   0  0  0  0  0  0  0  0  0  0  0  0
    9.7335   13.0641    0.2480 O   0  0  0  0  0  0  0  0  0  0  0  0
   10.8484   11.0002   -0.5199 C   0  0  0  0  0  0  0  0  0  0  0  0
    7.8019   11.1771   -0.9461 H   0  0  0  0  0  0  0  0  0  0  0  0
    9.0408   12.5189    0.6527 H   0  0  0  0  0  0  0  0  0  0  0  0
   12.2330   11.0438    0.0977 N   0  0  0  0  0  0  0  0  0  0  0  0
   12.5967   10.6123    1.3811 C   0  0  0  0  0  0  0  0  0  0  0  0
   13.8926   10.7263    1.6099 N   0  0  0  0  0  0  0  0  0  0  0  0
   14.3680   11.2734    0.3713 C   0  0  0  0  0  0  0  0  0  0  0  0
   15.7297   11.6055    0.0521 C   0  0  0  0  0  0  0  0  0  0  0  0
   16.7443   11.4251    0.9303 N   0  0  0  0  0  0  0  0  0  0  0  0
   15.9022   12.1195   -1.2217 N   0  0  0  0  0  0  0  0  0  0  0  0
   14.8460   12.3035   -2.1228 C   0  0  0  0  0  0  0  0  0  0  0  0
   13.5313   11.9779   -1.8020 N   0  0  0  0  0  0  0  0  0  0  0  0
   13.3924   11.4692   -0.5343 C   0  0  0  0  0  0  0  0  0  0  0  0
   16.5617   11.0550    1.8241 H   0  0  0  0  0  0  0  0  0  0  0  0
   17.6646   11.6639    0.6751 H   0  0  0  0  0  0  0  0  0  0  0  0
   10.4077   10.8437   -4.0654 C   0  0  0  0  0  0  0  0  0  0  0  0
    9.1434   10.3581   -5.2472 S   0  0  0  0  0  0  0  0  0  0  0  0
    7.9373    9.3028   -4.5139 C   0  0  0  0  0  0  0  0  0  0  0  0
    6.5477    9.8442   -4.3541 C   0  0  0  0  0  0  0  0  0  0  0  0
    5.4956   11.4885   -5.7123 N   0  0  0  0  0  0  0  0  0  0  0  0
    5.7349   10.1461   -5.6160 C   0  0  0  0  0  0  0  0  0  0  0  0
    6.3768   11.9971   -5.6390 H   0  0  0  0  0  0  0  0  0  0  0  0
    4.8724   11.7778   -4.9584 H   0  0  0  0  0  0  0  0  0  0  0  0
    4.3554    9.3630   -5.7314 C   0  0  0  0  0  0  0  0  0  0  0  0
    4.4421    8.4578   -5.0144 O   0  0  0  0  0  0  0  0  0  0  0  0
    3.4675    9.6704   -6.3908 O   0  0  0  0  0  0  0  0  0  0  0  0
    3.5273   10.4337   -6.9310 H   0  0  0  0  0  0  0  0  0  0  0  0
 26 27  1  0  0  0
 27 25  1  0  0  0
 27 30  1  0  0  0
 25 24  1  0  0  0
 24 23  1  0  0  0
 23 22  1  0  0  0
 30 31  2  0  0  0
 30 32  1  0  0  0
 22  1  1  0  0  0
  1  2  1  0  0  0
  1  3  1  0  0  0
  2  7  1  0  0  0
  3  4  1  0  0  0
  3  5  1  0  0  0
  5  6  1  0  0  0
  5  7  1  0  0  0
  7 10  1  0  0  0
 10 11  1  0  0  0
 10 19  1  0  0  0
 11 12  2  0  0  0
 12 13  1  0  0  0
 13 14  1  0  0  0
 13 19  2  0  0  0
 14 15  1  0  0  0
 14 16  2  0  0  0
 16 17  1  0  0  0
 17 18  2  0  0  0
 18 19  1  0  0  0
 26 28  1  0  0  0
 26 29  1  0  0  0
 32 33  1  0  0  0
  4  8  1  0  0  0
  6  9  1  0  0  0
 15 20  1  0  0  0
 15 21  1  0  0  0
M  END
> <minimizedAffinity>
-8.64960

$$$$
3P2E_SAH_A_6732


 33 35  0  0  0  0  0  0  0  0999 V2000
   11.6949   12.7949   -4.5707 C   0  0  0  0  0  0  0  0  0  0  0  0
   11.4062   12.8454   -3.1673 O   0  0  0  0  0  0  0  0  0  0  0  0
   12.6387   11.6349   -4.8134 C   0  0  0  0  0  0  0  0  0  0  0  0
   13.8838   12.0989   -5.4244 O   0  0  0  0  0  0  0  0  0  0  0  0
   12.8045   10.9658   -3.3997 C   0  0  0  0  0  0  0  0  0  0  0  0
   14.0584   10.3769   -3.1328 O   0  0  0  0  0  0  0  0  0  0  0  0
   12.4678   12.1375   -2.4529 C   0  0  0  0  0  0  0  0  0  0  0  0
   14.2960   12.7652   -4.8525 H   0  0  0  0  0  0  0  0  0  0  0  0
   14.7524   11.0517   -3.1950 H   0  0  0  0  0  0  0  0  0  0  0  0
   11.9543   11.7048   -1.0930 N   0  0  0  0  0  0  0  0  0  0  0  0
   10.6148   11.5984   -0.6933 C   0  0  0  0  0  0  0  0  0  0  0  0
   10.4844   11.1383    0.5380 N   0  0  0  0  0  0  0  0  0  0  0  0
   11.8509   10.9469    0.9321 C   0  0  0  0  0  0  0  0  0  0  0  0
   12.3118   10.4528    2.2009 C   0  0  0  0  0  0  0  0  0  0  0  0
   11.4610   10.1025    3.1942 N   0  0  0  0  0  0  0  0  0  0  0  0
   13.6895   10.3696    2.3081 N   0  0  0  0  0  0  0  0  0  0  0  0
   14.5616   10.7354    1.2752 C   0  0  0  0  0  0  0  0  0  0  0  0
   14.1031   11.2127    0.0507 N   0  0  0  0  0  0  0  0  0  0  0  0
   12.7340   11.2818   -0.0262 C   0  0  0  0  0  0  0  0  0  0  0  0
   10.4889   10.1830    3.0609 H   0  0  0  0  0  0  0  0  0  0  0  0
   11.8145    9.7672    4.0497 H   0  0  0  0  0  0  0  0  0  0  0  0
   10.2350   12.6328   -5.2023 C   0  0  0  0  0  0  0  0  0  0  0  0
    9.8589   10.8779   -5.3017 S   0  0  0  0  0  0  0  0  0  0  0  0
    8.7428   10.3781   -4.0326 C   0  0  0  0  0  0  0  0  0  0  0  0
    7.4118   11.0664   -3.9693 C   0  0  0  0  0  0  0  0  0  0  0  0
    5.9088   12.4149   -5.2255 N   0  0  0  0  0  0  0  0  0  0  0  0
    6.6262   11.2521   -5.2703 C   0  0  0  0  0  0  0  0  0  0  0  0
    6.5293   13.1883   -4.9861 H   0  0  0  0  0  0  0  0  0  0  0  0
    5.1765   12.3357   -4.5199 H   0  0  0  0  0  0  0  0  0  0  0  0
    5.6500   10.0535   -5.6441 C   0  0  0  0  0  0  0  0  0  0  0  0
    4.5906   10.5156   -5.7140 O   0  0  0  0  0  0  0  0  0  0  0  0
    5.9680    8.9643   -5.8181 O   0  0  0  0  0  0  0  0  0  0  0  0
    6.8678    8.7190   -5.7285 H   0  0  0  0  0  0  0  0  0  0  0  0
 26 27  1  0  0  0
 27 25  1  0  0  0
 27 30  1  0  0  0
 25 24  1  0  0  0
 24 23  1  0  0  0
 23 22  1  0  0  0
 30 31  2  0  0  0
 30 32  1  0  0  0
 22  1  1  0  0  0
  1  2  1  0  0  0
  1  3  1  0  0  0
  2  7  1  0  0  0
  3  4  1  0  0  0
  3  5  1  0  0  0
  5  6  1  0  0  0
  5  7  1  0  0  0
  7 10  1  0  0  0
 10 11  1  0  0  0
 10 19  1  0  0  0
 11 12  2  0  0  0
 12 13  1  0  0  0
 13 14  1  0  0  0
 13 19  2  0  0  0
 14 15  1  0  0  0
 14 16  2  0  0  0
 16 17  1  0  0  0
 17 18  2  0  0  0
 18 19  1  0  0  0
 26 28  1  0  0  0
 26 29  1  0  0  0
 32 33  1  0  0  0
  4  8  1  0  0  0
  6  9  1  0  0  0
 15 20  1  0  0  0
 15 21  1  0  0  0
M  END
> <minimizedAffinity>
-8.08217

$$$$
3P2E_SAH_A_6732


 33 35  0  0  0  0  0  0  0  0999 V2000
   14.2482   14.0817   -1.9911 C   0  0  0  0  0  0  0  0  0  0  0  0
   14.0579   13.4983   -0.6954 O   0  0  0  0  0  0  0  0  0  0  0  0
   14.6227   12.9732   -2.9535 C   0  0  0  0  0  0  0  0  0  0  0  0
   15.9250   13.2360   -3.5651 O   0  0  0  0  0  0  0  0  0  0  0  0
   14.5515   11.6636   -2.0855 C   0  0  0  0  0  0  0  0  0  0  0  0
   15.4619   10.6410   -2.4255 O   0  0  0  0  0  0  0  0  0  0  0  0
   14.7609   12.2166   -0.6596 C   0  0  0  0  0  0  0  0  0  0  0  0
   16.5953   13.3308   -2.8704 H   0  0  0  0  0  0  0  0  0  0  0  0
   16.3689   10.9735   -2.3383 H   0  0  0  0  0  0  0  0  0  0  0  0
   14.1658   11.3489    0.4328 N   0  0  0  0  0  0  0  0  0  0  0  0
   14.8641   10.5380    1.3385 C   0  0  0  0  0  0  0  0  0  0  0  0
   14.0692    9.9463    2.2119 N   0  0  0  0  0  0  0  0  0  0  0  0
   12.7770   10.4272    1.8140 C   0  0  0  0  0  0  0  0  0  0  0  0
   11.5190   10.1016    2.4288 C   0  0  0  0  0  0  0  0  0  0  0  0
   11.4268    9.2709    3.4939 N   0  0  0  0  0  0  0  0  0  0  0  0
   10.4262   10.7110    1.8363 N   0  0  0  0  0  0  0  0  0  0  0  0
   10.5316   11.5681    0.7339 C   0  0  0  0  0  0  0  0  0  0  0  0
   11.7558   11.8759    0.1472 N   0  0  0  0  0  0  0  0  0  0  0  0
   12.8199   11.2589    0.7573 C   0  0  0  0  0  0  0  0  0  0  0  0
   12.2396    8.8657    3.8739 H   0  0  0  0  0  0  0  0  0  0  0  0
   10.5470    9.0721    3.8885 H   0  0  0  0  0  0  0  0  0  0  0  0
   12.8282   14.7671   -2.2561 C   0  0  0  0  0  0  0  0  0  0  0  0
   12.2910   14.3216   -3.9126 S   0  0  0  0  0  0  0  0  0  0  0  0
   10.6305   13.7312   -3.9222 C   0  0  0  0  0  0  0  0  0  0  0  0
   10.1524   12.9869   -2.7110 C   0  0  0  0  0  0  0  0  0  0  0  0
    8.0891   12.0657   -1.9698 N   0  0  0  0  0  0  0  0  0  0  0  0
    9.0824   11.9076   -2.8956 C   0  0  0  0  0  0  0  0  0  0  0  0
    7.7410   13.0238   -2.0048 H   0  0  0  0  0  0  0  0  0  0  0  0
    8.4580   11.8718   -1.0388 H   0  0  0  0  0  0  0  0  0  0  0  0
    9.6177   10.4113   -2.8328 C   0  0  0  0  0  0  0  0  0  0  0  0
    9.2650    9.9054   -3.8128 O   0  0  0  0  0  0  0  0  0  0  0  0
   10.2398    9.9612   -1.9794 O   0  0  0  0  0  0  0  0  0  0  0  0
   10.4595   10.4841   -1.2335 H   0  0  0  0  0  0  0  0  0  0  0  0
 26 27  1  0  0  0
 27 25  1  0  0  0
 27 30  1  0  0  0
 25 24  1  0  0  0
 24 23  1  0  0  0
 23 22  1  0  0  0
 30 31  2  0  0  0
 30 32  1  0  0  0
 22  1  1  0  0  0
  1  2  1  0  0  0
  1  3  1  0  0  0
  2  7  1  0  0  0
  3  4  1  0  0  0
  3  5  1  0  0  0
  5  6  1  0  0  0
  5  7  1  0  0  0
  7 10  1  0  0  0
 10 11  1  0  0  0
 10 19  1  0  0  0
 11 12  2  0  0  0
 12 13  1  0  0  0
 13 14  1  0  0  0
 13 19  2  0  0  0
 14 15  1  0  0  0
 14 16  2  0  0  0
 16 17  1  0  0  0
 17 18  2  0  0  0
 18 19  1  0  0  0
 26 28  1  0  0  0
 26 29  1  0  0  0
 32 33  1  0  0  0
  4  8  1  0  0  0
  6  9  1  0  0  0
 15 20  1  0  0  0
 15 21  1  0  0  0
M  END
> <minimizedAffinity>
-8.02169

$$$$
3P2E_SAH_A_6732


 33 35  0  0  0  0  0  0  0  0999 V2000
    9.3343   10.7273   -1.9561 C   0  0  0  0  0  0  0  0  0  0  0  0
   10.7459   10.8287   -2.1858 O   0  0  0  0  0  0  0  0  0  0  0  0
    9.0252   11.4016   -0.6350 C   0  0  0  0  0  0  0  0  0  0  0  0
    8.3982   10.4607    0.2928 O   0  0  0  0  0  0  0  0  0  0  0  0
   10.4091   11.9776   -0.1588 C   0  0  0  0  0  0  0  0  0  0  0  0
   10.6212   12.0154    1.2354 O   0  0  0  0  0  0  0  0  0  0  0  0
   11.4059   11.0629   -0.9022 C   0  0  0  0  0  0  0  0  0  0  0  0
    8.9825    9.6975    0.4234 H   0  0  0  0  0  0  0  0  0  0  0  0
   10.5647   11.1166    1.5956 H   0  0  0  0  0  0  0  0  0  0  0  0
   12.7626   11.6960   -1.1445 N   0  0  0  0  0  0  0  0  0  0  0  0
   13.0952   12.6169   -2.1479 C   0  0  0  0  0  0  0  0  0  0  0  0
   14.3466   13.0317   -2.0657 N   0  0  0  0  0  0  0  0  0  0  0  0
   14.8269   12.3089   -0.9228 C   0  0  0  0  0  0  0  0  0  0  0  0
   16.1502   12.3758   -0.3652 C   0  0  0  0  0  0  0  0  0  0  0  0
   17.1176   13.1654   -0.8886 N   0  0  0  0  0  0  0  0  0  0  0  0
   16.3378   11.5678    0.7430 N   0  0  0  0  0  0  0  0  0  0  0  0
   15.3309   10.7536    1.2765 C   0  0  0  0  0  0  0  0  0  0  0  0
   14.0531   10.6974    0.7277 N   0  0  0  0  0  0  0  0  0  0  0  0
   13.8971   11.5103   -0.3678 C   0  0  0  0  0  0  0  0  0  0  0  0
   16.9263   13.7197   -1.6794 H   0  0  0  0  0  0  0  0  0  0  0  0
   18.0124   13.1851   -0.4783 H   0  0  0  0  0  0  0  0  0  0  0  0
    8.7365   11.4514   -3.2502 C   0  0  0  0  0  0  0  0  0  0  0  0
    8.7600   10.2770   -4.6108 S   0  0  0  0  0  0  0  0  0  0  0  0
    7.6228    8.9560   -4.3507 C   0  0  0  0  0  0  0  0  0  0  0  0
    6.1744    9.2220   -4.6351 C   0  0  0  0  0  0  0  0  0  0  0  0
    5.3961   11.2383   -5.6272 N   0  0  0  0  0  0  0  0  0  0  0  0
    5.8107    9.9692   -5.9210 C   0  0  0  0  0  0  0  0  0  0  0  0
    6.0976   11.6996   -5.0480 H   0  0  0  0  0  0  0  0  0  0  0  0
    4.5108   11.1984   -5.1221 H   0  0  0  0  0  0  0  0  0  0  0  0
    4.7106    9.2592   -6.8238 C   0  0  0  0  0  0  0  0  0  0  0  0
    4.4591    8.2611   -6.2934 O   0  0  0  0  0  0  0  0  0  0  0  0
    4.2659    9.6864   -7.7921 O   0  0  0  0  0  0  0  0  0  0  0  0
    4.5600   10.5144   -8.1173 H   0  0  0  0  0  0  0  0  0  0  0  0
 26 27  1  0  0  0
 27 25  1  0  0  0
 27 30  1  0  0  0
 25 24  1  0  0  0
 24 23  1  0  0  0
 23 22  1  0  0  0
 30 31  2  0  0  0
 30 32  1  0  0  0
 22  1  1  0  0  0
  1  2  1  0  0  0
  1  3  1  0  0  0
  2  7  1  0  0  0
  3  4  1  0  0  0
  3  5  1  0  0  0
  5  6  1  0  0  0
  5  7  1  0  0  0
  7 10  1  0  0  0
 10 11  1  0  0  0
 10 19  1  0  0  0
 11 12  2  0  0  0
 12 13  1  0  0  0
 13 14  1  0  0  0
 13 19  2  0  0  0
 14 15  1  0  0  0
 14 16  2  0  0  0
 16 17  1  0  0  0
 17 18  2  0  0  0
 18 19  1  0  0  0
 26 28  1  0  0  0
 26 29  1  0  0  0
 32 33  1  0  0  0
  4  8  1  0  0  0
  6  9  1  0  0  0
 15 20  1  0  0  0
 15 21  1  0  0  0
M  END
> <minimizedAffinity>
-7.87710

$$$$
3P2E_SAH_A_6732


 33 35  0  0  0  0  0  0  0  0999 V2000
    9.0823   10.4558   -1.6857 C   0  0  0  0  0  0  0  0  0  0  0  0
   10.4220   10.4807   -2.1959 O   0  0  0  0  0  0  0  0  0  0  0  0
    9.0360   11.3290   -0.4485 C   0  0  0  0  0  0  0  0  0  0  0  0
    8.6026   10.5563    0.7152 O   0  0  0  0  0  0  0  0  0  0  0  0
   10.4857   11.9296   -0.3415 C   0  0  0  0  0  0  0  0  0  0  0  0
   10.9653   12.1698    0.9633 O   0  0  0  0  0  0  0  0  0  0  0  0
   11.3193   10.8854   -1.1146 C   0  0  0  0  0  0  0  0  0  0  0  0
    9.2017    9.8047    0.8456 H   0  0  0  0  0  0  0  0  0  0  0  0
   10.9809   11.3370    1.4605 H   0  0  0  0  0  0  0  0  0  0  0  0
   12.6023   11.4356   -1.7074 N   0  0  0  0  0  0  0  0  0  0  0  0
   12.7676   12.0009   -2.9796 C   0  0  0  0  0  0  0  0  0  0  0  0
   13.9949   12.4436   -3.1860 N   0  0  0  0  0  0  0  0  0  0  0  0
   14.6404   12.1254   -1.9445 C   0  0  0  0  0  0  0  0  0  0  0  0
   16.0120   12.3886   -1.6039 C   0  0  0  0  0  0  0  0  0  0  0  0
   16.8684   12.9917   -2.4618 N   0  0  0  0  0  0  0  0  0  0  0  0
   16.3681   11.9730   -0.3324 N   0  0  0  0  0  0  0  0  0  0  0  0
   15.4751   11.3489    0.5476 C   0  0  0  0  0  0  0  0  0  0  0  0
   14.1490   11.0995    0.2063 N   0  0  0  0  0  0  0  0  0  0  0  0
   13.8254   11.5242   -1.0587 C   0  0  0  0  0  0  0  0  0  0  0  0
   16.5586   13.2660   -3.3551 H   0  0  0  0  0  0  0  0  0  0  0  0
   17.8010   13.1559   -2.1923 H   0  0  0  0  0  0  0  0  0  0  0  0
    8.2433   10.9949   -2.9354 C   0  0  0  0  0  0  0  0  0  0  0  0
    8.3319    9.7645   -4.2429 S   0  0  0  0  0  0  0  0  0  0  0  0
    6.7284    9.2744   -4.7858 C   0  0  0  0  0  0  0  0  0  0  0  0
    5.8474   10.3292   -5.3863 C   0  0  0  0  0  0  0  0  0  0  0  0
    5.8243   12.7031   -5.5271 N   0  0  0  0  0  0  0  0  0  0  0  0
    6.5043   11.5938   -5.9462 C   0  0  0  0  0  0  0  0  0  0  0  0
    5.7328   12.6822   -4.5114 H   0  0  0  0  0  0  0  0  0  0  0  0
    4.8970   12.7141   -5.9519 H   0  0  0  0  0  0  0  0  0  0  0  0
    6.6414   11.6361   -7.5302 C   0  0  0  0  0  0  0  0  0  0  0  0
    6.0511   12.5703   -7.8761 O   0  0  0  0  0  0  0  0  0  0  0  0
    7.2287   10.8844   -8.1687 O   0  0  0  0  0  0  0  0  0  0  0  0
    7.6666   10.1638   -7.7600 H   0  0  0  0  0  0  0  0  0  0  0  0
 26 27  1  0  0  0
 27 25  1  0  0  0
 27 30  1  0  0  0
 25 24  1  0  0  0
 24 23  1  0  0  0
 23 22  1  0  0  0
 30 31  2  0  0  0
 30 32  1  0  0  0
 22  1  1  0  0  0
  1  2  1  0  0  0
  1  3  1  0  0  0
  2  7  1  0  0  0
  3  4  1  0  0  0
  3  5  1  0  0  0
  5  6  1  0  0  0
  5  7  1  0  0  0
  7 10  1  0  0  0
 10 11  1  0  0  0
 10 19  1  0  0  0
 11 12  2  0  0  0
 12 13  1  0  0  0
 13 14  1  0  0  0
 13 19  2  0  0  0
 14 15  1  0  0  0
 14 16  2  0  0  0
 16 17  1  0  0  0
 17 18  2  0  0  0
 18 19  1  0  0  0
 26 28  1  0  0  0
 26 29  1  0  0  0
 32 33  1  0  0  0
  4  8  1  0  0  0
  6  9  1  0  0  0
 15 20  1  0  0  0
 15 21  1  0  0  0
M  END
> <minimizedAffinity>
-7.52110

$$$$
3P2E_SAH_A_6732


 33 35  0  0  0  0  0  0  0  0999 V2000
    9.1434   13.6098   -5.9947 C   0  0  0  0  0  0  0  0  0  0  0  0
    9.1338   13.5941   -4.5611 O   0  0  0  0  0  0  0  0  0  0  0  0
    9.7777   12.3198   -6.4730 C   0  0  0  0  0  0  0  0  0  0  0  0
   10.9559   12.5952   -7.2947 O   0  0  0  0  0  0  0  0  0  0  0  0
   10.0653   11.5146   -5.1529 C   0  0  0  0  0  0  0  0  0  0  0  0
   11.2050   10.6834   -5.1664 O   0  0  0  0  0  0  0  0  0  0  0  0
   10.1473   12.6443   -4.1041 C   0  0  0  0  0  0  0  0  0  0  0  0
   11.5899   13.1230   -6.7844 H   0  0  0  0  0  0  0  0  0  0  0  0
   11.9953   11.2209   -5.3321 H   0  0  0  0  0  0  0  0  0  0  0  0
    9.8177   12.2007   -2.6917 N   0  0  0  0  0  0  0  0  0  0  0  0
    8.5538   11.8611   -2.1888 C   0  0  0  0  0  0  0  0  0  0  0  0
    8.5961   11.4573   -0.9318 N   0  0  0  0  0  0  0  0  0  0  0  0
    9.9960   11.5570   -0.6326 C   0  0  0  0  0  0  0  0  0  0  0  0
   10.6259   11.2362    0.6192 C   0  0  0  0  0  0  0  0  0  0  0  0
    9.9264   10.7869    1.6878 N   0  0  0  0  0  0  0  0  0  0  0  0
   11.9969   11.4272    0.6270 N   0  0  0  0  0  0  0  0  0  0  0  0
   12.7116   11.8936   -0.4834 C   0  0  0  0  0  0  0  0  0  0  0  0
   12.0903   12.2008   -1.6905 N   0  0  0  0  0  0  0  0  0  0  0  0
   10.7323   11.9995   -1.6681 C   0  0  0  0  0  0  0  0  0  0  0  0
    8.9509   10.6701    1.6239 H   0  0  0  0  0  0  0  0  0  0  0  0
   10.3932   10.5769    2.5288 H   0  0  0  0  0  0  0  0  0  0  0  0
    7.5894   13.7747   -6.3332 C   0  0  0  0  0  0  0  0  0  0  0  0
    6.7423   12.2734   -5.8237 S   0  0  0  0  0  0  0  0  0  0  0  0
    6.5668   11.1388   -7.1608 C   0  0  0  0  0  0  0  0  0  0  0  0
    6.2423    9.7140   -6.8229 C   0  0  0  0  0  0  0  0  0  0  0  0
    4.2276    9.9147   -8.0704 N   0  0  0  0  0  0  0  0  0  0  0  0
    4.8100    9.2214   -7.0462 C   0  0  0  0  0  0  0  0  0  0  0  0
    4.8279    9.8727   -8.8940 H   0  0  0  0  0  0  0  0  0  0  0  0
    4.0992   10.8877   -7.7925 H   0  0  0  0  0  0  0  0  0  0  0  0
    3.8666    9.2931   -5.7678 C   0  0  0  0  0  0  0  0  0  0  0  0
    4.2761    8.5048   -5.0252 O   0  0  0  0  0  0  0  0  0  0  0  0
    2.9770   10.0064   -5.6350 O   0  0  0  0  0  0  0  0  0  0  0  0
    2.7478   10.6022   -6.3209 H   0  0  0  0  0  0  0  0  0  0  0  0
 26 27  1  0  0  0
 27 25  1  0  0  0
 27 30  1  0  0  0
 25 24  1  0  0  0
 24 23  1  0  0  0
 23 22  1  0  0  0
 30 31  2  0  0  0
 30 32  1  0  0  0
 22  1  1  0  0  0
  1  2  1  0  0  0
  1  3  1  0  0  0
  2  7  1  0  0  0
  3  4  1  0  0  0
  3  5  1  0  0  0
  5  6  1  0  0  0
  5  7  1  0  0  0
  7 10  1  0  0  0
 10 11  1  0  0  0
 10 19  1  0  0  0
 11 12  2  0  0  0
 12 13  1  0  0  0
 13 14  1  0  0  0
 13 19  2  0  0  0
 14 15  1  0  0  0
 14 16  2  0  0  0
 16 17  1  0  0  0
 17 18  2  0  0  0
 18 19  1  0  0  0
 26 28  1  0  0  0
 26 29  1  0  0  0
 32 33  1  0  0  0
  4  8  1  0  0  0
  6  9  1  0  0  0
 15 20  1  0  0  0
 15 21  1  0  0  0
M  END
> <minimizedAffinity>
-7.51184

$$$$
3P2E_SAH_A_6732


 33 35  0  0  0  0  0  0  0  0999 V2000
    9.5771   11.8612   -4.2885 C   0  0  0  0  0  0  0  0  0  0  0  0
   10.8878   11.3409   -4.0301 O   0  0  0  0  0  0  0  0  0  0  0  0
    9.1656   12.7055   -3.0998 C   0  0  0  0  0  0  0  0  0  0  0  0
    7.9333   12.1927   -2.5016 O   0  0  0  0  0  0  0  0  0  0  0  0
   10.4207   12.6818   -2.1524 C   0  0  0  0  0  0  0  0  0  0  0  0
   10.1567   12.7376   -0.7676 O   0  0  0  0  0  0  0  0  0  0  0  0
   11.1214   11.3768   -2.5870 C   0  0  0  0  0  0  0  0  0  0  0  0
    8.0617   11.2675   -2.2398 H   0  0  0  0  0  0  0  0  0  0  0  0
    9.6111   11.9776   -0.5117 H   0  0  0  0  0  0  0  0  0  0  0  0
   12.6143   11.3591   -2.3205 N   0  0  0  0  0  0  0  0  0  0  0  0
   13.6400   11.5232   -3.2621 C   0  0  0  0  0  0  0  0  0  0  0  0
   14.8419   11.5166   -2.7142 N   0  0  0  0  0  0  0  0  0  0  0  0
   14.5361   11.3319   -1.3243 C   0  0  0  0  0  0  0  0  0  0  0  0
   15.4830   11.2493   -0.2459 C   0  0  0  0  0  0  0  0  0  0  0  0
   16.8188   11.3431   -0.4461 N   0  0  0  0  0  0  0  0  0  0  0  0
   14.9065   11.0682    0.9995 N   0  0  0  0  0  0  0  0  0  0  0  0
   13.5233   10.9713    1.1965 C   0  0  0  0  0  0  0  0  0  0  0  0
   12.6161   11.0528    0.1439 N   0  0  0  0  0  0  0  0  0  0  0  0
   13.2171   11.2344   -1.0772 C   0  0  0  0  0  0  0  0  0  0  0  0
   17.1723   11.4719   -1.3559 H   0  0  0  0  0  0  0  0  0  0  0  0
   17.4365   11.2826    0.3180 H   0  0  0  0  0  0  0  0  0  0  0  0
    9.8039   12.6644   -5.6524 C   0  0  0  0  0  0  0  0  0  0  0  0
    9.2371   11.6331   -7.0112 S   0  0  0  0  0  0  0  0  0  0  0  0
    7.5300   11.8969   -7.3609 C   0  0  0  0  0  0  0  0  0  0  0  0
    6.5841   10.7648   -7.0906 C   0  0  0  0  0  0  0  0  0  0  0  0
    5.9709   11.9429   -5.1178 N   0  0  0  0  0  0  0  0  0  0  0  0
    5.8484   10.7360   -5.7481 C   0  0  0  0  0  0  0  0  0  0  0  0
    5.6786   12.6879   -5.7502 H   0  0  0  0  0  0  0  0  0  0  0  0
    6.9438   12.0882   -4.8479 H   0  0  0  0  0  0  0  0  0  0  0  0
    6.3065    9.5820   -4.7542 C   0  0  0  0  0  0  0  0  0  0  0  0
    5.8303    8.6067   -5.1576 O   0  0  0  0  0  0  0  0  0  0  0  0
    6.9863    9.7208   -3.8397 O   0  0  0  0  0  0  0  0  0  0  0  0
    7.3076   10.5731   -3.6199 H   0  0  0  0  0  0  0  0  0  0  0  0
 26 27  1  0  0  0
 27 25  1  0  0  0
 27 30  1  0  0  0
 25 24  1  0  0  0
 24 23  1  0  0  0
 23 22  1  0  0  0
 30 31  2  0  0  0
 30 32  1  0  0  0
 22  1  1  0  0  0
  1  2  1  0  0  0
  1  3  1  0  0  0
  2  7  1  0  0  0
  3  4  1  0  0  0
  3  5  1  0  0  0
  5  6  1  0  0  0
  5  7  1  0  0  0
  7 10  1  0  0  0
 10 11  1  0  0  0
 10 19  1  0  0  0
 11 12  2  0  0  0
 12 13  1  0  0  0
 13 14  1  0  0  0
 13 19  2  0  0  0
 14 15  1  0  0  0
 14 16  2  0  0  0
 16 17  1  0  0  0
 17 18  2  0  0  0
 18 19  1  0  0  0
 26 28  1  0  0  0
 26 29  1  0  0  0
 32 33  1  0  0  0
  4  8  1  0  0  0
  6  9  1  0  0  0
 15 20  1  0  0  0
 15 21  1  0  0  0
M  END
> <minimizedAffinity>
-7.38508

$$$$
