3P2E_SAH_A_6732
  RCSB PDB12061710123D
Coordinates from PDB:3P2E:A:6732 Model:1 without hydrogens
 26 28  0  0  0  0            999 V2000
   10.3760    8.8670    2.8770   N 0  0  0  0  0  0  0  0  0  0  0  0
   11.4310    9.6150    2.4340   C 0  0  0  0  0  0  0  0  0  0  0  0
   10.9290   10.7780    1.5740   C 0  0  0  0  0  0  0  0  0  0  0  0
   11.8990   11.4510    0.6490   C 0  0  0  0  0  0  0  0  0  0  0  0
   11.2960   12.7830   -0.3350   S 0  0  0  0  0  0  0  0  0  0  0  0
   12.3280   10.0360    3.6780   C 0  0  0  0  0  0  0  0  0  0  0  0
   13.4040   10.1580    3.2680   O 0  0  0  0  0  0  0  0  0  0  0  0
   11.9490   10.1940    4.7500   O 0  0  0  0  0  0  0  0  0  0  0  0
    9.7410   12.3670   -1.1350   C 0  0  0  0  0  0  0  0  0  0  0  0
    9.9310   10.9770   -1.9020   C 0  0  0  0  0  0  0  0  0  0  0  0
    8.5970   10.7010   -2.3490   O 0  0  0  0  0  0  0  0  0  0  0  0
   10.8320   11.0260   -3.1190   C 0  0  0  0  0  0  0  0  0  0  0  0
   11.8980   10.0300   -3.0150   O 0  0  0  0  0  0  0  0  0  0  0  0
    9.8550   10.8250   -4.3350   C 0  0  0  0  0  0  0  0  0  0  0  0
   10.3830   10.1440   -5.4520   O 0  0  0  0  0  0  0  0  0  0  0  0
    8.6730   10.0850   -3.6730   C 0  0  0  0  0  0  0  0  0  0  0  0
    7.3490   10.2710   -4.3890   N 0  0  0  0  0  0  0  0  0  0  0  0
    6.7920   11.4800   -4.8290   C 0  0  0  0  0  0  0  0  0  0  0  0
    5.6510   11.3120   -5.4730   N 0  0  0  0  0  0  0  0  0  0  0  0
    5.4880    9.8870   -5.4260   C 0  0  0  0  0  0  0  0  0  0  0  0
    4.3980    9.1340   -5.9840   C 0  0  0  0  0  0  0  0  0  0  0  0
    3.3710    9.7240   -6.6400   N 0  0  0  0  0  0  0  0  0  0  0  0
    4.4980    7.7670   -5.7900   N 0  0  0  0  0  0  0  0  0  0  0  0
    5.5640    7.1660   -5.1090   C 0  0  0  0  0  0  0  0  0  0  0  0
    6.6140    7.9060   -4.5730   N 0  0  0  0  0  0  0  0  0  0  0  0
    6.4880    9.2570   -4.7830   C 0  0  0  0  0  0  0  0  0  0  0  0
  1  2  1  0  0  0  0
  2  3  1  0  0  0  0
  2  6  1  0  0  0  0
  3  4  1  0  0  0  0
  4  5  1  0  0  0  0
  5  9  1  0  0  0  0
  6  7  2  0  0  0  0
  6  8  1  0  0  0  0
  9 10  1  0  0  0  0
 10 11  1  0  0  0  0
 10 12  1  0  0  0  0
 11 16  1  0  0  0  0
 12 13  1  0  0  0  0
 12 14  1  0  0  0  0
 14 15  1  0  0  0  0
 14 16  1  0  0  0  0
 16 17  1  0  0  0  0
 17 18  1  0  0  0  0
 17 26  1  0  0  0  0
 18 19  2  0  0  0  0
 19 20  1  0  0  0  0
 20 21  1  0  0  0  0
 20 26  2  0  0  0  0
 21 22  1  0  0  0  0
 21 23  2  0  0  0  0
 23 24  1  0  0  0  0
 24 25  2  0  0  0  0
 25 26  1  0  0  0  0
A    1
N
A    2
CA
A    3
CB
A    4
CG
A    5
SD
A    6
C
A    7
O
A    8
OXT
A    9
C5'
A   10
C4'
A   11
O4'
A   12
C3'
A   13
O3'
A   14
C2'
A   15
O2'
A   16
C1'
A   17
N9
A   18
C8
A   19
N7
A   20
C5
A   21
C6
A   22
N6
A   23
N1
A   24
C2
A   25
N3
A   26
C4
M  END
>  <InstanceId>
3P2E_SAH_A_6732

>  <ChemCompId>
SAH

>  <PdbId>
3P2E

>  <ChainId>
A

>  <ResidueNumber>
6732

>  <InsertionCode>


>  <Model>
1

>  <AltIds>


>  <MissingHeavyAtoms>
0

>  <ObservedFormula>
C14 N6 O5 S

>  <Name>
S-ADENOSYL-L-HOMOCYSTEINE

>  <SystematicName>
(2S)-2-amino-4-[[(2S,3S,4R,5R)-5-(6-aminopurin-9-yl)-3,4-dihydroxy-oxolan-2-yl]methylsulfanyl]butanoic acid

>  <Synonyms>


>  <Type>
L-PEPTIDE LINKING

>  <Formula>
C14 H20 N6 O5 S

>  <MolecularWeight>
384.411

>  <ModifiedDate>
2011-06-04

>  <Parent>
CYS

>  <OneLetterCode>
C

>  <SubcomponentList>


>  <AmbiguousFlag>
N

>  <InChI>
InChI=1S/C14H20N6O5S/c15-6(14(23)24)1-2-26-3-7-9(21)10(22)13(25-7)20-5-19-8-11(16)17-4-18-12(8)20/h4-7,9-10,13,21-22H,1-3,15H2,(H,23,24)(H2,16,17,18)/t6-,7+,9+,10+,13+/m0/s1

>  <InChIKey>
ZJUKTBDSGOFHSH-WFMPWKQPSA-N

>  <SMILES>
c1nc(c2c(n1)n(cn2)[C@H]3[C@@H]([C@@H]([C@H](O3)CSCC[C@@H](C(=O)O)N)O)O)N

$$$$
