1RTF_BEN_B_245


 12 12  0  0  0  0  0  0  0  0999 V2000
   -6.8813   31.1006   33.9239 C   0  0  0  0  0  0  0  0  0  0  0  0
   -8.1214   30.7432   34.4553 C   0  0  0  0  0  0  0  0  0  0  0  0
   -8.2210   29.7197   35.4075 C   0  0  0  0  0  0  0  0  0  0  0  0
   -7.0733   29.0472   35.8314 C   0  0  0  0  0  0  0  0  0  0  0  0
   -5.8271   29.3982   35.3021 C   0  0  0  0  0  0  0  0  0  0  0  0
   -5.7354   30.4197   34.3534 C   0  0  0  0  0  0  0  0  0  0  0  0
   -6.7742   32.1957   32.9391 C   0  0  0  0  0  0  0  0  0  0  0  0
   -5.6525   32.8630   32.8207 N   0  0  0  0  0  0  0  0  0  0  0  0
   -7.7974   32.5035   32.1798 N   0  0  0  0  0  0  0  0  0  0  0  0
   -4.8817   32.6349   33.3890 H   0  0  0  0  0  0  0  0  0  0  0  0
   -8.6418   32.0047   32.2657 H   0  0  0  0  0  0  0  0  0  0  0  0
   -7.7215   33.2336   31.5237 H   0  0  0  0  0  0  0  0  0  0  0  0
  1  2  2  0  0  0
  1  6  1  0  0  0
  1  7  1  0  0  0
  2  3  1  0  0  0
  3  4  2  0  0  0
  4  5  1  0  0  0
  5  6  2  0  0  0
  7  8  2  0  0  0
  7  9  1  0  0  0
  8 10  1  0  0  0
  9 11  1  0  0  0
  9 12  1  0  0  0
M  END
> <minimizedAffinity>
-6.11910

$$$$
1RTF_BEN_B_245


 12 12  0  0  0  0  0  0  0  0999 V2000
   -6.8835   31.1203   33.9509 C   0  0  0  0  0  0  0  0  0  0  0  0
   -5.7442   30.4216   34.3531 C   0  0  0  0  0  0  0  0  0  0  0  0
   -5.8380   29.3840   35.2904 C   0  0  0  0  0  0  0  0  0  0  0  0
   -7.0790   29.0424   35.8311 C   0  0  0  0  0  0  0  0  0  0  0  0
   -8.2251   29.7392   35.4345 C   0  0  0  0  0  0  0  0  0  0  0  0
   -8.1241   30.7722   34.4994 C   0  0  0  0  0  0  0  0  0  0  0  0
   -6.7874   32.1970   32.9447 C   0  0  0  0  0  0  0  0  0  0  0  0
   -5.6755   32.8791   32.8193 N   0  0  0  0  0  0  0  0  0  0  0  0
   -7.8106   32.4736   32.1736 N   0  0  0  0  0  0  0  0  0  0  0  0
   -4.9047   32.6745   33.3966 H   0  0  0  0  0  0  0  0  0  0  0  0
   -8.6477   31.9635   32.2646 H   0  0  0  0  0  0  0  0  0  0  0  0
   -7.7420   33.1914   31.5033 H   0  0  0  0  0  0  0  0  0  0  0  0
  1  2  2  0  0  0
  1  6  1  0  0  0
  1  7  1  0  0  0
  2  3  1  0  0  0
  3  4  2  0  0  0
  4  5  1  0  0  0
  5  6  2  0  0  0
  7  8  2  0  0  0
  7  9  1  0  0  0
  8 10  1  0  0  0
  9 11  1  0  0  0
  9 12  1  0  0  0
M  END
> <minimizedAffinity>
-6.11759

$$$$
1RTF_BEN_B_245


 12 12  0  0  0  0  0  0  0  0999 V2000
   -6.8469   31.1335   33.8809 C   0  0  0  0  0  0  0  0  0  0  0  0
   -8.0626   30.8759   34.5164 C   0  0  0  0  0  0  0  0  0  0  0  0
   -8.1694   29.8459   35.4607 C   0  0  0  0  0  0  0  0  0  0  0  0
   -7.0537   29.0664   35.7718 C   0  0  0  0  0  0  0  0  0  0  0  0
   -5.8324   29.3171   35.1378 C   0  0  0  0  0  0  0  0  0  0  0  0
   -5.7333   30.3458   34.1977 C   0  0  0  0  0  0  0  0  0  0  0  0
   -6.7292   32.2349   32.9043 C   0  0  0  0  0  0  0  0  0  0  0  0
   -7.7261   32.5044   32.0973 N   0  0  0  0  0  0  0  0  0  0  0  0
   -5.6306   32.9471   32.8413 N   0  0  0  0  0  0  0  0  0  0  0  0
   -8.5529   31.9719   32.1415 H   0  0  0  0  0  0  0  0  0  0  0  0
   -4.8795   32.7479   33.4457 H   0  0  0  0  0  0  0  0  0  0  0  0
   -5.5566   33.6813   32.1895 H   0  0  0  0  0  0  0  0  0  0  0  0
  1  2  2  0  0  0
  1  6  1  0  0  0
  1  7  1  0  0  0
  2  3  1  0  0  0
  3  4  2  0  0  0
  4  5  1  0  0  0
  5  6  2  0  0  0
  7  8  2  0  0  0
  7  9  1  0  0  0
  8 10  1  0  0  0
  9 11  1  0  0  0
  9 12  1  0  0  0
M  END
> <minimizedAffinity>
-6.06017

$$$$
1RTF_BEN_B_245


 12 12  0  0  0  0  0  0  0  0999 V2000
   -6.1573   30.3627   34.5217 C   0  0  0  0  0  0  0  0  0  0  0  0
   -5.0374   31.0644   34.0727 C   0  0  0  0  0  0  0  0  0  0  0  0
   -5.1809   32.1611   33.2121 C   0  0  0  0  0  0  0  0  0  0  0  0
   -6.4526   32.5594   32.7958 C   0  0  0  0  0  0  0  0  0  0  0  0
   -7.5796   31.8602   33.2398 C   0  0  0  0  0  0  0  0  0  0  0  0
   -7.4290   30.7680   34.0980 C   0  0  0  0  0  0  0  0  0  0  0  0
   -6.0069   29.2226   35.4481 C   0  0  0  0  0  0  0  0  0  0  0  0
   -5.4147   28.1250   35.0456 N   0  0  0  0  0  0  0  0  0  0  0  0
   -6.4626   29.3036   36.6745 N   0  0  0  0  0  0  0  0  0  0  0  0
   -5.0710   28.0603   34.1253 H   0  0  0  0  0  0  0  0  0  0  0  0
   -6.9081   30.1263   36.9808 H   0  0  0  0  0  0  0  0  0  0  0  0
   -6.3593   28.5416   37.2893 H   0  0  0  0  0  0  0  0  0  0  0  0
  1  2  2  0  0  0
  1  6  1  0  0  0
  1  7  1  0  0  0
  2  3  1  0  0  0
  3  4  2  0  0  0
  4  5  1  0  0  0
  5  6  2  0  0  0
  7  8  2  0  0  0
  7  9  1  0  0  0
  8 10  1  0  0  0
  9 11  1  0  0  0
  9 12  1  0  0  0
M  END
> <minimizedAffinity>
-5.47073

$$$$
1RTF_BEN_B_245


 12 12  0  0  0  0  0  0  0  0999 V2000
   -7.2930   29.6246   36.1513 C   0  0  0  0  0  0  0  0  0  0  0  0
   -5.9977   29.5722   35.6339 C   0  0  0  0  0  0  0  0  0  0  0  0
   -5.6718   30.2589   34.4565 C   0  0  0  0  0  0  0  0  0  0  0  0
   -6.6473   31.0028   33.7900 C   0  0  0  0  0  0  0  0  0  0  0  0
   -7.9480   31.0587   34.3011 C   0  0  0  0  0  0  0  0  0  0  0  0
   -8.2657   30.3719   35.4756 C   0  0  0  0  0  0  0  0  0  0  0  0
   -7.6294   28.9210   37.4052 C   0  0  0  0  0  0  0  0  0  0  0  0
   -6.7958   28.9490   38.4161 N   0  0  0  0  0  0  0  0  0  0  0  0
   -8.7608   28.2681   37.5131 N   0  0  0  0  0  0  0  0  0  0  0  0
   -5.9449   29.4382   38.3391 H   0  0  0  0  0  0  0  0  0  0  0  0
   -9.3898   28.2446   36.7560 H   0  0  0  0  0  0  0  0  0  0  0  0
   -8.9818   27.8012   38.3512 H   0  0  0  0  0  0  0  0  0  0  0  0
  1  2  2  0  0  0
  1  6  1  0  0  0
  1  7  1  0  0  0
  2  3  1  0  0  0
  3  4  2  0  0  0
  4  5  1  0  0  0
  5  6  2  0  0  0
  7  8  2  0  0  0
  7  9  1  0  0  0
  8 10  1  0  0  0
  9 11  1  0  0  0
  9 12  1  0  0  0
M  END
> <minimizedAffinity>
-5.09734

$$$$
1RTF_BEN_B_245


 12 12  0  0  0  0  0  0  0  0999 V2000
   -7.2996   29.6734   36.1578 C   0  0  0  0  0  0  0  0  0  0  0  0
   -8.2678   30.3988   35.4618 C   0  0  0  0  0  0  0  0  0  0  0  0
   -7.9435   31.0591   34.2689 C   0  0  0  0  0  0  0  0  0  0  0  0
   -6.6419   30.9953   33.7679 C   0  0  0  0  0  0  0  0  0  0  0  0
   -5.6656   30.2719   34.4605 C   0  0  0  0  0  0  0  0  0  0  0  0
   -5.9962   29.6159   35.6490 C   0  0  0  0  0  0  0  0  0  0  0  0
   -7.6481   28.9576   37.4015 C   0  0  0  0  0  0  0  0  0  0  0  0
   -6.7963   28.9205   38.3968 N   0  0  0  0  0  0  0  0  0  0  0  0
   -8.8085   28.3589   37.5160 N   0  0  0  0  0  0  0  0  0  0  0  0
   -5.9236   29.3689   38.3148 H   0  0  0  0  0  0  0  0  0  0  0  0
   -9.4512   28.3844   36.7706 H   0  0  0  0  0  0  0  0  0  0  0  0
   -9.0374   27.8837   38.3472 H   0  0  0  0  0  0  0  0  0  0  0  0
  1  2  2  0  0  0
  1  6  1  0  0  0
  1  7  1  0  0  0
  2  3  1  0  0  0
  3  4  2  0  0  0
  4  5  1  0  0  0
  5  6  2  0  0  0
  7  8  2  0  0  0
  7  9  1  0  0  0
  8 10  1  0  0  0
  9 11  1  0  0  0
  9 12  1  0  0  0
M  END
> <minimizedAffinity>
-5.09043

$$$$
1RTF_BEN_B_245


 12 12  0  0  0  0  0  0  0  0999 V2000
   -8.2674   30.5174   35.2737 C   0  0  0  0  0  0  0  0  0  0  0  0
   -7.3515   29.7192   35.9608 C   0  0  0  0  0  0  0  0  0  0  0  0
   -6.0237   29.6197   35.5237 C   0  0  0  0  0  0  0  0  0  0  0  0
   -5.6076   30.3219   34.3910 C   0  0  0  0  0  0  0  0  0  0  0  0
   -6.5200   31.1223   33.6959 C   0  0  0  0  0  0  0  0  0  0  0  0
   -7.8421   31.2170   34.1376 C   0  0  0  0  0  0  0  0  0  0  0  0
   -9.6600   30.6411   35.7492 C   0  0  0  0  0  0  0  0  0  0  0  0
  -10.5307   31.3314   35.0543 N   0  0  0  0  0  0  0  0  0  0  0  0
  -10.0309   30.0615   36.8648 N   0  0  0  0  0  0  0  0  0  0  0  0
  -10.2561   31.7683   34.2158 H   0  0  0  0  0  0  0  0  0  0  0  0
   -9.3799   29.5420   37.3897 H   0  0  0  0  0  0  0  0  0  0  0  0
  -10.9606   30.1455   37.1777 H   0  0  0  0  0  0  0  0  0  0  0  0
  1  2  2  0  0  0
  1  6  1  0  0  0
  1  7  1  0  0  0
  2  3  1  0  0  0
  3  4  2  0  0  0
  4  5  1  0  0  0
  5  6  2  0  0  0
  7  8  2  0  0  0
  7  9  1  0  0  0
  8 10  1  0  0  0
  9 11  1  0  0  0
  9 12  1  0  0  0
M  END
> <minimizedAffinity>
-4.92246

$$$$
1RTF_BEN_B_245


 12 12  0  0  0  0  0  0  0  0999 V2000
   -7.3428   29.7644   35.6083 C   0  0  0  0  0  0  0  0  0  0  0  0
   -8.2941   30.2239   34.6961 C   0  0  0  0  0  0  0  0  0  0  0  0
   -9.5967   30.5258   35.1156 C   0  0  0  0  0  0  0  0  0  0  0  0
   -9.9525   30.3665   36.4562 C   0  0  0  0  0  0  0  0  0  0  0  0
   -9.0054   29.9048   37.3760 C   0  0  0  0  0  0  0  0  0  0  0  0
   -7.7085   29.6061   36.9508 C   0  0  0  0  0  0  0  0  0  0  0  0
   -5.9636   29.4701   35.1702 C   0  0  0  0  0  0  0  0  0  0  0  0
   -5.5144   28.2394   35.2028 N   0  0  0  0  0  0  0  0  0  0  0  0
   -5.1850   30.4357   34.7465 N   0  0  0  0  0  0  0  0  0  0  0  0
   -6.0961   27.5113   35.5204 H   0  0  0  0  0  0  0  0  0  0  0  0
   -5.5187   31.3616   34.7205 H   0  0  0  0  0  0  0  0  0  0  0  0
   -4.2665   30.2351   34.4543 H   0  0  0  0  0  0  0  0  0  0  0  0
  1  2  2  0  0  0
  1  6  1  0  0  0
  1  7  1  0  0  0
  2  3  1  0  0  0
  3  4  2  0  0  0
  4  5  1  0  0  0
  5  6  2  0  0  0
  7  8  2  0  0  0
  7  9  1  0  0  0
  8 10  1  0  0  0
  9 11  1  0  0  0
  9 12  1  0  0  0
M  END
> <minimizedAffinity>
-4.65113

$$$$
1RTF_BEN_B_245


 12 12  0  0  0  0  0  0  0  0999 V2000
   -7.3291   29.9509   35.6080 C   0  0  0  0  0  0  0  0  0  0  0  0
   -7.7324   29.8566   36.9409 C   0  0  0  0  0  0  0  0  0  0  0  0
   -9.0641   30.1020   37.3019 C   0  0  0  0  0  0  0  0  0  0  0  0
  -10.0000   30.4453   36.3245 C   0  0  0  0  0  0  0  0  0  0  0  0
   -9.6032   30.5436   34.9869 C   0  0  0  0  0  0  0  0  0  0  0  0
   -8.2739   30.2973   34.6342 C   0  0  0  0  0  0  0  0  0  0  0  0
   -5.9312   29.6680   35.2251 C   0  0  0  0  0  0  0  0  0  0  0  0
   -5.1060   30.6564   34.9808 N   0  0  0  0  0  0  0  0  0  0  0  0
   -5.5101   28.4304   35.1294 N   0  0  0  0  0  0  0  0  0  0  0  0
   -5.4183   31.5874   35.0516 H   0  0  0  0  0  0  0  0  0  0  0  0
   -6.1269   27.6851   35.3120 H   0  0  0  0  0  0  0  0  0  0  0  0
   -4.5771   28.2462   34.8749 H   0  0  0  0  0  0  0  0  0  0  0  0
  1  2  2  0  0  0
  1  6  1  0  0  0
  1  7  1  0  0  0
  2  3  1  0  0  0
  3  4  2  0  0  0
  4  5  1  0  0  0
  5  6  2  0  0  0
  7  8  2  0  0  0
  7  9  1  0  0  0
  8 10  1  0  0  0
  9 11  1  0  0  0
  9 12  1  0  0  0
M  END
> <minimizedAffinity>
-4.62550

$$$$
1RTF_BEN_B_245


 12 12  0  0  0  0  0  0  0  0999 V2000
   -8.2669   30.4387   36.1591 C   0  0  0  0  0  0  0  0  0  0  0  0
   -8.4155   31.0153   34.8968 C   0  0  0  0  0  0  0  0  0  0  0  0
   -7.4148   30.8738   33.9259 C   0  0  0  0  0  0  0  0  0  0  0  0
   -6.2562   30.1519   34.2185 C   0  0  0  0  0  0  0  0  0  0  0  0
   -6.0990   29.5727   35.4818 C   0  0  0  0  0  0  0  0  0  0  0  0
   -7.1009   29.7176   36.4447 C   0  0  0  0  0  0  0  0  0  0  0  0
   -9.3327   30.5673   37.1732 C   0  0  0  0  0  0  0  0  0  0  0  0
  -10.3142   29.6995   37.2058 N   0  0  0  0  0  0  0  0  0  0  0  0
   -9.3011   31.5467   38.0439 N   0  0  0  0  0  0  0  0  0  0  0  0
  -10.3415   28.9625   36.5536 H   0  0  0  0  0  0  0  0  0  0  0  0
   -8.5656   32.2007   38.0227 H   0  0  0  0  0  0  0  0  0  0  0  0
  -10.0131   31.6282   38.7190 H   0  0  0  0  0  0  0  0  0  0  0  0
  1  2  2  0  0  0
  1  6  1  0  0  0
  1  7  1  0  0  0
  2  3  1  0  0  0
  3  4  2  0  0  0
  4  5  1  0  0  0
  5  6  2  0  0  0
  7  8  2  0  0  0
  7  9  1  0  0  0
  8 10  1  0  0  0
  9 11  1  0  0  0
  9 12  1  0  0  0
M  END
> <minimizedAffinity>
-4.48684

$$$$
