4DDM_0HO_A_406


 13 14  0  0  0  0  0  0  0  0999 V2000
   16.9227   10.8574   -0.3236 C   0  0  0  0  0  0  0  0  0  0  0  0
   16.2864   10.7122    0.8903 C   0  0  0  0  0  0  0  0  0  0  0  0
   15.2028    9.9716    1.0344 C   0  0  0  0  0  0  0  0  0  0  0  0
   14.5214    9.8014    2.1673 N   0  0  0  0  0  0  0  0  0  0  0  0
   13.2618    8.7770    1.8316 S   0  0  0  0  0  0  0  0  0  0  0  0
   13.5860    8.5967    0.2503 N   0  0  0  0  0  0  0  0  0  0  0  0
   14.6851    9.3244   -0.0382 C   0  0  0  0  0  0  0  0  0  0  0  0
   15.2878    9.4120   -1.2170 C   0  0  0  0  0  0  0  0  0  0  0  0
   16.4268   10.1788   -1.4251 C   0  0  0  0  0  0  0  0  0  0  0  0
   19.2084   11.0134   -0.4885 O   0  0  0  0  0  0  0  0  0  0  0  0
   18.1014   11.6002   -0.4099 C   0  0  0  0  0  0  0  0  0  0  0  0
   18.0716   12.8258   -0.3041 O   0  0  0  0  0  0  0  0  0  0  0  0
   17.2493   13.2711   -0.2449 H   0  0  0  0  0  0  0  0  0  0  0  0
 10 11  2  0  0  0
 11 12  1  0  0  0
 11  1  1  0  0  0
  9  1  1  0  0  0
  9  8  2  0  0  0
  1  2  2  0  0  0
  8  7  1  0  0  0
  2  3  1  0  0  0
  7  3  1  0  0  0
  7  6  2  0  0  0
  3  4  2  0  0  0
  6  5  1  0  0  0
  4  5  1  0  0  0
 12 13  1  0  0  0
M  END
> <minimizedAffinity>
-6.09674

$$$$
4DDM_0HO_A_406


 13 14  0  0  0  0  0  0  0  0999 V2000
   13.5663   10.6345    9.1686 C   0  0  0  0  0  0  0  0  0  0  0  0
   14.0839   11.0514    7.9611 C   0  0  0  0  0  0  0  0  0  0  0  0
   14.0869   10.2785    6.8906 C   0  0  0  0  0  0  0  0  0  0  0  0
   14.5877   10.6021    5.6985 N   0  0  0  0  0  0  0  0  0  0  0  0
   14.3333    9.3084    4.6932 S   0  0  0  0  0  0  0  0  0  0  0  0
   13.6239    8.3521    5.7979 N   0  0  0  0  0  0  0  0  0  0  0  0
   13.5665    9.0290    6.9638 C   0  0  0  0  0  0  0  0  0  0  0  0
   13.0285    8.6027    8.0993 C   0  0  0  0  0  0  0  0  0  0  0  0
   13.0017    9.3721    9.2551 C   0  0  0  0  0  0  0  0  0  0  0  0
   12.6291   12.3845   10.3240 O   0  0  0  0  0  0  0  0  0  0  0  0
   13.5294   11.5125   10.2531 C   0  0  0  0  0  0  0  0  0  0  0  0
   14.4338   11.5062   11.0875 O   0  0  0  0  0  0  0  0  0  0  0  0
   15.1094   10.8586   11.0413 H   0  0  0  0  0  0  0  0  0  0  0  0
 10 11  2  0  0  0
 11 12  1  0  0  0
 11  1  1  0  0  0
  9  1  1  0  0  0
  9  8  2  0  0  0
  1  2  2  0  0  0
  8  7  1  0  0  0
  2  3  1  0  0  0
  7  3  1  0  0  0
  7  6  2  0  0  0
  3  4  2  0  0  0
  6  5  1  0  0  0
  4  5  1  0  0  0
 12 13  1  0  0  0
M  END
> <minimizedAffinity>
-6.04804

$$$$
4DDM_0HO_A_406


 13 14  0  0  0  0  0  0  0  0999 V2000
   14.3562    8.7090    0.5541 C   0  0  0  0  0  0  0  0  0  0  0  0
   15.0429    9.6809    1.2494 C   0  0  0  0  0  0  0  0  0  0  0  0
   15.9388   10.4607    0.6725 C   0  0  0  0  0  0  0  0  0  0  0  0
   16.6568   11.4042    1.2815 N   0  0  0  0  0  0  0  0  0  0  0  0
   17.6187   12.1076    0.1288 S   0  0  0  0  0  0  0  0  0  0  0  0
   17.1302   11.1797   -1.1116 N   0  0  0  0  0  0  0  0  0  0  0  0
   16.2043   10.3142   -0.6487 C   0  0  0  0  0  0  0  0  0  0  0  0
   15.5401    9.4124   -1.3601 C   0  0  0  0  0  0  0  0  0  0  0  0
   14.5910    8.5649   -0.8038 C   0  0  0  0  0  0  0  0  0  0  0  0
   12.3784    8.5235    1.7073 O   0  0  0  0  0  0  0  0  0  0  0  0
   13.3734    7.9537    1.1960 C   0  0  0  0  0  0  0  0  0  0  0  0
   13.5269    6.7434    1.3560 O   0  0  0  0  0  0  0  0  0  0  0  0
   14.2670    6.3109    0.9776 H   0  0  0  0  0  0  0  0  0  0  0  0
 10 11  2  0  0  0
 11 12  1  0  0  0
 11  1  1  0  0  0
  9  1  1  0  0  0
  9  8  2  0  0  0
  1  2  2  0  0  0
  8  7  1  0  0  0
  2  3  1  0  0  0
  7  3  1  0  0  0
  7  6  2  0  0  0
  3  4  2  0  0  0
  6  5  1  0  0  0
  4  5  1  0  0  0
 12 13  1  0  0  0
M  END
> <minimizedAffinity>
-5.77341

$$$$
4DDM_0HO_A_406


 13 14  0  0  0  0  0  0  0  0999 V2000
   14.2555    9.3065    6.0400 C   0  0  0  0  0  0  0  0  0  0  0  0
   13.4224   10.0405    6.8565 C   0  0  0  0  0  0  0  0  0  0  0  0
   13.7537   10.3658    8.0926 C   0  0  0  0  0  0  0  0  0  0  0  0
   12.9946   11.0517    8.9469 N   0  0  0  0  0  0  0  0  0  0  0  0
   13.8608   11.2122   10.3514 S   0  0  0  0  0  0  0  0  0  0  0  0
   15.1665   10.3805    9.8598 N   0  0  0  0  0  0  0  0  0  0  0  0
   14.9512    9.9729    8.5916 C   0  0  0  0  0  0  0  0  0  0  0  0
   15.7954    9.2935    7.8259 C   0  0  0  0  0  0  0  0  0  0  0  0
   15.4968    8.9224    6.5214 C   0  0  0  0  0  0  0  0  0  0  0  0
   14.7492    8.6705    3.8888 O   0  0  0  0  0  0  0  0  0  0  0  0
   13.8855    9.0433    4.7201 C   0  0  0  0  0  0  0  0  0  0  0  0
   12.7384    9.2745    4.3394 O   0  0  0  0  0  0  0  0  0  0  0  0
   12.0881    9.5532    4.9538 H   0  0  0  0  0  0  0  0  0  0  0  0
 10 11  2  0  0  0
 11 12  1  0  0  0
 11  1  1  0  0  0
  9  1  1  0  0  0
  9  8  2  0  0  0
  1  2  2  0  0  0
  8  7  1  0  0  0
  2  3  1  0  0  0
  7  3  1  0  0  0
  7  6  2  0  0  0
  3  4  2  0  0  0
  6  5  1  0  0  0
  4  5  1  0  0  0
 12 13  1  0  0  0
M  END
> <minimizedAffinity>
-5.74997

$$$$
4DDM_0HO_A_406


 13 14  0  0  0  0  0  0  0  0999 V2000
   16.9704   11.3285    0.7252 C   0  0  0  0  0  0  0  0  0  0  0  0
   16.9380   11.7183    2.0467 C   0  0  0  0  0  0  0  0  0  0  0  0
   16.0495   11.2437    2.9004 C   0  0  0  0  0  0  0  0  0  0  0  0
   15.9418   11.5882    4.1835 N   0  0  0  0  0  0  0  0  0  0  0  0
   14.6918   10.7068    4.8236 S   0  0  0  0  0  0  0  0  0  0  0  0
   14.2913    9.9315    3.4537 N   0  0  0  0  0  0  0  0  0  0  0  0
   15.1304   10.3407    2.4795 C   0  0  0  0  0  0  0  0  0  0  0  0
   15.1496    9.9151    1.2228 C   0  0  0  0  0  0  0  0  0  0  0  0
   16.0589   10.3830    0.2833 C   0  0  0  0  0  0  0  0  0  0  0  0
   18.8030   11.0191   -0.6245 O   0  0  0  0  0  0  0  0  0  0  0  0
   17.9696   11.8117   -0.1213 C   0  0  0  0  0  0  0  0  0  0  0  0
   18.1035   13.0225   -0.2951 O   0  0  0  0  0  0  0  0  0  0  0  0
   17.4856   13.6204    0.0772 H   0  0  0  0  0  0  0  0  0  0  0  0
 10 11  2  0  0  0
 11 12  1  0  0  0
 11  1  1  0  0  0
  9  1  1  0  0  0
  9  8  2  0  0  0
  1  2  2  0  0  0
  8  7  1  0  0  0
  2  3  1  0  0  0
  7  3  1  0  0  0
  7  6  2  0  0  0
  3  4  2  0  0  0
  6  5  1  0  0  0
  4  5  1  0  0  0
 12 13  1  0  0  0
M  END
> <minimizedAffinity>
-5.63223

$$$$
4DDM_0HO_A_406


 13 14  0  0  0  0  0  0  0  0999 V2000
   17.2485   10.9491    0.6708 C   0  0  0  0  0  0  0  0  0  0  0  0
   15.9748   10.8391    0.1558 C   0  0  0  0  0  0  0  0  0  0  0  0
   14.9911   10.2651    0.8239 C   0  0  0  0  0  0  0  0  0  0  0  0
   13.7433   10.1021    0.3846 N   0  0  0  0  0  0  0  0  0  0  0  0
   12.8938    9.3481    1.5924 S   0  0  0  0  0  0  0  0  0  0  0  0
   14.1327    9.2137    2.6341 N   0  0  0  0  0  0  0  0  0  0  0  0
   15.2243    9.7617    2.0607 C   0  0  0  0  0  0  0  0  0  0  0  0
   16.4288    9.8777    2.6050 C   0  0  0  0  0  0  0  0  0  0  0  0
   17.4990   10.4685    1.9461 C   0  0  0  0  0  0  0  0  0  0  0  0
   18.1008   12.8406   -0.3149 O   0  0  0  0  0  0  0  0  0  0  0  0
   18.2374   11.6213   -0.0493 C   0  0  0  0  0  0  0  0  0  0  0  0
   19.1934   11.0030   -0.5162 O   0  0  0  0  0  0  0  0  0  0  0  0
   19.3023   10.0927   -0.3226 H   0  0  0  0  0  0  0  0  0  0  0  0
 10 11  2  0  0  0
 11 12  1  0  0  0
 11  1  1  0  0  0
  9  1  1  0  0  0
  9  8  2  0  0  0
  1  2  2  0  0  0
  8  7  1  0  0  0
  2  3  1  0  0  0
  7  3  1  0  0  0
  7  6  2  0  0  0
  3  4  2  0  0  0
  6  5  1  0  0  0
  4  5  1  0  0  0
 12 13  1  0  0  0
M  END
> <minimizedAffinity>
-5.59103

$$$$
4DDM_0HO_A_406


 13 14  0  0  0  0  0  0  0  0999 V2000
   15.1352    8.8289    6.3337 C   0  0  0  0  0  0  0  0  0  0  0  0
   15.9423    9.2132    5.2846 C   0  0  0  0  0  0  0  0  0  0  0  0
   15.4645    9.4462    4.0759 C   0  0  0  0  0  0  0  0  0  0  0  0
   16.1827    9.7983    3.0097 N   0  0  0  0  0  0  0  0  0  0  0  0
   15.1246    9.9869    1.7473 S   0  0  0  0  0  0  0  0  0  0  0  0
   13.7823    9.5861    2.5693 N   0  0  0  0  0  0  0  0  0  0  0  0
   14.1367    9.3080    3.8412 C   0  0  0  0  0  0  0  0  0  0  0  0
   13.3218    8.9721    4.8331 C   0  0  0  0  0  0  0  0  0  0  0  0
   13.7709    8.7125    6.1213 C   0  0  0  0  0  0  0  0  0  0  0  0
   15.6290    9.5918    8.4432 O   0  0  0  0  0  0  0  0  0  0  0  0
   15.6800    8.6566    7.6072 C   0  0  0  0  0  0  0  0  0  0  0  0
   16.3027    7.6315    7.8822 O   0  0  0  0  0  0  0  0  0  0  0  0
   16.3453    6.9291    7.2635 H   0  0  0  0  0  0  0  0  0  0  0  0
 10 11  2  0  0  0
 11 12  1  0  0  0
 11  1  1  0  0  0
  9  1  1  0  0  0
  9  8  2  0  0  0
  1  2  2  0  0  0
  8  7  1  0  0  0
  2  3  1  0  0  0
  7  3  1  0  0  0
  7  6  2  0  0  0
  3  4  2  0  0  0
  6  5  1  0  0  0
  4  5  1  0  0  0
 12 13  1  0  0  0
M  END
> <minimizedAffinity>
-5.49721

$$$$
4DDM_0HO_A_406


 13 14  0  0  0  0  0  0  0  0999 V2000
   15.5966    9.3425    6.4637 C   0  0  0  0  0  0  0  0  0  0  0  0
   15.8508    9.5501    7.8023 C   0  0  0  0  0  0  0  0  0  0  0  0
   14.9661   10.1050    8.6103 C   0  0  0  0  0  0  0  0  0  0  0  0
   15.1469   10.3577    9.9065 N   0  0  0  0  0  0  0  0  0  0  0  0
   13.7456   11.0395   10.4723 S   0  0  0  0  0  0  0  0  0  0  0  0
   12.9505   11.0313    9.0560 N   0  0  0  0  0  0  0  0  0  0  0  0
   13.7610   10.4894    8.1232 C   0  0  0  0  0  0  0  0  0  0  0  0
   13.4656   10.2763    6.8473 C   0  0  0  0  0  0  0  0  0  0  0  0
   14.3589    9.7002    5.9537 C   0  0  0  0  0  0  0  0  0  0  0  0
   16.3031    8.4941    4.4495 O   0  0  0  0  0  0  0  0  0  0  0  0
   16.5408    8.6941    5.6658 C   0  0  0  0  0  0  0  0  0  0  0  0
   17.5604    8.2239    6.1692 O   0  0  0  0  0  0  0  0  0  0  0  0
   17.7448    8.3688    7.0764 H   0  0  0  0  0  0  0  0  0  0  0  0
 10 11  2  0  0  0
 11 12  1  0  0  0
 11  1  1  0  0  0
  9  1  1  0  0  0
  9  8  2  0  0  0
  1  2  2  0  0  0
  8  7  1  0  0  0
  2  3  1  0  0  0
  7  3  1  0  0  0
  7  6  2  0  0  0
  3  4  2  0  0  0
  6  5  1  0  0  0
  4  5  1  0  0  0
 12 13  1  0  0  0
M  END
> <minimizedAffinity>
-5.47342

$$$$
4DDM_0HO_A_406


 13 14  0  0  0  0  0  0  0  0999 V2000
   14.6609    8.9312    1.7479 C   0  0  0  0  0  0  0  0  0  0  0  0
   15.0540    9.8685    0.8170 C   0  0  0  0  0  0  0  0  0  0  0  0
   16.0961   10.6568    1.0066 C   0  0  0  0  0  0  0  0  0  0  0  0
   16.5226   11.5988    0.1656 N   0  0  0  0  0  0  0  0  0  0  0  0
   17.8643   12.2934    0.8484 S   0  0  0  0  0  0  0  0  0  0  0  0
   17.8576   11.4093    2.2108 N   0  0  0  0  0  0  0  0  0  0  0  0
   16.8158   10.5539    2.1506 C   0  0  0  0  0  0  0  0  0  0  0  0
   16.4895    9.6410    3.0567 C   0  0  0  0  0  0  0  0  0  0  0  0
   15.4024    8.7894    2.9097 C   0  0  0  0  0  0  0  0  0  0  0  0
   12.4126    8.5054    1.5488 O   0  0  0  0  0  0  0  0  0  0  0  0
   13.5907    8.0787    1.4717 C   0  0  0  0  0  0  0  0  0  0  0  0
   13.7892    6.8838    1.2549 O   0  0  0  0  0  0  0  0  0  0  0  0
   14.6656    6.5576    1.1960 H   0  0  0  0  0  0  0  0  0  0  0  0
 10 11  2  0  0  0
 11 12  1  0  0  0
 11  1  1  0  0  0
  9  1  1  0  0  0
  9  8  2  0  0  0
  1  2  2  0  0  0
  8  7  1  0  0  0
  2  3  1  0  0  0
  7  3  1  0  0  0
  7  6  2  0  0  0
  3  4  2  0  0  0
  6  5  1  0  0  0
  4  5  1  0  0  0
 12 13  1  0  0  0
M  END
> <minimizedAffinity>
-5.47240

$$$$
4DDM_0HO_A_406


 13 14  0  0  0  0  0  0  0  0999 V2000
   16.3335    9.2379    5.3270 C   0  0  0  0  0  0  0  0  0  0  0  0
   16.3131    8.9639    6.6776 C   0  0  0  0  0  0  0  0  0  0  0  0
   15.3944    9.4623    7.4845 C   0  0  0  0  0  0  0  0  0  0  0  0
   15.3225    9.2615    8.8002 N   0  0  0  0  0  0  0  0  0  0  0  0
   13.9906   10.0826    9.3486 S   0  0  0  0  0  0  0  0  0  0  0  0
   13.5515   10.7030    7.9132 N   0  0  0  0  0  0  0  0  0  0  0  0
   14.4303   10.2730    6.9839 C   0  0  0  0  0  0  0  0  0  0  0  0
   14.3959   10.5339    5.6833 C   0  0  0  0  0  0  0  0  0  0  0  0
   15.3382   10.0392    4.7912 C   0  0  0  0  0  0  0  0  0  0  0  0
   18.4775    9.0366    4.5281 O   0  0  0  0  0  0  0  0  0  0  0  0
   17.2883    8.6351    4.5064 C   0  0  0  0  0  0  0  0  0  0  0  0
   16.9516    7.7827    3.6854 O   0  0  0  0  0  0  0  0  0  0  0  0
   16.0658    7.4779    3.6629 H   0  0  0  0  0  0  0  0  0  0  0  0
 10 11  2  0  0  0
 11 12  1  0  0  0
 11  1  1  0  0  0
  9  1  1  0  0  0
  9  8  2  0  0  0
  1  2  2  0  0  0
  8  7  1  0  0  0
  2  3  1  0  0  0
  7  3  1  0  0  0
  7  6  2  0  0  0
  3  4  2  0  0  0
  6  5  1  0  0  0
  4  5  1  0  0  0
 12 13  1  0  0  0
M  END
> <minimizedAffinity>
-5.46568

$$$$
