3F78_ICF_A_1


 10  9  0  0  0  0  0  0  0  0999 V2000
   27.3290   16.9524    5.6789 C   0  0  0  0  0  0  0  0  0  0  0  0
   25.8830   15.9077    5.2279 Cl  0  0  0  0  0  0  0  0  0  0  0  0
   29.1174   17.8570    4.4657 F   0  0  0  0  0  0  0  0  0  0  0  0
   28.5670   16.6946    4.8151 C   0  0  0  0  0  0  0  0  0  0  0  0
   29.4506   15.9885    5.5097 F   0  0  0  0  0  0  0  0  0  0  0  0
   28.2353   16.0013    3.7453 F   0  0  0  0  0  0  0  0  0  0  0  0
   27.0115   18.3381    5.4936 O   0  0  0  0  0  0  0  0  0  0  0  0
   26.9418   19.0625    6.7372 C   0  0  0  0  0  0  0  0  0  0  0  0
   26.8825   18.2033    7.7693 F   0  0  0  0  0  0  0  0  0  0  0  0
   27.9912   19.8968    6.8877 F   0  0  0  0  0  0  0  0  0  0  0  0
  3  4  1  0  0  0
  4  5  1  0  0  0
  4  6  1  0  0  0
  4  1  1  0  0  0
  1  2  1  0  0  0
  1  7  1  0  0  0
  7  8  1  0  0  0
  8  9  1  0  0  0
  8 10  1  0  0  0
M  END
> <minimizedAffinity>
-5.83206

$$$$
3F78_ICF_A_1


 10  9  0  0  0  0  0  0  0  0999 V2000
   27.3551   17.6554    4.9225 C   0  0  0  0  0  0  0  0  0  0  0  0
   27.6872   18.0334    3.1526 Cl  0  0  0  0  0  0  0  0  0  0  0  0
   27.1994   15.9311    6.5008 F   0  0  0  0  0  0  0  0  0  0  0  0
   27.7718   16.2417    5.3380 C   0  0  0  0  0  0  0  0  0  0  0  0
   27.3743   15.3750    4.4146 F   0  0  0  0  0  0  0  0  0  0  0  0
   29.0834   16.1672    5.4351 F   0  0  0  0  0  0  0  0  0  0  0  0
   28.1054   18.5413    5.7638 O   0  0  0  0  0  0  0  0  0  0  0  0
   27.2677   19.3003    6.6573 C   0  0  0  0  0  0  0  0  0  0  0  0
   26.9035   18.5413    7.7052 F   0  0  0  0  0  0  0  0  0  0  0  0
   27.8842   20.4205    7.0877 F   0  0  0  0  0  0  0  0  0  0  0  0
  3  4  1  0  0  0
  4  5  1  0  0  0
  4  6  1  0  0  0
  4  1  1  0  0  0
  1  2  1  0  0  0
  1  7  1  0  0  0
  7  8  1  0  0  0
  8  9  1  0  0  0
  8 10  1  0  0  0
M  END
> <minimizedAffinity>
-5.75092

$$$$
3F78_ICF_A_1


 10  9  0  0  0  0  0  0  0  0999 V2000
   27.3361   17.7300    5.0685 C   0  0  0  0  0  0  0  0  0  0  0  0
   29.1115   17.6716    4.5886 Cl  0  0  0  0  0  0  0  0  0  0  0  0
   26.1654   17.1317    3.1294 F   0  0  0  0  0  0  0  0  0  0  0  0
   26.4704   16.6913    4.3497 C   0  0  0  0  0  0  0  0  0  0  0  0
   27.1442   15.5527    4.2432 F   0  0  0  0  0  0  0  0  0  0  0  0
   25.3748   16.4581    5.0431 F   0  0  0  0  0  0  0  0  0  0  0  0
   27.1951   17.4480    6.4670 O   0  0  0  0  0  0  0  0  0  0  0  0
   26.9659   18.6343    7.2520 C   0  0  0  0  0  0  0  0  0  0  0  0
   27.7189   19.6470    6.7890 F   0  0  0  0  0  0  0  0  0  0  0  0
   25.6638   18.9874    7.2534 F   0  0  0  0  0  0  0  0  0  0  0  0
  3  4  1  0  0  0
  4  5  1  0  0  0
  4  6  1  0  0  0
  4  1  1  0  0  0
  1  2  1  0  0  0
  1  7  1  0  0  0
  7  8  1  0  0  0
  8  9  1  0  0  0
  8 10  1  0  0  0
M  END
> <minimizedAffinity>
-5.73085

$$$$
3F78_ICF_A_1


 10  9  0  0  0  0  0  0  0  0999 V2000
   27.2481   17.7740    5.3911 C   0  0  0  0  0  0  0  0  0  0  0  0
   27.5793   19.1793    6.5318 Cl  0  0  0  0  0  0  0  0  0  0  0  0
   28.2275   16.7393    3.5313 F   0  0  0  0  0  0  0  0  0  0  0  0
   28.5114   17.1888    4.7534 C   0  0  0  0  0  0  0  0  0  0  0  0
   29.4385   18.1343    4.6624 F   0  0  0  0  0  0  0  0  0  0  0  0
   28.9874   16.2162    5.5036 F   0  0  0  0  0  0  0  0  0  0  0  0
   26.6413   16.6910    6.1082 O   0  0  0  0  0  0  0  0  0  0  0  0
   25.6959   15.9557    5.3071 C   0  0  0  0  0  0  0  0  0  0  0  0
   25.3739   16.6611    4.2091 F   0  0  0  0  0  0  0  0  0  0  0  0
   26.1753   14.7444    4.9564 F   0  0  0  0  0  0  0  0  0  0  0  0
  3  4  1  0  0  0
  4  5  1  0  0  0
  4  6  1  0  0  0
  4  1  1  0  0  0
  1  2  1  0  0  0
  1  7  1  0  0  0
  7  8  1  0  0  0
  8  9  1  0  0  0
  8 10  1  0  0  0
M  END
> <minimizedAffinity>
-5.68095

$$$$
3F78_ICF_A_1


 10  9  0  0  0  0  0  0  0  0999 V2000
   26.6408   17.9184    6.0562 C   0  0  0  0  0  0  0  0  0  0  0  0
   26.7317   16.2562    6.8402 Cl  0  0  0  0  0  0  0  0  0  0  0  0
   25.7907   19.9370    6.8875 F   0  0  0  0  0  0  0  0  0  0  0  0
   26.7945   19.0751    7.0478 C   0  0  0  0  0  0  0  0  0  0  0  0
   26.7643   18.6010    8.2872 F   0  0  0  0  0  0  0  0  0  0  0  0
   27.9523   19.6763    6.8650 F   0  0  0  0  0  0  0  0  0  0  0  0
   27.7081   18.0758    5.1120 O   0  0  0  0  0  0  0  0  0  0  0  0
   27.4272   17.4455    3.8471 C   0  0  0  0  0  0  0  0  0  0  0  0
   26.1325   17.0892    3.7860 F   0  0  0  0  0  0  0  0  0  0  0  0
   27.7364   18.2504    2.8094 F   0  0  0  0  0  0  0  0  0  0  0  0
  3  4  1  0  0  0
  4  5  1  0  0  0
  4  6  1  0  0  0
  4  1  1  0  0  0
  1  2  1  0  0  0
  1  7  1  0  0  0
  7  8  1  0  0  0
  8  9  1  0  0  0
  8 10  1  0  0  0
M  END
> <minimizedAffinity>
-5.47666

$$$$
3F78_ICF_A_1


 10  9  0  0  0  0  0  0  0  0999 V2000
   27.4144   17.9197    6.0697 C   0  0  0  0  0  0  0  0  0  0  0  0
   27.3723   19.6100    6.7959 Cl  0  0  0  0  0  0  0  0  0  0  0  0
   26.7226   16.0099    7.2370 F   0  0  0  0  0  0  0  0  0  0  0  0
   26.2524   17.0288    6.5180 C   0  0  0  0  0  0  0  0  0  0  0  0
   25.4162   17.7375    7.2666 F   0  0  0  0  0  0  0  0  0  0  0  0
   25.5911   16.5862    5.4682 F   0  0  0  0  0  0  0  0  0  0  0  0
   27.3134   17.9954    4.6416 O   0  0  0  0  0  0  0  0  0  0  0  0
   28.4074   17.3384    3.9725 C   0  0  0  0  0  0  0  0  0  0  0  0
   29.5774   17.7318    4.5047 F   0  0  0  0  0  0  0  0  0  0  0  0
   28.2968   15.9954    4.0365 F   0  0  0  0  0  0  0  0  0  0  0  0
  3  4  1  0  0  0
  4  5  1  0  0  0
  4  6  1  0  0  0
  4  1  1  0  0  0
  1  2  1  0  0  0
  1  7  1  0  0  0
  7  8  1  0  0  0
  8  9  1  0  0  0
  8 10  1  0  0  0
M  END
> <minimizedAffinity>
-5.34619

$$$$
3F78_ICF_A_1


 10  9  0  0  0  0  0  0  0  0999 V2000
   27.3096   17.7386    6.2979 C   0  0  0  0  0  0  0  0  0  0  0  0
   28.5337   17.9313    4.9376 Cl  0  0  0  0  0  0  0  0  0  0  0  0
   26.7659   18.7637    8.3331 F   0  0  0  0  0  0  0  0  0  0  0  0
   27.0213   19.0386    7.0542 C   0  0  0  0  0  0  0  0  0  0  0  0
   28.0818   19.8337    6.9857 F   0  0  0  0  0  0  0  0  0  0  0  0
   26.0009   19.6646    6.5043 F   0  0  0  0  0  0  0  0  0  0  0  0
   26.0475   17.3134    5.7672 O   0  0  0  0  0  0  0  0  0  0  0  0
   26.1896   16.4465    4.6250 C   0  0  0  0  0  0  0  0  0  0  0  0
   25.4024   15.3659    4.7647 F   0  0  0  0  0  0  0  0  0  0  0  0
   25.8986   17.0869    3.4738 F   0  0  0  0  0  0  0  0  0  0  0  0
  3  4  1  0  0  0
  4  5  1  0  0  0
  4  6  1  0  0  0
  4  1  1  0  0  0
  1  2  1  0  0  0
  1  7  1  0  0  0
  7  8  1  0  0  0
  8  9  1  0  0  0
  8 10  1  0  0  0
M  END
> <minimizedAffinity>
-5.24714

$$$$
3F78_ICF_A_1


 10  9  0  0  0  0  0  0  0  0999 V2000
   26.7479   17.3230    4.9100 C   0  0  0  0  0  0  0  0  0  0  0  0
   26.8970   17.4062    3.0779 Cl  0  0  0  0  0  0  0  0  0  0  0  0
   26.4383   15.8820    6.7310 F   0  0  0  0  0  0  0  0  0  0  0  0
   26.2064   15.9855    5.4227 C   0  0  0  0  0  0  0  0  0  0  0  0
   24.8976   15.9281    5.2092 F   0  0  0  0  0  0  0  0  0  0  0  0
   26.7736   14.9895    4.7735 F   0  0  0  0  0  0  0  0  0  0  0  0
   28.0385   17.4740    5.5158 O   0  0  0  0  0  0  0  0  0  0  0  0
   29.1042   16.9793    4.6817 C   0  0  0  0  0  0  0  0  0  0  0  0
   29.9622   17.9725    4.3911 F   0  0  0  0  0  0  0  0  0  0  0  0
   29.7603   15.9554    5.2659 F   0  0  0  0  0  0  0  0  0  0  0  0
  3  4  1  0  0  0
  4  5  1  0  0  0
  4  6  1  0  0  0
  4  1  1  0  0  0
  1  2  1  0  0  0
  1  7  1  0  0  0
  7  8  1  0  0  0
  8  9  1  0  0  0
  8 10  1  0  0  0
M  END
> <minimizedAffinity>
-5.21769

$$$$
3F78_ICF_A_1


 10  9  0  0  0  0  0  0  0  0999 V2000
   26.8817   17.2837    5.5314 C   0  0  0  0  0  0  0  0  0  0  0  0
   25.4223   16.2111    5.2071 Cl  0  0  0  0  0  0  0  0  0  0  0  0
   26.8702   17.2633    7.8741 F   0  0  0  0  0  0  0  0  0  0  0  0
   26.7775   18.0874    6.8308 C   0  0  0  0  0  0  0  0  0  0  0  0
   27.7687   18.9684    6.8856 F   0  0  0  0  0  0  0  0  0  0  0  0
   25.6377   18.7471    6.8640 F   0  0  0  0  0  0  0  0  0  0  0  0
   28.0615   16.4807    5.6686 O   0  0  0  0  0  0  0  0  0  0  0  0
   29.0329   16.7411    4.6367 C   0  0  0  0  0  0  0  0  0  0  0  0
   29.2230   18.0653    4.5050 F   0  0  0  0  0  0  0  0  0  0  0  0
   30.2069   16.1268    4.8907 F   0  0  0  0  0  0  0  0  0  0  0  0
  3  4  1  0  0  0
  4  5  1  0  0  0
  4  6  1  0  0  0
  4  1  1  0  0  0
  1  2  1  0  0  0
  1  7  1  0  0  0
  7  8  1  0  0  0
  8  9  1  0  0  0
  8 10  1  0  0  0
M  END
> <minimizedAffinity>
-5.18413

$$$$
3F78_ICF_A_1


 10  9  0  0  0  0  0  0  0  0999 V2000
   26.7521   17.8571    5.3264 C   0  0  0  0  0  0  0  0  0  0  0  0
   26.2698   17.3541    7.0294 Cl  0  0  0  0  0  0  0  0  0  0  0  0
   28.8277   16.7811    5.4770 F   0  0  0  0  0  0  0  0  0  0  0  0
   28.2666   17.9342    5.1138 C   0  0  0  0  0  0  0  0  0  0  0  0
   28.5215   18.1542    3.8299 F   0  0  0  0  0  0  0  0  0  0  0  0
   28.7707   18.9321    5.8105 F   0  0  0  0  0  0  0  0  0  0  0  0
   26.2780   16.8938    4.3763 O   0  0  0  0  0  0  0  0  0  0  0  0
   26.1494   15.5744    4.9409 C   0  0  0  0  0  0  0  0  0  0  0  0
   24.9391   15.0650    4.6534 F   0  0  0  0  0  0  0  0  0  0  0  0
   27.1184   14.7463    4.4988 F   0  0  0  0  0  0  0  0  0  0  0  0
  3  4  1  0  0  0
  4  5  1  0  0  0
  4  6  1  0  0  0
  4  1  1  0  0  0
  1  2  1  0  0  0
  1  7  1  0  0  0
  7  8  1  0  0  0
  8  9  1  0  0  0
  8 10  1  0  0  0
M  END
> <minimizedAffinity>
-5.05989

$$$$
