3F78_ICF_A_1
  RCSB PDB12061708333D
Coordinates from PDB:3F78:A:1 Model:1 without hydrogens
 10  9  0  0  0  0            999 V2000
   27.4000   17.1820    3.8110   F 0  0  0  0  0  0  0  0  0  0  0  0
   28.2080   17.2250    4.8700   C 0  0  0  0  0  0  0  0  0  0  0  0
   29.1390   18.1490    4.6670   F 0  0  0  0  0  0  0  0  0  0  0  0
   28.8090   16.0650    5.0390   F 0  0  0  0  0  0  0  0  0  0  0  0
   27.3980   17.5840    6.1190   C 0  0  0  0  0  0  0  0  0  0  0  0
   26.2020   16.2800    6.6240  Cl 0  0  0  0  0  0  0  0  0  0  0  0
   26.6990   18.7920    5.7910   O 0  0  0  0  0  0  0  0  0  0  0  0
   26.6070   19.7000    6.9060   C 0  0  0  0  0  0  0  0  0  0  0  0
   26.3150   19.0230    8.0300   F 0  0  0  0  0  0  0  0  0  0  0  0
   27.7460   20.4040    7.0710   F 0  0  0  0  0  0  0  0  0  0  0  0
  1  2  1  0  0  0  0
  2  3  1  0  0  0  0
  2  4  1  0  0  0  0
  2  5  1  0  0  0  0
  5  6  1  0  0  0  0
  5  7  1  0  0  0  0
  7  8  1  0  0  0  0
  8  9  1  0  0  0  0
  8 10  1  0  0  0  0
A    1
FAC
A    2
CAJ
A    3
FAD
A    4
FAE
A    5
CAI
A    6
CLAF
A    7
OAG
A    8
CAH
A    9
FAB
A   10
FAA
M  END
>  <InstanceId>
3F78_ICF_A_1

>  <ChemCompId>
ICF

>  <PdbId>
3F78

>  <ChainId>
A

>  <ResidueNumber>
1

>  <InsertionCode>


>  <Model>
1

>  <AltIds>


>  <MissingHeavyAtoms>
0

>  <ObservedFormula>
C3 O F5 Cl

>  <Name>
1-CHLORO-2,2,2-TRIFLUOROETHYL DIFLUOROMETHYL ETHER

>  <SystematicName>
(2S)-2-chloro-2-(difluoromethoxy)-1,1,1-trifluoro-ethane

>  <Synonyms>
ISOFLURANE

>  <Type>
NON-POLYMER

>  <Formula>
C3 H2 Cl F5 O

>  <MolecularWeight>
184.492

>  <ModifiedDate>
2011-06-04

>  <Parent>


>  <OneLetterCode>


>  <SubcomponentList>


>  <AmbiguousFlag>
N

>  <InChI>
InChI=1S/C3H2ClF5O/c4-1(3(7,8)9)10-2(5)6/h1-2H/t1-/m1/s1

>  <InChIKey>
PIWKPBJCKXDKJR-PVQJCKRUSA-N

>  <SMILES>
[C@H](C(F)(F)F)(OC(F)F)Cl

$$$$
