2R43_G3G_B_2501


 46 50  0  0  0  0  0  0  0  0999 V2000
  -16.5683   20.1092   -5.3117 C   0  0  0  0  0  0  0  0  0  0  0  0
  -15.1839   19.7236   -4.7481 C   0  0  0  0  0  0  0  0  0  0  0  0
  -15.0545   18.2590   -4.7620 N   0  0  0  0  0  0  0  0  0  0  0  0
  -16.3592   17.6462   -5.1415 C   0  0  0  0  0  0  0  0  0  0  0  0
  -17.2091   18.7465   -5.8242 C   0  0  0  0  0  0  0  0  0  0  0  0
  -14.7833   17.9332   -3.8343 H   0  0  0  0  0  0  0  0  0  0  0  0
  -17.4696   20.7823   -4.2962 N   0  0  0  0  0  0  0  0  0  0  0  0
  -17.8462   22.4449   -4.5794 S   0  0  0  0  0  0  0  0  0  0  0  0
  -18.8993   22.8158   -3.6370 O   0  0  0  0  0  0  0  0  0  0  0  0
  -17.8415   22.8390   -5.9641 O   0  0  0  0  0  0  0  0  0  0  0  0
  -14.0750   24.0131   -4.0121 C   0  0  0  0  0  0  0  0  0  0  0  0
  -14.0272   24.2183   -2.6222 C   0  0  0  0  0  0  0  0  0  0  0  0
  -15.1535   23.8634   -1.8325 C   0  0  0  0  0  0  0  0  0  0  0  0
  -16.2974   23.3218   -2.4848 C   0  0  0  0  0  0  0  0  0  0  0  0
  -16.3436   23.1279   -3.8883 C   0  0  0  0  0  0  0  0  0  0  0  0
  -15.2127   23.4718   -4.6649 C   0  0  0  0  0  0  0  0  0  0  0  0
  -12.9197   24.7289   -2.0358 N   0  0  0  0  0  0  0  0  0  0  0  0
  -12.1404   24.9741   -2.5853 H   0  0  0  0  0  0  0  0  0  0  0  0
  -12.8931   24.8551   -1.0598 H   0  0  0  0  0  0  0  0  0  0  0  0
  -17.9834   20.1183   -3.0710 C   0  0  0  0  0  0  0  0  0  0  0  0
  -19.2948   19.3658   -3.0344 C   0  0  0  0  0  0  0  0  0  0  0  0
  -19.5960   18.5865   -1.8727 C   0  0  0  0  0  0  0  0  0  0  0  0
  -20.8225   17.8842   -1.7620 C   0  0  0  0  0  0  0  0  0  0  0  0
  -21.7327   17.9109   -2.8477 C   0  0  0  0  0  0  0  0  0  0  0  0
  -21.4299   18.6685   -4.0129 C   0  0  0  0  0  0  0  0  0  0  0  0
  -20.2146   19.3953   -4.1055 C   0  0  0  0  0  0  0  0  0  0  0  0
  -17.0789   18.7214   -7.3222 N   0  0  0  0  0  0  0  0  0  0  0  0
  -18.4640   19.0363   -8.2380 S   0  0  0  0  0  0  0  0  0  0  0  0
  -18.0668   18.8956   -9.6570 O   0  0  0  0  0  0  0  0  0  0  0  0
  -19.0389   20.3183   -7.7621 O   0  0  0  0  0  0  0  0  0  0  0  0
  -19.7271   17.8286   -7.9757 C   0  0  0  0  0  0  0  0  0  0  0  0
  -21.0920   18.1541   -7.7152 C   0  0  0  0  0  0  0  0  0  0  0  0
  -22.0461   17.1222   -7.5138 C   0  0  0  0  0  0  0  0  0  0  0  0
  -21.6458   15.7338   -7.5696 C   0  0  0  0  0  0  0  0  0  0  0  0
  -20.2813   15.3974   -7.8273 C   0  0  0  0  0  0  0  0  0  0  0  0
  -19.3447   16.4595   -8.0341 C   0  0  0  0  0  0  0  0  0  0  0  0
  -22.5483   14.7431   -7.3870 N   0  0  0  0  0  0  0  0  0  0  0  0
  -23.4912   14.9629   -7.2088 H   0  0  0  0  0  0  0  0  0  0  0  0
  -22.2622   13.8022   -7.4323 H   0  0  0  0  0  0  0  0  0  0  0  0
  -15.8084   18.4851   -8.0468 C   0  0  0  0  0  0  0  0  0  0  0  0
  -14.9521   19.7506   -8.2152 C   0  0  0  0  0  0  0  0  0  0  0  0
  -13.5968   19.7651   -7.7718 C   0  0  0  0  0  0  0  0  0  0  0  0
  -12.7739   20.9204   -7.9093 C   0  0  0  0  0  0  0  0  0  0  0  0
  -13.3260   22.0875   -8.5146 C   0  0  0  0  0  0  0  0  0  0  0  0
  -14.6795   22.0861   -8.9596 C   0  0  0  0  0  0  0  0  0  0  0  0
  -15.4926   20.9274   -8.8145 C   0  0  0  0  0  0  0  0  0  0  0  0
 11 12  2  0  0  0
 11 16  1  0  0  0
 12 13  1  0  0  0
 12 17  1  0  0  0
 13 14  2  0  0  0
 14 15  1  0  0  0
 15  8  1  0  0  0
 15 16  2  0  0  0
  8 10  2  0  0  0
  8  7  1  0  0  0
  8  9  2  0  0  0
  7  1  1  0  0  0
  7 20  1  0  0  0
 20 21  1  0  0  0
 21 26  1  0  0  0
 21 22  2  0  0  0
 22 23  1  0  0  0
 23 24  2  0  0  0
 24 25  1  0  0  0
 25 26  2  0  0  0
  1  5  1  0  0  0
  1  2  1  0  0  0
  2  3  1  0  0  0
  3  4  1  0  0  0
  4  5  1  0  0  0
  5 27  1  0  0  0
 27 28  1  0  0  0
 27 40  1  0  0  0
 40 41  1  0  0  0
 41 46  1  0  0  0
 41 42  2  0  0  0
 42 43  1  0  0  0
 43 44  2  0  0  0
 44 45  1  0  0  0
 45 46  2  0  0  0
 28 29  2  0  0  0
 28 31  1  0  0  0
 28 30  2  0  0  0
 31 32  1  0  0  0
 31 36  2  0  0  0
 32 33  2  0  0  0
 33 34  1  0  0  0
 34 37  1  0  0  0
 34 35  2  0  0  0
 35 36  1  0  0  0
  3  6  1  0  0  0
 37 38  1  0  0  0
 37 39  1  0  0  0
 17 18  1  0  0  0
 17 19  1  0  0  0
M  END
> <minimizedAffinity>
-11.27609

$$$$
2R43_G3G_B_2501


 46 50  0  0  0  0  0  0  0  0999 V2000
  -17.5727   18.8979   -6.0387 C   0  0  0  0  0  0  0  0  0  0  0  0
  -17.2960   17.4703   -5.5205 C   0  0  0  0  0  0  0  0  0  0  0  0
  -16.0972   17.4960   -4.6694 N   0  0  0  0  0  0  0  0  0  0  0  0
  -15.4610   18.8418   -4.7438 C   0  0  0  0  0  0  0  0  0  0  0  0
  -16.5224   19.8288   -5.2900 C   0  0  0  0  0  0  0  0  0  0  0  0
  -15.4362   16.7895   -4.9925 H   0  0  0  0  0  0  0  0  0  0  0  0
  -17.4396   19.0328   -7.5422 N   0  0  0  0  0  0  0  0  0  0  0  0
  -18.8897   19.3711   -8.4191 S   0  0  0  0  0  0  0  0  0  0  0  0
  -18.5527   19.3385   -9.8404 O   0  0  0  0  0  0  0  0  0  0  0  0
  -19.7370   20.3716   -7.8242 O   0  0  0  0  0  0  0  0  0  0  0  0
  -19.8947   15.3804   -8.1602 C   0  0  0  0  0  0  0  0  0  0  0  0
  -21.1369   15.4124   -7.5028 C   0  0  0  0  0  0  0  0  0  0  0  0
  -21.6939   16.6678   -7.1396 C   0  0  0  0  0  0  0  0  0  0  0  0
  -20.9624   17.8502   -7.4466 C   0  0  0  0  0  0  0  0  0  0  0  0
  -19.7048   17.8105   -8.0996 C   0  0  0  0  0  0  0  0  0  0  0  0
  -19.1642   16.5570   -8.4693 C   0  0  0  0  0  0  0  0  0  0  0  0
  -21.8070   14.2680   -7.2337 N   0  0  0  0  0  0  0  0  0  0  0  0
  -21.4189   13.3993   -7.4864 H   0  0  0  0  0  0  0  0  0  0  0  0
  -22.6827   14.3042   -6.7852 H   0  0  0  0  0  0  0  0  0  0  0  0
  -16.1691   18.8354   -8.2857 C   0  0  0  0  0  0  0  0  0  0  0  0
  -15.1831   19.9545   -8.5366 C   0  0  0  0  0  0  0  0  0  0  0  0
  -13.8909   19.8674   -7.9282 C   0  0  0  0  0  0  0  0  0  0  0  0
  -12.9100   20.8666   -8.1501 C   0  0  0  0  0  0  0  0  0  0  0  0
  -13.2424   21.9956   -8.9395 C   0  0  0  0  0  0  0  0  0  0  0  0
  -14.5319   22.0966   -9.5312 C   0  0  0  0  0  0  0  0  0  0  0  0
  -15.4995   21.0779   -9.3314 C   0  0  0  0  0  0  0  0  0  0  0  0
  -17.2568   20.5443   -4.1898 N   0  0  0  0  0  0  0  0  0  0  0  0
  -17.5473   22.1979   -4.3833 S   0  0  0  0  0  0  0  0  0  0  0  0
  -18.6913   22.5262   -3.5030 O   0  0  0  0  0  0  0  0  0  0  0  0
  -17.6398   22.4736   -5.8379 O   0  0  0  0  0  0  0  0  0  0  0  0
  -16.2016   23.1850   -3.8023 C   0  0  0  0  0  0  0  0  0  0  0  0
  -15.5869   24.2175   -4.5722 C   0  0  0  0  0  0  0  0  0  0  0  0
  -14.5076   24.9649   -4.0314 C   0  0  0  0  0  0  0  0  0  0  0  0
  -14.0206   24.6880   -2.6984 C   0  0  0  0  0  0  0  0  0  0  0  0
  -14.6276   23.6547   -1.9203 C   0  0  0  0  0  0  0  0  0  0  0  0
  -15.7187   22.9243   -2.4897 C   0  0  0  0  0  0  0  0  0  0  0  0
  -12.9983   25.3993   -2.1710 N   0  0  0  0  0  0  0  0  0  0  0  0
  -12.5724   26.1137   -2.6977 H   0  0  0  0  0  0  0  0  0  0  0  0
  -12.6801   25.2028   -1.2603 H   0  0  0  0  0  0  0  0  0  0  0  0
  -17.7823   19.8866   -2.9707 C   0  0  0  0  0  0  0  0  0  0  0  0
  -19.1477   19.2109   -3.1766 C   0  0  0  0  0  0  0  0  0  0  0  0
  -19.4696   18.0131   -2.4729 C   0  0  0  0  0  0  0  0  0  0  0  0
  -20.7240   17.3578   -2.6403 C   0  0  0  0  0  0  0  0  0  0  0  0
  -21.6809   17.9258   -3.5320 C   0  0  0  0  0  0  0  0  0  0  0  0
  -21.3700   19.1211   -4.2424 C   0  0  0  0  0  0  0  0  0  0  0  0
  -20.1130   19.7651   -4.0694 C   0  0  0  0  0  0  0  0  0  0  0  0
 11 12  2  0  0  0
 11 16  1  0  0  0
 12 13  1  0  0  0
 12 17  1  0  0  0
 13 14  2  0  0  0
 14 15  1  0  0  0
 15  8  1  0  0  0
 15 16  2  0  0  0
  8 10  2  0  0  0
  8  7  1  0  0  0
  8  9  2  0  0  0
  7  1  1  0  0  0
  7 20  1  0  0  0
 20 21  1  0  0  0
 21 26  1  0  0  0
 21 22  2  0  0  0
 22 23  1  0  0  0
 23 24  2  0  0  0
 24 25  1  0  0  0
 25 26  2  0  0  0
  1  5  1  0  0  0
  1  2  1  0  0  0
  2  3  1  0  0  0
  3  4  1  0  0  0
  4  5  1  0  0  0
  5 27  1  0  0  0
 27 28  1  0  0  0
 27 40  1  0  0  0
 40 41  1  0  0  0
 41 46  1  0  0  0
 41 42  2  0  0  0
 42 43  1  0  0  0
 43 44  2  0  0  0
 44 45  1  0  0  0
 45 46  2  0  0  0
 28 29  2  0  0  0
 28 31  1  0  0  0
 28 30  2  0  0  0
 31 32  1  0  0  0
 31 36  2  0  0  0
 32 33  2  0  0  0
 33 34  1  0  0  0
 34 37  1  0  0  0
 34 35  2  0  0  0
 35 36  1  0  0  0
  3  6  1  0  0  0
 37 38  1  0  0  0
 37 39  1  0  0  0
 17 18  1  0  0  0
 17 19  1  0  0  0
M  END
> <minimizedAffinity>
-10.23244

$$$$
2R43_G3G_B_2501


 46 50  0  0  0  0  0  0  0  0999 V2000
  -16.8229   19.5887   -6.4254 C   0  0  0  0  0  0  0  0  0  0  0  0
  -16.5665   18.1717   -5.8692 C   0  0  0  0  0  0  0  0  0  0  0  0
  -15.4671   18.2336   -4.8949 N   0  0  0  0  0  0  0  0  0  0  0  0
  -14.8616   19.5955   -4.9113 C   0  0  0  0  0  0  0  0  0  0  0  0
  -15.8835   20.5511   -5.5760 C   0  0  0  0  0  0  0  0  0  0  0  0
  -14.7571   17.5433   -5.1396 H   0  0  0  0  0  0  0  0  0  0  0  0
  -16.5328   19.7194   -7.9071 N   0  0  0  0  0  0  0  0  0  0  0  0
  -16.8132   18.3164   -8.8761 S   0  0  0  0  0  0  0  0  0  0  0  0
  -16.1430   17.1966   -8.2190 O   0  0  0  0  0  0  0  0  0  0  0  0
  -16.7747   18.5448  -10.2970 O   0  0  0  0  0  0  0  0  0  0  0  0
  -20.8797   18.8241   -8.4190 C   0  0  0  0  0  0  0  0  0  0  0  0
  -21.2725   17.6387   -7.7734 C   0  0  0  0  0  0  0  0  0  0  0  0
  -20.2868   16.6666   -7.4547 C   0  0  0  0  0  0  0  0  0  0  0  0
  -18.9340   16.9272   -7.8145 C   0  0  0  0  0  0  0  0  0  0  0  0
  -18.5460   18.1195   -8.4756 C   0  0  0  0  0  0  0  0  0  0  0  0
  -19.5321   19.0876   -8.7771 C   0  0  0  0  0  0  0  0  0  0  0  0
  -22.5671   17.4286   -7.4402 N   0  0  0  0  0  0  0  0  0  0  0  0
  -23.2483   18.1038   -7.6621 H   0  0  0  0  0  0  0  0  0  0  0  0
  -22.8277   16.6006   -6.9759 H   0  0  0  0  0  0  0  0  0  0  0  0
  -15.9782   20.9427   -8.5412 C   0  0  0  0  0  0  0  0  0  0  0  0
  -14.5046   21.2824   -8.5184 C   0  0  0  0  0  0  0  0  0  0  0  0
  -13.5757   20.2451   -8.1891 C   0  0  0  0  0  0  0  0  0  0  0  0
  -12.1793   20.4900   -8.1823 C   0  0  0  0  0  0  0  0  0  0  0  0
  -11.7078   21.7996   -8.4484 C   0  0  0  0  0  0  0  0  0  0  0  0
  -12.6281   22.8391   -8.7576 C   0  0  0  0  0  0  0  0  0  0  0  0
  -14.0230   22.5810   -8.7940 C   0  0  0  0  0  0  0  0  0  0  0  0
  -16.7499   21.2525   -4.5665 N   0  0  0  0  0  0  0  0  0  0  0  0
  -15.9821   22.0570   -3.2940 S   0  0  0  0  0  0  0  0  0  0  0  0
  -15.3488   21.0103   -2.4604 O   0  0  0  0  0  0  0  0  0  0  0  0
  -16.9679   22.9823   -2.6837 O   0  0  0  0  0  0  0  0  0  0  0  0
  -14.6580   23.0840   -3.8550 C   0  0  0  0  0  0  0  0  0  0  0  0
  -13.5673   22.6094   -4.6437 C   0  0  0  0  0  0  0  0  0  0  0  0
  -12.5411   23.5011   -5.0529 C   0  0  0  0  0  0  0  0  0  0  0  0
  -12.5896   24.8961   -4.6753 C   0  0  0  0  0  0  0  0  0  0  0  0
  -13.6760   25.3807   -3.8837 C   0  0  0  0  0  0  0  0  0  0  0  0
  -14.6992   24.4594   -3.4936 C   0  0  0  0  0  0  0  0  0  0  0  0
  -11.6213   25.7554   -5.0665 N   0  0  0  0  0  0  0  0  0  0  0  0
  -10.8680   25.4329   -5.6121 H   0  0  0  0  0  0  0  0  0  0  0  0
  -11.6697   26.7035   -4.8057 H   0  0  0  0  0  0  0  0  0  0  0  0
  -18.2279   21.3237   -4.6398 C   0  0  0  0  0  0  0  0  0  0  0  0
  -18.9336   20.1049   -4.0236 C   0  0  0  0  0  0  0  0  0  0  0  0
  -20.0696   19.5313   -4.6672 C   0  0  0  0  0  0  0  0  0  0  0  0
  -20.7503   18.4032   -4.1243 C   0  0  0  0  0  0  0  0  0  0  0  0
  -20.2718   17.8335   -2.9078 C   0  0  0  0  0  0  0  0  0  0  0  0
  -19.1390   18.3990   -2.2543 C   0  0  0  0  0  0  0  0  0  0  0  0
  -18.4689   19.5274   -2.8043 C   0  0  0  0  0  0  0  0  0  0  0  0
 11 12  2  0  0  0
 11 16  1  0  0  0
 12 13  1  0  0  0
 12 17  1  0  0  0
 13 14  2  0  0  0
 14 15  1  0  0  0
 15  8  1  0  0  0
 15 16  2  0  0  0
  8 10  2  0  0  0
  8  7  1  0  0  0
  8  9  2  0  0  0
  7  1  1  0  0  0
  7 20  1  0  0  0
 20 21  1  0  0  0
 21 26  1  0  0  0
 21 22  2  0  0  0
 22 23  1  0  0  0
 23 24  2  0  0  0
 24 25  1  0  0  0
 25 26  2  0  0  0
  1  5  1  0  0  0
  1  2  1  0  0  0
  2  3  1  0  0  0
  3  4  1  0  0  0
  4  5  1  0  0  0
  5 27  1  0  0  0
 27 28  1  0  0  0
 27 40  1  0  0  0
 40 41  1  0  0  0
 41 46  1  0  0  0
 41 42  2  0  0  0
 42 43  1  0  0  0
 43 44  2  0  0  0
 44 45  1  0  0  0
 45 46  2  0  0  0
 28 29  2  0  0  0
 28 31  1  0  0  0
 28 30  2  0  0  0
 31 32  1  0  0  0
 31 36  2  0  0  0
 32 33  2  0  0  0
 33 34  1  0  0  0
 34 37  1  0  0  0
 34 35  2  0  0  0
 35 36  1  0  0  0
  3  6  1  0  0  0
 37 38  1  0  0  0
 37 39  1  0  0  0
 17 18  1  0  0  0
 17 19  1  0  0  0
M  END
> <minimizedAffinity>
-10.17074

$$$$
2R43_G3G_B_2501


 46 50  0  0  0  0  0  0  0  0999 V2000
  -19.7243   18.7626   -4.6698 C   0  0  0  0  0  0  0  0  0  0  0  0
  -19.1189   18.0224   -3.4579 C   0  0  0  0  0  0  0  0  0  0  0  0
  -17.6559   17.9903   -3.6011 N   0  0  0  0  0  0  0  0  0  0  0  0
  -17.2738   18.5174   -4.9419 C   0  0  0  0  0  0  0  0  0  0  0  0
  -18.4794   19.3234   -5.4859 C   0  0  0  0  0  0  0  0  0  0  0  0
  -17.3265   17.0294   -3.5075 H   0  0  0  0  0  0  0  0  0  0  0  0
  -20.5926   17.8818   -5.5455 N   0  0  0  0  0  0  0  0  0  0  0  0
  -21.3508   16.5336   -4.7749 S   0  0  0  0  0  0  0  0  0  0  0  0
  -21.7931   16.9821   -3.4567 O   0  0  0  0  0  0  0  0  0  0  0  0
  -20.7141   15.2643   -5.0122 O   0  0  0  0  0  0  0  0  0  0  0  0
  -24.9662   17.3979   -6.5595 C   0  0  0  0  0  0  0  0  0  0  0  0
  -25.1299   16.3355   -7.4655 C   0  0  0  0  0  0  0  0  0  0  0  0
  -24.1336   15.3251   -7.5324 C   0  0  0  0  0  0  0  0  0  0  0  0
  -22.9962   15.4350   -6.6830 C   0  0  0  0  0  0  0  0  0  0  0  0
  -22.8315   16.5148   -5.7795 C   0  0  0  0  0  0  0  0  0  0  0  0
  -23.8348   17.5092   -5.7103 C   0  0  0  0  0  0  0  0  0  0  0  0
  -26.2282   16.2603   -8.2525 N   0  0  0  0  0  0  0  0  0  0  0  0
  -26.9173   16.9618   -8.2043 H   0  0  0  0  0  0  0  0  0  0  0  0
  -26.3382   15.5041   -8.8732 H   0  0  0  0  0  0  0  0  0  0  0  0
  -20.7720   18.0802   -7.0065 C   0  0  0  0  0  0  0  0  0  0  0  0
  -19.7015   17.7375   -8.0185 C   0  0  0  0  0  0  0  0  0  0  0  0
  -19.3493   18.7251   -8.9921 C   0  0  0  0  0  0  0  0  0  0  0  0
  -18.3311   18.4787   -9.9474 C   0  0  0  0  0  0  0  0  0  0  0  0
  -17.6990   17.2106   -9.9696 C   0  0  0  0  0  0  0  0  0  0  0  0
  -18.0587   16.2183   -9.0161 C   0  0  0  0  0  0  0  0  0  0  0  0
  -19.0565   16.4815   -8.0420 C   0  0  0  0  0  0  0  0  0  0  0  0
  -18.3669   20.7926   -5.1850 N   0  0  0  0  0  0  0  0  0  0  0  0
  -18.0045   21.8330   -6.4665 S   0  0  0  0  0  0  0  0  0  0  0  0
  -18.1489   23.2091   -5.9402 O   0  0  0  0  0  0  0  0  0  0  0  0
  -18.8115   21.4078   -7.6363 O   0  0  0  0  0  0  0  0  0  0  0  0
  -16.3199   21.6956   -6.9826 C   0  0  0  0  0  0  0  0  0  0  0  0
  -15.2367   22.3629   -6.3359 C   0  0  0  0  0  0  0  0  0  0  0  0
  -13.9101   22.2005   -6.8150 C   0  0  0  0  0  0  0  0  0  0  0  0
  -13.6432   21.3600   -7.9610 C   0  0  0  0  0  0  0  0  0  0  0  0
  -14.7210   20.6895   -8.6170 C   0  0  0  0  0  0  0  0  0  0  0  0
  -16.0459   20.8664   -8.1057 C   0  0  0  0  0  0  0  0  0  0  0  0
  -12.3823   21.1924   -8.4205 N   0  0  0  0  0  0  0  0  0  0  0  0
  -11.6317   21.6493   -7.9765 H   0  0  0  0  0  0  0  0  0  0  0  0
  -12.2149   20.6135   -9.1990 H   0  0  0  0  0  0  0  0  0  0  0  0
  -18.5982   21.3922   -3.8501 C   0  0  0  0  0  0  0  0  0  0  0  0
  -17.3330   21.9966   -3.2199 C   0  0  0  0  0  0  0  0  0  0  0  0
  -17.3659   23.3071   -2.6587 C   0  0  0  0  0  0  0  0  0  0  0  0
  -16.2125   23.9005   -2.0684 C   0  0  0  0  0  0  0  0  0  0  0  0
  -14.9980   23.1540   -2.0354 C   0  0  0  0  0  0  0  0  0  0  0  0
  -14.9520   21.8445   -2.5948 C   0  0  0  0  0  0  0  0  0  0  0  0
  -16.1094   21.2632   -3.1842 C   0  0  0  0  0  0  0  0  0  0  0  0
 11 12  2  0  0  0
 11 16  1  0  0  0
 12 13  1  0  0  0
 12 17  1  0  0  0
 13 14  2  0  0  0
 14 15  1  0  0  0
 15  8  1  0  0  0
 15 16  2  0  0  0
  8 10  2  0  0  0
  8  7  1  0  0  0
  8  9  2  0  0  0
  7  1  1  0  0  0
  7 20  1  0  0  0
 20 21  1  0  0  0
 21 26  1  0  0  0
 21 22  2  0  0  0
 22 23  1  0  0  0
 23 24  2  0  0  0
 24 25  1  0  0  0
 25 26  2  0  0  0
  1  5  1  0  0  0
  1  2  1  0  0  0
  2  3  1  0  0  0
  3  4  1  0  0  0
  4  5  1  0  0  0
  5 27  1  0  0  0
 27 28  1  0  0  0
 27 40  1  0  0  0
 40 41  1  0  0  0
 41 46  1  0  0  0
 41 42  2  0  0  0
 42 43  1  0  0  0
 43 44  2  0  0  0
 44 45  1  0  0  0
 45 46  2  0  0  0
 28 29  2  0  0  0
 28 31  1  0  0  0
 28 30  2  0  0  0
 31 32  1  0  0  0
 31 36  2  0  0  0
 32 33  2  0  0  0
 33 34  1  0  0  0
 34 37  1  0  0  0
 34 35  2  0  0  0
 35 36  1  0  0  0
  3  6  1  0  0  0
 37 38  1  0  0  0
 37 39  1  0  0  0
 17 18  1  0  0  0
 17 19  1  0  0  0
M  END
> <minimizedAffinity>
-10.01934

$$$$
2R43_G3G_B_2501


 46 50  0  0  0  0  0  0  0  0999 V2000
  -17.1905   19.1576   -6.9471 C   0  0  0  0  0  0  0  0  0  0  0  0
  -16.6152   19.5432   -8.3267 C   0  0  0  0  0  0  0  0  0  0  0  0
  -16.9907   20.9324   -8.6286 N   0  0  0  0  0  0  0  0  0  0  0  0
  -17.9413   21.4288   -7.5932 C   0  0  0  0  0  0  0  0  0  0  0  0
  -17.8154   20.4981   -6.3615 C   0  0  0  0  0  0  0  0  0  0  0  0
  -17.4360   20.9723   -9.5454 H   0  0  0  0  0  0  0  0  0  0  0  0
  -18.2318   18.0584   -7.0110 N   0  0  0  0  0  0  0  0  0  0  0  0
  -19.0522   17.8578   -8.5186 S   0  0  0  0  0  0  0  0  0  0  0  0
  -18.2575   16.9327   -9.3232 O   0  0  0  0  0  0  0  0  0  0  0  0
  -19.6540   19.0556   -9.0440 O   0  0  0  0  0  0  0  0  0  0  0  0
  -21.4731   14.8102   -7.1568 C   0  0  0  0  0  0  0  0  0  0  0  0
  -22.6848   15.4699   -6.8871 C   0  0  0  0  0  0  0  0  0  0  0  0
  -22.7813   16.8656   -7.1338 C   0  0  0  0  0  0  0  0  0  0  0  0
  -21.6367   17.5476   -7.6360 C   0  0  0  0  0  0  0  0  0  0  0  0
  -20.4141   16.8787   -7.8953 C   0  0  0  0  0  0  0  0  0  0  0  0
  -20.3313   15.4867   -7.6592 C   0  0  0  0  0  0  0  0  0  0  0  0
  -23.7544   14.7873   -6.4167 N   0  0  0  0  0  0  0  0  0  0  0  0
  -23.6851   13.8201   -6.2465 H   0  0  0  0  0  0  0  0  0  0  0  0
  -24.6019   15.2579   -6.2447 H   0  0  0  0  0  0  0  0  0  0  0  0
  -18.6140   17.2066   -5.8558 C   0  0  0  0  0  0  0  0  0  0  0  0
  -19.0202   17.7766   -4.5151 C   0  0  0  0  0  0  0  0  0  0  0  0
  -20.4106   18.0122   -4.2728 C   0  0  0  0  0  0  0  0  0  0  0  0
  -20.8601   18.5140   -3.0255 C   0  0  0  0  0  0  0  0  0  0  0  0
  -19.9062   18.8411   -2.0298 C   0  0  0  0  0  0  0  0  0  0  0  0
  -18.5211   18.6269   -2.2724 C   0  0  0  0  0  0  0  0  0  0  0  0
  -18.0792   18.0946   -3.5114 C   0  0  0  0  0  0  0  0  0  0  0  0
  -16.8545   21.0342   -5.3364 N   0  0  0  0  0  0  0  0  0  0  0  0
  -17.3650   22.3319   -4.3819 S   0  0  0  0  0  0  0  0  0  0  0  0
  -18.1979   21.7540   -3.3031 O   0  0  0  0  0  0  0  0  0  0  0  0
  -17.9438   23.3571   -5.2844 O   0  0  0  0  0  0  0  0  0  0  0  0
  -16.0171   23.1316   -3.5654 C   0  0  0  0  0  0  0  0  0  0  0  0
  -15.5225   22.7403   -2.2851 C   0  0  0  0  0  0  0  0  0  0  0  0
  -14.4346   23.4374   -1.6967 C   0  0  0  0  0  0  0  0  0  0  0  0
  -13.8183   24.5490   -2.3862 C   0  0  0  0  0  0  0  0  0  0  0  0
  -14.3077   24.9502   -3.6673 C   0  0  0  0  0  0  0  0  0  0  0  0
  -15.4002   24.2229   -4.2379 C   0  0  0  0  0  0  0  0  0  0  0  0
  -12.7764   25.2147   -1.8380 N   0  0  0  0  0  0  0  0  0  0  0  0
  -12.4307   24.9472   -0.9558 H   0  0  0  0  0  0  0  0  0  0  0  0
  -12.3637   25.9668   -2.3210 H   0  0  0  0  0  0  0  0  0  0  0  0
  -15.5092   20.4705   -5.0769 C   0  0  0  0  0  0  0  0  0  0  0  0
  -14.4729   20.8321   -6.1533 C   0  0  0  0  0  0  0  0  0  0  0  0
  -13.5871   19.8364   -6.6608 C   0  0  0  0  0  0  0  0  0  0  0  0
  -12.6126   20.1354   -7.6567 C   0  0  0  0  0  0  0  0  0  0  0  0
  -12.5323   21.4672   -8.1597 C   0  0  0  0  0  0  0  0  0  0  0  0
  -13.4104   22.4713   -7.6590 C   0  0  0  0  0  0  0  0  0  0  0  0
  -14.3778   22.1617   -6.6624 C   0  0  0  0  0  0  0  0  0  0  0  0
 11 12  2  0  0  0
 11 16  1  0  0  0
 12 13  1  0  0  0
 12 17  1  0  0  0
 13 14  2  0  0  0
 14 15  1  0  0  0
 15  8  1  0  0  0
 15 16  2  0  0  0
  8 10  2  0  0  0
  8  7  1  0  0  0
  8  9  2  0  0  0
  7  1  1  0  0  0
  7 20  1  0  0  0
 20 21  1  0  0  0
 21 26  1  0  0  0
 21 22  2  0  0  0
 22 23  1  0  0  0
 23 24  2  0  0  0
 24 25  1  0  0  0
 25 26  2  0  0  0
  1  5  1  0  0  0
  1  2  1  0  0  0
  2  3  1  0  0  0
  3  4  1  0  0  0
  4  5  1  0  0  0
  5 27  1  0  0  0
 27 28  1  0  0  0
 27 40  1  0  0  0
 40 41  1  0  0  0
 41 46  1  0  0  0
 41 42  2  0  0  0
 42 43  1  0  0  0
 43 44  2  0  0  0
 44 45  1  0  0  0
 45 46  2  0  0  0
 28 29  2  0  0  0
 28 31  1  0  0  0
 28 30  2  0  0  0
 31 32  1  0  0  0
 31 36  2  0  0  0
 32 33  2  0  0  0
 33 34  1  0  0  0
 34 37  1  0  0  0
 34 35  2  0  0  0
 35 36  1  0  0  0
  3  6  1  0  0  0
 37 38  1  0  0  0
 37 39  1  0  0  0
 17 18  1  0  0  0
 17 19  1  0  0  0
M  END
> <minimizedAffinity>
-9.99296

$$$$
2R43_G3G_B_2501


 46 50  0  0  0  0  0  0  0  0999 V2000
  -16.2179   21.7779   -3.9324 C   0  0  0  0  0  0  0  0  0  0  0  0
  -17.3663   22.2257   -3.0032 C   0  0  0  0  0  0  0  0  0  0  0  0
  -18.4228   22.8465   -3.8159 N   0  0  0  0  0  0  0  0  0  0  0  0
  -17.9496   22.9937   -5.2217 C   0  0  0  0  0  0  0  0  0  0  0  0
  -16.7463   22.0369   -5.4103 C   0  0  0  0  0  0  0  0  0  0  0  0
  -18.6481   23.7656   -3.4354 H   0  0  0  0  0  0  0  0  0  0  0  0
  -14.9171   22.5153   -3.6863 N   0  0  0  0  0  0  0  0  0  0  0  0
  -14.9965   23.8986   -2.6536 S   0  0  0  0  0  0  0  0  0  0  0  0
  -14.7374   23.4367   -1.2920 O   0  0  0  0  0  0  0  0  0  0  0  0
  -16.0260   24.8469   -2.9906 O   0  0  0  0  0  0  0  0  0  0  0  0
  -12.0486   25.8807   -4.7475 C   0  0  0  0  0  0  0  0  0  0  0  0
  -10.9483   25.8175   -3.8747 C   0  0  0  0  0  0  0  0  0  0  0  0
  -11.0923   25.1495   -2.6292 C   0  0  0  0  0  0  0  0  0  0  0  0
  -12.3557   24.5776   -2.3068 C   0  0  0  0  0  0  0  0  0  0  0  0
  -13.4646   24.6546   -3.1865 C   0  0  0  0  0  0  0  0  0  0  0  0
  -13.3084   25.3101   -4.4299 C   0  0  0  0  0  0  0  0  0  0  0  0
   -9.7603   26.3668   -4.2181 N   0  0  0  0  0  0  0  0  0  0  0  0
   -9.6630   26.8292   -5.0818 H   0  0  0  0  0  0  0  0  0  0  0  0
   -8.9931   26.3040   -3.6043 H   0  0  0  0  0  0  0  0  0  0  0  0
  -13.6229   22.1529   -4.3187 C   0  0  0  0  0  0  0  0  0  0  0  0
  -13.5194   21.6317   -5.7347 C   0  0  0  0  0  0  0  0  0  0  0  0
  -13.3147   22.5757   -6.7903 C   0  0  0  0  0  0  0  0  0  0  0  0
  -13.1764   22.1492   -8.1353 C   0  0  0  0  0  0  0  0  0  0  0  0
  -13.3037   20.7706   -8.4378 C   0  0  0  0  0  0  0  0  0  0  0  0
  -13.5263   19.8298   -7.3945 C   0  0  0  0  0  0  0  0  0  0  0  0
  -13.6325   20.2590   -6.0461 C   0  0  0  0  0  0  0  0  0  0  0  0
  -17.1573   20.7081   -5.9823 N   0  0  0  0  0  0  0  0  0  0  0  0
  -17.7242   20.6779   -7.5741 S   0  0  0  0  0  0  0  0  0  0  0  0
  -16.5988   21.1239   -8.4262 O   0  0  0  0  0  0  0  0  0  0  0  0
  -19.0089   21.4187   -7.6108 O   0  0  0  0  0  0  0  0  0  0  0  0
  -18.1101   19.0404   -8.1148 C   0  0  0  0  0  0  0  0  0  0  0  0
  -17.1423   18.1295   -8.6348 C   0  0  0  0  0  0  0  0  0  0  0  0
  -17.5356   16.8299   -9.0495 C   0  0  0  0  0  0  0  0  0  0  0  0
  -18.9178   16.4166   -8.9503 C   0  0  0  0  0  0  0  0  0  0  0  0
  -19.8949   17.3220   -8.4334 C   0  0  0  0  0  0  0  0  0  0  0  0
  -19.4663   18.6221   -8.0162 C   0  0  0  0  0  0  0  0  0  0  0  0
  -19.3015   15.1782   -9.3353 N   0  0  0  0  0  0  0  0  0  0  0  0
  -18.6370   14.5459   -9.6929 H   0  0  0  0  0  0  0  0  0  0  0  0
  -20.2453   14.9090   -9.2579 H   0  0  0  0  0  0  0  0  0  0  0  0
  -17.0544   19.4192   -5.2590 C   0  0  0  0  0  0  0  0  0  0  0  0
  -18.2608   19.1246   -4.3529 C   0  0  0  0  0  0  0  0  0  0  0  0
  -19.5715   19.5217   -4.7502 C   0  0  0  0  0  0  0  0  0  0  0  0
  -20.7127   19.2676   -3.9353 C   0  0  0  0  0  0  0  0  0  0  0  0
  -20.5315   18.5908   -2.6933 C   0  0  0  0  0  0  0  0  0  0  0  0
  -19.2265   18.1911   -2.2844 C   0  0  0  0  0  0  0  0  0  0  0  0
  -18.0940   18.4527   -3.1052 C   0  0  0  0  0  0  0  0  0  0  0  0
 11 12  2  0  0  0
 11 16  1  0  0  0
 12 13  1  0  0  0
 12 17  1  0  0  0
 13 14  2  0  0  0
 14 15  1  0  0  0
 15  8  1  0  0  0
 15 16  2  0  0  0
  8 10  2  0  0  0
  8  7  1  0  0  0
  8  9  2  0  0  0
  7  1  1  0  0  0
  7 20  1  0  0  0
 20 21  1  0  0  0
 21 26  1  0  0  0
 21 22  2  0  0  0
 22 23  1  0  0  0
 23 24  2  0  0  0
 24 25  1  0  0  0
 25 26  2  0  0  0
  1  5  1  0  0  0
  1  2  1  0  0  0
  2  3  1  0  0  0
  3  4  1  0  0  0
  4  5  1  0  0  0
  5 27  1  0  0  0
 27 28  1  0  0  0
 27 40  1  0  0  0
 40 41  1  0  0  0
 41 46  1  0  0  0
 41 42  2  0  0  0
 42 43  1  0  0  0
 43 44  2  0  0  0
 44 45  1  0  0  0
 45 46  2  0  0  0
 28 29  2  0  0  0
 28 31  1  0  0  0
 28 30  2  0  0  0
 31 32  1  0  0  0
 31 36  2  0  0  0
 32 33  2  0  0  0
 33 34  1  0  0  0
 34 37  1  0  0  0
 34 35  2  0  0  0
 35 36  1  0  0  0
  3  6  1  0  0  0
 37 38  1  0  0  0
 37 39  1  0  0  0
 17 18  1  0  0  0
 17 19  1  0  0  0
M  END
> <minimizedAffinity>
-9.91353

$$$$
2R43_G3G_B_2501


 46 50  0  0  0  0  0  0  0  0999 V2000
  -19.9258   18.9855   -5.2324 C   0  0  0  0  0  0  0  0  0  0  0  0
  -20.4619   19.3823   -3.8402 C   0  0  0  0  0  0  0  0  0  0  0  0
  -19.4708   19.0042   -2.8221 N   0  0  0  0  0  0  0  0  0  0  0  0
  -18.3800   18.2116   -3.4574 C   0  0  0  0  0  0  0  0  0  0  0  0
  -18.4396   18.4766   -4.9823 C   0  0  0  0  0  0  0  0  0  0  0  0
  -19.9227   18.4425   -2.1004 H   0  0  0  0  0  0  0  0  0  0  0  0
  -20.7545   17.9183   -5.9188 N   0  0  0  0  0  0  0  0  0  0  0  0
  -21.5095   16.7487   -4.8950 S   0  0  0  0  0  0  0  0  0  0  0  0
  -22.0660   17.4697   -3.7526 O   0  0  0  0  0  0  0  0  0  0  0  0
  -20.8039   15.4989   -4.7812 O   0  0  0  0  0  0  0  0  0  0  0  0
  -24.2057   15.0460   -7.5092 C   0  0  0  0  0  0  0  0  0  0  0  0
  -25.2197   16.0164   -7.5892 C   0  0  0  0  0  0  0  0  0  0  0  0
  -25.0831   17.2207   -6.8482 C   0  0  0  0  0  0  0  0  0  0  0  0
  -23.9238   17.3934   -6.0397 C   0  0  0  0  0  0  0  0  0  0  0  0
  -22.9103   16.4060   -5.9544 C   0  0  0  0  0  0  0  0  0  0  0  0
  -23.0484   15.2159   -6.7059 C   0  0  0  0  0  0  0  0  0  0  0  0
  -26.3044   15.8206   -8.3742 N   0  0  0  0  0  0  0  0  0  0  0  0
  -26.3968   14.9851   -8.8868 H   0  0  0  0  0  0  0  0  0  0  0  0
  -27.0012   16.5136   -8.4327 H   0  0  0  0  0  0  0  0  0  0  0  0
  -20.8977   17.7961   -7.3921 C   0  0  0  0  0  0  0  0  0  0  0  0
  -19.7136   17.6591   -8.3229 C   0  0  0  0  0  0  0  0  0  0  0  0
  -19.1100   16.3696   -8.4652 C   0  0  0  0  0  0  0  0  0  0  0  0
  -18.0181   16.1672   -9.3465 C   0  0  0  0  0  0  0  0  0  0  0  0
  -17.4840   17.2764  -10.0484 C   0  0  0  0  0  0  0  0  0  0  0  0
  -18.0681   18.5643   -9.8961 C   0  0  0  0  0  0  0  0  0  0  0  0
  -19.1811   18.7550   -9.0366 C   0  0  0  0  0  0  0  0  0  0  0  0
  -17.5077   19.5776   -5.4075 N   0  0  0  0  0  0  0  0  0  0  0  0
  -15.9810   19.1379   -5.9837 S   0  0  0  0  0  0  0  0  0  0  0  0
  -16.1916   17.9792   -6.8807 O   0  0  0  0  0  0  0  0  0  0  0  0
  -15.0776   19.0045   -4.8147 O   0  0  0  0  0  0  0  0  0  0  0  0
  -15.2603   20.3963   -6.9936 C   0  0  0  0  0  0  0  0  0  0  0  0
  -15.7315   20.7309   -8.2985 C   0  0  0  0  0  0  0  0  0  0  0  0
  -15.0944   21.7557   -9.0466 C   0  0  0  0  0  0  0  0  0  0  0  0
  -13.9637   22.4692   -8.4958 C   0  0  0  0  0  0  0  0  0  0  0  0
  -13.4826   22.1401   -7.1912 C   0  0  0  0  0  0  0  0  0  0  0  0
  -14.1507   21.1081   -6.4587 C   0  0  0  0  0  0  0  0  0  0  0  0
  -13.3546   23.4524   -9.1969 N   0  0  0  0  0  0  0  0  0  0  0  0
  -13.6773   23.6878  -10.0968 H   0  0  0  0  0  0  0  0  0  0  0  0
  -12.5886   23.9327   -8.8075 H   0  0  0  0  0  0  0  0  0  0  0  0
  -17.8562   21.0176   -5.3981 C   0  0  0  0  0  0  0  0  0  0  0  0
  -16.9367   21.8670   -4.5058 C   0  0  0  0  0  0  0  0  0  0  0  0
  -16.5910   23.1961   -4.8900 C   0  0  0  0  0  0  0  0  0  0  0  0
  -15.7397   24.0118   -4.0895 C   0  0  0  0  0  0  0  0  0  0  0  0
  -15.2296   23.4797   -2.8688 C   0  0  0  0  0  0  0  0  0  0  0  0
  -15.5661   22.1523   -2.4754 C   0  0  0  0  0  0  0  0  0  0  0  0
  -16.4149   21.3461   -3.2842 C   0  0  0  0  0  0  0  0  0  0  0  0
 11 12  2  0  0  0
 11 16  1  0  0  0
 12 13  1  0  0  0
 12 17  1  0  0  0
 13 14  2  0  0  0
 14 15  1  0  0  0
 15  8  1  0  0  0
 15 16  2  0  0  0
  8 10  2  0  0  0
  8  7  1  0  0  0
  8  9  2  0  0  0
  7  1  1  0  0  0
  7 20  1  0  0  0
 20 21  1  0  0  0
 21 26  1  0  0  0
 21 22  2  0  0  0
 22 23  1  0  0  0
 23 24  2  0  0  0
 24 25  1  0  0  0
 25 26  2  0  0  0
  1  5  1  0  0  0
  1  2  1  0  0  0
  2  3  1  0  0  0
  3  4  1  0  0  0
  4  5  1  0  0  0
  5 27  1  0  0  0
 27 28  1  0  0  0
 27 40  1  0  0  0
 40 41  1  0  0  0
 41 46  1  0  0  0
 41 42  2  0  0  0
 42 43  1  0  0  0
 43 44  2  0  0  0
 44 45  1  0  0  0
 45 46  2  0  0  0
 28 29  2  0  0  0
 28 31  1  0  0  0
 28 30  2  0  0  0
 31 32  1  0  0  0
 31 36  2  0  0  0
 32 33  2  0  0  0
 33 34  1  0  0  0
 34 37  1  0  0  0
 34 35  2  0  0  0
 35 36  1  0  0  0
  3  6  1  0  0  0
 37 38  1  0  0  0
 37 39  1  0  0  0
 17 18  1  0  0  0
 17 19  1  0  0  0
M  END
> <minimizedAffinity>
-9.88565

$$$$
2R43_G3G_B_2501


 46 50  0  0  0  0  0  0  0  0999 V2000
  -16.6240   20.2128   -5.3341 C   0  0  0  0  0  0  0  0  0  0  0  0
  -15.1797   19.9397   -4.8625 C   0  0  0  0  0  0  0  0  0  0  0  0
  -14.9555   18.4868   -4.8297 N   0  0  0  0  0  0  0  0  0  0  0  0
  -16.2413   17.7775   -5.0852 C   0  0  0  0  0  0  0  0  0  0  0  0
  -17.2094   18.7916   -5.7436 C   0  0  0  0  0  0  0  0  0  0  0  0
  -14.5964   18.2193   -3.9132 H   0  0  0  0  0  0  0  0  0  0  0  0
  -17.4909   20.8715   -4.2800 N   0  0  0  0  0  0  0  0  0  0  0  0
  -17.7987   22.5604   -4.4775 S   0  0  0  0  0  0  0  0  0  0  0  0
  -18.8915   22.9091   -3.5726 O   0  0  0  0  0  0  0  0  0  0  0  0
  -17.7031   23.0384   -5.8322 O   0  0  0  0  0  0  0  0  0  0  0  0
  -14.8844   23.5416   -1.7304 C   0  0  0  0  0  0  0  0  0  0  0  0
  -13.8861   24.1269   -2.5286 C   0  0  0  0  0  0  0  0  0  0  0  0
  -14.1002   24.2420   -3.9283 C   0  0  0  0  0  0  0  0  0  0  0  0
  -15.3192   23.7464   -4.4723 C   0  0  0  0  0  0  0  0  0  0  0  0
  -16.3171   23.1470   -3.6635 C   0  0  0  0  0  0  0  0  0  0  0  0
  -16.1010   23.0486   -2.2693 C   0  0  0  0  0  0  0  0  0  0  0  0
  -12.7428   24.5934   -1.9753 N   0  0  0  0  0  0  0  0  0  0  0  0
  -12.5967   24.5124   -1.0050 H   0  0  0  0  0  0  0  0  0  0  0  0
  -12.0570   25.0138   -2.5429 H   0  0  0  0  0  0  0  0  0  0  0  0
  -18.0260   20.1692   -3.0856 C   0  0  0  0  0  0  0  0  0  0  0  0
  -19.3489   19.4363   -3.0891 C   0  0  0  0  0  0  0  0  0  0  0  0
  -19.6714   18.6159   -1.9620 C   0  0  0  0  0  0  0  0  0  0  0  0
  -20.9093   17.9288   -1.8887 C   0  0  0  0  0  0  0  0  0  0  0  0
  -21.8102   18.0134   -2.9792 C   0  0  0  0  0  0  0  0  0  0  0  0
  -21.4865   18.8123   -4.1106 C   0  0  0  0  0  0  0  0  0  0  0  0
  -20.2595   19.5232   -4.1649 C   0  0  0  0  0  0  0  0  0  0  0  0
  -17.1878   18.7098   -7.2451 N   0  0  0  0  0  0  0  0  0  0  0  0
  -16.9201   20.1384   -8.1074 S   0  0  0  0  0  0  0  0  0  0  0  0
  -17.7558   21.1770   -7.4637 O   0  0  0  0  0  0  0  0  0  0  0  0
  -17.1056   19.8384   -9.5483 O   0  0  0  0  0  0  0  0  0  0  0  0
  -15.2539   20.7076   -7.9564 C   0  0  0  0  0  0  0  0  0  0  0  0
  -14.9004   22.0727   -7.7368 C   0  0  0  0  0  0  0  0  0  0  0  0
  -13.5355   22.4481   -7.6284 C   0  0  0  0  0  0  0  0  0  0  0  0
  -12.4915   21.4537   -7.7398 C   0  0  0  0  0  0  0  0  0  0  0  0
  -12.8349   20.0847   -7.9621 C   0  0  0  0  0  0  0  0  0  0  0  0
  -14.2195   19.7362   -8.0589 C   0  0  0  0  0  0  0  0  0  0  0  0
  -11.1886   21.7996   -7.6301 N   0  0  0  0  0  0  0  0  0  0  0  0
  -10.9401   22.7398   -7.4769 H   0  0  0  0  0  0  0  0  0  0  0  0
  -10.4887   21.1112   -7.7036 H   0  0  0  0  0  0  0  0  0  0  0  0
  -17.3391   17.4535   -8.0157 C   0  0  0  0  0  0  0  0  0  0  0  0
  -18.7943   16.9698   -8.1235 C   0  0  0  0  0  0  0  0  0  0  0  0
  -19.0888   15.7039   -8.7103 C   0  0  0  0  0  0  0  0  0  0  0  0
  -20.4254   15.2239   -8.8292 C   0  0  0  0  0  0  0  0  0  0  0  0
  -21.4912   16.0343   -8.3390 C   0  0  0  0  0  0  0  0  0  0  0  0
  -21.2098   17.3020   -7.7526 C   0  0  0  0  0  0  0  0  0  0  0  0
  -19.8714   17.7722   -7.6417 C   0  0  0  0  0  0  0  0  0  0  0  0
 11 12  2  0  0  0
 11 16  1  0  0  0
 12 13  1  0  0  0
 12 17  1  0  0  0
 13 14  2  0  0  0
 14 15  1  0  0  0
 15  8  1  0  0  0
 15 16  2  0  0  0
  8 10  2  0  0  0
  8  7  1  0  0  0
  8  9  2  0  0  0
  7  1  1  0  0  0
  7 20  1  0  0  0
 20 21  1  0  0  0
 21 26  1  0  0  0
 21 22  2  0  0  0
 22 23  1  0  0  0
 23 24  2  0  0  0
 24 25  1  0  0  0
 25 26  2  0  0  0
  1  5  1  0  0  0
  1  2  1  0  0  0
  2  3  1  0  0  0
  3  4  1  0  0  0
  4  5  1  0  0  0
  5 27  1  0  0  0
 27 28  1  0  0  0
 27 40  1  0  0  0
 40 41  1  0  0  0
 41 46  1  0  0  0
 41 42  2  0  0  0
 42 43  1  0  0  0
 43 44  2  0  0  0
 44 45  1  0  0  0
 45 46  2  0  0  0
 28 29  2  0  0  0
 28 31  1  0  0  0
 28 30  2  0  0  0
 31 32  1  0  0  0
 31 36  2  0  0  0
 32 33  2  0  0  0
 33 34  1  0  0  0
 34 37  1  0  0  0
 34 35  2  0  0  0
 35 36  1  0  0  0
  3  6  1  0  0  0
 37 38  1  0  0  0
 37 39  1  0  0  0
 17 18  1  0  0  0
 17 19  1  0  0  0
M  END
> <minimizedAffinity>
-9.82831

$$$$
2R43_G3G_B_2501


 46 50  0  0  0  0  0  0  0  0999 V2000
  -16.4584   19.8476   -6.2095 C   0  0  0  0  0  0  0  0  0  0  0  0
  -16.0090   18.4737   -5.6676 C   0  0  0  0  0  0  0  0  0  0  0  0
  -14.8756   18.6700   -4.7516 N   0  0  0  0  0  0  0  0  0  0  0  0
  -14.4359   20.0934   -4.7993 C   0  0  0  0  0  0  0  0  0  0  0  0
  -15.5959   20.9186   -5.4099 C   0  0  0  0  0  0  0  0  0  0  0  0
  -14.1031   18.0664   -5.0330 H   0  0  0  0  0  0  0  0  0  0  0  0
  -16.2624   20.0026   -7.7042 N   0  0  0  0  0  0  0  0  0  0  0  0
  -16.4855   18.5830   -8.6641 S   0  0  0  0  0  0  0  0  0  0  0  0
  -15.8270   17.4815   -7.9658 O   0  0  0  0  0  0  0  0  0  0  0  0
  -16.3939   18.7932  -10.0854 O   0  0  0  0  0  0  0  0  0  0  0  0
  -20.5729   19.0420   -8.3715 C   0  0  0  0  0  0  0  0  0  0  0  0
  -20.9756   17.8581   -7.7293 C   0  0  0  0  0  0  0  0  0  0  0  0
  -19.9909   16.9022   -7.3621 C   0  0  0  0  0  0  0  0  0  0  0  0
  -18.6285   17.1769   -7.6715 C   0  0  0  0  0  0  0  0  0  0  0  0
  -18.2301   18.3676   -8.3295 C   0  0  0  0  0  0  0  0  0  0  0  0
  -19.2158   19.3195   -8.6794 C   0  0  0  0  0  0  0  0  0  0  0  0
  -22.2795   17.6344   -7.4447 N   0  0  0  0  0  0  0  0  0  0  0  0
  -22.9600   18.2984   -7.7002 H   0  0  0  0  0  0  0  0  0  0  0  0
  -22.5476   16.8077   -6.9822 H   0  0  0  0  0  0  0  0  0  0  0  0
  -15.8417   21.2664   -8.3613 C   0  0  0  0  0  0  0  0  0  0  0  0
  -14.3909   21.6354   -8.5768 C   0  0  0  0  0  0  0  0  0  0  0  0
  -13.3861   20.7145   -8.1412 C   0  0  0  0  0  0  0  0  0  0  0  0
  -12.0094   20.9858   -8.3434 C   0  0  0  0  0  0  0  0  0  0  0  0
  -11.6287   22.2169   -8.9328 C   0  0  0  0  0  0  0  0  0  0  0  0
  -12.6228   23.1445   -9.3503 C   0  0  0  0  0  0  0  0  0  0  0  0
  -14.0006   22.8540   -9.1741 C   0  0  0  0  0  0  0  0  0  0  0  0
  -16.4854   21.5195   -4.3567 N   0  0  0  0  0  0  0  0  0  0  0  0
  -18.1504   21.5316   -4.6460 S   0  0  0  0  0  0  0  0  0  0  0  0
  -18.3185   21.5005   -6.1165 O   0  0  0  0  0  0  0  0  0  0  0  0
  -18.7370   22.6482   -3.8653 O   0  0  0  0  0  0  0  0  0  0  0  0
  -18.9434   20.0708   -4.0458 C   0  0  0  0  0  0  0  0  0  0  0  0
  -20.1476   19.5399   -4.5977 C   0  0  0  0  0  0  0  0  0  0  0  0
  -20.7222   18.3603   -4.0552 C   0  0  0  0  0  0  0  0  0  0  0  0
  -20.0951   17.6864   -2.9400 C   0  0  0  0  0  0  0  0  0  0  0  0
  -18.8906   18.2113   -2.3787 C   0  0  0  0  0  0  0  0  0  0  0  0
  -18.3314   19.3971   -2.9523 C   0  0  0  0  0  0  0  0  0  0  0  0
  -20.6300   16.5578   -2.4210 N   0  0  0  0  0  0  0  0  0  0  0  0
  -21.4596   16.1870   -2.7996 H   0  0  0  0  0  0  0  0  0  0  0  0
  -20.1896   16.1072   -1.6645 H   0  0  0  0  0  0  0  0  0  0  0  0
  -16.0031   22.0587   -3.0638 C   0  0  0  0  0  0  0  0  0  0  0  0
  -15.0772   23.2768   -3.2126 C   0  0  0  0  0  0  0  0  0  0  0  0
  -13.8872   23.3740   -2.4329 C   0  0  0  0  0  0  0  0  0  0  0  0
  -13.0066   24.4891   -2.5423 C   0  0  0  0  0  0  0  0  0  0  0  0
  -13.3274   25.5284   -3.4643 C   0  0  0  0  0  0  0  0  0  0  0  0
  -14.5147   25.4437   -4.2474 C   0  0  0  0  0  0  0  0  0  0  0  0
  -15.3881   24.3267   -4.1275 C   0  0  0  0  0  0  0  0  0  0  0  0
 11 12  2  0  0  0
 11 16  1  0  0  0
 12 13  1  0  0  0
 12 17  1  0  0  0
 13 14  2  0  0  0
 14 15  1  0  0  0
 15  8  1  0  0  0
 15 16  2  0  0  0
  8 10  2  0  0  0
  8  7  1  0  0  0
  8  9  2  0  0  0
  7  1  1  0  0  0
  7 20  1  0  0  0
 20 21  1  0  0  0
 21 26  1  0  0  0
 21 22  2  0  0  0
 22 23  1  0  0  0
 23 24  2  0  0  0
 24 25  1  0  0  0
 25 26  2  0  0  0
  1  5  1  0  0  0
  1  2  1  0  0  0
  2  3  1  0  0  0
  3  4  1  0  0  0
  4  5  1  0  0  0
  5 27  1  0  0  0
 27 28  1  0  0  0
 27 40  1  0  0  0
 40 41  1  0  0  0
 41 46  1  0  0  0
 41 42  2  0  0  0
 42 43  1  0  0  0
 43 44  2  0  0  0
 44 45  1  0  0  0
 45 46  2  0  0  0
 28 29  2  0  0  0
 28 31  1  0  0  0
 28 30  2  0  0  0
 31 32  1  0  0  0
 31 36  2  0  0  0
 32 33  2  0  0  0
 33 34  1  0  0  0
 34 37  1  0  0  0
 34 35  2  0  0  0
 35 36  1  0  0  0
  3  6  1  0  0  0
 37 38  1  0  0  0
 37 39  1  0  0  0
 17 18  1  0  0  0
 17 19  1  0  0  0
M  END
> <minimizedAffinity>
-9.62775

$$$$
2R43_G3G_B_2501


 46 50  0  0  0  0  0  0  0  0999 V2000
  -15.4609   20.2630   -5.5341 C   0  0  0  0  0  0  0  0  0  0  0  0
  -14.4496   20.3996   -4.3757 C   0  0  0  0  0  0  0  0  0  0  0  0
  -15.1746   20.7684   -3.1509 N   0  0  0  0  0  0  0  0  0  0  0  0
  -16.5986   21.0590   -3.4820 C   0  0  0  0  0  0  0  0  0  0  0  0
  -16.8942   20.4236   -4.8633 C   0  0  0  0  0  0  0  0  0  0  0  0
  -14.7458   21.5972   -2.7390 H   0  0  0  0  0  0  0  0  0  0  0  0
  -15.2617   21.2846   -6.6355 N   0  0  0  0  0  0  0  0  0  0  0  0
  -15.0514   20.6655   -8.2350 S   0  0  0  0  0  0  0  0  0  0  0  0
  -16.2188   21.0733   -9.0132 O   0  0  0  0  0  0  0  0  0  0  0  0
  -14.4684   19.3508   -8.3032 O   0  0  0  0  0  0  0  0  0  0  0  0
  -11.4405   22.5696   -8.8177 C   0  0  0  0  0  0  0  0  0  0  0  0
  -11.7921   23.6682   -9.6213 C   0  0  0  0  0  0  0  0  0  0  0  0
  -13.1530   23.8492   -9.9866 C   0  0  0  0  0  0  0  0  0  0  0  0
  -14.1108   22.8989   -9.5321 C   0  0  0  0  0  0  0  0  0  0  0  0
  -13.7482   21.7868   -8.7314 C   0  0  0  0  0  0  0  0  0  0  0  0
  -12.3931   21.6219   -8.3615 C   0  0  0  0  0  0  0  0  0  0  0  0
  -10.8551   24.5554  -10.0288 N   0  0  0  0  0  0  0  0  0  0  0  0
   -9.9126   24.4277   -9.7742 H   0  0  0  0  0  0  0  0  0  0  0  0
  -11.1158   25.3285  -10.5797 H   0  0  0  0  0  0  0  0  0  0  0  0
  -15.1814   22.7499   -6.4061 C   0  0  0  0  0  0  0  0  0  0  0  0
  -14.3083   23.3661   -5.3359 C   0  0  0  0  0  0  0  0  0  0  0  0
  -14.9380   24.1440   -4.3133 C   0  0  0  0  0  0  0  0  0  0  0  0
  -14.1801   24.7211   -3.2633 C   0  0  0  0  0  0  0  0  0  0  0  0
  -12.7710   24.5704   -3.2668 C   0  0  0  0  0  0  0  0  0  0  0  0
  -12.1379   23.8140   -4.2916 C   0  0  0  0  0  0  0  0  0  0  0  0
  -12.9046   23.2121   -5.3229 C   0  0  0  0  0  0  0  0  0  0  0  0
  -17.4933   19.0494   -4.7433 N   0  0  0  0  0  0  0  0  0  0  0  0
  -18.6883   18.8113   -3.5723 S   0  0  0  0  0  0  0  0  0  0  0  0
  -19.2697   20.1436   -3.2926 O   0  0  0  0  0  0  0  0  0  0  0  0
  -18.0871   18.0276   -2.4655 O   0  0  0  0  0  0  0  0  0  0  0  0
  -20.0260   17.8255   -4.1737 C   0  0  0  0  0  0  0  0  0  0  0  0
  -19.8597   16.5262   -4.7403 C   0  0  0  0  0  0  0  0  0  0  0  0
  -20.9883   15.7991   -5.2023 C   0  0  0  0  0  0  0  0  0  0  0  0
  -22.3148   16.3662   -5.1044 C   0  0  0  0  0  0  0  0  0  0  0  0
  -22.4917   17.6673   -4.5410 C   0  0  0  0  0  0  0  0  0  0  0  0
  -21.3359   18.3721   -4.0769 C   0  0  0  0  0  0  0  0  0  0  0  0
  -23.3973   15.6787   -5.5343 N   0  0  0  0  0  0  0  0  0  0  0  0
  -23.2876   14.7814   -5.9243 H   0  0  0  0  0  0  0  0  0  0  0  0
  -24.2950   16.0756   -5.4573 H   0  0  0  0  0  0  0  0  0  0  0  0
  -17.1386   17.9043   -5.6139 C   0  0  0  0  0  0  0  0  0  0  0  0
  -17.6301   18.0578   -7.0624 C   0  0  0  0  0  0  0  0  0  0  0  0
  -16.9979   17.3338   -8.1158 C   0  0  0  0  0  0  0  0  0  0  0  0
  -17.4248   17.4527   -9.4703 C   0  0  0  0  0  0  0  0  0  0  0  0
  -18.5194   18.3156   -9.7711 C   0  0  0  0  0  0  0  0  0  0  0  0
  -19.1578   19.0459   -8.7275 C   0  0  0  0  0  0  0  0  0  0  0  0
  -18.7210   18.9213   -7.3789 C   0  0  0  0  0  0  0  0  0  0  0  0
 11 12  2  0  0  0
 11 16  1  0  0  0
 12 13  1  0  0  0
 12 17  1  0  0  0
 13 14  2  0  0  0
 14 15  1  0  0  0
 15  8  1  0  0  0
 15 16  2  0  0  0
  8 10  2  0  0  0
  8  7  1  0  0  0
  8  9  2  0  0  0
  7  1  1  0  0  0
  7 20  1  0  0  0
 20 21  1  0  0  0
 21 26  1  0  0  0
 21 22  2  0  0  0
 22 23  1  0  0  0
 23 24  2  0  0  0
 24 25  1  0  0  0
 25 26  2  0  0  0
  1  5  1  0  0  0
  1  2  1  0  0  0
  2  3  1  0  0  0
  3  4  1  0  0  0
  4  5  1  0  0  0
  5 27  1  0  0  0
 27 28  1  0  0  0
 27 40  1  0  0  0
 40 41  1  0  0  0
 41 46  1  0  0  0
 41 42  2  0  0  0
 42 43  1  0  0  0
 43 44  2  0  0  0
 44 45  1  0  0  0
 45 46  2  0  0  0
 28 29  2  0  0  0
 28 31  1  0  0  0
 28 30  2  0  0  0
 31 32  1  0  0  0
 31 36  2  0  0  0
 32 33  2  0  0  0
 33 34  1  0  0  0
 34 37  1  0  0  0
 34 35  2  0  0  0
 35 36  1  0  0  0
  3  6  1  0  0  0
 37 38  1  0  0  0
 37 39  1  0  0  0
 17 18  1  0  0  0
 17 19  1  0  0  0
M  END
> <minimizedAffinity>
-9.44879

$$$$
