5U28_82V_A_201


 26 30  0  0  0  0  0  0  0  0999 V2000
  -17.2775    2.7877    4.0508 C   0  0  0  0  0  0  0  0  0  0  0  0
  -16.1638    1.2228    2.5461 C   0  0  0  0  0  0  0  0  0  0  0  0
  -19.0142    4.4835    4.1490 O   0  0  0  0  0  0  0  0  0  0  0  0
  -18.1207    3.8171    4.6706 C   0  0  0  0  0  0  0  0  0  0  0  0
  -17.7495    3.9610    6.1124 C   0  0  0  0  0  0  0  0  0  0  0  0
  -16.7026    3.3430    6.6478 C   0  0  0  0  0  0  0  0  0  0  0  0
  -16.1379    2.2569    6.0007 O   0  0  0  0  0  0  0  0  0  0  0  0
  -16.3558    2.0606    4.6856 C   0  0  0  0  0  0  0  0  0  0  0  0
  -17.3862    2.3946    2.3687 S   0  0  0  0  0  0  0  0  0  0  0  0
  -15.6566    1.0972    3.7926 C   0  0  0  0  0  0  0  0  0  0  0  0
  -14.5950    0.1302    4.1783 C   0  0  0  0  0  0  0  0  0  0  0  0
  -12.5468   -1.7496    4.9159 C   0  0  0  0  0  0  0  0  0  0  0  0
  -11.8984   -4.0123    5.1102 C   0  0  0  0  0  0  0  0  0  0  0  0
  -14.5962   -1.2065    3.7940 C   0  0  0  0  0  0  0  0  0  0  0  0
  -13.5076    0.4956    4.9905 C   0  0  0  0  0  0  0  0  0  0  0  0
  -12.4981   -0.4252    5.3519 C   0  0  0  0  0  0  0  0  0  0  0  0
  -11.5657   -2.6318    5.2545 O   0  0  0  0  0  0  0  0  0  0  0  0
  -12.6513   -4.3049    3.8569 C   0  0  0  0  0  0  0  0  0  0  0  0
  -13.7371   -3.4233    3.6621 O   0  0  0  0  0  0  0  0  0  0  0  0
  -13.6200   -2.1524    4.1171 C   0  0  0  0  0  0  0  0  0  0  0  0
  -15.6498    2.2489    8.7169 C   0  0  0  0  0  0  0  0  0  0  0  0
  -16.2934    3.3909    8.0147 N   0  0  0  0  0  0  0  0  0  0  0  0
  -16.4554    4.6433    8.8625 C   0  0  0  0  0  0  0  0  0  0  0  0
  -16.1878    4.5226   10.3870 C   0  0  0  0  0  0  0  0  0  0  0  0
  -16.2466    3.2210   10.8408 O   0  0  0  0  0  0  0  0  0  0  0  0
  -15.3120    2.4571   10.1952 C   0  0  0  0  0  0  0  0  0  0  0  0
  9  2  1  0  0  0
  9  1  1  0  0  0
  2 10  2  0  0  0
 19 18  1  0  0  0
 19 20  1  0  0  0
 18 13  1  0  0  0
 14 20  2  0  0  0
 14 11  1  0  0  0
 10 11  1  0  0  0
 10  8  1  0  0  0
 20 12  1  0  0  0
  1  4  1  0  0  0
  1  8  2  0  0  0
  3  4  2  0  0  0
 11 15  2  0  0  0
  4  5  1  0  0  0
  8  7  1  0  0  0
 12 17  1  0  0  0
 12 16  2  0  0  0
 13 17  1  0  0  0
 15 16  1  0  0  0
  7  6  1  0  0  0
  5  6  2  0  0  0
  6 22  1  0  0  0
 22 23  1  0  0  0
 22 21  1  0  0  0
 23 24  1  0  0  0
 21 26  1  0  0  0
 24 25  1  0  0  0
 26 25  1  0  0  0
M  END
> <minimizedAffinity>
-8.53517

$$$$
5U28_82V_A_201


 26 30  0  0  0  0  0  0  0  0999 V2000
  -14.0746    0.4501    4.9944 C   0  0  0  0  0  0  0  0  0  0  0  0
  -12.5575    1.3560    6.6771 C   0  0  0  0  0  0  0  0  0  0  0  0
  -14.4653   -1.4792    3.5709 O   0  0  0  0  0  0  0  0  0  0  0  0
  -14.7643   -0.3583    3.9818 C   0  0  0  0  0  0  0  0  0  0  0  0
  -15.9624    0.3859    3.4839 C   0  0  0  0  0  0  0  0  0  0  0  0
  -16.2163    1.6446    3.8241 C   0  0  0  0  0  0  0  0  0  0  0  0
  -15.6015    2.1959    4.9355 O   0  0  0  0  0  0  0  0  0  0  0  0
  -14.4795    1.6427    5.4361 C   0  0  0  0  0  0  0  0  0  0  0  0
  -12.6064   -0.0705    5.7488 S   0  0  0  0  0  0  0  0  0  0  0  0
  -13.5721    2.2230    6.4629 C   0  0  0  0  0  0  0  0  0  0  0  0
  -13.7372    3.5202    7.1706 C   0  0  0  0  0  0  0  0  0  0  0  0
  -14.0690    6.0256    8.5438 C   0  0  0  0  0  0  0  0  0  0  0  0
  -15.5614    7.6403    9.4061 C   0  0  0  0  0  0  0  0  0  0  0  0
  -14.9317    3.9321    7.7519 C   0  0  0  0  0  0  0  0  0  0  0  0
  -12.6891    4.4494    7.2863 C   0  0  0  0  0  0  0  0  0  0  0  0
  -12.8484    5.6799    7.9632 C   0  0  0  0  0  0  0  0  0  0  0  0
  -14.2163    7.2061    9.2071 O   0  0  0  0  0  0  0  0  0  0  0  0
  -16.4800    6.5354    9.8043 C   0  0  0  0  0  0  0  0  0  0  0  0
  -16.3536    5.4026    8.9709 O   0  0  0  0  0  0  0  0  0  0  0  0
  -15.1377    5.1318    8.4378 C   0  0  0  0  0  0  0  0  0  0  0  0
  -18.3287    2.9860    4.3940 C   0  0  0  0  0  0  0  0  0  0  0  0
  -17.3475    2.4213    3.4298 N   0  0  0  0  0  0  0  0  0  0  0  0
  -17.6228    2.7652    1.9740 C   0  0  0  0  0  0  0  0  0  0  0  0
  -18.9892    3.4185    1.6326 C   0  0  0  0  0  0  0  0  0  0  0  0
  -19.9382    3.2222    2.6146 O   0  0  0  0  0  0  0  0  0  0  0  0
  -19.5068    3.7600    3.7972 C   0  0  0  0  0  0  0  0  0  0  0  0
  9  2  1  0  0  0
  9  1  1  0  0  0
  2 10  2  0  0  0
 19 18  1  0  0  0
 19 20  1  0  0  0
 18 13  1  0  0  0
 14 20  2  0  0  0
 14 11  1  0  0  0
 10 11  1  0  0  0
 10  8  1  0  0  0
 20 12  1  0  0  0
  1  4  1  0  0  0
  1  8  2  0  0  0
  3  4  2  0  0  0
 11 15  2  0  0  0
  4  5  1  0  0  0
  8  7  1  0  0  0
 12 17  1  0  0  0
 12 16  2  0  0  0
 13 17  1  0  0  0
 15 16  1  0  0  0
  7  6  1  0  0  0
  5  6  2  0  0  0
  6 22  1  0  0  0
 22 23  1  0  0  0
 22 21  1  0  0  0
 23 24  1  0  0  0
 21 26  1  0  0  0
 24 25  1  0  0  0
 26 25  1  0  0  0
M  END
> <minimizedAffinity>
-8.50544

$$$$
5U28_82V_A_201


 26 30  0  0  0  0  0  0  0  0999 V2000
  -13.0982    1.6046    6.3715 C   0  0  0  0  0  0  0  0  0  0  0  0
  -14.3879    0.4528    4.6500 C   0  0  0  0  0  0  0  0  0  0  0  0
  -11.0524    1.4769    7.6752 O   0  0  0  0  0  0  0  0  0  0  0  0
  -12.1103    2.0275    7.3714 C   0  0  0  0  0  0  0  0  0  0  0  0
  -12.5654    3.3003    8.0117 C   0  0  0  0  0  0  0  0  0  0  0  0
  -13.7633    3.8279    7.7850 C   0  0  0  0  0  0  0  0  0  0  0  0
  -14.4903    3.4358    6.6737 O   0  0  0  0  0  0  0  0  0  0  0  0
  -14.2064    2.2754    6.0504 C   0  0  0  0  0  0  0  0  0  0  0  0
  -12.9311    0.1353    5.4721 S   0  0  0  0  0  0  0  0  0  0  0  0
  -15.0166    1.5960    5.0033 C   0  0  0  0  0  0  0  0  0  0  0  0
  -16.2909    2.0773    4.4072 C   0  0  0  0  0  0  0  0  0  0  0  0
  -18.7524    3.0026    3.2422 C   0  0  0  0  0  0  0  0  0  0  0  0
  -19.9172    3.6262    1.2845 C   0  0  0  0  0  0  0  0  0  0  0  0
  -16.5818    2.0001    3.0494 C   0  0  0  0  0  0  0  0  0  0  0  0
  -17.3010    2.6752    5.1802 C   0  0  0  0  0  0  0  0  0  0  0  0
  -18.5128    3.1280    4.6109 C   0  0  0  0  0  0  0  0  0  0  0  0
  -19.9266    3.4275    2.6980 O   0  0  0  0  0  0  0  0  0  0  0  0
  -19.1940    2.5507    0.5473 C   0  0  0  0  0  0  0  0  0  0  0  0
  -17.9251    2.2759    1.1028 O   0  0  0  0  0  0  0  0  0  0  0  0
  -17.7653    2.4245    2.4400 C   0  0  0  0  0  0  0  0  0  0  0  0
  -15.6409    5.1949    8.8770 C   0  0  0  0  0  0  0  0  0  0  0  0
  -14.2698    5.0510    8.3197 N   0  0  0  0  0  0  0  0  0  0  0  0
  -13.4227    6.3121    8.3928 C   0  0  0  0  0  0  0  0  0  0  0  0
  -14.1327    7.6371    8.7808 C   0  0  0  0  0  0  0  0  0  0  0  0
  -15.4997    7.5858    8.6018 O   0  0  0  0  0  0  0  0  0  0  0  0
  -16.0359    6.5886    9.3712 C   0  0  0  0  0  0  0  0  0  0  0  0
  9  2  1  0  0  0
  9  1  1  0  0  0
  2 10  2  0  0  0
 19 18  1  0  0  0
 19 20  1  0  0  0
 18 13  1  0  0  0
 14 20  2  0  0  0
 14 11  1  0  0  0
 10 11  1  0  0  0
 10  8  1  0  0  0
 20 12  1  0  0  0
  1  4  1  0  0  0
  1  8  2  0  0  0
  3  4  2  0  0  0
 11 15  2  0  0  0
  4  5  1  0  0  0
  8  7  1  0  0  0
 12 17  1  0  0  0
 12 16  2  0  0  0
 13 17  1  0  0  0
 15 16  1  0  0  0
  7  6  1  0  0  0
  5  6  2  0  0  0
  6 22  1  0  0  0
 22 23  1  0  0  0
 22 21  1  0  0  0
 23 24  1  0  0  0
 21 26  1  0  0  0
 24 25  1  0  0  0
 26 25  1  0  0  0
M  END
> <minimizedAffinity>
-8.30993

$$$$
5U28_82V_A_201


 26 30  0  0  0  0  0  0  0  0999 V2000
  -14.4373    2.5323    7.5885 C   0  0  0  0  0  0  0  0  0  0  0  0
  -16.1781    4.2269    7.3615 C   0  0  0  0  0  0  0  0  0  0  0  0
  -12.5811    1.8322    8.9906 O   0  0  0  0  0  0  0  0  0  0  0  0
  -13.3012    1.6995    8.0014 C   0  0  0  0  0  0  0  0  0  0  0  0
  -13.1176    0.5873    7.0184 C   0  0  0  0  0  0  0  0  0  0  0  0
  -13.8034    0.5141    5.8831 C   0  0  0  0  0  0  0  0  0  0  0  0
  -14.9708    1.2437    5.7344 O   0  0  0  0  0  0  0  0  0  0  0  0
  -15.2144    2.3055    6.5274 C   0  0  0  0  0  0  0  0  0  0  0  0
  -14.9062    3.9525    8.4597 S   0  0  0  0  0  0  0  0  0  0  0  0
  -16.2856    3.3249    6.3606 C   0  0  0  0  0  0  0  0  0  0  0  0
  -17.3275    3.3608    5.3005 C   0  0  0  0  0  0  0  0  0  0  0  0
  -19.3348    3.4237    3.2414 C   0  0  0  0  0  0  0  0  0  0  0  0
  -19.8168    3.3804    0.9297 C   0  0  0  0  0  0  0  0  0  0  0  0
  -17.0988    2.9738    3.9844 C   0  0  0  0  0  0  0  0  0  0  0  0
  -18.6337    3.8167    5.5488 C   0  0  0  0  0  0  0  0  0  0  0  0
  -19.6229    3.8457    4.5396 C   0  0  0  0  0  0  0  0  0  0  0  0
  -20.2934    3.4401    2.2739 O   0  0  0  0  0  0  0  0  0  0  0  0
  -18.7042    2.4049    0.7461 C   0  0  0  0  0  0  0  0  0  0  0  0
  -17.6886    2.5570    1.7154 O   0  0  0  0  0  0  0  0  0  0  0  0
  -18.0428    2.9758    2.9543 C   0  0  0  0  0  0  0  0  0  0  0  0
  -14.8926   -1.0025    4.1224 C   0  0  0  0  0  0  0  0  0  0  0  0
  -13.7228   -0.5231    4.9053 N   0  0  0  0  0  0  0  0  0  0  0  0
  -12.4084   -1.2056    4.5590 C   0  0  0  0  0  0  0  0  0  0  0  0
  -12.4658   -2.4647    3.6524 C   0  0  0  0  0  0  0  0  0  0  0  0
  -13.7165   -3.0461    3.6201 O   0  0  0  0  0  0  0  0  0  0  0  0
  -14.6369   -2.1516    3.1442 C   0  0  0  0  0  0  0  0  0  0  0  0
  9  2  1  0  0  0
  9  1  1  0  0  0
  2 10  2  0  0  0
 19 18  1  0  0  0
 19 20  1  0  0  0
 18 13  1  0  0  0
 14 20  2  0  0  0
 14 11  1  0  0  0
 10 11  1  0  0  0
 10  8  1  0  0  0
 20 12  1  0  0  0
  1  4  1  0  0  0
  1  8  2  0  0  0
  3  4  2  0  0  0
 11 15  2  0  0  0
  4  5  1  0  0  0
  8  7  1  0  0  0
 12 17  1  0  0  0
 12 16  2  0  0  0
 13 17  1  0  0  0
 15 16  1  0  0  0
  7  6  1  0  0  0
  5  6  2  0  0  0
  6 22  1  0  0  0
 22 23  1  0  0  0
 22 21  1  0  0  0
 23 24  1  0  0  0
 21 26  1  0  0  0
 24 25  1  0  0  0
 26 25  1  0  0  0
M  END
> <minimizedAffinity>
-8.01480

$$$$
5U28_82V_A_201


 26 30  0  0  0  0  0  0  0  0999 V2000
  -15.6179    2.9557    7.4380 C   0  0  0  0  0  0  0  0  0  0  0  0
  -17.3496    4.1019    6.1569 C   0  0  0  0  0  0  0  0  0  0  0  0
  -14.5199    2.9040    9.6043 O   0  0  0  0  0  0  0  0  0  0  0  0
  -14.6626    2.4945    8.4526 C   0  0  0  0  0  0  0  0  0  0  0  0
  -13.8356    1.3837    7.8875 C   0  0  0  0  0  0  0  0  0  0  0  0
  -13.8928    1.0268    6.6092 C   0  0  0  0  0  0  0  0  0  0  0  0
  -14.9770    1.4052    5.8355 O   0  0  0  0  0  0  0  0  0  0  0  0
  -15.7587    2.4340    6.2176 C   0  0  0  0  0  0  0  0  0  0  0  0
  -16.7002    4.2763    7.7212 S   0  0  0  0  0  0  0  0  0  0  0  0
  -16.8073    3.1144    5.4101 C   0  0  0  0  0  0  0  0  0  0  0  0
  -17.2288    2.7752    4.0252 C   0  0  0  0  0  0  0  0  0  0  0  0
  -18.0542    2.1283    1.3469 C   0  0  0  0  0  0  0  0  0  0  0  0
  -19.7978    2.0973   -0.2458 C   0  0  0  0  0  0  0  0  0  0  0  0
  -18.3871    3.2661    3.4322 C   0  0  0  0  0  0  0  0  0  0  0  0
  -16.4885    1.9026    3.2091 C   0  0  0  0  0  0  0  0  0  0  0  0
  -16.8900    1.5854    1.8916 C   0  0  0  0  0  0  0  0  0  0  0  0
  -18.4319    1.8316    0.0723 O   0  0  0  0  0  0  0  0  0  0  0  0
  -20.2861    3.3930    0.3073 C   0  0  0  0  0  0  0  0  0  0  0  0
  -19.9678    3.5497    1.6742 O   0  0  0  0  0  0  0  0  0  0  0  0
  -18.8225    2.9902    2.1336 C   0  0  0  0  0  0  0  0  0  0  0  0
  -13.4847   -0.5574    4.6317 C   0  0  0  0  0  0  0  0  0  0  0  0
  -13.1720   -0.0386    5.9898 N   0  0  0  0  0  0  0  0  0  0  0  0
  -11.9891   -0.7137    6.6670 C   0  0  0  0  0  0  0  0  0  0  0  0
  -11.4198   -2.0005    6.0109 C   0  0  0  0  0  0  0  0  0  0  0  0
  -12.3099   -2.5994    5.1434 O   0  0  0  0  0  0  0  0  0  0  0  0
  -12.6380   -1.7323    4.1363 C   0  0  0  0  0  0  0  0  0  0  0  0
  9  2  1  0  0  0
  9  1  1  0  0  0
  2 10  2  0  0  0
 19 18  1  0  0  0
 19 20  1  0  0  0
 18 13  1  0  0  0
 14 20  2  0  0  0
 14 11  1  0  0  0
 10 11  1  0  0  0
 10  8  1  0  0  0
 20 12  1  0  0  0
  1  4  1  0  0  0
  1  8  2  0  0  0
  3  4  2  0  0  0
 11 15  2  0  0  0
  4  5  1  0  0  0
  8  7  1  0  0  0
 12 17  1  0  0  0
 12 16  2  0  0  0
 13 17  1  0  0  0
 15 16  1  0  0  0
  7  6  1  0  0  0
  5  6  2  0  0  0
  6 22  1  0  0  0
 22 23  1  0  0  0
 22 21  1  0  0  0
 23 24  1  0  0  0
 21 26  1  0  0  0
 24 25  1  0  0  0
 26 25  1  0  0  0
M  END
> <minimizedAffinity>
-7.92349

$$$$
5U28_82V_A_201


 26 30  0  0  0  0  0  0  0  0999 V2000
  -17.3667    2.5700    3.6100 C   0  0  0  0  0  0  0  0  0  0  0  0
  -18.1251    3.9977    5.4376 C   0  0  0  0  0  0  0  0  0  0  0  0
  -17.6987    2.0970    1.2505 O   0  0  0  0  0  0  0  0  0  0  0  0
  -17.1506    1.8823    2.3313 C   0  0  0  0  0  0  0  0  0  0  0  0
  -16.1050    0.8271    2.5054 C   0  0  0  0  0  0  0  0  0  0  0  0
  -15.6063    0.5018    3.6929 C   0  0  0  0  0  0  0  0  0  0  0  0
  -15.7501    1.3695    4.7623 O   0  0  0  0  0  0  0  0  0  0  0  0
  -16.7009    2.3239    4.7403 C   0  0  0  0  0  0  0  0  0  0  0  0
  -18.5542    3.8148    3.8002 S   0  0  0  0  0  0  0  0  0  0  0  0
  -17.1431    3.1784    5.8754 C   0  0  0  0  0  0  0  0  0  0  0  0
  -16.6016    3.1751    7.2602 C   0  0  0  0  0  0  0  0  0  0  0  0
  -15.5580    3.1816    9.9404 C   0  0  0  0  0  0  0  0  0  0  0  0
  -14.6921    4.4479   11.7361 C   0  0  0  0  0  0  0  0  0  0  0  0
  -16.5000    4.3163    8.0486 C   0  0  0  0  0  0  0  0  0  0  0  0
  -16.1245    2.0049    7.8753 C   0  0  0  0  0  0  0  0  0  0  0  0
  -15.6140    2.0046    9.1933 C   0  0  0  0  0  0  0  0  0  0  0  0
  -15.0781    3.1763   11.2151 O   0  0  0  0  0  0  0  0  0  0  0  0
  -15.6507    5.5368   11.3916 C   0  0  0  0  0  0  0  0  0  0  0  0
  -15.9822    5.5488   10.0190 O   0  0  0  0  0  0  0  0  0  0  0  0
  -16.0119    4.3671    9.3567 C   0  0  0  0  0  0  0  0  0  0  0  0
  -14.6562   -1.8736    3.4904 C   0  0  0  0  0  0  0  0  0  0  0  0
  -14.5854   -0.4619    3.9523 N   0  0  0  0  0  0  0  0  0  0  0  0
  -13.3115   -0.1062    4.7033 C   0  0  0  0  0  0  0  0  0  0  0  0
  -12.3739   -1.2693    5.1258 C   0  0  0  0  0  0  0  0  0  0  0  0
  -13.0100   -2.4935    5.1391 O   0  0  0  0  0  0  0  0  0  0  0  0
  -13.4930   -2.7841    3.8916 C   0  0  0  0  0  0  0  0  0  0  0  0
  9  2  1  0  0  0
  9  1  1  0  0  0
  2 10  2  0  0  0
 19 18  1  0  0  0
 19 20  1  0  0  0
 18 13  1  0  0  0
 14 20  2  0  0  0
 14 11  1  0  0  0
 10 11  1  0  0  0
 10  8  1  0  0  0
 20 12  1  0  0  0
  1  4  1  0  0  0
  1  8  2  0  0  0
  3  4  2  0  0  0
 11 15  2  0  0  0
  4  5  1  0  0  0
  8  7  1  0  0  0
 12 17  1  0  0  0
 12 16  2  0  0  0
 13 17  1  0  0  0
 15 16  1  0  0  0
  7  6  1  0  0  0
  5  6  2  0  0  0
  6 22  1  0  0  0
 22 23  1  0  0  0
 22 21  1  0  0  0
 23 24  1  0  0  0
 21 26  1  0  0  0
 24 25  1  0  0  0
 26 25  1  0  0  0
M  END
> <minimizedAffinity>
-7.70255

$$$$
5U28_82V_A_201


 26 30  0  0  0  0  0  0  0  0999 V2000
  -17.0863    2.7337    4.0715 C   0  0  0  0  0  0  0  0  0  0  0  0
  -15.9617    1.0950    2.6560 C   0  0  0  0  0  0  0  0  0  0  0  0
  -18.7671    4.4875    4.0514 O   0  0  0  0  0  0  0  0  0  0  0  0
  -17.9203    3.8057    4.6282 C   0  0  0  0  0  0  0  0  0  0  0  0
  -17.6077    3.9742    6.0811 C   0  0  0  0  0  0  0  0  0  0  0  0
  -16.6067    3.3361    6.6773 C   0  0  0  0  0  0  0  0  0  0  0  0
  -16.0514    2.2159    6.0823 O   0  0  0  0  0  0  0  0  0  0  0  0
  -16.2183    1.9932    4.7640 C   0  0  0  0  0  0  0  0  0  0  0  0
  -17.1348    2.3013    2.3962 S   0  0  0  0  0  0  0  0  0  0  0  0
  -15.5138    0.9848    3.9265 C   0  0  0  0  0  0  0  0  0  0  0  0
  -14.5034   -0.0063    4.3822 C   0  0  0  0  0  0  0  0  0  0  0  0
  -12.5452   -1.9150    5.2736 C   0  0  0  0  0  0  0  0  0  0  0  0
  -10.5142   -2.2966    6.4171 C   0  0  0  0  0  0  0  0  0  0  0  0
  -13.5534    0.2597    5.3625 C   0  0  0  0  0  0  0  0  0  0  0  0
  -14.4181   -1.2966    3.8316 C   0  0  0  0  0  0  0  0  0  0  0  0
  -13.4590   -2.2376    4.2699 C   0  0  0  0  0  0  0  0  0  0  0  0
  -11.6304   -2.8281    5.7037 O   0  0  0  0  0  0  0  0  0  0  0  0
  -10.8937   -1.2291    7.3865 C   0  0  0  0  0  0  0  0  0  0  0  0
  -11.7326   -0.2506    6.8095 O   0  0  0  0  0  0  0  0  0  0  0  0
  -12.5918   -0.6367    5.8357 C   0  0  0  0  0  0  0  0  0  0  0  0
  -16.4473    4.6228    8.8921 C   0  0  0  0  0  0  0  0  0  0  0  0
  -16.2560    3.4056    8.0595 N   0  0  0  0  0  0  0  0  0  0  0  0
  -15.6821    2.2123    8.8077 C   0  0  0  0  0  0  0  0  0  0  0  0
  -15.1288    2.4551   10.2380 C   0  0  0  0  0  0  0  0  0  0  0  0
  -14.8450    3.7823   10.4853 O   0  0  0  0  0  0  0  0  0  0  0  0
  -15.9782    4.5376   10.3466 C   0  0  0  0  0  0  0  0  0  0  0  0
  9  2  1  0  0  0
  9  1  1  0  0  0
  2 10  2  0  0  0
 19 18  1  0  0  0
 19 20  1  0  0  0
 18 13  1  0  0  0
 14 20  2  0  0  0
 14 11  1  0  0  0
 10 11  1  0  0  0
 10  8  1  0  0  0
 20 12  1  0  0  0
  1  4  1  0  0  0
  1  8  2  0  0  0
  3  4  2  0  0  0
 11 15  2  0  0  0
  4  5  1  0  0  0
  8  7  1  0  0  0
 12 17  1  0  0  0
 12 16  2  0  0  0
 13 17  1  0  0  0
 15 16  1  0  0  0
  7  6  1  0  0  0
  5  6  2  0  0  0
  6 22  1  0  0  0
 22 23  1  0  0  0
 22 21  1  0  0  0
 23 24  1  0  0  0
 21 26  1  0  0  0
 24 25  1  0  0  0
 26 25  1  0  0  0
M  END
> <minimizedAffinity>
-7.62906

$$$$
5U28_82V_A_201


 26 30  0  0  0  0  0  0  0  0999 V2000
  -14.4649   -1.8431    3.8204 C   0  0  0  0  0  0  0  0  0  0  0  0
  -12.2900   -1.8846    4.9257 C   0  0  0  0  0  0  0  0  0  0  0  0
  -16.0444   -3.2207    2.5920 O   0  0  0  0  0  0  0  0  0  0  0  0
  -15.6967   -2.1466    3.0819 C   0  0  0  0  0  0  0  0  0  0  0  0
  -16.5431   -0.9160    3.0011 C   0  0  0  0  0  0  0  0  0  0  0  0
  -16.1178    0.2742    3.4100 C   0  0  0  0  0  0  0  0  0  0  0  0
  -15.0323    0.3621    4.2651 O   0  0  0  0  0  0  0  0  0  0  0  0
  -14.1677   -0.6656    4.3739 C   0  0  0  0  0  0  0  0  0  0  0  0
  -13.2169   -3.0186    4.0575 S   0  0  0  0  0  0  0  0  0  0  0  0
  -12.8444   -0.6586    5.0545 C   0  0  0  0  0  0  0  0  0  0  0  0
  -12.2201    0.4776    5.7826 C   0  0  0  0  0  0  0  0  0  0  0  0
  -11.0082    2.6669    7.2008 C   0  0  0  0  0  0  0  0  0  0  0  0
  -10.2588    3.5275    9.2685 C   0  0  0  0  0  0  0  0  0  0  0  0
  -11.6740    0.3669    7.0569 C   0  0  0  0  0  0  0  0  0  0  0  0
  -12.1553    1.7716    5.2379 C   0  0  0  0  0  0  0  0  0  0  0  0
  -11.5576    2.8486    5.9312 C   0  0  0  0  0  0  0  0  0  0  0  0
  -10.4208    3.7032    7.8613 O   0  0  0  0  0  0  0  0  0  0  0  0
   -9.7989    2.1581    9.6381 C   0  0  0  0  0  0  0  0  0  0  0  0
  -10.5592    1.1467    9.0111 O   0  0  0  0  0  0  0  0  0  0  0  0
  -11.0658    1.3965    7.7795 C   0  0  0  0  0  0  0  0  0  0  0  0
  -17.3919    2.1322    4.6391 C   0  0  0  0  0  0  0  0  0  0  0  0
  -16.8630    1.4920    3.4056 N   0  0  0  0  0  0  0  0  0  0  0  0
  -17.1495    2.2584    2.1235 C   0  0  0  0  0  0  0  0  0  0  0  0
  -18.1513    3.4422    2.1987 C   0  0  0  0  0  0  0  0  0  0  0  0
  -18.9653    3.3864    3.3112 O   0  0  0  0  0  0  0  0  0  0  0  0
  -18.2056    3.4147    4.4496 C   0  0  0  0  0  0  0  0  0  0  0  0
  9  2  1  0  0  0
  9  1  1  0  0  0
  2 10  2  0  0  0
 19 18  1  0  0  0
 19 20  1  0  0  0
 18 13  1  0  0  0
 14 20  2  0  0  0
 14 11  1  0  0  0
 10 11  1  0  0  0
 10  8  1  0  0  0
 20 12  1  0  0  0
  1  4  1  0  0  0
  1  8  2  0  0  0
  3  4  2  0  0  0
 11 15  2  0  0  0
  4  5  1  0  0  0
  8  7  1  0  0  0
 12 17  1  0  0  0
 12 16  2  0  0  0
 13 17  1  0  0  0
 15 16  1  0  0  0
  7  6  1  0  0  0
  5  6  2  0  0  0
  6 22  1  0  0  0
 22 23  1  0  0  0
 22 21  1  0  0  0
 23 24  1  0  0  0
 21 26  1  0  0  0
 24 25  1  0  0  0
 26 25  1  0  0  0
M  END
> <minimizedAffinity>
-7.55186

$$$$
5U28_82V_A_201


 26 30  0  0  0  0  0  0  0  0999 V2000
  -14.2511    0.8547    5.7024 C   0  0  0  0  0  0  0  0  0  0  0  0
  -13.4821    1.5799    7.9016 C   0  0  0  0  0  0  0  0  0  0  0  0
  -13.8005   -0.7240    3.9120 O   0  0  0  0  0  0  0  0  0  0  0  0
  -14.4448    0.2033    4.4013 C   0  0  0  0  0  0  0  0  0  0  0  0
  -15.6047    0.8337    3.6981 C   0  0  0  0  0  0  0  0  0  0  0  0
  -16.2193    1.9172    4.1594 C   0  0  0  0  0  0  0  0  0  0  0  0
  -16.0635    2.2867    5.4847 O   0  0  0  0  0  0  0  0  0  0  0  0
  -15.0191    1.8260    6.2006 C   0  0  0  0  0  0  0  0  0  0  0  0
  -12.9571    0.4233    6.7678 S   0  0  0  0  0  0  0  0  0  0  0  0
  -14.5734    2.2918    7.5418 C   0  0  0  0  0  0  0  0  0  0  0  0
  -15.2111    3.3406    8.3808 C   0  0  0  0  0  0  0  0  0  0  0  0
  -16.4453    5.3609   10.0142 C   0  0  0  0  0  0  0  0  0  0  0  0
  -17.8337    5.8540   11.8601 C   0  0  0  0  0  0  0  0  0  0  0  0
  -15.7455    3.0970    9.6415 C   0  0  0  0  0  0  0  0  0  0  0  0
  -15.3430    4.6706    7.9458 C   0  0  0  0  0  0  0  0  0  0  0  0
  -15.9462    5.6661    8.7476 C   0  0  0  0  0  0  0  0  0  0  0  0
  -17.0141    6.3249   10.7905 O   0  0  0  0  0  0  0  0  0  0  0  0
  -17.2469    4.6850   12.5760 C   0  0  0  0  0  0  0  0  0  0  0  0
  -16.8110    3.6745   11.6911 O   0  0  0  0  0  0  0  0  0  0  0  0
  -16.3431    4.0458   10.4750 C   0  0  0  0  0  0  0  0  0  0  0  0
  -18.4077    3.2396    4.3801 C   0  0  0  0  0  0  0  0  0  0  0  0
  -17.3514    2.5655    3.5794 N   0  0  0  0  0  0  0  0  0  0  0  0
  -17.5510    2.6476    2.0738 C   0  0  0  0  0  0  0  0  0  0  0  0
  -18.9166    3.1728    1.5544 C   0  0  0  0  0  0  0  0  0  0  0  0
  -19.9151    3.1019    2.5038 O   0  0  0  0  0  0  0  0  0  0  0  0
  -19.5743    3.8492    3.5989 C   0  0  0  0  0  0  0  0  0  0  0  0
  9  2  1  0  0  0
  9  1  1  0  0  0
  2 10  2  0  0  0
 19 18  1  0  0  0
 19 20  1  0  0  0
 18 13  1  0  0  0
 14 20  2  0  0  0
 14 11  1  0  0  0
 10 11  1  0  0  0
 10  8  1  0  0  0
 20 12  1  0  0  0
  1  4  1  0  0  0
  1  8  2  0  0  0
  3  4  2  0  0  0
 11 15  2  0  0  0
  4  5  1  0  0  0
  8  7  1  0  0  0
 12 17  1  0  0  0
 12 16  2  0  0  0
 13 17  1  0  0  0
 15 16  1  0  0  0
  7  6  1  0  0  0
  5  6  2  0  0  0
  6 22  1  0  0  0
 22 23  1  0  0  0
 22 21  1  0  0  0
 23 24  1  0  0  0
 21 26  1  0  0  0
 24 25  1  0  0  0
 26 25  1  0  0  0
M  END
> <minimizedAffinity>
-7.48759

$$$$
5U28_82V_A_201


 26 30  0  0  0  0  0  0  0  0999 V2000
  -13.6662    0.5796    5.8698 C   0  0  0  0  0  0  0  0  0  0  0  0
  -12.8924    1.3818    8.0403 C   0  0  0  0  0  0  0  0  0  0  0  0
  -13.1764   -1.0129    4.1019 O   0  0  0  0  0  0  0  0  0  0  0  0
  -13.8530   -0.1055    4.5851 C   0  0  0  0  0  0  0  0  0  0  0  0
  -15.0520    0.4585    3.8913 C   0  0  0  0  0  0  0  0  0  0  0  0
  -15.7064    1.5227    4.3429 C   0  0  0  0  0  0  0  0  0  0  0  0
  -15.5444    1.9251    5.6579 O   0  0  0  0  0  0  0  0  0  0  0  0
  -14.4681    1.5255    6.3632 C   0  0  0  0  0  0  0  0  0  0  0  0
  -12.3358    0.2274    6.9194 S   0  0  0  0  0  0  0  0  0  0  0  0
  -14.0205    2.0372    7.6869 C   0  0  0  0  0  0  0  0  0  0  0  0
  -14.6898    3.0732    8.5172 C   0  0  0  0  0  0  0  0  0  0  0  0
  -15.9808    5.0869   10.1145 C   0  0  0  0  0  0  0  0  0  0  0  0
  -16.0940    7.3617   10.7395 C   0  0  0  0  0  0  0  0  0  0  0  0
  -14.5713    4.4393    8.2848 C   0  0  0  0  0  0  0  0  0  0  0  0
  -15.4851    2.7443    9.6284 C   0  0  0  0  0  0  0  0  0  0  0  0
  -16.1232    3.7315   10.4132 C   0  0  0  0  0  0  0  0  0  0  0  0
  -16.6076    6.0358   10.8643 O   0  0  0  0  0  0  0  0  0  0  0  0
  -15.7701    7.7337    9.3323 C   0  0  0  0  0  0  0  0  0  0  0  0
  -14.9980    6.7486    8.6785 O   0  0  0  0  0  0  0  0  0  0  0  0
  -15.1871    5.4523    9.0243 C   0  0  0  0  0  0  0  0  0  0  0  0
  -17.0236    2.3917    2.3190 C   0  0  0  0  0  0  0  0  0  0  0  0
  -16.8763    2.1084    3.7713 N   0  0  0  0  0  0  0  0  0  0  0  0
  -18.0943    2.4625    4.6107 C   0  0  0  0  0  0  0  0  0  0  0  0
  -19.2184    3.2946    3.9365 C   0  0  0  0  0  0  0  0  0  0  0  0
  -18.7896    3.9589    2.8059 O   0  0  0  0  0  0  0  0  0  0  0  0
  -18.3288    3.0609    1.8812 C   0  0  0  0  0  0  0  0  0  0  0  0
  9  2  1  0  0  0
  9  1  1  0  0  0
  2 10  2  0  0  0
 19 18  1  0  0  0
 19 20  1  0  0  0
 18 13  1  0  0  0
 14 20  2  0  0  0
 14 11  1  0  0  0
 10 11  1  0  0  0
 10  8  1  0  0  0
 20 12  1  0  0  0
  1  4  1  0  0  0
  1  8  2  0  0  0
  3  4  2  0  0  0
 11 15  2  0  0  0
  4  5  1  0  0  0
  8  7  1  0  0  0
 12 17  1  0  0  0
 12 16  2  0  0  0
 13 17  1  0  0  0
 15 16  1  0  0  0
  7  6  1  0  0  0
  5  6  2  0  0  0
  6 22  1  0  0  0
 22 23  1  0  0  0
 22 21  1  0  0  0
 23 24  1  0  0  0
 21 26  1  0  0  0
 24 25  1  0  0  0
 26 25  1  0  0  0
M  END
> <minimizedAffinity>
-7.33833

$$$$
