1G46_F2B_A_555
  RCSB PDB12061702343D
Coordinates from PDB:1G46:A:555 Model:1 without hydrogens
 22 23  0  0  0  0            999 V2000
   -3.7760    3.4840   14.8430   C 0  0  0  0  0  0  0  0  0  0  0  0
   -4.1720    2.3500   15.5910   C 0  0  0  0  0  0  0  0  0  0  0  0
   -5.5470    2.2440   15.9710   C 0  0  0  0  0  0  0  0  0  0  0  0
   -6.4400    3.2680   15.5950   C 0  0  0  0  0  0  0  0  0  0  0  0
   -5.9960    4.3740   14.8560   C 0  0  0  0  0  0  0  0  0  0  0  0
   -4.6820    4.4900   14.4760   C 0  0  0  0  0  0  0  0  0  0  0  0
   -4.2030    5.6770   13.6740   C 0  0  0  0  0  0  0  0  0  0  0  0
   -4.9920    6.5560   13.3470   O 0  0  0  0  0  0  0  0  0  0  0  0
   -2.8760    5.7480   13.3320   N 0  0  0  0  0  0  0  0  0  0  0  0
   -2.1590    6.7810   12.5860   C 0  0  0  0  0  0  0  0  0  0  0  0
   -6.0790    0.8210   16.8920   S 0  0  0  0  0  0  0  0  0  0  0  0
   -5.6770   -0.5870   16.0830   N 0  0  0  0  0  0  0  0  0  0  0  0
   -7.5130    1.0660   17.0180   O 0  0  0  0  0  0  0  0  0  0  0  0
   -5.4220    1.0020   18.1930   O 0  0  0  0  0  0  0  0  0  0  0  0
   -1.6020    7.8570   13.3630   C 0  0  0  0  0  0  0  0  0  0  0  0
   -1.9250    7.9340   14.7600   C 0  0  0  0  0  0  0  0  0  0  0  0
   -1.3710    9.0150   15.5610   C 0  0  0  0  0  0  0  0  0  0  0  0
   -0.5050    9.9880   14.9340   C 0  0  0  0  0  0  0  0  0  0  0  0
   -0.1790    9.9230   13.5560   C 0  0  0  0  0  0  0  0  0  0  0  0
   -0.7250    8.8540   12.7540   C 0  0  0  0  0  0  0  0  0  0  0  0
    0.3700   10.5560   13.1960   F 0  0  0  0  0  0  0  0  0  0  0  0
   -0.4600    8.8140   11.6700   F 0  0  0  0  0  0  0  0  0  0  0  0
  1  2  2  0  0  0  0
  1  6  1  0  0  0  0
  2  3  1  0  0  0  0
  3  4  2  0  0  0  0
  3 11  1  0  0  0  0
  4  5  1  0  0  0  0
  5  6  2  0  0  0  0
  6  7  1  0  0  0  0
  7  8  2  0  0  0  0
  7  9  1  0  0  0  0
  9 10  1  0  0  0  0
 10 15  1  0  0  0  0
 11 12  1  0  0  0  0
 11 13  2  0  0  0  0
 11 14  2  0  0  0  0
 15 16  2  0  0  0  0
 15 20  1  0  0  0  0
 16 17  1  0  0  0  0
 17 18  2  0  0  0  0
 18 19  1  0  0  0  0
 19 20  2  0  0  0  0
 19 21  1  0  0  0  0
 20 22  1  0  0  0  0
A    1
C01
A    2
C02
A    3
C03
A    4
C04
A    5
C05
A    6
C06
A    7
C07
A    8
O08
A    9
N09
A   10
C10
A   11
S11
A   12
NP2
A   13
O13
A   14
O14
A   15
C15
A   16
C16
A   17
C17
A   18
C18
A   19
C19
A   20
C20
A   21
F21
A   22
F22
M  END
>  <InstanceId>
1G46_F2B_A_555

>  <ChemCompId>
F2B

>  <PdbId>
1G46

>  <ChainId>
A

>  <ResidueNumber>
555

>  <InsertionCode>


>  <Model>
1

>  <AltIds>


>  <MissingHeavyAtoms>
0

>  <ObservedFormula>
C14 N2 O3 S F2

>  <Name>
N-(2,3-DIFLUORO-BENZYL)-4-SULFAMOYL-BENZAMIDE

>  <SystematicName>
N-[(2,3-difluorophenyl)methyl]-4-sulfamoyl-benzamide

>  <Synonyms>


>  <Type>
NON-POLYMER

>  <Formula>
C14 H12 F2 N2 O3 S

>  <MolecularWeight>
326.318

>  <ModifiedDate>
2011-06-04

>  <Parent>


>  <OneLetterCode>


>  <SubcomponentList>


>  <AmbiguousFlag>
N

>  <InChI>
InChI=1S/C14H12F2N2O3S/c15-12-3-1-2-10(13(12)16)8-18-14(19)9-4-6-11(7-5-9)22(17,20)21/h1-7H,8H2,(H,18,19)(H2,17,20,21)

>  <InChIKey>
QASSMVGOSBNFQY-UHFFFAOYSA-N

>  <SMILES>
c1cc(c(c(c1)F)F)CNC(=O)c2ccc(cc2)S(=O)(=O)N

$$$$
