5FSX_ADP_A_1262


 34 36  0  0  0  0  0  0  0  0999 V2000
   63.9196    9.0402   83.2153 C   0  0  0  0  0  0  0  0  0  0  0  0
   64.5320    8.8697   81.9396 O   0  0  0  0  0  0  0  0  0  0  0  0
   62.4247    9.1433   82.9609 C   0  0  0  0  0  0  0  0  0  0  0  0
   61.9996   10.5107   82.9683 O   0  0  0  0  0  0  0  0  0  0  0  0
   62.2421    8.6093   81.5587 C   0  0  0  0  0  0  0  0  0  0  0  0
   61.0774    9.1709   80.9355 O   0  0  0  0  0  0  0  0  0  0  0  0
   63.5646    9.0378   80.9142 C   0  0  0  0  0  0  0  0  0  0  0  0
   62.4950   11.0070   82.2981 H   0  0  0  0  0  0  0  0  0  0  0  0
   61.1378   10.1389   80.9503 H   0  0  0  0  0  0  0  0  0  0  0  0
   63.8965    8.2636   79.6939 N   0  0  0  0  0  0  0  0  0  0  0  0
   63.3927    7.0559   79.3547 C   0  0  0  0  0  0  0  0  0  0  0  0
   63.8924    6.6549   78.1640 N   0  0  0  0  0  0  0  0  0  0  0  0
   64.7189    7.6195   77.7216 C   0  0  0  0  0  0  0  0  0  0  0  0
   65.5729    7.8079   76.5325 C   0  0  0  0  0  0  0  0  0  0  0  0
   65.6074    6.8544   75.5777 N   0  0  0  0  0  0  0  0  0  0  0  0
   66.2858    8.9494   76.4419 N   0  0  0  0  0  0  0  0  0  0  0  0
   66.2457    9.9002   77.4042 C   0  0  0  0  0  0  0  0  0  0  0  0
   65.4989    9.7848   78.5190 N   0  0  0  0  0  0  0  0  0  0  0  0
   64.7258    8.6840   78.7309 C   0  0  0  0  0  0  0  0  0  0  0  0
   65.0720    6.0347   75.6811 H   0  0  0  0  0  0  0  0  0  0  0  0
   66.1679    6.9786   74.7780 H   0  0  0  0  0  0  0  0  0  0  0  0
   64.3068    7.8481   84.0826 C   0  0  0  0  0  0  0  0  0  0  0  0
   63.2307    6.9089   84.1542 O   0  0  0  0  0  0  0  0  0  0  0  0
   63.3700    5.4483   83.4953 P   0  0  0  0  0  0  0  0  0  0  0  0
   62.0189    4.7612   83.4683 O   0  0  0  0  0  0  0  0  0  0  0  0
   64.1044    5.6754   82.1988 O   0  0  0  0  0  0  0  0  0  0  0  0
   64.2251    4.8279   81.7427 H   0  0  0  0  0  0  0  0  0  0  0  0
   64.3670    4.6984   84.5232 O   0  0  0  0  0  0  0  0  0  0  0  0
   65.2923    3.4147   84.2017 P   0  0  0  0  0  0  0  0  0  0  0  0
   64.3046    2.3150   83.8641 O   0  0  0  0  0  0  0  0  0  0  0  0
   66.0674    3.1668   85.4794 O   0  0  0  0  0  0  0  0  0  0  0  0
   66.1627    3.8642   83.0584 O   0  0  0  0  0  0  0  0  0  0  0  0
   66.6513    2.4015   85.3600 H   0  0  0  0  0  0  0  0  0  0  0  0
   66.7564    3.1417   82.8007 H   0  0  0  0  0  0  0  0  0  0  0  0
 29 30  2  0  0  0
 29 31  1  0  0  0
 29 32  1  0  0  0
 29 28  1  0  0  0
 24 25  2  0  0  0
 24 26  1  0  0  0
 24 28  1  0  0  0
 24 23  1  0  0  0
 23 22  1  0  0  0
 22  1  1  0  0  0
  1  2  1  0  0  0
  1  3  1  0  0  0
  2  7  1  0  0  0
  3  4  1  0  0  0
  3  5  1  0  0  0
  5  6  1  0  0  0
  5  7  1  0  0  0
  7 10  1  0  0  0
 10 11  1  0  0  0
 10 19  1  0  0  0
 11 12  2  0  0  0
 12 13  1  0  0  0
 13 14  1  0  0  0
 13 19  2  0  0  0
 14 15  1  0  0  0
 14 16  2  0  0  0
 16 17  1  0  0  0
 17 18  2  0  0  0
 18 19  1  0  0  0
 31 33  1  0  0  0
 32 34  1  0  0  0
 26 27  1  0  0  0
  4  8  1  0  0  0
  6  9  1  0  0  0
 15 20  1  0  0  0
 15 21  1  0  0  0
M  END
> <minimizedAffinity>
-9.63639

$$$$
5FSX_ADP_A_1262


 34 36  0  0  0  0  0  0  0  0999 V2000
   63.4310    8.4540   83.2653 C   0  0  0  0  0  0  0  0  0  0  0  0
   64.2173    8.2849   82.0886 O   0  0  0  0  0  0  0  0  0  0  0  0
   62.0740    8.9586   82.8030 C   0  0  0  0  0  0  0  0  0  0  0  0
   61.9772   10.3785   82.9618 O   0  0  0  0  0  0  0  0  0  0  0  0
   62.0418    8.6551   81.3227 C   0  0  0  0  0  0  0  0  0  0  0  0
   61.1738    9.5602   80.6245 O   0  0  0  0  0  0  0  0  0  0  0  0
   63.5241    8.8094   80.9661 C   0  0  0  0  0  0  0  0  0  0  0  0
   62.6894   10.8089   82.4634 H   0  0  0  0  0  0  0  0  0  0  0  0
   61.4487   10.4734   80.8019 H   0  0  0  0  0  0  0  0  0  0  0  0
   63.8948    8.1244   79.7044 N   0  0  0  0  0  0  0  0  0  0  0  0
   63.4426    6.9201   79.2887 C   0  0  0  0  0  0  0  0  0  0  0  0
   63.9657    6.6124   78.0804 N   0  0  0  0  0  0  0  0  0  0  0  0
   64.7549    7.6344   77.7041 C   0  0  0  0  0  0  0  0  0  0  0  0
   65.6080    7.9285   76.5359 C   0  0  0  0  0  0  0  0  0  0  0  0
   65.6872    7.0367   75.5258 N   0  0  0  0  0  0  0  0  0  0  0  0
   66.2745    9.1012   76.5204 N   0  0  0  0  0  0  0  0  0  0  0  0
   66.1897    9.9896   77.5378 C   0  0  0  0  0  0  0  0  0  0  0  0
   65.4413    9.7770   78.6371 N   0  0  0  0  0  0  0  0  0  0  0  0
   64.7123    8.6353   78.7756 C   0  0  0  0  0  0  0  0  0  0  0  0
   65.1850    6.1913   75.5751 H   0  0  0  0  0  0  0  0  0  0  0  0
   66.2471    7.2315   74.7399 H   0  0  0  0  0  0  0  0  0  0  0  0
   63.3669    7.1100   83.9815 C   0  0  0  0  0  0  0  0  0  0  0  0
   64.2672    7.0900   85.0925 O   0  0  0  0  0  0  0  0  0  0  0  0
   64.0130    6.1045   86.3379 P   0  0  0  0  0  0  0  0  0  0  0  0
   65.1476    6.2275   87.3358 O   0  0  0  0  0  0  0  0  0  0  0  0
   62.6049    6.4008   86.7867 O   0  0  0  0  0  0  0  0  0  0  0  0
   62.3811    5.8364   87.5432 H   0  0  0  0  0  0  0  0  0  0  0  0
   64.0303    4.6483   85.6364 O   0  0  0  0  0  0  0  0  0  0  0  0
   65.3340    3.8364   85.1378 P   0  0  0  0  0  0  0  0  0  0  0  0
   64.7816    2.5265   84.6104 O   0  0  0  0  0  0  0  0  0  0  0  0
   66.1908    3.6815   86.3775 O   0  0  0  0  0  0  0  0  0  0  0  0
   65.9523    4.7331   84.0985 O   0  0  0  0  0  0  0  0  0  0  0  0
   67.0007    3.1975   86.1524 H   0  0  0  0  0  0  0  0  0  0  0  0
   66.7517    4.3136   83.7437 H   0  0  0  0  0  0  0  0  0  0  0  0
 29 30  2  0  0  0
 29 31  1  0  0  0
 29 32  1  0  0  0
 29 28  1  0  0  0
 24 25  2  0  0  0
 24 26  1  0  0  0
 24 28  1  0  0  0
 24 23  1  0  0  0
 23 22  1  0  0  0
 22  1  1  0  0  0
  1  2  1  0  0  0
  1  3  1  0  0  0
  2  7  1  0  0  0
  3  4  1  0  0  0
  3  5  1  0  0  0
  5  6  1  0  0  0
  5  7  1  0  0  0
  7 10  1  0  0  0
 10 11  1  0  0  0
 10 19  1  0  0  0
 11 12  2  0  0  0
 12 13  1  0  0  0
 13 14  1  0  0  0
 13 19  2  0  0  0
 14 15  1  0  0  0
 14 16  2  0  0  0
 16 17  1  0  0  0
 17 18  2  0  0  0
 18 19  1  0  0  0
 31 33  1  0  0  0
 32 34  1  0  0  0
 26 27  1  0  0  0
  4  8  1  0  0  0
  6  9  1  0  0  0
 15 20  1  0  0  0
 15 21  1  0  0  0
M  END
> <minimizedAffinity>
-9.62574

$$$$
5FSX_ADP_A_1262


 34 36  0  0  0  0  0  0  0  0999 V2000
   62.7389    7.4684   82.2766 C   0  0  0  0  0  0  0  0  0  0  0  0
   63.8414    7.7081   81.4057 O   0  0  0  0  0  0  0  0  0  0  0  0
   61.5730    8.2687   81.7196 C   0  0  0  0  0  0  0  0  0  0  0  0
   61.4128    9.4998   82.4333 O   0  0  0  0  0  0  0  0  0  0  0  0
   61.9861    8.6040   80.3049 C   0  0  0  0  0  0  0  0  0  0  0  0
   61.3514    9.8079   79.8488 O   0  0  0  0  0  0  0  0  0  0  0  0
   63.5050    8.7214   80.4699 C   0  0  0  0  0  0  0  0  0  0  0  0
   62.2346   10.0127   82.3818 H   0  0  0  0  0  0  0  0  0  0  0  0
   61.5480   10.5305   80.4653 H   0  0  0  0  0  0  0  0  0  0  0  0
   64.2434    8.5761   79.1923 N   0  0  0  0  0  0  0  0  0  0  0  0
   65.1002    9.4763   78.6602 C   0  0  0  0  0  0  0  0  0  0  0  0
   65.6145    9.0082   77.5006 N   0  0  0  0  0  0  0  0  0  0  0  0
   65.0948    7.7863   77.2864 C   0  0  0  0  0  0  0  0  0  0  0  0
   65.2210    6.7605   76.2325 C   0  0  0  0  0  0  0  0  0  0  0  0
   66.0387    6.9806   75.1814 N   0  0  0  0  0  0  0  0  0  0  0  0
   64.5116    5.6217   76.3720 N   0  0  0  0  0  0  0  0  0  0  0  0
   63.6935    5.4094   77.4290 C   0  0  0  0  0  0  0  0  0  0  0  0
   63.5227    6.3087   78.4169 N   0  0  0  0  0  0  0  0  0  0  0  0
   64.1865    7.4975   78.4015 C   0  0  0  0  0  0  0  0  0  0  0  0
   66.5398    7.8256   75.1161 H   0  0  0  0  0  0  0  0  0  0  0  0
   66.1342    6.2962   74.4802 H   0  0  0  0  0  0  0  0  0  0  0  0
   62.4847    5.9658   82.3058 C   0  0  0  0  0  0  0  0  0  0  0  0
   62.8155    5.4256   83.5880 O   0  0  0  0  0  0  0  0  0  0  0  0
   64.2721    4.8026   83.8658 P   0  0  0  0  0  0  0  0  0  0  0  0
   64.1392    3.3776   84.3657 O   0  0  0  0  0  0  0  0  0  0  0  0
   65.0553    5.0690   82.6058 O   0  0  0  0  0  0  0  0  0  0  0  0
   65.9537    4.7164   82.7029 H   0  0  0  0  0  0  0  0  0  0  0  0
   64.8421    5.7627   85.0347 O   0  0  0  0  0  0  0  0  0  0  0  0
   63.9996    6.3875   86.2624 P   0  0  0  0  0  0  0  0  0  0  0  0
   64.9984    6.4689   87.4003 O   0  0  0  0  0  0  0  0  0  0  0  0
   62.8782    5.3983   86.5052 O   0  0  0  0  0  0  0  0  0  0  0  0
   63.5164    7.7146   85.7409 O   0  0  0  0  0  0  0  0  0  0  0  0
   62.3242    5.7109   87.2375 H   0  0  0  0  0  0  0  0  0  0  0  0
   62.9947    8.1607   86.4262 H   0  0  0  0  0  0  0  0  0  0  0  0
 29 30  2  0  0  0
 29 31  1  0  0  0
 29 32  1  0  0  0
 29 28  1  0  0  0
 24 25  2  0  0  0
 24 26  1  0  0  0
 24 28  1  0  0  0
 24 23  1  0  0  0
 23 22  1  0  0  0
 22  1  1  0  0  0
  1  2  1  0  0  0
  1  3  1  0  0  0
  2  7  1  0  0  0
  3  4  1  0  0  0
  3  5  1  0  0  0
  5  6  1  0  0  0
  5  7  1  0  0  0
  7 10  1  0  0  0
 10 11  1  0  0  0
 10 19  1  0  0  0
 11 12  2  0  0  0
 12 13  1  0  0  0
 13 14  1  0  0  0
 13 19  2  0  0  0
 14 15  1  0  0  0
 14 16  2  0  0  0
 16 17  1  0  0  0
 17 18  2  0  0  0
 18 19  1  0  0  0
 31 33  1  0  0  0
 32 34  1  0  0  0
 26 27  1  0  0  0
  4  8  1  0  0  0
  6  9  1  0  0  0
 15 20  1  0  0  0
 15 21  1  0  0  0
M  END
> <minimizedAffinity>
-9.39178

$$$$
5FSX_ADP_A_1262


 34 36  0  0  0  0  0  0  0  0999 V2000
   63.9000    8.6603   82.6066 C   0  0  0  0  0  0  0  0  0  0  0  0
   64.8152    8.8585   81.5320 O   0  0  0  0  0  0  0  0  0  0  0  0
   62.5469    9.1414   82.1091 C   0  0  0  0  0  0  0  0  0  0  0  0
   62.2696   10.4633   82.5848 O   0  0  0  0  0  0  0  0  0  0  0  0
   62.6996    9.2125   80.6071 C   0  0  0  0  0  0  0  0  0  0  0  0
   61.8067   10.1818   80.0384 O   0  0  0  0  0  0  0  0  0  0  0  0
   64.1821    9.5811   80.4867 C   0  0  0  0  0  0  0  0  0  0  0  0
   62.9733   11.0652   82.2959 H   0  0  0  0  0  0  0  0  0  0  0  0
   61.9540   11.0432   80.4594 H   0  0  0  0  0  0  0  0  0  0  0  0
   64.7553    9.2658   79.1561 N   0  0  0  0  0  0  0  0  0  0  0  0
   65.5887   10.0536   78.4403 C   0  0  0  0  0  0  0  0  0  0  0  0
   65.9370    9.4432   77.2851 N   0  0  0  0  0  0  0  0  0  0  0  0
   65.3327    8.2419   77.2589 C   0  0  0  0  0  0  0  0  0  0  0  0
   65.2796    7.1127   76.3097 C   0  0  0  0  0  0  0  0  0  0  0  0
   65.9774    7.1772   75.1561 N   0  0  0  0  0  0  0  0  0  0  0  0
   64.5334    6.0403   76.6457 N   0  0  0  0  0  0  0  0  0  0  0  0
   63.8365    5.9842   77.8045 C   0  0  0  0  0  0  0  0  0  0  0  0
   63.8309    6.9842   78.7065 N   0  0  0  0  0  0  0  0  0  0  0  0
   64.5491    8.1213   78.4931 C   0  0  0  0  0  0  0  0  0  0  0  0
   66.5104    7.9782   74.9473 H   0  0  0  0  0  0  0  0  0  0  0  0
   65.9533    6.4233   74.5234 H   0  0  0  0  0  0  0  0  0  0  0  0
   63.9213    7.1806   82.9716 C   0  0  0  0  0  0  0  0  0  0  0  0
   63.9504    7.0143   84.3917 O   0  0  0  0  0  0  0  0  0  0  0  0
   63.4426    5.6467   85.0691 P   0  0  0  0  0  0  0  0  0  0  0  0
   62.8485    5.9342   86.4339 O   0  0  0  0  0  0  0  0  0  0  0  0
   62.5853    4.9880   84.0189 O   0  0  0  0  0  0  0  0  0  0  0  0
   62.2413    4.1485   84.3622 H   0  0  0  0  0  0  0  0  0  0  0  0
   64.8133    4.8022   85.2138 O   0  0  0  0  0  0  0  0  0  0  0  0
   65.2854    3.5684   84.2854 P   0  0  0  0  0  0  0  0  0  0  0  0
   65.7076    4.2189   82.9825 O   0  0  0  0  0  0  0  0  0  0  0  0
   64.0587    2.6886   84.1580 O   0  0  0  0  0  0  0  0  0  0  0  0
   66.3986    2.9231   85.0669 O   0  0  0  0  0  0  0  0  0  0  0  0
   64.2691    1.9183   83.6072 H   0  0  0  0  0  0  0  0  0  0  0  0
   66.7425    2.1629   84.5723 H   0  0  0  0  0  0  0  0  0  0  0  0
 29 30  2  0  0  0
 29 31  1  0  0  0
 29 32  1  0  0  0
 29 28  1  0  0  0
 24 25  2  0  0  0
 24 26  1  0  0  0
 24 28  1  0  0  0
 24 23  1  0  0  0
 23 22  1  0  0  0
 22  1  1  0  0  0
  1  2  1  0  0  0
  1  3  1  0  0  0
  2  7  1  0  0  0
  3  4  1  0  0  0
  3  5  1  0  0  0
  5  6  1  0  0  0
  5  7  1  0  0  0
  7 10  1  0  0  0
 10 11  1  0  0  0
 10 19  1  0  0  0
 11 12  2  0  0  0
 12 13  1  0  0  0
 13 14  1  0  0  0
 13 19  2  0  0  0
 14 15  1  0  0  0
 14 16  2  0  0  0
 16 17  1  0  0  0
 17 18  2  0  0  0
 18 19  1  0  0  0
 31 33  1  0  0  0
 32 34  1  0  0  0
 26 27  1  0  0  0
  4  8  1  0  0  0
  6  9  1  0  0  0
 15 20  1  0  0  0
 15 21  1  0  0  0
M  END
> <minimizedAffinity>
-9.03107

$$$$
5FSX_ADP_A_1262


 34 36  0  0  0  0  0  0  0  0999 V2000
   60.9302    5.8973   82.1196 C   0  0  0  0  0  0  0  0  0  0  0  0
   61.9645    6.8199   81.7871 O   0  0  0  0  0  0  0  0  0  0  0  0
   59.9852    5.8685   80.9296 C   0  0  0  0  0  0  0  0  0  0  0  0
   58.8395    6.6938   81.1686 O   0  0  0  0  0  0  0  0  0  0  0  0
   60.7771    6.4909   79.8027 C   0  0  0  0  0  0  0  0  0  0  0  0
   59.9116    7.0958   78.8304 O   0  0  0  0  0  0  0  0  0  0  0  0
   61.6422    7.4903   80.5779 C   0  0  0  0  0  0  0  0  0  0  0  0
   59.1278    7.6013   81.3539 H   0  0  0  0  0  0  0  0  0  0  0  0
   59.3346    7.7411   79.2682 H   0  0  0  0  0  0  0  0  0  0  0  0
   62.8498    7.9181   79.8315 N   0  0  0  0  0  0  0  0  0  0  0  0
   63.5528    7.1666   78.9547 C   0  0  0  0  0  0  0  0  0  0  0  0
   64.5784    7.8810   78.4390 N   0  0  0  0  0  0  0  0  0  0  0  0
   64.5311    9.1123   78.9781 C   0  0  0  0  0  0  0  0  0  0  0  0
   65.3384   10.3426   78.8610 C   0  0  0  0  0  0  0  0  0  0  0  0
   66.4024   10.3661   78.0308 N   0  0  0  0  0  0  0  0  0  0  0  0
   64.9658   11.4138   79.5913 N   0  0  0  0  0  0  0  0  0  0  0  0
   63.8977   11.3813   80.4217 C   0  0  0  0  0  0  0  0  0  0  0  0
   63.1283   10.2881   80.5851 N   0  0  0  0  0  0  0  0  0  0  0  0
   63.3909    9.1405   79.9006 C   0  0  0  0  0  0  0  0  0  0  0  0
   66.6419    9.5628   77.5146 H   0  0  0  0  0  0  0  0  0  0  0  0
   66.9390   11.1867   77.9415 H   0  0  0  0  0  0  0  0  0  0  0  0
   61.5814    4.5501   82.4101 C   0  0  0  0  0  0  0  0  0  0  0  0
   62.2872    4.5915   83.6533 O   0  0  0  0  0  0  0  0  0  0  0  0
   63.8820    4.3885   83.6995 P   0  0  0  0  0  0  0  0  0  0  0  0
   64.2187    2.9123   83.6228 O   0  0  0  0  0  0  0  0  0  0  0  0
   64.4230    5.3209   82.6459 O   0  0  0  0  0  0  0  0  0  0  0  0
   65.3900    5.2505   82.6176 H   0  0  0  0  0  0  0  0  0  0  0  0
   64.2647    4.9826   85.1533 O   0  0  0  0  0  0  0  0  0  0  0  0
   63.7778    6.3909   85.7754 P   0  0  0  0  0  0  0  0  0  0  0  0
   62.6451    6.0164   86.7113 O   0  0  0  0  0  0  0  0  0  0  0  0
   63.3354    7.2096   84.5800 O   0  0  0  0  0  0  0  0  0  0  0  0
   65.0067    6.9415   86.4486 O   0  0  0  0  0  0  0  0  0  0  0  0
   63.0263    8.0787   84.8799 H   0  0  0  0  0  0  0  0  0  0  0  0
   64.7974    7.7979   86.8532 H   0  0  0  0  0  0  0  0  0  0  0  0
 29 30  2  0  0  0
 29 31  1  0  0  0
 29 32  1  0  0  0
 29 28  1  0  0  0
 24 25  2  0  0  0
 24 26  1  0  0  0
 24 28  1  0  0  0
 24 23  1  0  0  0
 23 22  1  0  0  0
 22  1  1  0  0  0
  1  2  1  0  0  0
  1  3  1  0  0  0
  2  7  1  0  0  0
  3  4  1  0  0  0
  3  5  1  0  0  0
  5  6  1  0  0  0
  5  7  1  0  0  0
  7 10  1  0  0  0
 10 11  1  0  0  0
 10 19  1  0  0  0
 11 12  2  0  0  0
 12 13  1  0  0  0
 13 14  1  0  0  0
 13 19  2  0  0  0
 14 15  1  0  0  0
 14 16  2  0  0  0
 16 17  1  0  0  0
 17 18  2  0  0  0
 18 19  1  0  0  0
 31 33  1  0  0  0
 32 34  1  0  0  0
 26 27  1  0  0  0
  4  8  1  0  0  0
  6  9  1  0  0  0
 15 20  1  0  0  0
 15 21  1  0  0  0
M  END
> <minimizedAffinity>
-8.92728

$$$$
5FSX_ADP_A_1262


 34 36  0  0  0  0  0  0  0  0999 V2000
   62.6743    6.8963   82.8690 C   0  0  0  0  0  0  0  0  0  0  0  0
   62.9061    5.9368   83.8972 O   0  0  0  0  0  0  0  0  0  0  0  0
   63.4572    8.1388   83.2603 C   0  0  0  0  0  0  0  0  0  0  0  0
   62.5999    9.1100   83.8707 O   0  0  0  0  0  0  0  0  0  0  0  0
   64.4318    7.6567   84.3102 C   0  0  0  0  0  0  0  0  0  0  0  0
   64.8018    8.7177   85.2033 O   0  0  0  0  0  0  0  0  0  0  0  0
   63.6144    6.5406   84.9692 C   0  0  0  0  0  0  0  0  0  0  0  0
   62.1696    8.7190   84.6471 H   0  0  0  0  0  0  0  0  0  0  0  0
   64.0031    9.1012   85.5982 H   0  0  0  0  0  0  0  0  0  0  0  0
   64.4500    5.5666   85.7121 N   0  0  0  0  0  0  0  0  0  0  0  0
   65.0675    5.7850   86.8947 C   0  0  0  0  0  0  0  0  0  0  0  0
   65.7216    4.6720   87.2967 N   0  0  0  0  0  0  0  0  0  0  0  0
   65.5146    3.7189   86.3705 C   0  0  0  0  0  0  0  0  0  0  0  0
   65.9402    2.3168   86.1920 C   0  0  0  0  0  0  0  0  0  0  0  0
   66.7186    1.7315   87.1266 N   0  0  0  0  0  0  0  0  0  0  0  0
   65.5166    1.6640   85.0902 N   0  0  0  0  0  0  0  0  0  0  0  0
   64.7367    2.2588   84.1577 C   0  0  0  0  0  0  0  0  0  0  0  0
   64.3249    3.5375   84.2529 N   0  0  0  0  0  0  0  0  0  0  0  0
   64.6759    4.3067   85.3203 C   0  0  0  0  0  0  0  0  0  0  0  0
   67.0069    2.2423   87.9173 H   0  0  0  0  0  0  0  0  0  0  0  0
   66.9979    0.7937   87.0177 H   0  0  0  0  0  0  0  0  0  0  0  0
   63.1272    6.2845   81.5484 C   0  0  0  0  0  0  0  0  0  0  0  0
   64.0436    7.1554   80.8799 O   0  0  0  0  0  0  0  0  0  0  0  0
   63.6327    7.8809   79.5046 P   0  0  0  0  0  0  0  0  0  0  0  0
   64.2343    7.1387   78.3275 O   0  0  0  0  0  0  0  0  0  0  0  0
   62.1363    8.0435   79.5831 O   0  0  0  0  0  0  0  0  0  0  0  0
   61.8157    8.4790   78.7779 H   0  0  0  0  0  0  0  0  0  0  0  0
   64.3145    9.3378   79.6645 O   0  0  0  0  0  0  0  0  0  0  0  0
   63.8073   10.5375   80.6189 P   0  0  0  0  0  0  0  0  0  0  0  0
   64.7344   10.4815   81.8174 O   0  0  0  0  0  0  0  0  0  0  0  0
   62.3688   10.1913   80.9443 O   0  0  0  0  0  0  0  0  0  0  0  0
   63.9414   11.7702   79.7651 O   0  0  0  0  0  0  0  0  0  0  0  0
   61.9941   10.8754   81.5209 H   0  0  0  0  0  0  0  0  0  0  0  0
   63.6533   12.5465   80.2704 H   0  0  0  0  0  0  0  0  0  0  0  0
 29 30  2  0  0  0
 29 31  1  0  0  0
 29 32  1  0  0  0
 29 28  1  0  0  0
 24 25  2  0  0  0
 24 26  1  0  0  0
 24 28  1  0  0  0
 24 23  1  0  0  0
 23 22  1  0  0  0
 22  1  1  0  0  0
  1  2  1  0  0  0
  1  3  1  0  0  0
  2  7  1  0  0  0
  3  4  1  0  0  0
  3  5  1  0  0  0
  5  6  1  0  0  0
  5  7  1  0  0  0
  7 10  1  0  0  0
 10 11  1  0  0  0
 10 19  1  0  0  0
 11 12  2  0  0  0
 12 13  1  0  0  0
 13 14  1  0  0  0
 13 19  2  0  0  0
 14 15  1  0  0  0
 14 16  2  0  0  0
 16 17  1  0  0  0
 17 18  2  0  0  0
 18 19  1  0  0  0
 31 33  1  0  0  0
 32 34  1  0  0  0
 26 27  1  0  0  0
  4  8  1  0  0  0
  6  9  1  0  0  0
 15 20  1  0  0  0
 15 21  1  0  0  0
M  END
> <minimizedAffinity>
-8.77981

$$$$
5FSX_ADP_A_1262


 34 36  0  0  0  0  0  0  0  0999 V2000
   64.1860    8.6903   82.6123 C   0  0  0  0  0  0  0  0  0  0  0  0
   64.1774    7.6438   81.6447 O   0  0  0  0  0  0  0  0  0  0  0  0
   63.2029    9.7380   82.1167 C   0  0  0  0  0  0  0  0  0  0  0  0
   63.8893   10.8138   81.4669 O   0  0  0  0  0  0  0  0  0  0  0  0
   62.3774    9.0190   81.0746 C   0  0  0  0  0  0  0  0  0  0  0  0
   61.8534    9.9358   80.1023 O   0  0  0  0  0  0  0  0  0  0  0  0
   63.4130    8.0380   80.5151 C   0  0  0  0  0  0  0  0  0  0  0  0
   64.4154   10.4640   80.7308 H   0  0  0  0  0  0  0  0  0  0  0  0
   62.5825   10.4374   79.7051 H   0  0  0  0  0  0  0  0  0  0  0  0
   62.8028    6.8815   79.8161 N   0  0  0  0  0  0  0  0  0  0  0  0
   61.6802    6.2268   80.1886 C   0  0  0  0  0  0  0  0  0  0  0  0
   61.3966    5.2404   79.3084 N   0  0  0  0  0  0  0  0  0  0  0  0
   62.3386    5.2651   78.3488 C   0  0  0  0  0  0  0  0  0  0  0  0
   62.6216    4.4768   77.1333 C   0  0  0  0  0  0  0  0  0  0  0  0
   61.7977    3.4653   76.7869 N   0  0  0  0  0  0  0  0  0  0  0  0
   63.7029    4.8132   76.4003 N   0  0  0  0  0  0  0  0  0  0  0  0
   64.5242    5.8287   76.7553 C   0  0  0  0  0  0  0  0  0  0  0  0
   64.3308    6.5776   77.8578 N   0  0  0  0  0  0  0  0  0  0  0  0
   63.2712    6.3474   78.6815 C   0  0  0  0  0  0  0  0  0  0  0  0
   61.0183    3.2509   77.3489 H   0  0  0  0  0  0  0  0  0  0  0  0
   61.9760    2.9421   75.9723 H   0  0  0  0  0  0  0  0  0  0  0  0
   63.8017    8.0857   83.9577 C   0  0  0  0  0  0  0  0  0  0  0  0
   64.3472    6.7704   84.0911 O   0  0  0  0  0  0  0  0  0  0  0  0
   63.5316    5.6172   84.8603 P   0  0  0  0  0  0  0  0  0  0  0  0
   62.9994    6.1490   86.1765 O   0  0  0  0  0  0  0  0  0  0  0  0
   62.5616    5.0802   83.8392 O   0  0  0  0  0  0  0  0  0  0  0  0
   62.0306    4.3733   84.2381 H   0  0  0  0  0  0  0  0  0  0  0  0
   64.6716    4.5008   85.1193 O   0  0  0  0  0  0  0  0  0  0  0  0
   65.1577    3.3637   84.0810 P   0  0  0  0  0  0  0  0  0  0  0  0
   66.0752    2.4758   84.8989 O   0  0  0  0  0  0  0  0  0  0  0  0
   65.8677    4.1236   82.9795 O   0  0  0  0  0  0  0  0  0  0  0  0
   63.8803    2.7119   83.6228 O   0  0  0  0  0  0  0  0  0  0  0  0
   66.1907    3.4985   82.3118 H   0  0  0  0  0  0  0  0  0  0  0  0
   64.0862    2.0078   82.9882 H   0  0  0  0  0  0  0  0  0  0  0  0
 29 30  2  0  0  0
 29 31  1  0  0  0
 29 32  1  0  0  0
 29 28  1  0  0  0
 24 25  2  0  0  0
 24 26  1  0  0  0
 24 28  1  0  0  0
 24 23  1  0  0  0
 23 22  1  0  0  0
 22  1  1  0  0  0
  1  2  1  0  0  0
  1  3  1  0  0  0
  2  7  1  0  0  0
  3  4  1  0  0  0
  3  5  1  0  0  0
  5  6  1  0  0  0
  5  7  1  0  0  0
  7 10  1  0  0  0
 10 11  1  0  0  0
 10 19  1  0  0  0
 11 12  2  0  0  0
 12 13  1  0  0  0
 13 14  1  0  0  0
 13 19  2  0  0  0
 14 15  1  0  0  0
 14 16  2  0  0  0
 16 17  1  0  0  0
 17 18  2  0  0  0
 18 19  1  0  0  0
 31 33  1  0  0  0
 32 34  1  0  0  0
 26 27  1  0  0  0
  4  8  1  0  0  0
  6  9  1  0  0  0
 15 20  1  0  0  0
 15 21  1  0  0  0
M  END
> <minimizedAffinity>
-8.20473

$$$$
5FSX_ADP_A_1262


 34 36  0  0  0  0  0  0  0  0999 V2000
   61.8352    8.5237   81.4479 C   0  0  0  0  0  0  0  0  0  0  0  0
   62.0384    7.3811   82.2753 O   0  0  0  0  0  0  0  0  0  0  0  0
   62.9816    9.4760   81.7461 C   0  0  0  0  0  0  0  0  0  0  0  0
   62.5684   10.5017   82.6560 O   0  0  0  0  0  0  0  0  0  0  0  0
   64.0106    8.6206   82.4490 C   0  0  0  0  0  0  0  0  0  0  0  0
   64.8369    9.4092   83.3182 O   0  0  0  0  0  0  0  0  0  0  0  0
   63.1044    7.6249   83.1807 C   0  0  0  0  0  0  0  0  0  0  0  0
   62.2403   10.0956   83.4736 H   0  0  0  0  0  0  0  0  0  0  0  0
   64.2771    9.8927   83.9457 H   0  0  0  0  0  0  0  0  0  0  0  0
   63.8052    6.3791   83.5748 N   0  0  0  0  0  0  0  0  0  0  0  0
   64.1613    5.3696   82.7491 C   0  0  0  0  0  0  0  0  0  0  0  0
   64.8075    4.4029   83.4390 N   0  0  0  0  0  0  0  0  0  0  0  0
   64.8819    4.7968   84.7229 C   0  0  0  0  0  0  0  0  0  0  0  0
   65.4309    4.2243   85.9678 C   0  0  0  0  0  0  0  0  0  0  0  0
   66.0446    3.0225   85.9358 N   0  0  0  0  0  0  0  0  0  0  0  0
   65.3054    4.9433   87.1022 N   0  0  0  0  0  0  0  0  0  0  0  0
   64.6881    6.1474   87.1254 C   0  0  0  0  0  0  0  0  0  0  0  0
   64.1541    6.7194   86.0293 N   0  0  0  0  0  0  0  0  0  0  0  0
   64.2189    6.1019   84.8173 C   0  0  0  0  0  0  0  0  0  0  0  0
   66.1158    2.5286   85.0871 H   0  0  0  0  0  0  0  0  0  0  0  0
   66.4210    2.6398   86.7611 H   0  0  0  0  0  0  0  0  0  0  0  0
   61.8001    8.0511   79.9992 C   0  0  0  0  0  0  0  0  0  0  0  0
   60.5755    7.3655   79.7244 O   0  0  0  0  0  0  0  0  0  0  0  0
   60.5707    5.7895   79.4034 P   0  0  0  0  0  0  0  0  0  0  0  0
   60.4123    5.5651   77.9124 O   0  0  0  0  0  0  0  0  0  0  0  0
   61.7910    5.2469   80.1021 O   0  0  0  0  0  0  0  0  0  0  0  0
   61.8525    4.2909   79.9500 H   0  0  0  0  0  0  0  0  0  0  0  0
   59.2580    5.2786   80.1962 O   0  0  0  0  0  0  0  0  0  0  0  0
   58.9003    5.5590   81.7457 P   0  0  0  0  0  0  0  0  0  0  0  0
   57.6129    4.7927   81.9786 O   0  0  0  0  0  0  0  0  0  0  0  0
   58.7403    7.0625   81.8398 O   0  0  0  0  0  0  0  0  0  0  0  0
   60.0964    5.0421   82.4999 O   0  0  0  0  0  0  0  0  0  0  0  0
   58.5222    7.3079   82.7526 H   0  0  0  0  0  0  0  0  0  0  0  0
   59.9606    5.1744   83.4512 H   0  0  0  0  0  0  0  0  0  0  0  0
 29 30  2  0  0  0
 29 31  1  0  0  0
 29 32  1  0  0  0
 29 28  1  0  0  0
 24 25  2  0  0  0
 24 26  1  0  0  0
 24 28  1  0  0  0
 24 23  1  0  0  0
 23 22  1  0  0  0
 22  1  1  0  0  0
  1  2  1  0  0  0
  1  3  1  0  0  0
  2  7  1  0  0  0
  3  4  1  0  0  0
  3  5  1  0  0  0
  5  6  1  0  0  0
  5  7  1  0  0  0
  7 10  1  0  0  0
 10 11  1  0  0  0
 10 19  1  0  0  0
 11 12  2  0  0  0
 12 13  1  0  0  0
 13 14  1  0  0  0
 13 19  2  0  0  0
 14 15  1  0  0  0
 14 16  2  0  0  0
 16 17  1  0  0  0
 17 18  2  0  0  0
 18 19  1  0  0  0
 31 33  1  0  0  0
 32 34  1  0  0  0
 26 27  1  0  0  0
  4  8  1  0  0  0
  6  9  1  0  0  0
 15 20  1  0  0  0
 15 21  1  0  0  0
M  END
> <minimizedAffinity>
-8.05261

$$$$
5FSX_ADP_A_1262


 34 36  0  0  0  0  0  0  0  0999 V2000
   62.4510    7.9061   82.0227 C   0  0  0  0  0  0  0  0  0  0  0  0
   62.5878    6.6045   82.5873 O   0  0  0  0  0  0  0  0  0  0  0  0
   63.1664    8.8583   82.9668 C   0  0  0  0  0  0  0  0  0  0  0  0
   62.2325    9.5200   83.8274 O   0  0  0  0  0  0  0  0  0  0  0  0
   64.0312    7.9625   83.8237 C   0  0  0  0  0  0  0  0  0  0  0  0
   64.2856    8.5561   85.1055 O   0  0  0  0  0  0  0  0  0  0  0  0
   63.1671    6.6983   83.8800 C   0  0  0  0  0  0  0  0  0  0  0  0
   61.7283    8.8586   84.3268 H   0  0  0  0  0  0  0  0  0  0  0  0
   63.4429    8.7676   85.5369 H   0  0  0  0  0  0  0  0  0  0  0  0
   63.9348    5.4828   84.2431 N   0  0  0  0  0  0  0  0  0  0  0  0
   64.0679    4.3692   83.4883 C   0  0  0  0  0  0  0  0  0  0  0  0
   64.8581    3.4680   84.1142 N   0  0  0  0  0  0  0  0  0  0  0  0
   65.2512    4.0095   85.2810 C   0  0  0  0  0  0  0  0  0  0  0  0
   66.0876    3.5694   86.4149 C   0  0  0  0  0  0  0  0  0  0  0  0
   66.6656    2.3500   86.3841 N   0  0  0  0  0  0  0  0  0  0  0  0
   66.2523    4.4230   87.4463 N   0  0  0  0  0  0  0  0  0  0  0  0
   65.6686    5.6438   87.4692 C   0  0  0  0  0  0  0  0  0  0  0  0
   64.8837    6.1006   86.4747 N   0  0  0  0  0  0  0  0  0  0  0  0
   64.6417    5.3407   85.3709 C   0  0  0  0  0  0  0  0  0  0  0  0
   66.5207    1.7559   85.6126 H   0  0  0  0  0  0  0  0  0  0  0  0
   67.2321    2.0547   87.1332 H   0  0  0  0  0  0  0  0  0  0  0  0
   63.0527    7.8735   80.6226 C   0  0  0  0  0  0  0  0  0  0  0  0
   63.0279    9.1772   80.0352 O   0  0  0  0  0  0  0  0  0  0  0  0
   64.3651   10.0674   79.9546 P   0  0  0  0  0  0  0  0  0  0  0  0
   64.0267   11.5305   80.1624 O   0  0  0  0  0  0  0  0  0  0  0  0
   65.3350    9.3973   80.8939 O   0  0  0  0  0  0  0  0  0  0  0  0
   66.1730    9.8859   80.8960 H   0  0  0  0  0  0  0  0  0  0  0  0
   64.8614    9.8101   78.4380 O   0  0  0  0  0  0  0  0  0  0  0  0
   66.1880   10.4155   77.7443 P   0  0  0  0  0  0  0  0  0  0  0  0
   67.1657   10.5877   78.8903 O   0  0  0  0  0  0  0  0  0  0  0  0
   65.7384   11.7227   77.1249 O   0  0  0  0  0  0  0  0  0  0  0  0
   66.5766    9.3790   76.7239 O   0  0  0  0  0  0  0  0  0  0  0  0
   66.4912   12.1479   76.6851 H   0  0  0  0  0  0  0  0  0  0  0  0
   67.3754    9.6693   76.2562 H   0  0  0  0  0  0  0  0  0  0  0  0
 29 30  2  0  0  0
 29 31  1  0  0  0
 29 32  1  0  0  0
 29 28  1  0  0  0
 24 25  2  0  0  0
 24 26  1  0  0  0
 24 28  1  0  0  0
 24 23  1  0  0  0
 23 22  1  0  0  0
 22  1  1  0  0  0
  1  2  1  0  0  0
  1  3  1  0  0  0
  2  7  1  0  0  0
  3  4  1  0  0  0
  3  5  1  0  0  0
  5  6  1  0  0  0
  5  7  1  0  0  0
  7 10  1  0  0  0
 10 11  1  0  0  0
 10 19  1  0  0  0
 11 12  2  0  0  0
 12 13  1  0  0  0
 13 14  1  0  0  0
 13 19  2  0  0  0
 14 15  1  0  0  0
 14 16  2  0  0  0
 16 17  1  0  0  0
 17 18  2  0  0  0
 18 19  1  0  0  0
 31 33  1  0  0  0
 32 34  1  0  0  0
 26 27  1  0  0  0
  4  8  1  0  0  0
  6  9  1  0  0  0
 15 20  1  0  0  0
 15 21  1  0  0  0
M  END
> <minimizedAffinity>
-7.98660

$$$$
5FSX_ADP_A_1262


 34 36  0  0  0  0  0  0  0  0999 V2000
   64.2049    8.5477   81.9472 C   0  0  0  0  0  0  0  0  0  0  0  0
   64.0562    7.6997   80.8113 O   0  0  0  0  0  0  0  0  0  0  0  0
   62.8580    9.2197   82.1575 C   0  0  0  0  0  0  0  0  0  0  0  0
   62.8585   10.5437   81.6118 O   0  0  0  0  0  0  0  0  0  0  0  0
   61.8895    8.3865   81.3498 C   0  0  0  0  0  0  0  0  0  0  0  0
   60.7586    9.1641   80.9296 O   0  0  0  0  0  0  0  0  0  0  0  0
   62.7945    7.9273   80.2016 C   0  0  0  0  0  0  0  0  0  0  0  0
   63.0767   10.5042   80.6675 H   0  0  0  0  0  0  0  0  0  0  0  0
   61.0658    9.9420   80.4381 H   0  0  0  0  0  0  0  0  0  0  0  0
   62.2824    6.7255   79.5003 N   0  0  0  0  0  0  0  0  0  0  0  0
   61.1192    6.0870   79.7587 C   0  0  0  0  0  0  0  0  0  0  0  0
   60.9553    5.0461   78.9114 N   0  0  0  0  0  0  0  0  0  0  0  0
   62.0178    5.0183   78.0873 C   0  0  0  0  0  0  0  0  0  0  0  0
   62.4608    4.1584   76.9722 C   0  0  0  0  0  0  0  0  0  0  0  0
   61.6897    3.1216   76.5819 N   0  0  0  0  0  0  0  0  0  0  0  0
   63.6312    4.4567   76.3716 N   0  0  0  0  0  0  0  0  0  0  0  0
   64.3984    5.4981   76.7698 C   0  0  0  0  0  0  0  0  0  0  0  0
   64.0595    6.3123   77.7876 N   0  0  0  0  0  0  0  0  0  0  0  0
   62.8985    6.1258   78.4743 C   0  0  0  0  0  0  0  0  0  0  0  0
   60.8415    2.9367   77.0464 H   0  0  0  0  0  0  0  0  0  0  0  0
   61.9753    2.5503   75.8328 H   0  0  0  0  0  0  0  0  0  0  0  0
   64.6410    7.6813   83.1231 C   0  0  0  0  0  0  0  0  0  0  0  0
   64.6368    6.2989   82.7567 O   0  0  0  0  0  0  0  0  0  0  0  0
   64.6312    5.1507   83.8830 P   0  0  0  0  0  0  0  0  0  0  0  0
   63.3047    4.4169   83.8680 O   0  0  0  0  0  0  0  0  0  0  0  0
   65.9026    4.3746   83.6528 O   0  0  0  0  0  0  0  0  0  0  0  0
   65.9663    3.6580   84.3035 H   0  0  0  0  0  0  0  0  0  0  0  0
   64.7922    6.0030   85.2471 O   0  0  0  0  0  0  0  0  0  0  0  0
   64.3879    5.5227   86.7347 P   0  0  0  0  0  0  0  0  0  0  0  0
   65.2287    6.3902   87.6510 O   0  0  0  0  0  0  0  0  0  0  0  0
   64.7549    4.0536   86.7801 O   0  0  0  0  0  0  0  0  0  0  0  0
   62.9040    5.7653   86.8103 O   0  0  0  0  0  0  0  0  0  0  0  0
   64.5378    3.6930   87.6540 H   0  0  0  0  0  0  0  0  0  0  0  0
   62.5770    5.4995   87.6840 H   0  0  0  0  0  0  0  0  0  0  0  0
 29 30  2  0  0  0
 29 31  1  0  0  0
 29 32  1  0  0  0
 29 28  1  0  0  0
 24 25  2  0  0  0
 24 26  1  0  0  0
 24 28  1  0  0  0
 24 23  1  0  0  0
 23 22  1  0  0  0
 22  1  1  0  0  0
  1  2  1  0  0  0
  1  3  1  0  0  0
  2  7  1  0  0  0
  3  4  1  0  0  0
  3  5  1  0  0  0
  5  6  1  0  0  0
  5  7  1  0  0  0
  7 10  1  0  0  0
 10 11  1  0  0  0
 10 19  1  0  0  0
 11 12  2  0  0  0
 12 13  1  0  0  0
 13 14  1  0  0  0
 13 19  2  0  0  0
 14 15  1  0  0  0
 14 16  2  0  0  0
 16 17  1  0  0  0
 17 18  2  0  0  0
 18 19  1  0  0  0
 31 33  1  0  0  0
 32 34  1  0  0  0
 26 27  1  0  0  0
  4  8  1  0  0  0
  6  9  1  0  0  0
 15 20  1  0  0  0
 15 21  1  0  0  0
M  END
> <minimizedAffinity>
-7.97932

$$$$
