4Y4J_LNR_A_412


 17 17  0  0  0  0  0  0  0  0999 V2000
    1.9965    4.8270    9.1038 O   0  0  0  0  0  0  0  0  0  0  0  0
    0.6836    4.9702    9.4106 C   0  0  0  0  0  0  0  0  0  0  0  0
   -0.0321    3.9876   10.0805 C   0  0  0  0  0  0  0  0  0  0  0  0
    0.0355    6.1399    8.9961 C   0  0  0  0  0  0  0  0  0  0  0  0
    0.7679    7.0970    8.3632 O   0  0  0  0  0  0  0  0  0  0  0  0
   -1.3157    6.2921    9.2502 C   0  0  0  0  0  0  0  0  0  0  0  0
   -2.0226    5.3083    9.9122 C   0  0  0  0  0  0  0  0  0  0  0  0
   -1.3878    4.1414   10.3360 C   0  0  0  0  0  0  0  0  0  0  0  0
    2.4578    4.0552    9.3675 H   0  0  0  0  0  0  0  0  0  0  0  0
    1.6817    6.9609    8.2072 H   0  0  0  0  0  0  0  0  0  0  0  0
   -2.1728    3.0527   11.0379 C   0  0  0  0  0  0  0  0  0  0  0  0
   -3.4279    3.5217   11.5249 O   0  0  0  0  0  0  0  0  0  0  0  0
   -3.9793    3.8040   10.7784 H   0  0  0  0  0  0  0  0  0  0  0  0
   -2.4738    1.8955   10.1029 C   0  0  0  0  0  0  0  0  0  0  0  0
   -1.6003    0.7320   10.3431 N   0  0  0  0  0  0  0  0  0  0  0  0
   -0.6289    0.9965   10.1789 H   0  0  0  0  0  0  0  0  0  0  0  0
   -1.8587   -0.0238    9.7088 H   0  0  0  0  0  0  0  0  0  0  0  0
  2  1  1  0  0  0
  3  2  2  0  0  0
  2  4  1  0  0  0
  8  3  1  0  0  0
  6  4  2  0  0  0
  4  5  1  0  0  0
  7  6  1  0  0  0
  8  7  2  0  0  0
 11  8  1  0  0  0
 14 11  1  0  0  0
 12 11  1  0  0  0
 15 14  1  0  0  0
  1  9  1  0  0  0
  5 10  1  0  0  0
 12 13  1  0  0  0
 15 16  1  0  0  0
 15 17  1  0  0  0
M  END
> <minimizedAffinity>
-6.60078

$$$$
4Y4J_LNR_A_412


 17 17  0  0  0  0  0  0  0  0999 V2000
   -6.3945    2.2724   11.3044 O   0  0  0  0  0  0  0  0  0  0  0  0
   -5.4424    1.3340   11.0777 C   0  0  0  0  0  0  0  0  0  0  0  0
   -4.1051    1.6623   10.9044 C   0  0  0  0  0  0  0  0  0  0  0  0
   -5.8470   -0.0028   10.9810 C   0  0  0  0  0  0  0  0  0  0  0  0
   -7.1609   -0.2982   11.1800 O   0  0  0  0  0  0  0  0  0  0  0  0
   -4.9059   -0.9768   10.7001 C   0  0  0  0  0  0  0  0  0  0  0  0
   -3.5781   -0.6424   10.5235 C   0  0  0  0  0  0  0  0  0  0  0  0
   -3.1609    0.6843   10.6235 C   0  0  0  0  0  0  0  0  0  0  0  0
   -6.1549    3.1756   11.3741 H   0  0  0  0  0  0  0  0  0  0  0  0
   -7.7717    0.3868   11.3685 H   0  0  0  0  0  0  0  0  0  0  0  0
   -1.7079    1.0502   10.4022 C   0  0  0  0  0  0  0  0  0  0  0  0
   -1.2521    0.6856    9.1016 O   0  0  0  0  0  0  0  0  0  0  0  0
   -1.7525    1.1796    8.4334 H   0  0  0  0  0  0  0  0  0  0  0  0
   -1.4859    2.5457   10.5376 C   0  0  0  0  0  0  0  0  0  0  0  0
   -0.1344    2.9577   10.1155 N   0  0  0  0  0  0  0  0  0  0  0  0
    0.5602    2.5033   10.7083 H   0  0  0  0  0  0  0  0  0  0  0  0
   -0.0451    3.9701   10.2018 H   0  0  0  0  0  0  0  0  0  0  0  0
  2  1  1  0  0  0
  3  2  2  0  0  0
  2  4  1  0  0  0
  8  3  1  0  0  0
  6  4  2  0  0  0
  4  5  1  0  0  0
  7  6  1  0  0  0
  8  7  2  0  0  0
 11  8  1  0  0  0
 14 11  1  0  0  0
 12 11  1  0  0  0
 15 14  1  0  0  0
  1  9  1  0  0  0
  5 10  1  0  0  0
 12 13  1  0  0  0
 15 16  1  0  0  0
 15 17  1  0  0  0
M  END
> <minimizedAffinity>
-6.17400

$$$$
4Y4J_LNR_A_412


 17 17  0  0  0  0  0  0  0  0999 V2000
   -0.4906    0.6638    9.4373 O   0  0  0  0  0  0  0  0  0  0  0  0
   -1.4376    1.3795   10.0926 C   0  0  0  0  0  0  0  0  0  0  0  0
   -2.7412    0.9255   10.2374 C   0  0  0  0  0  0  0  0  0  0  0  0
   -1.0791    2.6337   10.6009 C   0  0  0  0  0  0  0  0  0  0  0  0
    0.2123    3.0425   10.4662 O   0  0  0  0  0  0  0  0  0  0  0  0
   -2.0368    3.4088   11.2299 C   0  0  0  0  0  0  0  0  0  0  0  0
   -3.3329    2.9532   11.3656 C   0  0  0  0  0  0  0  0  0  0  0  0
   -3.7015    1.7034   10.8695 C   0  0  0  0  0  0  0  0  0  0  0  0
   -0.7001   -0.1791    9.0858 H   0  0  0  0  0  0  0  0  0  0  0  0
    0.8354    2.4918   10.0343 H   0  0  0  0  0  0  0  0  0  0  0  0
   -5.1310    1.2189   10.9965 C   0  0  0  0  0  0  0  0  0  0  0  0
   -5.9726    2.1817   11.6264 O   0  0  0  0  0  0  0  0  0  0  0  0
   -6.0137    2.9821   11.0799 H   0  0  0  0  0  0  0  0  0  0  0  0
   -5.7415    0.9305    9.6370 C   0  0  0  0  0  0  0  0  0  0  0  0
   -5.9277    2.1505    8.8300 N   0  0  0  0  0  0  0  0  0  0  0  0
   -6.5682    2.7819    9.3110 H   0  0  0  0  0  0  0  0  0  0  0  0
   -6.3157    1.9005    7.9204 H   0  0  0  0  0  0  0  0  0  0  0  0
  2  1  1  0  0  0
  3  2  2  0  0  0
  2  4  1  0  0  0
  8  3  1  0  0  0
  6  4  2  0  0  0
  4  5  1  0  0  0
  7  6  1  0  0  0
  8  7  2  0  0  0
 11  8  1  0  0  0
 14 11  1  0  0  0
 12 11  1  0  0  0
 15 14  1  0  0  0
  1  9  1  0  0  0
  5 10  1  0  0  0
 12 13  1  0  0  0
 15 16  1  0  0  0
 15 17  1  0  0  0
M  END
> <minimizedAffinity>
-6.15604

$$$$
4Y4J_LNR_A_412


 17 17  0  0  0  0  0  0  0  0999 V2000
   -2.0469    7.0911    8.7442 O   0  0  0  0  0  0  0  0  0  0  0  0
   -1.4741    5.9698    9.2473 C   0  0  0  0  0  0  0  0  0  0  0  0
   -2.2119    4.9857    9.8904 C   0  0  0  0  0  0  0  0  0  0  0  0
   -0.0848    5.8357    9.1381 C   0  0  0  0  0  0  0  0  0  0  0  0
    0.6100    6.8042    8.4806 O   0  0  0  0  0  0  0  0  0  0  0  0
    0.5339    4.7267    9.6866 C   0  0  0  0  0  0  0  0  0  0  0  0
   -0.2056    3.7543   10.3296 C   0  0  0  0  0  0  0  0  0  0  0  0
   -1.5905    3.8727   10.4398 C   0  0  0  0  0  0  0  0  0  0  0  0
   -2.9745    7.2098    8.8022 H   0  0  0  0  0  0  0  0  0  0  0  0
    0.1587    7.5424    8.1211 H   0  0  0  0  0  0  0  0  0  0  0  0
   -2.3949    2.8170   11.1697 C   0  0  0  0  0  0  0  0  0  0  0  0
   -3.6557    3.3117   11.6145 O   0  0  0  0  0  0  0  0  0  0  0  0
   -4.1917    3.5672   10.8474 H   0  0  0  0  0  0  0  0  0  0  0  0
   -2.6860    1.6252   10.2759 C   0  0  0  0  0  0  0  0  0  0  0  0
   -1.8545    0.4532   10.6068 N   0  0  0  0  0  0  0  0  0  0  0  0
   -0.8704    0.6861   10.4737 H   0  0  0  0  0  0  0  0  0  0  0  0
   -2.1054   -0.3248    9.9967 H   0  0  0  0  0  0  0  0  0  0  0  0
  2  1  1  0  0  0
  3  2  2  0  0  0
  2  4  1  0  0  0
  8  3  1  0  0  0
  6  4  2  0  0  0
  4  5  1  0  0  0
  7  6  1  0  0  0
  8  7  2  0  0  0
 11  8  1  0  0  0
 14 11  1  0  0  0
 12 11  1  0  0  0
 15 14  1  0  0  0
  1  9  1  0  0  0
  5 10  1  0  0  0
 12 13  1  0  0  0
 15 16  1  0  0  0
 15 17  1  0  0  0
M  END
> <minimizedAffinity>
-6.07712

$$$$
4Y4J_LNR_A_412


 17 17  0  0  0  0  0  0  0  0999 V2000
    2.1177    4.8846    9.2500 O   0  0  0  0  0  0  0  0  0  0  0  0
    0.8096    5.2379    9.2999 C   0  0  0  0  0  0  0  0  0  0  0  0
   -0.2003    4.3111    9.5175 C   0  0  0  0  0  0  0  0  0  0  0  0
    0.4833    6.5823    9.0850 C   0  0  0  0  0  0  0  0  0  0  0  0
    1.4956    7.4731    8.8989 O   0  0  0  0  0  0  0  0  0  0  0  0
   -0.8462    6.9642    9.0796 C   0  0  0  0  0  0  0  0  0  0  0  0
   -1.8460    6.0361    9.2913 C   0  0  0  0  0  0  0  0  0  0  0  0
   -1.5343    4.6952    9.5130 C   0  0  0  0  0  0  0  0  0  0  0  0
    2.3676    3.9924    9.3897 H   0  0  0  0  0  0  0  0  0  0  0  0
    2.3855    7.1798    8.9086 H   0  0  0  0  0  0  0  0  0  0  0  0
   -2.6354    3.6754    9.7178 C   0  0  0  0  0  0  0  0  0  0  0  0
   -2.3491    2.4362    9.0739 O   0  0  0  0  0  0  0  0  0  0  0  0
   -1.5523    2.0451    9.4650 H   0  0  0  0  0  0  0  0  0  0  0  0
   -2.8363    3.3646   11.1899 C   0  0  0  0  0  0  0  0  0  0  0  0
   -4.1264    2.7024   11.4574 N   0  0  0  0  0  0  0  0  0  0  0  0
   -4.8895    3.3204   11.1815 H   0  0  0  0  0  0  0  0  0  0  0  0
   -4.2013    2.4933   12.4530 H   0  0  0  0  0  0  0  0  0  0  0  0
  2  1  1  0  0  0
  3  2  2  0  0  0
  2  4  1  0  0  0
  8  3  1  0  0  0
  6  4  2  0  0  0
  4  5  1  0  0  0
  7  6  1  0  0  0
  8  7  2  0  0  0
 11  8  1  0  0  0
 14 11  1  0  0  0
 12 11  1  0  0  0
 15 14  1  0  0  0
  1  9  1  0  0  0
  5 10  1  0  0  0
 12 13  1  0  0  0
 15 16  1  0  0  0
 15 17  1  0  0  0
M  END
> <minimizedAffinity>
-6.00281

$$$$
4Y4J_LNR_A_412


 17 17  0  0  0  0  0  0  0  0999 V2000
   -7.3013    0.1355   11.1690 O   0  0  0  0  0  0  0  0  0  0  0  0
   -5.9557    0.1764   11.0075 C   0  0  0  0  0  0  0  0  0  0  0  0
   -5.2581    1.3718   10.9032 C   0  0  0  0  0  0  0  0  0  0  0  0
   -5.2685   -1.0391   10.9068 C   0  0  0  0  0  0  0  0  0  0  0  0
   -5.9748   -2.1955   11.0374 O   0  0  0  0  0  0  0  0  0  0  0  0
   -3.9022   -1.0292   10.6909 C   0  0  0  0  0  0  0  0  0  0  0  0
   -3.2154    0.1636   10.5829 C   0  0  0  0  0  0  0  0  0  0  0  0
   -3.8868    1.3811   10.6876 C   0  0  0  0  0  0  0  0  0  0  0  0
   -7.7891    0.9324   11.2395 H   0  0  0  0  0  0  0  0  0  0  0  0
   -6.8999   -2.1656   11.1830 H   0  0  0  0  0  0  0  0  0  0  0  0
   -3.1339    2.6873   10.5414 C   0  0  0  0  0  0  0  0  0  0  0  0
   -3.4204    3.5963   11.6015 O   0  0  0  0  0  0  0  0  0  0  0  0
   -3.1248    3.2151   12.4431 H   0  0  0  0  0  0  0  0  0  0  0  0
   -1.6323    2.4658   10.5521 C   0  0  0  0  0  0  0  0  0  0  0  0
   -0.9055    3.4771    9.7625 N   0  0  0  0  0  0  0  0  0  0  0  0
   -1.2025    3.4256    8.7881 H   0  0  0  0  0  0  0  0  0  0  0  0
    0.0971    3.2990    9.8223 H   0  0  0  0  0  0  0  0  0  0  0  0
  2  1  1  0  0  0
  3  2  2  0  0  0
  2  4  1  0  0  0
  8  3  1  0  0  0
  6  4  2  0  0  0
  4  5  1  0  0  0
  7  6  1  0  0  0
  8  7  2  0  0  0
 11  8  1  0  0  0
 14 11  1  0  0  0
 12 11  1  0  0  0
 15 14  1  0  0  0
  1  9  1  0  0  0
  5 10  1  0  0  0
 12 13  1  0  0  0
 15 16  1  0  0  0
 15 17  1  0  0  0
M  END
> <minimizedAffinity>
-5.80862

$$$$
4Y4J_LNR_A_412


 17 17  0  0  0  0  0  0  0  0999 V2000
   -5.9957   -1.9929   10.9472 O   0  0  0  0  0  0  0  0  0  0  0  0
   -5.2182   -1.2340   10.1360 C   0  0  0  0  0  0  0  0  0  0  0  0
   -4.1803   -0.4522   10.6240 C   0  0  0  0  0  0  0  0  0  0  0  0
   -5.5114   -1.2223    8.7672 C   0  0  0  0  0  0  0  0  0  0  0  0
   -6.5186   -2.0178    8.3134 O   0  0  0  0  0  0  0  0  0  0  0  0
   -4.7678   -0.4187    7.9218 C   0  0  0  0  0  0  0  0  0  0  0  0
   -3.7404    0.3606    8.4148 C   0  0  0  0  0  0  0  0  0  0  0  0
   -3.4339    0.3533    9.7750 C   0  0  0  0  0  0  0  0  0  0  0  0
   -5.8244   -2.0212   11.8680 H   0  0  0  0  0  0  0  0  0  0  0  0
   -7.0023   -2.5499    8.9143 H   0  0  0  0  0  0  0  0  0  0  0  0
   -2.3235    1.2303   10.3157 C   0  0  0  0  0  0  0  0  0  0  0  0
   -1.0931    1.0301    9.6242 O   0  0  0  0  0  0  0  0  0  0  0  0
   -1.1999    1.2842    8.6942 H   0  0  0  0  0  0  0  0  0  0  0  0
   -2.6643    2.7032   10.1798 C   0  0  0  0  0  0  0  0  0  0  0  0
   -3.4814    3.2009   11.3018 N   0  0  0  0  0  0  0  0  0  0  0  0
   -4.3674    2.6962   11.3274 H   0  0  0  0  0  0  0  0  0  0  0  0
   -3.6610    4.1971   11.1760 H   0  0  0  0  0  0  0  0  0  0  0  0
  2  1  1  0  0  0
  3  2  2  0  0  0
  2  4  1  0  0  0
  8  3  1  0  0  0
  6  4  2  0  0  0
  4  5  1  0  0  0
  7  6  1  0  0  0
  8  7  2  0  0  0
 11  8  1  0  0  0
 14 11  1  0  0  0
 12 11  1  0  0  0
 15 14  1  0  0  0
  1  9  1  0  0  0
  5 10  1  0  0  0
 12 13  1  0  0  0
 15 16  1  0  0  0
 15 17  1  0  0  0
M  END
> <minimizedAffinity>
-5.47988

$$$$
4Y4J_LNR_A_412


 17 17  0  0  0  0  0  0  0  0999 V2000
   -7.2189   -1.4563    9.5307 O   0  0  0  0  0  0  0  0  0  0  0  0
   -5.9307   -1.1209    9.7889 C   0  0  0  0  0  0  0  0  0  0  0  0
   -5.1863   -0.3241    8.9302 C   0  0  0  0  0  0  0  0  0  0  0  0
   -5.3368   -1.6364   10.9471 C   0  0  0  0  0  0  0  0  0  0  0  0
   -6.0979   -2.3944   11.7833 O   0  0  0  0  0  0  0  0  0  0  0  0
   -4.0088   -1.3532   11.2111 C   0  0  0  0  0  0  0  0  0  0  0  0
   -3.2728   -0.5643   10.3498 C   0  0  0  0  0  0  0  0  0  0  0  0
   -3.8540   -0.0394    9.1962 C   0  0  0  0  0  0  0  0  0  0  0  0
   -7.6440   -1.1270    8.7634 H   0  0  0  0  0  0  0  0  0  0  0  0
   -6.9947   -2.5667   11.5735 H   0  0  0  0  0  0  0  0  0  0  0  0
   -3.0354    0.8032    8.2400 C   0  0  0  0  0  0  0  0  0  0  0  0
   -1.7011    0.3205    8.1030 O   0  0  0  0  0  0  0  0  0  0  0  0
   -1.7174   -0.5707    7.7204 H   0  0  0  0  0  0  0  0  0  0  0  0
   -3.6411    0.8089    6.8482 C   0  0  0  0  0  0  0  0  0  0  0  0
   -2.6247    0.6764    5.7882 N   0  0  0  0  0  0  0  0  0  0  0  0
   -1.9828    1.4678    5.8318 H   0  0  0  0  0  0  0  0  0  0  0  0
   -3.0835    0.6605    4.8773 H   0  0  0  0  0  0  0  0  0  0  0  0
  2  1  1  0  0  0
  3  2  2  0  0  0
  2  4  1  0  0  0
  8  3  1  0  0  0
  6  4  2  0  0  0
  4  5  1  0  0  0
  7  6  1  0  0  0
  8  7  2  0  0  0
 11  8  1  0  0  0
 14 11  1  0  0  0
 12 11  1  0  0  0
 15 14  1  0  0  0
  1  9  1  0  0  0
  5 10  1  0  0  0
 12 13  1  0  0  0
 15 16  1  0  0  0
 15 17  1  0  0  0
M  END
> <minimizedAffinity>
-5.47620

$$$$
4Y4J_LNR_A_412


 17 17  0  0  0  0  0  0  0  0999 V2000
   -5.8693    2.2076   11.5787 O   0  0  0  0  0  0  0  0  0  0  0  0
   -5.6850    1.2490   10.6377 C   0  0  0  0  0  0  0  0  0  0  0  0
   -4.9306    1.4692    9.4937 C   0  0  0  0  0  0  0  0  0  0  0  0
   -6.3161    0.0135   10.8256 C   0  0  0  0  0  0  0  0  0  0  0  0
   -7.0291   -0.1827   11.9686 O   0  0  0  0  0  0  0  0  0  0  0  0
   -6.1880   -0.9668    9.8582 C   0  0  0  0  0  0  0  0  0  0  0  0
   -5.4405   -0.7391    8.7201 C   0  0  0  0  0  0  0  0  0  0  0  0
   -4.8016    0.4847    8.5237 C   0  0  0  0  0  0  0  0  0  0  0  0
   -5.4600    3.0448   11.4810 H   0  0  0  0  0  0  0  0  0  0  0  0
   -7.0952    0.5035   12.6031 H   0  0  0  0  0  0  0  0  0  0  0  0
   -4.0048    0.7400    7.2610 C   0  0  0  0  0  0  0  0  0  0  0  0
   -4.6252    0.1749    6.1086 O   0  0  0  0  0  0  0  0  0  0  0  0
   -5.4869    0.5967    5.9657 H   0  0  0  0  0  0  0  0  0  0  0  0
   -3.8559    2.2261    6.9904 C   0  0  0  0  0  0  0  0  0  0  0  0
   -3.1229    2.5032    5.7412 N   0  0  0  0  0  0  0  0  0  0  0  0
   -2.1795    2.1215    5.8088 H   0  0  0  0  0  0  0  0  0  0  0  0
   -3.0722    3.5111    5.5932 H   0  0  0  0  0  0  0  0  0  0  0  0
  2  1  1  0  0  0
  3  2  2  0  0  0
  2  4  1  0  0  0
  8  3  1  0  0  0
  6  4  2  0  0  0
  4  5  1  0  0  0
  7  6  1  0  0  0
  8  7  2  0  0  0
 11  8  1  0  0  0
 14 11  1  0  0  0
 12 11  1  0  0  0
 15 14  1  0  0  0
  1  9  1  0  0  0
  5 10  1  0  0  0
 12 13  1  0  0  0
 15 16  1  0  0  0
 15 17  1  0  0  0
M  END
> <minimizedAffinity>
-5.40525

$$$$
4Y4J_LNR_A_412


 17 17  0  0  0  0  0  0  0  0999 V2000
   -1.2988    7.2732    9.3036 O   0  0  0  0  0  0  0  0  0  0  0  0
   -1.9349    6.1159    8.9963 C   0  0  0  0  0  0  0  0  0  0  0  0
   -2.0708    5.0801    9.9101 C   0  0  0  0  0  0  0  0  0  0  0  0
   -2.4318    5.9641    7.6963 C   0  0  0  0  0  0  0  0  0  0  0  0
   -2.3062    7.0056    6.8289 O   0  0  0  0  0  0  0  0  0  0  0  0
   -3.0407    4.7747    7.3383 C   0  0  0  0  0  0  0  0  0  0  0  0
   -3.1678    3.7466    8.2509 C   0  0  0  0  0  0  0  0  0  0  0  0
   -2.6829    3.8872    9.5506 C   0  0  0  0  0  0  0  0  0  0  0  0
   -0.9552    7.4045   10.1654 H   0  0  0  0  0  0  0  0  0  0  0  0
   -1.8879    7.7973    7.1048 H   0  0  0  0  0  0  0  0  0  0  0  0
   -2.8001    2.7468   10.5406 C   0  0  0  0  0  0  0  0  0  0  0  0
   -4.0091    2.8084   11.2933 O   0  0  0  0  0  0  0  0  0  0  0  0
   -4.7674    2.7167   10.6953 H   0  0  0  0  0  0  0  0  0  0  0  0
   -2.7924    1.4007    9.8391 C   0  0  0  0  0  0  0  0  0  0  0  0
   -1.4280    0.9100    9.5712 N   0  0  0  0  0  0  0  0  0  0  0  0
   -0.9462    1.5644    8.9549 H   0  0  0  0  0  0  0  0  0  0  0  0
   -1.4776   -0.0051    9.1234 H   0  0  0  0  0  0  0  0  0  0  0  0
  2  1  1  0  0  0
  3  2  2  0  0  0
  2  4  1  0  0  0
  8  3  1  0  0  0
  6  4  2  0  0  0
  4  5  1  0  0  0
  7  6  1  0  0  0
  8  7  2  0  0  0
 11  8  1  0  0  0
 14 11  1  0  0  0
 12 11  1  0  0  0
 15 14  1  0  0  0
  1  9  1  0  0  0
  5 10  1  0  0  0
 12 13  1  0  0  0
 15 16  1  0  0  0
 15 17  1  0  0  0
M  END
> <minimizedAffinity>
-5.39204

$$$$
