2HA2_SCK_A_901


 20 19  0  0  0  0  0  0  0  0999 V2000
   30.7832   18.2687   11.9877 C   0  0  0  0  0  0  0  0  0  0  0  0
   30.3376   16.0201   11.3831 O   0  0  0  0  0  0  0  0  0  0  0  0
   29.8865   17.0750   11.7923 C   0  0  0  0  0  0  0  0  0  0  0  0
   28.4732   17.1681   12.0957 O   0  0  0  0  0  0  0  0  0  0  0  0
   28.0591   17.7822   13.3078 C   0  0  0  0  0  0  0  0  0  0  0  0
   27.1702   18.9697   12.9810 C   0  0  0  0  0  0  0  0  0  0  0  0
   26.7342   19.5731   14.2422 N   0  0  0  0  0  0  0  0  0  0  0  0
   25.4719   18.9660   14.6722 C   0  0  0  0  0  0  0  0  0  0  0  0
   27.7595   19.3579   15.2651 C   0  0  0  0  0  0  0  0  0  0  0  0
   26.5362   21.0092   14.0354 C   0  0  0  0  0  0  0  0  0  0  0  0
   30.3869   19.3393   10.9873 C   0  0  0  0  0  0  0  0  0  0  0  0
   29.9369   20.5594   11.7400 C   0  0  0  0  0  0  0  0  0  0  0  0
   29.2018   21.3712   11.2128 O   0  0  0  0  0  0  0  0  0  0  0  0
   30.3777   20.7800   13.1016 O   0  0  0  0  0  0  0  0  0  0  0  0
   30.0657   22.0071   13.7498 C   0  0  0  0  0  0  0  0  0  0  0  0
   30.5049   21.9416   15.2054 C   0  0  0  0  0  0  0  0  0  0  0  0
   31.2063   23.1762   15.5529 N   0  0  0  0  0  0  0  0  0  0  0  0
   31.7607   23.0457   16.9028 C   0  0  0  0  0  0  0  0  0  0  0  0
   32.2874   23.4177   14.5962 C   0  0  0  0  0  0  0  0  0  0  0  0
   30.2680   24.2980   15.5083 C   0  0  0  0  0  0  0  0  0  0  0  0
  2  3  2  0  0  0
  3  4  1  0  0  0
  3  1  1  0  0  0
  4  5  1  0  0  0
  5  6  1  0  0  0
  6  7  1  0  0  0
  7  8  1  0  0  0
  7  9  1  0  0  0
  7 10  1  0  0  0
  1 11  1  0  0  0
 11 12  1  0  0  0
 12 13  2  0  0  0
 12 14  1  0  0  0
 14 15  1  0  0  0
 15 16  1  0  0  0
 16 17  1  0  0  0
 17 18  1  0  0  0
 17 19  1  0  0  0
 17 20  1  0  0  0
M  CHG 1   7   1
M  CHG 1  17   1
M  END
> <minimizedAffinity>
-6.27406

$$$$
2HA2_SCK_A_901


 20 19  0  0  0  0  0  0  0  0999 V2000
   30.1808   20.6967   10.7617 C   0  0  0  0  0  0  0  0  0  0  0  0
   27.9044   20.6784   11.4236 O   0  0  0  0  0  0  0  0  0  0  0  0
   28.9745   20.0963   11.4335 C   0  0  0  0  0  0  0  0  0  0  0  0
   29.0735   18.8122   12.0963 O   0  0  0  0  0  0  0  0  0  0  0  0
   28.9392   18.7442   13.5088 C   0  0  0  0  0  0  0  0  0  0  0  0
   27.7608   17.8487   13.8501 C   0  0  0  0  0  0  0  0  0  0  0  0
   26.9872   18.4982   14.9105 N   0  0  0  0  0  0  0  0  0  0  0  0
   27.3682   19.9096   15.0088 C   0  0  0  0  0  0  0  0  0  0  0  0
   25.5589   18.3922   14.6060 C   0  0  0  0  0  0  0  0  0  0  0  0
   27.2726   17.8290   16.1814 C   0  0  0  0  0  0  0  0  0  0  0  0
   29.8212   22.0899   10.2783 C   0  0  0  0  0  0  0  0  0  0  0  0
   30.5197   23.0970   11.1476 C   0  0  0  0  0  0  0  0  0  0  0  0
   31.7079   23.3112   11.0080 O   0  0  0  0  0  0  0  0  0  0  0  0
   29.7822   23.8205   12.1622 O   0  0  0  0  0  0  0  0  0  0  0  0
   29.5242   23.2018   13.4168 C   0  0  0  0  0  0  0  0  0  0  0  0
   30.1932   23.9997   14.5267 C   0  0  0  0  0  0  0  0  0  0  0  0
   31.1992   23.1650   15.1809 N   0  0  0  0  0  0  0  0  0  0  0  0
   30.8510   21.7557   14.9831 C   0  0  0  0  0  0  0  0  0  0  0  0
   32.5172   23.4337   14.6037 C   0  0  0  0  0  0  0  0  0  0  0  0
   31.2312   23.4721   16.6111 C   0  0  0  0  0  0  0  0  0  0  0  0
  2  3  2  0  0  0
  3  4  1  0  0  0
  3  1  1  0  0  0
  4  5  1  0  0  0
  5  6  1  0  0  0
  6  7  1  0  0  0
  7  8  1  0  0  0
  7  9  1  0  0  0
  7 10  1  0  0  0
  1 11  1  0  0  0
 11 12  1  0  0  0
 12 13  2  0  0  0
 12 14  1  0  0  0
 14 15  1  0  0  0
 15 16  1  0  0  0
 16 17  1  0  0  0
 17 18  1  0  0  0
 17 19  1  0  0  0
 17 20  1  0  0  0
M  CHG 1   7   1
M  CHG 1  17   1
M  END
> <minimizedAffinity>
-6.14557

$$$$
2HA2_SCK_A_901


 20 19  0  0  0  0  0  0  0  0999 V2000
   29.1103   20.3089   11.3840 C   0  0  0  0  0  0  0  0  0  0  0  0
   26.7453   20.1610   11.3104 O   0  0  0  0  0  0  0  0  0  0  0  0
   27.7256   20.5286   11.9331 C   0  0  0  0  0  0  0  0  0  0  0  0
   27.5450   21.1773   13.2155 O   0  0  0  0  0  0  0  0  0  0  0  0
   26.6929   20.5826   14.1840 C   0  0  0  0  0  0  0  0  0  0  0  0
   27.5212   19.6820   15.0839 C   0  0  0  0  0  0  0  0  0  0  0  0
   26.9078   18.3521   15.0865 N   0  0  0  0  0  0  0  0  0  0  0  0
   25.4736   18.4670   14.8091 C   0  0  0  0  0  0  0  0  0  0  0  0
   27.5438   17.5204   14.0630 C   0  0  0  0  0  0  0  0  0  0  0  0
   27.0997   17.7457   16.4056 C   0  0  0  0  0  0  0  0  0  0  0  0
   29.5104   21.5319   10.5789 C   0  0  0  0  0  0  0  0  0  0  0  0
   30.8024   21.2403    9.8693 C   0  0  0  0  0  0  0  0  0  0  0  0
   31.4502   20.2516   10.1523 O   0  0  0  0  0  0  0  0  0  0  0  0
   31.2885   22.1376    8.8420 O   0  0  0  0  0  0  0  0  0  0  0  0
   32.0679   21.6202    7.7704 C   0  0  0  0  0  0  0  0  0  0  0  0
   33.3514   22.4271    7.6367 C   0  0  0  0  0  0  0  0  0  0  0  0
   34.4989   21.5280    7.7445 N   0  0  0  0  0  0  0  0  0  0  0  0
   34.6559   21.1210    9.1431 C   0  0  0  0  0  0  0  0  0  0  0  0
   34.2830   20.3467    6.9076 C   0  0  0  0  0  0  0  0  0  0  0  0
   35.7049   22.2217    7.2913 C   0  0  0  0  0  0  0  0  0  0  0  0
  2  3  2  0  0  0
  3  4  1  0  0  0
  3  1  1  0  0  0
  4  5  1  0  0  0
  5  6  1  0  0  0
  6  7  1  0  0  0
  7  8  1  0  0  0
  7  9  1  0  0  0
  7 10  1  0  0  0
  1 11  1  0  0  0
 11 12  1  0  0  0
 12 13  2  0  0  0
 12 14  1  0  0  0
 14 15  1  0  0  0
 15 16  1  0  0  0
 16 17  1  0  0  0
 17 18  1  0  0  0
 17 19  1  0  0  0
 17 20  1  0  0  0
M  CHG 1   7   1
M  CHG 1  17   1
M  END
> <minimizedAffinity>
-6.14313

$$$$
2HA2_SCK_A_901


 20 19  0  0  0  0  0  0  0  0999 V2000
   30.2707   22.3090   10.2286 C   0  0  0  0  0  0  0  0  0  0  0  0
   31.8453   20.6128    9.7147 O   0  0  0  0  0  0  0  0  0  0  0  0
   31.2918   21.6351    9.3509 C   0  0  0  0  0  0  0  0  0  0  0  0
   31.6232   22.1953    8.0569 O   0  0  0  0  0  0  0  0  0  0  0  0
   32.7866   21.7434    7.3786 C   0  0  0  0  0  0  0  0  0  0  0  0
   33.9069   22.7452    7.5989 C   0  0  0  0  0  0  0  0  0  0  0  0
   35.0671   22.0228    8.1250 N   0  0  0  0  0  0  0  0  0  0  0  0
   35.0812   22.1054    9.5878 C   0  0  0  0  0  0  0  0  0  0  0  0
   34.9968   20.6204    7.7101 C   0  0  0  0  0  0  0  0  0  0  0  0
   36.2863   22.6351    7.5928 C   0  0  0  0  0  0  0  0  0  0  0  0
   29.3828   21.2424   10.8433 C   0  0  0  0  0  0  0  0  0  0  0  0
   29.4990   21.3219   12.3393 C   0  0  0  0  0  0  0  0  0  0  0  0
   30.3750   20.7128   12.9216 O   0  0  0  0  0  0  0  0  0  0  0  0
   28.5653   22.1244   13.1014 O   0  0  0  0  0  0  0  0  0  0  0  0
   27.9507   21.5743   14.2603 C   0  0  0  0  0  0  0  0  0  0  0  0
   26.7823   20.6907   13.8478 C   0  0  0  0  0  0  0  0  0  0  0  0
   26.9592   19.3586   14.4231 N   0  0  0  0  0  0  0  0  0  0  0  0
   27.8648   19.4515   15.5710 C   0  0  0  0  0  0  0  0  0  0  0  0
   25.6648   18.8305   14.8568 C   0  0  0  0  0  0  0  0  0  0  0  0
   27.5274   18.4642   13.4141 C   0  0  0  0  0  0  0  0  0  0  0  0
  2  3  2  0  0  0
  3  4  1  0  0  0
  3  1  1  0  0  0
  4  5  1  0  0  0
  5  6  1  0  0  0
  6  7  1  0  0  0
  7  8  1  0  0  0
  7  9  1  0  0  0
  7 10  1  0  0  0
  1 11  1  0  0  0
 11 12  1  0  0  0
 12 13  2  0  0  0
 12 14  1  0  0  0
 14 15  1  0  0  0
 15 16  1  0  0  0
 16 17  1  0  0  0
 17 18  1  0  0  0
 17 19  1  0  0  0
 17 20  1  0  0  0
M  CHG 1   7   1
M  CHG 1  17   1
M  END
> <minimizedAffinity>
-6.14235

$$$$
2HA2_SCK_A_901


 20 19  0  0  0  0  0  0  0  0999 V2000
   30.1546   22.6776   10.6139 C   0  0  0  0  0  0  0  0  0  0  0  0
   29.4704   24.0761   12.4018 O   0  0  0  0  0  0  0  0  0  0  0  0
   30.0415   23.0533   12.0676 C   0  0  0  0  0  0  0  0  0  0  0  0
   30.6082   22.1955   13.0879 O   0  0  0  0  0  0  0  0  0  0  0  0
   29.7430   21.4382   13.9219 C   0  0  0  0  0  0  0  0  0  0  0  0
   29.3404   20.1684   13.1921 C   0  0  0  0  0  0  0  0  0  0  0  0
   27.8777   20.1167   13.1407 N   0  0  0  0  0  0  0  0  0  0  0  0
   27.3142   21.1695   13.9899 C   0  0  0  0  0  0  0  0  0  0  0  0
   27.4320   20.3053   11.7588 C   0  0  0  0  0  0  0  0  0  0  0  0
   27.4335   18.8096   13.6293 C   0  0  0  0  0  0  0  0  0  0  0  0
   31.5370   23.0651   10.1211 C   0  0  0  0  0  0  0  0  0  0  0  0
   31.9813   22.0622    9.0943 C   0  0  0  0  0  0  0  0  0  0  0  0
   31.4865   22.0579    7.9840 O   0  0  0  0  0  0  0  0  0  0  0  0
   33.0030   21.0891    9.4199 O   0  0  0  0  0  0  0  0  0  0  0  0
   34.3667   21.3849    9.1441 C   0  0  0  0  0  0  0  0  0  0  0  0
   34.7555   20.7918    7.7976 C   0  0  0  0  0  0  0  0  0  0  0  0
   35.4649   21.8010    7.0135 N   0  0  0  0  0  0  0  0  0  0  0  0
   36.3256   21.1281    6.0373 C   0  0  0  0  0  0  0  0  0  0  0  0
   34.5013   22.6545    6.3166 C   0  0  0  0  0  0  0  0  0  0  0  0
   36.2786   22.6272    7.9058 C   0  0  0  0  0  0  0  0  0  0  0  0
  2  3  2  0  0  0
  3  4  1  0  0  0
  3  1  1  0  0  0
  4  5  1  0  0  0
  5  6  1  0  0  0
  6  7  1  0  0  0
  7  8  1  0  0  0
  7  9  1  0  0  0
  7 10  1  0  0  0
  1 11  1  0  0  0
 11 12  1  0  0  0
 12 13  2  0  0  0
 12 14  1  0  0  0
 14 15  1  0  0  0
 15 16  1  0  0  0
 16 17  1  0  0  0
 17 18  1  0  0  0
 17 19  1  0  0  0
 17 20  1  0  0  0
M  CHG 1   7   1
M  CHG 1  17   1
M  END
> <minimizedAffinity>
-6.08001

$$$$
2HA2_SCK_A_901


 20 19  0  0  0  0  0  0  0  0999 V2000
   29.9337   22.5487   10.8275 C   0  0  0  0  0  0  0  0  0  0  0  0
   32.0998   23.4340   10.4466 O   0  0  0  0  0  0  0  0  0  0  0  0
   31.1858   22.7532   10.0165 C   0  0  0  0  0  0  0  0  0  0  0  0
   31.3186   22.1348    8.7134 O   0  0  0  0  0  0  0  0  0  0  0  0
   32.1263   20.9751    8.5708 C   0  0  0  0  0  0  0  0  0  0  0  0
   32.9780   21.1172    7.3212 C   0  0  0  0  0  0  0  0  0  0  0  0
   34.3281   21.5086    7.7322 N   0  0  0  0  0  0  0  0  0  0  0  0
   34.4812   22.9610    7.6128 C   0  0  0  0  0  0  0  0  0  0  0  0
   34.5521   21.1008    9.1204 C   0  0  0  0  0  0  0  0  0  0  0  0
   35.2988   20.8451    6.8593 C   0  0  0  0  0  0  0  0  0  0  0  0
   30.0267   23.3982   12.0820 C   0  0  0  0  0  0  0  0  0  0  0  0
   29.6821   22.5441   13.2691 C   0  0  0  0  0  0  0  0  0  0  0  0
   28.5709   22.5913   13.7592 O   0  0  0  0  0  0  0  0  0  0  0  0
   30.6735   21.6575   13.8418 O   0  0  0  0  0  0  0  0  0  0  0  0
   30.3018   20.3351   14.2112 C   0  0  0  0  0  0  0  0  0  0  0  0
   30.1463   19.4806   12.9614 C   0  0  0  0  0  0  0  0  0  0  0  0
   28.8282   18.8489   12.9707 N   0  0  0  0  0  0  0  0  0  0  0  0
   28.9812   17.4221   12.6752 C   0  0  0  0  0  0  0  0  0  0  0  0
   28.2076   19.0171   14.2856 C   0  0  0  0  0  0  0  0  0  0  0  0
   27.9802   19.4772   11.9572 C   0  0  0  0  0  0  0  0  0  0  0  0
  2  3  2  0  0  0
  3  4  1  0  0  0
  3  1  1  0  0  0
  4  5  1  0  0  0
  5  6  1  0  0  0
  6  7  1  0  0  0
  7  8  1  0  0  0
  7  9  1  0  0  0
  7 10  1  0  0  0
  1 11  1  0  0  0
 11 12  1  0  0  0
 12 13  2  0  0  0
 12 14  1  0  0  0
 14 15  1  0  0  0
 15 16  1  0  0  0
 16 17  1  0  0  0
 17 18  1  0  0  0
 17 19  1  0  0  0
 17 20  1  0  0  0
M  CHG 1   7   1
M  CHG 1  17   1
M  END
> <minimizedAffinity>
-6.05101

$$$$
2HA2_SCK_A_901


 20 19  0  0  0  0  0  0  0  0999 V2000
   28.7384   20.8547   11.5605 C   0  0  0  0  0  0  0  0  0  0  0  0
   30.1456   21.5844   13.3233 O   0  0  0  0  0  0  0  0  0  0  0  0
   29.0045   21.4371   12.9232 C   0  0  0  0  0  0  0  0  0  0  0  0
   27.9014   21.8351   13.7734 O   0  0  0  0  0  0  0  0  0  0  0  0
   26.9740   20.8550   14.2171 C   0  0  0  0  0  0  0  0  0  0  0  0
   27.7094   19.8223   15.0537 C   0  0  0  0  0  0  0  0  0  0  0  0
   26.9722   18.5596   14.9702 N   0  0  0  0  0  0  0  0  0  0  0  0
   27.5503   17.7164   13.9204 C   0  0  0  0  0  0  0  0  0  0  0  0
   27.0466   17.8661   16.2576 C   0  0  0  0  0  0  0  0  0  0  0  0
   25.5741   18.8492   14.6448 C   0  0  0  0  0  0  0  0  0  0  0  0
   30.0691   20.5917   10.8793 C   0  0  0  0  0  0  0  0  0  0  0  0
   30.4015   21.7651   10.0016 C   0  0  0  0  0  0  0  0  0  0  0  0
   29.6120   22.1472    9.1601 O   0  0  0  0  0  0  0  0  0  0  0  0
   31.6684   22.4505   10.1496 O   0  0  0  0  0  0  0  0  0  0  0  0
   32.4926   22.6552    9.0084 C   0  0  0  0  0  0  0  0  0  0  0  0
   33.0466   21.3199    8.5328 C   0  0  0  0  0  0  0  0  0  0  0  0
   33.3968   21.4204    7.1172 N   0  0  0  0  0  0  0  0  0  0  0  0
   34.2278   20.2714    6.7489 C   0  0  0  0  0  0  0  0  0  0  0  0
   32.1790   21.4297    6.3052 C   0  0  0  0  0  0  0  0  0  0  0  0
   34.1360   22.6617    6.8857 C   0  0  0  0  0  0  0  0  0  0  0  0
  2  3  2  0  0  0
  3  4  1  0  0  0
  3  1  1  0  0  0
  4  5  1  0  0  0
  5  6  1  0  0  0
  6  7  1  0  0  0
  7  8  1  0  0  0
  7  9  1  0  0  0
  7 10  1  0  0  0
  1 11  1  0  0  0
 11 12  1  0  0  0
 12 13  2  0  0  0
 12 14  1  0  0  0
 14 15  1  0  0  0
 15 16  1  0  0  0
 16 17  1  0  0  0
 17 18  1  0  0  0
 17 19  1  0  0  0
 17 20  1  0  0  0
M  CHG 1   7   1
M  CHG 1  17   1
M  END
> <minimizedAffinity>
-6.02395

$$$$
2HA2_SCK_A_901


 20 19  0  0  0  0  0  0  0  0999 V2000
   30.8773   19.2739   10.7750 C   0  0  0  0  0  0  0  0  0  0  0  0
   30.0266   21.0067   12.1513 O   0  0  0  0  0  0  0  0  0  0  0  0
   30.3344   20.6557   11.0262 C   0  0  0  0  0  0  0  0  0  0  0  0
   30.1773   21.5873    9.9282 O   0  0  0  0  0  0  0  0  0  0  0  0
   31.2192   22.5091    9.6413 C   0  0  0  0  0  0  0  0  0  0  0  0
   31.9852   22.0246    8.4224 C   0  0  0  0  0  0  0  0  0  0  0  0
   33.4013   22.3429    8.6181 N   0  0  0  0  0  0  0  0  0  0  0  0
   33.5392   23.3805    9.6434 C   0  0  0  0  0  0  0  0  0  0  0  0
   34.1182   21.1368    9.0365 C   0  0  0  0  0  0  0  0  0  0  0  0
   33.9545   22.8334    7.3541 C   0  0  0  0  0  0  0  0  0  0  0  0
   30.7603   18.4687   12.0564 C   0  0  0  0  0  0  0  0  0  0  0  0
   29.8027   17.3338   11.8266 C   0  0  0  0  0  0  0  0  0  0  0  0
   30.2184   16.2170   11.5871 O   0  0  0  0  0  0  0  0  0  0  0  0
   28.3740   17.5617   11.8866 O   0  0  0  0  0  0  0  0  0  0  0  0
   27.8372   18.3812   12.9179 C   0  0  0  0  0  0  0  0  0  0  0  0
   27.7561   17.5850   14.2124 C   0  0  0  0  0  0  0  0  0  0  0  0
   27.1843   18.4276   15.2611 N   0  0  0  0  0  0  0  0  0  0  0  0
   28.0761   19.5658   15.4973 C   0  0  0  0  0  0  0  0  0  0  0  0
   25.8667   18.9106   14.8451 C   0  0  0  0  0  0  0  0  0  0  0  0
   27.0417   17.6459   16.4898 C   0  0  0  0  0  0  0  0  0  0  0  0
  2  3  2  0  0  0
  3  4  1  0  0  0
  3  1  1  0  0  0
  4  5  1  0  0  0
  5  6  1  0  0  0
  6  7  1  0  0  0
  7  8  1  0  0  0
  7  9  1  0  0  0
  7 10  1  0  0  0
  1 11  1  0  0  0
 11 12  1  0  0  0
 12 13  2  0  0  0
 12 14  1  0  0  0
 14 15  1  0  0  0
 15 16  1  0  0  0
 16 17  1  0  0  0
 17 18  1  0  0  0
 17 19  1  0  0  0
 17 20  1  0  0  0
M  CHG 1   7   1
M  CHG 1  17   1
M  END
> <minimizedAffinity>
-6.01344

$$$$
2HA2_SCK_A_901


 20 19  0  0  0  0  0  0  0  0999 V2000
   30.3662   22.0193    9.7070 C   0  0  0  0  0  0  0  0  0  0  0  0
   32.0827   20.4147   10.0224 O   0  0  0  0  0  0  0  0  0  0  0  0
   31.5003   21.1454    9.2409 C   0  0  0  0  0  0  0  0  0  0  0  0
   31.9081   21.1608    7.8511 O   0  0  0  0  0  0  0  0  0  0  0  0
   32.8657   22.1154    7.4158 C   0  0  0  0  0  0  0  0  0  0  0  0
   34.2595   21.5645    7.6629 C   0  0  0  0  0  0  0  0  0  0  0  0
   35.0527   22.6082    8.3159 N   0  0  0  0  0  0  0  0  0  0  0  0
   34.3945   23.9070    8.1516 C   0  0  0  0  0  0  0  0  0  0  0  0
   35.1861   22.2989    9.7408 C   0  0  0  0  0  0  0  0  0  0  0  0
   36.3776   22.6536    7.6937 C   0  0  0  0  0  0  0  0  0  0  0  0
   30.9361   23.1319   10.5680 C   0  0  0  0  0  0  0  0  0  0  0  0
   30.2070   23.1463   11.8817 C   0  0  0  0  0  0  0  0  0  0  0  0
   29.5239   24.1014   12.1958 O   0  0  0  0  0  0  0  0  0  0  0  0
   30.3139   22.0215   12.7873 O   0  0  0  0  0  0  0  0  0  0  0  0
   29.8937   22.1665   14.1385 C   0  0  0  0  0  0  0  0  0  0  0  0
   31.0566   21.8580   15.0706 C   0  0  0  0  0  0  0  0  0  0  0  0
   31.5656   23.1065   15.6352 N   0  0  0  0  0  0  0  0  0  0  0  0
   31.9568   22.8752   17.0281 C   0  0  0  0  0  0  0  0  0  0  0  0
   32.7247   23.5617   14.8659 C   0  0  0  0  0  0  0  0  0  0  0  0
   30.5206   24.1289   15.5767 C   0  0  0  0  0  0  0  0  0  0  0  0
  2  3  2  0  0  0
  3  4  1  0  0  0
  3  1  1  0  0  0
  4  5  1  0  0  0
  5  6  1  0  0  0
  6  7  1  0  0  0
  7  8  1  0  0  0
  7  9  1  0  0  0
  7 10  1  0  0  0
  1 11  1  0  0  0
 11 12  1  0  0  0
 12 13  2  0  0  0
 12 14  1  0  0  0
 14 15  1  0  0  0
 15 16  1  0  0  0
 16 17  1  0  0  0
 17 18  1  0  0  0
 17 19  1  0  0  0
 17 20  1  0  0  0
M  CHG 1   7   1
M  CHG 1  17   1
M  END
> <minimizedAffinity>
-6.00869

$$$$
2HA2_SCK_A_901


 20 19  0  0  0  0  0  0  0  0999 V2000
   29.5737   20.7697   12.3414 C   0  0  0  0  0  0  0  0  0  0  0  0
   30.7458   22.1559   10.8166 O   0  0  0  0  0  0  0  0  0  0  0  0
   30.0015   22.0994   11.7793 C   0  0  0  0  0  0  0  0  0  0  0  0
   29.5256   23.3300   12.3770 O   0  0  0  0  0  0  0  0  0  0  0  0
   29.7226   23.5524   13.7660 C   0  0  0  0  0  0  0  0  0  0  0  0
   31.2104   23.5027   14.0679 C   0  0  0  0  0  0  0  0  0  0  0  0
   31.3768   23.1766   15.4859 N   0  0  0  0  0  0  0  0  0  0  0  0
   30.7503   24.2136   16.3101 C   0  0  0  0  0  0  0  0  0  0  0  0
   30.7539   21.8811   15.7642 C   0  0  0  0  0  0  0  0  0  0  0  0
   32.8076   23.1129   15.7914 C   0  0  0  0  0  0  0  0  0  0  0  0
   28.5350   20.1650   11.4144 C   0  0  0  0  0  0  0  0  0  0  0  0
   27.1682   20.4580   11.9655 C   0  0  0  0  0  0  0  0  0  0  0  0
   26.1731   20.1164   11.3568 O   0  0  0  0  0  0  0  0  0  0  0  0
   27.0246   21.1530   13.2277 O   0  0  0  0  0  0  0  0  0  0  0  0
   26.4036   20.4939   14.3247 C   0  0  0  0  0  0  0  0  0  0  0  0
   27.4236   19.6176   15.0375 C   0  0  0  0  0  0  0  0  0  0  0  0
   26.9169   18.2483   15.1078 N   0  0  0  0  0  0  0  0  0  0  0  0
   27.1856   17.7085   16.4430 C   0  0  0  0  0  0  0  0  0  0  0  0
   25.4756   18.2398   14.8526 C   0  0  0  0  0  0  0  0  0  0  0  0
   27.5868   17.4290   14.0974 C   0  0  0  0  0  0  0  0  0  0  0  0
  2  3  2  0  0  0
  3  4  1  0  0  0
  3  1  1  0  0  0
  4  5  1  0  0  0
  5  6  1  0  0  0
  6  7  1  0  0  0
  7  8  1  0  0  0
  7  9  1  0  0  0
  7 10  1  0  0  0
  1 11  1  0  0  0
 11 12  1  0  0  0
 12 13  2  0  0  0
 12 14  1  0  0  0
 14 15  1  0  0  0
 15 16  1  0  0  0
 16 17  1  0  0  0
 17 18  1  0  0  0
 17 19  1  0  0  0
 17 20  1  0  0  0
M  CHG 1   7   1
M  CHG 1  17   1
M  END
> <minimizedAffinity>
-6.00212

$$$$
