2R0H_CTO_A_165


 54 56  0  0  0  0  0  0  0  0999 V2000
   23.4735  -10.9620   -7.7412 C   0  0  0  0  0  0  0  0  0  0  0  0
   23.7227   -9.5539   -8.2773 C   0  0  0  0  0  0  0  0  0  0  0  0
   24.9882   -9.5358   -9.1439 C   0  0  0  0  0  0  0  0  0  0  0  0
   25.2573   -8.1688   -9.4619 O   0  0  0  0  0  0  0  0  0  0  0  0
   26.1726  -10.2100   -8.4430 C   0  0  0  0  0  0  0  0  0  0  0  0
   25.7689  -11.6132   -7.9482 C   0  0  0  0  0  0  0  0  0  0  0  0
   24.6351  -11.4764   -7.0752 O   0  0  0  0  0  0  0  0  0  0  0  0
   25.3936   -7.6671   -8.6430 H   0  0  0  0  0  0  0  0  0  0  0  0
   22.5696   -9.0457   -9.0395 N   0  0  0  0  0  0  0  0  0  0  0  0
   22.0100   -7.8346   -8.8711 C   0  0  0  0  0  0  0  0  0  0  0  0
   21.1153   -7.4295   -9.6015 O   0  0  0  0  0  0  0  0  0  0  0  0
   22.4974   -7.0057   -7.7331 C   0  0  0  0  0  0  0  0  0  0  0  0
   22.1793   -9.6368   -9.7234 H   0  0  0  0  0  0  0  0  0  0  0  0
   26.8668  -12.3575   -7.1836 C   0  0  0  0  0  0  0  0  0  0  0  0
   26.3410  -12.6719   -5.8908 O   0  0  0  0  0  0  0  0  0  0  0  0
   26.0853  -11.8531   -5.4379 H   0  0  0  0  0  0  0  0  0  0  0  0
   27.2429  -10.2973   -9.3852 O   0  0  0  0  0  0  0  0  0  0  0  0
   28.2938   -9.3484   -9.1765 C   0  0  0  0  0  0  0  0  0  0  0  0
   28.6185   -8.6818  -10.5024 C   0  0  0  0  0  0  0  0  0  0  0  0
   29.7579   -7.6759  -10.3188 C   0  0  0  0  0  0  0  0  0  0  0  0
   29.8185   -6.8591  -11.4949 O   0  0  0  0  0  0  0  0  0  0  0  0
   29.4338   -6.7209   -9.1628 C   0  0  0  0  0  0  0  0  0  0  0  0
   30.5551   -5.8778   -8.8707 O   0  0  0  0  0  0  0  0  0  0  0  0
   28.9606   -7.4495   -7.9085 C   0  0  0  0  0  0  0  0  0  0  0  0
   27.8930   -8.3366   -8.2556 O   0  0  0  0  0  0  0  0  0  0  0  0
   28.9717   -6.4013  -11.6145 H   0  0  0  0  0  0  0  0  0  0  0  0
   31.3010   -6.4227   -8.5748 H   0  0  0  0  0  0  0  0  0  0  0  0
   28.9776   -9.7379  -11.4260 N   0  0  0  0  0  0  0  0  0  0  0  0
   28.4904   -9.8387  -12.6558 C   0  0  0  0  0  0  0  0  0  0  0  0
   27.4707   -9.2561  -13.0194 O   0  0  0  0  0  0  0  0  0  0  0  0
   29.2878  -10.7681  -13.5361 C   0  0  0  0  0  0  0  0  0  0  0  0
   29.6200  -10.4201  -11.1239 H   0  0  0  0  0  0  0  0  0  0  0  0
   28.4098   -6.4444   -6.9117 C   0  0  0  0  0  0  0  0  0  0  0  0
   27.8833   -5.3368   -7.6220 O   0  0  0  0  0  0  0  0  0  0  0  0
   28.5861   -4.9285   -8.1514 H   0  0  0  0  0  0  0  0  0  0  0  0
   22.4282  -10.8655   -6.7761 O   0  0  0  0  0  0  0  0  0  0  0  0
   19.6196  -13.3643   -5.1626 C   0  0  0  0  0  0  0  0  0  0  0  0
   18.6221  -14.3770   -4.9456 O   0  0  0  0  0  0  0  0  0  0  0  0
   21.0202  -13.9930   -5.2285 C   0  0  0  0  0  0  0  0  0  0  0  0
   22.0413  -12.8891   -5.5083 C   0  0  0  0  0  0  0  0  0  0  0  0
   23.3659  -13.4321   -5.7073 O   0  0  0  0  0  0  0  0  0  0  0  0
   21.6368  -12.0544   -6.7187 C   0  0  0  0  0  0  0  0  0  0  0  0
   20.1703  -11.6361   -6.7028 C   0  0  0  0  0  0  0  0  0  0  0  0
   19.3450  -12.7596   -6.4297 O   0  0  0  0  0  0  0  0  0  0  0  0
   18.6494  -15.0187   -5.6725 H   0  0  0  0  0  0  0  0  0  0  0  0
   23.3649  -14.0096   -6.4867 H   0  0  0  0  0  0  0  0  0  0  0  0
   21.3114  -14.6262   -3.9472 N   0  0  0  0  0  0  0  0  0  0  0  0
   21.6393  -15.9120   -3.8203 C   0  0  0  0  0  0  0  0  0  0  0  0
   22.2946  -16.3471   -2.8840 O   0  0  0  0  0  0  0  0  0  0  0  0
   21.1361  -16.8109   -4.8935 C   0  0  0  0  0  0  0  0  0  0  0  0
   21.2632  -14.0747   -3.1331 H   0  0  0  0  0  0  0  0  0  0  0  0
   19.7808  -11.1239   -8.0910 C   0  0  0  0  0  0  0  0  0  0  0  0
   19.8389   -9.6915   -8.0741 O   0  0  0  0  0  0  0  0  0  0  0  0
   19.2277   -9.3510   -7.4022 H   0  0  0  0  0  0  0  0  0  0  0  0
 18 19  1  0  0  0
 18 25  1  0  0  0
 18 17  1  0  0  0
 19 28  1  0  0  0
 19 20  1  0  0  0
 28 29  1  0  0  0
 29 30  2  0  0  0
 29 31  1  0  0  0
 20 21  1  0  0  0
 20 22  1  0  0  0
 22 23  1  0  0  0
 22 24  1  0  0  0
 24 25  1  0  0  0
 24 33  1  0  0  0
 33 34  1  0  0  0
  1  2  1  0  0  0
  1  7  1  0  0  0
  1 36  1  0  0  0
  2  9  1  0  0  0
  2  3  1  0  0  0
  9 10  1  0  0  0
 10 11  2  0  0  0
 10 12  1  0  0  0
  3  4  1  0  0  0
  3  5  1  0  0  0
  5 17  1  0  0  0
  5  6  1  0  0  0
  6  7  1  0  0  0
  6 14  1  0  0  0
 14 15  1  0  0  0
 37 38  1  0  0  0
 37 39  1  0  0  0
 37 44  1  0  0  0
 39 47  1  0  0  0
 39 40  1  0  0  0
 47 48  1  0  0  0
 48 49  2  0  0  0
 48 50  1  0  0  0
 40 41  1  0  0  0
 40 42  1  0  0  0
 42 36  1  0  0  0
 42 43  1  0  0  0
 43 44  1  0  0  0
 43 52  1  0  0  0
 52 53  1  0  0  0
 28 32  1  0  0  0
 21 26  1  0  0  0
 23 27  1  0  0  0
 34 35  1  0  0  0
  9 13  1  0  0  0
  4  8  1  0  0  0
 15 16  1  0  0  0
 38 45  1  0  0  0
 47 51  1  0  0  0
 41 46  1  0  0  0
 53 54  1  0  0  0
M  END
> <minimizedAffinity>
-6.92719

$$$$
2R0H_CTO_A_165


 54 56  0  0  0  0  0  0  0  0999 V2000
   20.3768  -12.9417   -8.4663 C   0  0  0  0  0  0  0  0  0  0  0  0
   20.7462  -13.4143   -9.8708 C   0  0  0  0  0  0  0  0  0  0  0  0
   21.9090  -12.5782  -10.4197 C   0  0  0  0  0  0  0  0  0  0  0  0
   22.0823  -12.9513  -11.7884 O   0  0  0  0  0  0  0  0  0  0  0  0
   21.6607  -11.0747  -10.2577 C   0  0  0  0  0  0  0  0  0  0  0  0
   21.2884  -10.7517   -8.7969 C   0  0  0  0  0  0  0  0  0  0  0  0
   20.1319  -11.5285   -8.4423 O   0  0  0  0  0  0  0  0  0  0  0  0
   21.2656  -12.7692  -12.2790 H   0  0  0  0  0  0  0  0  0  0  0  0
   21.0859  -14.8471   -9.8951 N   0  0  0  0  0  0  0  0  0  0  0  0
   20.4326  -15.7801  -10.6100 C   0  0  0  0  0  0  0  0  0  0  0  0
   20.8216  -16.9392  -10.6672 O   0  0  0  0  0  0  0  0  0  0  0  0
   19.1874  -15.3597  -11.3117 C   0  0  0  0  0  0  0  0  0  0  0  0
   21.8480  -15.1440   -9.3471 H   0  0  0  0  0  0  0  0  0  0  0  0
   20.9664   -9.2782   -8.5341 C   0  0  0  0  0  0  0  0  0  0  0  0
   22.1659   -8.6639   -8.0541 O   0  0  0  0  0  0  0  0  0  0  0  0
   22.4582   -9.1133   -7.2457 H   0  0  0  0  0  0  0  0  0  0  0  0
   22.8585  -10.3932  -10.6340 O   0  0  0  0  0  0  0  0  0  0  0  0
   24.0518  -10.9295  -10.0535 C   0  0  0  0  0  0  0  0  0  0  0  0
   25.1996  -10.7310  -11.0287 C   0  0  0  0  0  0  0  0  0  0  0  0
   26.4892  -11.3166  -10.4474 C   0  0  0  0  0  0  0  0  0  0  0  0
   27.5853  -10.8392  -11.2375 O   0  0  0  0  0  0  0  0  0  0  0  0
   26.7234  -10.7695   -9.0335 C   0  0  0  0  0  0  0  0  0  0  0  0
   27.8346  -11.4269   -8.4119 O   0  0  0  0  0  0  0  0  0  0  0  0
   25.4802  -10.8540   -8.1529 C   0  0  0  0  0  0  0  0  0  0  0  0
   24.3769  -10.2558   -8.8399 O   0  0  0  0  0  0  0  0  0  0  0  0
   27.6053   -9.8697  -11.2105 H   0  0  0  0  0  0  0  0  0  0  0  0
   27.6364  -12.3711   -8.3108 H   0  0  0  0  0  0  0  0  0  0  0  0
   24.8198  -11.3873  -12.2626 N   0  0  0  0  0  0  0  0  0  0  0  0
   25.3570  -11.1060  -13.4426 C   0  0  0  0  0  0  0  0  0  0  0  0
   25.9787  -10.0684  -13.6624 O   0  0  0  0  0  0  0  0  0  0  0  0
   25.0889  -12.1631  -14.4843 C   0  0  0  0  0  0  0  0  0  0  0  0
   24.1232  -12.0819  -12.2235 H   0  0  0  0  0  0  0  0  0  0  0  0
   25.7040  -10.0615   -6.8766 C   0  0  0  0  0  0  0  0  0  0  0  0
   24.4448   -9.7096   -6.3296 O   0  0  0  0  0  0  0  0  0  0  0  0
   23.9520   -9.1742   -6.9709 H   0  0  0  0  0  0  0  0  0  0  0  0
   19.1626  -13.5977   -8.1077 O   0  0  0  0  0  0  0  0  0  0  0  0
   20.3533  -13.4384   -4.1972 C   0  0  0  0  0  0  0  0  0  0  0  0
   20.4405  -13.5492   -2.7662 O   0  0  0  0  0  0  0  0  0  0  0  0
   20.6414  -14.7941   -4.8609 C   0  0  0  0  0  0  0  0  0  0  0  0
   20.4900  -14.6413   -6.3753 C   0  0  0  0  0  0  0  0  0  0  0  0
   20.6249  -15.9117   -7.0511 O   0  0  0  0  0  0  0  0  0  0  0  0
   19.1535  -14.0020   -6.7367 C   0  0  0  0  0  0  0  0  0  0  0  0
   18.8212  -12.7759   -5.8930 C   0  0  0  0  0  0  0  0  0  0  0  0
   19.0092  -13.0658   -4.5150 O   0  0  0  0  0  0  0  0  0  0  0  0
   19.7946  -14.2013   -2.4524 H   0  0  0  0  0  0  0  0  0  0  0  0
   19.9163  -16.5081   -6.7629 H   0  0  0  0  0  0  0  0  0  0  0  0
   22.0052  -15.1958   -4.5358 N   0  0  0  0  0  0  0  0  0  0  0  0
   22.3144  -16.3700   -3.9856 C   0  0  0  0  0  0  0  0  0  0  0  0
   23.4091  -16.9005   -4.1096 O   0  0  0  0  0  0  0  0  0  0  0  0
   21.2372  -17.0032   -3.1785 C   0  0  0  0  0  0  0  0  0  0  0  0
   22.7362  -14.5665   -4.7332 H   0  0  0  0  0  0  0  0  0  0  0  0
   17.3428  -12.4271   -6.0773 C   0  0  0  0  0  0  0  0  0  0  0  0
   17.2379  -11.4541   -7.1249 O   0  0  0  0  0  0  0  0  0  0  0  0
   17.7462  -10.6637   -6.8842 H   0  0  0  0  0  0  0  0  0  0  0  0
 18 19  1  0  0  0
 18 25  1  0  0  0
 18 17  1  0  0  0
 19 28  1  0  0  0
 19 20  1  0  0  0
 28 29  1  0  0  0
 29 30  2  0  0  0
 29 31  1  0  0  0
 20 21  1  0  0  0
 20 22  1  0  0  0
 22 23  1  0  0  0
 22 24  1  0  0  0
 24 25  1  0  0  0
 24 33  1  0  0  0
 33 34  1  0  0  0
  1  2  1  0  0  0
  1  7  1  0  0  0
  1 36  1  0  0  0
  2  9  1  0  0  0
  2  3  1  0  0  0
  9 10  1  0  0  0
 10 11  2  0  0  0
 10 12  1  0  0  0
  3  4  1  0  0  0
  3  5  1  0  0  0
  5 17  1  0  0  0
  5  6  1  0  0  0
  6  7  1  0  0  0
  6 14  1  0  0  0
 14 15  1  0  0  0
 37 38  1  0  0  0
 37 39  1  0  0  0
 37 44  1  0  0  0
 39 47  1  0  0  0
 39 40  1  0  0  0
 47 48  1  0  0  0
 48 49  2  0  0  0
 48 50  1  0  0  0
 40 41  1  0  0  0
 40 42  1  0  0  0
 42 36  1  0  0  0
 42 43  1  0  0  0
 43 44  1  0  0  0
 43 52  1  0  0  0
 52 53  1  0  0  0
 28 32  1  0  0  0
 21 26  1  0  0  0
 23 27  1  0  0  0
 34 35  1  0  0  0
  9 13  1  0  0  0
  4  8  1  0  0  0
 15 16  1  0  0  0
 38 45  1  0  0  0
 47 51  1  0  0  0
 41 46  1  0  0  0
 53 54  1  0  0  0
M  END
> <minimizedAffinity>
-6.83735

$$$$
2R0H_CTO_A_165


 54 56  0  0  0  0  0  0  0  0999 V2000
   22.6972  -10.8674   -7.2230 C   0  0  0  0  0  0  0  0  0  0  0  0
   23.0505   -9.4753   -7.7423 C   0  0  0  0  0  0  0  0  0  0  0  0
   24.4788   -9.4678   -8.3013 C   0  0  0  0  0  0  0  0  0  0  0  0
   24.8026   -8.1088   -8.6023 O   0  0  0  0  0  0  0  0  0  0  0  0
   25.4793  -10.0979   -7.3264 C   0  0  0  0  0  0  0  0  0  0  0  0
   24.9849  -11.4889   -6.8823 C   0  0  0  0  0  0  0  0  0  0  0  0
   23.6822  -11.3394   -6.2932 O   0  0  0  0  0  0  0  0  0  0  0  0
   24.7466   -7.5763   -7.7934 H   0  0  0  0  0  0  0  0  0  0  0  0
   22.0955   -9.0129   -8.7637 N   0  0  0  0  0  0  0  0  0  0  0  0
   21.6469   -7.7506   -8.8814 C   0  0  0  0  0  0  0  0  0  0  0  0
   20.9297   -7.4043   -9.8107 O   0  0  0  0  0  0  0  0  0  0  0  0
   22.0289   -6.7842   -7.8137 C   0  0  0  0  0  0  0  0  0  0  0  0
   21.7607   -9.6773   -9.4084 H   0  0  0  0  0  0  0  0  0  0  0  0
   25.8872  -12.1882   -5.8621 C   0  0  0  0  0  0  0  0  0  0  0  0
   25.1929  -13.3570   -5.4167 O   0  0  0  0  0  0  0  0  0  0  0  0
   24.3448  -13.0989   -5.0228 H   0  0  0  0  0  0  0  0  0  0  0  0
   26.7354  -10.2014   -7.9990 O   0  0  0  0  0  0  0  0  0  0  0  0
   26.6350  -10.4450   -9.4058 C   0  0  0  0  0  0  0  0  0  0  0  0
   27.7698   -9.7192  -10.1080 C   0  0  0  0  0  0  0  0  0  0  0  0
   27.6776   -9.9398  -11.6201 C   0  0  0  0  0  0  0  0  0  0  0  0
   28.9153   -9.5140  -12.2039 O   0  0  0  0  0  0  0  0  0  0  0  0
   27.5648  -11.4388  -11.9260 C   0  0  0  0  0  0  0  0  0  0  0  0
   27.3154  -11.6554  -13.3204 O   0  0  0  0  0  0  0  0  0  0  0  0
   26.5135  -12.1396  -11.0707 C   0  0  0  0  0  0  0  0  0  0  0  0
   26.7514  -11.8366   -9.6928 O   0  0  0  0  0  0  0  0  0  0  0  0
   29.6452  -10.0286  -11.8254 H   0  0  0  0  0  0  0  0  0  0  0  0
   26.4621  -11.2618  -13.5612 H   0  0  0  0  0  0  0  0  0  0  0  0
   27.6498   -8.3182   -9.7609 N   0  0  0  0  0  0  0  0  0  0  0  0
   28.6325   -7.6045   -9.2269 C   0  0  0  0  0  0  0  0  0  0  0  0
   29.6105   -8.1159   -8.6854 O   0  0  0  0  0  0  0  0  0  0  0  0
   28.4019   -6.1167   -9.3161 C   0  0  0  0  0  0  0  0  0  0  0  0
   26.7900   -7.8700   -9.9309 H   0  0  0  0  0  0  0  0  0  0  0  0
   26.6432  -13.6442  -11.2338 C   0  0  0  0  0  0  0  0  0  0  0  0
   25.8911  -14.0485  -12.3649 O   0  0  0  0  0  0  0  0  0  0  0  0
   24.9602  -13.8073  -12.2372 H   0  0  0  0  0  0  0  0  0  0  0  0
   21.4602  -10.7535   -6.5229 O   0  0  0  0  0  0  0  0  0  0  0  0
   18.2777  -13.1703   -5.6478 C   0  0  0  0  0  0  0  0  0  0  0  0
   17.2429  -14.1684   -5.6743 O   0  0  0  0  0  0  0  0  0  0  0  0
   19.6325  -13.8080   -5.3028 C   0  0  0  0  0  0  0  0  0  0  0  0
   20.7087  -12.7215   -5.3337 C   0  0  0  0  0  0  0  0  0  0  0  0
   22.0283  -13.2786   -5.1408 O   0  0  0  0  0  0  0  0  0  0  0  0
   20.6646  -11.9352   -6.6395 C   0  0  0  0  0  0  0  0  0  0  0  0
   19.2567  -11.5095   -7.0425 C   0  0  0  0  0  0  0  0  0  0  0  0
   18.3703  -12.6169   -6.9637 O   0  0  0  0  0  0  0  0  0  0  0  0
   17.4581  -14.8396   -6.3408 H   0  0  0  0  0  0  0  0  0  0  0  0
   22.2316  -13.8875   -5.8679 H   0  0  0  0  0  0  0  0  0  0  0  0
   19.5515  -14.3894   -3.9677 N   0  0  0  0  0  0  0  0  0  0  0  0
   19.7679  -15.6801   -3.7135 C   0  0  0  0  0  0  0  0  0  0  0  0
   20.1371  -16.0957   -2.6244 O   0  0  0  0  0  0  0  0  0  0  0  0
   19.5104  -16.6086   -4.8468 C   0  0  0  0  0  0  0  0  0  0  0  0
   19.3251  -13.7974   -3.2144 H   0  0  0  0  0  0  0  0  0  0  0  0
   19.2705  -11.0528   -8.5028 C   0  0  0  0  0  0  0  0  0  0  0  0
   20.3358  -11.7354   -9.1770 O   0  0  0  0  0  0  0  0  0  0  0  0
   21.1789  -11.5239   -8.7466 H   0  0  0  0  0  0  0  0  0  0  0  0
 18 19  1  0  0  0
 18 25  1  0  0  0
 18 17  1  0  0  0
 19 28  1  0  0  0
 19 20  1  0  0  0
 28 29  1  0  0  0
 29 30  2  0  0  0
 29 31  1  0  0  0
 20 21  1  0  0  0
 20 22  1  0  0  0
 22 23  1  0  0  0
 22 24  1  0  0  0
 24 25  1  0  0  0
 24 33  1  0  0  0
 33 34  1  0  0  0
  1  2  1  0  0  0
  1  7  1  0  0  0
  1 36  1  0  0  0
  2  9  1  0  0  0
  2  3  1  0  0  0
  9 10  1  0  0  0
 10 11  2  0  0  0
 10 12  1  0  0  0
  3  4  1  0  0  0
  3  5  1  0  0  0
  5 17  1  0  0  0
  5  6  1  0  0  0
  6  7  1  0  0  0
  6 14  1  0  0  0
 14 15  1  0  0  0
 37 38  1  0  0  0
 37 39  1  0  0  0
 37 44  1  0  0  0
 39 47  1  0  0  0
 39 40  1  0  0  0
 47 48  1  0  0  0
 48 49  2  0  0  0
 48 50  1  0  0  0
 40 41  1  0  0  0
 40 42  1  0  0  0
 42 36  1  0  0  0
 42 43  1  0  0  0
 43 44  1  0  0  0
 43 52  1  0  0  0
 52 53  1  0  0  0
 28 32  1  0  0  0
 21 26  1  0  0  0
 23 27  1  0  0  0
 34 35  1  0  0  0
  9 13  1  0  0  0
  4  8  1  0  0  0
 15 16  1  0  0  0
 38 45  1  0  0  0
 47 51  1  0  0  0
 41 46  1  0  0  0
 53 54  1  0  0  0
M  END
> <minimizedAffinity>
-6.81504

$$$$
2R0H_CTO_A_165


 54 56  0  0  0  0  0  0  0  0999 V2000
   24.3149   -9.8031   -7.7267 C   0  0  0  0  0  0  0  0  0  0  0  0
   22.7959   -9.6578   -7.7864 C   0  0  0  0  0  0  0  0  0  0  0  0
   22.1414  -10.5080   -6.6902 C   0  0  0  0  0  0  0  0  0  0  0  0
   20.7307  -10.4657   -6.9150 O   0  0  0  0  0  0  0  0  0  0  0  0
   22.6817  -11.9420   -6.6775 C   0  0  0  0  0  0  0  0  0  0  0  0
   24.2226  -11.9291   -6.6277 C   0  0  0  0  0  0  0  0  0  0  0  0
   24.7056  -11.1830   -7.7575 O   0  0  0  0  0  0  0  0  0  0  0  0
   20.5325  -10.8251   -7.7939 H   0  0  0  0  0  0  0  0  0  0  0  0
   22.3748   -8.2516   -7.6675 N   0  0  0  0  0  0  0  0  0  0  0  0
   21.6016   -7.6028   -8.5561 C   0  0  0  0  0  0  0  0  0  0  0  0
   21.2033   -6.4631   -8.3544 O   0  0  0  0  0  0  0  0  0  0  0  0
   21.2689   -8.3123   -9.8232 C   0  0  0  0  0  0  0  0  0  0  0  0
   22.6823   -7.7491   -6.8787 H   0  0  0  0  0  0  0  0  0  0  0  0
   24.8712  -13.3154   -6.6649 C   0  0  0  0  0  0  0  0  0  0  0  0
   23.9991  -14.1687   -7.4119 O   0  0  0  0  0  0  0  0  0  0  0  0
   23.1287  -14.1952   -6.9848 H   0  0  0  0  0  0  0  0  0  0  0  0
   22.1467  -12.5980   -5.5267 O   0  0  0  0  0  0  0  0  0  0  0  0
   21.0801  -13.5100   -5.8080 C   0  0  0  0  0  0  0  0  0  0  0  0
   21.1680  -14.6761   -4.8383 C   0  0  0  0  0  0  0  0  0  0  0  0
   20.0532  -15.6846   -5.1280 C   0  0  0  0  0  0  0  0  0  0  0  0
   19.9778  -16.5889   -4.0188 O   0  0  0  0  0  0  0  0  0  0  0  0
   18.6974  -14.9686   -5.1768 C   0  0  0  0  0  0  0  0  0  0  0  0
   17.6646  -15.8649   -5.6053 O   0  0  0  0  0  0  0  0  0  0  0  0
   18.7219  -13.7136   -6.0440 C   0  0  0  0  0  0  0  0  0  0  0  0
   19.8120  -12.8819   -5.6353 O   0  0  0  0  0  0  0  0  0  0  0  0
   19.7887  -16.0911   -3.2080 H   0  0  0  0  0  0  0  0  0  0  0  0
   17.8497  -16.1627   -6.5097 H   0  0  0  0  0  0  0  0  0  0  0  0
   22.4811  -15.2634   -5.0066 N   0  0  0  0  0  0  0  0  0  0  0  0
   22.9880  -16.1807   -4.1931 C   0  0  0  0  0  0  0  0  0  0  0  0
   22.5490  -16.3863   -3.0633 O   0  0  0  0  0  0  0  0  0  0  0  0
   24.1737  -16.9048   -4.7800 C   0  0  0  0  0  0  0  0  0  0  0  0
   23.0288  -14.9650   -5.7683 H   0  0  0  0  0  0  0  0  0  0  0  0
   17.4428  -12.9221   -5.8327 C   0  0  0  0  0  0  0  0  0  0  0  0
   17.7249  -11.5433   -6.0000 O   0  0  0  0  0  0  0  0  0  0  0  0
   18.3952  -11.2698   -5.3545 H   0  0  0  0  0  0  0  0  0  0  0  0
   24.8433   -9.1772   -8.8940 O   0  0  0  0  0  0  0  0  0  0  0  0
   28.1648   -9.5228  -11.2569 C   0  0  0  0  0  0  0  0  0  0  0  0
   29.4769   -9.7977  -11.7770 O   0  0  0  0  0  0  0  0  0  0  0  0
   27.3265  -10.8095  -11.2024 C   0  0  0  0  0  0  0  0  0  0  0  0
   25.9600  -10.4800  -10.5992 C   0  0  0  0  0  0  0  0  0  0  0  0
   25.1669  -11.6723  -10.4036 O   0  0  0  0  0  0  0  0  0  0  0  0
   26.1036   -9.7313   -9.2785 C   0  0  0  0  0  0  0  0  0  0  0  0
   27.1144   -8.5908   -9.3360 C   0  0  0  0  0  0  0  0  0  0  0  0
   28.3282   -9.0430   -9.9191 O   0  0  0  0  0  0  0  0  0  0  0  0
   29.9219  -10.4440  -11.2068 H   0  0  0  0  0  0  0  0  0  0  0  0
   25.6128  -12.2570   -9.7710 H   0  0  0  0  0  0  0  0  0  0  0  0
   27.1611  -11.3199  -12.5586 N   0  0  0  0  0  0  0  0  0  0  0  0
   27.4366  -12.5759  -12.9101 C   0  0  0  0  0  0  0  0  0  0  0  0
   26.9147  -13.1344  -13.8645 O   0  0  0  0  0  0  0  0  0  0  0  0
   28.4508  -13.2687  -12.0707 C   0  0  0  0  0  0  0  0  0  0  0  0
   26.8283  -10.7043  -13.2510 H   0  0  0  0  0  0  0  0  0  0  0  0
   27.4445   -8.1423   -7.9108 C   0  0  0  0  0  0  0  0  0  0  0  0
   26.6397   -6.9966   -7.6024 O   0  0  0  0  0  0  0  0  0  0  0  0
   26.8316   -6.2869   -8.2352 H   0  0  0  0  0  0  0  0  0  0  0  0
 18 19  1  0  0  0
 18 25  1  0  0  0
 18 17  1  0  0  0
 19 28  1  0  0  0
 19 20  1  0  0  0
 28 29  1  0  0  0
 29 30  2  0  0  0
 29 31  1  0  0  0
 20 21  1  0  0  0
 20 22  1  0  0  0
 22 23  1  0  0  0
 22 24  1  0  0  0
 24 25  1  0  0  0
 24 33  1  0  0  0
 33 34  1  0  0  0
  1  2  1  0  0  0
  1  7  1  0  0  0
  1 36  1  0  0  0
  2  9  1  0  0  0
  2  3  1  0  0  0
  9 10  1  0  0  0
 10 11  2  0  0  0
 10 12  1  0  0  0
  3  4  1  0  0  0
  3  5  1  0  0  0
  5 17  1  0  0  0
  5  6  1  0  0  0
  6  7  1  0  0  0
  6 14  1  0  0  0
 14 15  1  0  0  0
 37 38  1  0  0  0
 37 39  1  0  0  0
 37 44  1  0  0  0
 39 47  1  0  0  0
 39 40  1  0  0  0
 47 48  1  0  0  0
 48 49  2  0  0  0
 48 50  1  0  0  0
 40 41  1  0  0  0
 40 42  1  0  0  0
 42 36  1  0  0  0
 42 43  1  0  0  0
 43 44  1  0  0  0
 43 52  1  0  0  0
 52 53  1  0  0  0
 28 32  1  0  0  0
 21 26  1  0  0  0
 23 27  1  0  0  0
 34 35  1  0  0  0
  9 13  1  0  0  0
  4  8  1  0  0  0
 15 16  1  0  0  0
 38 45  1  0  0  0
 47 51  1  0  0  0
 41 46  1  0  0  0
 53 54  1  0  0  0
M  END
> <minimizedAffinity>
-6.68479

$$$$
2R0H_CTO_A_165


 54 56  0  0  0  0  0  0  0  0999 V2000
   22.3787  -10.9293   -7.3207 C   0  0  0  0  0  0  0  0  0  0  0  0
   22.7536   -9.5309   -7.8066 C   0  0  0  0  0  0  0  0  0  0  0  0
   24.2115   -9.5114   -8.2828 C   0  0  0  0  0  0  0  0  0  0  0  0
   24.5446   -8.1481   -8.5527 O   0  0  0  0  0  0  0  0  0  0  0  0
   25.1579  -10.1454   -7.2577 C   0  0  0  0  0  0  0  0  0  0  0  0
   24.6464  -11.5429   -6.8550 C   0  0  0  0  0  0  0  0  0  0  0  0
   23.3113  -11.4051   -6.3402 O   0  0  0  0  0  0  0  0  0  0  0  0
   24.4395   -7.6233   -7.7438 H   0  0  0  0  0  0  0  0  0  0  0  0
   21.8562   -9.0638   -8.8769 N   0  0  0  0  0  0  0  0  0  0  0  0
   21.4484   -7.7926   -9.0381 C   0  0  0  0  0  0  0  0  0  0  0  0
   20.7811   -7.4461  -10.0040 O   0  0  0  0  0  0  0  0  0  0  0  0
   21.8114   -6.8152   -7.9739 C   0  0  0  0  0  0  0  0  0  0  0  0
   21.5306   -9.7321   -9.5224 H   0  0  0  0  0  0  0  0  0  0  0  0
   25.4926  -12.2470   -5.7910 C   0  0  0  0  0  0  0  0  0  0  0  0
   25.9667  -11.2383   -4.8941 O   0  0  0  0  0  0  0  0  0  0  0  0
   26.4877  -10.5857   -5.3877 H   0  0  0  0  0  0  0  0  0  0  0  0
   26.4510  -10.2367   -7.8582 O   0  0  0  0  0  0  0  0  0  0  0  0
   26.4333  -10.5169   -9.2616 C   0  0  0  0  0  0  0  0  0  0  0  0
   27.6252   -9.8337   -9.9099 C   0  0  0  0  0  0  0  0  0  0  0  0
   27.6227  -10.0940  -11.4185 C   0  0  0  0  0  0  0  0  0  0  0  0
   28.9033   -9.7094  -11.9342 O   0  0  0  0  0  0  0  0  0  0  0  0
   27.4966  -11.5983  -11.6914 C   0  0  0  0  0  0  0  0  0  0  0  0
   27.3299  -11.8483  -13.0926 O   0  0  0  0  0  0  0  0  0  0  0  0
   26.3790  -12.2540  -10.8859 C   0  0  0  0  0  0  0  0  0  0  0  0
   26.5370  -11.9180   -9.5041 O   0  0  0  0  0  0  0  0  0  0  0  0
   29.5968  -10.2280  -11.4971 H   0  0  0  0  0  0  0  0  0  0  0  0
   26.5022  -11.4444  -13.3968 H   0  0  0  0  0  0  0  0  0  0  0  0
   27.5143   -8.4216   -9.6079 N   0  0  0  0  0  0  0  0  0  0  0  0
   28.5083   -7.6926   -9.1172 C   0  0  0  0  0  0  0  0  0  0  0  0
   29.4957   -8.1878   -8.5776 O   0  0  0  0  0  0  0  0  0  0  0  0
   28.2786   -6.2081   -9.2520 C   0  0  0  0  0  0  0  0  0  0  0  0
   26.6521   -7.9772   -9.7765 H   0  0  0  0  0  0  0  0  0  0  0  0
   26.4858  -13.7648  -11.0009 C   0  0  0  0  0  0  0  0  0  0  0  0
   25.9190  -14.1711  -12.2347 O   0  0  0  0  0  0  0  0  0  0  0  0
   24.9881  -13.9006  -12.2675 H   0  0  0  0  0  0  0  0  0  0  0  0
   21.1030  -10.8279   -6.6916 O   0  0  0  0  0  0  0  0  0  0  0  0
   20.3824  -14.6944   -7.8168 C   0  0  0  0  0  0  0  0  0  0  0  0
   19.8112  -15.9981   -8.0208 O   0  0  0  0  0  0  0  0  0  0  0  0
   19.7133  -13.6629   -8.7386 C   0  0  0  0  0  0  0  0  0  0  0  0
   20.3158  -12.2862   -8.4539 C   0  0  0  0  0  0  0  0  0  0  0  0
   19.6407  -11.2488   -9.2003 O   0  0  0  0  0  0  0  0  0  0  0  0
   20.2762  -11.9615   -6.9645 C   0  0  0  0  0  0  0  0  0  0  0  0
   20.7554  -13.1092   -6.0819 C   0  0  0  0  0  0  0  0  0  0  0  0
   20.1146  -14.3185   -6.4627 O   0  0  0  0  0  0  0  0  0  0  0  0
   18.8609  -15.9684   -7.8289 H   0  0  0  0  0  0  0  0  0  0  0  0
   18.7117  -11.2046   -8.9247 H   0  0  0  0  0  0  0  0  0  0  0  0
   19.9657  -14.0387  -10.1251 N   0  0  0  0  0  0  0  0  0  0  0  0
   18.9990  -14.2247  -11.0240 C   0  0  0  0  0  0  0  0  0  0  0  0
   19.1708  -14.0995  -12.2282 O   0  0  0  0  0  0  0  0  0  0  0  0
   17.6764  -14.6209  -10.4704 C   0  0  0  0  0  0  0  0  0  0  0  0
   20.8993  -14.1616  -10.4123 H   0  0  0  0  0  0  0  0  0  0  0  0
   20.3521  -12.8283   -4.6328 C   0  0  0  0  0  0  0  0  0  0  0  0
   21.4998  -12.3253   -3.9363 O   0  0  0  0  0  0  0  0  0  0  0  0
   22.2121  -12.9830   -3.9696 H   0  0  0  0  0  0  0  0  0  0  0  0
 18 19  1  0  0  0
 18 25  1  0  0  0
 18 17  1  0  0  0
 19 28  1  0  0  0
 19 20  1  0  0  0
 28 29  1  0  0  0
 29 30  2  0  0  0
 29 31  1  0  0  0
 20 21  1  0  0  0
 20 22  1  0  0  0
 22 23  1  0  0  0
 22 24  1  0  0  0
 24 25  1  0  0  0
 24 33  1  0  0  0
 33 34  1  0  0  0
  1  2  1  0  0  0
  1  7  1  0  0  0
  1 36  1  0  0  0
  2  9  1  0  0  0
  2  3  1  0  0  0
  9 10  1  0  0  0
 10 11  2  0  0  0
 10 12  1  0  0  0
  3  4  1  0  0  0
  3  5  1  0  0  0
  5 17  1  0  0  0
  5  6  1  0  0  0
  6  7  1  0  0  0
  6 14  1  0  0  0
 14 15  1  0  0  0
 37 38  1  0  0  0
 37 39  1  0  0  0
 37 44  1  0  0  0
 39 47  1  0  0  0
 39 40  1  0  0  0
 47 48  1  0  0  0
 48 49  2  0  0  0
 48 50  1  0  0  0
 40 41  1  0  0  0
 40 42  1  0  0  0
 42 36  1  0  0  0
 42 43  1  0  0  0
 43 44  1  0  0  0
 43 52  1  0  0  0
 52 53  1  0  0  0
 28 32  1  0  0  0
 21 26  1  0  0  0
 23 27  1  0  0  0
 34 35  1  0  0  0
  9 13  1  0  0  0
  4  8  1  0  0  0
 15 16  1  0  0  0
 38 45  1  0  0  0
 47 51  1  0  0  0
 41 46  1  0  0  0
 53 54  1  0  0  0
M  END
> <minimizedAffinity>
-6.55912

$$$$
2R0H_CTO_A_165


 54 56  0  0  0  0  0  0  0  0999 V2000
   25.4893   -9.6538   -8.1167 C   0  0  0  0  0  0  0  0  0  0  0  0
   25.1881  -10.6911   -7.0372 C   0  0  0  0  0  0  0  0  0  0  0  0
   23.6930  -11.0337   -7.0377 C   0  0  0  0  0  0  0  0  0  0  0  0
   23.4546  -11.8654   -5.9001 O   0  0  0  0  0  0  0  0  0  0  0  0
   22.8168   -9.7765   -7.0280 C   0  0  0  0  0  0  0  0  0  0  0  0
   23.2437   -8.8222   -8.1611 C   0  0  0  0  0  0  0  0  0  0  0  0
   24.6357   -8.5081   -7.9877 O   0  0  0  0  0  0  0  0  0  0  0  0
   23.6978  -11.3862   -5.0926 H   0  0  0  0  0  0  0  0  0  0  0  0
   25.9957  -11.9107   -7.2086 N   0  0  0  0  0  0  0  0  0  0  0  0
   25.9330  -12.7312   -8.2722 C   0  0  0  0  0  0  0  0  0  0  0  0
   26.6990  -13.6766   -8.4044 O   0  0  0  0  0  0  0  0  0  0  0  0
   24.8672  -12.4686   -9.2796 C   0  0  0  0  0  0  0  0  0  0  0  0
   26.6287  -12.1425   -6.4911 H   0  0  0  0  0  0  0  0  0  0  0  0
   22.4648   -7.5051   -8.2099 C   0  0  0  0  0  0  0  0  0  0  0  0
   21.2126   -7.7793   -8.8451 O   0  0  0  0  0  0  0  0  0  0  0  0
   21.3717   -8.1311   -9.7350 H   0  0  0  0  0  0  0  0  0  0  0  0
   21.4607  -10.1905   -7.2031 O   0  0  0  0  0  0  0  0  0  0  0  0
   21.2919  -11.3085   -8.0806 C   0  0  0  0  0  0  0  0  0  0  0  0
   20.1241  -12.1444   -7.5853 C   0  0  0  0  0  0  0  0  0  0  0  0
   19.9311  -13.3643   -8.4899 C   0  0  0  0  0  0  0  0  0  0  0  0
   18.6554  -13.9417   -8.1848 O   0  0  0  0  0  0  0  0  0  0  0  0
   19.8501  -12.9225   -9.9567 C   0  0  0  0  0  0  0  0  0  0  0  0
   19.8320  -14.0590  -10.8294 O   0  0  0  0  0  0  0  0  0  0  0  0
   20.9649  -11.9563  -10.3460 C   0  0  0  0  0  0  0  0  0  0  0  0
   20.9994  -10.8769   -9.4075 O   0  0  0  0  0  0  0  0  0  0  0  0
   17.9581  -13.2854   -8.3395 H   0  0  0  0  0  0  0  0  0  0  0  0
   20.6630  -14.5509  -10.7370 H   0  0  0  0  0  0  0  0  0  0  0  0
   20.4314  -12.5287   -6.2231 N   0  0  0  0  0  0  0  0  0  0  0  0
   19.5111  -12.8393   -5.3195 C   0  0  0  0  0  0  0  0  0  0  0  0
   18.3273  -12.5300   -5.4393 O   0  0  0  0  0  0  0  0  0  0  0  0
   20.0743  -13.5655   -4.1237 C   0  0  0  0  0  0  0  0  0  0  0  0
   21.3774  -12.5612   -5.9523 H   0  0  0  0  0  0  0  0  0  0  0  0
   20.6704  -11.3611  -11.7120 C   0  0  0  0  0  0  0  0  0  0  0  0
   20.9913  -12.3180  -12.7070 O   0  0  0  0  0  0  0  0  0  0  0  0
   21.9308  -12.5501  -12.6414 H   0  0  0  0  0  0  0  0  0  0  0  0
   26.8323   -9.2177   -7.9178 O   0  0  0  0  0  0  0  0  0  0  0  0
   29.5735   -7.1728  -10.1627 C   0  0  0  0  0  0  0  0  0  0  0  0
   30.2432   -6.4098  -11.1810 O   0  0  0  0  0  0  0  0  0  0  0  0
   28.7088   -6.2559   -9.2836 C   0  0  0  0  0  0  0  0  0  0  0  0
   27.9792   -7.1136   -8.2484 C   0  0  0  0  0  0  0  0  0  0  0  0
   27.0508   -6.3264   -7.4692 O   0  0  0  0  0  0  0  0  0  0  0  0
   27.2451   -8.2750   -8.9098 C   0  0  0  0  0  0  0  0  0  0  0  0
   28.0919   -9.0209   -9.9356 C   0  0  0  0  0  0  0  0  0  0  0  0
   28.7068   -8.0989  -10.8244 O   0  0  0  0  0  0  0  0  0  0  0  0
   29.5848   -5.9640  -11.7365 H   0  0  0  0  0  0  0  0  0  0  0  0
   26.3682   -5.9600   -8.0529 H   0  0  0  0  0  0  0  0  0  0  0  0
   29.5764   -5.2958   -8.6108 N   0  0  0  0  0  0  0  0  0  0  0  0
   29.5178   -3.9803   -8.8187 C   0  0  0  0  0  0  0  0  0  0  0  0
   29.8856   -3.1548   -7.9950 O   0  0  0  0  0  0  0  0  0  0  0  0
   28.9874   -3.5639  -10.1447 C   0  0  0  0  0  0  0  0  0  0  0  0
   30.2405   -5.6372   -7.9692 H   0  0  0  0  0  0  0  0  0  0  0  0
   27.1822   -9.9153  -10.7805 C   0  0  0  0  0  0  0  0  0  0  0  0
   27.3834   -9.5846  -12.1609 O   0  0  0  0  0  0  0  0  0  0  0  0
   27.1688   -8.6495  -12.3040 H   0  0  0  0  0  0  0  0  0  0  0  0
 18 19  1  0  0  0
 18 25  1  0  0  0
 18 17  1  0  0  0
 19 28  1  0  0  0
 19 20  1  0  0  0
 28 29  1  0  0  0
 29 30  2  0  0  0
 29 31  1  0  0  0
 20 21  1  0  0  0
 20 22  1  0  0  0
 22 23  1  0  0  0
 22 24  1  0  0  0
 24 25  1  0  0  0
 24 33  1  0  0  0
 33 34  1  0  0  0
  1  2  1  0  0  0
  1  7  1  0  0  0
  1 36  1  0  0  0
  2  9  1  0  0  0
  2  3  1  0  0  0
  9 10  1  0  0  0
 10 11  2  0  0  0
 10 12  1  0  0  0
  3  4  1  0  0  0
  3  5  1  0  0  0
  5 17  1  0  0  0
  5  6  1  0  0  0
  6  7  1  0  0  0
  6 14  1  0  0  0
 14 15  1  0  0  0
 37 38  1  0  0  0
 37 39  1  0  0  0
 37 44  1  0  0  0
 39 47  1  0  0  0
 39 40  1  0  0  0
 47 48  1  0  0  0
 48 49  2  0  0  0
 48 50  1  0  0  0
 40 41  1  0  0  0
 40 42  1  0  0  0
 42 36  1  0  0  0
 42 43  1  0  0  0
 43 44  1  0  0  0
 43 52  1  0  0  0
 52 53  1  0  0  0
 28 32  1  0  0  0
 21 26  1  0  0  0
 23 27  1  0  0  0
 34 35  1  0  0  0
  9 13  1  0  0  0
  4  8  1  0  0  0
 15 16  1  0  0  0
 38 45  1  0  0  0
 47 51  1  0  0  0
 41 46  1  0  0  0
 53 54  1  0  0  0
M  END
> <minimizedAffinity>
-6.51958

$$$$
2R0H_CTO_A_165


 54 56  0  0  0  0  0  0  0  0999 V2000
   21.0815  -11.4015   -9.6511 C   0  0  0  0  0  0  0  0  0  0  0  0
   22.2124  -10.4265   -9.3307 C   0  0  0  0  0  0  0  0  0  0  0  0
   23.4942  -10.8476  -10.0603 C   0  0  0  0  0  0  0  0  0  0  0  0
   24.5442  -10.0052   -9.5803 O   0  0  0  0  0  0  0  0  0  0  0  0
   23.8075  -12.3339   -9.8573 C   0  0  0  0  0  0  0  0  0  0  0  0
   22.5741  -13.1899  -10.2077 C   0  0  0  0  0  0  0  0  0  0  0  0
   21.4748  -12.7560   -9.3894 O   0  0  0  0  0  0  0  0  0  0  0  0
   24.6394  -10.1214   -8.6220 H   0  0  0  0  0  0  0  0  0  0  0  0
   21.8551   -9.0402   -9.6764 N   0  0  0  0  0  0  0  0  0  0  0  0
   21.9702   -7.9872   -8.8480 C   0  0  0  0  0  0  0  0  0  0  0  0
   21.7501   -6.8432   -9.2235 O   0  0  0  0  0  0  0  0  0  0  0  0
   22.3467   -8.2647   -7.4335 C   0  0  0  0  0  0  0  0  0  0  0  0
   21.5060   -8.8719  -10.5814 H   0  0  0  0  0  0  0  0  0  0  0  0
   22.7611  -14.6936   -9.9888 C   0  0  0  0  0  0  0  0  0  0  0  0
   23.3725  -15.2187  -11.1709 O   0  0  0  0  0  0  0  0  0  0  0  0
   22.8039  -15.0391  -11.9360 H   0  0  0  0  0  0  0  0  0  0  0  0
   24.9079  -12.6661  -10.7056 O   0  0  0  0  0  0  0  0  0  0  0  0
   26.0551  -13.1726  -10.0157 C   0  0  0  0  0  0  0  0  0  0  0  0
   27.1549  -12.1258  -10.0655 C   0  0  0  0  0  0  0  0  0  0  0  0
   28.4074  -12.6466   -9.3557 C   0  0  0  0  0  0  0  0  0  0  0  0
   29.2916  -11.5373   -9.1518 O   0  0  0  0  0  0  0  0  0  0  0  0
   28.0438  -13.1545   -7.9546 C   0  0  0  0  0  0  0  0  0  0  0  0
   29.1689  -13.7925   -7.3376 O   0  0  0  0  0  0  0  0  0  0  0  0
   26.8293  -14.0781   -7.9568 C   0  0  0  0  0  0  0  0  0  0  0  0
   25.7530  -13.4366   -8.6477 O   0  0  0  0  0  0  0  0  0  0  0  0
   28.8467  -10.8638   -8.6139 H   0  0  0  0  0  0  0  0  0  0  0  0
   29.4217  -14.5732   -7.8549 H   0  0  0  0  0  0  0  0  0  0  0  0
   27.4062  -11.8479  -11.4644 N   0  0  0  0  0  0  0  0  0  0  0  0
   27.3768  -10.6304  -11.9908 C   0  0  0  0  0  0  0  0  0  0  0  0
   26.8317   -9.6774  -11.4378 O   0  0  0  0  0  0  0  0  0  0  0  0
   28.0381  -10.5525  -13.3440 C   0  0  0  0  0  0  0  0  0  0  0  0
   27.6106  -12.6057  -12.0587 H   0  0  0  0  0  0  0  0  0  0  0  0
   26.3712  -14.3222   -6.5294 C   0  0  0  0  0  0  0  0  0  0  0  0
   26.8432  -13.2663   -5.7103 O   0  0  0  0  0  0  0  0  0  0  0  0
   27.8120  -13.2364   -5.7477 H   0  0  0  0  0  0  0  0  0  0  0  0
   19.9974  -11.0891   -8.7789 O   0  0  0  0  0  0  0  0  0  0  0  0
   17.7037  -13.0662   -6.0284 C   0  0  0  0  0  0  0  0  0  0  0  0
   16.9470  -14.0475   -5.2990 O   0  0  0  0  0  0  0  0  0  0  0  0
   19.2108  -13.2934   -5.8324 C   0  0  0  0  0  0  0  0  0  0  0  0
   19.9750  -12.2607   -6.6625 C   0  0  0  0  0  0  0  0  0  0  0  0
   21.4000  -12.4989   -6.6214 O   0  0  0  0  0  0  0  0  0  0  0  0
   19.4939  -12.2474   -8.1095 C   0  0  0  0  0  0  0  0  0  0  0  0
   17.9747  -12.2369   -8.2422 C   0  0  0  0  0  0  0  0  0  0  0  0
   17.4054  -13.2429   -7.4164 O   0  0  0  0  0  0  0  0  0  0  0  0
   17.1791  -14.9349   -5.6145 H   0  0  0  0  0  0  0  0  0  0  0  0
   21.5944  -13.3647   -7.0131 H   0  0  0  0  0  0  0  0  0  0  0  0
   19.5304  -13.1297   -4.4189 N   0  0  0  0  0  0  0  0  0  0  0  0
   20.1577  -14.0568   -3.6948 C   0  0  0  0  0  0  0  0  0  0  0  0
   20.8106  -13.7969   -2.6941 O   0  0  0  0  0  0  0  0  0  0  0  0
   19.9995  -15.4573   -4.1707 C   0  0  0  0  0  0  0  0  0  0  0  0
   19.2691  -12.2902   -3.9759 H   0  0  0  0  0  0  0  0  0  0  0  0
   17.5959  -12.5777   -9.6850 C   0  0  0  0  0  0  0  0  0  0  0  0
   18.5804  -13.4796  -10.2070 O   0  0  0  0  0  0  0  0  0  0  0  0
   19.4537  -13.0587  -10.1751 H   0  0  0  0  0  0  0  0  0  0  0  0
 18 19  1  0  0  0
 18 25  1  0  0  0
 18 17  1  0  0  0
 19 28  1  0  0  0
 19 20  1  0  0  0
 28 29  1  0  0  0
 29 30  2  0  0  0
 29 31  1  0  0  0
 20 21  1  0  0  0
 20 22  1  0  0  0
 22 23  1  0  0  0
 22 24  1  0  0  0
 24 25  1  0  0  0
 24 33  1  0  0  0
 33 34  1  0  0  0
  1  2  1  0  0  0
  1  7  1  0  0  0
  1 36  1  0  0  0
  2  9  1  0  0  0
  2  3  1  0  0  0
  9 10  1  0  0  0
 10 11  2  0  0  0
 10 12  1  0  0  0
  3  4  1  0  0  0
  3  5  1  0  0  0
  5 17  1  0  0  0
  5  6  1  0  0  0
  6  7  1  0  0  0
  6 14  1  0  0  0
 14 15  1  0  0  0
 37 38  1  0  0  0
 37 39  1  0  0  0
 37 44  1  0  0  0
 39 47  1  0  0  0
 39 40  1  0  0  0
 47 48  1  0  0  0
 48 49  2  0  0  0
 48 50  1  0  0  0
 40 41  1  0  0  0
 40 42  1  0  0  0
 42 36  1  0  0  0
 42 43  1  0  0  0
 43 44  1  0  0  0
 43 52  1  0  0  0
 52 53  1  0  0  0
 28 32  1  0  0  0
 21 26  1  0  0  0
 23 27  1  0  0  0
 34 35  1  0  0  0
  9 13  1  0  0  0
  4  8  1  0  0  0
 15 16  1  0  0  0
 38 45  1  0  0  0
 47 51  1  0  0  0
 41 46  1  0  0  0
 53 54  1  0  0  0
M  END
> <minimizedAffinity>
-6.49139

$$$$
2R0H_CTO_A_165


 54 56  0  0  0  0  0  0  0  0999 V2000
   29.2047   -7.6941  -10.2465 C   0  0  0  0  0  0  0  0  0  0  0  0
   28.6609   -6.6593   -9.2638 C   0  0  0  0  0  0  0  0  0  0  0  0
   27.7627   -7.3408   -8.2239 C   0  0  0  0  0  0  0  0  0  0  0  0
   27.1530   -6.3026   -7.4539 O   0  0  0  0  0  0  0  0  0  0  0  0
   26.7256   -8.2608   -8.8770 C   0  0  0  0  0  0  0  0  0  0  0  0
   27.4182   -9.2384   -9.8471 C   0  0  0  0  0  0  0  0  0  0  0  0
   28.1445   -8.4706  -10.8215 O   0  0  0  0  0  0  0  0  0  0  0  0
   26.6308   -5.7308   -8.0382 H   0  0  0  0  0  0  0  0  0  0  0  0
   29.7428   -5.9130   -8.5995 N   0  0  0  0  0  0  0  0  0  0  0  0
   30.0137   -4.6109   -8.7989 C   0  0  0  0  0  0  0  0  0  0  0  0
   30.8633   -4.0207   -8.1448 O   0  0  0  0  0  0  0  0  0  0  0  0
   29.2603   -3.9105   -9.8766 C   0  0  0  0  0  0  0  0  0  0  0  0
   30.3101   -6.4038   -7.9619 H   0  0  0  0  0  0  0  0  0  0  0  0
   26.4644  -10.1722  -10.5970 C   0  0  0  0  0  0  0  0  0  0  0  0
   26.4113  -11.3987   -9.8625 O   0  0  0  0  0  0  0  0  0  0  0  0
   27.3024  -11.7769   -9.7999 H   0  0  0  0  0  0  0  0  0  0  0  0
   26.0594   -8.9744   -7.8339 O   0  0  0  0  0  0  0  0  0  0  0  0
   24.6821   -9.2599   -8.0984 C   0  0  0  0  0  0  0  0  0  0  0  0
   24.1666  -10.2065   -7.0279 C   0  0  0  0  0  0  0  0  0  0  0  0
   22.6993  -10.5520   -7.2954 C   0  0  0  0  0  0  0  0  0  0  0  0
   22.1722  -11.1773   -6.1186 O   0  0  0  0  0  0  0  0  0  0  0  0
   21.8840   -9.2668   -7.4869 C   0  0  0  0  0  0  0  0  0  0  0  0
   20.5451   -9.5709   -7.8972 O   0  0  0  0  0  0  0  0  0  0  0  0
   22.5404   -8.2886   -8.4566 C   0  0  0  0  0  0  0  0  0  0  0  0
   23.8969   -8.0707   -8.0570 O   0  0  0  0  0  0  0  0  0  0  0  0
   22.2507  -10.5695   -5.3667 H   0  0  0  0  0  0  0  0  0  0  0  0
   20.5640  -10.0142   -8.7598 H   0  0  0  0  0  0  0  0  0  0  0  0
   25.0112  -11.3824   -7.0660 N   0  0  0  0  0  0  0  0  0  0  0  0
   25.6248  -11.8838   -6.0019 C   0  0  0  0  0  0  0  0  0  0  0  0
   25.8017  -11.2410   -4.9691 O   0  0  0  0  0  0  0  0  0  0  0  0
   26.1143  -13.2952   -6.2091 C   0  0  0  0  0  0  0  0  0  0  0  0
   25.1372  -11.8355   -7.9309 H   0  0  0  0  0  0  0  0  0  0  0  0
   21.8271   -6.9492   -8.3914 C   0  0  0  0  0  0  0  0  0  0  0  0
   20.5407   -7.0872   -8.9699 O   0  0  0  0  0  0  0  0  0  0  0  0
   20.6301   -7.3712   -9.8931 H   0  0  0  0  0  0  0  0  0  0  0  0
   29.8389   -6.9773  -11.3037 O   0  0  0  0  0  0  0  0  0  0  0  0
   32.3362  -10.1759  -11.8204 C   0  0  0  0  0  0  0  0  0  0  0  0
   33.3479  -11.0881  -12.2811 O   0  0  0  0  0  0  0  0  0  0  0  0
   32.9669   -9.0455  -10.9923 C   0  0  0  0  0  0  0  0  0  0  0  0
   31.8640   -8.0755  -10.5655 C   0  0  0  0  0  0  0  0  0  0  0  0
   32.4086   -6.9204   -9.8886 O   0  0  0  0  0  0  0  0  0  0  0  0
   31.0268   -7.6288  -11.7592 C   0  0  0  0  0  0  0  0  0  0  0  0
   30.6064   -8.7791  -12.6679 C   0  0  0  0  0  0  0  0  0  0  0  0
   31.7291   -9.5927  -12.9770 O   0  0  0  0  0  0  0  0  0  0  0  0
   33.9885  -10.6099  -12.8305 H   0  0  0  0  0  0  0  0  0  0  0  0
   32.9848   -6.4312  -10.4964 H   0  0  0  0  0  0  0  0  0  0  0  0
   33.6025   -9.6247   -9.8143 N   0  0  0  0  0  0  0  0  0  0  0  0
   34.8650   -9.3783   -9.4641 C   0  0  0  0  0  0  0  0  0  0  0  0
   35.2715   -9.4702   -8.3145 O   0  0  0  0  0  0  0  0  0  0  0  0
   35.7759   -8.9965  -10.5764 C   0  0  0  0  0  0  0  0  0  0  0  0
   33.0712  -10.2297   -9.2478 H   0  0  0  0  0  0  0  0  0  0  0  0
   30.0913   -8.2091  -13.9913 C   0  0  0  0  0  0  0  0  0  0  0  0
   30.2603   -6.7857  -13.9635 O   0  0  0  0  0  0  0  0  0  0  0  0
   29.7630   -6.4156  -13.2174 H   0  0  0  0  0  0  0  0  0  0  0  0
 18 19  1  0  0  0
 18 25  1  0  0  0
 18 17  1  0  0  0
 19 28  1  0  0  0
 19 20  1  0  0  0
 28 29  1  0  0  0
 29 30  2  0  0  0
 29 31  1  0  0  0
 20 21  1  0  0  0
 20 22  1  0  0  0
 22 23  1  0  0  0
 22 24  1  0  0  0
 24 25  1  0  0  0
 24 33  1  0  0  0
 33 34  1  0  0  0
  1  2  1  0  0  0
  1  7  1  0  0  0
  1 36  1  0  0  0
  2  9  1  0  0  0
  2  3  1  0  0  0
  9 10  1  0  0  0
 10 11  2  0  0  0
 10 12  1  0  0  0
  3  4  1  0  0  0
  3  5  1  0  0  0
  5 17  1  0  0  0
  5  6  1  0  0  0
  6  7  1  0  0  0
  6 14  1  0  0  0
 14 15  1  0  0  0
 37 38  1  0  0  0
 37 39  1  0  0  0
 37 44  1  0  0  0
 39 47  1  0  0  0
 39 40  1  0  0  0
 47 48  1  0  0  0
 48 49  2  0  0  0
 48 50  1  0  0  0
 40 41  1  0  0  0
 40 42  1  0  0  0
 42 36  1  0  0  0
 42 43  1  0  0  0
 43 44  1  0  0  0
 43 52  1  0  0  0
 52 53  1  0  0  0
 28 32  1  0  0  0
 21 26  1  0  0  0
 23 27  1  0  0  0
 34 35  1  0  0  0
  9 13  1  0  0  0
  4  8  1  0  0  0
 15 16  1  0  0  0
 38 45  1  0  0  0
 47 51  1  0  0  0
 41 46  1  0  0  0
 53 54  1  0  0  0
M  END
> <minimizedAffinity>
-6.26198

$$$$
2R0H_CTO_A_165


 54 56  0  0  0  0  0  0  0  0999 V2000
   24.5771  -12.5837   -8.2987 C   0  0  0  0  0  0  0  0  0  0  0  0
   24.6768  -13.6194   -7.1807 C   0  0  0  0  0  0  0  0  0  0  0  0
   23.3823  -13.6334   -6.3580 C   0  0  0  0  0  0  0  0  0  0  0  0
   23.6104  -14.4871   -5.2348 O   0  0  0  0  0  0  0  0  0  0  0  0
   22.9566  -12.2234   -5.9350 C   0  0  0  0  0  0  0  0  0  0  0  0
   22.9120  -11.2910   -7.1620 C   0  0  0  0  0  0  0  0  0  0  0  0
   24.2087  -11.2971   -7.7824 O   0  0  0  0  0  0  0  0  0  0  0  0
   24.3485  -14.1402   -4.7096 H   0  0  0  0  0  0  0  0  0  0  0  0
   24.9685  -14.9646   -7.7044 N   0  0  0  0  0  0  0  0  0  0  0  0
   26.0766  -15.6741   -7.4267 C   0  0  0  0  0  0  0  0  0  0  0  0
   26.2186  -16.8270   -7.8124 O   0  0  0  0  0  0  0  0  0  0  0  0
   27.1521  -14.9924   -6.6532 C   0  0  0  0  0  0  0  0  0  0  0  0
   24.3028  -15.3750   -8.3024 H   0  0  0  0  0  0  0  0  0  0  0  0
   22.5476   -9.8385   -6.8434 C   0  0  0  0  0  0  0  0  0  0  0  0
   21.2804   -9.5782   -7.4543 O   0  0  0  0  0  0  0  0  0  0  0  0
   21.3460   -9.7264   -8.4106 H   0  0  0  0  0  0  0  0  0  0  0  0
   21.6658  -12.3219   -5.3308 O   0  0  0  0  0  0  0  0  0  0  0  0
   20.6656  -12.9151   -6.1653 C   0  0  0  0  0  0  0  0  0  0  0  0
   19.8221  -13.8554   -5.3213 C   0  0  0  0  0  0  0  0  0  0  0  0
   18.7554  -14.5264   -6.1906 C   0  0  0  0  0  0  0  0  0  0  0  0
   17.8028  -15.1474   -5.3183 O   0  0  0  0  0  0  0  0  0  0  0  0
   17.9739  -13.4649   -6.9753 C   0  0  0  0  0  0  0  0  0  0  0  0
   17.0825  -14.0804   -7.9134 O   0  0  0  0  0  0  0  0  0  0  0  0
   18.8822  -12.4553   -7.6708 C   0  0  0  0  0  0  0  0  0  0  0  0
   19.8062  -11.9209   -6.7180 O   0  0  0  0  0  0  0  0  0  0  0  0
   17.4047  -14.4752   -4.7432 H   0  0  0  0  0  0  0  0  0  0  0  0
   17.5958  -14.5810   -8.5666 H   0  0  0  0  0  0  0  0  0  0  0  0
   20.7285  -14.8238   -4.7397 N   0  0  0  0  0  0  0  0  0  0  0  0
   20.8580  -15.0206   -3.4341 C   0  0  0  0  0  0  0  0  0  0  0  0
   20.4776  -14.2060   -2.5955 O   0  0  0  0  0  0  0  0  0  0  0  0
   21.5529  -16.3154   -3.0948 C   0  0  0  0  0  0  0  0  0  0  0  0
   21.2801  -15.3670   -5.3479 H   0  0  0  0  0  0  0  0  0  0  0  0
   18.0507  -11.2976   -8.1957 C   0  0  0  0  0  0  0  0  0  0  0  0
   16.8721  -11.1901   -7.4160 O   0  0  0  0  0  0  0  0  0  0  0  0
   16.3674  -12.0162   -7.4774 H   0  0  0  0  0  0  0  0  0  0  0  0
   25.8751  -12.4629   -8.8768 O   0  0  0  0  0  0  0  0  0  0  0  0
   24.0863  -11.4786  -12.4217 C   0  0  0  0  0  0  0  0  0  0  0  0
   23.8134  -11.1020  -13.7824 O   0  0  0  0  0  0  0  0  0  0  0  0
   24.5002  -12.9565  -12.3445 C   0  0  0  0  0  0  0  0  0  0  0  0
   24.8271  -13.2995  -10.8902 C   0  0  0  0  0  0  0  0  0  0  0  0
   25.3450  -14.6432  -10.7673 O   0  0  0  0  0  0  0  0  0  0  0  0
   25.8198  -12.3058  -10.2964 C   0  0  0  0  0  0  0  0  0  0  0  0
   25.4687  -10.8510  -10.5895 C   0  0  0  0  0  0  0  0  0  0  0  0
   25.1886  -10.6853  -11.9723 O   0  0  0  0  0  0  0  0  0  0  0  0
   24.6083  -11.2388  -14.3213 H   0  0  0  0  0  0  0  0  0  0  0  0
   26.1772  -14.7153  -11.2604 H   0  0  0  0  0  0  0  0  0  0  0  0
   23.3910  -13.7799  -12.8121 N   0  0  0  0  0  0  0  0  0  0  0  0
   23.5048  -14.6817  -13.7872 C   0  0  0  0  0  0  0  0  0  0  0  0
   22.7673  -15.6514  -13.8925 O   0  0  0  0  0  0  0  0  0  0  0  0
   24.5896  -14.4268  -14.7727 C   0  0  0  0  0  0  0  0  0  0  0  0
   22.5116  -13.6636  -12.3850 H   0  0  0  0  0  0  0  0  0  0  0  0
   26.6787   -9.9701  -10.2712 C   0  0  0  0  0  0  0  0  0  0  0  0
   26.6462   -9.6496   -8.8742 O   0  0  0  0  0  0  0  0  0  0  0  0
   25.8216   -9.1817   -8.6690 H   0  0  0  0  0  0  0  0  0  0  0  0
 18 19  1  0  0  0
 18 25  1  0  0  0
 18 17  1  0  0  0
 19 28  1  0  0  0
 19 20  1  0  0  0
 28 29  1  0  0  0
 29 30  2  0  0  0
 29 31  1  0  0  0
 20 21  1  0  0  0
 20 22  1  0  0  0
 22 23  1  0  0  0
 22 24  1  0  0  0
 24 25  1  0  0  0
 24 33  1  0  0  0
 33 34  1  0  0  0
  1  2  1  0  0  0
  1  7  1  0  0  0
  1 36  1  0  0  0
  2  9  1  0  0  0
  2  3  1  0  0  0
  9 10  1  0  0  0
 10 11  2  0  0  0
 10 12  1  0  0  0
  3  4  1  0  0  0
  3  5  1  0  0  0
  5 17  1  0  0  0
  5  6  1  0  0  0
  6  7  1  0  0  0
  6 14  1  0  0  0
 14 15  1  0  0  0
 37 38  1  0  0  0
 37 39  1  0  0  0
 37 44  1  0  0  0
 39 47  1  0  0  0
 39 40  1  0  0  0
 47 48  1  0  0  0
 48 49  2  0  0  0
 48 50  1  0  0  0
 40 41  1  0  0  0
 40 42  1  0  0  0
 42 36  1  0  0  0
 42 43  1  0  0  0
 43 44  1  0  0  0
 43 52  1  0  0  0
 52 53  1  0  0  0
 28 32  1  0  0  0
 21 26  1  0  0  0
 23 27  1  0  0  0
 34 35  1  0  0  0
  9 13  1  0  0  0
  4  8  1  0  0  0
 15 16  1  0  0  0
 38 45  1  0  0  0
 47 51  1  0  0  0
 41 46  1  0  0  0
 53 54  1  0  0  0
M  END
> <minimizedAffinity>
-6.20314

$$$$
2R0H_CTO_A_165


 54 56  0  0  0  0  0  0  0  0999 V2000
   20.6518  -10.9109   -9.5700 C   0  0  0  0  0  0  0  0  0  0  0  0
   22.1489  -10.6099   -9.5896 C   0  0  0  0  0  0  0  0  0  0  0  0
   22.7038  -10.7869  -11.0086 C   0  0  0  0  0  0  0  0  0  0  0  0
   24.1249  -10.6649  -10.9197 O   0  0  0  0  0  0  0  0  0  0  0  0
   22.2761  -12.1212  -11.6291 C   0  0  0  0  0  0  0  0  0  0  0  0
   20.7471  -12.2896  -11.5261 C   0  0  0  0  0  0  0  0  0  0  0  0
   20.3739  -12.1972  -10.1409 O   0  0  0  0  0  0  0  0  0  0  0  0
   24.4717  -11.3496  -10.3265 H   0  0  0  0  0  0  0  0  0  0  0  0
   22.4424   -9.2569   -9.0872 N   0  0  0  0  0  0  0  0  0  0  0  0
   23.1642   -8.9857   -7.9855 C   0  0  0  0  0  0  0  0  0  0  0  0
   23.4579   -7.8396   -7.6719 O   0  0  0  0  0  0  0  0  0  0  0  0
   23.5718  -10.1366   -7.1316 C   0  0  0  0  0  0  0  0  0  0  0  0
   22.0834   -8.4942   -9.5958 H   0  0  0  0  0  0  0  0  0  0  0  0
   20.2160  -13.6182  -12.0707 C   0  0  0  0  0  0  0  0  0  0  0  0
   20.8661  -14.6629  -11.3410 O   0  0  0  0  0  0  0  0  0  0  0  0
   21.8263  -14.5896  -11.4576 H   0  0  0  0  0  0  0  0  0  0  0  0
   22.6908  -12.1177  -12.9962 O   0  0  0  0  0  0  0  0  0  0  0  0
   23.6175  -13.1542  -13.3361 C   0  0  0  0  0  0  0  0  0  0  0  0
   25.0283  -12.6022  -13.2240 C   0  0  0  0  0  0  0  0  0  0  0  0
   26.0456  -13.6810  -13.6051 C   0  0  0  0  0  0  0  0  0  0  0  0
   27.3416  -13.2305  -13.1911 O   0  0  0  0  0  0  0  0  0  0  0  0
   25.7742  -14.9633  -12.8080 C   0  0  0  0  0  0  0  0  0  0  0  0
   26.6110  -16.0328  -13.2659 O   0  0  0  0  0  0  0  0  0  0  0  0
   24.3052  -15.3747  -12.8313 C   0  0  0  0  0  0  0  0  0  0  0  0
   23.4990  -14.2585  -12.4423 O   0  0  0  0  0  0  0  0  0  0  0  0
   27.3412  -13.0817  -12.2325 H   0  0  0  0  0  0  0  0  0  0  0  0
   26.3997  -16.2354  -14.1907 H   0  0  0  0  0  0  0  0  0  0  0  0
   25.1022  -11.4575  -14.1082 N   0  0  0  0  0  0  0  0  0  0  0  0
   25.9156  -10.4276  -13.9139 C   0  0  0  0  0  0  0  0  0  0  0  0
   26.4404  -10.1872  -12.8285 O   0  0  0  0  0  0  0  0  0  0  0  0
   26.0902   -9.5692  -15.1416 C   0  0  0  0  0  0  0  0  0  0  0  0
   24.5153  -11.4429  -14.8985 H   0  0  0  0  0  0  0  0  0  0  0  0
   24.0689  -16.4808  -11.8175 C   0  0  0  0  0  0  0  0  0  0  0  0
   25.0244  -16.3604  -10.7777 O   0  0  0  0  0  0  0  0  0  0  0  0
   25.9174  -16.4354  -11.1489 H   0  0  0  0  0  0  0  0  0  0  0  0
   20.2483  -10.9476   -8.2028 O   0  0  0  0  0  0  0  0  0  0  0  0
   18.5818  -13.6576   -5.6310 C   0  0  0  0  0  0  0  0  0  0  0  0
   17.8451  -14.7437   -5.0435 O   0  0  0  0  0  0  0  0  0  0  0  0
   19.8564  -14.1781   -6.3135 C   0  0  0  0  0  0  0  0  0  0  0  0
   20.5812  -12.9990   -6.9647 C   0  0  0  0  0  0  0  0  0  0  0  0
   21.7243  -13.4393   -7.7317 O   0  0  0  0  0  0  0  0  0  0  0  0
   19.6403  -12.1933   -7.8540 C   0  0  0  0  0  0  0  0  0  0  0  0
   18.2990  -11.8875   -7.1958 C   0  0  0  0  0  0  0  0  0  0  0  0
   17.7488  -13.0713   -6.6355 O   0  0  0  0  0  0  0  0  0  0  0  0
   17.5999  -15.3791   -5.7342 H   0  0  0  0  0  0  0  0  0  0  0  0
   21.4268  -14.0126   -8.4553 H   0  0  0  0  0  0  0  0  0  0  0  0
   20.7123  -14.7916   -5.3044 N   0  0  0  0  0  0  0  0  0  0  0  0
   21.2254  -16.0164   -5.4217 C   0  0  0  0  0  0  0  0  0  0  0  0
   22.2492  -16.3710   -4.8548 O   0  0  0  0  0  0  0  0  0  0  0  0
   20.4561  -16.9540   -6.2830 C   0  0  0  0  0  0  0  0  0  0  0  0
   20.9222  -14.2738   -4.4938 H   0  0  0  0  0  0  0  0  0  0  0  0
   17.3166  -11.4016   -8.2637 C   0  0  0  0  0  0  0  0  0  0  0  0
   17.5349  -12.1665   -9.4564 O   0  0  0  0  0  0  0  0  0  0  0  0
   18.4496  -12.0451   -9.7555 H   0  0  0  0  0  0  0  0  0  0  0  0
 18 19  1  0  0  0
 18 25  1  0  0  0
 18 17  1  0  0  0
 19 28  1  0  0  0
 19 20  1  0  0  0
 28 29  1  0  0  0
 29 30  2  0  0  0
 29 31  1  0  0  0
 20 21  1  0  0  0
 20 22  1  0  0  0
 22 23  1  0  0  0
 22 24  1  0  0  0
 24 25  1  0  0  0
 24 33  1  0  0  0
 33 34  1  0  0  0
  1  2  1  0  0  0
  1  7  1  0  0  0
  1 36  1  0  0  0
  2  9  1  0  0  0
  2  3  1  0  0  0
  9 10  1  0  0  0
 10 11  2  0  0  0
 10 12  1  0  0  0
  3  4  1  0  0  0
  3  5  1  0  0  0
  5 17  1  0  0  0
  5  6  1  0  0  0
  6  7  1  0  0  0
  6 14  1  0  0  0
 14 15  1  0  0  0
 37 38  1  0  0  0
 37 39  1  0  0  0
 37 44  1  0  0  0
 39 47  1  0  0  0
 39 40  1  0  0  0
 47 48  1  0  0  0
 48 49  2  0  0  0
 48 50  1  0  0  0
 40 41  1  0  0  0
 40 42  1  0  0  0
 42 36  1  0  0  0
 42 43  1  0  0  0
 43 44  1  0  0  0
 43 52  1  0  0  0
 52 53  1  0  0  0
 28 32  1  0  0  0
 21 26  1  0  0  0
 23 27  1  0  0  0
 34 35  1  0  0  0
  9 13  1  0  0  0
  4  8  1  0  0  0
 15 16  1  0  0  0
 38 45  1  0  0  0
 47 51  1  0  0  0
 41 46  1  0  0  0
 53 54  1  0  0  0
M  END
> <minimizedAffinity>
-6.07983

$$$$
