2R0H_CTO_A_165
  RCSB PDB12061706523D
Coordinates from PDB:2R0H:A:165 Model:1 without hydrogens
 43 45  0  0  0  0            999 V2000
   24.7800   -9.3600   -8.0400   C 0  0  0  0  0  0  0  0  0  0  0  0
   24.2290  -10.3140   -6.9940   C 0  0  0  0  0  0  0  0  0  0  0  0
   25.0880  -11.4800   -6.9960   N 0  0  0  0  0  0  0  0  0  0  0  0
   25.6340  -11.9950   -5.9020   C 0  0  0  0  0  0  0  0  0  0  0  0
   25.7330  -11.3700   -4.8480   O 0  0  0  0  0  0  0  0  0  0  0  0
   26.1530  -13.3970   -6.1010   C 0  0  0  0  0  0  0  0  0  0  0  0
   22.7790  -10.6760   -7.3260   C 0  0  0  0  0  0  0  0  0  0  0  0
   22.2080  -11.3090   -6.1740   O 0  0  0  0  0  0  0  0  0  0  0  0
   21.9580   -9.4000   -7.5520   C 0  0  0  0  0  0  0  0  0  0  0  0
   20.6420   -9.7190   -8.0210   O 0  0  0  0  0  0  0  0  0  0  0  0
   22.6450   -8.4130   -8.4910   C 0  0  0  0  0  0  0  0  0  0  0  0
   23.9800   -8.1800   -8.0320   O 0  0  0  0  0  0  0  0  0  0  0  0
   21.9140   -7.0820   -8.4560   C 0  0  0  0  0  0  0  0  0  0  0  0
   22.6750   -6.1230   -9.1700   O 0  0  0  0  0  0  0  0  0  0  0  0
   29.3680   -7.4530   -9.8030   C 0  0  0  0  0  0  0  0  0  0  0  0
   28.5690   -6.4640   -8.9570   C 0  0  0  0  0  0  0  0  0  0  0  0
   29.4470   -5.5450   -8.2130   N 0  0  0  0  0  0  0  0  0  0  0  0
   29.8160   -4.3230   -8.6360   C 0  0  0  0  0  0  0  0  0  0  0  0
   30.4680   -3.5650   -7.9300   O 0  0  0  0  0  0  0  0  0  0  0  0
   29.4290   -3.9300  -10.0200   C 0  0  0  0  0  0  0  0  0  0  0  0
   27.6450   -7.2200   -7.9940   C 0  0  0  0  0  0  0  0  0  0  0  0
   26.8080   -6.2460   -7.3670   O 0  0  0  0  0  0  0  0  0  0  0  0
   26.8330   -8.3040   -8.7110   C 0  0  0  0  0  0  0  0  0  0  0  0
   26.1410   -9.0590   -7.7150   O 0  0  0  0  0  0  0  0  0  0  0  0
   27.7690   -9.2150   -9.5300   C 0  0  0  0  0  0  0  0  0  0  0  0
   28.5040   -8.3950  -10.4540   O 0  0  0  0  0  0  0  0  0  0  0  0
   27.0530  -10.3050  -10.3320   C 0  0  0  0  0  0  0  0  0  0  0  0
   26.2090   -9.6450  -11.2800   O 0  0  0  0  0  0  0  0  0  0  0  0
   33.4810   -7.1160  -12.9740   C 0  0  0  0  0  0  0  0  0  0  0  0
   34.7090   -7.5910  -13.5520   O 0  0  0  0  0  0  0  0  0  0  0  0
   32.2750   -7.8110  -13.6250   C 0  0  0  0  0  0  0  0  0  0  0  0
   32.2490   -7.4750  -15.0440   N 0  0  0  0  0  0  0  0  0  0  0  0
   32.1170   -8.3820  -16.0120   C 0  0  0  0  0  0  0  0  0  0  0  0
   31.6600   -8.1220  -17.1160   O 0  0  0  0  0  0  0  0  0  0  0  0
   32.5850   -9.7530  -15.6740   C 0  0  0  0  0  0  0  0  0  0  0  0
   30.9970   -7.3130  -12.9480   C 0  0  0  0  0  0  0  0  0  0  0  0
   29.8330   -8.0220  -13.4290   O 0  0  0  0  0  0  0  0  0  0  0  0
   31.0890   -7.4380  -11.4310   C 0  0  0  0  0  0  0  0  0  0  0  0
   30.0300   -6.7000  -10.8170   O 0  0  0  0  0  0  0  0  0  0  0  0
   32.4060   -6.9230  -10.8600   C 0  0  0  0  0  0  0  0  0  0  0  0
   33.4990   -7.4660  -11.5870   O 0  0  0  0  0  0  0  0  0  0  0  0
   32.5480   -7.4060   -9.4150   C 0  0  0  0  0  0  0  0  0  0  0  0
   33.1360   -6.3500   -8.6440   O 0  0  0  0  0  0  0  0  0  0  0  0
  1  2  1  0  0  0  0
  1 12  1  0  0  0  0
  1 24  1  0  0  0  0
  2  3  1  0  0  0  0
  2  7  1  0  0  0  0
  3  4  1  0  0  0  0
  4  5  2  0  0  0  0
  4  6  1  0  0  0  0
  7  8  1  0  0  0  0
  7  9  1  0  0  0  0
  9 10  1  0  0  0  0
  9 11  1  0  0  0  0
 11 12  1  0  0  0  0
 11 13  1  0  0  0  0
 13 14  1  0  0  0  0
 15 16  1  0  0  0  0
 15 26  1  0  0  0  0
 15 39  1  0  0  0  0
 16 17  1  0  0  0  0
 16 21  1  0  0  0  0
 17 18  1  0  0  0  0
 18 19  2  0  0  0  0
 18 20  1  0  0  0  0
 21 22  1  0  0  0  0
 21 23  1  0  0  0  0
 23 24  1  0  0  0  0
 23 25  1  0  0  0  0
 25 26  1  0  0  0  0
 25 27  1  0  0  0  0
 27 28  1  0  0  0  0
 29 30  1  0  0  0  0
 29 31  1  0  0  0  0
 29 41  1  0  0  0  0
 31 32  1  0  0  0  0
 31 36  1  0  0  0  0
 32 33  1  0  0  0  0
 33 34  2  0  0  0  0
 33 35  1  0  0  0  0
 36 37  1  0  0  0  0
 36 38  1  0  0  0  0
 38 39  1  0  0  0  0
 38 40  1  0  0  0  0
 40 41  1  0  0  0  0
 40 42  1  0  0  0  0
 42 43  1  0  0  0  0
A    1
C11
A    2
C21
A    3
N21
A    4
C71
A    5
O71
A    6
C81
A    7
C31
A    8
O31
A    9
C41
A   10
O41
A   11
C51
A   12
O51
A   13
C61
A   14
O61
A   15
C12
A   16
C22
A   17
N22
A   18
C72
A   19
O72
A   20
C82
A   21
C32
A   22
O32
A   23
C42
A   24
O42
A   25
C52
A   26
O52
A   27
C62
A   28
O62
A   29
C13
A   30
O13
A   31
C23
A   32
N23
A   33
C73
A   34
O73
A   35
C83
A   36
C33
A   37
O33
A   38
C43
A   39
O43
A   40
C53
A   41
O53
A   42
C63
A   43
O63
M  END
>  <InstanceId>
2R0H_CTO_A_165

>  <ChemCompId>
CTO

>  <PdbId>
2R0H

>  <ChainId>
A

>  <ResidueNumber>
165

>  <InsertionCode>


>  <Model>
1

>  <AltIds>


>  <MissingHeavyAtoms>
0

>  <ObservedFormula>
C24 N3 O16

>  <Name>
TRIACETYLCHITOTRIOSE

>  <SystematicName>
N-[(2S,3R,4R,5S,6R)-2-[(2R,3S,4R,5R,6S)-5-acetamido-6-[(2R,3S,4R,5R,6R)-5-acetamido-4,6-dihydroxy-2-(hydroxymethyl)oxan-3-yl]oxy-4-hydroxy-2-(hydroxymethyl)oxan-3-yl]oxy-4,5-dihydroxy-6-(hydroxymethyl)oxan-3-yl]ethanamide

>  <Synonyms>
CHITOTRIOSE

>  <Type>
D-SACCHARIDE

>  <Formula>
C24 H41 N3 O16

>  <MolecularWeight>
627.593

>  <ModifiedDate>
2011-06-04

>  <Parent>


>  <OneLetterCode>


>  <SubcomponentList>


>  <AmbiguousFlag>
N

>  <InChI>
InChI=1S/C24H41N3O16/c1-7(31)25-13-18(36)20(11(5-29)39-22(13)38)42-24-15(27-9(3)33)19(37)21(12(6-30)41-24)43-23-14(26-8(2)32)17(35)16(34)10(4-28)40-23/h10-24,28-30,34-38H,4-6H2,1-3H3,(H,25,31)(H,26,32)(H,27,33)/t10-,11-,12-,13-,14-,15-,16-,17-,18-,19-,20-,21-,22-,23+,24+/m1/s1

>  <InChIKey>
WZZVUHWLNMNWLW-VFCSDQTKSA-N

>  <SMILES>
CC(=O)N[C@@H]1[C@H]([C@@H]([C@H](O[C@H]1O)CO)O[C@H]2[C@@H]([C@H]([C@@H]([C@H](O2)CO)O[C@H]3[C@@H]([C@H]([C@@H]([C@H](O3)CO)O)O)NC(=O)C)O)NC(=O)C)O

$$$$
