3F5J_CTT_A_1000
  RCSB PDB12061708333D
Coordinates from PDB:3F5J:A:1000 Model:1 without hydrogens
 45 48  0  0  0  0            999 V2000
   -2.5320   -0.8940   51.8550   O 0  0  0  0  0  0  0  0  0  0  0  0
   -1.3140   -0.4650   51.2130   C 0  0  0  0  0  0  0  0  0  0  0  0
   -0.8350   -1.6100   50.3300   C 0  0  0  0  0  0  0  0  0  0  0  0
   -0.5050   -2.7550   51.1230   O 0  0  0  0  0  0  0  0  0  0  0  0
    0.3820   -1.1910   49.5270   C 0  0  0  0  0  0  0  0  0  0  0  0
    0.7530   -2.2840   48.6690   O 0  0  0  0  0  0  0  0  0  0  0  0
   -1.5930    0.7250   50.4530   O 0  0  0  0  0  0  0  0  0  0  0  0
   -0.6350    1.2020   49.4910   C 0  0  0  0  0  0  0  0  0  0  0  0
   -1.4160    2.0720   48.4970   C 0  0  0  0  0  0  0  0  0  0  0  0
   -1.4290    3.4540   48.8620   O 0  0  0  0  0  0  0  0  0  0  0  0
    0.0710    0.0710   48.7100   C 0  0  0  0  0  0  0  0  0  0  0  0
    1.2930    0.5390   48.1280   O 0  0  0  0  0  0  0  0  0  0  0  0
    1.2070    0.7230   46.6710   C 0  0  0  0  0  0  0  0  0  0  0  0
    2.4600    1.4270   46.1250   C 0  0  0  0  0  0  0  0  0  0  0  0
    2.5970    2.6720   46.8150   O 0  0  0  0  0  0  0  0  0  0  0  0
    2.3610    1.6680   44.6170   C 0  0  0  0  0  0  0  0  0  0  0  0
    3.6050    2.1910   44.1000   O 0  0  0  0  0  0  0  0  0  0  0  0
    0.9950   -0.5290   45.9960   O 0  0  0  0  0  0  0  0  0  0  0  0
    0.7680   -0.2920   44.5920   C 0  0  0  0  0  0  0  0  0  0  0  0
    0.3590   -1.6020   43.9540   C 0  0  0  0  0  0  0  0  0  0  0  0
   -0.9530   -1.7840   44.4820   O 0  0  0  0  0  0  0  0  0  0  0  0
    1.9470    0.3870   43.8770   C 0  0  0  0  0  0  0  0  0  0  0  0
    1.5100    0.7420   42.5610   O 0  0  0  0  0  0  0  0  0  0  0  0
    2.4280    0.4540   41.4790   C 0  0  0  0  0  0  0  0  0  0  0  0
    1.6930    0.4520   40.1430   C 0  0  0  0  0  0  0  0  0  0  0  0
    0.6760   -0.5470   40.1980   O 0  0  0  0  0  0  0  0  0  0  0  0
    2.6790    0.1500   39.0220   C 0  0  0  0  0  0  0  0  0  0  0  0
    2.0720    0.1720   37.7070   O 0  0  0  0  0  0  0  0  0  0  0  0
    3.4390    1.4570   41.3520   O 0  0  0  0  0  0  0  0  0  0  0  0
    4.4850    1.1160   40.4150   C 0  0  0  0  0  0  0  0  0  0  0  0
    5.6440    2.0940   40.5650   C 0  0  0  0  0  0  0  0  0  0  0  0
    6.0020    2.1900   41.9650   O 0  0  0  0  0  0  0  0  0  0  0  0
    3.8780    1.0840   39.0130   C 0  0  0  0  0  0  0  0  0  0  0  0
    4.7230    0.4460   38.0650   O 0  0  0  0  0  0  0  0  0  0  0  0
    5.5230    1.2320   37.1220   C 0  0  0  0  0  0  0  0  0  0  0  0
    5.8550    0.3820   35.8440   C 0  0  0  0  0  0  0  0  0  0  0  0
    7.2640    0.1910   35.5420   O 0  0  0  0  0  0  0  0  0  0  0  0
    5.1830    0.9040   34.5900   C 0  0  0  0  0  0  0  0  0  0  0  0
    5.1180   -0.1210   33.5850   O 0  0  0  0  0  0  0  0  0  0  0  0
    3.8240    1.4330   35.0470   C 0  0  0  0  0  0  0  0  0  0  0  0
    3.0590    1.6690   33.8820   O 0  0  0  0  0  0  0  0  0  0  0  0
    4.9490    2.5650   36.9060   O 0  0  0  0  0  0  0  0  0  0  0  0
    4.1460    2.7720   35.7170   C 0  0  0  0  0  0  0  0  0  0  0  0
    2.9670    3.7130   36.0480   C 0  0  0  0  0  0  0  0  0  0  0  0
    1.8760    3.0400   36.7450   O 0  0  0  0  0  0  0  0  0  0  0  0
  1  2  1  0  0  0  0
  2  7  1  0  0  0  0
  2  3  1  0  0  0  0
  4  3  1  0  0  0  0
  3  5  1  0  0  0  0
  5 11  1  0  0  0  0
  5  6  1  0  0  0  0
  7  8  1  0  0  0  0
  8 11  1  0  0  0  0
  8  9  1  0  0  0  0
 10  9  1  0  0  0  0
 11 12  1  0  0  0  0
 12 13  1  0  0  0  0
 13 14  1  0  0  0  0
 13 18  1  0  0  0  0
 15 14  1  0  0  0  0
 14 16  1  0  0  0  0
 16 17  1  0  0  0  0
 16 22  1  0  0  0  0
 18 19  1  0  0  0  0
 19 20  1  0  0  0  0
 19 22  1  0  0  0  0
 21 20  1  0  0  0  0
 22 23  1  0  0  0  0
 23 24  1  0  0  0  0
 24 29  1  0  0  0  0
 24 25  1  0  0  0  0
 26 25  1  0  0  0  0
 25 27  1  0  0  0  0
 27 33  1  0  0  0  0
 27 28  1  0  0  0  0
 29 30  1  0  0  0  0
 31 30  1  0  0  0  0
 30 33  1  0  0  0  0
 32 31  1  0  0  0  0
 33 34  1  0  0  0  0
 34 35  1  0  0  0  0
 35 42  1  0  0  0  0
 35 36  1  0  0  0  0
 36 37  1  0  0  0  0
 36 38  1  0  0  0  0
 40 38  1  0  0  0  0
 38 39  1  0  0  0  0
 43 40  1  0  0  0  0
 40 41  1  0  0  0  0
 42 43  1  0  0  0  0
 44 43  1  0  0  0  0
 45 44  1  0  0  0  0
A    1
O1B
A    2
C1B
A    3
C2B
A    4
O2B
A    5
C3B
A    6
O3B
A    7
O5B
A    8
C5B
A    9
C6B
A   10
O6B
A   11
C4B
A   12
O4B
A   13
C1C
A   14
C2C
A   15
O2C
A   16
C3C
A   17
O3C
A   18
O5C
A   19
C5C
A   20
C6C
A   21
O6C
A   22
C4C
A   23
O4C
A   24
C1D
A   25
C2D
A   26
O2D
A   27
C3D
A   28
O3D
A   29
O5D
A   30
C5D
A   31
C6D
A   32
O6D
A   33
C4D
A   34
O4D
A   35
C1E
A   36
C2E
A   37
O2E
A   38
C3E
A   39
O3E
A   40
C4E
A   41
O4E
A   42
O5E
A   43
C5E
A   44
C6E
A   45
O6E
M  END
>  <InstanceId>
3F5J_CTT_A_1000

>  <ChemCompId>
CTT

>  <PdbId>
3F5J

>  <ChainId>
A

>  <ResidueNumber>
1000

>  <InsertionCode>


>  <Model>
1

>  <AltIds>


>  <MissingHeavyAtoms>
0

>  <ObservedFormula>
C24 O21

>  <Name>
beta-D-glucopyranosyl-(1->4)-beta-D-glucopyranosyl-(1->4)-beta-D-glucopyranosyl-(1->4)-beta-D-glucopyranose

>  <SystematicName>
(2R,3R,4R,5S,6R)-5-[(2S,3R,4R,5S,6R)-5-[(2S,3R,4R,5S,6R)-3,4-dihydroxy-6-(hydroxymethyl)-5-[(2S,3R,4S,5S,6R)-3,4,5-trihydroxy-6-(hydroxymethyl)oxan-2-yl]oxy-oxan-2-yl]oxy-3,4-dihydroxy-6-(hydroxymethyl)oxan-2-yl]oxy-6-(hydroxymethyl)oxane-2,3,4-triol

>  <Synonyms>
CELLOTETRAOSE

>  <Type>
D-saccharide 1,4 and 1,4 linking

>  <Formula>
C24 H42 O21

>  <MolecularWeight>
666.578

>  <ModifiedDate>
2011-06-04

>  <Parent>


>  <OneLetterCode>


>  <SubcomponentList>


>  <AmbiguousFlag>
N

>  <InChI>
InChI=1S/C24H42O21/c25-1-5-9(29)10(30)15(35)22(40-5)44-19-7(3-27)42-24(17(37)12(19)32)45-20-8(4-28)41-23(16(36)13(20)33)43-18-6(2-26)39-21(38)14(34)11(18)31/h5-38H,1-4H2/t5-,6-,7-,8-,9-,10+,11-,12-,13-,14-,15-,16-,17-,18-,19-,20-,21-,22+,23+,24+/m1/s1

>  <InChIKey>
LUEWUZLMQUOBSB-HGDSAIHNSA-N

>  <SMILES>
C([C@@H]1[C@H]([C@@H]([C@H]([C@@H](O1)O[C@@H]2[C@H](O[C@H]([C@@H]([C@H]2O)O)O[C@@H]3[C@H](O[C@H]([C@@H]([C@H]3O)O)O[C@@H]4[C@H](O[C@H]([C@@H]([C@H]4O)O)O)CO)CO)CO)O)O)O)O

$$$$
