3F5J_CTT_A_1000


 59 62  0  0  0  0  0  0  0  0999 V2000
    1.1914    0.8980   42.3794 O   0  0  0  0  0  0  0  0  0  0  0  0
    0.5339    0.4989   46.4282 C   0  0  0  0  0  0  0  0  0  0  0  0
    1.9027    1.0930   46.0577 C   0  0  0  0  0  0  0  0  0  0  0  0
    2.1231    2.2344   46.8904 O   0  0  0  0  0  0  0  0  0  0  0  0
    1.9632    1.4966   44.5828 C   0  0  0  0  0  0  0  0  0  0  0  0
    3.2995    1.9103   44.2202 O   0  0  0  0  0  0  0  0  0  0  0  0
    0.2372   -0.6417   45.6041 O   0  0  0  0  0  0  0  0  0  0  0  0
    0.1615   -0.2366   44.2224 C   0  0  0  0  0  0  0  0  0  0  0  0
    1.4688    0.3593   43.6762 C   0  0  0  0  0  0  0  0  0  0  0  0
    1.4235    2.8881   46.7348 H   0  0  0  0  0  0  0  0  0  0  0  0
    3.9119    1.1680   44.3419 H   0  0  0  0  0  0  0  0  0  0  0  0
   -0.3401   -1.4136   43.4140 C   0  0  0  0  0  0  0  0  0  0  0  0
   -1.1090   -0.7644   42.4038 O   0  0  0  0  0  0  0  0  0  0  0  0
   -1.7919   -0.2155   42.8200 H   0  0  0  0  0  0  0  0  0  0  0  0
    0.4716    0.1583   47.8579 O   0  0  0  0  0  0  0  0  0  0  0  0
   -0.6108   -4.6073   50.4450 O   0  0  0  0  0  0  0  0  0  0  0  0
   -0.3006   -3.2308   50.1470 C   0  0  0  0  0  0  0  0  0  0  0  0
    1.0167   -3.2143   49.3824 C   0  0  0  0  0  0  0  0  0  0  0  0
    2.0811   -3.7119   50.1998 O   0  0  0  0  0  0  0  0  0  0  0  0
    1.3521   -1.8062   48.9282 C   0  0  0  0  0  0  0  0  0  0  0  0
    2.5679   -1.8583   48.1618 O   0  0  0  0  0  0  0  0  0  0  0  0
   -1.3816   -2.6757   49.3757 O   0  0  0  0  0  0  0  0  0  0  0  0
   -1.2089   -1.4150   48.7036 C   0  0  0  0  0  0  0  0  0  0  0  0
    0.1993   -1.2275   48.0958 C   0  0  0  0  0  0  0  0  0  0  0  0
   -1.4475   -4.6517   50.9336 H   0  0  0  0  0  0  0  0  0  0  0  0
    2.1845   -3.1422   50.9781 H   0  0  0  0  0  0  0  0  0  0  0  0
    2.4422   -2.4391   47.3951 H   0  0  0  0  0  0  0  0  0  0  0  0
   -2.2417   -1.3842   47.5691 C   0  0  0  0  0  0  0  0  0  0  0  0
   -1.9480   -2.3180   46.5274 O   0  0  0  0  0  0  0  0  0  0  0  0
   -1.0924   -2.0973   46.1271 H   0  0  0  0  0  0  0  0  0  0  0  0
    2.1221    0.5504   41.3261 C   0  0  0  0  0  0  0  0  0  0  0  0
    1.4450    0.6477   39.9633 C   0  0  0  0  0  0  0  0  0  0  0  0
    0.3386   -0.2530   39.9528 O   0  0  0  0  0  0  0  0  0  0  0  0
    2.4436    0.2807   38.8733 C   0  0  0  0  0  0  0  0  0  0  0  0
    1.8951    0.3894   37.5371 O   0  0  0  0  0  0  0  0  0  0  0  0
    3.2258    1.4573   41.2647 O   0  0  0  0  0  0  0  0  0  0  0  0
    4.2730    1.0417   40.3597 C   0  0  0  0  0  0  0  0  0  0  0  0
    3.7231    1.0986   38.9351 C   0  0  0  0  0  0  0  0  0  0  0  0
    0.6546   -1.1552   40.1177 H   0  0  0  0  0  0  0  0  0  0  0  0
    1.6832    1.3171   37.3490 H   0  0  0  0  0  0  0  0  0  0  0  0
    5.5103    1.9035   40.5799 C   0  0  0  0  0  0  0  0  0  0  0  0
    5.3434    2.6653   41.8003 O   0  0  0  0  0  0  0  0  0  0  0  0
    4.5579    3.2293   41.7245 H   0  0  0  0  0  0  0  0  0  0  0  0
    4.5434    0.4064   38.0036 O   0  0  0  0  0  0  0  0  0  0  0  0
    5.4077    1.1382   37.0738 C   0  0  0  0  0  0  0  0  0  0  0  0
    5.7828    0.2330   35.8467 C   0  0  0  0  0  0  0  0  0  0  0  0
    7.2002    0.0000   35.6238 O   0  0  0  0  0  0  0  0  0  0  0  0
    5.1867    0.7212   34.5418 C   0  0  0  0  0  0  0  0  0  0  0  0
    5.1476   -0.3398   33.5735 O   0  0  0  0  0  0  0  0  0  0  0  0
    3.8195    1.2967   34.9094 C   0  0  0  0  0  0  0  0  0  0  0  0
    3.1193    1.5046   33.6991 O   0  0  0  0  0  0  0  0  0  0  0  0
    4.8769    2.4742   36.7798 O   0  0  0  0  0  0  0  0  0  0  0  0
    4.1392    2.6530   35.5447 C   0  0  0  0  0  0  0  0  0  0  0  0
    7.6257    0.8290   35.3543 H   0  0  0  0  0  0  0  0  0  0  0  0
    4.6288   -1.0799   33.9255 H   0  0  0  0  0  0  0  0  0  0  0  0
    3.6464    2.0706   33.1137 H   0  0  0  0  0  0  0  0  0  0  0  0
    2.9678    3.6314   35.7804 C   0  0  0  0  0  0  0  0  0  0  0  0
    2.1102    3.2395   36.8939 O   0  0  0  0  0  0  0  0  0  0  0  0
    1.7089    2.3768   36.7050 H   0  0  0  0  0  0  0  0  0  0  0  0
 16 17  1  0  0  0
 17 22  1  0  0  0
 17 18  1  0  0  0
 19 18  1  0  0  0
 18 20  1  0  0  0
 20 24  1  0  0  0
 20 21  1  0  0  0
 22 23  1  0  0  0
 23 24  1  0  0  0
 23 28  1  0  0  0
 29 28  1  0  0  0
 24 15  1  0  0  0
 15  2  1  0  0  0
  2  3  1  0  0  0
  2  7  1  0  0  0
  4  3  1  0  0  0
  3  5  1  0  0  0
  5  6  1  0  0  0
  5  9  1  0  0  0
  7  8  1  0  0  0
  8 12  1  0  0  0
  8  9  1  0  0  0
 13 12  1  0  0  0
  9  1  1  0  0  0
  1 31  1  0  0  0
 31 36  1  0  0  0
 31 32  1  0  0  0
 33 32  1  0  0  0
 32 34  1  0  0  0
 34 38  1  0  0  0
 34 35  1  0  0  0
 36 37  1  0  0  0
 41 37  1  0  0  0
 37 38  1  0  0  0
 42 41  1  0  0  0
 38 44  1  0  0  0
 44 45  1  0  0  0
 45 52  1  0  0  0
 45 46  1  0  0  0
 46 47  1  0  0  0
 46 48  1  0  0  0
 50 48  1  0  0  0
 48 49  1  0  0  0
 53 50  1  0  0  0
 50 51  1  0  0  0
 52 53  1  0  0  0
 57 53  1  0  0  0
 58 57  1  0  0  0
 16 25  1  0  0  0
 19 26  1  0  0  0
 21 27  1  0  0  0
 29 30  1  0  0  0
  4 10  1  0  0  0
  6 11  1  0  0  0
 13 14  1  0  0  0
 33 39  1  0  0  0
 35 40  1  0  0  0
 42 43  1  0  0  0
 47 54  1  0  0  0
 49 55  1  0  0  0
 51 56  1  0  0  0
 58 59  1  0  0  0
M  END
> <minimizedAffinity>
-11.84705

$$$$
3F5J_CTT_A_1000


 59 62  0  0  0  0  0  0  0  0999 V2000
    1.3149    0.7900   42.5544 O   0  0  0  0  0  0  0  0  0  0  0  0
    1.2559    1.0600   46.6663 C   0  0  0  0  0  0  0  0  0  0  0  0
    2.4788    1.7112   45.9997 C   0  0  0  0  0  0  0  0  0  0  0  0
    2.6644    2.9996   46.5916 O   0  0  0  0  0  0  0  0  0  0  0  0
    2.2921    1.8478   44.4870 C   0  0  0  0  0  0  0  0  0  0  0  0
    3.5066    2.3204   43.8625 O   0  0  0  0  0  0  0  0  0  0  0  0
    0.9962   -0.2336   46.0942 O   0  0  0  0  0  0  0  0  0  0  0  0
    0.6880   -0.0924   44.6928 C   0  0  0  0  0  0  0  0  0  0  0  0
    1.8268    0.5228   43.8641 C   0  0  0  0  0  0  0  0  0  0  0  0
    1.8746    3.5419   46.4399 H   0  0  0  0  0  0  0  0  0  0  0  0
    4.2172    1.6766   44.0089 H   0  0  0  0  0  0  0  0  0  0  0  0
    0.2335   -1.4392   44.1732 C   0  0  0  0  0  0  0  0  0  0  0  0
   -0.6023   -1.0613   43.0815 O   0  0  0  0  0  0  0  0  0  0  0  0
   -1.3040   -0.4724   43.4002 H   0  0  0  0  0  0  0  0  0  0  0  0
    1.4269    0.9769   48.1250 O   0  0  0  0  0  0  0  0  0  0  0  0
   -3.8641    2.0091   49.3559 O   0  0  0  0  0  0  0  0  0  0  0  0
   -2.6367    1.6946   48.6672 C   0  0  0  0  0  0  0  0  0  0  0  0
   -1.7105    2.8951   48.8124 C   0  0  0  0  0  0  0  0  0  0  0  0
   -2.2674    4.0435   48.1644 O   0  0  0  0  0  0  0  0  0  0  0  0
   -0.3497    2.5943   48.2131 C   0  0  0  0  0  0  0  0  0  0  0  0
    0.5001    3.7338   48.4320 O   0  0  0  0  0  0  0  0  0  0  0  0
   -2.0768    0.5046   49.2521 O   0  0  0  0  0  0  0  0  0  0  0  0
   -0.7202    0.1291   48.9530 C   0  0  0  0  0  0  0  0  0  0  0  0
    0.2450    1.3314   48.8521 C   0  0  0  0  0  0  0  0  0  0  0  0
   -4.4773    1.2613   49.2816 H   0  0  0  0  0  0  0  0  0  0  0  0
   -2.3694    3.8624   47.2169 H   0  0  0  0  0  0  0  0  0  0  0  0
    0.5800    3.8993   49.3844 H   0  0  0  0  0  0  0  0  0  0  0  0
   -0.2583   -0.7765   50.1025 C   0  0  0  0  0  0  0  0  0  0  0  0
    1.0512   -1.3106   49.8947 O   0  0  0  0  0  0  0  0  0  0  0  0
    1.0537   -1.8585   49.0942 H   0  0  0  0  0  0  0  0  0  0  0  0
    2.1841    0.4601   41.4444 C   0  0  0  0  0  0  0  0  0  0  0  0
    1.4219    0.5470   40.1266 C   0  0  0  0  0  0  0  0  0  0  0  0
    0.3330   -0.3730   40.1829 O   0  0  0  0  0  0  0  0  0  0  0  0
    2.3570    0.1989   38.9758 C   0  0  0  0  0  0  0  0  0  0  0  0
    1.7247    0.2995   37.6765 O   0  0  0  0  0  0  0  0  0  0  0  0
    3.2658    1.3863   41.3165 O   0  0  0  0  0  0  0  0  0  0  0  0
    4.2618    0.9902   40.3472 C   0  0  0  0  0  0  0  0  0  0  0  0
    3.6234    1.0391   38.9597 C   0  0  0  0  0  0  0  0  0  0  0  0
    0.6743   -1.2696   40.3258 H   0  0  0  0  0  0  0  0  0  0  0  0
    1.4853    1.2235   37.5041 H   0  0  0  0  0  0  0  0  0  0  0  0
    5.4952    1.8734   40.4920 C   0  0  0  0  0  0  0  0  0  0  0  0
    5.4889    2.4805   41.8069 O   0  0  0  0  0  0  0  0  0  0  0  0
    4.6864    3.0149   41.9124 H   0  0  0  0  0  0  0  0  0  0  0  0
    4.3961    0.3625   37.9774 O   0  0  0  0  0  0  0  0  0  0  0  0
    5.3186    1.0981   37.1086 C   0  0  0  0  0  0  0  0  0  0  0  0
    5.6960    0.2334   35.8533 C   0  0  0  0  0  0  0  0  0  0  0  0
    7.1092   -0.0484   35.6629 O   0  0  0  0  0  0  0  0  0  0  0  0
    5.1621    0.8035   34.5546 C   0  0  0  0  0  0  0  0  0  0  0  0
    5.1114   -0.2109   33.5381 O   0  0  0  0  0  0  0  0  0  0  0  0
    3.8082    1.4187   34.9067 C   0  0  0  0  0  0  0  0  0  0  0  0
    3.1561    1.7091   33.6866 O   0  0  0  0  0  0  0  0  0  0  0  0
    4.8518    2.4668   36.8600 O   0  0  0  0  0  0  0  0  0  0  0  0
    4.1619    2.7309   35.6127 C   0  0  0  0  0  0  0  0  0  0  0  0
    7.5762    0.7732   35.4445 H   0  0  0  0  0  0  0  0  0  0  0  0
    4.5521   -0.9437   33.8402 H   0  0  0  0  0  0  0  0  0  0  0  0
    3.7241    2.2781   33.1439 H   0  0  0  0  0  0  0  0  0  0  0  0
    3.0239    3.7459   35.8573 C   0  0  0  0  0  0  0  0  0  0  0  0
    2.1330    3.3555   36.9450 O   0  0  0  0  0  0  0  0  0  0  0  0
    1.7032    2.5143   36.7248 H   0  0  0  0  0  0  0  0  0  0  0  0
 16 17  1  0  0  0
 17 22  1  0  0  0
 17 18  1  0  0  0
 19 18  1  0  0  0
 18 20  1  0  0  0
 20 24  1  0  0  0
 20 21  1  0  0  0
 22 23  1  0  0  0
 23 24  1  0  0  0
 23 28  1  0  0  0
 29 28  1  0  0  0
 24 15  1  0  0  0
 15  2  1  0  0  0
  2  3  1  0  0  0
  2  7  1  0  0  0
  4  3  1  0  0  0
  3  5  1  0  0  0
  5  6  1  0  0  0
  5  9  1  0  0  0
  7  8  1  0  0  0
  8 12  1  0  0  0
  8  9  1  0  0  0
 13 12  1  0  0  0
  9  1  1  0  0  0
  1 31  1  0  0  0
 31 36  1  0  0  0
 31 32  1  0  0  0
 33 32  1  0  0  0
 32 34  1  0  0  0
 34 38  1  0  0  0
 34 35  1  0  0  0
 36 37  1  0  0  0
 41 37  1  0  0  0
 37 38  1  0  0  0
 42 41  1  0  0  0
 38 44  1  0  0  0
 44 45  1  0  0  0
 45 52  1  0  0  0
 45 46  1  0  0  0
 46 47  1  0  0  0
 46 48  1  0  0  0
 50 48  1  0  0  0
 48 49  1  0  0  0
 53 50  1  0  0  0
 50 51  1  0  0  0
 52 53  1  0  0  0
 57 53  1  0  0  0
 58 57  1  0  0  0
 16 25  1  0  0  0
 19 26  1  0  0  0
 21 27  1  0  0  0
 29 30  1  0  0  0
  4 10  1  0  0  0
  6 11  1  0  0  0
 13 14  1  0  0  0
 33 39  1  0  0  0
 35 40  1  0  0  0
 42 43  1  0  0  0
 47 54  1  0  0  0
 49 55  1  0  0  0
 51 56  1  0  0  0
 58 59  1  0  0  0
M  END
> <minimizedAffinity>
-11.38050

$$$$
3F5J_CTT_A_1000


 59 62  0  0  0  0  0  0  0  0999 V2000
    1.2213    0.8302   42.3652 O   0  0  0  0  0  0  0  0  0  0  0  0
    0.9551    1.0794   46.4703 C   0  0  0  0  0  0  0  0  0  0  0  0
    2.2434    1.6713   45.8755 C   0  0  0  0  0  0  0  0  0  0  0  0
    2.4617    2.9453   46.4873 O   0  0  0  0  0  0  0  0  0  0  0  0
    2.1454    1.8258   44.3561 C   0  0  0  0  0  0  0  0  0  0  0  0
    3.4140    2.2397   43.8014 O   0  0  0  0  0  0  0  0  0  0  0  0
    0.6617   -0.1961   45.8743 O   0  0  0  0  0  0  0  0  0  0  0  0
    0.4367   -0.0314   44.4597 C   0  0  0  0  0  0  0  0  0  0  0  0
    1.6480    0.5298   43.6981 C   0  0  0  0  0  0  0  0  0  0  0  0
    1.7095    3.5279   46.2982 H   0  0  0  0  0  0  0  0  0  0  0  0
    4.0823    1.5598   43.9800 H   0  0  0  0  0  0  0  0  0  0  0  0
   -0.0566   -1.3504   43.9052 C   0  0  0  0  0  0  0  0  0  0  0  0
    1.1678   -2.0457   43.6799 O   0  0  0  0  0  0  0  0  0  0  0  0
    1.7323   -1.5232   43.0889 H   0  0  0  0  0  0  0  0  0  0  0  0
    1.0431    0.9793   47.9353 O   0  0  0  0  0  0  0  0  0  0  0  0
   -2.8462    1.2997   51.8527 O   0  0  0  0  0  0  0  0  0  0  0  0
   -1.5898    1.2107   51.1503 C   0  0  0  0  0  0  0  0  0  0  0  0
   -1.6011   -0.0893   50.3564 C   0  0  0  0  0  0  0  0  0  0  0  0
   -1.6658   -1.2170   51.2354 O   0  0  0  0  0  0  0  0  0  0  0  0
   -0.3575   -0.1985   49.4945 C   0  0  0  0  0  0  0  0  0  0  0  0
   -0.4494   -1.4092   48.7235 O   0  0  0  0  0  0  0  0  0  0  0  0
   -1.4596    2.3640   50.2992 O   0  0  0  0  0  0  0  0  0  0  0  0
   -0.4444    2.3915   49.2797 C   0  0  0  0  0  0  0  0  0  0  0  0
   -0.2341    1.0293   48.5813 C   0  0  0  0  0  0  0  0  0  0  0  0
   -2.8701    2.1200   52.3697 H   0  0  0  0  0  0  0  0  0  0  0  0
   -0.8820   -1.2270   51.8068 H   0  0  0  0  0  0  0  0  0  0  0  0
   -1.2436   -1.3788   48.1674 H   0  0  0  0  0  0  0  0  0  0  0  0
   -0.9091    3.4134   48.2335 C   0  0  0  0  0  0  0  0  0  0  0  0
    0.1261    4.3205   47.8476 O   0  0  0  0  0  0  0  0  0  0  0  0
    0.4146    4.8299   48.6210 H   0  0  0  0  0  0  0  0  0  0  0  0
    2.1453    0.4929   41.3028 C   0  0  0  0  0  0  0  0  0  0  0  0
    1.4480    0.5614   39.9485 C   0  0  0  0  0  0  0  0  0  0  0  0
    0.3620   -0.3637   39.9617 O   0  0  0  0  0  0  0  0  0  0  0  0
    2.4399    0.2059   38.8486 C   0  0  0  0  0  0  0  0  0  0  0  0
    1.8713    0.2890   37.5189 O   0  0  0  0  0  0  0  0  0  0  0  0
    3.2275    1.4234   41.2176 O   0  0  0  0  0  0  0  0  0  0  0  0
    4.2716    1.0221   40.3025 C   0  0  0  0  0  0  0  0  0  0  0  0
    3.7015    1.0526   38.8850 C   0  0  0  0  0  0  0  0  0  0  0  0
    0.7002   -1.2569   40.1310 H   0  0  0  0  0  0  0  0  0  0  0  0
    1.6362    1.2098   37.3248 H   0  0  0  0  0  0  0  0  0  0  0  0
    5.4922    1.9134   40.4976 C   0  0  0  0  0  0  0  0  0  0  0  0
    5.5620    2.3205   41.8856 O   0  0  0  0  0  0  0  0  0  0  0  0
    4.7569    2.8079   42.1205 H   0  0  0  0  0  0  0  0  0  0  0  0
    4.5245    0.3695   37.9492 O   0  0  0  0  0  0  0  0  0  0  0  0
    5.4014    1.1099   37.0382 C   0  0  0  0  0  0  0  0  0  0  0  0
    5.7788    0.2223   35.7990 C   0  0  0  0  0  0  0  0  0  0  0  0
    7.1960   -0.0180   35.5828 O   0  0  0  0  0  0  0  0  0  0  0  0
    5.1963    0.7367   34.4980 C   0  0  0  0  0  0  0  0  0  0  0  0
    5.1565   -0.3078   33.5119 O   0  0  0  0  0  0  0  0  0  0  0  0
    3.8308    1.3166   34.8649 C   0  0  0  0  0  0  0  0  0  0  0  0
    3.1414    1.5500   33.6532 O   0  0  0  0  0  0  0  0  0  0  0  0
    4.8830    2.4546   36.7625 O   0  0  0  0  0  0  0  0  0  0  0  0
    4.1562    2.6597   35.5251 C   0  0  0  0  0  0  0  0  0  0  0  0
    7.6299    0.8120   35.3303 H   0  0  0  0  0  0  0  0  0  0  0  0
    4.6294   -1.0496   33.8477 H   0  0  0  0  0  0  0  0  0  0  0  0
    3.6772    2.1215   33.0812 H   0  0  0  0  0  0  0  0  0  0  0  0
    2.9905    3.6431   35.7684 C   0  0  0  0  0  0  0  0  0  0  0  0
    2.1365    3.2531   36.8853 O   0  0  0  0  0  0  0  0  0  0  0  0
    1.7303    2.3927   36.6967 H   0  0  0  0  0  0  0  0  0  0  0  0
 16 17  1  0  0  0
 17 22  1  0  0  0
 17 18  1  0  0  0
 19 18  1  0  0  0
 18 20  1  0  0  0
 20 24  1  0  0  0
 20 21  1  0  0  0
 22 23  1  0  0  0
 23 24  1  0  0  0
 23 28  1  0  0  0
 29 28  1  0  0  0
 24 15  1  0  0  0
 15  2  1  0  0  0
  2  3  1  0  0  0
  2  7  1  0  0  0
  4  3  1  0  0  0
  3  5  1  0  0  0
  5  6  1  0  0  0
  5  9  1  0  0  0
  7  8  1  0  0  0
  8 12  1  0  0  0
  8  9  1  0  0  0
 13 12  1  0  0  0
  9  1  1  0  0  0
  1 31  1  0  0  0
 31 36  1  0  0  0
 31 32  1  0  0  0
 33 32  1  0  0  0
 32 34  1  0  0  0
 34 38  1  0  0  0
 34 35  1  0  0  0
 36 37  1  0  0  0
 41 37  1  0  0  0
 37 38  1  0  0  0
 42 41  1  0  0  0
 38 44  1  0  0  0
 44 45  1  0  0  0
 45 52  1  0  0  0
 45 46  1  0  0  0
 46 47  1  0  0  0
 46 48  1  0  0  0
 50 48  1  0  0  0
 48 49  1  0  0  0
 53 50  1  0  0  0
 50 51  1  0  0  0
 52 53  1  0  0  0
 57 53  1  0  0  0
 58 57  1  0  0  0
 16 25  1  0  0  0
 19 26  1  0  0  0
 21 27  1  0  0  0
 29 30  1  0  0  0
  4 10  1  0  0  0
  6 11  1  0  0  0
 13 14  1  0  0  0
 33 39  1  0  0  0
 35 40  1  0  0  0
 42 43  1  0  0  0
 47 54  1  0  0  0
 49 55  1  0  0  0
 51 56  1  0  0  0
 58 59  1  0  0  0
M  END
> <minimizedAffinity>
-11.21718

$$$$
3F5J_CTT_A_1000


 59 62  0  0  0  0  0  0  0  0999 V2000
    2.6537    1.4399   42.8848 O   0  0  0  0  0  0  0  0  0  0  0  0
    2.2785    1.3710   38.7813 C   0  0  0  0  0  0  0  0  0  0  0  0
    1.3791    0.3687   39.5230 C   0  0  0  0  0  0  0  0  0  0  0  0
    0.0655    0.4657   38.9663 O   0  0  0  0  0  0  0  0  0  0  0  0
    1.3369    0.6520   41.0263 C   0  0  0  0  0  0  0  0  0  0  0  0
    0.6115   -0.3863   41.7221 O   0  0  0  0  0  0  0  0  0  0  0  0
    3.6139    1.3438   39.3143 O   0  0  0  0  0  0  0  0  0  0  0  0
    3.5924    1.7411   40.7001 C   0  0  0  0  0  0  0  0  0  0  0  0
    2.7526    0.8194   41.5987 C   0  0  0  0  0  0  0  0  0  0  0  0
   -0.2711    1.3674   39.0869 H   0  0  0  0  0  0  0  0  0  0  0  0
    1.0655   -1.2348   41.6007 H   0  0  0  0  0  0  0  0  0  0  0  0
    5.0236    1.8880   41.1696 C   0  0  0  0  0  0  0  0  0  0  0  0
    4.9022    2.9143   42.1521 O   0  0  0  0  0  0  0  0  0  0  0  0
    4.5065    3.7027   41.7488 H   0  0  0  0  0  0  0  0  0  0  0  0
    2.2741    1.1180   37.3321 O   0  0  0  0  0  0  0  0  0  0  0  0
    6.4239    0.9404   33.6821 O   0  0  0  0  0  0  0  0  0  0  0  0
    5.1629    0.7581   34.3578 C   0  0  0  0  0  0  0  0  0  0  0  0
    5.4474    0.0393   35.6702 C   0  0  0  0  0  0  0  0  0  0  0  0
    5.9796   -1.2667   35.4254 O   0  0  0  0  0  0  0  0  0  0  0  0
    4.1808   -0.0843   36.4960 C   0  0  0  0  0  0  0  0  0  0  0  0
    4.5176   -0.7122   37.7453 O   0  0  0  0  0  0  0  0  0  0  0  0
    4.5656    2.0508   34.5666 O   0  0  0  0  0  0  0  0  0  0  0  0
    3.4493    2.1879   35.4643 C   0  0  0  0  0  0  0  0  0  0  0  0
    3.5580    1.3003   36.7244 C   0  0  0  0  0  0  0  0  0  0  0  0
    6.2760    1.3973   32.8394 H   0  0  0  0  0  0  0  0  0  0  0  0
    5.3297   -1.7940   34.9351 H   0  0  0  0  0  0  0  0  0  0  0  0
    5.1735   -0.1714   38.2125 H   0  0  0  0  0  0  0  0  0  0  0  0
    3.4226    3.6589   35.9005 C   0  0  0  0  0  0  0  0  0  0  0  0
    3.4899    3.8170   37.3195 O   0  0  0  0  0  0  0  0  0  0  0  0
    2.7187    3.3943   37.7289 H   0  0  0  0  0  0  0  0  0  0  0  0
    2.2817    0.5785   43.9876 C   0  0  0  0  0  0  0  0  0  0  0  0
    3.0909    0.9268   45.2321 C   0  0  0  0  0  0  0  0  0  0  0  0
    4.4734    0.7550   44.9246 O   0  0  0  0  0  0  0  0  0  0  0  0
    2.6801    0.0104   46.3773 C   0  0  0  0  0  0  0  0  0  0  0  0
    3.3704    0.3017   47.6169 O   0  0  0  0  0  0  0  0  0  0  0  0
    0.9139    0.7519   44.3660 O   0  0  0  0  0  0  0  0  0  0  0  0
    0.4473   -0.2187   45.3296 C   0  0  0  0  0  0  0  0  0  0  0  0
    1.1842    0.0237   46.6462 C   0  0  0  0  0  0  0  0  0  0  0  0
    4.6329   -0.1629   44.6548 H   0  0  0  0  0  0  0  0  0  0  0  0
    3.1161    1.1843   47.9289 H   0  0  0  0  0  0  0  0  0  0  0  0
   -1.0698   -0.1349   45.4455 C   0  0  0  0  0  0  0  0  0  0  0  0
   -1.4119    0.8173   46.4816 O   0  0  0  0  0  0  0  0  0  0  0  0
   -1.0322    0.5271   47.3257 H   0  0  0  0  0  0  0  0  0  0  0  0
    1.0532   -1.0613   47.5547 O   0  0  0  0  0  0  0  0  0  0  0  0
    0.5024   -0.8558   48.8968 C   0  0  0  0  0  0  0  0  0  0  0  0
   -1.0003   -1.3092   48.9476 C   0  0  0  0  0  0  0  0  0  0  0  0
   -1.9688   -0.2970   49.3352 O   0  0  0  0  0  0  0  0  0  0  0  0
   -1.2272   -2.5227   49.8265 C   0  0  0  0  0  0  0  0  0  0  0  0
   -2.4630   -3.1720   49.4858 O   0  0  0  0  0  0  0  0  0  0  0  0
    0.0173   -3.3919   49.6490 C   0  0  0  0  0  0  0  0  0  0  0  0
   -0.2718   -4.6505   50.2238 O   0  0  0  0  0  0  0  0  0  0  0  0
    1.3944   -1.3856   49.9344 O   0  0  0  0  0  0  0  0  0  0  0  0
    1.0902   -2.6906   50.4873 C   0  0  0  0  0  0  0  0  0  0  0  0
   -1.8353   -0.0616   50.2667 H   0  0  0  0  0  0  0  0  0  0  0  0
   -2.4453   -3.4308   48.5511 H   0  0  0  0  0  0  0  0  0  0  0  0
   -0.5459   -4.5293   51.1464 H   0  0  0  0  0  0  0  0  0  0  0  0
    2.4043   -3.4549   50.7595 C   0  0  0  0  0  0  0  0  0  0  0  0
    3.3940   -3.2865   49.7006 O   0  0  0  0  0  0  0  0  0  0  0  0
    3.0415   -3.6408   48.8693 H   0  0  0  0  0  0  0  0  0  0  0  0
 16 17  1  0  0  0
 17 22  1  0  0  0
 17 18  1  0  0  0
 19 18  1  0  0  0
 18 20  1  0  0  0
 20 24  1  0  0  0
 20 21  1  0  0  0
 22 23  1  0  0  0
 23 24  1  0  0  0
 23 28  1  0  0  0
 29 28  1  0  0  0
 24 15  1  0  0  0
 15  2  1  0  0  0
  2  3  1  0  0  0
  2  7  1  0  0  0
  4  3  1  0  0  0
  3  5  1  0  0  0
  5  6  1  0  0  0
  5  9  1  0  0  0
  7  8  1  0  0  0
  8 12  1  0  0  0
  8  9  1  0  0  0
 13 12  1  0  0  0
  9  1  1  0  0  0
  1 31  1  0  0  0
 31 36  1  0  0  0
 31 32  1  0  0  0
 33 32  1  0  0  0
 32 34  1  0  0  0
 34 38  1  0  0  0
 34 35  1  0  0  0
 36 37  1  0  0  0
 41 37  1  0  0  0
 37 38  1  0  0  0
 42 41  1  0  0  0
 38 44  1  0  0  0
 44 45  1  0  0  0
 45 52  1  0  0  0
 45 46  1  0  0  0
 46 47  1  0  0  0
 46 48  1  0  0  0
 50 48  1  0  0  0
 48 49  1  0  0  0
 53 50  1  0  0  0
 50 51  1  0  0  0
 52 53  1  0  0  0
 57 53  1  0  0  0
 58 57  1  0  0  0
 16 25  1  0  0  0
 19 26  1  0  0  0
 21 27  1  0  0  0
 29 30  1  0  0  0
  4 10  1  0  0  0
  6 11  1  0  0  0
 13 14  1  0  0  0
 33 39  1  0  0  0
 35 40  1  0  0  0
 42 43  1  0  0  0
 47 54  1  0  0  0
 49 55  1  0  0  0
 51 56  1  0  0  0
 58 59  1  0  0  0
M  END
> <minimizedAffinity>
-10.32524

$$$$
3F5J_CTT_A_1000


 59 62  0  0  0  0  0  0  0  0999 V2000
    0.1034    0.1930   41.5772 O   0  0  0  0  0  0  0  0  0  0  0  0
    0.4820   -0.5126   45.6199 C   0  0  0  0  0  0  0  0  0  0  0  0
    1.4357   -1.3321   44.7352 C   0  0  0  0  0  0  0  0  0  0  0  0
    2.7419   -1.2538   45.3120 O   0  0  0  0  0  0  0  0  0  0  0  0
    1.4621   -0.8094   43.2972 C   0  0  0  0  0  0  0  0  0  0  0  0
    2.2440   -1.6811   42.4505 O   0  0  0  0  0  0  0  0  0  0  0  0
   -0.8499   -0.5272   45.0776 O   0  0  0  0  0  0  0  0  0  0  0  0
   -0.8505    0.0879   43.7735 C   0  0  0  0  0  0  0  0  0  0  0  0
    0.0392   -0.6303   42.7464 C   0  0  0  0  0  0  0  0  0  0  0  0
    3.0278   -0.3273   45.3404 H   0  0  0  0  0  0  0  0  0  0  0  0
    1.8379   -2.5618   42.4303 H   0  0  0  0  0  0  0  0  0  0  0  0
   -2.2877    0.2294   43.3210 C   0  0  0  0  0  0  0  0  0  0  0  0
   -2.3664   -0.7570   42.2943 O   0  0  0  0  0  0  0  0  0  0  0  0
   -1.6916   -0.5775   41.6210 H   0  0  0  0  0  0  0  0  0  0  0  0
    0.5004   -0.9943   47.0098 O   0  0  0  0  0  0  0  0  0  0  0  0
    2.2883    3.7715   49.1699 O   0  0  0  0  0  0  0  0  0  0  0  0
    1.9577    2.6954   48.2685 C   0  0  0  0  0  0  0  0  0  0  0  0
    2.7422    1.4683   48.7144 C   0  0  0  0  0  0  0  0  0  0  0  0
    4.1498    1.6963   48.5898 O   0  0  0  0  0  0  0  0  0  0  0  0
    2.3568    0.2584   47.8843 C   0  0  0  0  0  0  0  0  0  0  0  0
    3.0784   -0.8800   48.3863 O   0  0  0  0  0  0  0  0  0  0  0  0
    0.5360    2.4774   48.3195 O   0  0  0  0  0  0  0  0  0  0  0  0
   -0.0276    1.2861   47.7417 C   0  0  0  0  0  0  0  0  0  0  0  0
    0.8409    0.0261   47.9553 C   0  0  0  0  0  0  0  0  0  0  0  0
    1.8028    4.5704   48.9115 H   0  0  0  0  0  0  0  0  0  0  0  0
    4.3690    1.8648   47.6600 H   0  0  0  0  0  0  0  0  0  0  0  0
    2.8490   -1.0231   49.3179 H   0  0  0  0  0  0  0  0  0  0  0  0
   -1.3827    1.0709   48.4289 C   0  0  0  0  0  0  0  0  0  0  0  0
   -2.2803    0.2791   47.6473 O   0  0  0  0  0  0  0  0  0  0  0  0
   -2.4651    0.7318   46.8096 H   0  0  0  0  0  0  0  0  0  0  0  0
    1.2217   -0.0398   40.6874 C   0  0  0  0  0  0  0  0  0  0  0  0
    0.7969    0.1544   39.2359 C   0  0  0  0  0  0  0  0  0  0  0  0
   -0.2515   -0.7710   38.9532 O   0  0  0  0  0  0  0  0  0  0  0  0
    1.9893   -0.0928   38.3209 C   0  0  0  0  0  0  0  0  0  0  0  0
    1.6858    0.1139   36.9198 O   0  0  0  0  0  0  0  0  0  0  0  0
    2.2801    0.8978   40.8995 O   0  0  0  0  0  0  0  0  0  0  0  0
    3.4891    0.5878   40.1710 C   0  0  0  0  0  0  0  0  0  0  0  0
    3.2021    0.7504   38.6789 C   0  0  0  0  0  0  0  0  0  0  0  0
    0.0666   -1.6752   39.1018 H   0  0  0  0  0  0  0  0  0  0  0  0
    1.4730    1.0483   36.7694 H   0  0  0  0  0  0  0  0  0  0  0  0
    4.6302    1.4602   40.6800 C   0  0  0  0  0  0  0  0  0  0  0  0
    5.7299    0.6094   41.0851 O   0  0  0  0  0  0  0  0  0  0  0  0
    5.4334    0.0107   41.7884 H   0  0  0  0  0  0  0  0  0  0  0  0
    4.2042    0.1611   37.8613 O   0  0  0  0  0  0  0  0  0  0  0  0
    5.1771    0.9925   37.1477 C   0  0  0  0  0  0  0  0  0  0  0  0
    5.6791    0.2593   35.8530 C   0  0  0  0  0  0  0  0  0  0  0  0
    7.1098    0.0209   35.7578 O   0  0  0  0  0  0  0  0  0  0  0  0
    5.2411    0.9428   34.5733 C   0  0  0  0  0  0  0  0  0  0  0  0
    5.3003    0.0304   33.4648 O   0  0  0  0  0  0  0  0  0  0  0  0
    3.8476    1.4983   34.8654 C   0  0  0  0  0  0  0  0  0  0  0  0
    3.2922    1.8940   33.6272 O   0  0  0  0  0  0  0  0  0  0  0  0
    4.6987    2.3707   36.9908 O   0  0  0  0  0  0  0  0  0  0  0  0
    4.1086    2.7422   35.7199 C   0  0  0  0  0  0  0  0  0  0  0  0
    7.5728    0.8675   35.6587 H   0  0  0  0  0  0  0  0  0  0  0  0
    4.7363   -0.7374   33.6474 H   0  0  0  0  0  0  0  0  0  0  0  0
    3.8891    2.5221   33.1911 H   0  0  0  0  0  0  0  0  0  0  0  0
    2.9293    3.7095   35.9617 C   0  0  0  0  0  0  0  0  0  0  0  0
    1.9900    3.2264   36.9684 O   0  0  0  0  0  0  0  0  0  0  0  0
    1.5982    2.3906   36.6704 H   0  0  0  0  0  0  0  0  0  0  0  0
 16 17  1  0  0  0
 17 22  1  0  0  0
 17 18  1  0  0  0
 19 18  1  0  0  0
 18 20  1  0  0  0
 20 24  1  0  0  0
 20 21  1  0  0  0
 22 23  1  0  0  0
 23 24  1  0  0  0
 23 28  1  0  0  0
 29 28  1  0  0  0
 24 15  1  0  0  0
 15  2  1  0  0  0
  2  3  1  0  0  0
  2  7  1  0  0  0
  4  3  1  0  0  0
  3  5  1  0  0  0
  5  6  1  0  0  0
  5  9  1  0  0  0
  7  8  1  0  0  0
  8 12  1  0  0  0
  8  9  1  0  0  0
 13 12  1  0  0  0
  9  1  1  0  0  0
  1 31  1  0  0  0
 31 36  1  0  0  0
 31 32  1  0  0  0
 33 32  1  0  0  0
 32 34  1  0  0  0
 34 38  1  0  0  0
 34 35  1  0  0  0
 36 37  1  0  0  0
 41 37  1  0  0  0
 37 38  1  0  0  0
 42 41  1  0  0  0
 38 44  1  0  0  0
 44 45  1  0  0  0
 45 52  1  0  0  0
 45 46  1  0  0  0
 46 47  1  0  0  0
 46 48  1  0  0  0
 50 48  1  0  0  0
 48 49  1  0  0  0
 53 50  1  0  0  0
 50 51  1  0  0  0
 52 53  1  0  0  0
 57 53  1  0  0  0
 58 57  1  0  0  0
 16 25  1  0  0  0
 19 26  1  0  0  0
 21 27  1  0  0  0
 29 30  1  0  0  0
  4 10  1  0  0  0
  6 11  1  0  0  0
 13 14  1  0  0  0
 33 39  1  0  0  0
 35 40  1  0  0  0
 42 43  1  0  0  0
 47 54  1  0  0  0
 49 55  1  0  0  0
 51 56  1  0  0  0
 58 59  1  0  0  0
M  END
> <minimizedAffinity>
-10.21652

$$$$
3F5J_CTT_A_1000


 59 62  0  0  0  0  0  0  0  0999 V2000
    2.9608    1.2857   43.7559 O   0  0  0  0  0  0  0  0  0  0  0  0
    3.5803    0.1482   39.8435 C   0  0  0  0  0  0  0  0  0  0  0  0
    2.7151   -0.8233   40.6630 C   0  0  0  0  0  0  0  0  0  0  0  0
    1.5729   -1.1636   39.8729 O   0  0  0  0  0  0  0  0  0  0  0  0
    2.2724   -0.2037   41.9905 C   0  0  0  0  0  0  0  0  0  0  0  0
    1.5907   -1.1806   42.8086 O   0  0  0  0  0  0  0  0  0  0  0  0
    4.7372    0.5535   40.5955 O   0  0  0  0  0  0  0  0  0  0  0  0
    4.3226    1.2571   41.7838 C   0  0  0  0  0  0  0  0  0  0  0  0
    3.4639    0.4130   42.7389 C   0  0  0  0  0  0  0  0  0  0  0  0
    1.0693   -0.3599   39.6696 H   0  0  0  0  0  0  0  0  0  0  0  0
    2.1978   -1.9077   43.0174 H   0  0  0  0  0  0  0  0  0  0  0  0
    5.5566    1.8332   42.4439 C   0  0  0  0  0  0  0  0  0  0  0  0
    5.7349    0.9477   43.5472 O   0  0  0  0  0  0  0  0  0  0  0  0
    4.9303    0.9399   44.0888 H   0  0  0  0  0  0  0  0  0  0  0  0
    3.9605   -0.4403   38.5500 O   0  0  0  0  0  0  0  0  0  0  0  0
    3.6062    4.1255   35.4513 O   0  0  0  0  0  0  0  0  0  0  0  0
    3.7949    3.2016   36.5424 C   0  0  0  0  0  0  0  0  0  0  0  0
    2.4656    2.4966   36.7794 C   0  0  0  0  0  0  0  0  0  0  0  0
    1.4654    3.4319   37.1959 O   0  0  0  0  0  0  0  0  0  0  0  0
    2.6143    1.4199   37.8377 C   0  0  0  0  0  0  0  0  0  0  0  0
    1.3504    0.7478   37.9765 O   0  0  0  0  0  0  0  0  0  0  0  0
    4.8407    2.2798   36.1845 O   0  0  0  0  0  0  0  0  0  0  0  0
    5.0396    1.0849   36.9614 C   0  0  0  0  0  0  0  0  0  0  0  0
    3.7228    0.4344   37.4413 C   0  0  0  0  0  0  0  0  0  0  0  0
    4.4381    4.5921   35.2751 H   0  0  0  0  0  0  0  0  0  0  0  0
    1.7350    3.8424   38.0324 H   0  0  0  0  0  0  0  0  0  0  0  0
    1.0990    0.3532   37.1268 H   0  0  0  0  0  0  0  0  0  0  0  0
    5.7737    0.0928   36.0494 C   0  0  0  0  0  0  0  0  0  0  0  0
    7.1950    0.2333   36.1090 O   0  0  0  0  0  0  0  0  0  0  0  0
    7.4450    1.1210   35.8081 H   0  0  0  0  0  0  0  0  0  0  0  0
    2.5083    0.6552   44.9782 C   0  0  0  0  0  0  0  0  0  0  0  0
    3.1884    1.2879   46.1875 C   0  0  0  0  0  0  0  0  0  0  0  0
    4.5974    1.1166   46.0436 O   0  0  0  0  0  0  0  0  0  0  0  0
    2.6946    0.6106   47.4593 C   0  0  0  0  0  0  0  0  0  0  0  0
    3.2583    1.1814   48.6653 O   0  0  0  0  0  0  0  0  0  0  0  0
    1.1072    0.8434   45.1920 O   0  0  0  0  0  0  0  0  0  0  0  0
    0.5762    0.0733   46.2935 C   0  0  0  0  0  0  0  0  0  0  0  0
    1.1802    0.6141   47.5888 C   0  0  0  0  0  0  0  0  0  0  0  0
    4.8040    0.1705   45.9871 H   0  0  0  0  0  0  0  0  0  0  0  0
    2.9544    2.0974   48.7622 H   0  0  0  0  0  0  0  0  0  0  0  0
   -0.9468    0.1131   46.2575 C   0  0  0  0  0  0  0  0  0  0  0  0
   -1.4535    0.0090   47.6102 O   0  0  0  0  0  0  0  0  0  0  0  0
   -1.1546   -0.8255   48.0041 H   0  0  0  0  0  0  0  0  0  0  0  0
    0.9912   -0.2646   48.6897 O   0  0  0  0  0  0  0  0  0  0  0  0
    1.1788   -1.7100   48.5388 C   0  0  0  0  0  0  0  0  0  0  0  0
    2.2812   -2.2258   49.5312 C   0  0  0  0  0  0  0  0  0  0  0  0
    3.4300   -2.8875   48.9350 O   0  0  0  0  0  0  0  0  0  0  0  0
    1.7327   -3.1395   50.6086 C   0  0  0  0  0  0  0  0  0  0  0  0
    2.6323   -3.2018   51.7274 O   0  0  0  0  0  0  0  0  0  0  0  0
    0.3448   -2.5914   50.9389 C   0  0  0  0  0  0  0  0  0  0  0  0
   -0.0834   -3.2355   52.1221 O   0  0  0  0  0  0  0  0  0  0  0  0
   -0.1030   -2.4241   48.5359 O   0  0  0  0  0  0  0  0  0  0  0  0
   -0.5310   -3.0524   49.7701 C   0  0  0  0  0  0  0  0  0  0  0  0
    3.1509   -3.7305   48.5446 H   0  0  0  0  0  0  0  0  0  0  0  0
    2.7714   -2.3092   52.0805 H   0  0  0  0  0  0  0  0  0  0  0  0
   -0.0534   -4.1968   51.9959 H   0  0  0  0  0  0  0  0  0  0  0  0
   -2.0617   -2.9096   49.9179 C   0  0  0  0  0  0  0  0  0  0  0  0
   -2.7407   -2.6840   48.6463 O   0  0  0  0  0  0  0  0  0  0  0  0
   -2.4276   -1.8533   48.2555 H   0  0  0  0  0  0  0  0  0  0  0  0
 16 17  1  0  0  0
 17 22  1  0  0  0
 17 18  1  0  0  0
 19 18  1  0  0  0
 18 20  1  0  0  0
 20 24  1  0  0  0
 20 21  1  0  0  0
 22 23  1  0  0  0
 23 24  1  0  0  0
 23 28  1  0  0  0
 29 28  1  0  0  0
 24 15  1  0  0  0
 15  2  1  0  0  0
  2  3  1  0  0  0
  2  7  1  0  0  0
  4  3  1  0  0  0
  3  5  1  0  0  0
  5  6  1  0  0  0
  5  9  1  0  0  0
  7  8  1  0  0  0
  8 12  1  0  0  0
  8  9  1  0  0  0
 13 12  1  0  0  0
  9  1  1  0  0  0
  1 31  1  0  0  0
 31 36  1  0  0  0
 31 32  1  0  0  0
 33 32  1  0  0  0
 32 34  1  0  0  0
 34 38  1  0  0  0
 34 35  1  0  0  0
 36 37  1  0  0  0
 41 37  1  0  0  0
 37 38  1  0  0  0
 42 41  1  0  0  0
 38 44  1  0  0  0
 44 45  1  0  0  0
 45 52  1  0  0  0
 45 46  1  0  0  0
 46 47  1  0  0  0
 46 48  1  0  0  0
 50 48  1  0  0  0
 48 49  1  0  0  0
 53 50  1  0  0  0
 50 51  1  0  0  0
 52 53  1  0  0  0
 57 53  1  0  0  0
 58 57  1  0  0  0
 16 25  1  0  0  0
 19 26  1  0  0  0
 21 27  1  0  0  0
 29 30  1  0  0  0
  4 10  1  0  0  0
  6 11  1  0  0  0
 13 14  1  0  0  0
 33 39  1  0  0  0
 35 40  1  0  0  0
 42 43  1  0  0  0
 47 54  1  0  0  0
 49 55  1  0  0  0
 51 56  1  0  0  0
 58 59  1  0  0  0
M  END
> <minimizedAffinity>
-9.96333

$$$$
3F5J_CTT_A_1000


 59 62  0  0  0  0  0  0  0  0999 V2000
    1.3461    1.1603   43.7793 O   0  0  0  0  0  0  0  0  0  0  0  0
    1.8073   -0.1174   47.6702 C   0  0  0  0  0  0  0  0  0  0  0  0
    2.4688    1.2350   47.3581 C   0  0  0  0  0  0  0  0  0  0  0  0
    2.1250    2.1420   48.4088 O   0  0  0  0  0  0  0  0  0  0  0  0
    2.0079    1.7916   46.0092 C   0  0  0  0  0  0  0  0  0  0  0  0
    2.7513    2.9826   45.6666 O   0  0  0  0  0  0  0  0  0  0  0  0
    2.0919   -1.0717   46.6327 O   0  0  0  0  0  0  0  0  0  0  0  0
    1.5401   -0.6103   45.3831 C   0  0  0  0  0  0  0  0  0  0  0  0
    2.1198    0.7303   44.9042 C   0  0  0  0  0  0  0  0  0  0  0  0
    1.1611    2.2437   48.4458 H   0  0  0  0  0  0  0  0  0  0  0  0
    3.6924    2.7633   45.5823 H   0  0  0  0  0  0  0  0  0  0  0  0
    1.6876   -1.7206   44.3653 C   0  0  0  0  0  0  0  0  0  0  0  0
    0.3776   -1.7754   43.8048 O   0  0  0  0  0  0  0  0  0  0  0  0
   -0.2696   -1.9317   44.5102 H   0  0  0  0  0  0  0  0  0  0  0  0
    2.2213   -0.6198   48.9894 O   0  0  0  0  0  0  0  0  0  0  0  0
   -2.4064   -3.4636   50.0248 O   0  0  0  0  0  0  0  0  0  0  0  0
   -1.3412   -2.7358   49.3802 C   0  0  0  0  0  0  0  0  0  0  0  0
   -1.3132   -1.3372   49.9831 C   0  0  0  0  0  0  0  0  0  0  0  0
   -2.5281   -0.6382   49.6931 O   0  0  0  0  0  0  0  0  0  0  0  0
   -0.1393   -0.5453   49.4389 C   0  0  0  0  0  0  0  0  0  0  0  0
   -0.1250    0.7395   50.0851 O   0  0  0  0  0  0  0  0  0  0  0  0
   -0.1073   -3.4441   49.5976 O   0  0  0  0  0  0  0  0  0  0  0  0
    1.1480   -2.8012   49.3121 C   0  0  0  0  0  0  0  0  0  0  0  0
    1.1731   -1.3023   49.6868 C   0  0  0  0  0  0  0  0  0  0  0  0
   -2.4503   -4.3618   49.6612 H   0  0  0  0  0  0  0  0  0  0  0  0
   -2.6254   -0.5435   48.7327 H   0  0  0  0  0  0  0  0  0  0  0  0
   -0.0352    0.6185   51.0433 H   0  0  0  0  0  0  0  0  0  0  0  0
    2.2088   -3.5335   50.1448 C   0  0  0  0  0  0  0  0  0  0  0  0
    3.5329   -3.3526   49.6376 O   0  0  0  0  0  0  0  0  0  0  0  0
    3.5878   -3.7163   48.7400 H   0  0  0  0  0  0  0  0  0  0  0  0
    1.9744    1.0348   42.4809 C   0  0  0  0  0  0  0  0  0  0  0  0
    3.4922    1.0915   42.6158 C   0  0  0  0  0  0  0  0  0  0  0  0
    3.8384    2.3435   43.2055 O   0  0  0  0  0  0  0  0  0  0  0  0
    4.1293    0.9547   41.2390 C   0  0  0  0  0  0  0  0  0  0  0  0
    5.5773    0.9536   41.2780 O   0  0  0  0  0  0  0  0  0  0  0  0
    1.6967   -0.2279   41.8704 O   0  0  0  0  0  0  0  0  0  0  0  0
    2.1409   -0.3233   40.4986 C   0  0  0  0  0  0  0  0  0  0  0  0
    3.6684   -0.2835   40.4876 C   0  0  0  0  0  0  0  0  0  0  0  0
    3.5145    3.0657   42.6448 H   0  0  0  0  0  0  0  0  0  0  0  0
    5.8874    0.1662   41.7519 H   0  0  0  0  0  0  0  0  0  0  0  0
    1.5501   -1.5723   39.8559 C   0  0  0  0  0  0  0  0  0  0  0  0
    0.1950   -1.2883   39.4311 O   0  0  0  0  0  0  0  0  0  0  0  0
   -0.3373   -1.0296   40.1997 H   0  0  0  0  0  0  0  0  0  0  0  0
    4.2005   -0.0395   39.1926 O   0  0  0  0  0  0  0  0  0  0  0  0
    3.3397   -0.0746   38.0073 C   0  0  0  0  0  0  0  0  0  0  0  0
    2.6120    1.3040   37.8178 C   0  0  0  0  0  0  0  0  0  0  0  0
    1.1587    1.2727   37.8094 O   0  0  0  0  0  0  0  0  0  0  0  0
    3.0626    2.0503   36.5782 C   0  0  0  0  0  0  0  0  0  0  0  0
    2.7513    3.4489   36.6868 O   0  0  0  0  0  0  0  0  0  0  0  0
    4.5522    1.7399   36.4357 C   0  0  0  0  0  0  0  0  0  0  0  0
    5.0692    2.6300   35.4668 O   0  0  0  0  0  0  0  0  0  0  0  0
    4.0450   -0.6222   36.8429 O   0  0  0  0  0  0  0  0  0  0  0  0
    4.5891    0.3137   35.8789 C   0  0  0  0  0  0  0  0  0  0  0  0
    0.8498    0.8116   37.0140 H   0  0  0  0  0  0  0  0  0  0  0  0
    3.1803    3.8153   37.4760 H   0  0  0  0  0  0  0  0  0  0  0  0
    4.5627    2.5423   34.6443 H   0  0  0  0  0  0  0  0  0  0  0  0
    5.9391   -0.2174   35.3493 C   0  0  0  0  0  0  0  0  0  0  0  0
    7.0850    0.2786   36.1043 O   0  0  0  0  0  0  0  0  0  0  0  0
    7.1265    1.2450   36.0313 H   0  0  0  0  0  0  0  0  0  0  0  0
 16 17  1  0  0  0
 17 22  1  0  0  0
 17 18  1  0  0  0
 19 18  1  0  0  0
 18 20  1  0  0  0
 20 24  1  0  0  0
 20 21  1  0  0  0
 22 23  1  0  0  0
 23 24  1  0  0  0
 23 28  1  0  0  0
 29 28  1  0  0  0
 24 15  1  0  0  0
 15  2  1  0  0  0
  2  3  1  0  0  0
  2  7  1  0  0  0
  4  3  1  0  0  0
  3  5  1  0  0  0
  5  6  1  0  0  0
  5  9  1  0  0  0
  7  8  1  0  0  0
  8 12  1  0  0  0
  8  9  1  0  0  0
 13 12  1  0  0  0
  9  1  1  0  0  0
  1 31  1  0  0  0
 31 36  1  0  0  0
 31 32  1  0  0  0
 33 32  1  0  0  0
 32 34  1  0  0  0
 34 38  1  0  0  0
 34 35  1  0  0  0
 36 37  1  0  0  0
 41 37  1  0  0  0
 37 38  1  0  0  0
 42 41  1  0  0  0
 38 44  1  0  0  0
 44 45  1  0  0  0
 45 52  1  0  0  0
 45 46  1  0  0  0
 46 47  1  0  0  0
 46 48  1  0  0  0
 50 48  1  0  0  0
 48 49  1  0  0  0
 53 50  1  0  0  0
 50 51  1  0  0  0
 52 53  1  0  0  0
 57 53  1  0  0  0
 58 57  1  0  0  0
 16 25  1  0  0  0
 19 26  1  0  0  0
 21 27  1  0  0  0
 29 30  1  0  0  0
  4 10  1  0  0  0
  6 11  1  0  0  0
 13 14  1  0  0  0
 33 39  1  0  0  0
 35 40  1  0  0  0
 42 43  1  0  0  0
 47 54  1  0  0  0
 49 55  1  0  0  0
 51 56  1  0  0  0
 58 59  1  0  0  0
M  END
> <minimizedAffinity>
-9.92556

$$$$
3F5J_CTT_A_1000


 59 62  0  0  0  0  0  0  0  0999 V2000
    1.4988   -0.7627   42.4820 O   0  0  0  0  0  0  0  0  0  0  0  0
    2.0996    0.4840   38.6000 C   0  0  0  0  0  0  0  0  0  0  0  0
    2.6731    1.4265   39.6708 C   0  0  0  0  0  0  0  0  0  0  0  0
    4.0015    1.7792   39.2759 O   0  0  0  0  0  0  0  0  0  0  0  0
    2.6909    0.7682   41.0522 C   0  0  0  0  0  0  0  0  0  0  0  0
    3.0902    1.7176   42.0659 O   0  0  0  0  0  0  0  0  0  0  0  0
    0.7690    0.0675   38.9523 O   0  0  0  0  0  0  0  0  0  0  0  0
    0.8025   -0.6708   40.1904 C   0  0  0  0  0  0  0  0  0  0  0  0
    1.3287    0.1408   41.3848 C   0  0  0  0  0  0  0  0  0  0  0  0
    4.5438    0.9774   39.2133 H   0  0  0  0  0  0  0  0  0  0  0  0
    2.4476    2.4435   42.1001 H   0  0  0  0  0  0  0  0  0  0  0  0
   -0.5735   -1.2550   40.4270 C   0  0  0  0  0  0  0  0  0  0  0  0
   -1.2221   -0.1944   41.1253 O   0  0  0  0  0  0  0  0  0  0  0  0
   -0.7140    0.0267   41.9215 H   0  0  0  0  0  0  0  0  0  0  0  0
    2.1309    1.1098   37.2691 O   0  0  0  0  0  0  0  0  0  0  0  0
    6.5186    0.9553   33.9077 O   0  0  0  0  0  0  0  0  0  0  0  0
    5.2100    0.7814   34.4882 C   0  0  0  0  0  0  0  0  0  0  0  0
    5.3862    0.0098   35.7897 C   0  0  0  0  0  0  0  0  0  0  0  0
    5.9040   -1.2998   35.5339 O   0  0  0  0  0  0  0  0  0  0  0  0
    4.0629   -0.1104   36.5217 C   0  0  0  0  0  0  0  0  0  0  0  0
    4.2977   -0.7903   37.7670 O   0  0  0  0  0  0  0  0  0  0  0  0
    4.6295    2.0808   34.7032 O   0  0  0  0  0  0  0  0  0  0  0  0
    3.4571    2.2145   35.5268 C   0  0  0  0  0  0  0  0  0  0  0  0
    3.4578    1.2806   36.7578 C   0  0  0  0  0  0  0  0  0  0  0  0
    6.4401    1.4452   33.0742 H   0  0  0  0  0  0  0  0  0  0  0  0
    5.2777   -1.7928   34.9811 H   0  0  0  0  0  0  0  0  0  0  0  0
    4.9319   -0.2832   38.2977 H   0  0  0  0  0  0  0  0  0  0  0  0
    3.4340    3.6695   36.0141 C   0  0  0  0  0  0  0  0  0  0  0  0
    3.4850    3.7772   37.4386 O   0  0  0  0  0  0  0  0  0  0  0  0
    2.7064    3.3454   37.8235 H   0  0  0  0  0  0  0  0  0  0  0  0
    0.9212   -0.3556   43.7457 C   0  0  0  0  0  0  0  0  0  0  0  0
    0.2311   -1.5359   44.4209 C   0  0  0  0  0  0  0  0  0  0  0  0
   -0.7926   -2.0098   43.5474 O   0  0  0  0  0  0  0  0  0  0  0  0
   -0.3651   -1.0837   45.7476 C   0  0  0  0  0  0  0  0  0  0  0  0
   -1.0049   -2.1568   46.4807 O   0  0  0  0  0  0  0  0  0  0  0  0
    1.9165    0.0813   44.6745 O   0  0  0  0  0  0  0  0  0  0  0  0
    1.3740    0.6754   45.8749 C   0  0  0  0  0  0  0  0  0  0  0  0
    0.6489   -0.4156   46.6617 C   0  0  0  0  0  0  0  0  0  0  0  0
   -1.4243   -1.2949   43.3718 H   0  0  0  0  0  0  0  0  0  0  0  0
   -0.3389   -2.8120   46.7417 H   0  0  0  0  0  0  0  0  0  0  0  0
    2.4891    1.3622   46.6540 C   0  0  0  0  0  0  0  0  0  0  0  0
    3.2905    0.3549   47.3177 O   0  0  0  0  0  0  0  0  0  0  0  0
    2.7311   -0.1558   47.9236 H   0  0  0  0  0  0  0  0  0  0  0  0
   -0.1940    0.1105   47.6778 O   0  0  0  0  0  0  0  0  0  0  0  0
    0.2575    0.1750   49.0703 C   0  0  0  0  0  0  0  0  0  0  0  0
   -0.9583    0.0013   50.0490 C   0  0  0  0  0  0  0  0  0  0  0  0
   -1.1980    1.0895   50.9825 O   0  0  0  0  0  0  0  0  0  0  0  0
   -0.9012   -1.2852   50.8479 C   0  0  0  0  0  0  0  0  0  0  0  0
   -2.2029   -1.6285   51.3505 O   0  0  0  0  0  0  0  0  0  0  0  0
   -0.2898   -2.3219   49.9061 C   0  0  0  0  0  0  0  0  0  0  0  0
   -0.4756   -3.5875   50.5076 O   0  0  0  0  0  0  0  0  0  0  0  0
    1.4264   -0.6817   49.3000 O   0  0  0  0  0  0  0  0  0  0  0  0
    1.2042   -1.9857   49.8931 C   0  0  0  0  0  0  0  0  0  0  0  0
   -0.4726    1.1300   51.6251 H   0  0  0  0  0  0  0  0  0  0  0  0
   -2.8222   -1.7186   50.6094 H   0  0  0  0  0  0  0  0  0  0  0  0
   -0.0915   -3.5817   51.3983 H   0  0  0  0  0  0  0  0  0  0  0  0
    2.1675   -3.0123   49.2581 C   0  0  0  0  0  0  0  0  0  0  0  0
    3.4577   -2.4368   48.8933 O   0  0  0  0  0  0  0  0  0  0  0  0
    3.3258   -1.7421   48.2293 H   0  0  0  0  0  0  0  0  0  0  0  0
 16 17  1  0  0  0
 17 22  1  0  0  0
 17 18  1  0  0  0
 19 18  1  0  0  0
 18 20  1  0  0  0
 20 24  1  0  0  0
 20 21  1  0  0  0
 22 23  1  0  0  0
 23 24  1  0  0  0
 23 28  1  0  0  0
 29 28  1  0  0  0
 24 15  1  0  0  0
 15  2  1  0  0  0
  2  3  1  0  0  0
  2  7  1  0  0  0
  4  3  1  0  0  0
  3  5  1  0  0  0
  5  6  1  0  0  0
  5  9  1  0  0  0
  7  8  1  0  0  0
  8 12  1  0  0  0
  8  9  1  0  0  0
 13 12  1  0  0  0
  9  1  1  0  0  0
  1 31  1  0  0  0
 31 36  1  0  0  0
 31 32  1  0  0  0
 33 32  1  0  0  0
 32 34  1  0  0  0
 34 38  1  0  0  0
 34 35  1  0  0  0
 36 37  1  0  0  0
 41 37  1  0  0  0
 37 38  1  0  0  0
 42 41  1  0  0  0
 38 44  1  0  0  0
 44 45  1  0  0  0
 45 52  1  0  0  0
 45 46  1  0  0  0
 46 47  1  0  0  0
 46 48  1  0  0  0
 50 48  1  0  0  0
 48 49  1  0  0  0
 53 50  1  0  0  0
 50 51  1  0  0  0
 52 53  1  0  0  0
 57 53  1  0  0  0
 58 57  1  0  0  0
 16 25  1  0  0  0
 19 26  1  0  0  0
 21 27  1  0  0  0
 29 30  1  0  0  0
  4 10  1  0  0  0
  6 11  1  0  0  0
 13 14  1  0  0  0
 33 39  1  0  0  0
 35 40  1  0  0  0
 42 43  1  0  0  0
 47 54  1  0  0  0
 49 55  1  0  0  0
 51 56  1  0  0  0
 58 59  1  0  0  0
M  END
> <minimizedAffinity>
-9.49467

$$$$
3F5J_CTT_A_1000


 59 62  0  0  0  0  0  0  0  0999 V2000
    3.8432   -0.0069   38.7580 O   0  0  0  0  0  0  0  0  0  0  0  0
   -0.2624   -0.2004   38.4562 C   0  0  0  0  0  0  0  0  0  0  0  0
    0.4676   -1.5055   38.0991 C   0  0  0  0  0  0  0  0  0  0  0  0
   -0.2055   -2.5782   38.7631 O   0  0  0  0  0  0  0  0  0  0  0  0
    1.9381   -1.4642   38.5208 C   0  0  0  0  0  0  0  0  0  0  0  0
    2.6401   -2.6336   38.0433 O   0  0  0  0  0  0  0  0  0  0  0  0
    0.3841    0.9265   37.8397 O   0  0  0  0  0  0  0  0  0  0  0  0
    1.7316    1.0466   38.3383 C   0  0  0  0  0  0  0  0  0  0  0  0
    2.6171   -0.1734   38.0383 C   0  0  0  0  0  0  0  0  0  0  0  0
   -0.1779   -2.4331   39.7218 H   0  0  0  0  0  0  0  0  0  0  0  0
    2.6181   -2.6504   37.0737 H   0  0  0  0  0  0  0  0  0  0  0  0
    2.3110    2.3450   37.8198 C   0  0  0  0  0  0  0  0  0  0  0  0
    2.9430    1.9192   36.6146 O   0  0  0  0  0  0  0  0  0  0  0  0
    3.5848    1.2203   36.8156 H   0  0  0  0  0  0  0  0  0  0  0  0
   -1.6853   -0.2696   38.0890 O   0  0  0  0  0  0  0  0  0  0  0  0
   -6.1911    1.8833   40.4633 O   0  0  0  0  0  0  0  0  0  0  0  0
   -5.2762    1.2454   39.5491 C   0  0  0  0  0  0  0  0  0  0  0  0
   -4.2067    2.2672   39.1854 C   0  0  0  0  0  0  0  0  0  0  0  0
   -4.7842    3.3760   38.4883 O   0  0  0  0  0  0  0  0  0  0  0  0
   -3.1370    1.6333   38.3164 C   0  0  0  0  0  0  0  0  0  0  0  0
   -2.1253    2.6216   38.0553 O   0  0  0  0  0  0  0  0  0  0  0  0
   -4.7199    0.0855   40.1947 O   0  0  0  0  0  0  0  0  0  0  0  0
   -3.5735   -0.5713   39.6245 C   0  0  0  0  0  0  0  0  0  0  0  0
   -2.5406    0.4051   39.0185 C   0  0  0  0  0  0  0  0  0  0  0  0
   -6.8868    1.2559   40.7148 H   0  0  0  0  0  0  0  0  0  0  0  0
   -5.1875    3.0644   37.6629 H   0  0  0  0  0  0  0  0  0  0  0  0
   -1.7434    2.9228   38.8945 H   0  0  0  0  0  0  0  0  0  0  0  0
   -2.9050   -1.3459   40.7683 C   0  0  0  0  0  0  0  0  0  0  0  0
   -2.3905   -2.6130   40.3523 O   0  0  0  0  0  0  0  0  0  0  0  0
   -3.1186   -3.1683   40.0322 H   0  0  0  0  0  0  0  0  0  0  0  0
    3.7395    0.0472   40.2011 C   0  0  0  0  0  0  0  0  0  0  0  0
    4.2880    1.3698   40.7254 C   0  0  0  0  0  0  0  0  0  0  0  0
    5.6553    1.4703   40.3311 O   0  0  0  0  0  0  0  0  0  0  0  0
    4.1654    1.4038   42.2433 C   0  0  0  0  0  0  0  0  0  0  0  0
    4.6243    2.6485   42.8250 O   0  0  0  0  0  0  0  0  0  0  0  0
    2.3807    0.0002   40.6435 O   0  0  0  0  0  0  0  0  0  0  0  0
    2.2373   -0.1418   42.0744 C   0  0  0  0  0  0  0  0  0  0  0  0
    2.7524    1.1363   42.7349 C   0  0  0  0  0  0  0  0  0  0  0  0
    6.1528    0.7215   40.6955 H   0  0  0  0  0  0  0  0  0  0  0  0
    4.0489    3.3730   42.5336 H   0  0  0  0  0  0  0  0  0  0  0  0
    0.7885   -0.4721   42.4124 C   0  0  0  0  0  0  0  0  0  0  0  0
    0.7241   -1.8148   42.9512 O   0  0  0  0  0  0  0  0  0  0  0  0
    1.0610   -2.4435   42.2938 H   0  0  0  0  0  0  0  0  0  0  0  0
    2.9659    0.9830   44.1316 O   0  0  0  0  0  0  0  0  0  0  0  0
    1.8356    0.8943   45.0597 C   0  0  0  0  0  0  0  0  0  0  0  0
    1.9357   -0.4148   45.9212 C   0  0  0  0  0  0  0  0  0  0  0  0
    0.8160   -1.3372   45.8290 O   0  0  0  0  0  0  0  0  0  0  0  0
    2.1875   -0.1433   47.3907 C   0  0  0  0  0  0  0  0  0  0  0  0
    2.7292   -1.3073   48.0362 O   0  0  0  0  0  0  0  0  0  0  0  0
    3.0965    1.0847   47.4275 C   0  0  0  0  0  0  0  0  0  0  0  0
    3.5793    1.2024   48.7508 O   0  0  0  0  0  0  0  0  0  0  0  0
    1.6293    2.1545   45.7825 O   0  0  0  0  0  0  0  0  0  0  0  0
    2.1586    2.2578   47.1281 C   0  0  0  0  0  0  0  0  0  0  0  0
    0.0309   -0.9339   46.2312 H   0  0  0  0  0  0  0  0  0  0  0  0
    3.5529   -1.5677   47.5951 H   0  0  0  0  0  0  0  0  0  0  0  0
    2.8303    1.2416   49.3660 H   0  0  0  0  0  0  0  0  0  0  0  0
    2.6956    3.6866   47.3631 C   0  0  0  0  0  0  0  0  0  0  0  0
    2.8390    4.0187   48.7766 O   0  0  0  0  0  0  0  0  0  0  0  0
    1.9706    3.9813   49.2073 H   0  0  0  0  0  0  0  0  0  0  0  0
 16 17  1  0  0  0
 17 22  1  0  0  0
 17 18  1  0  0  0
 19 18  1  0  0  0
 18 20  1  0  0  0
 20 24  1  0  0  0
 20 21  1  0  0  0
 22 23  1  0  0  0
 23 24  1  0  0  0
 23 28  1  0  0  0
 29 28  1  0  0  0
 24 15  1  0  0  0
 15  2  1  0  0  0
  2  3  1  0  0  0
  2  7  1  0  0  0
  4  3  1  0  0  0
  3  5  1  0  0  0
  5  6  1  0  0  0
  5  9  1  0  0  0
  7  8  1  0  0  0
  8 12  1  0  0  0
  8  9  1  0  0  0
 13 12  1  0  0  0
  9  1  1  0  0  0
  1 31  1  0  0  0
 31 36  1  0  0  0
 31 32  1  0  0  0
 33 32  1  0  0  0
 32 34  1  0  0  0
 34 38  1  0  0  0
 34 35  1  0  0  0
 36 37  1  0  0  0
 41 37  1  0  0  0
 37 38  1  0  0  0
 42 41  1  0  0  0
 38 44  1  0  0  0
 44 45  1  0  0  0
 45 52  1  0  0  0
 45 46  1  0  0  0
 46 47  1  0  0  0
 46 48  1  0  0  0
 50 48  1  0  0  0
 48 49  1  0  0  0
 53 50  1  0  0  0
 50 51  1  0  0  0
 52 53  1  0  0  0
 57 53  1  0  0  0
 58 57  1  0  0  0
 16 25  1  0  0  0
 19 26  1  0  0  0
 21 27  1  0  0  0
 29 30  1  0  0  0
  4 10  1  0  0  0
  6 11  1  0  0  0
 13 14  1  0  0  0
 33 39  1  0  0  0
 35 40  1  0  0  0
 42 43  1  0  0  0
 47 54  1  0  0  0
 49 55  1  0  0  0
 51 56  1  0  0  0
 58 59  1  0  0  0
M  END
> <minimizedAffinity>
-9.43491

$$$$
3F5J_CTT_A_1000


 59 62  0  0  0  0  0  0  0  0999 V2000
    3.1678    0.8035   46.3452 O   0  0  0  0  0  0  0  0  0  0  0  0
    0.1359    2.1889   48.7685 C   0  0  0  0  0  0  0  0  0  0  0  0
    1.1431    3.2630   48.3264 C   0  0  0  0  0  0  0  0  0  0  0  0
    0.4006    4.4041   47.8885 O   0  0  0  0  0  0  0  0  0  0  0  0
    2.0487    2.7593   47.2003 C   0  0  0  0  0  0  0  0  0  0  0  0
    3.0819    3.7254   46.9042 O   0  0  0  0  0  0  0  0  0  0  0  0
    0.8202    0.9987   49.1966 O   0  0  0  0  0  0  0  0  0  0  0  0
    1.5702    0.4466   48.0959 C   0  0  0  0  0  0  0  0  0  0  0  0
    2.6520    1.3892   47.5451 C   0  0  0  0  0  0  0  0  0  0  0  0
   -0.1674    4.1536   47.1432 H   0  0  0  0  0  0  0  0  0  0  0  0
    3.6392    3.8532   47.6877 H   0  0  0  0  0  0  0  0  0  0  0  0
    2.1147   -0.8985   48.5255 C   0  0  0  0  0  0  0  0  0  0  0  0
    3.4589   -0.5702   48.8697 O   0  0  0  0  0  0  0  0  0  0  0  0
    3.8971   -0.1606   48.1074 H   0  0  0  0  0  0  0  0  0  0  0  0
   -0.7595    2.6996   49.8180 O   0  0  0  0  0  0  0  0  0  0  0  0
   -5.3937    0.9380   47.3694 O   0  0  0  0  0  0  0  0  0  0  0  0
   -4.0235    1.2805   47.6605 C   0  0  0  0  0  0  0  0  0  0  0  0
   -3.9686    2.7843   47.8970 C   0  0  0  0  0  0  0  0  0  0  0  0
   -4.3307    3.4956   46.7089 O   0  0  0  0  0  0  0  0  0  0  0  0
   -2.5762    3.2060   48.3269 C   0  0  0  0  0  0  0  0  0  0  0  0
   -2.5968    4.6188   48.5953 O   0  0  0  0  0  0  0  0  0  0  0  0
   -3.6020    0.5346   48.8171 O   0  0  0  0  0  0  0  0  0  0  0  0
   -2.3833    0.8905   49.4944 C   0  0  0  0  0  0  0  0  0  0  0  0
   -2.1406    2.4147   49.5682 C   0  0  0  0  0  0  0  0  0  0  0  0
   -5.4622   -0.0169   47.2134 H   0  0  0  0  0  0  0  0  0  0  0  0
   -3.7013    3.2850   46.0015 H   0  0  0  0  0  0  0  0  0  0  0  0
   -3.2379    4.8049   49.2990 H   0  0  0  0  0  0  0  0  0  0  0  0
   -2.5059    0.3428   50.9226 C   0  0  0  0  0  0  0  0  0  0  0  0
   -1.2411    0.2100   51.5753 O   0  0  0  0  0  0  0  0  0  0  0  0
   -0.6890   -0.4193   51.0854 H   0  0  0  0  0  0  0  0  0  0  0  0
    2.2652    0.7537   45.2143 C   0  0  0  0  0  0  0  0  0  0  0  0
    3.0020    1.1120   43.9283 C   0  0  0  0  0  0  0  0  0  0  0  0
    3.5302    2.4294   44.0724 O   0  0  0  0  0  0  0  0  0  0  0  0
    2.0334    1.0499   42.7544 C   0  0  0  0  0  0  0  0  0  0  0  0
    2.6617    1.3343   41.4806 O   0  0  0  0  0  0  0  0  0  0  0  0
    1.7475   -0.5615   44.9986 O   0  0  0  0  0  0  0  0  0  0  0  0
    0.6994   -0.6207   44.0055 C   0  0  0  0  0  0  0  0  0  0  0  0
    1.3103   -0.2826   42.6462 C   0  0  0  0  0  0  0  0  0  0  0  0
    2.8054    3.0519   44.2398 H   0  0  0  0  0  0  0  0  0  0  0  0
    3.3099    0.6417   41.2781 H   0  0  0  0  0  0  0  0  0  0  0  0
    0.0228   -1.9852   44.0574 C   0  0  0  0  0  0  0  0  0  0  0  0
   -1.3330   -1.8584   43.5643 O   0  0  0  0  0  0  0  0  0  0  0  0
   -1.8203   -1.2275   44.1169 H   0  0  0  0  0  0  0  0  0  0  0  0
    0.3279    0.0108   41.6622 O   0  0  0  0  0  0  0  0  0  0  0  0
    0.0545   -0.9267   40.5697 C   0  0  0  0  0  0  0  0  0  0  0  0
   -0.9291   -0.2828   39.5286 C   0  0  0  0  0  0  0  0  0  0  0  0
   -2.1766   -0.9908   39.2933 O   0  0  0  0  0  0  0  0  0  0  0  0
   -0.2856   -0.0256   38.1809 C   0  0  0  0  0  0  0  0  0  0  0  0
   -1.0304    0.9564   37.4421 O   0  0  0  0  0  0  0  0  0  0  0  0
    1.1580    0.3708   38.4885 C   0  0  0  0  0  0  0  0  0  0  0  0
    1.7091    0.8861   37.2931 O   0  0  0  0  0  0  0  0  0  0  0  0
    1.2896   -1.5183   40.0431 O   0  0  0  0  0  0  0  0  0  0  0  0
    1.8481   -0.9528   38.8308 C   0  0  0  0  0  0  0  0  0  0  0  0
   -1.9917   -1.8324   38.8480 H   0  0  0  0  0  0  0  0  0  0  0  0
   -1.0794    1.7782   37.9550 H   0  0  0  0  0  0  0  0  0  0  0  0
    1.6177    0.2291   36.5854 H   0  0  0  0  0  0  0  0  0  0  0  0
    3.3898   -0.9581   38.9216 C   0  0  0  0  0  0  0  0  0  0  0  0
    4.0393   -0.6900   37.6428 O   0  0  0  0  0  0  0  0  0  0  0  0
    3.8027   -1.3844   37.0082 H   0  0  0  0  0  0  0  0  0  0  0  0
 16 17  1  0  0  0
 17 22  1  0  0  0
 17 18  1  0  0  0
 19 18  1  0  0  0
 18 20  1  0  0  0
 20 24  1  0  0  0
 20 21  1  0  0  0
 22 23  1  0  0  0
 23 24  1  0  0  0
 23 28  1  0  0  0
 29 28  1  0  0  0
 24 15  1  0  0  0
 15  2  1  0  0  0
  2  3  1  0  0  0
  2  7  1  0  0  0
  4  3  1  0  0  0
  3  5  1  0  0  0
  5  6  1  0  0  0
  5  9  1  0  0  0
  7  8  1  0  0  0
  8 12  1  0  0  0
  8  9  1  0  0  0
 13 12  1  0  0  0
  9  1  1  0  0  0
  1 31  1  0  0  0
 31 36  1  0  0  0
 31 32  1  0  0  0
 33 32  1  0  0  0
 32 34  1  0  0  0
 34 38  1  0  0  0
 34 35  1  0  0  0
 36 37  1  0  0  0
 41 37  1  0  0  0
 37 38  1  0  0  0
 42 41  1  0  0  0
 38 44  1  0  0  0
 44 45  1  0  0  0
 45 52  1  0  0  0
 45 46  1  0  0  0
 46 47  1  0  0  0
 46 48  1  0  0  0
 50 48  1  0  0  0
 48 49  1  0  0  0
 53 50  1  0  0  0
 50 51  1  0  0  0
 52 53  1  0  0  0
 57 53  1  0  0  0
 58 57  1  0  0  0
 16 25  1  0  0  0
 19 26  1  0  0  0
 21 27  1  0  0  0
 29 30  1  0  0  0
  4 10  1  0  0  0
  6 11  1  0  0  0
 13 14  1  0  0  0
 33 39  1  0  0  0
 35 40  1  0  0  0
 42 43  1  0  0  0
 47 54  1  0  0  0
 49 55  1  0  0  0
 51 56  1  0  0  0
 58 59  1  0  0  0
M  END
> <minimizedAffinity>
-9.39867

$$$$
