1GHY_121_H_246
  RCSB PDB12061702363D
Coordinates from PDB:1GHY:H:246 Model:1 without hydrogens
 19 21  0  0  0  0            999 V2000
   12.1290  -11.7940   22.8500   C 0  0  0  0  0  0  0  0  0  0  0  0
   12.1340  -10.7030   21.9600   C 0  0  0  0  0  0  0  0  0  0  0  0
   13.0630  -10.6080   20.9460   C 0  0  0  0  0  0  0  0  0  0  0  0
   13.9750  -11.6260   20.8300   C 0  0  0  0  0  0  0  0  0  0  0  0
   13.9850  -12.6930   21.6780   C 0  0  0  0  0  0  0  0  0  0  0  0
   13.0700  -12.8160   22.7070   C 0  0  0  0  0  0  0  0  0  0  0  0
   11.2050  -11.8130   23.8750   C 0  0  0  0  0  0  0  0  0  0  0  0
   10.5580  -12.8920   24.1770   N 0  0  0  0  0  0  0  0  0  0  0  0
   11.0250  -10.6920   24.5390   N 0  3  0  0  0  0  0  0  0  0  0  0
   14.9670  -11.7520   20.0020   N 0  0  0  0  0  0  0  0  0  0  0  0
   14.9880  -13.4550   21.3550   N 0  0  0  0  0  0  0  0  0  0  0  0
   15.5810  -12.8680   20.3340   C 0  0  0  0  0  0  0  0  0  0  0  0
   16.7500  -13.3560   19.7150   C 0  0  0  0  0  0  0  0  0  0  0  0
   17.5630  -14.0260   20.5190   N 0  0  0  0  0  0  0  0  0  0  0  0
   18.7250  -14.5340   20.1550   C 0  0  0  0  0  0  0  0  0  0  0  0
   19.1630  -14.3720   18.8460   C 0  0  0  0  0  0  0  0  0  0  0  0
   18.3540  -13.6700   17.9400   C 0  0  0  0  0  0  0  0  0  0  0  0
   17.1250  -13.1490   18.3620   C 0  0  0  0  0  0  0  0  0  0  0  0
   16.3480  -12.4580   17.4410   O 0  0  0  0  0  0  0  0  0  0  0  0
  1  2  1  0  0  0  0
  1  6  2  0  0  0  0
  1  7  1  0  0  0  0
  2  3  2  0  0  0  0
  3  4  1  0  0  0  0
  4  5  2  0  0  0  0
  4 10  1  0  0  0  0
  5  6  1  0  0  0  0
  5 11  1  0  0  0  0
  7  8  1  0  0  0  0
  7  9  2  0  0  0  0
 10 12  1  0  0  0  0
 11 12  2  0  0  0  0
 12 13  1  0  0  0  0
 13 14  2  0  0  0  0
 13 18  1  0  0  0  0
 14 15  1  0  0  0  0
 15 16  2  0  0  0  0
 16 17  1  0  0  0  0
 17 18  2  0  0  0  0
 18 19  1  0  0  0  0
M  CHG  1   9   1
A    1
C1
A    2
C2
A    3
C3
A    4
C4
A    5
C5
A    6
C6
A    7
C7
A    8
N1
A    9
N2
A   10
N3
A   11
N4
A   12
C8
A   13
C1'
A   14
N2'
A   15
C3'
A   16
C4'
A   17
C5'
A   18
C6'
A   19
O6'
M  END
>  <InstanceId>
1GHY_121_H_246

>  <ChemCompId>
121

>  <PdbId>
1GHY

>  <ChainId>
H

>  <ResidueNumber>
246

>  <InsertionCode>


>  <Model>
1

>  <AltIds>


>  <MissingHeavyAtoms>
0

>  <ObservedFormula>
C13 N5 O

>  <Name>
2-(3-HYDROXY-PYRIDIN-2-YL)-1H-BENZOIMIDAZOLE-5-CARBOXAMIDINE

>  <SystematicName>
[amino-[2-(3-hydroxypyridin-2-yl)-1H-benzimidazol-5-yl]methylidene]azanium

>  <Synonyms>


>  <Type>
NON-POLYMER

>  <Formula>
C13 H12 N5 O

>  <MolecularWeight>
254.267

>  <ModifiedDate>
2011-06-04

>  <Parent>


>  <OneLetterCode>


>  <SubcomponentList>


>  <AmbiguousFlag>
N

>  <InChI>
InChI=1S/C13H11N5O/c14-12(15)7-3-4-8-9(6-7)18-13(17-8)11-10(19)2-1-5-16-11/h1-6,19H,(H3,14,15)(H,17,18)/p+1

>  <InChIKey>
FQCDQFDJHSXQKY-UHFFFAOYSA-O

>  <SMILES>
c1cc(c(nc1)c2[nH]c3ccc(cc3n2)C(=[NH2+])N)O

$$$$
