1AJ7_NPE_H_217
  RCSB PDB12061701593D
Coordinates from PDB:1AJ7:H:217 Model:1 without hydrogens
 20 20  0  0  0  0            999 V2000
   18.2960    6.1420   32.7200   C 0  0  0  0  0  0  0  0  0  0  0  0
   18.7590    5.4540   31.5480   N 0  3  0  0  0  0  0  0  0  0  0  0
   19.5520    6.1800   30.6400   O 0  5  0  0  0  0  0  0  0  0  0  0
   18.3840    4.1060   31.4170   O 0  0  0  0  0  0  0  0  0  0  0  0
   18.6450    7.5080   32.9320   C 0  0  0  0  0  0  0  0  0  0  0  0
   18.1990    8.1850   34.0870   C 0  0  0  0  0  0  0  0  0  0  0  0
   17.4080    7.5010   35.0370   C 0  0  0  0  0  0  0  0  0  0  0  0
   17.0520    6.1460   34.8330   C 0  0  0  0  0  0  0  0  0  0  0  0
   17.4930    5.4600   33.6840   C 0  0  0  0  0  0  0  0  0  0  0  0
   17.0220    8.1540   36.2280   O 0  0  0  0  0  0  0  0  0  0  0  0
   17.8810    7.9590   37.4820   P 0  0  0  0  0  0  0  0  0  0  0  0
   19.0780    8.7090   37.2570   O 0  0  0  0  0  0  0  0  0  0  0  0
   18.3010    6.5960   37.5090   O 0  5  0  0  0  0  0  0  0  0  0  0
   17.0790    8.4080   39.0270   C 0  0  0  0  0  0  0  0  0  0  0  0
   17.9070    7.8650   40.1910   C 0  0  0  0  0  0  0  0  0  0  0  0
   17.2700    8.0000   41.5820   C 0  0  0  0  0  0  0  0  0  0  0  0
   16.7210    6.6450   42.0530   C 0  0  0  0  0  0  0  0  0  0  0  0
   17.3220    6.0920   43.3420   C 0  0  0  0  0  0  0  0  0  0  0  0
   18.0430    5.1510   43.4370   O 0  0  0  0  0  0  0  0  0  0  0  0
   16.9010    6.8460   44.3750   O 0  0  0  0  0  0  0  0  0  0  0  0
  1  2  1  0  0  0  0
  1  5  2  0  0  0  0
  1  9  1  0  0  0  0
  2  3  1  0  0  0  0
  2  4  2  0  0  0  0
  5  6  1  0  0  0  0
  6  7  2  0  0  0  0
  7  8  1  0  0  0  0
  7 10  1  0  0  0  0
  8  9  2  0  0  0  0
 10 11  1  0  0  0  0
 11 12  2  0  0  0  0
 11 13  1  0  0  0  0
 11 14  1  0  0  0  0
 14 15  1  0  0  0  0
 15 16  1  0  0  0  0
 16 17  1  0  0  0  0
 17 18  1  0  0  0  0
 18 19  2  0  0  0  0
 18 20  1  0  0  0  0
M  CHG  3   2   1   3  -1  13  -1
A    1
C1
A    2
N1
A    3
O1N
A    4
O2N
A    5
C2
A    6
C3
A    7
C4
A    8
C5
A    9
C6
A   10
O3P
A   11
P
A   12
O1P
A   13
O2P
A   14
C7
A   15
C8
A   16
C9
A   17
C10
A   18
C11
A   19
O1
A   20
O2
M  END
>  <InstanceId>
1AJ7_NPE_H_217

>  <ChemCompId>
NPE

>  <PdbId>
1AJ7

>  <ChainId>
H

>  <ResidueNumber>
217

>  <InsertionCode>


>  <Model>
1

>  <AltIds>


>  <MissingHeavyAtoms>
0

>  <ObservedFormula>
C11 N O7 P

>  <Name>
5-(PARA-NITROPHENYL PHOSPHONATE)-PENTANOIC ACID

>  <SystematicName>
(5-hydroxy-5-oxo-pentyl)-(4-nitrophenoxy)phosphinate

>  <Synonyms>


>  <Type>
NON-POLYMER

>  <Formula>
C11 H13 N O7 P

>  <MolecularWeight>
302.197

>  <ModifiedDate>
2011-06-04

>  <Parent>


>  <OneLetterCode>


>  <SubcomponentList>


>  <AmbiguousFlag>
N

>  <InChI>
InChI=1S/C11H14NO7P/c13-11(14)3-1-2-8-20(17,18)19-10-6-4-9(5-7-10)12(15)16/h4-7H,1-3,8H2,(H,13,14)(H,17,18)/p-1

>  <InChIKey>
XVVZSEXTAACTPS-UHFFFAOYSA-M

>  <SMILES>
c1cc(ccc1[N+](=O)[O-])O[P@@](=O)(CCCCC(=O)O)[O-]

$$$$
