5T7S_LBT_A_201


 31 32  0  0  0  0  0  0  0  0999 V2000
   -6.2676    0.4517    8.5881 O   0  0  0  0  0  0  0  0  0  0  0  0
   -5.1227    0.4124    7.7303 C   0  0  0  0  0  0  0  0  0  0  0  0
   -4.9963   -0.9949    7.1308 C   0  0  0  0  0  0  0  0  0  0  0  0
   -3.9159   -1.0444    6.0440 C   0  0  0  0  0  0  0  0  0  0  0  0
   -4.0376    0.1415    5.0764 C   0  0  0  0  0  0  0  0  0  0  0  0
   -4.1202    1.4500    5.8647 C   0  0  0  0  0  0  0  0  0  0  0  0
   -4.6727   -1.9620    8.1454 O   0  0  0  0  0  0  0  0  0  0  0  0
   -4.0055   -2.2941    5.3569 O   0  0  0  0  0  0  0  0  0  0  0  0
   -5.2108   -0.0025    4.2566 O   0  0  0  0  0  0  0  0  0  0  0  0
   -5.2737    1.4032    6.7067 O   0  0  0  0  0  0  0  0  0  0  0  0
   -3.8122   -1.7444    8.5369 H   0  0  0  0  0  0  0  0  0  0  0  0
   -4.8777   -2.3718    4.9396 H   0  0  0  0  0  0  0  0  0  0  0  0
   -5.9995   -0.0204    4.8210 H   0  0  0  0  0  0  0  0  0  0  0  0
   -4.2049    2.6777    4.9668 C   0  0  0  0  0  0  0  0  0  0  0  0
   -4.5448    3.8122    5.7683 O   0  0  0  0  0  0  0  0  0  0  0  0
   -5.3987    3.6577    6.2018 H   0  0  0  0  0  0  0  0  0  0  0  0
   -9.7563    2.7635    8.7956 C   0  0  0  0  0  0  0  0  0  0  0  0
   -9.7135    1.6594    7.7357 C   0  0  0  0  0  0  0  0  0  0  0  0
   -8.5577    0.6885    7.9937 C   0  0  0  0  0  0  0  0  0  0  0  0
   -7.2457    1.4256    8.2202 C   0  0  0  0  0  0  0  0  0  0  0  0
   -7.4110    2.4521    9.3398 C   0  0  0  0  0  0  0  0  0  0  0  0
  -10.2167    2.2107   10.0337 O   0  0  0  0  0  0  0  0  0  0  0  0
  -10.9606    0.9513    7.7474 O   0  0  0  0  0  0  0  0  0  0  0  0
   -8.4012   -0.2325    6.9077 O   0  0  0  0  0  0  0  0  0  0  0  0
   -8.4658    3.3622    8.9867 O   0  0  0  0  0  0  0  0  0  0  0  0
   -9.6015    1.5211   10.3286 H   0  0  0  0  0  0  0  0  0  0  0  0
  -11.0952    0.5481    8.6193 H   0  0  0  0  0  0  0  0  0  0  0  0
   -8.1766    0.2553    6.0999 H   0  0  0  0  0  0  0  0  0  0  0  0
   -6.1321    3.2381    9.6342 C   0  0  0  0  0  0  0  0  0  0  0  0
   -5.5071    3.6765    8.4146 O   0  0  0  0  0  0  0  0  0  0  0  0
   -5.2715    2.9047    7.8765 H   0  0  0  0  0  0  0  0  0  0  0  0
  2  3  1  0  0  0
  2  1  1  0  0  0
  2 10  1  0  0  0
  3  4  1  0  0  0
  3  7  1  0  0  0
  4  5  1  0  0  0
  4  8  1  0  0  0
  5  6  1  0  0  0
  5  9  1  0  0  0
  6 14  1  0  0  0
  6 10  1  0  0  0
 14 15  1  0  0  0
  1 20  1  0  0  0
 17 18  1  0  0  0
 17 22  1  0  0  0
 17 25  1  0  0  0
 18 19  1  0  0  0
 18 23  1  0  0  0
 19 20  1  0  0  0
 19 24  1  0  0  0
 20 21  1  0  0  0
 21 29  1  0  0  0
 21 25  1  0  0  0
 29 30  1  0  0  0
  7 11  1  0  0  0
  8 12  1  0  0  0
  9 13  1  0  0  0
 15 16  1  0  0  0
 22 26  1  0  0  0
 23 27  1  0  0  0
 24 28  1  0  0  0
 30 31  1  0  0  0
M  END
> <minimizedAffinity>
-6.26490

$$$$
5T7S_LBT_A_201


 31 32  0  0  0  0  0  0  0  0999 V2000
   -3.1152   -0.9257    6.5588 O   0  0  0  0  0  0  0  0  0  0  0  0
   -3.0334   -2.2474    6.0162 C   0  0  0  0  0  0  0  0  0  0  0  0
   -1.9461   -2.2760    4.9333 C   0  0  0  0  0  0  0  0  0  0  0  0
   -1.6650   -3.7075    4.4613 C   0  0  0  0  0  0  0  0  0  0  0  0
   -1.5251   -4.6728    5.6470 C   0  0  0  0  0  0  0  0  0  0  0  0
   -2.7173   -4.5126    6.5921 C   0  0  0  0  0  0  0  0  0  0  0  0
   -2.3285   -1.4833    3.7954 O   0  0  0  0  0  0  0  0  0  0  0  0
   -0.4924   -3.7052    3.6447 O   0  0  0  0  0  0  0  0  0  0  0  0
   -0.3045   -4.4108    6.3617 O   0  0  0  0  0  0  0  0  0  0  0  0
   -2.7396   -3.1676    7.0742 O   0  0  0  0  0  0  0  0  0  0  0  0
   -3.1316   -1.8545    3.3979 H   0  0  0  0  0  0  0  0  0  0  0  0
    0.2631   -3.3897    4.1648 H   0  0  0  0  0  0  0  0  0  0  0  0
   -0.3189   -3.5035    6.7045 H   0  0  0  0  0  0  0  0  0  0  0  0
   -2.6663   -5.4686    7.7770 C   0  0  0  0  0  0  0  0  0  0  0  0
   -1.9172   -4.8571    8.8306 O   0  0  0  0  0  0  0  0  0  0  0  0
   -1.0188   -4.6650    8.5192 H   0  0  0  0  0  0  0  0  0  0  0  0
   -6.2203    1.4222    8.1094 C   0  0  0  0  0  0  0  0  0  0  0  0
   -6.0273    0.0308    8.7185 C   0  0  0  0  0  0  0  0  0  0  0  0
   -4.6761   -0.5672    8.3164 C   0  0  0  0  0  0  0  0  0  0  0  0
   -4.4465   -0.4756    6.8147 C   0  0  0  0  0  0  0  0  0  0  0  0
   -4.6101    0.9705    6.3496 C   0  0  0  0  0  0  0  0  0  0  0  0
   -5.3673    2.3543    8.7835 O   0  0  0  0  0  0  0  0  0  0  0  0
   -6.1144    0.1293   10.1466 O   0  0  0  0  0  0  0  0  0  0  0  0
   -4.5706   -1.9352    8.7282 O   0  0  0  0  0  0  0  0  0  0  0  0
   -5.9251    1.4292    6.7048 O   0  0  0  0  0  0  0  0  0  0  0  0
   -4.4417    2.0894    8.6654 H   0  0  0  0  0  0  0  0  0  0  0  0
   -5.4157    0.7176   10.4733 H   0  0  0  0  0  0  0  0  0  0  0  0
   -5.2501   -2.4615    8.2785 H   0  0  0  0  0  0  0  0  0  0  0  0
   -4.3921    1.1513    4.8463 C   0  0  0  0  0  0  0  0  0  0  0  0
   -4.9392    0.0419    4.1115 O   0  0  0  0  0  0  0  0  0  0  0  0
   -4.4973   -0.7770    4.3856 H   0  0  0  0  0  0  0  0  0  0  0  0
  2  3  1  0  0  0
  2  1  1  0  0  0
  2 10  1  0  0  0
  3  4  1  0  0  0
  3  7  1  0  0  0
  4  5  1  0  0  0
  4  8  1  0  0  0
  5  6  1  0  0  0
  5  9  1  0  0  0
  6 14  1  0  0  0
  6 10  1  0  0  0
 14 15  1  0  0  0
  1 20  1  0  0  0
 17 18  1  0  0  0
 17 22  1  0  0  0
 17 25  1  0  0  0
 18 19  1  0  0  0
 18 23  1  0  0  0
 19 20  1  0  0  0
 19 24  1  0  0  0
 20 21  1  0  0  0
 21 29  1  0  0  0
 21 25  1  0  0  0
 29 30  1  0  0  0
  7 11  1  0  0  0
  8 12  1  0  0  0
  9 13  1  0  0  0
 15 16  1  0  0  0
 22 26  1  0  0  0
 23 27  1  0  0  0
 24 28  1  0  0  0
 30 31  1  0  0  0
M  END
> <minimizedAffinity>
-5.97504

$$$$
5T7S_LBT_A_201


 31 32  0  0  0  0  0  0  0  0999 V2000
   -6.9518   -0.2325    8.0654 O   0  0  0  0  0  0  0  0  0  0  0  0
   -5.6656   -0.0299    7.4717 C   0  0  0  0  0  0  0  0  0  0  0  0
   -5.2448   -1.3130    6.7421 C   0  0  0  0  0  0  0  0  0  0  0  0
   -3.9750   -1.0928    5.9115 C   0  0  0  0  0  0  0  0  0  0  0  0
   -4.0554    0.2054    5.0956 C   0  0  0  0  0  0  0  0  0  0  0  0
   -4.4579    1.3677    6.0051 C   0  0  0  0  0  0  0  0  0  0  0  0
   -5.0053   -2.3827    7.6736 O   0  0  0  0  0  0  0  0  0  0  0  0
   -3.7672   -2.2294    5.0708 O   0  0  0  0  0  0  0  0  0  0  0  0
   -5.0167    0.0682    4.0343 O   0  0  0  0  0  0  0  0  0  0  0  0
   -5.7384    1.0818    6.5710 O   0  0  0  0  0  0  0  0  0  0  0  0
   -4.2734   -2.1409    8.2625 H   0  0  0  0  0  0  0  0  0  0  0  0
   -4.5233   -2.3310    4.4717 H   0  0  0  0  0  0  0  0  0  0  0  0
   -5.8919   -0.1117    4.4119 H   0  0  0  0  0  0  0  0  0  0  0  0
   -4.5214    2.7003    5.2699 C   0  0  0  0  0  0  0  0  0  0  0  0
   -4.4658    3.7592    6.2293 O   0  0  0  0  0  0  0  0  0  0  0  0
   -5.2144    3.6808    6.8411 H   0  0  0  0  0  0  0  0  0  0  0  0
   -6.2624    2.3281   11.3097 C   0  0  0  0  0  0  0  0  0  0  0  0
   -5.7694    0.8848   11.4437 C   0  0  0  0  0  0  0  0  0  0  0  0
   -5.7697    0.1714   10.0885 C   0  0  0  0  0  0  0  0  0  0  0  0
   -7.0976    0.3421    9.3649 C   0  0  0  0  0  0  0  0  0  0  0  0
   -7.4401    1.8264    9.2470 C   0  0  0  0  0  0  0  0  0  0  0  0
   -5.2561    3.1113   10.6581 O   0  0  0  0  0  0  0  0  0  0  0  0
   -4.4449    0.8921   11.9936 O   0  0  0  0  0  0  0  0  0  0  0  0
   -5.4883   -1.2253   10.2371 O   0  0  0  0  0  0  0  0  0  0  0  0
   -7.4864    2.4009   10.5636 O   0  0  0  0  0  0  0  0  0  0  0  0
   -5.0936    2.7552    9.7706 H   0  0  0  0  0  0  0  0  0  0  0  0
   -3.8505    1.3757   11.3988 H   0  0  0  0  0  0  0  0  0  0  0  0
   -6.1857   -1.6410   10.7678 H   0  0  0  0  0  0  0  0  0  0  0  0
   -8.7641    2.0868    8.5265 C   0  0  0  0  0  0  0  0  0  0  0  0
   -8.6602    1.7619    7.1288 O   0  0  0  0  0  0  0  0  0  0  0  0
   -7.9776    2.3153    6.7181 H   0  0  0  0  0  0  0  0  0  0  0  0
  2  3  1  0  0  0
  2  1  1  0  0  0
  2 10  1  0  0  0
  3  4  1  0  0  0
  3  7  1  0  0  0
  4  5  1  0  0  0
  4  8  1  0  0  0
  5  6  1  0  0  0
  5  9  1  0  0  0
  6 14  1  0  0  0
  6 10  1  0  0  0
 14 15  1  0  0  0
  1 20  1  0  0  0
 17 18  1  0  0  0
 17 22  1  0  0  0
 17 25  1  0  0  0
 18 19  1  0  0  0
 18 23  1  0  0  0
 19 20  1  0  0  0
 19 24  1  0  0  0
 20 21  1  0  0  0
 21 29  1  0  0  0
 21 25  1  0  0  0
 29 30  1  0  0  0
  7 11  1  0  0  0
  8 12  1  0  0  0
  9 13  1  0  0  0
 15 16  1  0  0  0
 22 26  1  0  0  0
 23 27  1  0  0  0
 24 28  1  0  0  0
 30 31  1  0  0  0
M  END
> <minimizedAffinity>
-5.84211

$$$$
5T7S_LBT_A_201


 31 32  0  0  0  0  0  0  0  0999 V2000
   -7.0550   -0.3644    8.0078 O   0  0  0  0  0  0  0  0  0  0  0  0
   -5.7361   -0.1911    7.4801 C   0  0  0  0  0  0  0  0  0  0  0  0
   -5.3227   -1.4703    6.7395 C   0  0  0  0  0  0  0  0  0  0  0  0
   -4.0084   -1.2734    5.9748 C   0  0  0  0  0  0  0  0  0  0  0  0
   -4.0081    0.0453    5.1884 C   0  0  0  0  0  0  0  0  0  0  0  0
   -4.4156    1.1990    6.1066 C   0  0  0  0  0  0  0  0  0  0  0  0
   -5.1624   -2.5687    7.6544 O   0  0  0  0  0  0  0  0  0  0  0  0
   -3.7977   -2.3965    5.1169 O   0  0  0  0  0  0  0  0  0  0  0  0
   -4.9218   -0.0351    4.0802 O   0  0  0  0  0  0  0  0  0  0  0  0
   -5.7302    0.9430    6.6047 O   0  0  0  0  0  0  0  0  0  0  0  0
   -4.4519   -2.3651    8.2827 H   0  0  0  0  0  0  0  0  0  0  0  0
   -4.5274   -2.4589    4.4808 H   0  0  0  0  0  0  0  0  0  0  0  0
   -5.8193   -0.1943    4.4120 H   0  0  0  0  0  0  0  0  0  0  0  0
   -4.4011    2.5497    5.4023 C   0  0  0  0  0  0  0  0  0  0  0  0
   -5.6197    2.7004    4.6694 O   0  0  0  0  0  0  0  0  0  0  0  0
   -5.6954    1.9862    4.0175 H   0  0  0  0  0  0  0  0  0  0  0  0
   -9.4666    1.7137   10.7325 C   0  0  0  0  0  0  0  0  0  0  0  0
   -9.3913    2.2653    9.3063 C   0  0  0  0  0  0  0  0  0  0  0  0
   -8.7751    1.2416    8.3484 C   0  0  0  0  0  0  0  0  0  0  0  0
   -7.4745    0.6723    8.8964 C   0  0  0  0  0  0  0  0  0  0  0  0
   -7.7033    0.1033   10.2958 C   0  0  0  0  0  0  0  0  0  0  0  0
  -10.4928    0.7172   10.7990 O   0  0  0  0  0  0  0  0  0  0  0  0
  -10.7122    2.6128    8.8689 O   0  0  0  0  0  0  0  0  0  0  0  0
   -8.5331    1.8171    7.0591 O   0  0  0  0  0  0  0  0  0  0  0  0
   -8.2155    1.1437   11.1449 O   0  0  0  0  0  0  0  0  0  0  0  0
  -10.2762   -0.0108   10.1957 H   0  0  0  0  0  0  0  0  0  0  0  0
  -11.2729    1.8213    8.8731 H   0  0  0  0  0  0  0  0  0  0  0  0
   -7.8902    2.5387    7.1426 H   0  0  0  0  0  0  0  0  0  0  0  0
   -6.4410   -0.4939   10.9203 C   0  0  0  0  0  0  0  0  0  0  0  0
   -6.2113   -1.8292   10.4361 O   0  0  0  0  0  0  0  0  0  0  0  0
   -6.9636   -2.3933   10.6744 H   0  0  0  0  0  0  0  0  0  0  0  0
  2  3  1  0  0  0
  2  1  1  0  0  0
  2 10  1  0  0  0
  3  4  1  0  0  0
  3  7  1  0  0  0
  4  5  1  0  0  0
  4  8  1  0  0  0
  5  6  1  0  0  0
  5  9  1  0  0  0
  6 14  1  0  0  0
  6 10  1  0  0  0
 14 15  1  0  0  0
  1 20  1  0  0  0
 17 18  1  0  0  0
 17 22  1  0  0  0
 17 25  1  0  0  0
 18 19  1  0  0  0
 18 23  1  0  0  0
 19 20  1  0  0  0
 19 24  1  0  0  0
 20 21  1  0  0  0
 21 29  1  0  0  0
 21 25  1  0  0  0
 29 30  1  0  0  0
  7 11  1  0  0  0
  8 12  1  0  0  0
  9 13  1  0  0  0
 15 16  1  0  0  0
 22 26  1  0  0  0
 23 27  1  0  0  0
 24 28  1  0  0  0
 30 31  1  0  0  0
M  END
> <minimizedAffinity>
-5.73200

$$$$
5T7S_LBT_A_201


 31 32  0  0  0  0  0  0  0  0999 V2000
   -4.8082   -2.5483    6.0293 O   0  0  0  0  0  0  0  0  0  0  0  0
   -3.8811   -3.6039    6.3019 C   0  0  0  0  0  0  0  0  0  0  0  0
   -3.5136   -4.2984    4.9835 C   0  0  0  0  0  0  0  0  0  0  0  0
   -2.3680   -5.2986    5.1790 C   0  0  0  0  0  0  0  0  0  0  0  0
   -1.2310   -4.6940    6.0151 C   0  0  0  0  0  0  0  0  0  0  0  0
   -1.7969   -4.0810    7.2974 C   0  0  0  0  0  0  0  0  0  0  0  0
   -4.6449   -4.9966    4.4339 O   0  0  0  0  0  0  0  0  0  0  0  0
   -1.9054   -5.7309    3.8981 O   0  0  0  0  0  0  0  0  0  0  0  0
   -0.5411   -3.6822    5.2605 O   0  0  0  0  0  0  0  0  0  0  0  0
   -2.7233   -3.0531    6.9412 O   0  0  0  0  0  0  0  0  0  0  0  0
   -4.9261   -5.6916    5.0493 H   0  0  0  0  0  0  0  0  0  0  0  0
   -1.5766   -4.9673    3.3984 H   0  0  0  0  0  0  0  0  0  0  0  0
   -1.1611   -2.9735    5.0275 H   0  0  0  0  0  0  0  0  0  0  0  0
   -0.7186   -3.4931    8.1986 C   0  0  0  0  0  0  0  0  0  0  0  0
   -0.6498   -2.0824    7.9751 O   0  0  0  0  0  0  0  0  0  0  0  0
   -0.4346   -1.9126    7.0446 H   0  0  0  0  0  0  0  0  0  0  0  0
   -5.0859    1.4989    7.0787 C   0  0  0  0  0  0  0  0  0  0  0  0
   -4.2218    1.1515    5.8635 C   0  0  0  0  0  0  0  0  0  0  0  0
   -4.4827   -0.2813    5.3899 C   0  0  0  0  0  0  0  0  0  0  0  0
   -4.4165   -1.2738    6.5418 C   0  0  0  0  0  0  0  0  0  0  0  0
   -5.3673   -0.8420    7.6571 C   0  0  0  0  0  0  0  0  0  0  0  0
   -6.4459    1.6587    6.6598 O   0  0  0  0  0  0  0  0  0  0  0  0
   -4.5080    2.0771    4.8061 O   0  0  0  0  0  0  0  0  0  0  0  0
   -3.5488   -0.6710    4.3759 O   0  0  0  0  0  0  0  0  0  0  0  0
   -5.0103    0.4816    8.0885 O   0  0  0  0  0  0  0  0  0  0  0  0
   -6.7668    0.8265    6.2786 H   0  0  0  0  0  0  0  0  0  0  0  0
   -5.4436    2.0072    4.5597 H   0  0  0  0  0  0  0  0  0  0  0  0
   -2.6507   -0.6607    4.7423 H   0  0  0  0  0  0  0  0  0  0  0  0
   -5.3639   -1.7912    8.8567 C   0  0  0  0  0  0  0  0  0  0  0  0
   -4.0338   -1.9498    9.3818 O   0  0  0  0  0  0  0  0  0  0  0  0
   -3.4584   -2.3248    8.6969 H   0  0  0  0  0  0  0  0  0  0  0  0
  2  3  1  0  0  0
  2  1  1  0  0  0
  2 10  1  0  0  0
  3  4  1  0  0  0
  3  7  1  0  0  0
  4  5  1  0  0  0
  4  8  1  0  0  0
  5  6  1  0  0  0
  5  9  1  0  0  0
  6 14  1  0  0  0
  6 10  1  0  0  0
 14 15  1  0  0  0
  1 20  1  0  0  0
 17 18  1  0  0  0
 17 22  1  0  0  0
 17 25  1  0  0  0
 18 19  1  0  0  0
 18 23  1  0  0  0
 19 20  1  0  0  0
 19 24  1  0  0  0
 20 21  1  0  0  0
 21 29  1  0  0  0
 21 25  1  0  0  0
 29 30  1  0  0  0
  7 11  1  0  0  0
  8 12  1  0  0  0
  9 13  1  0  0  0
 15 16  1  0  0  0
 22 26  1  0  0  0
 23 27  1  0  0  0
 24 28  1  0  0  0
 30 31  1  0  0  0
M  END
> <minimizedAffinity>
-5.53882

$$$$
5T7S_LBT_A_201


 31 32  0  0  0  0  0  0  0  0999 V2000
   -4.9900   -2.5055    5.8740 O   0  0  0  0  0  0  0  0  0  0  0  0
   -4.4878   -1.2655    6.3821 C   0  0  0  0  0  0  0  0  0  0  0  0
   -4.5278   -0.2149    5.2639 C   0  0  0  0  0  0  0  0  0  0  0  0
   -4.2009    1.1841    5.7994 C   0  0  0  0  0  0  0  0  0  0  0  0
   -4.9682    1.4831    7.0952 C   0  0  0  0  0  0  0  0  0  0  0  0
   -4.7782    0.3359    8.0892 C   0  0  0  0  0  0  0  0  0  0  0  0
   -3.5938   -0.5370    4.2182 O   0  0  0  0  0  0  0  0  0  0  0  0
   -4.4878    2.1484    4.7847 O   0  0  0  0  0  0  0  0  0  0  0  0
   -6.3692    1.6531    6.8169 O   0  0  0  0  0  0  0  0  0  0  0  0
   -5.2853   -0.8644    7.5027 O   0  0  0  0  0  0  0  0  0  0  0  0
   -2.6926   -0.5322    4.5768 H   0  0  0  0  0  0  0  0  0  0  0  0
   -5.4301    2.1087    4.5581 H   0  0  0  0  0  0  0  0  0  0  0  0
   -6.7237    0.8365    6.4317 H   0  0  0  0  0  0  0  0  0  0  0  0
   -5.4825    0.5807    9.4175 C   0  0  0  0  0  0  0  0  0  0  0  0
   -6.7832   -0.0114    9.3656 O   0  0  0  0  0  0  0  0  0  0  0  0
   -7.2910    0.3869    8.6415 H   0  0  0  0  0  0  0  0  0  0  0  0
   -2.0487   -4.7850    7.8002 C   0  0  0  0  0  0  0  0  0  0  0  0
   -1.8226   -4.4618    6.3209 C   0  0  0  0  0  0  0  0  0  0  0  0
   -2.7702   -3.3572    5.8442 C   0  0  0  0  0  0  0  0  0  0  0  0
   -4.2121   -3.6478    6.2348 C   0  0  0  0  0  0  0  0  0  0  0  0
   -4.3053   -3.8920    7.7402 C   0  0  0  0  0  0  0  0  0  0  0  0
   -1.5414   -3.7111    8.6003 O   0  0  0  0  0  0  0  0  0  0  0  0
   -0.4605   -4.0534    6.1342 O   0  0  0  0  0  0  0  0  0  0  0  0
   -2.6911   -3.1822    4.4246 O   0  0  0  0  0  0  0  0  0  0  0  0
   -3.4401   -4.9849    8.0903 O   0  0  0  0  0  0  0  0  0  0  0  0
   -2.0179   -2.8942    8.3847 H   0  0  0  0  0  0  0  0  0  0  0  0
   -0.2860   -3.2586    6.6622 H   0  0  0  0  0  0  0  0  0  0  0  0
   -2.9733   -3.9979    3.9821 H   0  0  0  0  0  0  0  0  0  0  0  0
   -5.7275   -4.1898    8.2183 C   0  0  0  0  0  0  0  0  0  0  0  0
   -6.3422   -3.0100    8.7663 O   0  0  0  0  0  0  0  0  0  0  0  0
   -5.8256   -2.6996    9.5264 H   0  0  0  0  0  0  0  0  0  0  0  0
  2  3  1  0  0  0
  2  1  1  0  0  0
  2 10  1  0  0  0
  3  4  1  0  0  0
  3  7  1  0  0  0
  4  5  1  0  0  0
  4  8  1  0  0  0
  5  6  1  0  0  0
  5  9  1  0  0  0
  6 14  1  0  0  0
  6 10  1  0  0  0
 14 15  1  0  0  0
  1 20  1  0  0  0
 17 18  1  0  0  0
 17 22  1  0  0  0
 17 25  1  0  0  0
 18 19  1  0  0  0
 18 23  1  0  0  0
 19 20  1  0  0  0
 19 24  1  0  0  0
 20 21  1  0  0  0
 21 29  1  0  0  0
 21 25  1  0  0  0
 29 30  1  0  0  0
  7 11  1  0  0  0
  8 12  1  0  0  0
  9 13  1  0  0  0
 15 16  1  0  0  0
 22 26  1  0  0  0
 23 27  1  0  0  0
 24 28  1  0  0  0
 30 31  1  0  0  0
M  END
> <minimizedAffinity>
-5.15999

$$$$
5T7S_LBT_A_201


 31 32  0  0  0  0  0  0  0  0999 V2000
   -8.3892   -2.1502    5.9866 O   0  0  0  0  0  0  0  0  0  0  0  0
   -7.7226   -1.4174    7.0194 C   0  0  0  0  0  0  0  0  0  0  0  0
   -6.2358   -1.2894    6.6605 C   0  0  0  0  0  0  0  0  0  0  0  0
   -5.5093   -0.3384    7.6190 C   0  0  0  0  0  0  0  0  0  0  0  0
   -6.3092    0.9530    7.8426 C   0  0  0  0  0  0  0  0  0  0  0  0
   -7.7523    0.6127    8.2196 C   0  0  0  0  0  0  0  0  0  0  0  0
   -5.5821   -2.5703    6.7002 O   0  0  0  0  0  0  0  0  0  0  0  0
   -4.2052   -0.0655    7.1026 O   0  0  0  0  0  0  0  0  0  0  0  0
   -6.2992    1.7582    6.6507 O   0  0  0  0  0  0  0  0  0  0  0  0
   -8.3397   -0.1311    7.1503 O   0  0  0  0  0  0  0  0  0  0  0  0
   -5.6245   -2.9271    7.6012 H   0  0  0  0  0  0  0  0  0  0  0  0
   -4.2837    0.3597    6.2343 H   0  0  0  0  0  0  0  0  0  0  0  0
   -6.7099    1.2647    5.9236 H   0  0  0  0  0  0  0  0  0  0  0  0
   -8.5995    1.8484    8.4947 C   0  0  0  0  0  0  0  0  0  0  0  0
   -9.2571    2.2350    7.2851 O   0  0  0  0  0  0  0  0  0  0  0  0
   -8.5939    2.4311    6.6050 H   0  0  0  0  0  0  0  0  0  0  0  0
  -11.6923   -4.7235    5.8255 C   0  0  0  0  0  0  0  0  0  0  0  0
  -11.9604   -3.2689    6.2212 C   0  0  0  0  0  0  0  0  0  0  0  0
  -10.7548   -2.3784    5.9071 C   0  0  0  0  0  0  0  0  0  0  0  0
   -9.4621   -2.9730    6.4472 C   0  0  0  0  0  0  0  0  0  0  0  0
   -9.2886   -4.4000    5.9294 C   0  0  0  0  0  0  0  0  0  0  0  0
  -11.7128   -4.8352    4.3980 O   0  0  0  0  0  0  0  0  0  0  0  0
  -13.1156   -2.7973    5.5143 O   0  0  0  0  0  0  0  0  0  0  0  0
  -10.9290   -1.0611    6.4424 O   0  0  0  0  0  0  0  0  0  0  0  0
  -10.4274   -5.1821    6.3255 O   0  0  0  0  0  0  0  0  0  0  0  0
  -11.0153   -4.2771    4.0200 H   0  0  0  0  0  0  0  0  0  0  0  0
  -12.9503   -2.8403    4.5594 H   0  0  0  0  0  0  0  0  0  0  0  0
  -10.9911   -1.1105    7.4091 H   0  0  0  0  0  0  0  0  0  0  0  0
   -8.0069   -5.0722    6.4251 C   0  0  0  0  0  0  0  0  0  0  0  0
   -6.8957   -4.7526    5.5687 O   0  0  0  0  0  0  0  0  0  0  0  0
   -7.0775   -5.0712    4.6708 H   0  0  0  0  0  0  0  0  0  0  0  0
  2  3  1  0  0  0
  2  1  1  0  0  0
  2 10  1  0  0  0
  3  4  1  0  0  0
  3  7  1  0  0  0
  4  5  1  0  0  0
  4  8  1  0  0  0
  5  6  1  0  0  0
  5  9  1  0  0  0
  6 14  1  0  0  0
  6 10  1  0  0  0
 14 15  1  0  0  0
  1 20  1  0  0  0
 17 18  1  0  0  0
 17 22  1  0  0  0
 17 25  1  0  0  0
 18 19  1  0  0  0
 18 23  1  0  0  0
 19 20  1  0  0  0
 19 24  1  0  0  0
 20 21  1  0  0  0
 21 29  1  0  0  0
 21 25  1  0  0  0
 29 30  1  0  0  0
  7 11  1  0  0  0
  8 12  1  0  0  0
  9 13  1  0  0  0
 15 16  1  0  0  0
 22 26  1  0  0  0
 23 27  1  0  0  0
 24 28  1  0  0  0
 30 31  1  0  0  0
M  END
> <minimizedAffinity>
-5.10628

$$$$
5T7S_LBT_A_201


 31 32  0  0  0  0  0  0  0  0999 V2000
   -6.3005    2.6128    9.3249 O   0  0  0  0  0  0  0  0  0  0  0  0
   -5.3541    1.7743    8.6548 C   0  0  0  0  0  0  0  0  0  0  0  0
   -5.7002    0.3059    8.9372 C   0  0  0  0  0  0  0  0  0  0  0  0
   -4.8532   -0.6427    8.0807 C   0  0  0  0  0  0  0  0  0  0  0  0
   -4.8035   -0.1841    6.6163 C   0  0  0  0  0  0  0  0  0  0  0  0
   -4.4127    1.2933    6.5464 C   0  0  0  0  0  0  0  0  0  0  0  0
   -5.4923   -0.0169   10.3236 O   0  0  0  0  0  0  0  0  0  0  0  0
   -5.3765   -1.9671    8.1989 O   0  0  0  0  0  0  0  0  0  0  0  0
   -6.0849   -0.3741    5.9908 O   0  0  0  0  0  0  0  0  0  0  0  0
   -5.3927    2.0580    7.2510 O   0  0  0  0  0  0  0  0  0  0  0  0
   -4.5552    0.0991   10.5457 H   0  0  0  0  0  0  0  0  0  0  0  0
   -6.2917   -1.9830    7.8776 H   0  0  0  0  0  0  0  0  0  0  0  0
   -6.7530    0.1539    6.4553 H   0  0  0  0  0  0  0  0  0  0  0  0
   -4.3060    1.8106    5.1176 C   0  0  0  0  0  0  0  0  0  0  0  0
   -5.5352    2.4514    4.7665 O   0  0  0  0  0  0  0  0  0  0  0  0
   -6.2633    1.8144    4.8360 H   0  0  0  0  0  0  0  0  0  0  0  0
   -6.0053    6.2357   11.4095 C   0  0  0  0  0  0  0  0  0  0  0  0
   -5.3216    6.1607   10.0416 C   0  0  0  0  0  0  0  0  0  0  0  0
   -5.7919    4.9345    9.2540 C   0  0  0  0  0  0  0  0  0  0  0  0
   -5.7148    3.6661   10.0915 C   0  0  0  0  0  0  0  0  0  0  0  0
   -6.4852    3.8560   11.3972 C   0  0  0  0  0  0  0  0  0  0  0  0
   -7.3757    6.6112   11.2317 O   0  0  0  0  0  0  0  0  0  0  0  0
   -5.6136    7.3571    9.3067 O   0  0  0  0  0  0  0  0  0  0  0  0
   -5.0226    4.7591    8.0584 O   0  0  0  0  0  0  0  0  0  0  0  0
   -5.9368    4.9811   12.1035 O   0  0  0  0  0  0  0  0  0  0  0  0
   -7.8275    5.9412   10.6952 H   0  0  0  0  0  0  0  0  0  0  0  0
   -6.5722    7.4316    9.1779 H   0  0  0  0  0  0  0  0  0  0  0  0
   -4.0949    4.5981    8.2916 H   0  0  0  0  0  0  0  0  0  0  0  0
   -6.4600    2.6213   12.3000 C   0  0  0  0  0  0  0  0  0  0  0  0
   -7.4106    1.6386   11.8520 O   0  0  0  0  0  0  0  0  0  0  0  0
   -8.3036    2.0164   11.8799 H   0  0  0  0  0  0  0  0  0  0  0  0
  2  3  1  0  0  0
  2  1  1  0  0  0
  2 10  1  0  0  0
  3  4  1  0  0  0
  3  7  1  0  0  0
  4  5  1  0  0  0
  4  8  1  0  0  0
  5  6  1  0  0  0
  5  9  1  0  0  0
  6 14  1  0  0  0
  6 10  1  0  0  0
 14 15  1  0  0  0
  1 20  1  0  0  0
 17 18  1  0  0  0
 17 22  1  0  0  0
 17 25  1  0  0  0
 18 19  1  0  0  0
 18 23  1  0  0  0
 19 20  1  0  0  0
 19 24  1  0  0  0
 20 21  1  0  0  0
 21 29  1  0  0  0
 21 25  1  0  0  0
 29 30  1  0  0  0
  7 11  1  0  0  0
  8 12  1  0  0  0
  9 13  1  0  0  0
 15 16  1  0  0  0
 22 26  1  0  0  0
 23 27  1  0  0  0
 24 28  1  0  0  0
 30 31  1  0  0  0
M  END
> <minimizedAffinity>
-4.97303

$$$$
5T7S_LBT_A_201


 31 32  0  0  0  0  0  0  0  0999 V2000
   -4.8260    2.8267    9.3366 O   0  0  0  0  0  0  0  0  0  0  0  0
   -5.3216    2.1113    8.2006 C   0  0  0  0  0  0  0  0  0  0  0  0
   -4.4628    2.4604    6.9773 C   0  0  0  0  0  0  0  0  0  0  0  0
   -4.8098    1.5698    5.7784 C   0  0  0  0  0  0  0  0  0  0  0  0
   -4.9138    0.0934    6.1867 C   0  0  0  0  0  0  0  0  0  0  0  0
   -5.8342   -0.0474    7.4005 C   0  0  0  0  0  0  0  0  0  0  0  0
   -4.6415    3.8358    6.5955 O   0  0  0  0  0  0  0  0  0  0  0  0
   -3.8300    1.7643    4.7566 O   0  0  0  0  0  0  0  0  0  0  0  0
   -3.6118   -0.4285    6.5056 O   0  0  0  0  0  0  0  0  0  0  0  0
   -5.2823    0.7069    8.4813 O   0  0  0  0  0  0  0  0  0  0  0  0
   -5.5661    3.9834    6.3418 H   0  0  0  0  0  0  0  0  0  0  0  0
   -2.9561    1.5133    5.0946 H   0  0  0  0  0  0  0  0  0  0  0  0
   -3.2369    0.0698    7.2486 H   0  0  0  0  0  0  0  0  0  0  0  0
   -6.0161   -1.4942    7.8410 C   0  0  0  0  0  0  0  0  0  0  0  0
   -5.9616   -2.3375    6.6874 O   0  0  0  0  0  0  0  0  0  0  0  0
   -6.6664   -2.0867    6.0699 H   0  0  0  0  0  0  0  0  0  0  0  0
   -6.5159    4.4001   12.8333 C   0  0  0  0  0  0  0  0  0  0  0  0
   -6.4973    2.8756   12.6928 C   0  0  0  0  0  0  0  0  0  0  0  0
   -5.5613    2.4349   11.5637 C   0  0  0  0  0  0  0  0  0  0  0  0
   -5.8310    3.2045   10.2787 C   0  0  0  0  0  0  0  0  0  0  0  0
   -5.7607    4.7071   10.5466 C   0  0  0  0  0  0  0  0  0  0  0  0
   -5.2767    4.8361   13.4034 O   0  0  0  0  0  0  0  0  0  0  0  0
   -6.0740    2.2966   13.9347 O   0  0  0  0  0  0  0  0  0  0  0  0
   -5.6819    1.0306   11.3078 O   0  0  0  0  0  0  0  0  0  0  0  0
   -6.7155    5.0447   11.5664 O   0  0  0  0  0  0  0  0  0  0  0  0
   -4.5456    4.5874   12.8164 H   0  0  0  0  0  0  0  0  0  0  0  0
   -5.1795    2.6059   14.1473 H   0  0  0  0  0  0  0  0  0  0  0  0
   -6.5840    0.8322   11.0116 H   0  0  0  0  0  0  0  0  0  0  0  0
   -6.0183    5.5568    9.3009 C   0  0  0  0  0  0  0  0  0  0  0  0
   -4.7976    5.7856    8.5745 O   0  0  0  0  0  0  0  0  0  0  0  0
   -4.1686    6.2600    9.1404 H   0  0  0  0  0  0  0  0  0  0  0  0
  2  3  1  0  0  0
  2  1  1  0  0  0
  2 10  1  0  0  0
  3  4  1  0  0  0
  3  7  1  0  0  0
  4  5  1  0  0  0
  4  8  1  0  0  0
  5  6  1  0  0  0
  5  9  1  0  0  0
  6 14  1  0  0  0
  6 10  1  0  0  0
 14 15  1  0  0  0
  1 20  1  0  0  0
 17 18  1  0  0  0
 17 22  1  0  0  0
 17 25  1  0  0  0
 18 19  1  0  0  0
 18 23  1  0  0  0
 19 20  1  0  0  0
 19 24  1  0  0  0
 20 21  1  0  0  0
 21 29  1  0  0  0
 21 25  1  0  0  0
 29 30  1  0  0  0
  7 11  1  0  0  0
  8 12  1  0  0  0
  9 13  1  0  0  0
 15 16  1  0  0  0
 22 26  1  0  0  0
 23 27  1  0  0  0
 24 28  1  0  0  0
 30 31  1  0  0  0
M  END
> <minimizedAffinity>
-4.96042

$$$$
5T7S_LBT_A_201


 31 32  0  0  0  0  0  0  0  0999 V2000
   -3.2740   -0.7261    7.3547 O   0  0  0  0  0  0  0  0  0  0  0  0
   -2.8610   -1.9853    6.8145 C   0  0  0  0  0  0  0  0  0  0  0  0
   -1.9235   -2.6745    7.8155 C   0  0  0  0  0  0  0  0  0  0  0  0
   -1.6137   -4.1148    7.3906 C   0  0  0  0  0  0  0  0  0  0  0  0
   -2.8863   -4.8612    6.9654 C   0  0  0  0  0  0  0  0  0  0  0  0
   -3.6635   -4.0260    5.9462 C   0  0  0  0  0  0  0  0  0  0  0  0
   -0.6839   -1.9557    7.9424 O   0  0  0  0  0  0  0  0  0  0  0  0
   -0.9473   -4.7823    8.4639 O   0  0  0  0  0  0  0  0  0  0  0  0
   -3.7176   -5.1213    8.1101 O   0  0  0  0  0  0  0  0  0  0  0  0
   -4.0219   -2.7832    6.5533 O   0  0  0  0  0  0  0  0  0  0  0  0
   -0.2259   -1.9475    7.0874 H   0  0  0  0  0  0  0  0  0  0  0  0
   -1.5255   -4.7997    9.2426 H   0  0  0  0  0  0  0  0  0  0  0  0
   -3.9769   -4.2808    8.5191 H   0  0  0  0  0  0  0  0  0  0  0  0
   -4.9238   -4.7220    5.4482 C   0  0  0  0  0  0  0  0  0  0  0  0
   -6.0530   -4.1795    6.1378 O   0  0  0  0  0  0  0  0  0  0  0  0
   -5.9487   -4.3225    7.0916 H   0  0  0  0  0  0  0  0  0  0  0  0
   -6.9401    1.2443    7.8401 C   0  0  0  0  0  0  0  0  0  0  0  0
   -6.7258   -0.0386    8.6478 C   0  0  0  0  0  0  0  0  0  0  0  0
   -5.2519   -0.4543    8.6463 C   0  0  0  0  0  0  0  0  0  0  0  0
   -4.6738   -0.4663    7.2385 C   0  0  0  0  0  0  0  0  0  0  0  0
   -4.9024    0.8882    6.5696 C   0  0  0  0  0  0  0  0  0  0  0  0
   -6.4061    2.3551    8.5692 O   0  0  0  0  0  0  0  0  0  0  0  0
   -7.1733    0.1757    9.9934 O   0  0  0  0  0  0  0  0  0  0  0  0
   -5.0762   -1.7459    9.2405 O   0  0  0  0  0  0  0  0  0  0  0  0
   -6.3119    1.1682    6.5518 O   0  0  0  0  0  0  0  0  0  0  0  0
   -5.4538    2.2272    8.7017 H   0  0  0  0  0  0  0  0  0  0  0  0
   -6.6580    0.8926   10.3952 H   0  0  0  0  0  0  0  0  0  0  0  0
   -5.5507   -2.4101    8.7166 H   0  0  0  0  0  0  0  0  0  0  0  0
   -4.3464    0.9621    5.1464 C   0  0  0  0  0  0  0  0  0  0  0  0
   -4.4956   -0.2996    4.4711 O   0  0  0  0  0  0  0  0  0  0  0  0
   -4.0055   -0.9842    4.9530 H   0  0  0  0  0  0  0  0  0  0  0  0
  2  3  1  0  0  0
  2  1  1  0  0  0
  2 10  1  0  0  0
  3  4  1  0  0  0
  3  7  1  0  0  0
  4  5  1  0  0  0
  4  8  1  0  0  0
  5  6  1  0  0  0
  5  9  1  0  0  0
  6 14  1  0  0  0
  6 10  1  0  0  0
 14 15  1  0  0  0
  1 20  1  0  0  0
 17 18  1  0  0  0
 17 22  1  0  0  0
 17 25  1  0  0  0
 18 19  1  0  0  0
 18 23  1  0  0  0
 19 20  1  0  0  0
 19 24  1  0  0  0
 20 21  1  0  0  0
 21 29  1  0  0  0
 21 25  1  0  0  0
 29 30  1  0  0  0
  7 11  1  0  0  0
  8 12  1  0  0  0
  9 13  1  0  0  0
 15 16  1  0  0  0
 22 26  1  0  0  0
 23 27  1  0  0  0
 24 28  1  0  0  0
 30 31  1  0  0  0
M  END
> <minimizedAffinity>
-4.93344

$$$$
