5T7S_LBT_A_201
  RCSB PDB12061719323D
Coordinates from PDB:5T7S:A:201 Model:1 without hydrogens
 23 24  0  0  0  0            999 V2000
   -5.7570    0.4190    7.3500   C 0  0  0  0  0  0  0  0  0  0  0  0
   -5.3340   -0.9460    6.7900   C 0  0  0  0  0  0  0  0  0  0  0  0
   -4.0220   -0.8450    6.0030   C 0  0  0  0  0  0  0  0  0  0  0  0
   -4.0330    0.3540    5.0440   C 0  0  0  0  0  0  0  0  0  0  0  0
   -4.4490    1.6190    5.7970   C 0  0  0  0  0  0  0  0  0  0  0  0
   -4.4460    2.8610    4.9150   C 0  0  0  0  0  0  0  0  0  0  0  0
   -7.0740    0.3090    7.8990   O 0  0  0  0  0  0  0  0  0  0  0  0
   -5.1640   -1.9080    7.8460   O 0  0  0  0  0  0  0  0  0  0  0  0
   -3.8030   -2.0730    5.3060   O 0  0  0  0  0  0  0  0  0  0  0  0
   -4.9470    0.1160    3.9590   O 0  0  0  0  0  0  0  0  0  0  0  0
   -5.7610    1.4230    6.3280   O 0  0  0  0  0  0  0  0  0  0  0  0
   -4.9270    3.9700    5.6790   O 0  0  0  0  0  0  0  0  0  0  0  0
   -9.4040    2.6670   10.4620   C 0  0  0  0  0  0  0  0  0  0  0  0
   -9.5190    2.9460    8.9610   C 0  0  0  0  0  0  0  0  0  0  0  0
   -8.9010    1.8120    8.1380   C 0  0  0  0  0  0  0  0  0  0  0  0
   -7.5050    1.4580    8.6300   C 0  0  0  0  0  0  0  0  0  0  0  0
   -7.5430    1.1450   10.1250   C 0  0  0  0  0  0  0  0  0  0  0  0
   -6.1750    0.7750   10.7010   C 0  0  0  0  0  0  0  0  0  0  0  0
  -10.3180    1.6240   10.8190   O 0  0  0  0  0  0  0  0  0  0  0  0
  -10.9030    3.1020    8.6190   O 0  0  0  0  0  0  0  0  0  0  0  0
   -8.8400    2.1530    6.7480   O 0  0  0  0  0  0  0  0  0  0  0  0
   -8.0700    2.2830   10.8270   O 0  0  0  0  0  0  0  0  0  0  0  0
   -5.2280    1.8390   10.4980   O 0  0  0  0  0  0  0  0  0  0  0  0
  1  2  1  0  0  0  0
  1  7  1  0  0  0  0
  1 11  1  0  0  0  0
  2  3  1  0  0  0  0
  2  8  1  0  0  0  0
  3  4  1  0  0  0  0
  3  9  1  0  0  0  0
  4  5  1  0  0  0  0
  4 10  1  0  0  0  0
  5  6  1  0  0  0  0
  5 11  1  0  0  0  0
  6 12  1  0  0  0  0
  7 16  1  0  0  0  0
 13 14  1  0  0  0  0
 13 19  1  0  0  0  0
 13 22  1  0  0  0  0
 14 15  1  0  0  0  0
 14 20  1  0  0  0  0
 15 16  1  0  0  0  0
 15 21  1  0  0  0  0
 16 17  1  0  0  0  0
 17 18  1  0  0  0  0
 17 22  1  0  0  0  0
 18 23  1  0  0  0  0
A    1
C1
A    2
C2
A    3
C3
A    4
C4
A    5
C5
A    6
C6
A    7
O1
A    8
O2
A    9
O3
A   10
O4
A   11
O5
A   12
O6
A   13
C1'
A   14
C2'
A   15
C3'
A   16
C4'
A   17
C5'
A   18
C6'
A   19
O1'
A   20
O2'
A   21
O3'
A   22
O5'
A   23
O6'
M  END
>  <InstanceId>
5T7S_LBT_A_201

>  <ChemCompId>
LBT

>  <PdbId>
5T7S

>  <ChainId>
A

>  <ResidueNumber>
201

>  <InsertionCode>


>  <Model>
1

>  <AltIds>


>  <MissingHeavyAtoms>
0

>  <ObservedFormula>
C12 O11

>  <Name>
ALPHA-LACTOSE

>  <SystematicName>
(2R,3R,4S,5R,6S)-2-(hydroxymethyl)-6-[(2R,3S,4R,5R,6S)-4,5,6-trihydroxy-2-(hydroxymethyl)oxan-3-yl]oxy-oxane-3,4,5-triol

>  <Synonyms>


>  <Type>
SACCHARIDE

>  <Formula>
C12 H22 O11

>  <MolecularWeight>
342.296

>  <ModifiedDate>
2011-06-04

>  <Parent>


>  <OneLetterCode>


>  <SubcomponentList>


>  <AmbiguousFlag>
N

>  <InChI>
InChI=1S/C12H22O11/c13-1-3-5(15)6(16)9(19)12(22-3)23-10-4(2-14)21-11(20)8(18)7(10)17/h3-20H,1-2H2/t3-,4-,5+,6+,7-,8-,9-,10-,11+,12+/m1/s1

>  <InChIKey>
GUBGYTABKSRVRQ-XLOQQCSPSA-N

>  <SMILES>
C([C@@H]1[C@@H]([C@@H]([C@H]([C@@H](O1)O[C@@H]2[C@H](O[C@@H]([C@@H]([C@H]2O)O)O)CO)O)O)O)O

$$$$
