2UWP_894_A_1245


 29 31  0  0  0  0  0  0  0  0999 V2000
    6.5144    6.8447   21.8521 C   0  0  0  0  0  0  0  0  0  0  0  0
    5.1409    6.1976   22.0053 C   0  0  0  0  0  0  0  0  0  0  0  0
    5.2463    4.8491   21.2978 C   0  0  0  0  0  0  0  0  0  0  0  0
    7.2480    5.9810   20.8395 C   0  0  0  0  0  0  0  0  0  0  0  0
    8.2740    6.3252   20.2626 O   0  0  0  0  0  0  0  0  0  0  0  0
    6.5967    4.8122   20.7266 N   0  0  0  0  0  0  0  0  0  0  0  0
    6.4513    8.2062   21.3910 N   0  0  0  0  0  0  0  0  0  0  0  0
    7.0597    8.2777   20.5754 H   0  0  0  0  0  0  0  0  0  0  0  0
    6.9101    9.4567   22.4807 S   0  0  0  0  0  0  0  0  0  0  0  0
    6.9864   10.5900   21.6071 O   0  0  0  0  0  0  0  0  0  0  0  0
    5.9957    9.4735   23.5800 O   0  0  0  0  0  0  0  0  0  0  0  0
    8.5811    9.0723   23.0383 C   0  0  0  0  0  0  0  0  0  0  0  0
    8.5049    8.9372   24.5522 C   0  0  0  0  0  0  0  0  0  0  0  0
   13.5894    7.3671   26.2831 Cl  0  0  0  0  0  0  0  0  0  0  0  0
   11.9137    7.6615   26.0450 C   0  0  0  0  0  0  0  0  0  0  0  0
   10.9591    7.2255   26.8737 C   0  0  0  0  0  0  0  0  0  0  0  0
    9.6472    7.6445   26.3918 C   0  0  0  0  0  0  0  0  0  0  0  0
    9.6933    8.3633   25.2718 C   0  0  0  0  0  0  0  0  0  0  0  0
   11.3408    8.5826   24.6688 S   0  0  0  0  0  0  0  0  0  0  0  0
    7.1891    3.6108   20.1284 C   0  0  0  0  0  0  0  0  0  0  0  0
    6.6267    2.3502   20.8102 C   0  0  0  0  0  0  0  0  0  0  0  0
    6.9581    3.5961   18.5991 C   0  0  0  0  0  0  0  0  0  0  0  0
    5.8127    3.7599   18.1809 O   0  0  0  0  0  0  0  0  0  0  0  0
    8.0274    3.4206   17.7529 N   0  0  0  0  0  0  0  0  0  0  0  0
    9.4098    3.0862   18.1612 C   0  0  0  0  0  0  0  0  0  0  0  0
   10.0309    2.0127   17.2719 C   0  0  0  0  0  0  0  0  0  0  0  0
    9.8112    2.3710   15.9216 O   0  0  0  0  0  0  0  0  0  0  0  0
    8.4510    2.4552   15.5462 C   0  0  0  0  0  0  0  0  0  0  0  0
    7.8122    3.6069   16.3056 C   0  0  0  0  0  0  0  0  0  0  0  0
 18 13  1  0  0  0
  9 10  2  0  0  0
  9 11  2  0  0  0
  9  7  1  0  0  0
  7  1  1  0  0  0
  1  2  1  0  0  0
  2  3  1  0  0  0
  1  4  1  0  0  0
  4  5  2  0  0  0
  3  6  1  0  0  0
  4  6  1  0  0  0
  6 20  1  0  0  0
 20 21  1  0  0  0
 20 22  1  0  0  0
 22 23  2  0  0  0
 22 24  1  0  0  0
 24 25  1  0  0  0
 25 26  1  0  0  0
 26 27  1  0  0  0
 27 28  1  0  0  0
 24 29  1  0  0  0
 28 29  1  0  0  0
 15 19  1  0  0  0
 18 19  1  0  0  0
 13 12  1  0  0  0
  9 12  1  0  0  0
 14 15  1  0  0  0
 15 16  2  0  0  0
 16 17  1  0  0  0
 17 18  2  0  0  0
  7  8  1  0  0  0
M  END
> <minimizedAffinity>
-7.83415

$$$$
2UWP_894_A_1245


 29 31  0  0  0  0  0  0  0  0999 V2000
    8.4448    8.5842   21.1418 C   0  0  0  0  0  0  0  0  0  0  0  0
    8.4596    9.2406   19.7642 C   0  0  0  0  0  0  0  0  0  0  0  0
    7.7341    8.2646   18.8417 C   0  0  0  0  0  0  0  0  0  0  0  0
    7.9714    7.1610   20.8969 C   0  0  0  0  0  0  0  0  0  0  0  0
    8.0807    6.2535   21.7145 O   0  0  0  0  0  0  0  0  0  0  0  0
    7.4126    7.1028   19.6773 N   0  0  0  0  0  0  0  0  0  0  0  0
    9.7345    8.5762   21.7797 N   0  0  0  0  0  0  0  0  0  0  0  0
   10.0479    7.6062   21.8158 H   0  0  0  0  0  0  0  0  0  0  0  0
    9.8577    9.2115   23.3743 S   0  0  0  0  0  0  0  0  0  0  0  0
   11.2482    9.0143   23.6591 O   0  0  0  0  0  0  0  0  0  0  0  0
    9.3149   10.5344   23.3905 O   0  0  0  0  0  0  0  0  0  0  0  0
    8.9106    8.1132   24.4456 C   0  0  0  0  0  0  0  0  0  0  0  0
    7.6031    8.8323   24.7445 C   0  0  0  0  0  0  0  0  0  0  0  0
    2.9865    8.1870   21.6488 Cl  0  0  0  0  0  0  0  0  0  0  0  0
    4.3273    8.0452   22.7134 C   0  0  0  0  0  0  0  0  0  0  0  0
    4.5995    6.9434   23.4205 C   0  0  0  0  0  0  0  0  0  0  0  0
    5.8026    7.1459   24.2208 C   0  0  0  0  0  0  0  0  0  0  0  0
    6.3562    8.3463   24.0601 C   0  0  0  0  0  0  0  0  0  0  0  0
    5.4532    9.3694   22.9359 S   0  0  0  0  0  0  0  0  0  0  0  0
    6.5390    6.0087   19.2394 C   0  0  0  0  0  0  0  0  0  0  0  0
    5.1643    6.5650   18.8257 C   0  0  0  0  0  0  0  0  0  0  0  0
    7.2070    5.2043   18.0996 C   0  0  0  0  0  0  0  0  0  0  0  0
    7.1013    5.6263   16.9488 O   0  0  0  0  0  0  0  0  0  0  0  0
    7.9096    4.0608   18.3975 N   0  0  0  0  0  0  0  0  0  0  0  0
    7.9798    3.4075   19.7234 C   0  0  0  0  0  0  0  0  0  0  0  0
    7.8364    1.8911   19.6284 C   0  0  0  0  0  0  0  0  0  0  0  0
    8.7073    1.4239   18.6169 O   0  0  0  0  0  0  0  0  0  0  0  0
    8.4356    1.9272   17.3241 C   0  0  0  0  0  0  0  0  0  0  0  0
    8.6979    3.4247   17.3253 C   0  0  0  0  0  0  0  0  0  0  0  0
 18 13  1  0  0  0
  9 10  2  0  0  0
  9 11  2  0  0  0
  9  7  1  0  0  0
  7  1  1  0  0  0
  1  2  1  0  0  0
  2  3  1  0  0  0
  1  4  1  0  0  0
  4  5  2  0  0  0
  3  6  1  0  0  0
  4  6  1  0  0  0
  6 20  1  0  0  0
 20 21  1  0  0  0
 20 22  1  0  0  0
 22 23  2  0  0  0
 22 24  1  0  0  0
 24 25  1  0  0  0
 25 26  1  0  0  0
 26 27  1  0  0  0
 27 28  1  0  0  0
 24 29  1  0  0  0
 28 29  1  0  0  0
 15 19  1  0  0  0
 18 19  1  0  0  0
 13 12  1  0  0  0
  9 12  1  0  0  0
 14 15  1  0  0  0
 15 16  2  0  0  0
 16 17  1  0  0  0
 17 18  2  0  0  0
  7  8  1  0  0  0
M  END
> <minimizedAffinity>
-7.58905

$$$$
2UWP_894_A_1245


 29 31  0  0  0  0  0  0  0  0999 V2000
    6.5736    7.7739   21.1239 C   0  0  0  0  0  0  0  0  0  0  0  0
    7.5933    8.3053   20.1205 C   0  0  0  0  0  0  0  0  0  0  0  0
    7.4887    7.3832   18.9085 C   0  0  0  0  0  0  0  0  0  0  0  0
    6.1381    6.4275   20.5700 C   0  0  0  0  0  0  0  0  0  0  0  0
    5.5314    5.5838   21.2212 O   0  0  0  0  0  0  0  0  0  0  0  0
    6.5079    6.3583   19.2810 N   0  0  0  0  0  0  0  0  0  0  0  0
    7.1117    7.6159   22.4490 N   0  0  0  0  0  0  0  0  0  0  0  0
    7.3675    6.6343   22.5562 H   0  0  0  0  0  0  0  0  0  0  0  0
    6.1135    8.0320   23.7877 S   0  0  0  0  0  0  0  0  0  0  0  0
    5.2900    9.0620   23.2271 O   0  0  0  0  0  0  0  0  0  0  0  0
    5.5057    6.8438   24.3010 O   0  0  0  0  0  0  0  0  0  0  0  0
    7.1883    8.7905   25.0208 C   0  0  0  0  0  0  0  0  0  0  0  0
    8.5712    8.8695   24.3903 C   0  0  0  0  0  0  0  0  0  0  0  0
   13.5958    7.4009   26.3674 Cl  0  0  0  0  0  0  0  0  0  0  0  0
   11.9281    7.6579   26.0453 C   0  0  0  0  0  0  0  0  0  0  0  0
   10.9426    7.1892   26.8183 C   0  0  0  0  0  0  0  0  0  0  0  0
    9.6477    7.5825   26.2730 C   0  0  0  0  0  0  0  0  0  0  0  0
    9.7342    8.3155   25.1647 C   0  0  0  0  0  0  0  0  0  0  0  0
   11.4050    8.5815   24.6510 S   0  0  0  0  0  0  0  0  0  0  0  0
    5.9583    5.3826   18.3333 C   0  0  0  0  0  0  0  0  0  0  0  0
    4.9098    6.0577   17.4303 C   0  0  0  0  0  0  0  0  0  0  0  0
    7.0928    4.7240   17.5138 C   0  0  0  0  0  0  0  0  0  0  0  0
    7.2559    5.0851   16.3491 O   0  0  0  0  0  0  0  0  0  0  0  0
    7.8939    3.7755   18.1044 N   0  0  0  0  0  0  0  0  0  0  0  0
    7.6928    3.1852   19.4463 C   0  0  0  0  0  0  0  0  0  0  0  0
    7.9041    1.6738   19.4499 C   0  0  0  0  0  0  0  0  0  0  0  0
    9.1182    1.3922   18.7815 O   0  0  0  0  0  0  0  0  0  0  0  0
    9.1530    1.7918   17.4260 C   0  0  0  0  0  0  0  0  0  0  0  0
    9.0847    3.3095   17.3694 C   0  0  0  0  0  0  0  0  0  0  0  0
 18 13  1  0  0  0
  9 10  2  0  0  0
  9 11  2  0  0  0
  9  7  1  0  0  0
  7  1  1  0  0  0
  1  2  1  0  0  0
  2  3  1  0  0  0
  1  4  1  0  0  0
  4  5  2  0  0  0
  3  6  1  0  0  0
  4  6  1  0  0  0
  6 20  1  0  0  0
 20 21  1  0  0  0
 20 22  1  0  0  0
 22 23  2  0  0  0
 22 24  1  0  0  0
 24 25  1  0  0  0
 25 26  1  0  0  0
 26 27  1  0  0  0
 27 28  1  0  0  0
 24 29  1  0  0  0
 28 29  1  0  0  0
 15 19  1  0  0  0
 18 19  1  0  0  0
 13 12  1  0  0  0
  9 12  1  0  0  0
 14 15  1  0  0  0
 15 16  2  0  0  0
 16 17  1  0  0  0
 17 18  2  0  0  0
  7  8  1  0  0  0
M  END
> <minimizedAffinity>
-7.42961

$$$$
2UWP_894_A_1245


 29 31  0  0  0  0  0  0  0  0999 V2000
    6.4794    8.4304   18.1165 C   0  0  0  0  0  0  0  0  0  0  0  0
    5.4430    9.5404   18.2664 C   0  0  0  0  0  0  0  0  0  0  0  0
    5.8418   10.3002   19.5289 C   0  0  0  0  0  0  0  0  0  0  0  0
    7.2469    8.4258   19.4281 C   0  0  0  0  0  0  0  0  0  0  0  0
    7.9786    7.5103   19.7894 O   0  0  0  0  0  0  0  0  0  0  0  0
    6.9983    9.5786   20.0702 N   0  0  0  0  0  0  0  0  0  0  0  0
    5.8948    7.1374   17.8781 N   0  0  0  0  0  0  0  0  0  0  0  0
    6.5820    6.4383   18.1598 H   0  0  0  0  0  0  0  0  0  0  0  0
    5.4009    6.7504   16.2757 S   0  0  0  0  0  0  0  0  0  0  0  0
    4.0090    7.0892   16.3108 O   0  0  0  0  0  0  0  0  0  0  0  0
    6.2654    7.4141   15.3500 O   0  0  0  0  0  0  0  0  0  0  0  0
    5.5321    4.9598   16.1101 C   0  0  0  0  0  0  0  0  0  0  0  0
    6.9464    4.6792   15.6230 C   0  0  0  0  0  0  0  0  0  0  0  0
   10.5587    1.0954   17.9512 Cl  0  0  0  0  0  0  0  0  0  0  0  0
    9.4468    2.3482   17.5699 C   0  0  0  0  0  0  0  0  0  0  0  0
    9.0626    3.2888   18.4392 C   0  0  0  0  0  0  0  0  0  0  0  0
    8.1175    4.2017   17.8049 C   0  0  0  0  0  0  0  0  0  0  0  0
    7.8673    3.9115   16.5296 C   0  0  0  0  0  0  0  0  0  0  0  0
    8.7368    2.4761   15.9729 S   0  0  0  0  0  0  0  0  0  0  0  0
    7.8220   10.0833   21.1742 C   0  0  0  0  0  0  0  0  0  0  0  0
    7.7561   11.6208   21.2211 C   0  0  0  0  0  0  0  0  0  0  0  0
    7.3865    9.4423   22.5128 C   0  0  0  0  0  0  0  0  0  0  0  0
    6.2285    9.6129   22.8915 O   0  0  0  0  0  0  0  0  0  0  0  0
    8.2873    8.6911   23.2302 N   0  0  0  0  0  0  0  0  0  0  0  0
    9.7274    8.5407   22.9252 C   0  0  0  0  0  0  0  0  0  0  0  0
   10.5961    8.6403   24.1761 C   0  0  0  0  0  0  0  0  0  0  0  0
   10.0423    7.8015   25.1708 O   0  0  0  0  0  0  0  0  0  0  0  0
    8.7317    8.1469   25.5727 C   0  0  0  0  0  0  0  0  0  0  0  0
    7.7945    7.9322   24.3951 C   0  0  0  0  0  0  0  0  0  0  0  0
 18 13  1  0  0  0
  9 10  2  0  0  0
  9 11  2  0  0  0
  9  7  1  0  0  0
  7  1  1  0  0  0
  1  2  1  0  0  0
  2  3  1  0  0  0
  1  4  1  0  0  0
  4  5  2  0  0  0
  3  6  1  0  0  0
  4  6  1  0  0  0
  6 20  1  0  0  0
 20 21  1  0  0  0
 20 22  1  0  0  0
 22 23  2  0  0  0
 22 24  1  0  0  0
 24 25  1  0  0  0
 25 26  1  0  0  0
 26 27  1  0  0  0
 27 28  1  0  0  0
 24 29  1  0  0  0
 28 29  1  0  0  0
 15 19  1  0  0  0
 18 19  1  0  0  0
 13 12  1  0  0  0
  9 12  1  0  0  0
 14 15  1  0  0  0
 15 16  2  0  0  0
 16 17  1  0  0  0
 17 18  2  0  0  0
  7  8  1  0  0  0
M  END
> <minimizedAffinity>
-7.21628

$$$$
2UWP_894_A_1245


 29 31  0  0  0  0  0  0  0  0999 V2000
    6.3918    7.3434   19.2031 C   0  0  0  0  0  0  0  0  0  0  0  0
    5.4350    8.5207   19.0379 C   0  0  0  0  0  0  0  0  0  0  0  0
    5.9115    9.5740   20.0346 C   0  0  0  0  0  0  0  0  0  0  0  0
    7.1866    7.6529   20.4609 C   0  0  0  0  0  0  0  0  0  0  0  0
    7.8638    6.8265   21.0629 O   0  0  0  0  0  0  0  0  0  0  0  0
    7.0295    8.9540   20.7536 N   0  0  0  0  0  0  0  0  0  0  0  0
    5.7174    6.0797   19.3397 N   0  0  0  0  0  0  0  0  0  0  0  0
    5.9257    5.7252   20.2731 H   0  0  0  0  0  0  0  0  0  0  0  0
    6.0994    4.8283   18.2218 S   0  0  0  0  0  0  0  0  0  0  0  0
    5.4285    3.7039   18.8038 O   0  0  0  0  0  0  0  0  0  0  0  0
    5.7443    5.2576   16.9048 O   0  0  0  0  0  0  0  0  0  0  0  0
    7.8750    4.5421   18.3495 C   0  0  0  0  0  0  0  0  0  0  0  0
    8.2899    3.8540   17.0571 C   0  0  0  0  0  0  0  0  0  0  0  0
   10.1851   -1.3792   16.4778 Cl  0  0  0  0  0  0  0  0  0  0  0  0
    9.8563    0.2479   16.9201 C   0  0  0  0  0  0  0  0  0  0  0  0
   10.5334    0.9113   17.8633 C   0  0  0  0  0  0  0  0  0  0  0  0
   10.0116    2.2676   17.9947 C   0  0  0  0  0  0  0  0  0  0  0  0
    9.0138    2.5404   17.1561 C   0  0  0  0  0  0  0  0  0  0  0  0
    8.5846    1.1625   16.1347 S   0  0  0  0  0  0  0  0  0  0  0  0
    7.9095    9.6890   21.6688 C   0  0  0  0  0  0  0  0  0  0  0  0
    7.6882   11.2043   21.5097 C   0  0  0  0  0  0  0  0  0  0  0  0
    7.6899    9.2198   23.1262 C   0  0  0  0  0  0  0  0  0  0  0  0
    6.5901    9.4149   23.6419 O   0  0  0  0  0  0  0  0  0  0  0  0
    8.7101    8.5874   23.7966 N   0  0  0  0  0  0  0  0  0  0  0  0
   10.0985    8.4277   23.3101 C   0  0  0  0  0  0  0  0  0  0  0  0
   11.1284    8.7077   24.4010 C   0  0  0  0  0  0  0  0  0  0  0  0
   10.7514    7.9951   25.5629 O   0  0  0  0  0  0  0  0  0  0  0  0
    9.4972    8.3634   26.1012 C   0  0  0  0  0  0  0  0  0  0  0  0
    8.4141    7.9775   25.1065 C   0  0  0  0  0  0  0  0  0  0  0  0
 18 13  1  0  0  0
  9 10  2  0  0  0
  9 11  2  0  0  0
  9  7  1  0  0  0
  7  1  1  0  0  0
  1  2  1  0  0  0
  2  3  1  0  0  0
  1  4  1  0  0  0
  4  5  2  0  0  0
  3  6  1  0  0  0
  4  6  1  0  0  0
  6 20  1  0  0  0
 20 21  1  0  0  0
 20 22  1  0  0  0
 22 23  2  0  0  0
 22 24  1  0  0  0
 24 25  1  0  0  0
 25 26  1  0  0  0
 26 27  1  0  0  0
 27 28  1  0  0  0
 24 29  1  0  0  0
 28 29  1  0  0  0
 15 19  1  0  0  0
 18 19  1  0  0  0
 13 12  1  0  0  0
  9 12  1  0  0  0
 14 15  1  0  0  0
 15 16  2  0  0  0
 16 17  1  0  0  0
 17 18  2  0  0  0
  7  8  1  0  0  0
M  END
> <minimizedAffinity>
-7.05187

$$$$
2UWP_894_A_1245


 29 31  0  0  0  0  0  0  0  0999 V2000
    5.8848    7.1794   17.9297 C   0  0  0  0  0  0  0  0  0  0  0  0
    4.8909    6.6222   18.9448 C   0  0  0  0  0  0  0  0  0  0  0  0
    5.0576    7.4858   20.1924 C   0  0  0  0  0  0  0  0  0  0  0  0
    6.7613    8.1376   18.7190 C   0  0  0  0  0  0  0  0  0  0  0  0
    7.8323    8.5766   18.3139 O   0  0  0  0  0  0  0  0  0  0  0  0
    6.1479    8.4161   19.8806 N   0  0  0  0  0  0  0  0  0  0  0  0
    6.6926    6.1625   17.3103 N   0  0  0  0  0  0  0  0  0  0  0  0
    7.6390    6.5346   17.2314 H   0  0  0  0  0  0  0  0  0  0  0  0
    6.2350    5.5975   15.7505 S   0  0  0  0  0  0  0  0  0  0  0  0
    4.8769    5.1982   15.9729 O   0  0  0  0  0  0  0  0  0  0  0  0
    6.5229    6.6129   14.7857 O   0  0  0  0  0  0  0  0  0  0  0  0
    7.2050    4.1115   15.4313 C   0  0  0  0  0  0  0  0  0  0  0  0
    6.4731    2.9685   16.1196 C   0  0  0  0  0  0  0  0  0  0  0  0
    7.1349    1.8575   21.5639 Cl  0  0  0  0  0  0  0  0  0  0  0  0
    7.2633    2.0452   19.8612 C   0  0  0  0  0  0  0  0  0  0  0  0
    8.3058    1.6130   19.1439 C   0  0  0  0  0  0  0  0  0  0  0  0
    8.1063    1.9234   17.7322 C   0  0  0  0  0  0  0  0  0  0  0  0
    6.9525    2.5375   17.4775 C   0  0  0  0  0  0  0  0  0  0  0  0
    5.9973    2.8285   18.9367 S   0  0  0  0  0  0  0  0  0  0  0  0
    6.5059    9.5565   20.7312 C   0  0  0  0  0  0  0  0  0  0  0  0
    5.6680   10.7881   20.3420 C   0  0  0  0  0  0  0  0  0  0  0  0
    6.3422    9.1912   22.2252 C   0  0  0  0  0  0  0  0  0  0  0  0
    5.2936    9.5003   22.7894 O   0  0  0  0  0  0  0  0  0  0  0  0
    7.3524    8.5220   22.8748 N   0  0  0  0  0  0  0  0  0  0  0  0
    8.6927    8.2275   22.3212 C   0  0  0  0  0  0  0  0  0  0  0  0
    9.8055    8.4901   23.3321 C   0  0  0  0  0  0  0  0  0  0  0  0
    9.4491    7.8775   24.5559 O   0  0  0  0  0  0  0  0  0  0  0  0
    8.2609    8.3723   25.1405 C   0  0  0  0  0  0  0  0  0  0  0  0
    7.0933    8.0139   24.2351 C   0  0  0  0  0  0  0  0  0  0  0  0
 18 13  1  0  0  0
  9 10  2  0  0  0
  9 11  2  0  0  0
  9  7  1  0  0  0
  7  1  1  0  0  0
  1  2  1  0  0  0
  2  3  1  0  0  0
  1  4  1  0  0  0
  4  5  2  0  0  0
  3  6  1  0  0  0
  4  6  1  0  0  0
  6 20  1  0  0  0
 20 21  1  0  0  0
 20 22  1  0  0  0
 22 23  2  0  0  0
 22 24  1  0  0  0
 24 25  1  0  0  0
 25 26  1  0  0  0
 26 27  1  0  0  0
 27 28  1  0  0  0
 24 29  1  0  0  0
 28 29  1  0  0  0
 15 19  1  0  0  0
 18 19  1  0  0  0
 13 12  1  0  0  0
  9 12  1  0  0  0
 14 15  1  0  0  0
 15 16  2  0  0  0
 16 17  1  0  0  0
 17 18  2  0  0  0
  7  8  1  0  0  0
M  END
> <minimizedAffinity>
-6.97398

$$$$
2UWP_894_A_1245


 29 31  0  0  0  0  0  0  0  0999 V2000
    6.3342    5.9490   20.5123 C   0  0  0  0  0  0  0  0  0  0  0  0
    7.6276    6.1518   19.7282 C   0  0  0  0  0  0  0  0  0  0  0  0
    8.1533    7.5187   20.1588 C   0  0  0  0  0  0  0  0  0  0  0  0
    6.0314    7.3027   21.1330 C   0  0  0  0  0  0  0  0  0  0  0  0
    4.9451    7.6072   21.6139 O   0  0  0  0  0  0  0  0  0  0  0  0
    7.1429    8.0542   21.0772 N   0  0  0  0  0  0  0  0  0  0  0  0
    5.2337    5.5220   19.6896 N   0  0  0  0  0  0  0  0  0  0  0  0
    4.7015    6.3557   19.4401 H   0  0  0  0  0  0  0  0  0  0  0  0
    4.1214    4.3840   20.3447 S   0  0  0  0  0  0  0  0  0  0  0  0
    4.6043    4.2450   21.6866 O   0  0  0  0  0  0  0  0  0  0  0  0
    2.7896    4.8534   20.1192 O   0  0  0  0  0  0  0  0  0  0  0  0
    4.4087    2.8242   19.4872 C   0  0  0  0  0  0  0  0  0  0  0  0
    5.6889    2.2456   20.0723 C   0  0  0  0  0  0  0  0  0  0  0  0
    9.3865    2.4060   15.8753 Cl  0  0  0  0  0  0  0  0  0  0  0  0
    8.5275    2.2022   17.3489 C   0  0  0  0  0  0  0  0  0  0  0  0
    9.0696    1.6894   18.4585 C   0  0  0  0  0  0  0  0  0  0  0  0
    8.0800    1.6547   19.5302 C   0  0  0  0  0  0  0  0  0  0  0  0
    6.8927    2.1442   19.1779 C   0  0  0  0  0  0  0  0  0  0  0  0
    6.8460    2.6744   17.4918 S   0  0  0  0  0  0  0  0  0  0  0  0
    7.3416    9.2650   21.8814 C   0  0  0  0  0  0  0  0  0  0  0  0
    6.2062   10.2692   21.6117 C   0  0  0  0  0  0  0  0  0  0  0  0
    7.4560    8.9068   23.3817 C   0  0  0  0  0  0  0  0  0  0  0  0
    6.4532    9.0180   24.0857 O   0  0  0  0  0  0  0  0  0  0  0  0
    8.6558    8.4607   23.8834 N   0  0  0  0  0  0  0  0  0  0  0  0
    9.9405    8.4208   23.1501 C   0  0  0  0  0  0  0  0  0  0  0  0
   11.1066    8.9163   24.0008 C   0  0  0  0  0  0  0  0  0  0  0  0
   11.0457    8.2723   25.2584 O   0  0  0  0  0  0  0  0  0  0  0  0
    9.8738    8.5389   26.0027 C   0  0  0  0  0  0  0  0  0  0  0  0
    8.6873    7.9411   25.2634 C   0  0  0  0  0  0  0  0  0  0  0  0
 18 13  1  0  0  0
  9 10  2  0  0  0
  9 11  2  0  0  0
  9  7  1  0  0  0
  7  1  1  0  0  0
  1  2  1  0  0  0
  2  3  1  0  0  0
  1  4  1  0  0  0
  4  5  2  0  0  0
  3  6  1  0  0  0
  4  6  1  0  0  0
  6 20  1  0  0  0
 20 21  1  0  0  0
 20 22  1  0  0  0
 22 23  2  0  0  0
 22 24  1  0  0  0
 24 25  1  0  0  0
 25 26  1  0  0  0
 26 27  1  0  0  0
 27 28  1  0  0  0
 24 29  1  0  0  0
 28 29  1  0  0  0
 15 19  1  0  0  0
 18 19  1  0  0  0
 13 12  1  0  0  0
  9 12  1  0  0  0
 14 15  1  0  0  0
 15 16  2  0  0  0
 16 17  1  0  0  0
 17 18  2  0  0  0
  7  8  1  0  0  0
M  END
> <minimizedAffinity>
-6.91827

$$$$
2UWP_894_A_1245


 29 31  0  0  0  0  0  0  0  0999 V2000
    6.6056    8.3795   19.1911 C   0  0  0  0  0  0  0  0  0  0  0  0
    5.7580    8.6075   17.9427 C   0  0  0  0  0  0  0  0  0  0  0  0
    5.5075    7.2179   17.3628 C   0  0  0  0  0  0  0  0  0  0  0  0
    7.0347    6.9235   19.1175 C   0  0  0  0  0  0  0  0  0  0  0  0
    7.9345    6.4404   19.7965 O   0  0  0  0  0  0  0  0  0  0  0  0
    6.2538    6.2947   18.2243 N   0  0  0  0  0  0  0  0  0  0  0  0
    7.7603    9.2354   19.2562 N   0  0  0  0  0  0  0  0  0  0  0  0
    8.5222    8.6855   19.6532 H   0  0  0  0  0  0  0  0  0  0  0  0
    7.6470   10.6867   20.1740 S   0  0  0  0  0  0  0  0  0  0  0  0
    8.8764   11.3408   19.8366 O   0  0  0  0  0  0  0  0  0  0  0  0
    6.4029   11.3271   19.8787 O   0  0  0  0  0  0  0  0  0  0  0  0
    7.7303   10.2106   21.9110 C   0  0  0  0  0  0  0  0  0  0  0  0
    8.8142    9.1469   22.0100 C   0  0  0  0  0  0  0  0  0  0  0  0
   11.3027    7.7283   26.8170 Cl  0  0  0  0  0  0  0  0  0  0  0  0
   10.2483    7.9940   25.4871 C   0  0  0  0  0  0  0  0  0  0  0  0
    8.9696    7.6035   25.4649 C   0  0  0  0  0  0  0  0  0  0  0  0
    8.3520    7.9812   24.1980 C   0  0  0  0  0  0  0  0  0  0  0  0
    9.1740    8.6285   23.3743 C   0  0  0  0  0  0  0  0  0  0  0  0
   10.7987    8.8224   24.0443 S   0  0  0  0  0  0  0  0  0  0  0  0
    6.1301    4.8351   18.1442 C   0  0  0  0  0  0  0  0  0  0  0  0
    4.7171    4.4511   17.6685 C   0  0  0  0  0  0  0  0  0  0  0  0
    7.2305    4.2470   17.2301 C   0  0  0  0  0  0  0  0  0  0  0  0
    7.2366    4.5701   16.0430 O   0  0  0  0  0  0  0  0  0  0  0  0
    8.1751    3.4018   17.7627 N   0  0  0  0  0  0  0  0  0  0  0  0
    8.1716    2.8548   19.1376 C   0  0  0  0  0  0  0  0  0  0  0  0
    8.5245    1.3704   19.1695 C   0  0  0  0  0  0  0  0  0  0  0  0
    9.6837    1.1712   18.3842 O   0  0  0  0  0  0  0  0  0  0  0  0
    9.5392    1.5127   17.0201 C   0  0  0  0  0  0  0  0  0  0  0  0
    9.3217    3.0140   16.9198 C   0  0  0  0  0  0  0  0  0  0  0  0
 18 13  1  0  0  0
  9 10  2  0  0  0
  9 11  2  0  0  0
  9  7  1  0  0  0
  7  1  1  0  0  0
  1  2  1  0  0  0
  2  3  1  0  0  0
  1  4  1  0  0  0
  4  5  2  0  0  0
  3  6  1  0  0  0
  4  6  1  0  0  0
  6 20  1  0  0  0
 20 21  1  0  0  0
 20 22  1  0  0  0
 22 23  2  0  0  0
 22 24  1  0  0  0
 24 25  1  0  0  0
 25 26  1  0  0  0
 26 27  1  0  0  0
 27 28  1  0  0  0
 24 29  1  0  0  0
 28 29  1  0  0  0
 15 19  1  0  0  0
 18 19  1  0  0  0
 13 12  1  0  0  0
  9 12  1  0  0  0
 14 15  1  0  0  0
 15 16  2  0  0  0
 16 17  1  0  0  0
 17 18  2  0  0  0
  7  8  1  0  0  0
M  END
> <minimizedAffinity>
-6.83758

$$$$
2UWP_894_A_1245


 29 31  0  0  0  0  0  0  0  0999 V2000
    7.9446    6.3224   19.3632 C   0  0  0  0  0  0  0  0  0  0  0  0
    7.7531    5.6495   20.7194 C   0  0  0  0  0  0  0  0  0  0  0  0
    7.5082    4.1750   20.4101 C   0  0  0  0  0  0  0  0  0  0  0  0
    7.5279    5.2779   18.3409 C   0  0  0  0  0  0  0  0  0  0  0  0
    7.2932    5.5285   17.1636 O   0  0  0  0  0  0  0  0  0  0  0  0
    7.4950    4.0798   18.9465 N   0  0  0  0  0  0  0  0  0  0  0  0
    7.1551    7.5149   19.2055 N   0  0  0  0  0  0  0  0  0  0  0  0
    6.5845    7.3913   18.3691 H   0  0  0  0  0  0  0  0  0  0  0  0
    7.9758    9.0190   19.0453 S   0  0  0  0  0  0  0  0  0  0  0  0
    9.3274    8.6455   19.3400 O   0  0  0  0  0  0  0  0  0  0  0  0
    7.6624    9.5857   17.7703 O   0  0  0  0  0  0  0  0  0  0  0  0
    7.3881   10.0762   20.3824 C   0  0  0  0  0  0  0  0  0  0  0  0
    6.7091    9.1559   21.3865 C   0  0  0  0  0  0  0  0  0  0  0  0
   10.3166    8.1293   25.5392 Cl  0  0  0  0  0  0  0  0  0  0  0  0
    8.9625    8.4601   24.5352 C   0  0  0  0  0  0  0  0  0  0  0  0
    7.7256    8.6629   25.0012 C   0  0  0  0  0  0  0  0  0  0  0  0
    6.8092    8.9205   23.8954 C   0  0  0  0  0  0  0  0  0  0  0  0
    7.3971    8.9125   22.7006 C   0  0  0  0  0  0  0  0  0  0  0  0
    9.1276    8.5620   22.7936 S   0  0  0  0  0  0  0  0  0  0  0  0
    7.4860    2.8060   18.2190 C   0  0  0  0  0  0  0  0  0  0  0  0
    8.1156    1.6997   19.0851 C   0  0  0  0  0  0  0  0  0  0  0  0
    6.0494    2.4468   17.7721 C   0  0  0  0  0  0  0  0  0  0  0  0
    5.2143    2.1967   18.6401 O   0  0  0  0  0  0  0  0  0  0  0  0
    5.7387    2.4332   16.4329 N   0  0  0  0  0  0  0  0  0  0  0  0
    6.7000    2.5888   15.3187 C   0  0  0  0  0  0  0  0  0  0  0  0
    6.4419    1.5944   14.1902 C   0  0  0  0  0  0  0  0  0  0  0  0
    5.0627    1.6220   13.8790 O   0  0  0  0  0  0  0  0  0  0  0  0
    4.2095    1.2434   14.9406 C   0  0  0  0  0  0  0  0  0  0  0  0
    4.3238    2.2826   16.0444 C   0  0  0  0  0  0  0  0  0  0  0  0
 18 13  1  0  0  0
  9 10  2  0  0  0
  9 11  2  0  0  0
  9  7  1  0  0  0
  7  1  1  0  0  0
  1  2  1  0  0  0
  2  3  1  0  0  0
  1  4  1  0  0  0
  4  5  2  0  0  0
  3  6  1  0  0  0
  4  6  1  0  0  0
  6 20  1  0  0  0
 20 21  1  0  0  0
 20 22  1  0  0  0
 22 23  2  0  0  0
 22 24  1  0  0  0
 24 25  1  0  0  0
 25 26  1  0  0  0
 26 27  1  0  0  0
 27 28  1  0  0  0
 24 29  1  0  0  0
 28 29  1  0  0  0
 15 19  1  0  0  0
 18 19  1  0  0  0
 13 12  1  0  0  0
  9 12  1  0  0  0
 14 15  1  0  0  0
 15 16  2  0  0  0
 16 17  1  0  0  0
 17 18  2  0  0  0
  7  8  1  0  0  0
M  END
> <minimizedAffinity>
-6.79133

$$$$
2UWP_894_A_1245


 29 31  0  0  0  0  0  0  0  0999 V2000
    7.7853    7.0903   19.9721 C   0  0  0  0  0  0  0  0  0  0  0  0
    7.8630    6.0982   21.1290 C   0  0  0  0  0  0  0  0  0  0  0  0
    7.9071    4.7182   20.4781 C   0  0  0  0  0  0  0  0  0  0  0  0
    7.5071    6.2426   18.7419 C   0  0  0  0  0  0  0  0  0  0  0  0
    7.1195    6.6975   17.6711 O   0  0  0  0  0  0  0  0  0  0  0  0
    7.7820    4.9618   19.0372 N   0  0  0  0  0  0  0  0  0  0  0  0
    6.7515    8.0769   20.1400 N   0  0  0  0  0  0  0  0  0  0  0  0
    6.3311    8.2332   19.2239 H   0  0  0  0  0  0  0  0  0  0  0  0
    7.1909    9.6173   20.7690 S   0  0  0  0  0  0  0  0  0  0  0  0
    8.5500    9.7335   20.3301 O   0  0  0  0  0  0  0  0  0  0  0  0
    6.2272   10.5846   20.3443 O   0  0  0  0  0  0  0  0  0  0  0  0
    7.1993    9.4616   22.5653 C   0  0  0  0  0  0  0  0  0  0  0  0
    8.6128    9.8004   23.0160 C   0  0  0  0  0  0  0  0  0  0  0  0
   11.8436    7.3317   26.8606 Cl  0  0  0  0  0  0  0  0  0  0  0  0
   10.5767    7.9635   25.8874 C   0  0  0  0  0  0  0  0  0  0  0  0
    9.2793    7.8383   26.1859 C   0  0  0  0  0  0  0  0  0  0  0  0
    8.4648    8.4851   25.1626 C   0  0  0  0  0  0  0  0  0  0  0  0
    9.1775    9.0554   24.1931 C   0  0  0  0  0  0  0  0  0  0  0  0
   10.9191    8.8406   24.4094 S   0  0  0  0  0  0  0  0  0  0  0  0
    7.9756    3.9213   18.0213 C   0  0  0  0  0  0  0  0  0  0  0  0
    9.2959    3.1724   18.2787 C   0  0  0  0  0  0  0  0  0  0  0  0
    6.7616    2.9635   17.9878 C   0  0  0  0  0  0  0  0  0  0  0  0
    6.6442    2.1392   18.8935 O   0  0  0  0  0  0  0  0  0  0  0  0
    5.8439    3.0664   16.9692 N   0  0  0  0  0  0  0  0  0  0  0  0
    5.9691    3.9298   15.7740 C   0  0  0  0  0  0  0  0  0  0  0  0
    5.5600    3.2067   14.4938 C   0  0  0  0  0  0  0  0  0  0  0  0
    4.3174    2.5703   14.7195 O   0  0  0  0  0  0  0  0  0  0  0  0
    4.3317    1.5903   15.7383 C   0  0  0  0  0  0  0  0  0  0  0  0
    4.5998    2.2801   17.0663 C   0  0  0  0  0  0  0  0  0  0  0  0
 18 13  1  0  0  0
  9 10  2  0  0  0
  9 11  2  0  0  0
  9  7  1  0  0  0
  7  1  1  0  0  0
  1  2  1  0  0  0
  2  3  1  0  0  0
  1  4  1  0  0  0
  4  5  2  0  0  0
  3  6  1  0  0  0
  4  6  1  0  0  0
  6 20  1  0  0  0
 20 21  1  0  0  0
 20 22  1  0  0  0
 22 23  2  0  0  0
 22 24  1  0  0  0
 24 25  1  0  0  0
 25 26  1  0  0  0
 26 27  1  0  0  0
 27 28  1  0  0  0
 24 29  1  0  0  0
 28 29  1  0  0  0
 15 19  1  0  0  0
 18 19  1  0  0  0
 13 12  1  0  0  0
  9 12  1  0  0  0
 14 15  1  0  0  0
 15 16  2  0  0  0
 16 17  1  0  0  0
 17 18  2  0  0  0
  7  8  1  0  0  0
M  END
> <minimizedAffinity>
-6.78823

$$$$
