4LCH_1WN_A_304


 42 44  0  0  0  0  0  0  0  0999 V2000
   25.4444  -11.7134   -7.8665 N   0  0  0  0  0  0  0  0  0  0  0  0
   25.7379  -11.7851   -6.4608 C   0  0  0  0  0  0  0  0  0  0  0  0
   26.0084  -10.8370   -5.8008 O   0  0  0  0  0  0  0  0  0  0  0  0
   25.3642  -12.5487   -8.3814 H   0  0  0  0  0  0  0  0  0  0  0  0
   26.0305  -13.1323   -5.8751 C   0  0  0  0  0  0  0  0  0  0  0  0
   25.1493  -14.1632   -6.0697 C   0  0  0  0  0  0  0  0  0  0  0  0
   25.3880  -15.4142   -5.4817 C   0  0  0  0  0  0  0  0  0  0  0  0
   26.4063  -15.5094   -4.5517 C   0  0  0  0  0  0  0  0  0  0  0  0
   27.3437  -14.4972   -4.4152 C   0  0  0  0  0  0  0  0  0  0  0  0
   27.1123  -13.2526   -5.0097 C   0  0  0  0  0  0  0  0  0  0  0  0
   26.5599  -16.8061   -3.9273 C   0  0  0  0  0  0  0  0  0  0  0  0
   26.6895  -17.8839   -3.4437 C   0  0  0  0  0  0  0  0  0  0  0  0
   26.8650  -19.2317   -2.9038 C   0  0  0  0  0  0  0  0  0  0  0  0
   27.0451  -20.3014   -2.5082 C   0  0  0  0  0  0  0  0  0  0  0  0
   27.3017  -21.6333   -2.0445 C   0  0  0  0  0  0  0  0  0  0  0  0
   27.0085  -22.6174   -2.9940 C   0  0  0  0  0  0  0  0  0  0  0  0
   27.3988  -23.9311   -2.8129 C   0  0  0  0  0  0  0  0  0  0  0  0
   27.9630  -24.2101   -1.5665 C   0  0  0  0  0  0  0  0  0  0  0  0
   28.2520  -25.5712   -1.2879 N   0  0  0  0  0  0  0  0  0  0  0  0
   28.1981  -23.2362   -0.5913 C   0  0  0  0  0  0  0  0  0  0  0  0
   27.9701  -21.9069   -0.8737 C   0  0  0  0  0  0  0  0  0  0  0  0
   28.0876  -26.2594   -1.9724 H   0  0  0  0  0  0  0  0  0  0  0  0
   28.6169  -25.8272   -0.4101 H   0  0  0  0  0  0  0  0  0  0  0  0
   25.2622  -10.4384   -8.5517 C   0  0  0  0  0  0  0  0  0  0  0  0
   22.3928   -8.2559   -7.5272 O   0  0  0  0  0  0  0  0  0  0  0  0
   23.5158   -8.8530   -7.5114 N   0  0  0  0  0  0  0  0  0  0  0  0
   23.8057  -10.0293   -8.2856 C   0  0  0  0  0  0  0  0  0  0  0  0
   22.9294  -10.6893   -8.7441 O   0  0  0  0  0  0  0  0  0  0  0  0
   22.4249   -7.4911   -6.9314 H   0  0  0  0  0  0  0  0  0  0  0  0
   24.2270   -8.4889   -6.9363 H   0  0  0  0  0  0  0  0  0  0  0  0
   25.5911  -10.5943  -10.0078 C   0  0  0  0  0  0  0  0  0  0  0  0
   24.5222  -10.9768  -10.7233 O   0  0  0  0  0  0  0  0  0  0  0  0
   26.5393  -11.7027  -10.1855 C   0  0  0  0  0  0  0  0  0  0  0  0
   24.7729  -11.0667  -11.6560 H   0  0  0  0  0  0  0  0  0  0  0  0
   26.0667   -9.3480  -10.6566 C   0  0  0  0  0  0  0  0  0  0  0  0
   25.2325   -8.2107  -10.9080 C   0  0  0  0  0  0  0  0  0  0  0  0
   25.7234   -6.9698  -11.3339 C   0  0  0  0  0  0  0  0  0  0  0  0
   27.1051   -6.8817  -11.5904 C   0  0  0  0  0  0  0  0  0  0  0  0
   27.5974   -5.6906  -12.0657 O   0  0  0  0  0  0  0  0  0  0  0  0
   27.9566   -8.0270  -11.4507 C   0  0  0  0  0  0  0  0  0  0  0  0
   27.4690   -9.2139  -10.8666 C   0  0  0  0  0  0  0  0  0  0  0  0
   27.0297   -4.9501  -12.1520 H   0  0  0  0  0  0  0  0  0  0  0  0
 39 38  1  0  0  0
 38 37  2  0  0  0
 38 40  1  0  0  0
 37 36  1  0  0  0
 40 41  2  0  0  0
 36 35  2  0  0  0
 41 35  1  0  0  0
 32 31  1  0  0  0
 35 31  1  0  0  0
 33 31  1  0  0  0
 31 24  1  0  0  0
 24 27  1  0  0  0
 24  1  1  0  0  0
 27 28  2  0  0  0
 27 26  1  0  0  0
  1  2  1  0  0  0
 26 25  1  0  0  0
  2  3  2  0  0  0
  2  5  1  0  0  0
  6  5  2  0  0  0
  6  7  1  0  0  0
  5 10  1  0  0  0
  7  8  2  0  0  0
 10  9  2  0  0  0
  8  9  1  0  0  0
  8 11  1  0  0  0
 11 12  3  0  0  0
 12 13  1  0  0  0
 16 17  2  0  0  0
 16 15  1  0  0  0
 13 14  3  0  0  0
 17 18  1  0  0  0
 14 15  1  0  0  0
 15 21  2  0  0  0
 18 19  1  0  0  0
 18 20  2  0  0  0
 21 20  1  0  0  0
 25 29  1  0  0  0
 26 30  1  0  0  0
  1  4  1  0  0  0
 19 22  1  0  0  0
 19 23  1  0  0  0
 32 34  1  0  0  0
 39 42  1  0  0  0
M  END
> <minimizedAffinity>
-11.05638

$$$$
4LCH_1WN_A_304


 42 44  0  0  0  0  0  0  0  0999 V2000
   25.2823  -11.7914   -7.3249 N   0  0  0  0  0  0  0  0  0  0  0  0
   26.1717  -11.9405   -6.2050 C   0  0  0  0  0  0  0  0  0  0  0  0
   26.9341  -11.0995   -5.8597 O   0  0  0  0  0  0  0  0  0  0  0  0
   24.7765  -12.5745   -7.6413 H   0  0  0  0  0  0  0  0  0  0  0  0
   26.3766  -13.3178   -5.6530 C   0  0  0  0  0  0  0  0  0  0  0  0
   25.5540  -14.3384   -6.0517 C   0  0  0  0  0  0  0  0  0  0  0  0
   25.7041  -15.6199   -5.5014 C   0  0  0  0  0  0  0  0  0  0  0  0
   26.5501  -15.7647   -4.4177 C   0  0  0  0  0  0  0  0  0  0  0  0
   27.4382  -14.7594   -4.0676 C   0  0  0  0  0  0  0  0  0  0  0  0
   27.2964  -13.4838   -4.6234 C   0  0  0  0  0  0  0  0  0  0  0  0
   26.6108  -17.0941   -3.8486 C   0  0  0  0  0  0  0  0  0  0  0  0
   26.6784  -18.1951   -3.4063 C   0  0  0  0  0  0  0  0  0  0  0  0
   26.8035  -19.5632   -2.9048 C   0  0  0  0  0  0  0  0  0  0  0  0
   26.9539  -20.6380   -2.5110 C   0  0  0  0  0  0  0  0  0  0  0  0
   27.1832  -21.9674   -2.0261 C   0  0  0  0  0  0  0  0  0  0  0  0
   27.0716  -22.9467   -3.0184 C   0  0  0  0  0  0  0  0  0  0  0  0
   27.4752  -24.2494   -2.7924 C   0  0  0  0  0  0  0  0  0  0  0  0
   27.8531  -24.5279   -1.4774 C   0  0  0  0  0  0  0  0  0  0  0  0
   28.1435  -25.8826   -1.1709 N   0  0  0  0  0  0  0  0  0  0  0  0
   27.9038  -23.5611   -0.4687 C   0  0  0  0  0  0  0  0  0  0  0  0
   27.6754  -22.2359   -0.7700 C   0  0  0  0  0  0  0  0  0  0  0  0
   28.1087  -26.5659   -1.8789 H   0  0  0  0  0  0  0  0  0  0  0  0
   28.3797  -26.1393   -0.2503 H   0  0  0  0  0  0  0  0  0  0  0  0
   25.1080  -10.5129   -8.0056 C   0  0  0  0  0  0  0  0  0  0  0  0
   22.2485   -8.1295   -7.5717 O   0  0  0  0  0  0  0  0  0  0  0  0
   23.4136   -8.5799   -7.8113 N   0  0  0  0  0  0  0  0  0  0  0  0
   23.8897   -9.8529   -7.3427 C   0  0  0  0  0  0  0  0  0  0  0  0
   23.3410  -10.4197   -6.4530 O   0  0  0  0  0  0  0  0  0  0  0  0
   22.1477   -7.2575   -7.9843 H   0  0  0  0  0  0  0  0  0  0  0  0
   24.0243   -8.0250   -8.3482 H   0  0  0  0  0  0  0  0  0  0  0  0
   24.9452  -10.7422   -9.4799 C   0  0  0  0  0  0  0  0  0  0  0  0
   24.6369   -9.6099  -10.1307 O   0  0  0  0  0  0  0  0  0  0  0  0
   23.7814  -11.6062   -9.7213 C   0  0  0  0  0  0  0  0  0  0  0  0
   24.5400   -9.7972  -11.0774 H   0  0  0  0  0  0  0  0  0  0  0  0
   26.1652  -11.2551  -10.1500 C   0  0  0  0  0  0  0  0  0  0  0  0
   27.4955  -11.0253   -9.6702 C   0  0  0  0  0  0  0  0  0  0  0  0
   28.6265  -11.6720  -10.1851 C   0  0  0  0  0  0  0  0  0  0  0  0
   28.4276  -12.5352  -11.2796 C   0  0  0  0  0  0  0  0  0  0  0  0
   29.5314  -13.1334  -11.8371 O   0  0  0  0  0  0  0  0  0  0  0  0
   27.1257  -12.7107  -11.8546 C   0  0  0  0  0  0  0  0  0  0  0  0
   25.9852  -12.1790  -11.2188 C   0  0  0  0  0  0  0  0  0  0  0  0
   30.3762  -13.0102  -11.4510 H   0  0  0  0  0  0  0  0  0  0  0  0
 39 38  1  0  0  0
 38 37  2  0  0  0
 38 40  1  0  0  0
 37 36  1  0  0  0
 40 41  2  0  0  0
 36 35  2  0  0  0
 41 35  1  0  0  0
 32 31  1  0  0  0
 35 31  1  0  0  0
 33 31  1  0  0  0
 31 24  1  0  0  0
 24 27  1  0  0  0
 24  1  1  0  0  0
 27 28  2  0  0  0
 27 26  1  0  0  0
  1  2  1  0  0  0
 26 25  1  0  0  0
  2  3  2  0  0  0
  2  5  1  0  0  0
  6  5  2  0  0  0
  6  7  1  0  0  0
  5 10  1  0  0  0
  7  8  2  0  0  0
 10  9  2  0  0  0
  8  9  1  0  0  0
  8 11  1  0  0  0
 11 12  3  0  0  0
 12 13  1  0  0  0
 16 17  2  0  0  0
 16 15  1  0  0  0
 13 14  3  0  0  0
 17 18  1  0  0  0
 14 15  1  0  0  0
 15 21  2  0  0  0
 18 19  1  0  0  0
 18 20  2  0  0  0
 21 20  1  0  0  0
 25 29  1  0  0  0
 26 30  1  0  0  0
  1  4  1  0  0  0
 19 22  1  0  0  0
 19 23  1  0  0  0
 32 34  1  0  0  0
 39 42  1  0  0  0
M  END
> <minimizedAffinity>
-10.90880

$$$$
4LCH_1WN_A_304


 42 44  0  0  0  0  0  0  0  0999 V2000
   25.9920  -12.4548   -7.8417 N   0  0  0  0  0  0  0  0  0  0  0  0
   26.1809  -12.3117   -6.4235 C   0  0  0  0  0  0  0  0  0  0  0  0
   26.5005  -11.2928   -5.9065 O   0  0  0  0  0  0  0  0  0  0  0  0
   25.8629  -13.3551   -8.2185 H   0  0  0  0  0  0  0  0  0  0  0  0
   26.2957  -13.5602   -5.6038 C   0  0  0  0  0  0  0  0  0  0  0  0
   27.5185  -13.9451   -5.1204 C   0  0  0  0  0  0  0  0  0  0  0  0
   27.6454  -15.1398   -4.3963 C   0  0  0  0  0  0  0  0  0  0  0  0
   26.5623  -15.9984   -4.3679 C   0  0  0  0  0  0  0  0  0  0  0  0
   25.3084  -15.5777   -4.7832 C   0  0  0  0  0  0  0  0  0  0  0  0
   25.1787  -14.3814   -5.4961 C   0  0  0  0  0  0  0  0  0  0  0  0
   26.7752  -17.2458   -3.6654 C   0  0  0  0  0  0  0  0  0  0  0  0
   26.9574  -18.2840   -3.1165 C   0  0  0  0  0  0  0  0  0  0  0  0
   27.2046  -19.5837   -2.4933 C   0  0  0  0  0  0  0  0  0  0  0  0
   27.4503  -20.5976   -1.9985 C   0  0  0  0  0  0  0  0  0  0  0  0
   27.7969  -21.8456   -1.3844 C   0  0  0  0  0  0  0  0  0  0  0  0
   29.0250  -21.8127   -0.7160 C   0  0  0  0  0  0  0  0  0  0  0  0
   29.4182  -22.8426    0.1181 C   0  0  0  0  0  0  0  0  0  0  0  0
   28.5736  -23.9545    0.1173 C   0  0  0  0  0  0  0  0  0  0  0  0
   29.0098  -25.0868    0.8531 N   0  0  0  0  0  0  0  0  0  0  0  0
   27.3760  -24.0125   -0.6019 C   0  0  0  0  0  0  0  0  0  0  0  0
   26.9199  -22.8997   -1.2746 C   0  0  0  0  0  0  0  0  0  0  0  0
   29.8526  -25.0493    1.3605 H   0  0  0  0  0  0  0  0  0  0  0  0
   28.4696  -25.9099    0.8560 H   0  0  0  0  0  0  0  0  0  0  0  0
   25.9862  -11.3039   -8.7383 C   0  0  0  0  0  0  0  0  0  0  0  0
   22.5850  -12.2610   -9.9880 O   0  0  0  0  0  0  0  0  0  0  0  0
   23.8501  -12.1711   -9.8918 N   0  0  0  0  0  0  0  0  0  0  0  0
   24.5239  -11.1242   -9.1727 C   0  0  0  0  0  0  0  0  0  0  0  0
   23.9587  -10.1173   -8.8891 O   0  0  0  0  0  0  0  0  0  0  0  0
   22.3556  -13.0415  -10.5163 H   0  0  0  0  0  0  0  0  0  0  0  0
   24.3993  -12.8576  -10.3349 H   0  0  0  0  0  0  0  0  0  0  0  0
   26.9315  -11.5456   -9.8787 C   0  0  0  0  0  0  0  0  0  0  0  0
   26.6827  -12.7110  -10.4956 O   0  0  0  0  0  0  0  0  0  0  0  0
   28.2973  -11.7132   -9.3630 C   0  0  0  0  0  0  0  0  0  0  0  0
   27.3114  -12.8318  -11.2243 H   0  0  0  0  0  0  0  0  0  0  0  0
   26.8643  -10.5188  -10.9472 C   0  0  0  0  0  0  0  0  0  0  0  0
   27.0188   -9.1136  -10.7144 C   0  0  0  0  0  0  0  0  0  0  0  0
   27.1549   -8.1694  -11.7402 C   0  0  0  0  0  0  0  0  0  0  0  0
   27.0594   -8.6429  -13.0629 C   0  0  0  0  0  0  0  0  0  0  0  0
   27.1307   -7.7250  -14.0824 O   0  0  0  0  0  0  0  0  0  0  0  0
   26.8007  -10.0269  -13.3350 C   0  0  0  0  0  0  0  0  0  0  0  0
   26.8312  -10.9783  -12.2949 C   0  0  0  0  0  0  0  0  0  0  0  0
   27.3004   -6.8237  -13.8904 H   0  0  0  0  0  0  0  0  0  0  0  0
 39 38  1  0  0  0
 38 37  2  0  0  0
 38 40  1  0  0  0
 37 36  1  0  0  0
 40 41  2  0  0  0
 36 35  2  0  0  0
 41 35  1  0  0  0
 32 31  1  0  0  0
 35 31  1  0  0  0
 33 31  1  0  0  0
 31 24  1  0  0  0
 24 27  1  0  0  0
 24  1  1  0  0  0
 27 28  2  0  0  0
 27 26  1  0  0  0
  1  2  1  0  0  0
 26 25  1  0  0  0
  2  3  2  0  0  0
  2  5  1  0  0  0
  6  5  2  0  0  0
  6  7  1  0  0  0
  5 10  1  0  0  0
  7  8  2  0  0  0
 10  9  2  0  0  0
  8  9  1  0  0  0
  8 11  1  0  0  0
 11 12  3  0  0  0
 12 13  1  0  0  0
 16 17  2  0  0  0
 16 15  1  0  0  0
 13 14  3  0  0  0
 17 18  1  0  0  0
 14 15  1  0  0  0
 15 21  2  0  0  0
 18 19  1  0  0  0
 18 20  2  0  0  0
 21 20  1  0  0  0
 25 29  1  0  0  0
 26 30  1  0  0  0
  1  4  1  0  0  0
 19 22  1  0  0  0
 19 23  1  0  0  0
 32 34  1  0  0  0
 39 42  1  0  0  0
M  END
> <minimizedAffinity>
-9.95621

$$$$
4LCH_1WN_A_304


 42 44  0  0  0  0  0  0  0  0999 V2000
   26.1485  -11.7289   -9.1959 N   0  0  0  0  0  0  0  0  0  0  0  0
   26.2508  -11.5072   -7.7789 C   0  0  0  0  0  0  0  0  0  0  0  0
   26.5030  -10.4518   -7.2993 O   0  0  0  0  0  0  0  0  0  0  0  0
   26.0739  -12.6515   -9.5314 H   0  0  0  0  0  0  0  0  0  0  0  0
   26.3639  -12.7073   -6.8896 C   0  0  0  0  0  0  0  0  0  0  0  0
   27.3816  -13.6035   -7.0847 C   0  0  0  0  0  0  0  0  0  0  0  0
   27.4658  -14.7573   -6.2914 C   0  0  0  0  0  0  0  0  0  0  0  0
   26.3964  -15.0572   -5.4684 C   0  0  0  0  0  0  0  0  0  0  0  0
   25.4104  -14.1176   -5.2102 C   0  0  0  0  0  0  0  0  0  0  0  0
   25.3315  -12.9615   -5.9934 C   0  0  0  0  0  0  0  0  0  0  0  0
   26.5094  -16.2953   -4.7272 C   0  0  0  0  0  0  0  0  0  0  0  0
   26.6325  -17.3042   -4.1113 C   0  0  0  0  0  0  0  0  0  0  0  0
   26.8378  -18.5250   -3.3327 C   0  0  0  0  0  0  0  0  0  0  0  0
   27.0283  -19.5077   -2.7572 C   0  0  0  0  0  0  0  0  0  0  0  0
   27.2865  -20.7427   -2.0768 C   0  0  0  0  0  0  0  0  0  0  0  0
   26.6523  -21.8425   -2.6635 C   0  0  0  0  0  0  0  0  0  0  0  0
   26.9602  -23.1363   -2.2867 C   0  0  0  0  0  0  0  0  0  0  0  0
   27.8255  -23.2405   -1.1958 C   0  0  0  0  0  0  0  0  0  0  0  0
   28.0600  -24.5457   -0.6905 N   0  0  0  0  0  0  0  0  0  0  0  0
   28.4106  -22.1369   -0.5677 C   0  0  0  0  0  0  0  0  0  0  0  0
   28.2306  -20.8723   -1.0847 C   0  0  0  0  0  0  0  0  0  0  0  0
   27.6495  -25.3249   -1.1304 H   0  0  0  0  0  0  0  0  0  0  0  0
   28.6332  -24.6719    0.0999 H   0  0  0  0  0  0  0  0  0  0  0  0
   26.1520  -10.6258  -10.1507 C   0  0  0  0  0  0  0  0  0  0  0  0
   23.5714   -7.9285  -10.4839 O   0  0  0  0  0  0  0  0  0  0  0  0
   24.6853   -8.5103  -10.2874 N   0  0  0  0  0  0  0  0  0  0  0  0
   24.8109   -9.9032   -9.9541 C   0  0  0  0  0  0  0  0  0  0  0  0
   23.8808  -10.5180   -9.5412 O   0  0  0  0  0  0  0  0  0  0  0  0
   23.7272   -6.9945  -10.6944 H   0  0  0  0  0  0  0  0  0  0  0  0
   25.5084   -7.9763  -10.3680 H   0  0  0  0  0  0  0  0  0  0  0  0
   26.3552  -11.1584  -11.5391 C   0  0  0  0  0  0  0  0  0  0  0  0
   25.7485  -10.3950  -12.4609 O   0  0  0  0  0  0  0  0  0  0  0  0
   25.6853  -12.4593  -11.6736 C   0  0  0  0  0  0  0  0  0  0  0  0
   25.9016  -10.7695  -13.3425 H   0  0  0  0  0  0  0  0  0  0  0  0
   27.7762  -11.2202  -11.9605 C   0  0  0  0  0  0  0  0  0  0  0  0
   28.7501  -10.2221  -11.6318 C   0  0  0  0  0  0  0  0  0  0  0  0
   30.1240  -10.3780  -11.8560 C   0  0  0  0  0  0  0  0  0  0  0  0
   30.5370  -11.5569  -12.5058 C   0  0  0  0  0  0  0  0  0  0  0  0
   31.8734  -11.7024  -12.7884 O   0  0  0  0  0  0  0  0  0  0  0  0
   29.5813  -12.5322  -12.9440 C   0  0  0  0  0  0  0  0  0  0  0  0
   28.2280  -12.4293  -12.5625 C   0  0  0  0  0  0  0  0  0  0  0  0
   32.4871  -11.0575  -12.4959 H   0  0  0  0  0  0  0  0  0  0  0  0
 39 38  1  0  0  0
 38 37  2  0  0  0
 38 40  1  0  0  0
 37 36  1  0  0  0
 40 41  2  0  0  0
 36 35  2  0  0  0
 41 35  1  0  0  0
 32 31  1  0  0  0
 35 31  1  0  0  0
 33 31  1  0  0  0
 31 24  1  0  0  0
 24 27  1  0  0  0
 24  1  1  0  0  0
 27 28  2  0  0  0
 27 26  1  0  0  0
  1  2  1  0  0  0
 26 25  1  0  0  0
  2  3  2  0  0  0
  2  5  1  0  0  0
  6  5  2  0  0  0
  6  7  1  0  0  0
  5 10  1  0  0  0
  7  8  2  0  0  0
 10  9  2  0  0  0
  8  9  1  0  0  0
  8 11  1  0  0  0
 11 12  3  0  0  0
 12 13  1  0  0  0
 16 17  2  0  0  0
 16 15  1  0  0  0
 13 14  3  0  0  0
 17 18  1  0  0  0
 14 15  1  0  0  0
 15 21  2  0  0  0
 18 19  1  0  0  0
 18 20  2  0  0  0
 21 20  1  0  0  0
 25 29  1  0  0  0
 26 30  1  0  0  0
  1  4  1  0  0  0
 19 22  1  0  0  0
 19 23  1  0  0  0
 32 34  1  0  0  0
 39 42  1  0  0  0
M  END
> <minimizedAffinity>
-9.36375

$$$$
4LCH_1WN_A_304


 42 44  0  0  0  0  0  0  0  0999 V2000
   26.5672  -10.1890   -9.5595 N   0  0  0  0  0  0  0  0  0  0  0  0
   25.5787  -10.4580   -8.5506 C   0  0  0  0  0  0  0  0  0  0  0  0
   24.6953   -9.7116   -8.2861 O   0  0  0  0  0  0  0  0  0  0  0  0
   27.3490  -10.7828   -9.6333 H   0  0  0  0  0  0  0  0  0  0  0  0
   25.8551  -11.5629   -7.5776 C   0  0  0  0  0  0  0  0  0  0  0  0
   26.7180  -12.5701   -7.9211 C   0  0  0  0  0  0  0  0  0  0  0  0
   26.9431  -13.6365   -7.0380 C   0  0  0  0  0  0  0  0  0  0  0  0
   26.1262  -13.7417   -5.9277 C   0  0  0  0  0  0  0  0  0  0  0  0
   25.3141  -12.6880   -5.5380 C   0  0  0  0  0  0  0  0  0  0  0  0
   25.0971  -11.6188   -6.4131 C   0  0  0  0  0  0  0  0  0  0  0  0
   26.3590  -14.8999   -5.0913 C   0  0  0  0  0  0  0  0  0  0  0  0
   26.5632  -15.8657   -4.4297 C   0  0  0  0  0  0  0  0  0  0  0  0
   26.8477  -17.0773   -3.6616 C   0  0  0  0  0  0  0  0  0  0  0  0
   27.0839  -18.0579   -3.0998 C   0  0  0  0  0  0  0  0  0  0  0  0
   27.3845  -19.2946   -2.4401 C   0  0  0  0  0  0  0  0  0  0  0  0
   26.6251  -20.3718   -2.9080 C   0  0  0  0  0  0  0  0  0  0  0  0
   26.9284  -21.6734   -2.5547 C   0  0  0  0  0  0  0  0  0  0  0  0
   27.9372  -21.8029   -1.5982 C   0  0  0  0  0  0  0  0  0  0  0  0
   28.1860  -23.1108   -1.1070 N   0  0  0  0  0  0  0  0  0  0  0  0
   28.6542  -20.7190   -1.0823 C   0  0  0  0  0  0  0  0  0  0  0  0
   28.4558  -19.4542   -1.5921 C   0  0  0  0  0  0  0  0  0  0  0  0
   27.6829  -23.8761   -1.4681 H   0  0  0  0  0  0  0  0  0  0  0  0
   28.8616  -23.2528   -0.4052 H   0  0  0  0  0  0  0  0  0  0  0  0
   26.4448   -9.0613  -10.4769 C   0  0  0  0  0  0  0  0  0  0  0  0
   23.0720   -8.1088  -11.8046 O   0  0  0  0  0  0  0  0  0  0  0  0
   24.0680   -8.2253  -11.0222 N   0  0  0  0  0  0  0  0  0  0  0  0
   25.0829   -9.2334  -11.1660 C   0  0  0  0  0  0  0  0  0  0  0  0
   24.8920  -10.2008  -11.8304 O   0  0  0  0  0  0  0  0  0  0  0  0
   22.5209   -7.3639  -11.5177 H   0  0  0  0  0  0  0  0  0  0  0  0
   24.1486   -7.5888  -10.2755 H   0  0  0  0  0  0  0  0  0  0  0  0
   27.6071   -9.0524  -11.4264 C   0  0  0  0  0  0  0  0  0  0  0  0
   27.2405   -9.4046  -12.6683 O   0  0  0  0  0  0  0  0  0  0  0  0
   28.5686  -10.0951  -11.0422 C   0  0  0  0  0  0  0  0  0  0  0  0
   28.0156   -9.3873  -13.2514 H   0  0  0  0  0  0  0  0  0  0  0  0
   28.2563   -7.7268  -11.5745 C   0  0  0  0  0  0  0  0  0  0  0  0
   27.5359   -6.5000  -11.7432 C   0  0  0  0  0  0  0  0  0  0  0  0
   28.1357   -5.2355  -11.6820 C   0  0  0  0  0  0  0  0  0  0  0  0
   29.5335   -5.1974  -11.5166 C   0  0  0  0  0  0  0  0  0  0  0  0
   30.1485   -3.9690  -11.5137 O   0  0  0  0  0  0  0  0  0  0  0  0
   30.3024   -6.4059  -11.4488 C   0  0  0  0  0  0  0  0  0  0  0  0
   29.6608   -7.6573  -11.3485 C   0  0  0  0  0  0  0  0  0  0  0  0
   29.6338   -3.1873  -11.5585 H   0  0  0  0  0  0  0  0  0  0  0  0
 39 38  1  0  0  0
 38 37  2  0  0  0
 38 40  1  0  0  0
 37 36  1  0  0  0
 40 41  2  0  0  0
 36 35  2  0  0  0
 41 35  1  0  0  0
 32 31  1  0  0  0
 35 31  1  0  0  0
 33 31  1  0  0  0
 31 24  1  0  0  0
 24 27  1  0  0  0
 24  1  1  0  0  0
 27 28  2  0  0  0
 27 26  1  0  0  0
  1  2  1  0  0  0
 26 25  1  0  0  0
  2  3  2  0  0  0
  2  5  1  0  0  0
  6  5  2  0  0  0
  6  7  1  0  0  0
  5 10  1  0  0  0
  7  8  2  0  0  0
 10  9  2  0  0  0
  8  9  1  0  0  0
  8 11  1  0  0  0
 11 12  3  0  0  0
 12 13  1  0  0  0
 16 17  2  0  0  0
 16 15  1  0  0  0
 13 14  3  0  0  0
 17 18  1  0  0  0
 14 15  1  0  0  0
 15 21  2  0  0  0
 18 19  1  0  0  0
 18 20  2  0  0  0
 21 20  1  0  0  0
 25 29  1  0  0  0
 26 30  1  0  0  0
  1  4  1  0  0  0
 19 22  1  0  0  0
 19 23  1  0  0  0
 32 34  1  0  0  0
 39 42  1  0  0  0
M  END
> <minimizedAffinity>
-9.32142

$$$$
4LCH_1WN_A_304


 42 44  0  0  0  0  0  0  0  0999 V2000
   28.5907  -22.1024   -2.5187 N   0  0  0  0  0  0  0  0  0  0  0  0
   28.2147  -21.1198   -1.5386 C   0  0  0  0  0  0  0  0  0  0  0  0
   27.9800  -21.3834   -0.4059 O   0  0  0  0  0  0  0  0  0  0  0  0
   28.6364  -21.8394   -3.4663 H   0  0  0  0  0  0  0  0  0  0  0  0
   27.7893  -19.7699   -2.0291 C   0  0  0  0  0  0  0  0  0  0  0  0
   26.7980  -19.6705   -2.9696 C   0  0  0  0  0  0  0  0  0  0  0  0
   26.4287  -18.4147   -3.4737 C   0  0  0  0  0  0  0  0  0  0  0  0
   27.2219  -17.3289   -3.1529 C   0  0  0  0  0  0  0  0  0  0  0  0
   28.1691  -17.4117   -2.1441 C   0  0  0  0  0  0  0  0  0  0  0  0
   28.5308  -18.6622   -1.6328 C   0  0  0  0  0  0  0  0  0  0  0  0
   26.8326  -16.0732   -3.7583 C   0  0  0  0  0  0  0  0  0  0  0  0
   26.5089  -15.0573   -4.2832 C   0  0  0  0  0  0  0  0  0  0  0  0
   26.0943  -13.8395   -4.9788 C   0  0  0  0  0  0  0  0  0  0  0  0
   25.7263  -12.9041   -5.5469 C   0  0  0  0  0  0  0  0  0  0  0  0
   25.2373  -11.7663   -6.2688 C   0  0  0  0  0  0  0  0  0  0  0  0
   25.5213  -11.8137   -7.6375 C   0  0  0  0  0  0  0  0  0  0  0  0
   24.9408  -10.9261   -8.5241 C   0  0  0  0  0  0  0  0  0  0  0  0
   24.1848   -9.9129   -7.9311 C   0  0  0  0  0  0  0  0  0  0  0  0
   23.6846   -8.9030   -8.7934 N   0  0  0  0  0  0  0  0  0  0  0  0
   23.9531   -9.8288   -6.5548 C   0  0  0  0  0  0  0  0  0  0  0  0
   24.3897  -10.8332   -5.7183 C   0  0  0  0  0  0  0  0  0  0  0  0
   23.8460   -8.9592   -9.7629 H   0  0  0  0  0  0  0  0  0  0  0  0
   23.1762   -8.1461   -8.4220 H   0  0  0  0  0  0  0  0  0  0  0  0
   28.9064  -23.4779   -2.1490 C   0  0  0  0  0  0  0  0  0  0  0  0
   32.4760  -22.4604   -2.6675 O   0  0  0  0  0  0  0  0  0  0  0  0
   31.2582  -22.7408   -2.9047 N   0  0  0  0  0  0  0  0  0  0  0  0
   30.4369  -23.5348   -2.0318 C   0  0  0  0  0  0  0  0  0  0  0  0
   30.9251  -24.2294   -1.1994 O   0  0  0  0  0  0  0  0  0  0  0  0
   32.8289  -21.9164   -3.3888 H   0  0  0  0  0  0  0  0  0  0  0  0
   30.8551  -22.3943   -3.7333 H   0  0  0  0  0  0  0  0  0  0  0  0
   28.3419  -24.4196   -3.1723 C   0  0  0  0  0  0  0  0  0  0  0  0
   29.3034  -25.1299   -3.7819 O   0  0  0  0  0  0  0  0  0  0  0  0
   27.7324  -23.6532   -4.2679 C   0  0  0  0  0  0  0  0  0  0  0  0
   28.9015  -25.7252   -4.4339 H   0  0  0  0  0  0  0  0  0  0  0  0
   27.4082  -25.4286   -2.6149 C   0  0  0  0  0  0  0  0  0  0  0  0
   26.8033  -25.3266   -1.3201 C   0  0  0  0  0  0  0  0  0  0  0  0
   25.7751  -26.1689   -0.8778 C   0  0  0  0  0  0  0  0  0  0  0  0
   25.3824  -27.2085   -1.7426 C   0  0  0  0  0  0  0  0  0  0  0  0
   24.4170  -28.0816   -1.3034 O   0  0  0  0  0  0  0  0  0  0  0  0
   26.0361  -27.4069   -3.0034 C   0  0  0  0  0  0  0  0  0  0  0  0
   26.9502  -26.4519   -3.4933 C   0  0  0  0  0  0  0  0  0  0  0  0
   23.9979  -27.9400   -0.4774 H   0  0  0  0  0  0  0  0  0  0  0  0
 39 38  1  0  0  0
 38 37  2  0  0  0
 38 40  1  0  0  0
 37 36  1  0  0  0
 40 41  2  0  0  0
 36 35  2  0  0  0
 41 35  1  0  0  0
 32 31  1  0  0  0
 35 31  1  0  0  0
 33 31  1  0  0  0
 31 24  1  0  0  0
 24 27  1  0  0  0
 24  1  1  0  0  0
 27 28  2  0  0  0
 27 26  1  0  0  0
  1  2  1  0  0  0
 26 25  1  0  0  0
  2  3  2  0  0  0
  2  5  1  0  0  0
  6  5  2  0  0  0
  6  7  1  0  0  0
  5 10  1  0  0  0
  7  8  2  0  0  0
 10  9  2  0  0  0
  8  9  1  0  0  0
  8 11  1  0  0  0
 11 12  3  0  0  0
 12 13  1  0  0  0
 16 17  2  0  0  0
 16 15  1  0  0  0
 13 14  3  0  0  0
 17 18  1  0  0  0
 14 15  1  0  0  0
 15 21  2  0  0  0
 18 19  1  0  0  0
 18 20  2  0  0  0
 21 20  1  0  0  0
 25 29  1  0  0  0
 26 30  1  0  0  0
  1  4  1  0  0  0
 19 22  1  0  0  0
 19 23  1  0  0  0
 32 34  1  0  0  0
 39 42  1  0  0  0
M  END
> <minimizedAffinity>
-8.93812

$$$$
4LCH_1WN_A_304


 42 44  0  0  0  0  0  0  0  0999 V2000
   25.6114  -11.9119   -8.2948 N   0  0  0  0  0  0  0  0  0  0  0  0
   25.8117  -11.7821   -6.8769 C   0  0  0  0  0  0  0  0  0  0  0  0
   26.1291  -10.7665   -6.3522 O   0  0  0  0  0  0  0  0  0  0  0  0
   25.4848  -12.8092   -8.6797 H   0  0  0  0  0  0  0  0  0  0  0  0
   25.9417  -13.0381   -6.0710 C   0  0  0  0  0  0  0  0  0  0  0  0
   27.0771  -13.2593   -5.3368 C   0  0  0  0  0  0  0  0  0  0  0  0
   27.2310  -14.4557   -4.6208 C   0  0  0  0  0  0  0  0  0  0  0  0
   26.3151  -15.4667   -4.8440 C   0  0  0  0  0  0  0  0  0  0  0  0
   25.1295  -15.2182   -5.5181 C   0  0  0  0  0  0  0  0  0  0  0  0
   24.9703  -14.0213   -6.2238 C   0  0  0  0  0  0  0  0  0  0  0  0
   26.5647  -16.7013   -4.1310 C   0  0  0  0  0  0  0  0  0  0  0  0
   26.7903  -17.7236   -3.5685 C   0  0  0  0  0  0  0  0  0  0  0  0
   27.1137  -18.9917   -2.9158 C   0  0  0  0  0  0  0  0  0  0  0  0
   27.3184  -20.0045   -2.4006 C   0  0  0  0  0  0  0  0  0  0  0  0
   27.5301  -21.2694   -1.7601 C   0  0  0  0  0  0  0  0  0  0  0  0
   28.3692  -21.1924   -0.6439 C   0  0  0  0  0  0  0  0  0  0  0  0
   28.5085  -22.2572    0.2266 C   0  0  0  0  0  0  0  0  0  0  0  0
   27.8731  -23.4332   -0.1770 C   0  0  0  0  0  0  0  0  0  0  0  0
   28.1032  -24.5867    0.6167 N   0  0  0  0  0  0  0  0  0  0  0  0
   27.0852  -23.5277   -1.3281 C   0  0  0  0  0  0  0  0  0  0  0  0
   26.8137  -22.4011   -2.0737 C   0  0  0  0  0  0  0  0  0  0  0  0
   28.6576  -24.5236    1.4278 H   0  0  0  0  0  0  0  0  0  0  0  0
   27.7085  -25.4502    0.3562 H   0  0  0  0  0  0  0  0  0  0  0  0
   25.5902  -10.7520   -9.1794 C   0  0  0  0  0  0  0  0  0  0  0  0
   22.8765   -9.7614  -11.5670 O   0  0  0  0  0  0  0  0  0  0  0  0
   23.7961   -9.6844  -10.6917 N   0  0  0  0  0  0  0  0  0  0  0  0
   24.2273  -10.7947   -9.8865 C   0  0  0  0  0  0  0  0  0  0  0  0
   23.5488  -11.7642   -9.7706 O   0  0  0  0  0  0  0  0  0  0  0  0
   22.7546   -8.8947  -11.9850 H   0  0  0  0  0  0  0  0  0  0  0  0
   24.2379   -8.8148  -10.5579 H   0  0  0  0  0  0  0  0  0  0  0  0
   26.7610  -10.8086  -10.1168 C   0  0  0  0  0  0  0  0  0  0  0  0
   27.5347   -9.7169  -10.0164 O   0  0  0  0  0  0  0  0  0  0  0  0
   26.2852  -10.7673  -11.5065 C   0  0  0  0  0  0  0  0  0  0  0  0
   28.2783   -9.7895  -10.6351 H   0  0  0  0  0  0  0  0  0  0  0  0
   27.6726  -11.9539   -9.8765 C   0  0  0  0  0  0  0  0  0  0  0  0
   28.4924  -12.0900   -8.7095 C   0  0  0  0  0  0  0  0  0  0  0  0
   29.1963  -13.2583   -8.3901 C   0  0  0  0  0  0  0  0  0  0  0  0
   29.1361  -14.3159   -9.3177 C   0  0  0  0  0  0  0  0  0  0  0  0
   29.8671  -15.4482   -9.0520 O   0  0  0  0  0  0  0  0  0  0  0  0
   28.4107  -14.1794  -10.5472 C   0  0  0  0  0  0  0  0  0  0  0  0
   27.5813  -13.0609  -10.7680 C   0  0  0  0  0  0  0  0  0  0  0  0
   30.3363  -15.5242   -8.2446 H   0  0  0  0  0  0  0  0  0  0  0  0
 39 38  1  0  0  0
 38 37  2  0  0  0
 38 40  1  0  0  0
 37 36  1  0  0  0
 40 41  2  0  0  0
 36 35  2  0  0  0
 41 35  1  0  0  0
 32 31  1  0  0  0
 35 31  1  0  0  0
 33 31  1  0  0  0
 31 24  1  0  0  0
 24 27  1  0  0  0
 24  1  1  0  0  0
 27 28  2  0  0  0
 27 26  1  0  0  0
  1  2  1  0  0  0
 26 25  1  0  0  0
  2  3  2  0  0  0
  2  5  1  0  0  0
  6  5  2  0  0  0
  6  7  1  0  0  0
  5 10  1  0  0  0
  7  8  2  0  0  0
 10  9  2  0  0  0
  8  9  1  0  0  0
  8 11  1  0  0  0
 11 12  3  0  0  0
 12 13  1  0  0  0
 16 17  2  0  0  0
 16 15  1  0  0  0
 13 14  3  0  0  0
 17 18  1  0  0  0
 14 15  1  0  0  0
 15 21  2  0  0  0
 18 19  1  0  0  0
 18 20  2  0  0  0
 21 20  1  0  0  0
 25 29  1  0  0  0
 26 30  1  0  0  0
  1  4  1  0  0  0
 19 22  1  0  0  0
 19 23  1  0  0  0
 32 34  1  0  0  0
 39 42  1  0  0  0
M  END
> <minimizedAffinity>
-8.83401

$$$$
4LCH_1WN_A_304


 42 44  0  0  0  0  0  0  0  0999 V2000
   26.3699  -13.1333   -5.7468 N   0  0  0  0  0  0  0  0  0  0  0  0
   27.2202  -13.5639   -4.6703 C   0  0  0  0  0  0  0  0  0  0  0  0
   28.1961  -12.9788   -4.3345 O   0  0  0  0  0  0  0  0  0  0  0  0
   25.6573  -13.7345   -6.0631 H   0  0  0  0  0  0  0  0  0  0  0  0
   27.0550  -14.9647   -4.1658 C   0  0  0  0  0  0  0  0  0  0  0  0
   27.9368  -15.4625   -3.2431 C   0  0  0  0  0  0  0  0  0  0  0  0
   27.8221  -16.7897   -2.8037 C   0  0  0  0  0  0  0  0  0  0  0  0
   26.9415  -17.6197   -3.4721 C   0  0  0  0  0  0  0  0  0  0  0  0
   25.9968  -17.1017   -4.3446 C   0  0  0  0  0  0  0  0  0  0  0  0
   26.1037  -15.7754   -4.7753 C   0  0  0  0  0  0  0  0  0  0  0  0
   26.9174  -18.9946   -3.0205 C   0  0  0  0  0  0  0  0  0  0  0  0
   26.9239  -20.1178   -2.6323 C   0  0  0  0  0  0  0  0  0  0  0  0
   26.9759  -21.4846   -2.1147 C   0  0  0  0  0  0  0  0  0  0  0  0
   27.0452  -22.5462   -1.6661 C   0  0  0  0  0  0  0  0  0  0  0  0
   27.1561  -23.8487   -1.0777 C   0  0  0  0  0  0  0  0  0  0  0  0
   26.7897  -23.8808    0.2717 C   0  0  0  0  0  0  0  0  0  0  0  0
   26.6176  -25.0773    0.9424 C   0  0  0  0  0  0  0  0  0  0  0  0
   26.9771  -26.2147    0.2167 C   0  0  0  0  0  0  0  0  0  0  0  0
   26.9457  -27.4510    0.9126 N   0  0  0  0  0  0  0  0  0  0  0  0
   27.4048  -26.1771   -1.1139 C   0  0  0  0  0  0  0  0  0  0  0  0
   27.3870  -24.9889   -1.8117 C   0  0  0  0  0  0  0  0  0  0  0  0
   26.6451  -27.4810    1.8496 H   0  0  0  0  0  0  0  0  0  0  0  0
   27.2245  -28.2788    0.4584 H   0  0  0  0  0  0  0  0  0  0  0  0
   26.5329  -11.8310   -6.3839 C   0  0  0  0  0  0  0  0  0  0  0  0
   24.2433   -8.8789   -6.0860 O   0  0  0  0  0  0  0  0  0  0  0  0
   25.2830   -9.6077   -6.0100 N   0  0  0  0  0  0  0  0  0  0  0  0
   25.2559  -11.0445   -6.0521 C   0  0  0  0  0  0  0  0  0  0  0  0
   24.2480  -11.6419   -5.8500 O   0  0  0  0  0  0  0  0  0  0  0  0
   24.4991   -7.9446   -6.0366 H   0  0  0  0  0  0  0  0  0  0  0  0
   26.1561   -9.1624   -5.9170 H   0  0  0  0  0  0  0  0  0  0  0  0
   26.7672  -12.0127   -7.8552 C   0  0  0  0  0  0  0  0  0  0  0  0
   26.4551  -13.2530   -8.2614 O   0  0  0  0  0  0  0  0  0  0  0  0
   28.2039  -11.9065   -8.1448 C   0  0  0  0  0  0  0  0  0  0  0  0
   26.6190  -13.3320   -9.2142 H   0  0  0  0  0  0  0  0  0  0  0  0
   25.9606  -11.1092   -8.7116 C   0  0  0  0  0  0  0  0  0  0  0  0
   24.5429  -11.2266   -8.8822 C   0  0  0  0  0  0  0  0  0  0  0  0
   23.7581  -10.2606   -9.5252 C   0  0  0  0  0  0  0  0  0  0  0  0
   24.4317   -9.1596  -10.0880 C   0  0  0  0  0  0  0  0  0  0  0  0
   23.6873   -8.2312  -10.7743 O   0  0  0  0  0  0  0  0  0  0  0  0
   25.8610   -9.0593  -10.0288 C   0  0  0  0  0  0  0  0  0  0  0  0
   26.6089   -9.9556   -9.2383 C   0  0  0  0  0  0  0  0  0  0  0  0
   22.7540   -8.3089  -10.8049 H   0  0  0  0  0  0  0  0  0  0  0  0
 39 38  1  0  0  0
 38 37  2  0  0  0
 38 40  1  0  0  0
 37 36  1  0  0  0
 40 41  2  0  0  0
 36 35  2  0  0  0
 41 35  1  0  0  0
 32 31  1  0  0  0
 35 31  1  0  0  0
 33 31  1  0  0  0
 31 24  1  0  0  0
 24 27  1  0  0  0
 24  1  1  0  0  0
 27 28  2  0  0  0
 27 26  1  0  0  0
  1  2  1  0  0  0
 26 25  1  0  0  0
  2  3  2  0  0  0
  2  5  1  0  0  0
  6  5  2  0  0  0
  6  7  1  0  0  0
  5 10  1  0  0  0
  7  8  2  0  0  0
 10  9  2  0  0  0
  8  9  1  0  0  0
  8 11  1  0  0  0
 11 12  3  0  0  0
 12 13  1  0  0  0
 16 17  2  0  0  0
 16 15  1  0  0  0
 13 14  3  0  0  0
 17 18  1  0  0  0
 14 15  1  0  0  0
 15 21  2  0  0  0
 18 19  1  0  0  0
 18 20  2  0  0  0
 21 20  1  0  0  0
 25 29  1  0  0  0
 26 30  1  0  0  0
  1  4  1  0  0  0
 19 22  1  0  0  0
 19 23  1  0  0  0
 32 34  1  0  0  0
 39 42  1  0  0  0
M  END
> <minimizedAffinity>
-8.63904

$$$$
4LCH_1WN_A_304


 42 44  0  0  0  0  0  0  0  0999 V2000
   27.0227  -12.4113   -6.4413 N   0  0  0  0  0  0  0  0  0  0  0  0
   25.9250  -13.0976   -5.8155 C   0  0  0  0  0  0  0  0  0  0  0  0
   24.8369  -12.6353   -5.7162 O   0  0  0  0  0  0  0  0  0  0  0  0
   27.9281  -12.7909   -6.3680 H   0  0  0  0  0  0  0  0  0  0  0  0
   26.2381  -14.2969   -4.9745 C   0  0  0  0  0  0  0  0  0  0  0  0
   27.3442  -14.2893   -4.1660 C   0  0  0  0  0  0  0  0  0  0  0  0
   27.6751  -15.4266   -3.4145 C   0  0  0  0  0  0  0  0  0  0  0  0
   26.9846  -16.5963   -3.6712 C   0  0  0  0  0  0  0  0  0  0  0  0
   25.8202  -16.5861   -4.4235 C   0  0  0  0  0  0  0  0  0  0  0  0
   25.4832  -15.4491   -5.1650 C   0  0  0  0  0  0  0  0  0  0  0  0
   27.4169  -17.7528   -2.9158 C   0  0  0  0  0  0  0  0  0  0  0  0
   27.7841  -18.7148   -2.3224 C   0  0  0  0  0  0  0  0  0  0  0  0
   28.2672  -19.9158   -1.6421 C   0  0  0  0  0  0  0  0  0  0  0  0
   28.6122  -20.8567   -1.0686 C   0  0  0  0  0  0  0  0  0  0  0  0
   29.0113  -22.0162   -0.3262 C   0  0  0  0  0  0  0  0  0  0  0  0
   30.0899  -22.6976   -0.8992 C   0  0  0  0  0  0  0  0  0  0  0  0
   30.7532  -23.6996   -0.2157 C   0  0  0  0  0  0  0  0  0  0  0  0
   30.1740  -24.0633    1.0017 C   0  0  0  0  0  0  0  0  0  0  0  0
   30.7426  -25.1784    1.6701 N   0  0  0  0  0  0  0  0  0  0  0  0
   29.0561  -23.4234    1.5453 C   0  0  0  0  0  0  0  0  0  0  0  0
   28.5317  -22.3076    0.9297 C   0  0  0  0  0  0  0  0  0  0  0  0
   31.5299  -25.6313    1.2900 H   0  0  0  0  0  0  0  0  0  0  0  0
   30.3499  -25.4993    2.5139 H   0  0  0  0  0  0  0  0  0  0  0  0
   26.8331  -11.1685   -7.1815 C   0  0  0  0  0  0  0  0  0  0  0  0
   23.7793   -9.5462   -5.7365 O   0  0  0  0  0  0  0  0  0  0  0  0
   24.6244   -9.9826   -6.5809 N   0  0  0  0  0  0  0  0  0  0  0  0
   25.9985  -10.2626   -6.2639 C   0  0  0  0  0  0  0  0  0  0  0  0
   26.5019   -9.8154   -5.2839 O   0  0  0  0  0  0  0  0  0  0  0  0
   22.9192   -9.4307   -6.1699 H   0  0  0  0  0  0  0  0  0  0  0  0
   24.3203  -10.1374   -7.5043 H   0  0  0  0  0  0  0  0  0  0  0  0
   26.1805  -11.4597   -8.5014 C   0  0  0  0  0  0  0  0  0  0  0  0
   24.9672  -12.0119   -8.3478 O   0  0  0  0  0  0  0  0  0  0  0  0
   26.9428  -12.4949   -9.2131 C   0  0  0  0  0  0  0  0  0  0  0  0
   24.5782  -12.1852   -9.2193 H   0  0  0  0  0  0  0  0  0  0  0  0
   25.9567  -10.2587   -9.3428 C   0  0  0  0  0  0  0  0  0  0  0  0
   27.0046   -9.5464  -10.0114 C   0  0  0  0  0  0  0  0  0  0  0  0
   26.7745   -8.5415  -10.9599 C   0  0  0  0  0  0  0  0  0  0  0  0
   25.4344   -8.1811  -11.1984 C   0  0  0  0  0  0  0  0  0  0  0  0
   25.1900   -7.1571  -12.0810 O   0  0  0  0  0  0  0  0  0  0  0  0
   24.3631   -8.7987  -10.4723 C   0  0  0  0  0  0  0  0  0  0  0  0
   24.6084   -9.9153   -9.6473 C   0  0  0  0  0  0  0  0  0  0  0  0
   25.8995   -6.7625  -12.5488 H   0  0  0  0  0  0  0  0  0  0  0  0
 39 38  1  0  0  0
 38 37  2  0  0  0
 38 40  1  0  0  0
 37 36  1  0  0  0
 40 41  2  0  0  0
 36 35  2  0  0  0
 41 35  1  0  0  0
 32 31  1  0  0  0
 35 31  1  0  0  0
 33 31  1  0  0  0
 31 24  1  0  0  0
 24 27  1  0  0  0
 24  1  1  0  0  0
 27 28  2  0  0  0
 27 26  1  0  0  0
  1  2  1  0  0  0
 26 25  1  0  0  0
  2  3  2  0  0  0
  2  5  1  0  0  0
  6  5  2  0  0  0
  6  7  1  0  0  0
  5 10  1  0  0  0
  7  8  2  0  0  0
 10  9  2  0  0  0
  8  9  1  0  0  0
  8 11  1  0  0  0
 11 12  3  0  0  0
 12 13  1  0  0  0
 16 17  2  0  0  0
 16 15  1  0  0  0
 13 14  3  0  0  0
 17 18  1  0  0  0
 14 15  1  0  0  0
 15 21  2  0  0  0
 18 19  1  0  0  0
 18 20  2  0  0  0
 21 20  1  0  0  0
 25 29  1  0  0  0
 26 30  1  0  0  0
  1  4  1  0  0  0
 19 22  1  0  0  0
 19 23  1  0  0  0
 32 34  1  0  0  0
 39 42  1  0  0  0
M  END
> <minimizedAffinity>
-8.60508

$$$$
4LCH_1WN_A_304


 42 44  0  0  0  0  0  0  0  0999 V2000
   27.3697  -14.9247   -5.4902 N   0  0  0  0  0  0  0  0  0  0  0  0
   26.3452  -15.5224   -4.6775 C   0  0  0  0  0  0  0  0  0  0  0  0
   25.2950  -15.0111   -4.4696 O   0  0  0  0  0  0  0  0  0  0  0  0
   28.2646  -15.3346   -5.5095 H   0  0  0  0  0  0  0  0  0  0  0  0
   26.7310  -16.6738   -3.8004 C   0  0  0  0  0  0  0  0  0  0  0  0
   27.7826  -16.5432   -2.9320 C   0  0  0  0  0  0  0  0  0  0  0  0
   28.1850  -17.6319   -2.1443 C   0  0  0  0  0  0  0  0  0  0  0  0
   27.6336  -18.8695   -2.4194 C   0  0  0  0  0  0  0  0  0  0  0  0
   26.5191  -18.9877   -3.2352 C   0  0  0  0  0  0  0  0  0  0  0  0
   26.1102  -17.8997   -4.0132 C   0  0  0  0  0  0  0  0  0  0  0  0
   28.1383  -19.9669   -1.6219 C   0  0  0  0  0  0  0  0  0  0  0  0
   28.5540  -20.8859   -0.9935 C   0  0  0  0  0  0  0  0  0  0  0  0
   29.0765  -22.0463   -0.2729 C   0  0  0  0  0  0  0  0  0  0  0  0
   29.5251  -22.9316    0.3171 C   0  0  0  0  0  0  0  0  0  0  0  0
   30.1124  -24.0043    1.0650 C   0  0  0  0  0  0  0  0  0  0  0  0
   31.2201  -24.5792    0.4338 C   0  0  0  0  0  0  0  0  0  0  0  0
   32.0459  -25.4673    1.0974 C   0  0  0  0  0  0  0  0  0  0  0  0
   31.6042  -25.8439    2.3673 C   0  0  0  0  0  0  0  0  0  0  0  0
   32.3488  -26.8560    3.0269 N   0  0  0  0  0  0  0  0  0  0  0  0
   30.4604  -25.3160    2.9737 C   0  0  0  0  0  0  0  0  0  0  0  0
   29.7634  -24.2959    2.3633 C   0  0  0  0  0  0  0  0  0  0  0  0
   33.1547  -27.2298    2.6027 H   0  0  0  0  0  0  0  0  0  0  0  0
   32.0594  -27.1843    3.9088 H   0  0  0  0  0  0  0  0  0  0  0  0
   27.1211  -13.7282   -6.2871 C   0  0  0  0  0  0  0  0  0  0  0  0
   28.0496  -13.1927   -9.8783 O   0  0  0  0  0  0  0  0  0  0  0  0
   27.3521  -13.3346   -8.8242 N   0  0  0  0  0  0  0  0  0  0  0  0
   27.8345  -13.9664   -7.6264 C   0  0  0  0  0  0  0  0  0  0  0  0
   28.7972  -14.6639   -7.6497 O   0  0  0  0  0  0  0  0  0  0  0  0
   27.5228  -12.7414  -10.5563 H   0  0  0  0  0  0  0  0  0  0  0  0
   26.4291  -12.9921   -8.8289 H   0  0  0  0  0  0  0  0  0  0  0  0
   27.6094  -12.5168   -5.5477 C   0  0  0  0  0  0  0  0  0  0  0  0
   28.6805  -11.9676   -6.1408 O   0  0  0  0  0  0  0  0  0  0  0  0
   28.1129  -12.9132   -4.2254 C   0  0  0  0  0  0  0  0  0  0  0  0
   28.9663  -11.1901   -5.6361 H   0  0  0  0  0  0  0  0  0  0  0  0
   26.6125  -11.4222   -5.4563 C   0  0  0  0  0  0  0  0  0  0  0  0
   25.2313  -11.5693   -5.8077 C   0  0  0  0  0  0  0  0  0  0  0  0
   24.2557  -10.6021   -5.5338 C   0  0  0  0  0  0  0  0  0  0  0  0
   24.6935   -9.3998   -4.9460 C   0  0  0  0  0  0  0  0  0  0  0  0
   23.7620   -8.4149   -4.7238 O   0  0  0  0  0  0  0  0  0  0  0  0
   26.0834   -9.1734   -4.6751 C   0  0  0  0  0  0  0  0  0  0  0  0
   27.0179  -10.2206   -4.8080 C   0  0  0  0  0  0  0  0  0  0  0  0
   22.8570   -8.5764   -4.9052 H   0  0  0  0  0  0  0  0  0  0  0  0
 39 38  1  0  0  0
 38 37  2  0  0  0
 38 40  1  0  0  0
 37 36  1  0  0  0
 40 41  2  0  0  0
 36 35  2  0  0  0
 41 35  1  0  0  0
 32 31  1  0  0  0
 35 31  1  0  0  0
 33 31  1  0  0  0
 31 24  1  0  0  0
 24 27  1  0  0  0
 24  1  1  0  0  0
 27 28  2  0  0  0
 27 26  1  0  0  0
  1  2  1  0  0  0
 26 25  1  0  0  0
  2  3  2  0  0  0
  2  5  1  0  0  0
  6  5  2  0  0  0
  6  7  1  0  0  0
  5 10  1  0  0  0
  7  8  2  0  0  0
 10  9  2  0  0  0
  8  9  1  0  0  0
  8 11  1  0  0  0
 11 12  3  0  0  0
 12 13  1  0  0  0
 16 17  2  0  0  0
 16 15  1  0  0  0
 13 14  3  0  0  0
 17 18  1  0  0  0
 14 15  1  0  0  0
 15 21  2  0  0  0
 18 19  1  0  0  0
 18 20  2  0  0  0
 21 20  1  0  0  0
 25 29  1  0  0  0
 26 30  1  0  0  0
  1  4  1  0  0  0
 19 22  1  0  0  0
 19 23  1  0  0  0
 32 34  1  0  0  0
 39 42  1  0  0  0
M  END
> <minimizedAffinity>
-8.37728

$$$$
