1VFN_HPA_A_300


 12 13  0  0  0  0  0  0  0  0999 V2000
   74.8634   49.2459   49.6065 N   0  0  0  0  0  0  0  0  0  0  0  0
   75.6621   48.1086   49.6864 C   0  0  0  0  0  0  0  0  0  0  0  0
   75.2201   46.8799   50.0162 N   0  0  0  0  0  0  0  0  0  0  0  0
   73.8832   46.8743   50.2156 C   0  0  0  0  0  0  0  0  0  0  0  0
   73.0084   47.9625   50.2091 C   0  0  0  0  0  0  0  0  0  0  0  0
   73.4899   49.2672   49.9134 C   0  0  0  0  0  0  0  0  0  0  0  0
   72.8530   50.3249   49.8329 O   0  0  0  0  0  0  0  0  0  0  0  0
   71.7043   47.5438   50.5287 N   0  0  0  0  0  0  0  0  0  0  0  0
   71.8343   46.2590   50.7167 C   0  0  0  0  0  0  0  0  0  0  0  0
   73.1334   45.7712   50.5506 N   0  0  0  0  0  0  0  0  0  0  0  0
   75.2853   50.0872   49.3175 H   0  0  0  0  0  0  0  0  0  0  0  0
   70.8879   48.0900   50.5948 H   0  0  0  0  0  0  0  0  0  0  0  0
  1  2  1  0  0  0
  1  6  1  0  0  0
  2  3  2  0  0  0
  3  4  1  0  0  0
  4  5  2  0  0  0
  4 10  1  0  0  0
  5  6  1  0  0  0
  5  8  1  0  0  0
  6  7  2  0  0  0
  8  9  1  0  0  0
  9 10  2  0  0  0
  1 11  1  0  0  0
  8 12  1  0  0  0
M  END
> <minimizedAffinity>
-5.86384

$$$$
1VFN_HPA_A_300


 12 13  0  0  0  0  0  0  0  0999 V2000
   73.1463   44.8701   50.6329 N   0  0  0  0  0  0  0  0  0  0  0  0
   71.8931   45.3752   50.9677 C   0  0  0  0  0  0  0  0  0  0  0  0
   71.5315   46.6683   50.8621 N   0  0  0  0  0  0  0  0  0  0  0  0
   72.5281   47.4174   50.3401 C   0  0  0  0  0  0  0  0  0  0  0  0
   73.8278   47.0181   50.0219 C   0  0  0  0  0  0  0  0  0  0  0  0
   74.2211   45.6617   50.1866 C   0  0  0  0  0  0  0  0  0  0  0  0
   75.3106   45.1370   49.9246 O   0  0  0  0  0  0  0  0  0  0  0  0
   74.5791   48.1161   49.5660 N   0  0  0  0  0  0  0  0  0  0  0  0
   73.7354   49.1097   49.6283 C   0  0  0  0  0  0  0  0  0  0  0  0
   72.4632   48.7692   50.0960 N   0  0  0  0  0  0  0  0  0  0  0  0
   73.2896   43.8995   50.7133 H   0  0  0  0  0  0  0  0  0  0  0  0
   75.5180   48.1314   49.2703 H   0  0  0  0  0  0  0  0  0  0  0  0
  1  2  1  0  0  0
  1  6  1  0  0  0
  2  3  2  0  0  0
  3  4  1  0  0  0
  4  5  2  0  0  0
  4 10  1  0  0  0
  5  6  1  0  0  0
  5  8  1  0  0  0
  6  7  2  0  0  0
  8  9  1  0  0  0
  9 10  2  0  0  0
  1 11  1  0  0  0
  8 12  1  0  0  0
M  END
> <minimizedAffinity>
-5.71054

$$$$
1VFN_HPA_A_300


 12 13  0  0  0  0  0  0  0  0999 V2000
   71.9529   48.2404   50.4876 N   0  0  0  0  0  0  0  0  0  0  0  0
   72.1673   46.8722   50.6278 C   0  0  0  0  0  0  0  0  0  0  0  0
   73.3475   46.2542   50.4305 N   0  0  0  0  0  0  0  0  0  0  0  0
   74.3217   47.1393   50.1232 C   0  0  0  0  0  0  0  0  0  0  0  0
   74.1988   48.5139   49.9106 C   0  0  0  0  0  0  0  0  0  0  0  0
   72.9385   49.1532   50.0674 C   0  0  0  0  0  0  0  0  0  0  0  0
   72.6627   50.3538   49.9519 O   0  0  0  0  0  0  0  0  0  0  0  0
   75.4393   49.0650   49.5428 N   0  0  0  0  0  0  0  0  0  0  0  0
   76.2415   48.0356   49.5406 C   0  0  0  0  0  0  0  0  0  0  0  0
   75.6371   46.8215   49.8781 N   0  0  0  0  0  0  0  0  0  0  0  0
   71.0568   48.5912   50.6951 H   0  0  0  0  0  0  0  0  0  0  0  0
   75.6520   50.0037   49.3363 H   0  0  0  0  0  0  0  0  0  0  0  0
  1  2  1  0  0  0
  1  6  1  0  0  0
  2  3  2  0  0  0
  3  4  1  0  0  0
  4  5  2  0  0  0
  4 10  1  0  0  0
  5  6  1  0  0  0
  5  8  1  0  0  0
  6  7  2  0  0  0
  8  9  1  0  0  0
  9 10  2  0  0  0
  1 11  1  0  0  0
  8 12  1  0  0  0
M  END
> <minimizedAffinity>
-5.68259

$$$$
1VFN_HPA_A_300


 12 13  0  0  0  0  0  0  0  0999 V2000
   74.9645   47.6077   49.7130 N   0  0  0  0  0  0  0  0  0  0  0  0
   73.9697   48.5811   49.6874 C   0  0  0  0  0  0  0  0  0  0  0  0
   72.6815   48.3733   50.0209 N   0  0  0  0  0  0  0  0  0  0  0  0
   72.4785   47.1027   50.4346 C   0  0  0  0  0  0  0  0  0  0  0  0
   73.3918   46.0466   50.4484 C   0  0  0  0  0  0  0  0  0  0  0  0
   74.7382   46.2584   50.0435 C   0  0  0  0  0  0  0  0  0  0  0  0
   75.6751   45.4505   50.0267 O   0  0  0  0  0  0  0  0  0  0  0  0
   72.7675   44.8655   50.8879 N   0  0  0  0  0  0  0  0  0  0  0  0
   71.5365   45.2365   51.1116 C   0  0  0  0  0  0  0  0  0  0  0  0
   71.2754   46.5851   50.8541 N   0  0  0  0  0  0  0  0  0  0  0  0
   75.8830   47.8799   49.4858 H   0  0  0  0  0  0  0  0  0  0  0  0
   73.1646   43.9716   51.0002 H   0  0  0  0  0  0  0  0  0  0  0  0
  1  2  1  0  0  0
  1  6  1  0  0  0
  2  3  2  0  0  0
  3  4  1  0  0  0
  4  5  2  0  0  0
  4 10  1  0  0  0
  5  6  1  0  0  0
  5  8  1  0  0  0
  6  7  2  0  0  0
  8  9  1  0  0  0
  9 10  2  0  0  0
  1 11  1  0  0  0
  8 12  1  0  0  0
M  END
> <minimizedAffinity>
-5.55682

$$$$
1VFN_HPA_A_300


 12 13  0  0  0  0  0  0  0  0999 V2000
   71.6198   47.5233   50.5523 N   0  0  0  0  0  0  0  0  0  0  0  0
   72.6200   48.4666   50.3341 C   0  0  0  0  0  0  0  0  0  0  0  0
   73.9282   48.1812   50.1893 N   0  0  0  0  0  0  0  0  0  0  0  0
   74.1495   46.8486   50.2335 C   0  0  0  0  0  0  0  0  0  0  0  0
   73.2288   45.8323   50.4962 C   0  0  0  0  0  0  0  0  0  0  0  0
   71.8570   46.1440   50.7025 C   0  0  0  0  0  0  0  0  0  0  0  0
   70.9130   45.3717   50.9107 O   0  0  0  0  0  0  0  0  0  0  0  0
   73.8731   44.5824   50.5197 N   0  0  0  0  0  0  0  0  0  0  0  0
   75.1219   44.8787   50.2835 C   0  0  0  0  0  0  0  0  0  0  0  0
   75.3764   46.2410   50.1029 N   0  0  0  0  0  0  0  0  0  0  0  0
   70.6893   47.8404   50.6048 H   0  0  0  0  0  0  0  0  0  0  0  0
   73.4765   43.6951   50.6768 H   0  0  0  0  0  0  0  0  0  0  0  0
  1  2  1  0  0  0
  1  6  1  0  0  0
  2  3  2  0  0  0
  3  4  1  0  0  0
  4  5  2  0  0  0
  4 10  1  0  0  0
  5  6  1  0  0  0
  5  8  1  0  0  0
  6  7  2  0  0  0
  8  9  1  0  0  0
  9 10  2  0  0  0
  1 11  1  0  0  0
  8 12  1  0  0  0
M  END
> <minimizedAffinity>
-5.55136

$$$$
1VFN_HPA_A_300


 12 13  0  0  0  0  0  0  0  0999 V2000
   73.3298   44.8350   50.5907 N   0  0  0  0  0  0  0  0  0  0  0  0
   74.6485   45.1316   50.2579 C   0  0  0  0  0  0  0  0  0  0  0  0
   75.1146   46.3658   49.9869 N   0  0  0  0  0  0  0  0  0  0  0  0
   74.1470   47.2992   50.1258 C   0  0  0  0  0  0  0  0  0  0  0  0
   72.7933   47.0997   50.4039 C   0  0  0  0  0  0  0  0  0  0  0  0
   72.2952   45.7883   50.6359 C   0  0  0  0  0  0  0  0  0  0  0  0
   71.1437   45.4402   50.9250 O   0  0  0  0  0  0  0  0  0  0  0  0
   72.1064   48.3269   50.3975 N   0  0  0  0  0  0  0  0  0  0  0  0
   73.0387   49.1965   50.1189 C   0  0  0  0  0  0  0  0  0  0  0  0
   74.3117   48.6508   49.9324 N   0  0  0  0  0  0  0  0  0  0  0  0
   73.1071   43.9010   50.8078 H   0  0  0  0  0  0  0  0  0  0  0  0
   71.1500   48.4909   50.5636 H   0  0  0  0  0  0  0  0  0  0  0  0
  1  2  1  0  0  0
  1  6  1  0  0  0
  2  3  2  0  0  0
  3  4  1  0  0  0
  4  5  2  0  0  0
  4 10  1  0  0  0
  5  6  1  0  0  0
  5  8  1  0  0  0
  6  7  2  0  0  0
  8  9  1  0  0  0
  9 10  2  0  0  0
  1 11  1  0  0  0
  8 12  1  0  0  0
M  END
> <minimizedAffinity>
-5.54067

$$$$
1VFN_HPA_A_300


 12 13  0  0  0  0  0  0  0  0999 V2000
   70.8147   47.1576   52.0874 N   0  0  0  0  0  0  0  0  0  0  0  0
   70.4160   46.3887   53.1771 C   0  0  0  0  0  0  0  0  0  0  0  0
   70.8866   45.1601   53.4650 N   0  0  0  0  0  0  0  0  0  0  0  0
   71.8393   44.7789   52.5853 C   0  0  0  0  0  0  0  0  0  0  0  0
   72.2699   45.4507   51.4394 C   0  0  0  0  0  0  0  0  0  0  0  0
   71.7302   46.7241   51.1101 C   0  0  0  0  0  0  0  0  0  0  0  0
   72.0203   47.4632   50.1612 O   0  0  0  0  0  0  0  0  0  0  0  0
   73.2315   44.6852   50.7558 N   0  0  0  0  0  0  0  0  0  0  0  0
   73.3404   43.6094   51.4865 C   0  0  0  0  0  0  0  0  0  0  0  0
   72.5207   43.5847   52.6181 N   0  0  0  0  0  0  0  0  0  0  0  0
   70.4328   48.0603   51.9946 H   0  0  0  0  0  0  0  0  0  0  0  0
   73.7089   44.9078   49.9240 H   0  0  0  0  0  0  0  0  0  0  0  0
  1  2  1  0  0  0
  1  6  1  0  0  0
  2  3  2  0  0  0
  3  4  1  0  0  0
  4  5  2  0  0  0
  4 10  1  0  0  0
  5  6  1  0  0  0
  5  8  1  0  0  0
  6  7  2  0  0  0
  8  9  1  0  0  0
  9 10  2  0  0  0
  1 11  1  0  0  0
  8 12  1  0  0  0
M  END
> <minimizedAffinity>
-5.52576

$$$$
1VFN_HPA_A_300


 12 13  0  0  0  0  0  0  0  0999 V2000
   73.2587   44.8494   50.5926 N   0  0  0  0  0  0  0  0  0  0  0  0
   73.0869   43.8530   51.5492 C   0  0  0  0  0  0  0  0  0  0  0  0
   72.2638   43.9403   52.6117 N   0  0  0  0  0  0  0  0  0  0  0  0
   71.5804   45.1064   52.6108 C   0  0  0  0  0  0  0  0  0  0  0  0
   71.7173   46.1826   51.7318 C   0  0  0  0  0  0  0  0  0  0  0  0
   72.6278   46.1067   50.6425 C   0  0  0  0  0  0  0  0  0  0  0  0
   72.8466   46.9456   49.7597 O   0  0  0  0  0  0  0  0  0  0  0  0
   70.8690   47.2373   52.1139 N   0  0  0  0  0  0  0  0  0  0  0  0
   70.2726   46.7779   53.1799 C   0  0  0  0  0  0  0  0  0  0  0  0
   70.6545   45.4866   53.5539 N   0  0  0  0  0  0  0  0  0  0  0  0
   73.8585   44.6633   49.8343 H   0  0  0  0  0  0  0  0  0  0  0  0
   70.7528   48.1136   51.6804 H   0  0  0  0  0  0  0  0  0  0  0  0
  1  2  1  0  0  0
  1  6  1  0  0  0
  2  3  2  0  0  0
  3  4  1  0  0  0
  4  5  2  0  0  0
  4 10  1  0  0  0
  5  6  1  0  0  0
  5  8  1  0  0  0
  6  7  2  0  0  0
  8  9  1  0  0  0
  9 10  2  0  0  0
  1 11  1  0  0  0
  8 12  1  0  0  0
M  END
> <minimizedAffinity>
-5.40372

$$$$
1VFN_HPA_A_300


 12 13  0  0  0  0  0  0  0  0999 V2000
   71.5432   47.3212   51.5121 N   0  0  0  0  0  0  0  0  0  0  0  0
   71.9721   46.2431   50.7430 C   0  0  0  0  0  0  0  0  0  0  0  0
   71.9596   44.9579   51.1453 N   0  0  0  0  0  0  0  0  0  0  0  0
   71.4292   44.8341   52.3824 C   0  0  0  0  0  0  0  0  0  0  0  0
   71.0204   45.8503   53.2483 C   0  0  0  0  0  0  0  0  0  0  0  0
   71.0864   47.2102   52.8388 C   0  0  0  0  0  0  0  0  0  0  0  0
   70.7376   48.2212   53.4610 O   0  0  0  0  0  0  0  0  0  0  0  0
   70.5888   45.3066   54.4715 N   0  0  0  0  0  0  0  0  0  0  0  0
   70.7522   44.0221   54.3086 C   0  0  0  0  0  0  0  0  0  0  0  0
   71.2664   43.6504   53.0634 N   0  0  0  0  0  0  0  0  0  0  0  0
   71.5603   48.2164   51.1028 H   0  0  0  0  0  0  0  0  0  0  0  0
   70.2451   45.7818   55.2622 H   0  0  0  0  0  0  0  0  0  0  0  0
  1  2  1  0  0  0
  1  6  1  0  0  0
  2  3  2  0  0  0
  3  4  1  0  0  0
  4  5  2  0  0  0
  4 10  1  0  0  0
  5  6  1  0  0  0
  5  8  1  0  0  0
  6  7  2  0  0  0
  8  9  1  0  0  0
  9 10  2  0  0  0
  1 11  1  0  0  0
  8 12  1  0  0  0
M  END
> <minimizedAffinity>
-5.31300

$$$$
1VFN_HPA_A_300


 12 13  0  0  0  0  0  0  0  0999 V2000
   73.2478   47.1436   50.0178 N   0  0  0  0  0  0  0  0  0  0  0  0
   73.3125   45.7692   50.2286 C   0  0  0  0  0  0  0  0  0  0  0  0
   72.6236   45.1027   51.1747 N   0  0  0  0  0  0  0  0  0  0  0  0
   71.8155   45.9321   51.8717 C   0  0  0  0  0  0  0  0  0  0  0  0
   71.7168   47.3214   51.7716 C   0  0  0  0  0  0  0  0  0  0  0  0
   72.4872   48.0267   50.8070 C   0  0  0  0  0  0  0  0  0  0  0  0
   72.4962   49.2398   50.5639 O   0  0  0  0  0  0  0  0  0  0  0  0
   70.8067   47.8170   52.7225 N   0  0  0  0  0  0  0  0  0  0  0  0
   70.4047   46.7443   53.3476 C   0  0  0  0  0  0  0  0  0  0  0  0
   70.9766   45.5528   52.8933 N   0  0  0  0  0  0  0  0  0  0  0  0
   73.7659   47.5212   49.2707 H   0  0  0  0  0  0  0  0  0  0  0  0
   70.5372   48.7508   52.8792 H   0  0  0  0  0  0  0  0  0  0  0  0
  1  2  1  0  0  0
  1  6  1  0  0  0
  2  3  2  0  0  0
  3  4  1  0  0  0
  4  5  2  0  0  0
  4 10  1  0  0  0
  5  6  1  0  0  0
  5  8  1  0  0  0
  6  7  2  0  0  0
  8  9  1  0  0  0
  9 10  2  0  0  0
  1 11  1  0  0  0
  8 12  1  0  0  0
M  END
> <minimizedAffinity>
-5.26386

$$$$
