4Z0Q_4K9_A_1002
  RCSB PDB12061716323D
Coordinates from PDB:4Z0Q:A:1002 Model:1 without hydrogens
 22 24  0  0  0  0            999 V2000
   19.1520    9.7130   14.5320   C 0  0  0  0  0  0  0  0  0  0  0  0
   21.4080   10.0200   12.7930   C 0  0  0  0  0  0  0  0  0  0  0  0
   20.5860    8.8590   12.7510   C 0  0  0  0  0  0  0  0  0  0  0  0
   17.4990    7.4720   14.0050   C 0  0  0  0  0  0  0  0  0  0  0  0
   16.9040    6.2550   14.6850   C 0  0  0  0  0  0  0  0  0  0  0  0
   19.9710   10.8280   14.5360   C 0  0  0  0  0  0  0  0  0  0  0  0
   19.4880    8.7460   13.6070   C 0  0  0  0  0  0  0  0  0  0  0  0
   19.5610    6.4170   13.5840   C 0  0  0  0  0  0  0  0  0  0  0  0
   20.7050    6.4450   12.5860   C 0  0  0  0  0  0  0  0  0  0  0  0
   20.9030    7.7210   11.8120   C 0  0  0  0  0  0  0  0  0  0  0  0
   13.6140    2.7020   16.6840   O 0  0  0  0  0  0  0  0  0  0  0  0
   15.0610    2.6650   16.7920   S 0  0  0  0  0  0  0  0  0  0  0  0
   15.6330    2.7730   18.1090   O 0  0  0  0  0  0  0  0  0  0  0  0
   15.5900    1.3320   16.1570   N 0  0  0  0  0  0  0  0  0  0  0  0
   15.7080    4.0370   15.9230   C 0  0  0  0  0  0  0  0  0  0  0  0
   17.0820    4.1200   15.7290   C 0  0  0  0  0  0  0  0  0  0  0  0
   17.6630    5.2060   15.1320   C 0  0  0  0  0  0  0  0  0  0  0  0
   14.8860    5.1090   15.4870   C 0  0  0  0  0  0  0  0  0  0  0  0
   15.5370    6.2060   14.8150   C 0  0  0  0  0  0  0  0  0  0  0  0
   16.7600    8.3850   13.7460   O 0  0  0  0  0  0  0  0  0  0  0  0
   18.7130    7.5380   13.5460   N 0  0  0  0  0  0  0  0  0  0  0  0
   21.0460   10.9590   13.7140   C 0  0  0  0  0  0  0  0  0  0  0  0
 10  9  1  0  0  0  0
 10  3  1  0  0  0  0
  9  8  1  0  0  0  0
  3  2  2  0  0  0  0
  3  7  1  0  0  0  0
  2 22  1  0  0  0  0
 21  8  1  0  0  0  0
 21  7  1  0  0  0  0
 21  4  1  0  0  0  0
  7  1  2  0  0  0  0
 22  6  2  0  0  0  0
 20  4  2  0  0  0  0
  4  5  1  0  0  0  0
  1  6  1  0  0  0  0
  5 19  2  0  0  0  0
  5 17  1  0  0  0  0
 19 18  1  0  0  0  0
 17 16  2  0  0  0  0
 18 15  2  0  0  0  0
 16 15  1  0  0  0  0
 15 12  1  0  0  0  0
 14 12  1  0  0  0  0
 11 12  2  0  0  0  0
 12 13  2  0  0  0  0
A    1
C2
A    2
C3
A    3
C4
A    4
C9
A    5
C10
A    6
C1
A    7
C5
A    8
C6
A    9
C7
A   10
C8
A   11
O2
A   12
S
A   13
O1
A   14
N1
A   15
C13
A   16
C12
A   17
C11
A   18
C14
A   19
C15
A   20
O
A   21
N
A   22
C
M  END
>  <InstanceId>
4Z0Q_4K9_A_1002

>  <ChemCompId>
4K9

>  <PdbId>
4Z0Q

>  <ChainId>
A

>  <ResidueNumber>
1002

>  <InsertionCode>


>  <Model>
1

>  <AltIds>


>  <MissingHeavyAtoms>
0

>  <ObservedFormula>
C16 N2 O3 S

>  <Name>
4-(3,4-dihydroquinolin-1(2H)-ylcarbonyl)benzenesulfonamide

>  <SystematicName>
4-(3,4-dihydro-2H-quinolin-1-ylcarbonyl)benzenesulfonamide

>  <Synonyms>


>  <Type>
NON-POLYMER

>  <Formula>
C16 H16 N2 O3 S

>  <MolecularWeight>
316.375

>  <ModifiedDate>
2015-08-21

>  <Parent>


>  <OneLetterCode>


>  <SubcomponentList>


>  <AmbiguousFlag>
N

>  <InChI>
InChI=1S/C16H16N2O3S/c17-22(20,21)14-9-7-13(8-10-14)16(19)18-11-3-5-12-4-1-2-6-15(12)18/h1-2,4,6-10H,3,5,11H2,(H2,17,20,21)

>  <InChIKey>
UVLCSZMJFKEEJN-UHFFFAOYSA-N

>  <SMILES>
c1ccc2c(c1)CCCN2C(=O)c3ccc(cc3)S(=O)(=O)N

$$$$
