3DBU_D8W_A_301
  RCSB PDB12061708183D
Coordinates from PDB:3DBU:A:301 Model:1 without hydrogens
 19 20  0  0  0  0            999 V2000
   -3.7420    7.3070   14.8980   C 0  0  0  0  0  0  0  0  0  0  0  0
   -2.6920    8.1510   15.2590   C 0  0  0  0  0  0  0  0  0  0  0  0
   -1.8840    8.6900   14.2660   C 0  0  0  0  0  0  0  0  0  0  0  0
   -2.1030    8.4210   12.9200   C 0  0  0  0  0  0  0  0  0  0  0  0
   -3.1460    7.5680   12.5600   C 0  0  0  0  0  0  0  0  0  0  0  0
   -3.9410    7.0250   13.5560   C 0  0  0  0  0  0  0  0  0  0  0  0
   -5.1670    6.0530   13.1690   S 0  0  0  0  0  0  0  0  0  0  0  0
   -6.1580    6.2660   14.2320   O 0  0  0  0  0  0  0  0  0  0  0  0
   -5.7080    6.4880   11.8610   O 0  0  0  0  0  0  0  0  0  0  0  0
   -4.5820    4.6730   13.0350   N 0  0  0  0  0  0  0  0  0  0  0  0
   -4.5930    3.6580   13.9330   C 0  0  0  0  0  0  0  0  0  0  0  0
   -5.8540    3.4340   15.0680   S 0  0  0  0  0  0  0  0  0  0  0  0
   -3.6410    2.6990   14.0260   N 0  0  0  0  0  0  0  0  0  0  0  0
   -3.9230    1.7500   15.0500   N 0  0  0  0  0  0  0  0  0  0  0  0
   -5.0860    2.0190   15.6820   C 0  0  0  0  0  0  0  0  0  0  0  0
   -5.8550    0.9830   16.7270   S 0  0  0  0  0  0  0  0  0  0  0  0
   -5.2900    1.2210   18.0210   O 0  0  0  0  0  0  0  0  0  0  0  0
   -7.2460    1.2080   16.6850   O 0  0  0  0  0  0  0  0  0  0  0  0
   -5.5030   -0.5170   16.2880   N 0  0  0  0  0  0  0  0  0  0  0  0
  1  2  2  0  0  0  0
  1  6  1  0  0  0  0
  2  3  1  0  0  0  0
  3  4  2  0  0  0  0
  4  5  1  0  0  0  0
  5  6  2  0  0  0  0
  6  7  1  0  0  0  0
  7  8  2  0  0  0  0
  7  9  2  0  0  0  0
  7 10  1  0  0  0  0
 10 11  1  0  0  0  0
 11 12  1  0  0  0  0
 11 13  2  0  0  0  0
 12 15  1  0  0  0  0
 13 14  1  0  0  0  0
 14 15  2  0  0  0  0
 15 16  1  0  0  0  0
 16 17  2  0  0  0  0
 16 18  2  0  0  0  0
 16 19  1  0  0  0  0
A    1
C1
A    2
C2
A    3
C3
A    4
C4
A    5
C5
A    6
C6
A    7
S1
A    8
O1
A    9
O2
A   10
N1
A   11
C7
A   12
S2
A   13
N2
A   14
N3
A   15
C8
A   16
S3
A   17
O3
A   18
O4
A   19
N4
M  END
>  <InstanceId>
3DBU_D8W_A_301

>  <ChemCompId>
D8W

>  <PdbId>
3DBU

>  <ChainId>
A

>  <ResidueNumber>
301

>  <InsertionCode>


>  <Model>
1

>  <AltIds>


>  <MissingHeavyAtoms>
0

>  <ObservedFormula>
C8 N4 O4 S3

>  <Name>
5-[(phenylsulfonyl)amino]-1,3,4-thiadiazole-2-sulfonamide

>  <SystematicName>
5-(phenylsulfonylamino)-1,3,4-thiadiazole-2-sulfonamide

>  <Synonyms>


>  <Type>
NON-POLYMER

>  <Formula>
C8 H8 N4 O4 S3

>  <MolecularWeight>
320.369

>  <ModifiedDate>
2011-06-04

>  <Parent>


>  <OneLetterCode>


>  <SubcomponentList>


>  <AmbiguousFlag>
N

>  <InChI>
InChI=1S/C8H8N4O4S3/c9-18(13,14)8-11-10-7(17-8)12-19(15,16)6-4-2-1-3-5-6/h1-5H,(H,10,12)(H2,9,13,14)

>  <InChIKey>
PWDGTQXZLNDOKS-UHFFFAOYSA-N

>  <SMILES>
c1ccc(cc1)S(=O)(=O)Nc2nnc(s2)S(=O)(=O)N

$$$$
