4H7Q_COI_A_402


 10  9  0  0  0  0  0  0  0  0999 V2000
   -9.7895  -32.6799   16.4369 C   0  0  0  0  0  0  0  0  0  0  0  0
  -10.9640  -32.6721   16.1735 O   0  0  0  0  0  0  0  0  0  0  0  0
   -8.7902  -32.4261   15.3822 C   0  0  0  0  0  0  0  0  0  0  0  0
   -7.7111  -33.0664   15.3330 O   0  0  0  0  0  0  0  0  0  0  0  0
   -9.0478  -31.5264   14.5341 O   0  0  0  0  0  0  0  0  0  0  0  0
   -9.8565  -31.0556   14.5816 H   0  0  0  0  0  0  0  0  0  0  0  0
   -9.2744  -32.9408   17.8404 C   0  0  0  0  0  0  0  0  0  0  0  0
  -10.0580  -32.4254   19.0507 C   0  0  0  0  0  0  0  0  0  0  0  0
   -9.7863  -33.1096   20.2957 C   0  0  0  0  0  0  0  0  0  0  0  0
  -10.1162  -30.9483   19.1527 C   0  0  0  0  0  0  0  0  0  0  0  0
  3  4  2  0  0  0
  3  5  1  0  0  0
  3  1  1  0  0  0
  1  2  2  0  0  0
  1  7  1  0  0  0
  7  8  1  0  0  0
  8  9  1  0  0  0
  8 10  1  0  0  0
  5  6  1  0  0  0
M  END
> <minimizedAffinity>
-5.50967

$$$$
4H7Q_COI_A_402


 10  9  0  0  0  0  0  0  0  0999 V2000
   -9.5839  -32.9241   16.5957 C   0  0  0  0  0  0  0  0  0  0  0  0
  -10.7665  -33.1118   16.4732 O   0  0  0  0  0  0  0  0  0  0  0  0
   -8.7882  -32.4314   15.4558 C   0  0  0  0  0  0  0  0  0  0  0  0
   -7.6552  -32.9049   15.1930 O   0  0  0  0  0  0  0  0  0  0  0  0
   -9.2778  -31.5000   14.7574 O   0  0  0  0  0  0  0  0  0  0  0  0
  -10.1243  -31.1551   14.9637 H   0  0  0  0  0  0  0  0  0  0  0  0
   -8.8541  -33.1724   17.9030 C   0  0  0  0  0  0  0  0  0  0  0  0
   -9.2474  -32.3899   19.1590 C   0  0  0  0  0  0  0  0  0  0  0  0
   -9.9467  -31.1476   18.9155 C   0  0  0  0  0  0  0  0  0  0  0  0
   -9.8212  -33.2250   20.2402 C   0  0  0  0  0  0  0  0  0  0  0  0
  3  4  2  0  0  0
  3  5  1  0  0  0
  3  1  1  0  0  0
  1  2  2  0  0  0
  1  7  1  0  0  0
  7  8  1  0  0  0
  8  9  1  0  0  0
  8 10  1  0  0  0
  5  6  1  0  0  0
M  END
> <minimizedAffinity>
-5.49205

$$$$
4H7Q_COI_A_402


 10  9  0  0  0  0  0  0  0  0999 V2000
   -8.6175  -32.3138   15.3678 C   0  0  0  0  0  0  0  0  0  0  0  0
   -7.7322  -33.1254   15.2887 O   0  0  0  0  0  0  0  0  0  0  0  0
   -8.6692  -31.1773   14.4291 C   0  0  0  0  0  0  0  0  0  0  0  0
   -8.8415  -30.0006   14.8322 O   0  0  0  0  0  0  0  0  0  0  0  0
   -8.5510  -31.4282   13.1969 O   0  0  0  0  0  0  0  0  0  0  0  0
   -8.4229  -32.3105   12.9087 H   0  0  0  0  0  0  0  0  0  0  0  0
   -9.7147  -32.4090   16.4120 C   0  0  0  0  0  0  0  0  0  0  0  0
   -9.3969  -32.1272   17.8831 C   0  0  0  0  0  0  0  0  0  0  0  0
  -10.3933  -31.3527   18.5898 C   0  0  0  0  0  0  0  0  0  0  0  0
   -8.8764  -33.2981   18.6273 C   0  0  0  0  0  0  0  0  0  0  0  0
  3  4  2  0  0  0
  3  5  1  0  0  0
  3  1  1  0  0  0
  1  2  2  0  0  0
  1  7  1  0  0  0
  7  8  1  0  0  0
  8  9  1  0  0  0
  8 10  1  0  0  0
  5  6  1  0  0  0
M  END
> <minimizedAffinity>
-5.47797

$$$$
4H7Q_COI_A_402


 10  9  0  0  0  0  0  0  0  0999 V2000
  -10.6836  -32.4083   16.8839 C   0  0  0  0  0  0  0  0  0  0  0  0
  -11.7900  -32.7816   16.5918 O   0  0  0  0  0  0  0  0  0  0  0  0
   -9.6113  -32.3994   15.8713 C   0  0  0  0  0  0  0  0  0  0  0  0
   -8.7181  -33.2819   15.8536 O   0  0  0  0  0  0  0  0  0  0  0  0
   -9.6096  -31.4603   15.0268 O   0  0  0  0  0  0  0  0  0  0  0  0
  -10.2817  -30.8078   15.0504 H   0  0  0  0  0  0  0  0  0  0  0  0
  -10.3311  -31.9294   18.2802 C   0  0  0  0  0  0  0  0  0  0  0  0
   -9.4227  -32.7787   19.1735 C   0  0  0  0  0  0  0  0  0  0  0  0
   -8.0536  -32.3222   19.2689 C   0  0  0  0  0  0  0  0  0  0  0  0
  -10.0371  -33.1759   20.4620 C   0  0  0  0  0  0  0  0  0  0  0  0
  3  4  2  0  0  0
  3  5  1  0  0  0
  3  1  1  0  0  0
  1  2  2  0  0  0
  1  7  1  0  0  0
  7  8  1  0  0  0
  8  9  1  0  0  0
  8 10  1  0  0  0
  5  6  1  0  0  0
M  END
> <minimizedAffinity>
-5.43237

$$$$
4H7Q_COI_A_402


 10  9  0  0  0  0  0  0  0  0999 V2000
   -9.9862  -31.9097   18.7349 C   0  0  0  0  0  0  0  0  0  0  0  0
   -9.8952  -30.7359   18.9856 O   0  0  0  0  0  0  0  0  0  0  0  0
   -9.4604  -32.9136   19.6788 C   0  0  0  0  0  0  0  0  0  0  0  0
   -8.3029  -33.3853   19.5576 O   0  0  0  0  0  0  0  0  0  0  0  0
  -10.2220  -33.2997   20.6094 O   0  0  0  0  0  0  0  0  0  0  0  0
  -11.0836  -32.9401   20.6893 H   0  0  0  0  0  0  0  0  0  0  0  0
  -10.6377  -32.4195   17.4625 C   0  0  0  0  0  0  0  0  0  0  0  0
   -9.8280  -32.4925   16.1650 C   0  0  0  0  0  0  0  0  0  0  0  0
   -9.4891  -31.2143   15.5791 C   0  0  0  0  0  0  0  0  0  0  0  0
   -8.7204  -33.4763   16.1947 C   0  0  0  0  0  0  0  0  0  0  0  0
  3  4  2  0  0  0
  3  5  1  0  0  0
  3  1  1  0  0  0
  1  2  2  0  0  0
  1  7  1  0  0  0
  7  8  1  0  0  0
  8  9  1  0  0  0
  8 10  1  0  0  0
  5  6  1  0  0  0
M  END
> <minimizedAffinity>
-4.94217

$$$$
4H7Q_COI_A_402


 10  9  0  0  0  0  0  0  0  0999 V2000
  -10.6189  -32.0643   16.8436 C   0  0  0  0  0  0  0  0  0  0  0  0
  -11.5813  -32.7285   16.5581 O   0  0  0  0  0  0  0  0  0  0  0  0
  -10.2826  -31.8139   18.2577 C   0  0  0  0  0  0  0  0  0  0  0  0
  -10.3901  -30.6703   18.7651 O   0  0  0  0  0  0  0  0  0  0  0  0
   -9.8637  -32.7888   18.9427 O   0  0  0  0  0  0  0  0  0  0  0  0
   -9.7879  -33.6373   18.5526 H   0  0  0  0  0  0  0  0  0  0  0  0
   -9.7085  -31.4602   15.7904 C   0  0  0  0  0  0  0  0  0  0  0  0
   -8.3621  -32.1176   15.4751 C   0  0  0  0  0  0  0  0  0  0  0  0
   -8.2571  -33.5118   15.8456 C   0  0  0  0  0  0  0  0  0  0  0  0
   -7.8243  -31.7882   14.1343 C   0  0  0  0  0  0  0  0  0  0  0  0
  3  4  2  0  0  0
  3  5  1  0  0  0
  3  1  1  0  0  0
  1  2  2  0  0  0
  1  7  1  0  0  0
  7  8  1  0  0  0
  8  9  1  0  0  0
  8 10  1  0  0  0
  5  6  1  0  0  0
M  END
> <minimizedAffinity>
-4.84759

$$$$
4H7Q_COI_A_402


 10  9  0  0  0  0  0  0  0  0999 V2000
   -9.8103  -31.6853   17.1636 C   0  0  0  0  0  0  0  0  0  0  0  0
   -9.3142  -30.8078   16.5058 O   0  0  0  0  0  0  0  0  0  0  0  0
  -10.3455  -32.8930   16.5077 C   0  0  0  0  0  0  0  0  0  0  0  0
  -11.5813  -33.0913   16.4056 O   0  0  0  0  0  0  0  0  0  0  0  0
   -9.5163  -33.7360   16.0640 O   0  0  0  0  0  0  0  0  0  0  0  0
   -8.5966  -33.5766   16.1462 H   0  0  0  0  0  0  0  0  0  0  0  0
   -9.9097  -31.6083   18.6760 C   0  0  0  0  0  0  0  0  0  0  0  0
   -9.6523  -32.8570   19.5240 C   0  0  0  0  0  0  0  0  0  0  0  0
   -8.2643  -33.2471   19.6383 C   0  0  0  0  0  0  0  0  0  0  0  0
  -10.4164  -32.8977   20.7929 C   0  0  0  0  0  0  0  0  0  0  0  0
  3  4  2  0  0  0
  3  5  1  0  0  0
  3  1  1  0  0  0
  1  2  2  0  0  0
  1  7  1  0  0  0
  7  8  1  0  0  0
  8  9  1  0  0  0
  8 10  1  0  0  0
  5  6  1  0  0  0
M  END
> <minimizedAffinity>
-4.80068

$$$$
4H7Q_COI_A_402


 10  9  0  0  0  0  0  0  0  0999 V2000
   -8.2711  -32.6363   18.1217 C   0  0  0  0  0  0  0  0  0  0  0  0
   -7.2392  -32.2890   18.6351 O   0  0  0  0  0  0  0  0  0  0  0  0
   -8.3252  -32.9080   16.6731 C   0  0  0  0  0  0  0  0  0  0  0  0
   -7.7003  -32.1965   15.8482 O   0  0  0  0  0  0  0  0  0  0  0  0
   -9.0383  -33.8749   16.2837 O   0  0  0  0  0  0  0  0  0  0  0  0
   -9.4997  -34.3984   16.9090 H   0  0  0  0  0  0  0  0  0  0  0  0
   -9.5517  -32.8171   18.9157 C   0  0  0  0  0  0  0  0  0  0  0  0
  -10.6460  -31.7478   18.8560 C   0  0  0  0  0  0  0  0  0  0  0  0
  -10.1918  -30.3909   19.0667 C   0  0  0  0  0  0  0  0  0  0  0  0
  -11.6005  -31.9173   17.7354 C   0  0  0  0  0  0  0  0  0  0  0  0
  3  4  2  0  0  0
  3  5  1  0  0  0
  3  1  1  0  0  0
  1  2  2  0  0  0
  1  7  1  0  0  0
  7  8  1  0  0  0
  8  9  1  0  0  0
  8 10  1  0  0  0
  5  6  1  0  0  0
M  END
> <minimizedAffinity>
-4.77935

$$$$
4H7Q_COI_A_402


 10  9  0  0  0  0  0  0  0  0999 V2000
   -9.9365  -31.4574   18.6403 C   0  0  0  0  0  0  0  0  0  0  0  0
  -10.3865  -30.4583   19.1386 O   0  0  0  0  0  0  0  0  0  0  0  0
   -9.0975  -32.3718   19.4374 C   0  0  0  0  0  0  0  0  0  0  0  0
   -9.5740  -33.4061   19.9665 O   0  0  0  0  0  0  0  0  0  0  0  0
   -7.8800  -32.0710   19.5866 O   0  0  0  0  0  0  0  0  0  0  0  0
   -7.5363  -31.2965   19.1867 H   0  0  0  0  0  0  0  0  0  0  0  0
  -10.2021  -31.8332   17.1942 C   0  0  0  0  0  0  0  0  0  0  0  0
   -9.0306  -32.0395   16.2300 C   0  0  0  0  0  0  0  0  0  0  0  0
   -8.6395  -33.4166   16.0236 C   0  0  0  0  0  0  0  0  0  0  0  0
   -9.1087  -31.2234   14.9958 C   0  0  0  0  0  0  0  0  0  0  0  0
  3  4  2  0  0  0
  3  5  1  0  0  0
  3  1  1  0  0  0
  1  2  2  0  0  0
  1  7  1  0  0  0
  7  8  1  0  0  0
  8  9  1  0  0  0
  8 10  1  0  0  0
  5  6  1  0  0  0
M  END
> <minimizedAffinity>
-4.70289

$$$$
4H7Q_COI_A_402


 10  9  0  0  0  0  0  0  0  0999 V2000
   -9.2637  -31.8570   16.9042 C   0  0  0  0  0  0  0  0  0  0  0  0
   -9.6352  -31.0855   17.7501 O   0  0  0  0  0  0  0  0  0  0  0  0
  -10.1410  -32.9592   16.4674 C   0  0  0  0  0  0  0  0  0  0  0  0
  -11.3885  -32.8243   16.4171 O   0  0  0  0  0  0  0  0  0  0  0  0
   -9.5961  -34.0563   16.1598 O   0  0  0  0  0  0  0  0  0  0  0  0
   -8.6641  -34.1444   16.2015 H   0  0  0  0  0  0  0  0  0  0  0  0
   -7.9015  -31.7439   16.2448 C   0  0  0  0  0  0  0  0  0  0  0  0
   -7.7788  -31.1464   14.8404 C   0  0  0  0  0  0  0  0  0  0  0  0
   -7.7081  -32.1117   13.7657 C   0  0  0  0  0  0  0  0  0  0  0  0
   -8.6816  -29.9990   14.5874 C   0  0  0  0  0  0  0  0  0  0  0  0
  3  4  2  0  0  0
  3  5  1  0  0  0
  3  1  1  0  0  0
  1  2  2  0  0  0
  1  7  1  0  0  0
  7  8  1  0  0  0
  8  9  1  0  0  0
  8 10  1  0  0  0
  5  6  1  0  0  0
M  END
> <minimizedAffinity>
-4.47057

$$$$
