1E1X_NW1_A_401
  RCSB PDB12061702203D
Coordinates from PDB:1E1X:A:401 Model:1 without hydrogens
 18 19  0  0  0  0            999 V2000
    2.1630   28.4110    7.1980   N 0  0  0  0  0  0  0  0  0  0  0  0
    1.2250   28.4780    8.1800   C 0  0  0  0  0  0  0  0  0  0  0  0
    0.9650   27.3090    8.8980   O 0  0  0  0  0  0  0  0  0  0  0  0
    1.9190   26.2340    8.6810   C 0  0  0  0  0  0  0  0  0  0  0  0
    1.6440   25.2190    9.7930   C 0  0  0  0  0  0  0  0  0  0  0  0
    0.1380   25.0120   10.0520   C 0  0  0  0  0  0  0  0  0  0  0  0
   -0.0450   24.0560   11.2680   C 0  0  0  0  0  0  0  0  0  0  0  0
    0.6520   22.6910   10.9410   C 0  0  0  0  0  0  0  0  0  0  0  0
    2.1770   22.9700   10.8330   C 0  0  0  0  0  0  0  0  0  0  0  0
    2.3790   23.8680    9.5680   C 0  0  0  0  0  0  0  0  0  0  0  0
    0.5130   29.7550    8.4910   C 0  0  0  0  0  0  0  0  0  0  0  0
   -0.4380   29.6840    9.5840   N 0  0  0  0  0  0  0  0  0  0  0  0
   -1.0670   30.7150    9.8740   O 0  0  0  0  0  0  0  0  0  0  0  0
    0.8580   30.8220    7.7690   C 0  0  0  0  0  0  0  0  0  0  0  0
    0.3240   31.9930    7.9600   N 0  0  0  0  0  0  0  0  0  0  0  0
    1.8720   30.6210    6.7240   N 0  0  0  0  0  0  0  0  0  0  0  0
    2.4880   29.5500    6.4660   C 0  0  0  0  0  0  0  0  0  0  0  0
    3.4110   29.4190    5.5470   N 0  0  0  0  0  0  0  0  0  0  0  0
  1  2  2  0  0  0  0
  1 17  1  0  0  0  0
  2  3  1  0  0  0  0
  2 11  1  0  0  0  0
  3  4  1  0  0  0  0
  4  5  1  0  0  0  0
  5  6  1  0  0  0  0
  5 10  1  0  0  0  0
  6  7  1  0  0  0  0
  7  8  1  0  0  0  0
  8  9  1  0  0  0  0
  9 10  1  0  0  0  0
 11 12  1  0  0  0  0
 11 14  2  0  0  0  0
 12 13  2  0  0  0  0
 14 15  1  0  0  0  0
 14 16  1  0  0  0  0
 16 17  2  0  0  0  0
 17 18  1  0  0  0  0
A    1
N1
A    2
C6
A    3
O6
A    4
C1
A    5
C3
A    6
C11
A    7
C10
A    8
C9
A    9
C8
A   10
C7
A   11
C5
A   12
N7
A   13
O8
A   14
C4
A   15
N9
A   16
N3
A   17
C2
A   18
N2
M  END
>  <InstanceId>
1E1X_NW1_A_401

>  <ChemCompId>
NW1

>  <PdbId>
1E1X

>  <ChainId>
A

>  <ResidueNumber>
401

>  <InsertionCode>


>  <Model>
1

>  <AltIds>


>  <MissingHeavyAtoms>
0

>  <ObservedFormula>
C11 N5 O2

>  <Name>
6-CYCLOHEXYLMETHYLOXY-5-NITROSO-PYRIMIDINE-2,4-DIAMINE

>  <SystematicName>
6-(cyclohexylmethoxy)-5-nitroso-pyrimidine-2,4-diamine

>  <Synonyms>


>  <Type>
NON-POLYMER

>  <Formula>
C11 H17 N5 O2

>  <MolecularWeight>
251.285

>  <ModifiedDate>
2011-06-04

>  <Parent>


>  <OneLetterCode>


>  <SubcomponentList>


>  <AmbiguousFlag>
N

>  <InChI>
InChI=1S/C11H17N5O2/c12-9-8(16-17)10(15-11(13)14-9)18-6-7-4-2-1-3-5-7/h7H,1-6H2,(H4,12,13,14,15)

>  <InChIKey>
DGWXOLHKVGDQLN-UHFFFAOYSA-N

>  <SMILES>
C1CCC(CC1)COc2c(c(nc(n2)N)N)N=O

$$$$
