1MRN_T5A_A_301


 66 70  0  0  0  0  0  0  0  0999 V2000
   24.6517   19.8586    7.6177 P   0  0  0  0  0  0  0  0  0  0  0  0
   23.7531   20.9610    7.9737 O   0  0  0  0  0  0  0  0  0  0  0  0
   24.3397   18.5193    8.1183 O   0  0  0  0  0  0  0  0  0  0  0  0
   23.4158   18.3052    7.9146 H   0  0  0  0  0  0  0  0  0  0  0  0
   24.6367   19.7646    6.1258 O   0  0  0  0  0  0  0  0  0  0  0  0
   25.1092   18.7253    5.0589 P   0  0  0  0  0  0  0  0  0  0  0  0
   24.5533   18.8694    3.6810 O   0  0  0  0  0  0  0  0  0  0  0  0
   26.5902   18.7331    5.1762 O   0  0  0  0  0  0  0  0  0  0  0  0
   26.9683   18.1064    4.5397 H   0  0  0  0  0  0  0  0  0  0  0  0
   24.5728   17.3212    5.7058 O   0  0  0  0  0  0  0  0  0  0  0  0
   24.7519   15.9460    5.4717 P   0  0  0  0  0  0  0  0  0  0  0  0
   24.3707   15.6191    4.1268 O   0  0  0  0  0  0  0  0  0  0  0  0
   26.2010   15.9600    5.7416 O   0  0  0  0  0  0  0  0  0  0  0  0
   24.4981   14.6693    3.9765 H   0  0  0  0  0  0  0  0  0  0  0  0
   24.0797   14.9892    6.6221 O   0  0  0  0  0  0  0  0  0  0  0  0
   24.5959   13.7329    6.8299 C   0  0  0  0  0  0  0  0  0  0  0  0
   23.4457   12.7930    7.1985 C   0  0  0  0  0  0  0  0  0  0  0  0
   23.9897   11.4776    7.4043 O   0  0  0  0  0  0  0  0  0  0  0  0
   23.2212   10.8768    8.4895 C   0  0  0  0  0  0  0  0  0  0  0  0
   22.9592   12.1118    9.3840 C   0  0  0  0  0  0  0  0  0  0  0  0
   22.7363   13.2776    8.4444 C   0  0  0  0  0  0  0  0  0  0  0  0
   21.3693   13.5012    8.1287 O   0  0  0  0  0  0  0  0  0  0  0  0
   20.9916   12.6968    7.7397 H   0  0  0  0  0  0  0  0  0  0  0  0
   24.0736    9.8347    9.0197 N   0  0  0  0  0  0  0  0  0  0  0  0
   25.4383   10.0458    9.0547 C   0  0  0  0  0  0  0  0  0  0  0  0
   23.4803    8.6524    9.4483 C   0  0  0  0  0  0  0  0  0  0  0  0
   22.2544    8.3634    9.4346 O   0  0  0  0  0  0  0  0  0  0  0  0
   24.4050    7.7174    9.9178 N   0  0  0  0  0  0  0  0  0  0  0  0
   25.8039    7.8467    9.9869 C   0  0  0  0  0  0  0  0  0  0  0  0
   26.5437    6.9172   10.4293 O   0  0  0  0  0  0  0  0  0  0  0  0
   26.3202    9.1288    9.5072 C   0  0  0  0  0  0  0  0  0  0  0  0
   27.8384    9.3476    9.5467 C   0  0  0  0  0  0  0  0  0  0  0  0
   24.0328    6.8646   10.2394 H   0  0  0  0  0  0  0  0  0  0  0  0
   26.2012   20.1498    7.9899 O   0  0  0  0  0  0  0  0  0  0  0  0
   27.1730   21.4898    8.1395 P   0  0  0  0  0  0  0  0  0  0  0  0
   27.2426   21.8861    9.5803 O   0  0  0  0  0  0  0  0  0  0  0  0
   26.6373   22.3693    7.1032 O   0  0  0  0  0  0  0  0  0  0  0  0
   26.3793   22.2253    9.8644 H   0  0  0  0  0  0  0  0  0  0  0  0
   28.6748   20.9713    7.8919 O   0  0  0  0  0  0  0  0  0  0  0  0
   29.7709   20.9267    6.6718 P   0  0  0  0  0  0  0  0  0  0  0  0
   29.1511   20.2771    5.4713 O   0  0  0  0  0  0  0  0  0  0  0  0
   30.1621   22.3402    6.5848 O   0  0  0  0  0  0  0  0  0  0  0  0
   28.4515   20.8494    5.1191 H   0  0  0  0  0  0  0  0  0  0  0  0
   30.9149   20.0852    7.3200 O   0  0  0  0  0  0  0  0  0  0  0  0
   30.7119   19.1913    8.4284 C   0  0  0  0  0  0  0  0  0  0  0  0
   31.1446   17.7820    8.1707 C   0  0  0  0  0  0  0  0  0  0  0  0
   30.8227   17.0689    9.3566 O   0  0  0  0  0  0  0  0  0  0  0  0
   29.9655   15.9161    9.1269 C   0  0  0  0  0  0  0  0  0  0  0  0
   30.1627   15.5965    7.6487 C   0  0  0  0  0  0  0  0  0  0  0  0
   31.2539   14.6862    7.5938 O   0  0  0  0  0  0  0  0  0  0  0  0
   30.4004   16.9981    6.9883 C   0  0  0  0  0  0  0  0  0  0  0  0
   31.3536   16.9431    5.9138 O   0  0  0  0  0  0  0  0  0  0  0  0
   32.0174   15.0686    8.0540 H   0  0  0  0  0  0  0  0  0  0  0  0
   32.1877   16.5710    6.2402 H   0  0  0  0  0  0  0  0  0  0  0  0
   28.5161   16.1906    9.3523 N   0  0  0  0  0  0  0  0  0  0  0  0
   28.0101   17.1400   10.2295 C   0  0  0  0  0  0  0  0  0  0  0  0
   28.7478   18.0026   11.0414 N   0  0  0  0  0  0  0  0  0  0  0  0
   27.9613   18.8131   11.7939 C   0  0  0  0  0  0  0  0  0  0  0  0
   26.5812   18.8255   11.7953 N   0  0  0  0  0  0  0  0  0  0  0  0
   25.8706   17.9669   10.9855 C   0  0  0  0  0  0  0  0  0  0  0  0
   24.5534   18.0588   11.0630 N   0  0  0  0  0  0  0  0  0  0  0  0
   26.6167   17.0618   10.1409 C   0  0  0  0  0  0  0  0  0  0  0  0
   26.2717   16.0934    9.2315 N   0  0  0  0  0  0  0  0  0  0  0  0
   27.3940   15.6083    8.7926 C   0  0  0  0  0  0  0  0  0  0  0  0
   24.1406   18.7118   11.6732 H   0  0  0  0  0  0  0  0  0  0  0  0
   23.9858   17.4742   10.5105 H   0  0  0  0  0  0  0  0  0  0  0  0
 24 25  1  0  0  0
 24 26  1  0  0  0
 24 19  1  0  0  0
 25 31  2  0  0  0
 26 27  2  0  0  0
 26 28  1  0  0  0
 28 29  1  0  0  0
 29 30  2  0  0  0
 29 31  1  0  0  0
 31 32  1  0  0  0
 16 17  1  0  0  0
 16 15  1  0  0  0
 17 18  1  0  0  0
 17 21  1  0  0  0
 18 19  1  0  0  0
 19 20  1  0  0  0
 20 21  1  0  0  0
 21 22  1  0  0  0
 11 12  1  0  0  0
 11 13  2  0  0  0
 11 15  1  0  0  0
 11 10  1  0  0  0
 10  6  1  0  0  0
  6  7  2  0  0  0
  6  8  1  0  0  0
  6  5  1  0  0  0
  5  1  1  0  0  0
  1  2  2  0  0  0
  1  3  1  0  0  0
  1 34  1  0  0  0
 34 35  1  0  0  0
 35 36  1  0  0  0
 35 37  2  0  0  0
 35 39  1  0  0  0
 39 40  1  0  0  0
 40 41  1  0  0  0
 40 42  2  0  0  0
 40 44  1  0  0  0
 44 45  1  0  0  0
 45 46  1  0  0  0
 46 47  1  0  0  0
 46 51  1  0  0  0
 47 48  1  0  0  0
 48 49  1  0  0  0
 48 55  1  0  0  0
 49 50  1  0  0  0
 49 51  1  0  0  0
 51 52  1  0  0  0
 55 56  1  0  0  0
 55 64  1  0  0  0
 56 57  1  0  0  0
 56 62  2  0  0  0
 57 58  2  0  0  0
 58 59  1  0  0  0
 59 60  2  0  0  0
 60 61  1  0  0  0
 60 62  1  0  0  0
 62 63  1  0  0  0
 63 64  2  0  0  0
 28 33  1  0  0  0
 22 23  1  0  0  0
 12 14  1  0  0  0
  8  9  1  0  0  0
  3  4  1  0  0  0
 36 38  1  0  0  0
 41 43  1  0  0  0
 50 53  1  0  0  0
 52 54  1  0  0  0
 61 65  1  0  0  0
 61 66  1  0  0  0
M  END
> <minimizedAffinity>
-13.04984

$$$$
1MRN_T5A_A_301


 66 70  0  0  0  0  0  0  0  0999 V2000
   27.4909   19.7062   11.1077 P   0  0  0  0  0  0  0  0  0  0  0  0
   27.2592   21.1510   11.1972 O   0  0  0  0  0  0  0  0  0  0  0  0
   27.5291   18.9310   12.3484 O   0  0  0  0  0  0  0  0  0  0  0  0
   26.7434   19.1331   12.8802 H   0  0  0  0  0  0  0  0  0  0  0  0
   26.3674   19.1464   10.2959 O   0  0  0  0  0  0  0  0  0  0  0  0
   25.0564   18.3480   10.5885 P   0  0  0  0  0  0  0  0  0  0  0  0
   24.5672   18.3436   11.9988 O   0  0  0  0  0  0  0  0  0  0  0  0
   24.0995   18.8328    9.5605 O   0  0  0  0  0  0  0  0  0  0  0  0
   23.2483   18.3813    9.6726 H   0  0  0  0  0  0  0  0  0  0  0  0
   25.4959   16.8277   10.1722 O   0  0  0  0  0  0  0  0  0  0  0  0
   25.8590   16.1475    8.9959 P   0  0  0  0  0  0  0  0  0  0  0  0
   25.7819   17.0327    7.8684 O   0  0  0  0  0  0  0  0  0  0  0  0
   27.2189   15.8148    9.4576 O   0  0  0  0  0  0  0  0  0  0  0  0
   26.0341   16.5538    7.0635 H   0  0  0  0  0  0  0  0  0  0  0  0
   25.0798   14.7182    8.7946 O   0  0  0  0  0  0  0  0  0  0  0  0
   25.0427   14.1490    7.5446 C   0  0  0  0  0  0  0  0  0  0  0  0
   23.8941   13.1382    7.5080 C   0  0  0  0  0  0  0  0  0  0  0  0
   24.4531   11.8193    7.6353 O   0  0  0  0  0  0  0  0  0  0  0  0
   23.5031   11.0413    8.4236 C   0  0  0  0  0  0  0  0  0  0  0  0
   22.9861   12.1172    9.4079 C   0  0  0  0  0  0  0  0  0  0  0  0
   22.9068   13.4089    8.6225 C   0  0  0  0  0  0  0  0  0  0  0  0
   21.6298   13.6482    8.0476 O   0  0  0  0  0  0  0  0  0  0  0  0
   21.3902   12.9054    7.4716 H   0  0  0  0  0  0  0  0  0  0  0  0
   24.2777    9.9488    8.9719 N   0  0  0  0  0  0  0  0  0  0  0  0
   25.6537   10.0639    9.0118 C   0  0  0  0  0  0  0  0  0  0  0  0
   23.6007    8.8170    9.4124 C   0  0  0  0  0  0  0  0  0  0  0  0
   22.3575    8.6148    9.3957 O   0  0  0  0  0  0  0  0  0  0  0  0
   24.4550    7.8257    9.8991 N   0  0  0  0  0  0  0  0  0  0  0  0
   25.8592    7.8571    9.9743 C   0  0  0  0  0  0  0  0  0  0  0  0
   26.5297    6.8839   10.4327 O   0  0  0  0  0  0  0  0  0  0  0  0
   26.4667    9.0933    9.4810 C   0  0  0  0  0  0  0  0  0  0  0  0
   27.9963    9.2053    9.5260 C   0  0  0  0  0  0  0  0  0  0  0  0
   24.0223    7.0055   10.2296 H   0  0  0  0  0  0  0  0  0  0  0  0
   28.8250   19.3219   10.2728 O   0  0  0  0  0  0  0  0  0  0  0  0
   29.2817   19.3006    8.6749 P   0  0  0  0  0  0  0  0  0  0  0  0
   28.3432   18.4232    7.9088 O   0  0  0  0  0  0  0  0  0  0  0  0
   30.7140   19.0296    8.7732 O   0  0  0  0  0  0  0  0  0  0  0  0
   28.4758   17.4993    8.1730 H   0  0  0  0  0  0  0  0  0  0  0  0
   28.8946   20.7474    8.0897 O   0  0  0  0  0  0  0  0  0  0  0  0
   27.5879   21.4975    7.4399 P   0  0  0  0  0  0  0  0  0  0  0  0
   26.4106   21.3216    8.3510 O   0  0  0  0  0  0  0  0  0  0  0  0
   28.1132   22.8520    7.2209 O   0  0  0  0  0  0  0  0  0  0  0  0
   26.5617   21.8136    9.1732 H   0  0  0  0  0  0  0  0  0  0  0  0
   27.4477   20.7429    6.0806 O   0  0  0  0  0  0  0  0  0  0  0  0
   26.8049   21.3056    4.9234 C   0  0  0  0  0  0  0  0  0  0  0  0
   25.3167   21.1479    4.9075 C   0  0  0  0  0  0  0  0  0  0  0  0
   24.9645   21.0581    3.5340 O   0  0  0  0  0  0  0  0  0  0  0  0
   24.2130   19.8569    3.2042 C   0  0  0  0  0  0  0  0  0  0  0  0
   23.6305   19.4058    4.5397 C   0  0  0  0  0  0  0  0  0  0  0  0
   22.3715   20.0578    4.6504 O   0  0  0  0  0  0  0  0  0  0  0  0
   24.7187   19.8261    5.5868 C   0  0  0  0  0  0  0  0  0  0  0  0
   24.1435   20.2670    6.8281 O   0  0  0  0  0  0  0  0  0  0  0  0
   22.4913   21.0137    4.5373 H   0  0  0  0  0  0  0  0  0  0  0  0
   23.5294   20.9984    6.6581 H   0  0  0  0  0  0  0  0  0  0  0  0
   25.0565   18.7485    2.6687 N   0  0  0  0  0  0  0  0  0  0  0  0
   25.2933   18.5037    1.3230 C   0  0  0  0  0  0  0  0  0  0  0  0
   24.8031   19.2385    0.2426 N   0  0  0  0  0  0  0  0  0  0  0  0
   25.2091   18.7434   -0.9540 C   0  0  0  0  0  0  0  0  0  0  0  0
   26.0168   17.6398   -1.1397 N   0  0  0  0  0  0  0  0  0  0  0  0
   26.4919   16.9279   -0.0602 C   0  0  0  0  0  0  0  0  0  0  0  0
   27.2566   15.8875   -0.3470 N   0  0  0  0  0  0  0  0  0  0  0  0
   26.1181   17.3760    1.2622 C   0  0  0  0  0  0  0  0  0  0  0  0
   26.3862   16.9387    2.5352 N   0  0  0  0  0  0  0  0  0  0  0  0
   25.7574   17.7547    3.3265 C   0  0  0  0  0  0  0  0  0  0  0  0
   27.4528   15.6647   -1.2857 H   0  0  0  0  0  0  0  0  0  0  0  0
   27.6295   15.3359    0.3781 H   0  0  0  0  0  0  0  0  0  0  0  0
 24 25  1  0  0  0
 24 26  1  0  0  0
 24 19  1  0  0  0
 25 31  2  0  0  0
 26 27  2  0  0  0
 26 28  1  0  0  0
 28 29  1  0  0  0
 29 30  2  0  0  0
 29 31  1  0  0  0
 31 32  1  0  0  0
 16 17  1  0  0  0
 16 15  1  0  0  0
 17 18  1  0  0  0
 17 21  1  0  0  0
 18 19  1  0  0  0
 19 20  1  0  0  0
 20 21  1  0  0  0
 21 22  1  0  0  0
 11 12  1  0  0  0
 11 13  2  0  0  0
 11 15  1  0  0  0
 11 10  1  0  0  0
 10  6  1  0  0  0
  6  7  2  0  0  0
  6  8  1  0  0  0
  6  5  1  0  0  0
  5  1  1  0  0  0
  1  2  2  0  0  0
  1  3  1  0  0  0
  1 34  1  0  0  0
 34 35  1  0  0  0
 35 36  1  0  0  0
 35 37  2  0  0  0
 35 39  1  0  0  0
 39 40  1  0  0  0
 40 41  1  0  0  0
 40 42  2  0  0  0
 40 44  1  0  0  0
 44 45  1  0  0  0
 45 46  1  0  0  0
 46 47  1  0  0  0
 46 51  1  0  0  0
 47 48  1  0  0  0
 48 49  1  0  0  0
 48 55  1  0  0  0
 49 50  1  0  0  0
 49 51  1  0  0  0
 51 52  1  0  0  0
 55 56  1  0  0  0
 55 64  1  0  0  0
 56 57  1  0  0  0
 56 62  2  0  0  0
 57 58  2  0  0  0
 58 59  1  0  0  0
 59 60  2  0  0  0
 60 61  1  0  0  0
 60 62  1  0  0  0
 62 63  1  0  0  0
 63 64  2  0  0  0
 28 33  1  0  0  0
 22 23  1  0  0  0
 12 14  1  0  0  0
  8  9  1  0  0  0
  3  4  1  0  0  0
 36 38  1  0  0  0
 41 43  1  0  0  0
 50 53  1  0  0  0
 52 54  1  0  0  0
 61 65  1  0  0  0
 61 66  1  0  0  0
M  END
> <minimizedAffinity>
-12.85556

$$$$
1MRN_T5A_A_301


 66 70  0  0  0  0  0  0  0  0999 V2000
   27.2925   20.3613   10.0117 P   0  0  0  0  0  0  0  0  0  0  0  0
   26.9579   20.9400   11.3164 O   0  0  0  0  0  0  0  0  0  0  0  0
   28.5160   19.5664    9.8979 O   0  0  0  0  0  0  0  0  0  0  0  0
   28.5326   18.8964   10.5992 H   0  0  0  0  0  0  0  0  0  0  0  0
   26.1635   19.4505    9.6501 O   0  0  0  0  0  0  0  0  0  0  0  0
   25.0885   18.6265   10.4293 P   0  0  0  0  0  0  0  0  0  0  0  0
   24.9741   18.8794   11.8960 O   0  0  0  0  0  0  0  0  0  0  0  0
   23.8478   18.8030    9.6314 O   0  0  0  0  0  0  0  0  0  0  0  0
   23.1212   18.3167   10.0516 H   0  0  0  0  0  0  0  0  0  0  0  0
   25.6113   17.0942   10.1919 O   0  0  0  0  0  0  0  0  0  0  0  0
   26.0995   16.3285    9.1179 P   0  0  0  0  0  0  0  0  0  0  0  0
   26.3918   17.1772    7.9976 O   0  0  0  0  0  0  0  0  0  0  0  0
   27.2685   15.8120    9.8527 O   0  0  0  0  0  0  0  0  0  0  0  0
   26.7274   16.6394    7.2635 H   0  0  0  0  0  0  0  0  0  0  0  0
   25.1689   15.0257    8.7613 O   0  0  0  0  0  0  0  0  0  0  0  0
   25.4743   14.2705    7.6548 C   0  0  0  0  0  0  0  0  0  0  0  0
   24.3414   13.2672    7.4270 C   0  0  0  0  0  0  0  0  0  0  0  0
   24.8753   11.9422    7.5934 O   0  0  0  0  0  0  0  0  0  0  0  0
   23.8226   11.1468    8.2166 C   0  0  0  0  0  0  0  0  0  0  0  0
   23.1728   12.1967    9.1491 C   0  0  0  0  0  0  0  0  0  0  0  0
   23.2067   13.5108    8.3983 C   0  0  0  0  0  0  0  0  0  0  0  0
   22.0241   13.7732    7.6561 O   0  0  0  0  0  0  0  0  0  0  0  0
   21.8675   13.0485    7.0306 H   0  0  0  0  0  0  0  0  0  0  0  0
   24.5107   10.0351    8.8367 N   0  0  0  0  0  0  0  0  0  0  0  0
   25.8884   10.0739    8.9288 C   0  0  0  0  0  0  0  0  0  0  0  0
   23.7527    8.9615    9.2909 C   0  0  0  0  0  0  0  0  0  0  0  0
   22.5014    8.8292    9.2306 O   0  0  0  0  0  0  0  0  0  0  0  0
   24.5286    7.9437    9.8490 N   0  0  0  0  0  0  0  0  0  0  0  0
   25.9282    7.8989    9.9807 C   0  0  0  0  0  0  0  0  0  0  0  0
   26.5229    6.9084   10.5022 O   0  0  0  0  0  0  0  0  0  0  0  0
   26.6250    9.0784    9.4670 C   0  0  0  0  0  0  0  0  0  0  0  0
   28.1557    9.1058    9.5707 C   0  0  0  0  0  0  0  0  0  0  0  0
   24.0366    7.1629   10.1917 H   0  0  0  0  0  0  0  0  0  0  0  0
   27.3301   21.4545    8.8167 O   0  0  0  0  0  0  0  0  0  0  0  0
   27.2705   21.4264    7.1560 P   0  0  0  0  0  0  0  0  0  0  0  0
   27.1564   20.0083    6.6937 O   0  0  0  0  0  0  0  0  0  0  0  0
   28.3964   22.2859    6.7983 O   0  0  0  0  0  0  0  0  0  0  0  0
   27.9860   19.5406    6.8777 H   0  0  0  0  0  0  0  0  0  0  0  0
   25.8193   21.9949    6.7604 O   0  0  0  0  0  0  0  0  0  0  0  0
   24.2949   21.4251    6.5503 P   0  0  0  0  0  0  0  0  0  0  0  0
   23.8150   20.8080    7.8294 O   0  0  0  0  0  0  0  0  0  0  0  0
   23.6082   22.6212    6.0438 O   0  0  0  0  0  0  0  0  0  0  0  0
   23.7019   21.4999    8.4997 H   0  0  0  0  0  0  0  0  0  0  0  0
   24.5108   20.3939    5.3984 O   0  0  0  0  0  0  0  0  0  0  0  0
   23.4363   19.8326    4.6244 C   0  0  0  0  0  0  0  0  0  0  0  0
   23.6625   18.4178    4.1915 C   0  0  0  0  0  0  0  0  0  0  0  0
   24.3568   18.5113    2.9553 O   0  0  0  0  0  0  0  0  0  0  0  0
   25.6196   17.7890    2.9422 C   0  0  0  0  0  0  0  0  0  0  0  0
   25.4771   16.7729    4.0706 C   0  0  0  0  0  0  0  0  0  0  0  0
   24.9081   15.6136    3.4751 O   0  0  0  0  0  0  0  0  0  0  0  0
   24.5887   17.5095    5.1314 C   0  0  0  0  0  0  0  0  0  0  0  0
   23.6841   16.6172    5.8033 O   0  0  0  0  0  0  0  0  0  0  0  0
   24.0908   15.8558    3.0123 H   0  0  0  0  0  0  0  0  0  0  0  0
   23.1316   16.1630    5.1481 H   0  0  0  0  0  0  0  0  0  0  0  0
   26.8050   18.6461    3.2374 N   0  0  0  0  0  0  0  0  0  0  0  0
   27.0238   19.9137    2.7156 C   0  0  0  0  0  0  0  0  0  0  0  0
   26.1890   20.6116    1.8419 N   0  0  0  0  0  0  0  0  0  0  0  0
   26.6836   21.8303    1.5072 C   0  0  0  0  0  0  0  0  0  0  0  0
   27.8738   22.3691    1.9521 N   0  0  0  0  0  0  0  0  0  0  0  0
   28.6840   21.6650    2.8157 C   0  0  0  0  0  0  0  0  0  0  0  0
   29.8018   22.2704    3.1805 N   0  0  0  0  0  0  0  0  0  0  0  0
   28.2450   20.3535    3.2360 C   0  0  0  0  0  0  0  0  0  0  0  0
   28.7643   19.3858    4.0592 N   0  0  0  0  0  0  0  0  0  0  0  0
   27.9065   18.4104    4.0390 C   0  0  0  0  0  0  0  0  0  0  0  0
   30.0100   23.1689    2.8360 H   0  0  0  0  0  0  0  0  0  0  0  0
   30.4257   21.8227    3.7965 H   0  0  0  0  0  0  0  0  0  0  0  0
 24 25  1  0  0  0
 24 26  1  0  0  0
 24 19  1  0  0  0
 25 31  2  0  0  0
 26 27  2  0  0  0
 26 28  1  0  0  0
 28 29  1  0  0  0
 29 30  2  0  0  0
 29 31  1  0  0  0
 31 32  1  0  0  0
 16 17  1  0  0  0
 16 15  1  0  0  0
 17 18  1  0  0  0
 17 21  1  0  0  0
 18 19  1  0  0  0
 19 20  1  0  0  0
 20 21  1  0  0  0
 21 22  1  0  0  0
 11 12  1  0  0  0
 11 13  2  0  0  0
 11 15  1  0  0  0
 11 10  1  0  0  0
 10  6  1  0  0  0
  6  7  2  0  0  0
  6  8  1  0  0  0
  6  5  1  0  0  0
  5  1  1  0  0  0
  1  2  2  0  0  0
  1  3  1  0  0  0
  1 34  1  0  0  0
 34 35  1  0  0  0
 35 36  1  0  0  0
 35 37  2  0  0  0
 35 39  1  0  0  0
 39 40  1  0  0  0
 40 41  1  0  0  0
 40 42  2  0  0  0
 40 44  1  0  0  0
 44 45  1  0  0  0
 45 46  1  0  0  0
 46 47  1  0  0  0
 46 51  1  0  0  0
 47 48  1  0  0  0
 48 49  1  0  0  0
 48 55  1  0  0  0
 49 50  1  0  0  0
 49 51  1  0  0  0
 51 52  1  0  0  0
 55 56  1  0  0  0
 55 64  1  0  0  0
 56 57  1  0  0  0
 56 62  2  0  0  0
 57 58  2  0  0  0
 58 59  1  0  0  0
 59 60  2  0  0  0
 60 61  1  0  0  0
 60 62  1  0  0  0
 62 63  1  0  0  0
 63 64  2  0  0  0
 28 33  1  0  0  0
 22 23  1  0  0  0
 12 14  1  0  0  0
  8  9  1  0  0  0
  3  4  1  0  0  0
 36 38  1  0  0  0
 41 43  1  0  0  0
 50 53  1  0  0  0
 52 54  1  0  0  0
 61 65  1  0  0  0
 61 66  1  0  0  0
M  END
> <minimizedAffinity>
-12.85439

$$$$
1MRN_T5A_A_301


 66 70  0  0  0  0  0  0  0  0999 V2000
   24.2245   19.7986    4.3038 P   0  0  0  0  0  0  0  0  0  0  0  0
   24.6650   20.5328    3.1138 O   0  0  0  0  0  0  0  0  0  0  0  0
   22.7871   19.6492    4.5349 O   0  0  0  0  0  0  0  0  0  0  0  0
   22.3639   19.3101    3.7306 H   0  0  0  0  0  0  0  0  0  0  0  0
   24.7765   18.4151    4.1765 O   0  0  0  0  0  0  0  0  0  0  0  0
   26.1927   17.7580    4.2431 P   0  0  0  0  0  0  0  0  0  0  0  0
   26.8454   17.4234    2.9430 O   0  0  0  0  0  0  0  0  0  0  0  0
   26.9601   18.6426    5.1574 O   0  0  0  0  0  0  0  0  0  0  0  0
   27.8630   18.3016    5.2550 H   0  0  0  0  0  0  0  0  0  0  0  0
   25.8756   16.3717    5.0526 O   0  0  0  0  0  0  0  0  0  0  0  0
   24.7393   15.6158    5.3925 P   0  0  0  0  0  0  0  0  0  0  0  0
   23.7808   16.4411    6.0714 O   0  0  0  0  0  0  0  0  0  0  0  0
   24.4058   15.2576    4.0020 O   0  0  0  0  0  0  0  0  0  0  0  0
   23.0020   15.9103    6.3009 H   0  0  0  0  0  0  0  0  0  0  0  0
   25.0898   14.2080    6.1580 O   0  0  0  0  0  0  0  0  0  0  0  0
   24.6943   14.0421    7.4634 C   0  0  0  0  0  0  0  0  0  0  0  0
   23.5827   12.9908    7.5014 C   0  0  0  0  0  0  0  0  0  0  0  0
   24.1942   11.6962    7.6370 O   0  0  0  0  0  0  0  0  0  0  0  0
   23.3073   10.9061    8.4846 C   0  0  0  0  0  0  0  0  0  0  0  0
   22.7936   11.9886    9.4635 C   0  0  0  0  0  0  0  0  0  0  0  0
   22.6342   13.2556    8.6505 C   0  0  0  0  0  0  0  0  0  0  0  0
   21.3262   13.4345    8.1256 O   0  0  0  0  0  0  0  0  0  0  0  0
   21.0897   12.6689    7.5790 H   0  0  0  0  0  0  0  0  0  0  0  0
   24.1436    9.8565    9.0258 N   0  0  0  0  0  0  0  0  0  0  0  0
   25.5070   10.0653    9.1016 C   0  0  0  0  0  0  0  0  0  0  0  0
   23.5374    8.6698    9.4230 C   0  0  0  0  0  0  0  0  0  0  0  0
   22.3120    8.3826    9.3714 O   0  0  0  0  0  0  0  0  0  0  0  0
   24.4476    7.7280    9.9069 N   0  0  0  0  0  0  0  0  0  0  0  0
   25.8441    7.8546   10.0169 C   0  0  0  0  0  0  0  0  0  0  0  0
   26.5703    6.9189   10.4684 O   0  0  0  0  0  0  0  0  0  0  0  0
   26.3749    9.1418    9.5676 C   0  0  0  0  0  0  0  0  0  0  0  0
   27.8916    9.3582    9.6523 C   0  0  0  0  0  0  0  0  0  0  0  0
   24.0657    6.8718   10.2075 H   0  0  0  0  0  0  0  0  0  0  0  0
   24.8648   20.3654    5.6797 O   0  0  0  0  0  0  0  0  0  0  0  0
   24.5969   20.1606    7.3072 P   0  0  0  0  0  0  0  0  0  0  0  0
   24.3861   18.7069    7.5898 O   0  0  0  0  0  0  0  0  0  0  0  0
   23.5791   21.1735    7.5761 O   0  0  0  0  0  0  0  0  0  0  0  0
   23.5426   18.4217    7.2050 H   0  0  0  0  0  0  0  0  0  0  0  0
   26.0174   20.4078    8.0190 O   0  0  0  0  0  0  0  0  0  0  0  0
   27.3440   21.3513    7.8135 P   0  0  0  0  0  0  0  0  0  0  0  0
   27.0085   22.4856    6.8926 O   0  0  0  0  0  0  0  0  0  0  0  0
   27.6989   21.6559    9.2063 O   0  0  0  0  0  0  0  0  0  0  0  0
   26.3793   23.0811    7.3289 H   0  0  0  0  0  0  0  0  0  0  0  0
   28.3548   20.3282    7.2065 O   0  0  0  0  0  0  0  0  0  0  0  0
   29.7325   20.6399    6.9349 C   0  0  0  0  0  0  0  0  0  0  0  0
   30.6375   19.4486    6.8951 C   0  0  0  0  0  0  0  0  0  0  0  0
   30.6500   18.9436    8.2230 O   0  0  0  0  0  0  0  0  0  0  0  0
   30.2629   17.5443    8.3162 C   0  0  0  0  0  0  0  0  0  0  0  0
   30.4980   17.0004    6.9108 C   0  0  0  0  0  0  0  0  0  0  0  0
   31.8425   16.5372    6.8972 O   0  0  0  0  0  0  0  0  0  0  0  0
   30.1793   18.2184    5.9770 C   0  0  0  0  0  0  0  0  0  0  0  0
   31.0388   18.2661    4.8259 O   0  0  0  0  0  0  0  0  0  0  0  0
   32.4334   17.2511    7.1837 H   0  0  0  0  0  0  0  0  0  0  0  0
   31.9647   18.2872    5.1143 H   0  0  0  0  0  0  0  0  0  0  0  0
   28.8246   17.3402    8.6574 N   0  0  0  0  0  0  0  0  0  0  0  0
   28.1848   17.8694    9.7698 C   0  0  0  0  0  0  0  0  0  0  0  0
   28.7541   18.6811   10.7519 N   0  0  0  0  0  0  0  0  0  0  0  0
   27.8681   19.0331   11.7178 C   0  0  0  0  0  0  0  0  0  0  0  0
   26.5408   18.6588   11.7719 N   0  0  0  0  0  0  0  0  0  0  0  0
   25.9966   17.8579   10.7919 C   0  0  0  0  0  0  0  0  0  0  0  0
   24.7170   17.5567   10.9380 N   0  0  0  0  0  0  0  0  0  0  0  0
   26.8587   17.4290    9.7139 C   0  0  0  0  0  0  0  0  0  0  0  0
   26.6835   16.6522    8.5960 N   0  0  0  0  0  0  0  0  0  0  0  0
   27.8402   16.6207    8.0056 C   0  0  0  0  0  0  0  0  0  0  0  0
   24.2155   17.9010   11.7121 H   0  0  0  0  0  0  0  0  0  0  0  0
   24.2661   16.9883   10.2726 H   0  0  0  0  0  0  0  0  0  0  0  0
 24 25  1  0  0  0
 24 26  1  0  0  0
 24 19  1  0  0  0
 25 31  2  0  0  0
 26 27  2  0  0  0
 26 28  1  0  0  0
 28 29  1  0  0  0
 29 30  2  0  0  0
 29 31  1  0  0  0
 31 32  1  0  0  0
 16 17  1  0  0  0
 16 15  1  0  0  0
 17 18  1  0  0  0
 17 21  1  0  0  0
 18 19  1  0  0  0
 19 20  1  0  0  0
 20 21  1  0  0  0
 21 22  1  0  0  0
 11 12  1  0  0  0
 11 13  2  0  0  0
 11 15  1  0  0  0
 11 10  1  0  0  0
 10  6  1  0  0  0
  6  7  2  0  0  0
  6  8  1  0  0  0
  6  5  1  0  0  0
  5  1  1  0  0  0
  1  2  2  0  0  0
  1  3  1  0  0  0
  1 34  1  0  0  0
 34 35  1  0  0  0
 35 36  1  0  0  0
 35 37  2  0  0  0
 35 39  1  0  0  0
 39 40  1  0  0  0
 40 41  1  0  0  0
 40 42  2  0  0  0
 40 44  1  0  0  0
 44 45  1  0  0  0
 45 46  1  0  0  0
 46 47  1  0  0  0
 46 51  1  0  0  0
 47 48  1  0  0  0
 48 49  1  0  0  0
 48 55  1  0  0  0
 49 50  1  0  0  0
 49 51  1  0  0  0
 51 52  1  0  0  0
 55 56  1  0  0  0
 55 64  1  0  0  0
 56 57  1  0  0  0
 56 62  2  0  0  0
 57 58  2  0  0  0
 58 59  1  0  0  0
 59 60  2  0  0  0
 60 61  1  0  0  0
 60 62  1  0  0  0
 62 63  1  0  0  0
 63 64  2  0  0  0
 28 33  1  0  0  0
 22 23  1  0  0  0
 12 14  1  0  0  0
  8  9  1  0  0  0
  3  4  1  0  0  0
 36 38  1  0  0  0
 41 43  1  0  0  0
 50 53  1  0  0  0
 52 54  1  0  0  0
 61 65  1  0  0  0
 61 66  1  0  0  0
M  END
> <minimizedAffinity>
-12.82016

$$$$
1MRN_T5A_A_301


 66 70  0  0  0  0  0  0  0  0999 V2000
   28.1073   18.9529   10.2512 P   0  0  0  0  0  0  0  0  0  0  0  0
   27.6816   20.2923   10.6684 O   0  0  0  0  0  0  0  0  0  0  0  0
   29.4137   18.4688   10.6990 O   0  0  0  0  0  0  0  0  0  0  0  0
   29.4891   18.5830   11.6592 H   0  0  0  0  0  0  0  0  0  0  0  0
   27.0947   17.9976   10.7963 O   0  0  0  0  0  0  0  0  0  0  0  0
   25.6074   17.6345   10.4835 P   0  0  0  0  0  0  0  0  0  0  0  0
   24.6624   17.5978   11.6384 O   0  0  0  0  0  0  0  0  0  0  0  0
   25.2421   18.5371    9.3613 O   0  0  0  0  0  0  0  0  0  0  0  0
   24.3216   18.3746    9.1021 H   0  0  0  0  0  0  0  0  0  0  0  0
   25.7582   16.1249    9.8702 O   0  0  0  0  0  0  0  0  0  0  0  0
   26.2716   15.5361    8.7007 P   0  0  0  0  0  0  0  0  0  0  0  0
   26.3246   16.5038    7.6416 O   0  0  0  0  0  0  0  0  0  0  0  0
   27.5677   15.1720    9.3015 O   0  0  0  0  0  0  0  0  0  0  0  0
   26.6798   16.0875    6.8407 H   0  0  0  0  0  0  0  0  0  0  0  0
   25.5395   14.1246    8.2980 O   0  0  0  0  0  0  0  0  0  0  0  0
   25.0428   13.9699    7.0262 C   0  0  0  0  0  0  0  0  0  0  0  0
   23.8878   12.9671    7.0774 C   0  0  0  0  0  0  0  0  0  0  0  0
   24.4389   11.6598    7.3132 O   0  0  0  0  0  0  0  0  0  0  0  0
   23.4866   10.9567    8.1664 C   0  0  0  0  0  0  0  0  0  0  0  0
   22.9794   12.1146    9.0586 C   0  0  0  0  0  0  0  0  0  0  0  0
   22.9057   13.3365    8.1679 C   0  0  0  0  0  0  0  0  0  0  0  0
   21.6284   13.5352    7.5783 O   0  0  0  0  0  0  0  0  0  0  0  0
   21.3824   12.7484    7.0672 H   0  0  0  0  0  0  0  0  0  0  0  0
   24.2559    9.9090    8.8022 N   0  0  0  0  0  0  0  0  0  0  0  0
   25.6319   10.0246    8.8405 C   0  0  0  0  0  0  0  0  0  0  0  0
   23.5743    8.8160    9.3258 C   0  0  0  0  0  0  0  0  0  0  0  0
   22.3308    8.6151    9.3181 O   0  0  0  0  0  0  0  0  0  0  0  0
   24.4241    7.8641    9.8927 N   0  0  0  0  0  0  0  0  0  0  0  0
   25.8279    7.8991    9.9729 C   0  0  0  0  0  0  0  0  0  0  0  0
   26.4939    6.9633   10.5092 O   0  0  0  0  0  0  0  0  0  0  0  0
   26.4405    9.0921    9.3882 C   0  0  0  0  0  0  0  0  0  0  0  0
   27.9701    9.2048    9.4327 C   0  0  0  0  0  0  0  0  0  0  0  0
   23.9879    7.0728   10.2837 H   0  0  0  0  0  0  0  0  0  0  0  0
   28.0496   18.7331    8.6472 O   0  0  0  0  0  0  0  0  0  0  0  0
   28.8658   19.3149    7.3214 P   0  0  0  0  0  0  0  0  0  0  0  0
   28.7904   18.3070    6.2186 O   0  0  0  0  0  0  0  0  0  0  0  0
   30.1305   19.7481    7.9108 O   0  0  0  0  0  0  0  0  0  0  0  0
   29.3151   17.5269    6.4572 H   0  0  0  0  0  0  0  0  0  0  0  0
   27.9474   20.4917    6.7238 O   0  0  0  0  0  0  0  0  0  0  0  0
   26.8526   21.5875    7.2651 P   0  0  0  0  0  0  0  0  0  0  0  0
   26.0486   20.9792    8.3746 O   0  0  0  0  0  0  0  0  0  0  0  0
   27.7196   22.7338    7.5698 O   0  0  0  0  0  0  0  0  0  0  0  0
   26.6187   20.8365    9.1464 H   0  0  0  0  0  0  0  0  0  0  0  0
   26.0271   21.8600    5.9686 O   0  0  0  0  0  0  0  0  0  0  0  0
   24.5925   21.9623    5.9483 C   0  0  0  0  0  0  0  0  0  0  0  0
   23.8886   20.6868    5.6053 C   0  0  0  0  0  0  0  0  0  0  0  0
   23.3014   20.9143    4.3317 O   0  0  0  0  0  0  0  0  0  0  0  0
   23.6948   19.9377    3.3277 C   0  0  0  0  0  0  0  0  0  0  0  0
   24.1682   18.7386    4.1426 C   0  0  0  0  0  0  0  0  0  0  0  0
   23.0144   17.9330    4.3480 O   0  0  0  0  0  0  0  0  0  0  0  0
   24.7982   19.3803    5.4265 C   0  0  0  0  0  0  0  0  0  0  0  0
   24.5623   18.5923    6.6053 O   0  0  0  0  0  0  0  0  0  0  0  0
   22.3118   18.4701    4.7465 H   0  0  0  0  0  0  0  0  0  0  0  0
   23.6083   18.4597    6.7200 H   0  0  0  0  0  0  0  0  0  0  0  0
   24.8258   20.3865    2.4638 N   0  0  0  0  0  0  0  0  0  0  0  0
   24.7738   20.5143    1.0826 C   0  0  0  0  0  0  0  0  0  0  0  0
   23.6740   20.2598    0.2621 N   0  0  0  0  0  0  0  0  0  0  0  0
   23.9408   20.4730   -1.0514 C   0  0  0  0  0  0  0  0  0  0  0  0
   25.1471   20.8946   -1.5728 N   0  0  0  0  0  0  0  0  0  0  0  0
   26.2212   21.1419   -0.7462 C   0  0  0  0  0  0  0  0  0  0  0  0
   27.3305   21.5406   -1.3460 N   0  0  0  0  0  0  0  0  0  0  0  0
   26.0396   20.9467    0.6744 C   0  0  0  0  0  0  0  0  0  0  0  0
   26.8498   21.0855    1.7736 N   0  0  0  0  0  0  0  0  0  0  0  0
   26.1171   20.7540    2.7938 C   0  0  0  0  0  0  0  0  0  0  0  0
   27.3513   21.6431   -2.3249 H   0  0  0  0  0  0  0  0  0  0  0  0
   28.1354   21.7350   -0.8135 H   0  0  0  0  0  0  0  0  0  0  0  0
 24 25  1  0  0  0
 24 26  1  0  0  0
 24 19  1  0  0  0
 25 31  2  0  0  0
 26 27  2  0  0  0
 26 28  1  0  0  0
 28 29  1  0  0  0
 29 30  2  0  0  0
 29 31  1  0  0  0
 31 32  1  0  0  0
 16 17  1  0  0  0
 16 15  1  0  0  0
 17 18  1  0  0  0
 17 21  1  0  0  0
 18 19  1  0  0  0
 19 20  1  0  0  0
 20 21  1  0  0  0
 21 22  1  0  0  0
 11 12  1  0  0  0
 11 13  2  0  0  0
 11 15  1  0  0  0
 11 10  1  0  0  0
 10  6  1  0  0  0
  6  7  2  0  0  0
  6  8  1  0  0  0
  6  5  1  0  0  0
  5  1  1  0  0  0
  1  2  2  0  0  0
  1  3  1  0  0  0
  1 34  1  0  0  0
 34 35  1  0  0  0
 35 36  1  0  0  0
 35 37  2  0  0  0
 35 39  1  0  0  0
 39 40  1  0  0  0
 40 41  1  0  0  0
 40 42  2  0  0  0
 40 44  1  0  0  0
 44 45  1  0  0  0
 45 46  1  0  0  0
 46 47  1  0  0  0
 46 51  1  0  0  0
 47 48  1  0  0  0
 48 49  1  0  0  0
 48 55  1  0  0  0
 49 50  1  0  0  0
 49 51  1  0  0  0
 51 52  1  0  0  0
 55 56  1  0  0  0
 55 64  1  0  0  0
 56 57  1  0  0  0
 56 62  2  0  0  0
 57 58  2  0  0  0
 58 59  1  0  0  0
 59 60  2  0  0  0
 60 61  1  0  0  0
 60 62  1  0  0  0
 62 63  1  0  0  0
 63 64  2  0  0  0
 28 33  1  0  0  0
 22 23  1  0  0  0
 12 14  1  0  0  0
  8  9  1  0  0  0
  3  4  1  0  0  0
 36 38  1  0  0  0
 41 43  1  0  0  0
 50 53  1  0  0  0
 52 54  1  0  0  0
 61 65  1  0  0  0
 61 66  1  0  0  0
M  END
> <minimizedAffinity>
-12.44966

$$$$
1MRN_T5A_A_301


 66 70  0  0  0  0  0  0  0  0999 V2000
   27.6412   19.2527   10.8848 P   0  0  0  0  0  0  0  0  0  0  0  0
   26.6913   20.3163   11.2250 O   0  0  0  0  0  0  0  0  0  0  0  0
   28.3649   18.5941   11.9730 O   0  0  0  0  0  0  0  0  0  0  0  0
   27.7351   18.3050   12.6518 H   0  0  0  0  0  0  0  0  0  0  0  0
   26.8531   18.1849   10.1965 O   0  0  0  0  0  0  0  0  0  0  0  0
   26.7948   16.6240   10.2404 P   0  0  0  0  0  0  0  0  0  0  0  0
   27.8996   15.9255   10.9614 O   0  0  0  0  0  0  0  0  0  0  0  0
   25.4144   16.3256   10.7020 O   0  0  0  0  0  0  0  0  0  0  0  0
   25.2926   15.3649   10.7575 H   0  0  0  0  0  0  0  0  0  0  0  0
   26.8733   16.2459    8.6503 O   0  0  0  0  0  0  0  0  0  0  0  0
   25.9648   16.0090    7.6031 P   0  0  0  0  0  0  0  0  0  0  0  0
   25.2896   17.2253    7.2490 O   0  0  0  0  0  0  0  0  0  0  0  0
   26.9893   15.5440    6.6505 O   0  0  0  0  0  0  0  0  0  0  0  0
   24.6662   17.0505    6.5267 H   0  0  0  0  0  0  0  0  0  0  0  0
   24.9717   14.7309    7.8695 O   0  0  0  0  0  0  0  0  0  0  0  0
   24.8149   13.7904    6.8802 C   0  0  0  0  0  0  0  0  0  0  0  0
   23.6300   12.8947    7.2485 C   0  0  0  0  0  0  0  0  0  0  0  0
   24.1223   11.5579    7.4454 O   0  0  0  0  0  0  0  0  0  0  0  0
   23.3348   10.9821    8.5305 C   0  0  0  0  0  0  0  0  0  0  0  0
   23.1251   12.2218    9.4324 C   0  0  0  0  0  0  0  0  0  0  0  0
   22.9449   13.4004    8.4996 C   0  0  0  0  0  0  0  0  0  0  0  0
   21.5866   13.6794    8.1905 O   0  0  0  0  0  0  0  0  0  0  0  0
   21.1760   12.8926    7.7989 H   0  0  0  0  0  0  0  0  0  0  0  0
   24.1474    9.9044    9.0520 N   0  0  0  0  0  0  0  0  0  0  0  0
   25.5162   10.0772    9.1210 C   0  0  0  0  0  0  0  0  0  0  0  0
   23.5136    8.7285    9.4381 C   0  0  0  0  0  0  0  0  0  0  0  0
   22.2809    8.4735    9.3915 O   0  0  0  0  0  0  0  0  0  0  0  0
   24.4025    7.7574    9.9032 N   0  0  0  0  0  0  0  0  0  0  0  0
   25.8025    7.8467   10.0049 C   0  0  0  0  0  0  0  0  0  0  0  0
   26.5074    6.8868   10.4390 O   0  0  0  0  0  0  0  0  0  0  0  0
   26.3632    9.1257    9.5686 C   0  0  0  0  0  0  0  0  0  0  0  0
   27.8855    9.3020    9.6453 C   0  0  0  0  0  0  0  0  0  0  0  0
   24.0008    6.9074   10.1953 H   0  0  0  0  0  0  0  0  0  0  0  0
   28.7478   19.7074    9.7926 O   0  0  0  0  0  0  0  0  0  0  0  0
   28.8751   19.7092    8.1355 P   0  0  0  0  0  0  0  0  0  0  0  0
   27.6615   19.0593    7.5502 O   0  0  0  0  0  0  0  0  0  0  0  0
   30.2250   19.1874    7.9352 O   0  0  0  0  0  0  0  0  0  0  0  0
   27.6712   18.1115    7.7563 H   0  0  0  0  0  0  0  0  0  0  0  0
   28.6540   21.2357    7.6811 O   0  0  0  0  0  0  0  0  0  0  0  0
   29.1335   22.2369    6.4729 P   0  0  0  0  0  0  0  0  0  0  0  0
   29.0904   23.6551    6.9569 O   0  0  0  0  0  0  0  0  0  0  0  0
   30.4336   21.6538    6.1149 O   0  0  0  0  0  0  0  0  0  0  0  0
   29.7710   23.7859    7.6355 H   0  0  0  0  0  0  0  0  0  0  0  0
   28.0731   21.9170    5.3727 O   0  0  0  0  0  0  0  0  0  0  0  0
   28.4059   21.6923    3.9916 C   0  0  0  0  0  0  0  0  0  0  0  0
   28.2297   20.2771    3.5377 C   0  0  0  0  0  0  0  0  0  0  0  0
   27.4973   19.6399    4.5751 O   0  0  0  0  0  0  0  0  0  0  0  0
   26.2675   19.0121    4.1169 C   0  0  0  0  0  0  0  0  0  0  0  0
   26.4862   18.8171    2.6202 C   0  0  0  0  0  0  0  0  0  0  0  0
   27.0883   17.5361    2.4827 O   0  0  0  0  0  0  0  0  0  0  0  0
   27.3712   20.0427    2.2056 C   0  0  0  0  0  0  0  0  0  0  0  0
   28.3327   19.7064    1.1915 O   0  0  0  0  0  0  0  0  0  0  0  0
   27.8808   17.4899    3.0402 H   0  0  0  0  0  0  0  0  0  0  0  0
   28.8857   18.9721    1.5010 H   0  0  0  0  0  0  0  0  0  0  0  0
   25.0545   19.8616    4.3011 N   0  0  0  0  0  0  0  0  0  0  0  0
   24.5467   20.2740    5.5254 C   0  0  0  0  0  0  0  0  0  0  0  0
   25.0701   19.9836    6.7861 N   0  0  0  0  0  0  0  0  0  0  0  0
   24.3415   20.5283    7.7931 C   0  0  0  0  0  0  0  0  0  0  0  0
   23.2021   21.2927    7.6441 N   0  0  0  0  0  0  0  0  0  0  0  0
   22.7014   21.5697    6.3909 C   0  0  0  0  0  0  0  0  0  0  0  0
   21.6055   22.3095    6.3584 N   0  0  0  0  0  0  0  0  0  0  0  0
   23.4076   21.0363    5.2481 C   0  0  0  0  0  0  0  0  0  0  0  0
   23.2192   21.0961    3.8899 N   0  0  0  0  0  0  0  0  0  0  0  0
   24.1896   20.4063    3.3702 C   0  0  0  0  0  0  0  0  0  0  0  0
   21.1995   22.6250    7.1979 H   0  0  0  0  0  0  0  0  0  0  0  0
   21.1958   22.5447    5.4946 H   0  0  0  0  0  0  0  0  0  0  0  0
 24 25  1  0  0  0
 24 26  1  0  0  0
 24 19  1  0  0  0
 25 31  2  0  0  0
 26 27  2  0  0  0
 26 28  1  0  0  0
 28 29  1  0  0  0
 29 30  2  0  0  0
 29 31  1  0  0  0
 31 32  1  0  0  0
 16 17  1  0  0  0
 16 15  1  0  0  0
 17 18  1  0  0  0
 17 21  1  0  0  0
 18 19  1  0  0  0
 19 20  1  0  0  0
 20 21  1  0  0  0
 21 22  1  0  0  0
 11 12  1  0  0  0
 11 13  2  0  0  0
 11 15  1  0  0  0
 11 10  1  0  0  0
 10  6  1  0  0  0
  6  7  2  0  0  0
  6  8  1  0  0  0
  6  5  1  0  0  0
  5  1  1  0  0  0
  1  2  2  0  0  0
  1  3  1  0  0  0
  1 34  1  0  0  0
 34 35  1  0  0  0
 35 36  1  0  0  0
 35 37  2  0  0  0
 35 39  1  0  0  0
 39 40  1  0  0  0
 40 41  1  0  0  0
 40 42  2  0  0  0
 40 44  1  0  0  0
 44 45  1  0  0  0
 45 46  1  0  0  0
 46 47  1  0  0  0
 46 51  1  0  0  0
 47 48  1  0  0  0
 48 49  1  0  0  0
 48 55  1  0  0  0
 49 50  1  0  0  0
 49 51  1  0  0  0
 51 52  1  0  0  0
 55 56  1  0  0  0
 55 64  1  0  0  0
 56 57  1  0  0  0
 56 62  2  0  0  0
 57 58  2  0  0  0
 58 59  1  0  0  0
 59 60  2  0  0  0
 60 61  1  0  0  0
 60 62  1  0  0  0
 62 63  1  0  0  0
 63 64  2  0  0  0
 28 33  1  0  0  0
 22 23  1  0  0  0
 12 14  1  0  0  0
  8  9  1  0  0  0
  3  4  1  0  0  0
 36 38  1  0  0  0
 41 43  1  0  0  0
 50 53  1  0  0  0
 52 54  1  0  0  0
 61 65  1  0  0  0
 61 66  1  0  0  0
M  END
> <minimizedAffinity>
-12.35905

$$$$
1MRN_T5A_A_301


 66 70  0  0  0  0  0  0  0  0999 V2000
   23.5934   19.2308    3.8869 P   0  0  0  0  0  0  0  0  0  0  0  0
   23.9502   20.1219    2.7788 O   0  0  0  0  0  0  0  0  0  0  0  0
   22.5067   18.2718    3.6842 O   0  0  0  0  0  0  0  0  0  0  0  0
   22.6613   17.7763    2.8648 H   0  0  0  0  0  0  0  0  0  0  0  0
   24.8147   18.4247    4.1925 O   0  0  0  0  0  0  0  0  0  0  0  0
   25.6339   17.3057    3.4724 P   0  0  0  0  0  0  0  0  0  0  0  0
   25.1019   16.8103    2.1686 O   0  0  0  0  0  0  0  0  0  0  0  0
   27.0258   17.8252    3.4616 O   0  0  0  0  0  0  0  0  0  0  0  0
   27.6074   17.1825    3.0263 H   0  0  0  0  0  0  0  0  0  0  0  0
   25.5708   16.0928    4.5690 O   0  0  0  0  0  0  0  0  0  0  0  0
   24.5729   15.3547    5.2304 P   0  0  0  0  0  0  0  0  0  0  0  0
   23.6398   16.2419    5.8651 O   0  0  0  0  0  0  0  0  0  0  0  0
   24.0884   14.6792    4.0130 O   0  0  0  0  0  0  0  0  0  0  0  0
   22.9567   15.7228    6.3177 H   0  0  0  0  0  0  0  0  0  0  0  0
   25.1635   14.1755    6.2057 O   0  0  0  0  0  0  0  0  0  0  0  0
   24.6890   14.0731    7.4911 C   0  0  0  0  0  0  0  0  0  0  0  0
   23.5796   13.0191    7.5140 C   0  0  0  0  0  0  0  0  0  0  0  0
   24.1930   11.7250    7.6458 O   0  0  0  0  0  0  0  0  0  0  0  0
   23.3016   10.9274    8.4816 C   0  0  0  0  0  0  0  0  0  0  0  0
   22.7781   12.0024    9.4636 C   0  0  0  0  0  0  0  0  0  0  0  0
   22.6219   13.2743    8.6576 C   0  0  0  0  0  0  0  0  0  0  0  0
   21.3174   13.4537    8.1241 O   0  0  0  0  0  0  0  0  0  0  0  0
   21.0868   12.6911    7.5707 H   0  0  0  0  0  0  0  0  0  0  0  0
   24.1362    9.8762    9.0222 N   0  0  0  0  0  0  0  0  0  0  0  0
   25.5014   10.0775    9.0856 C   0  0  0  0  0  0  0  0  0  0  0  0
   23.5264    8.6955    9.4317 C   0  0  0  0  0  0  0  0  0  0  0  0
   22.2990    8.4152    9.3920 O   0  0  0  0  0  0  0  0  0  0  0  0
   24.4351    7.7514    9.9138 N   0  0  0  0  0  0  0  0  0  0  0  0
   25.8332    7.8704   10.0114 C   0  0  0  0  0  0  0  0  0  0  0  0
   26.5576    6.9332   10.4627 O   0  0  0  0  0  0  0  0  0  0  0  0
   26.3677    9.1518    9.5499 C   0  0  0  0  0  0  0  0  0  0  0  0
   27.8863    9.3597    9.6208 C   0  0  0  0  0  0  0  0  0  0  0  0
   24.0508    6.8993   10.2227 H   0  0  0  0  0  0  0  0  0  0  0  0
   23.2727   20.0193    5.2652 O   0  0  0  0  0  0  0  0  0  0  0  0
   23.9610   21.2593    6.1319 P   0  0  0  0  0  0  0  0  0  0  0  0
   23.8051   20.9811    7.5934 O   0  0  0  0  0  0  0  0  0  0  0  0
   23.3847   22.4362    5.4858 O   0  0  0  0  0  0  0  0  0  0  0  0
   22.8693   21.0535    7.8383 H   0  0  0  0  0  0  0  0  0  0  0  0
   25.5499   21.0874    5.9554 O   0  0  0  0  0  0  0  0  0  0  0  0
   26.8917   21.0532    6.8992 P   0  0  0  0  0  0  0  0  0  0  0  0
   28.0490   21.6259    6.1376 O   0  0  0  0  0  0  0  0  0  0  0  0
   26.4184   21.7591    8.0977 O   0  0  0  0  0  0  0  0  0  0  0  0
   27.9039   22.5742    5.9939 H   0  0  0  0  0  0  0  0  0  0  0  0
   27.0241   19.5245    7.1859 O   0  0  0  0  0  0  0  0  0  0  0  0
   25.9623   18.5804    6.9622 C   0  0  0  0  0  0  0  0  0  0  0  0
   25.5737   17.7917    8.1734 C   0  0  0  0  0  0  0  0  0  0  0  0
   26.5782   16.7961    8.3096 O   0  0  0  0  0  0  0  0  0  0  0  0
   27.2322   16.8046    9.6091 C   0  0  0  0  0  0  0  0  0  0  0  0
   26.2418   17.5254   10.5177 C   0  0  0  0  0  0  0  0  0  0  0  0
   25.3967   16.5115   11.0471 O   0  0  0  0  0  0  0  0  0  0  0  0
   25.5553   18.5710    9.5729 C   0  0  0  0  0  0  0  0  0  0  0  0
   24.1641   18.7585    9.8819 O   0  0  0  0  0  0  0  0  0  0  0  0
   25.0133   15.9976   10.3193 H   0  0  0  0  0  0  0  0  0  0  0  0
   23.7057   17.9046    9.8404 H   0  0  0  0  0  0  0  0  0  0  0  0
   28.5171   17.5633    9.6301 N   0  0  0  0  0  0  0  0  0  0  0  0
   29.5760   17.3651    8.7548 C   0  0  0  0  0  0  0  0  0  0  0  0
   29.6319   16.4435    7.7083 N   0  0  0  0  0  0  0  0  0  0  0  0
   30.8093   16.4875    7.0349 C   0  0  0  0  0  0  0  0  0  0  0  0
   31.8671   17.3298    7.3111 N   0  0  0  0  0  0  0  0  0  0  0  0
   31.7925   18.2339    8.3480 C   0  0  0  0  0  0  0  0  0  0  0  0
   32.8601   18.9934    8.5287 N   0  0  0  0  0  0  0  0  0  0  0  0
   30.5760   18.2687    9.1279 C   0  0  0  0  0  0  0  0  0  0  0  0
   30.1451   19.0071   10.2016 N   0  0  0  0  0  0  0  0  0  0  0  0
   28.9494   18.5747   10.4678 C   0  0  0  0  0  0  0  0  0  0  0  0
   33.6424   18.8912    7.9398 H   0  0  0  0  0  0  0  0  0  0  0  0
   32.8726   19.6609    9.2523 H   0  0  0  0  0  0  0  0  0  0  0  0
 24 25  1  0  0  0
 24 26  1  0  0  0
 24 19  1  0  0  0
 25 31  2  0  0  0
 26 27  2  0  0  0
 26 28  1  0  0  0
 28 29  1  0  0  0
 29 30  2  0  0  0
 29 31  1  0  0  0
 31 32  1  0  0  0
 16 17  1  0  0  0
 16 15  1  0  0  0
 17 18  1  0  0  0
 17 21  1  0  0  0
 18 19  1  0  0  0
 19 20  1  0  0  0
 20 21  1  0  0  0
 21 22  1  0  0  0
 11 12  1  0  0  0
 11 13  2  0  0  0
 11 15  1  0  0  0
 11 10  1  0  0  0
 10  6  1  0  0  0
  6  7  2  0  0  0
  6  8  1  0  0  0
  6  5  1  0  0  0
  5  1  1  0  0  0
  1  2  2  0  0  0
  1  3  1  0  0  0
  1 34  1  0  0  0
 34 35  1  0  0  0
 35 36  1  0  0  0
 35 37  2  0  0  0
 35 39  1  0  0  0
 39 40  1  0  0  0
 40 41  1  0  0  0
 40 42  2  0  0  0
 40 44  1  0  0  0
 44 45  1  0  0  0
 45 46  1  0  0  0
 46 47  1  0  0  0
 46 51  1  0  0  0
 47 48  1  0  0  0
 48 49  1  0  0  0
 48 55  1  0  0  0
 49 50  1  0  0  0
 49 51  1  0  0  0
 51 52  1  0  0  0
 55 56  1  0  0  0
 55 64  1  0  0  0
 56 57  1  0  0  0
 56 62  2  0  0  0
 57 58  2  0  0  0
 58 59  1  0  0  0
 59 60  2  0  0  0
 60 61  1  0  0  0
 60 62  1  0  0  0
 62 63  1  0  0  0
 63 64  2  0  0  0
 28 33  1  0  0  0
 22 23  1  0  0  0
 12 14  1  0  0  0
  8  9  1  0  0  0
  3  4  1  0  0  0
 36 38  1  0  0  0
 41 43  1  0  0  0
 50 53  1  0  0  0
 52 54  1  0  0  0
 61 65  1  0  0  0
 61 66  1  0  0  0
M  END
> <minimizedAffinity>
-11.94242

$$$$
1MRN_T5A_A_301


 66 70  0  0  0  0  0  0  0  0999 V2000
   24.3327   20.5656    7.0058 P   0  0  0  0  0  0  0  0  0  0  0  0
   24.1625   20.1971    5.5970 O   0  0  0  0  0  0  0  0  0  0  0  0
   23.1681   21.0640    7.7386 O   0  0  0  0  0  0  0  0  0  0  0  0
   22.4245   20.4530    7.6180 H   0  0  0  0  0  0  0  0  0  0  0  0
   24.7795   19.3285    7.7163 O   0  0  0  0  0  0  0  0  0  0  0  0
   25.0071   18.9047    9.2030 P   0  0  0  0  0  0  0  0  0  0  0  0
   26.1714   19.5151    9.9101 O   0  0  0  0  0  0  0  0  0  0  0  0
   23.6779   19.0901    9.8404 O   0  0  0  0  0  0  0  0  0  0  0  0
   23.7318   18.8459   10.7776 H   0  0  0  0  0  0  0  0  0  0  0  0
   25.2592   17.2949    9.0525 O   0  0  0  0  0  0  0  0  0  0  0  0
   26.0182   16.4451    8.2278 P   0  0  0  0  0  0  0  0  0  0  0  0
   26.9984   17.2040    7.5038 O   0  0  0  0  0  0  0  0  0  0  0  0
   26.5353   15.6226    9.3365 O   0  0  0  0  0  0  0  0  0  0  0  0
   27.5155   16.6087    6.9389 H   0  0  0  0  0  0  0  0  0  0  0  0
   25.1089   15.4445    7.2990 O   0  0  0  0  0  0  0  0  0  0  0  0
   25.5488   14.1629    7.0710 C   0  0  0  0  0  0  0  0  0  0  0  0
   24.3351   13.2309    7.0569 C   0  0  0  0  0  0  0  0  0  0  0  0
   24.7968   11.8895    7.2934 O   0  0  0  0  0  0  0  0  0  0  0  0
   23.7687   11.2329    8.0941 C   0  0  0  0  0  0  0  0  0  0  0  0
   23.2937   12.4063    8.9837 C   0  0  0  0  0  0  0  0  0  0  0  0
   23.3310   13.6430    8.1116 C   0  0  0  0  0  0  0  0  0  0  0  0
   22.0942   13.9266    7.4726 O   0  0  0  0  0  0  0  0  0  0  0  0
   21.8238   13.1635    6.9384 H   0  0  0  0  0  0  0  0  0  0  0  0
   24.4465   10.1317    8.7437 N   0  0  0  0  0  0  0  0  0  0  0  0
   25.8258   10.1506    8.8173 C   0  0  0  0  0  0  0  0  0  0  0  0
   23.6770    9.0873    9.2441 C   0  0  0  0  0  0  0  0  0  0  0  0
   22.4231    8.9740    9.2040 O   0  0  0  0  0  0  0  0  0  0  0  0
   24.4434    8.0764    9.8275 N   0  0  0  0  0  0  0  0  0  0  0  0
   25.8437    8.0127    9.9433 C   0  0  0  0  0  0  0  0  0  0  0  0
   26.4288    7.0308   10.4914 O   0  0  0  0  0  0  0  0  0  0  0  0
   26.5529    9.1620    9.3804 C   0  0  0  0  0  0  0  0  0  0  0  0
   28.0850    9.1672    9.4641 C   0  0  0  0  0  0  0  0  0  0  0  0
   23.9431    7.3162   10.2031 H   0  0  0  0  0  0  0  0  0  0  0  0
   25.5309   21.6282    7.2496 O   0  0  0  0  0  0  0  0  0  0  0  0
   27.1773   21.6599    7.0245 P   0  0  0  0  0  0  0  0  0  0  0  0
   27.7451   20.3201    7.3713 O   0  0  0  0  0  0  0  0  0  0  0  0
   27.5552   22.8840    7.7270 O   0  0  0  0  0  0  0  0  0  0  0  0
   27.6709   20.1752    8.3275 H   0  0  0  0  0  0  0  0  0  0  0  0
   27.4011   21.6843    5.4324 O   0  0  0  0  0  0  0  0  0  0  0  0
   28.6511   21.7318    4.3706 P   0  0  0  0  0  0  0  0  0  0  0  0
   29.4120   23.0100    4.5565 O   0  0  0  0  0  0  0  0  0  0  0  0
   29.3266   20.4606    4.6645 O   0  0  0  0  0  0  0  0  0  0  0  0
   29.8551   22.9999    5.4193 H   0  0  0  0  0  0  0  0  0  0  0  0
   27.8965   21.6434    3.0069 O   0  0  0  0  0  0  0  0  0  0  0  0
   27.5082   20.4015    2.3940 C   0  0  0  0  0  0  0  0  0  0  0  0
   26.3713   19.7069    3.0759 C   0  0  0  0  0  0  0  0  0  0  0  0
   25.4589   19.3756    2.0384 O   0  0  0  0  0  0  0  0  0  0  0  0
   25.1348   17.9585    1.9802 C   0  0  0  0  0  0  0  0  0  0  0  0
   25.4794   17.4421    3.3733 C   0  0  0  0  0  0  0  0  0  0  0  0
   24.2937   17.5923    4.1438 O   0  0  0  0  0  0  0  0  0  0  0  0
   26.7012   18.3217    3.8100 C   0  0  0  0  0  0  0  0  0  0  0  0
   26.6835   18.6258    5.2147 O   0  0  0  0  0  0  0  0  0  0  0  0
   23.9887   18.5117    4.0921 H   0  0  0  0  0  0  0  0  0  0  0  0
   25.8473   19.0625    5.4405 H   0  0  0  0  0  0  0  0  0  0  0  0
   25.9491   17.1962    0.9889 N   0  0  0  0  0  0  0  0  0  0  0  0
   25.7684   17.2291   -0.3870 C   0  0  0  0  0  0  0  0  0  0  0  0
   24.8162   17.9725   -1.0857 N   0  0  0  0  0  0  0  0  0  0  0  0
   24.8893   17.7864   -2.4281 C   0  0  0  0  0  0  0  0  0  0  0  0
   25.7856   16.9657   -3.0824 N   0  0  0  0  0  0  0  0  0  0  0  0
   26.7192   16.2406   -2.3749 C   0  0  0  0  0  0  0  0  0  0  0  0
   27.5300   15.4850   -3.0967 N   0  0  0  0  0  0  0  0  0  0  0  0
   26.7266   16.3707   -0.9354 C   0  0  0  0  0  0  0  0  0  0  0  0
   27.4804   15.8255    0.0737 N   0  0  0  0  0  0  0  0  0  0  0  0
   27.0054   16.3238    1.1753 C   0  0  0  0  0  0  0  0  0  0  0  0
   27.4427   15.4661   -4.0771 H   0  0  0  0  0  0  0  0  0  0  0  0
   28.2209   14.9414   -2.6535 H   0  0  0  0  0  0  0  0  0  0  0  0
 24 25  1  0  0  0
 24 26  1  0  0  0
 24 19  1  0  0  0
 25 31  2  0  0  0
 26 27  2  0  0  0
 26 28  1  0  0  0
 28 29  1  0  0  0
 29 30  2  0  0  0
 29 31  1  0  0  0
 31 32  1  0  0  0
 16 17  1  0  0  0
 16 15  1  0  0  0
 17 18  1  0  0  0
 17 21  1  0  0  0
 18 19  1  0  0  0
 19 20  1  0  0  0
 20 21  1  0  0  0
 21 22  1  0  0  0
 11 12  1  0  0  0
 11 13  2  0  0  0
 11 15  1  0  0  0
 11 10  1  0  0  0
 10  6  1  0  0  0
  6  7  2  0  0  0
  6  8  1  0  0  0
  6  5  1  0  0  0
  5  1  1  0  0  0
  1  2  2  0  0  0
  1  3  1  0  0  0
  1 34  1  0  0  0
 34 35  1  0  0  0
 35 36  1  0  0  0
 35 37  2  0  0  0
 35 39  1  0  0  0
 39 40  1  0  0  0
 40 41  1  0  0  0
 40 42  2  0  0  0
 40 44  1  0  0  0
 44 45  1  0  0  0
 45 46  1  0  0  0
 46 47  1  0  0  0
 46 51  1  0  0  0
 47 48  1  0  0  0
 48 49  1  0  0  0
 48 55  1  0  0  0
 49 50  1  0  0  0
 49 51  1  0  0  0
 51 52  1  0  0  0
 55 56  1  0  0  0
 55 64  1  0  0  0
 56 57  1  0  0  0
 56 62  2  0  0  0
 57 58  2  0  0  0
 58 59  1  0  0  0
 59 60  2  0  0  0
 60 61  1  0  0  0
 60 62  1  0  0  0
 62 63  1  0  0  0
 63 64  2  0  0  0
 28 33  1  0  0  0
 22 23  1  0  0  0
 12 14  1  0  0  0
  8  9  1  0  0  0
  3  4  1  0  0  0
 36 38  1  0  0  0
 41 43  1  0  0  0
 50 53  1  0  0  0
 52 54  1  0  0  0
 61 65  1  0  0  0
 61 66  1  0  0  0
M  END
> <minimizedAffinity>
-11.85669

$$$$
1MRN_T5A_A_301


 66 70  0  0  0  0  0  0  0  0999 V2000
   26.9491   20.3982    9.2061 P   0  0  0  0  0  0  0  0  0  0  0  0
   25.8032   20.8372    8.4039 O   0  0  0  0  0  0  0  0  0  0  0  0
   27.4520   21.2952   10.2473 O   0  0  0  0  0  0  0  0  0  0  0  0
   26.7153   21.5849   10.8080 H   0  0  0  0  0  0  0  0  0  0  0  0
   26.5249   19.1437    9.8998 O   0  0  0  0  0  0  0  0  0  0  0  0
   25.1730   18.4063   10.1648 P   0  0  0  0  0  0  0  0  0  0  0  0
   24.5137   18.6538   11.4810 O   0  0  0  0  0  0  0  0  0  0  0  0
   24.3595   18.6950    8.9556 O   0  0  0  0  0  0  0  0  0  0  0  0
   23.4925   18.2681    9.0396 H   0  0  0  0  0  0  0  0  0  0  0  0
   25.6316   16.8375   10.0851 O   0  0  0  0  0  0  0  0  0  0  0  0
   26.2055   15.9808    9.1287 P   0  0  0  0  0  0  0  0  0  0  0  0
   26.5652   16.7218    7.9530 O   0  0  0  0  0  0  0  0  0  0  0  0
   27.3260   15.5627    9.9906 O   0  0  0  0  0  0  0  0  0  0  0  0
   26.9597   16.1218    7.3008 H   0  0  0  0  0  0  0  0  0  0  0  0
   25.3204   14.6305    8.8389 O   0  0  0  0  0  0  0  0  0  0  0  0
   25.1736   14.1943    7.5442 C   0  0  0  0  0  0  0  0  0  0  0  0
   24.0074   13.2044    7.4973 C   0  0  0  0  0  0  0  0  0  0  0  0
   24.5418   11.8754    7.6262 O   0  0  0  0  0  0  0  0  0  0  0  0
   23.5723   11.1131    8.4060 C   0  0  0  0  0  0  0  0  0  0  0  0
   23.0674   12.1964    9.3887 C   0  0  0  0  0  0  0  0  0  0  0  0
   23.0169   13.4907    8.6051 C   0  0  0  0  0  0  0  0  0  0  0  0
   21.7487   13.7538    8.0214 O   0  0  0  0  0  0  0  0  0  0  0  0
   21.5001   13.0165    7.4422 H   0  0  0  0  0  0  0  0  0  0  0  0
   24.3231   10.0060    8.9579 N   0  0  0  0  0  0  0  0  0  0  0  0
   25.6977   10.1121    9.0436 C   0  0  0  0  0  0  0  0  0  0  0  0
   23.6263    8.8701    9.3552 C   0  0  0  0  0  0  0  0  0  0  0  0
   22.3833    8.6757    9.2952 O   0  0  0  0  0  0  0  0  0  0  0  0
   24.4595    7.8648    9.8499 N   0  0  0  0  0  0  0  0  0  0  0  0
   25.8607    7.8865    9.9702 C   0  0  0  0  0  0  0  0  0  0  0  0
   26.5110    6.9008   10.4312 O   0  0  0  0  0  0  0  0  0  0  0  0
   26.4901    9.1280    9.5199 C   0  0  0  0  0  0  0  0  0  0  0  0
   28.0182    9.2301    9.6156 C   0  0  0  0  0  0  0  0  0  0  0  0
   24.0120    7.0411   10.1509 H   0  0  0  0  0  0  0  0  0  0  0  0
   28.2250   19.9552    8.3116 O   0  0  0  0  0  0  0  0  0  0  0  0
   29.5810   19.0187    8.5278 P   0  0  0  0  0  0  0  0  0  0  0  0
   29.1633   17.6219    8.8629 O   0  0  0  0  0  0  0  0  0  0  0  0
   30.3774   19.8438    9.4329 O   0  0  0  0  0  0  0  0  0  0  0  0
   28.7606   17.6078    9.7453 H   0  0  0  0  0  0  0  0  0  0  0  0
   30.2056   18.8077    7.0612 O   0  0  0  0  0  0  0  0  0  0  0  0
   30.0352   17.7819    5.7920 P   0  0  0  0  0  0  0  0  0  0  0  0
   30.6355   18.4037    4.5672 O   0  0  0  0  0  0  0  0  0  0  0  0
   30.6416   16.5562    6.3294 O   0  0  0  0  0  0  0  0  0  0  0  0
   31.5976   18.4650    4.6741 H   0  0  0  0  0  0  0  0  0  0  0  0
   28.4825   17.6353    5.7246 O   0  0  0  0  0  0  0  0  0  0  0  0
   27.6444   18.4496    4.8858 C   0  0  0  0  0  0  0  0  0  0  0  0
   26.4867   19.0781    5.5961 C   0  0  0  0  0  0  0  0  0  0  0  0
   26.4877   20.4376    5.1832 O   0  0  0  0  0  0  0  0  0  0  0  0
   25.2276   20.8678    4.5972 C   0  0  0  0  0  0  0  0  0  0  0  0
   24.2110   19.8597    5.1229 C   0  0  0  0  0  0  0  0  0  0  0  0
   23.7274   20.4024    6.3452 O   0  0  0  0  0  0  0  0  0  0  0  0
   25.0266   18.5258    5.2360 C   0  0  0  0  0  0  0  0  0  0  0  0
   24.6316   17.7364    6.3704 O   0  0  0  0  0  0  0  0  0  0  0  0
   24.4758   20.5995    6.9300 H   0  0  0  0  0  0  0  0  0  0  0  0
   24.7223   18.2643    7.1791 H   0  0  0  0  0  0  0  0  0  0  0  0
   25.2080   20.8109    3.1061 N   0  0  0  0  0  0  0  0  0  0  0  0
   26.2170   21.2791    2.2757 C   0  0  0  0  0  0  0  0  0  0  0  0
   27.4168   21.8709    2.6728 N   0  0  0  0  0  0  0  0  0  0  0  0
   28.1966   22.2289    1.6214 C   0  0  0  0  0  0  0  0  0  0  0  0
   27.8870   22.0509    0.2883 N   0  0  0  0  0  0  0  0  0  0  0  0
   26.6978   21.4634   -0.0840 C   0  0  0  0  0  0  0  0  0  0  0  0
   26.4980   21.3405   -1.3856 N   0  0  0  0  0  0  0  0  0  0  0  0
   25.7950   21.0427    0.9635 C   0  0  0  0  0  0  0  0  0  0  0  0
   24.5612   20.4418    0.9832 N   0  0  0  0  0  0  0  0  0  0  0  0
   24.2494   20.3212    2.2385 C   0  0  0  0  0  0  0  0  0  0  0  0
   27.1788   21.6607   -2.0205 H   0  0  0  0  0  0  0  0  0  0  0  0
   25.6684   20.9287   -1.7196 H   0  0  0  0  0  0  0  0  0  0  0  0
 24 25  1  0  0  0
 24 26  1  0  0  0
 24 19  1  0  0  0
 25 31  2  0  0  0
 26 27  2  0  0  0
 26 28  1  0  0  0
 28 29  1  0  0  0
 29 30  2  0  0  0
 29 31  1  0  0  0
 31 32  1  0  0  0
 16 17  1  0  0  0
 16 15  1  0  0  0
 17 18  1  0  0  0
 17 21  1  0  0  0
 18 19  1  0  0  0
 19 20  1  0  0  0
 20 21  1  0  0  0
 21 22  1  0  0  0
 11 12  1  0  0  0
 11 13  2  0  0  0
 11 15  1  0  0  0
 11 10  1  0  0  0
 10  6  1  0  0  0
  6  7  2  0  0  0
  6  8  1  0  0  0
  6  5  1  0  0  0
  5  1  1  0  0  0
  1  2  2  0  0  0
  1  3  1  0  0  0
  1 34  1  0  0  0
 34 35  1  0  0  0
 35 36  1  0  0  0
 35 37  2  0  0  0
 35 39  1  0  0  0
 39 40  1  0  0  0
 40 41  1  0  0  0
 40 42  2  0  0  0
 40 44  1  0  0  0
 44 45  1  0  0  0
 45 46  1  0  0  0
 46 47  1  0  0  0
 46 51  1  0  0  0
 47 48  1  0  0  0
 48 49  1  0  0  0
 48 55  1  0  0  0
 49 50  1  0  0  0
 49 51  1  0  0  0
 51 52  1  0  0  0
 55 56  1  0  0  0
 55 64  1  0  0  0
 56 57  1  0  0  0
 56 62  2  0  0  0
 57 58  2  0  0  0
 58 59  1  0  0  0
 59 60  2  0  0  0
 60 61  1  0  0  0
 60 62  1  0  0  0
 62 63  1  0  0  0
 63 64  2  0  0  0
 28 33  1  0  0  0
 22 23  1  0  0  0
 12 14  1  0  0  0
  8  9  1  0  0  0
  3  4  1  0  0  0
 36 38  1  0  0  0
 41 43  1  0  0  0
 50 53  1  0  0  0
 52 54  1  0  0  0
 61 65  1  0  0  0
 61 66  1  0  0  0
M  END
> <minimizedAffinity>
-11.75997

$$$$
1MRN_T5A_A_301


 66 70  0  0  0  0  0  0  0  0999 V2000
   24.9339   21.4456    5.8165 P   0  0  0  0  0  0  0  0  0  0  0  0
   23.7102   22.2436    5.6933 O   0  0  0  0  0  0  0  0  0  0  0  0
   25.9761   21.9099    6.7331 O   0  0  0  0  0  0  0  0  0  0  0  0
   25.5841   22.0964    7.6005 H   0  0  0  0  0  0  0  0  0  0  0  0
   24.5129   20.0972    6.3059 O   0  0  0  0  0  0  0  0  0  0  0  0
   25.2357   18.8077    6.8123 P   0  0  0  0  0  0  0  0  0  0  0  0
   26.7245   18.8597    6.9082 O   0  0  0  0  0  0  0  0  0  0  0  0
   24.5073   18.4486    8.0564 O   0  0  0  0  0  0  0  0  0  0  0  0
   24.8978   17.6479    8.4401 H   0  0  0  0  0  0  0  0  0  0  0  0
   24.8133   17.7203    5.6647 O   0  0  0  0  0  0  0  0  0  0  0  0
   24.8704   16.3248    5.4990 P   0  0  0  0  0  0  0  0  0  0  0  0
   24.2400   15.9467    4.2660 O   0  0  0  0  0  0  0  0  0  0  0  0
   26.3429   16.2565    5.5132 O   0  0  0  0  0  0  0  0  0  0  0  0
   24.2850   14.9833    4.1620 H   0  0  0  0  0  0  0  0  0  0  0  0
   24.3590   15.4844    6.8116 O   0  0  0  0  0  0  0  0  0  0  0  0
   24.9095   14.2524    7.0708 C   0  0  0  0  0  0  0  0  0  0  0  0
   23.7999   13.2013    6.9916 C   0  0  0  0  0  0  0  0  0  0  0  0
   24.3859   11.9112    7.2379 O   0  0  0  0  0  0  0  0  0  0  0  0
   23.3952   11.1420    7.9836 C   0  0  0  0  0  0  0  0  0  0  0  0
   22.7617   12.2485    8.8601 C   0  0  0  0  0  0  0  0  0  0  0  0
   22.7115   13.4943    8.0015 C   0  0  0  0  0  0  0  0  0  0  0  0
   21.4827   13.6584    7.3076 O   0  0  0  0  0  0  0  0  0  0  0  0
   21.3170   12.8788    6.7546 H   0  0  0  0  0  0  0  0  0  0  0  0
   24.1521   10.1074    8.6548 N   0  0  0  0  0  0  0  0  0  0  0  0
   25.5234   10.2435    8.7513 C   0  0  0  0  0  0  0  0  0  0  0  0
   23.4650    9.0055    9.1520 C   0  0  0  0  0  0  0  0  0  0  0  0
   22.2261    8.7861    9.0918 O   0  0  0  0  0  0  0  0  0  0  0  0
   24.3038    8.0677    9.7574 N   0  0  0  0  0  0  0  0  0  0  0  0
   25.7022    8.1238    9.8973 C   0  0  0  0  0  0  0  0  0  0  0  0
   26.3586    7.1993   10.4643 O   0  0  0  0  0  0  0  0  0  0  0  0
   26.3215    9.3245    9.3357 C   0  0  0  0  0  0  0  0  0  0  0  0
   27.8460    9.4601    9.4451 C   0  0  0  0  0  0  0  0  0  0  0  0
   23.8631    7.2709   10.1317 H   0  0  0  0  0  0  0  0  0  0  0  0
   25.6544   21.1543    4.3951 O   0  0  0  0  0  0  0  0  0  0  0  0
   27.2133   20.9618    3.8517 P   0  0  0  0  0  0  0  0  0  0  0  0
   27.5436   22.0737    2.9072 O   0  0  0  0  0  0  0  0  0  0  0  0
   27.2230   19.5565    3.4522 O   0  0  0  0  0  0  0  0  0  0  0  0
   27.0275   21.9699    2.0925 H   0  0  0  0  0  0  0  0  0  0  0  0
   28.1599   21.3282    5.0988 O   0  0  0  0  0  0  0  0  0  0  0  0
   29.3955   22.3523    5.4408 P   0  0  0  0  0  0  0  0  0  0  0  0
   29.3905   23.4824    4.4559 O   0  0  0  0  0  0  0  0  0  0  0  0
   29.1387   22.6502    6.8564 O   0  0  0  0  0  0  0  0  0  0  0  0
   28.6032   24.0311    4.5973 H   0  0  0  0  0  0  0  0  0  0  0  0
   30.6265   21.4027    5.3000 O   0  0  0  0  0  0  0  0  0  0  0  0
   31.3246   20.8370    6.4231 C   0  0  0  0  0  0  0  0  0  0  0  0
   31.7407   19.4116    6.2356 C   0  0  0  0  0  0  0  0  0  0  0  0
   32.0670   18.9428    7.5365 O   0  0  0  0  0  0  0  0  0  0  0  0
   31.3261   17.7538    7.9285 C   0  0  0  0  0  0  0  0  0  0  0  0
   30.8664   17.1506    6.6053 C   0  0  0  0  0  0  0  0  0  0  0  0
   31.9046   16.2651    6.2047 O   0  0  0  0  0  0  0  0  0  0  0  0
   30.6302   18.3969    5.6846 C   0  0  0  0  0  0  0  0  0  0  0  0
   30.9946   18.1452    4.3171 O   0  0  0  0  0  0  0  0  0  0  0  0
   32.7483   16.7433    6.1863 H   0  0  0  0  0  0  0  0  0  0  0  0
   31.9204   17.8586    4.2767 H   0  0  0  0  0  0  0  0  0  0  0  0
   30.1151   18.0444    8.7507 N   0  0  0  0  0  0  0  0  0  0  0  0
   29.0542   17.1709    8.9463 C   0  0  0  0  0  0  0  0  0  0  0  0
   28.9288   15.8815    8.4276 N   0  0  0  0  0  0  0  0  0  0  0  0
   27.7691   15.2801    8.7956 C   0  0  0  0  0  0  0  0  0  0  0  0
   26.7884   15.8353    9.5923 N   0  0  0  0  0  0  0  0  0  0  0  0
   26.9311   17.1096   10.0961 C   0  0  0  0  0  0  0  0  0  0  0  0
   25.9344   17.5477   10.8471 N   0  0  0  0  0  0  0  0  0  0  0  0
   28.1353   17.8367    9.7638 C   0  0  0  0  0  0  0  0  0  0  0  0
   28.6172   19.0854   10.0676 N   0  0  0  0  0  0  0  0  0  0  0  0
   29.7653   19.1745    9.4663 C   0  0  0  0  0  0  0  0  0  0  0  0
   25.1539   16.9714   11.0144 H   0  0  0  0  0  0  0  0  0  0  0  0
   25.9730   18.4500   11.2389 H   0  0  0  0  0  0  0  0  0  0  0  0
 24 25  1  0  0  0
 24 26  1  0  0  0
 24 19  1  0  0  0
 25 31  2  0  0  0
 26 27  2  0  0  0
 26 28  1  0  0  0
 28 29  1  0  0  0
 29 30  2  0  0  0
 29 31  1  0  0  0
 31 32  1  0  0  0
 16 17  1  0  0  0
 16 15  1  0  0  0
 17 18  1  0  0  0
 17 21  1  0  0  0
 18 19  1  0  0  0
 19 20  1  0  0  0
 20 21  1  0  0  0
 21 22  1  0  0  0
 11 12  1  0  0  0
 11 13  2  0  0  0
 11 15  1  0  0  0
 11 10  1  0  0  0
 10  6  1  0  0  0
  6  7  2  0  0  0
  6  8  1  0  0  0
  6  5  1  0  0  0
  5  1  1  0  0  0
  1  2  2  0  0  0
  1  3  1  0  0  0
  1 34  1  0  0  0
 34 35  1  0  0  0
 35 36  1  0  0  0
 35 37  2  0  0  0
 35 39  1  0  0  0
 39 40  1  0  0  0
 40 41  1  0  0  0
 40 42  2  0  0  0
 40 44  1  0  0  0
 44 45  1  0  0  0
 45 46  1  0  0  0
 46 47  1  0  0  0
 46 51  1  0  0  0
 47 48  1  0  0  0
 48 49  1  0  0  0
 48 55  1  0  0  0
 49 50  1  0  0  0
 49 51  1  0  0  0
 51 52  1  0  0  0
 55 56  1  0  0  0
 55 64  1  0  0  0
 56 57  1  0  0  0
 56 62  2  0  0  0
 57 58  2  0  0  0
 58 59  1  0  0  0
 59 60  2  0  0  0
 60 61  1  0  0  0
 60 62  1  0  0  0
 62 63  1  0  0  0
 63 64  2  0  0  0
 28 33  1  0  0  0
 22 23  1  0  0  0
 12 14  1  0  0  0
  8  9  1  0  0  0
  3  4  1  0  0  0
 36 38  1  0  0  0
 41 43  1  0  0  0
 50 53  1  0  0  0
 52 54  1  0  0  0
 61 65  1  0  0  0
 61 66  1  0  0  0
M  END
> <minimizedAffinity>
-11.35559

$$$$
