2W5G_ATP_A_1125


 39 41  0  0  0  0  0  0  0  0999 V2000
   38.1725   -6.8783   19.3399 C   0  0  0  0  0  0  0  0  0  0  0  0
   37.2534   -6.3987   18.3574 O   0  0  0  0  0  0  0  0  0  0  0  0
   39.3025   -7.5526   18.5913 C   0  0  0  0  0  0  0  0  0  0  0  0
   39.1419   -8.9568   18.8023 O   0  0  0  0  0  0  0  0  0  0  0  0
   39.0614   -7.1994   17.1352 C   0  0  0  0  0  0  0  0  0  0  0  0
   39.5060   -8.2324   16.2398 O   0  0  0  0  0  0  0  0  0  0  0  0
   37.5489   -6.9646   17.0808 C   0  0  0  0  0  0  0  0  0  0  0  0
   38.2520   -9.2256   18.5254 H   0  0  0  0  0  0  0  0  0  0  0  0
   39.0522   -9.0627   16.4534 H   0  0  0  0  0  0  0  0  0  0  0  0
   37.1685   -6.0222   15.9883 N   0  0  0  0  0  0  0  0  0  0  0  0
   36.3532   -6.3303   14.9543 C   0  0  0  0  0  0  0  0  0  0  0  0
   36.1981   -5.2957   14.1107 N   0  0  0  0  0  0  0  0  0  0  0  0
   36.9462   -4.2930   14.6214 C   0  0  0  0  0  0  0  0  0  0  0  0
   37.2287   -2.9246   14.2411 C   0  0  0  0  0  0  0  0  0  0  0  0
   36.6295   -2.4361   13.1352 N   0  0  0  0  0  0  0  0  0  0  0  0
   38.0847   -2.1977   15.0445 N   0  0  0  0  0  0  0  0  0  0  0  0
   38.6485   -2.7008   16.1573 C   0  0  0  0  0  0  0  0  0  0  0  0
   38.4285   -3.9646   16.5711 N   0  0  0  0  0  0  0  0  0  0  0  0
   37.5872   -4.7749   15.8545 C   0  0  0  0  0  0  0  0  0  0  0  0
   36.0291   -3.0098   12.6065 H   0  0  0  0  0  0  0  0  0  0  0  0
   36.7927   -1.5059   12.8571 H   0  0  0  0  0  0  0  0  0  0  0  0
   38.6928   -5.7506   20.2172 C   0  0  0  0  0  0  0  0  0  0  0  0
   37.5748   -5.0978   20.8093 O   0  0  0  0  0  0  0  0  0  0  0  0
   37.5268   -4.7141   22.3806 P   0  0  0  0  0  0  0  0  0  0  0  0
   38.5726   -5.5380   23.0856 O   0  0  0  0  0  0  0  0  0  0  0  0
   36.1002   -4.7877   22.8764 O   0  0  0  0  0  0  0  0  0  0  0  0
   36.0730   -4.5574   23.8182 H   0  0  0  0  0  0  0  0  0  0  0  0
   38.0247   -3.1691   22.3408 O   0  0  0  0  0  0  0  0  0  0  0  0
   37.4849   -2.0217   23.3439 P   0  0  0  0  0  0  0  0  0  0  0  0
   37.3004   -2.6976   24.6742 O   0  0  0  0  0  0  0  0  0  0  0  0
   36.3053   -1.3227   22.6988 O   0  0  0  0  0  0  0  0  0  0  0  0
   35.9740   -0.6318   23.2937 H   0  0  0  0  0  0  0  0  0  0  0  0
   38.6998   -0.9453   23.4719 O   0  0  0  0  0  0  0  0  0  0  0  0
   38.4580    0.5734   23.9406 P   0  0  0  0  0  0  0  0  0  0  0  0
   38.0532    1.2976   22.6770 O   0  0  0  0  0  0  0  0  0  0  0  0
   37.3613    0.4010   24.9677 O   0  0  0  0  0  0  0  0  0  0  0  0
   39.6628    1.1793   24.6054 O   0  0  0  0  0  0  0  0  0  0  0  0
   37.1214    1.2670   25.3330 H   0  0  0  0  0  0  0  0  0  0  0  0
   39.4630    2.0918   24.8670 H   0  0  0  0  0  0  0  0  0  0  0  0
 34 35  2  0  0  0
 34 36  1  0  0  0
 34 37  1  0  0  0
 34 33  1  0  0  0
 29 30  2  0  0  0
 29 31  1  0  0  0
 29 33  1  0  0  0
 29 28  1  0  0  0
 24 25  2  0  0  0
 24 26  1  0  0  0
 24 28  1  0  0  0
 24 23  1  0  0  0
 23 22  1  0  0  0
 22  1  1  0  0  0
  1  2  1  0  0  0
  1  3  1  0  0  0
  2  7  1  0  0  0
  3  4  1  0  0  0
  3  5  1  0  0  0
  5  6  1  0  0  0
  5  7  1  0  0  0
  7 10  1  0  0  0
 10 11  1  0  0  0
 10 19  1  0  0  0
 11 12  2  0  0  0
 12 13  1  0  0  0
 13 14  1  0  0  0
 13 19  2  0  0  0
 14 15  1  0  0  0
 14 16  2  0  0  0
 16 17  1  0  0  0
 17 18  2  0  0  0
 18 19  1  0  0  0
 36 38  1  0  0  0
 37 39  1  0  0  0
 31 32  1  0  0  0
 26 27  1  0  0  0
  4  8  1  0  0  0
  6  9  1  0  0  0
 15 20  1  0  0  0
 15 21  1  0  0  0
M  END
> <minimizedAffinity>
-8.21255

$$$$
2W5G_ATP_A_1125


 39 41  0  0  0  0  0  0  0  0999 V2000
   38.6403   -5.5461   20.2535 C   0  0  0  0  0  0  0  0  0  0  0  0
   38.1459   -5.3958   18.9219 O   0  0  0  0  0  0  0  0  0  0  0  0
   40.0554   -5.0082   20.2593 C   0  0  0  0  0  0  0  0  0  0  0  0
   40.9160   -6.1443   20.3621 O   0  0  0  0  0  0  0  0  0  0  0  0
   40.2151   -4.3366   18.9078 C   0  0  0  0  0  0  0  0  0  0  0  0
   41.5645   -4.4063   18.4171 O   0  0  0  0  0  0  0  0  0  0  0  0
   39.2136   -5.0886   18.0260 C   0  0  0  0  0  0  0  0  0  0  0  0
   40.7191   -6.7652   19.6434 H   0  0  0  0  0  0  0  0  0  0  0  0
   41.8380   -5.3348   18.3542 H   0  0  0  0  0  0  0  0  0  0  0  0
   38.7239   -4.2480   16.8947 N   0  0  0  0  0  0  0  0  0  0  0  0
   39.0787   -2.9605   16.6817 C   0  0  0  0  0  0  0  0  0  0  0  0
   38.4729   -2.4446   15.5987 N   0  0  0  0  0  0  0  0  0  0  0  0
   37.6990   -3.4366   15.1060 C   0  0  0  0  0  0  0  0  0  0  0  0
   36.8026   -3.5772   13.9775 C   0  0  0  0  0  0  0  0  0  0  0  0
   36.6554   -2.5231   13.1481 N   0  0  0  0  0  0  0  0  0  0  0  0
   36.1634   -4.7899   13.8113 N   0  0  0  0  0  0  0  0  0  0  0  0
   36.3482   -5.8343   14.6385 C   0  0  0  0  0  0  0  0  0  0  0  0
   37.1686   -5.7742   15.7063 N   0  0  0  0  0  0  0  0  0  0  0  0
   37.8626   -4.6209   15.9630 C   0  0  0  0  0  0  0  0  0  0  0  0
   37.1418   -1.6857   13.3252 H   0  0  0  0  0  0  0  0  0  0  0  0
   36.0617   -2.5915   12.3657 H   0  0  0  0  0  0  0  0  0  0  0  0
   37.7703   -4.8098   21.2600 C   0  0  0  0  0  0  0  0  0  0  0  0
   38.5392   -4.5979   22.4391 O   0  0  0  0  0  0  0  0  0  0  0  0
   38.2511   -3.3704   23.4534 P   0  0  0  0  0  0  0  0  0  0  0  0
   39.1741   -3.5253   24.6340 O   0  0  0  0  0  0  0  0  0  0  0  0
   36.7651   -3.2659   23.7126 O   0  0  0  0  0  0  0  0  0  0  0  0
   36.5940   -2.5298   24.3207 H   0  0  0  0  0  0  0  0  0  0  0  0
   38.7530   -2.1067   22.5659 O   0  0  0  0  0  0  0  0  0  0  0  0
   39.6582   -0.8997   23.1470 P   0  0  0  0  0  0  0  0  0  0  0  0
   39.8513    0.0532   22.0000 O   0  0  0  0  0  0  0  0  0  0  0  0
   40.8743   -1.4866   23.8345 O   0  0  0  0  0  0  0  0  0  0  0  0
   41.4242   -0.7694   24.1868 H   0  0  0  0  0  0  0  0  0  0  0  0
   38.7422   -0.1713   24.2790 O   0  0  0  0  0  0  0  0  0  0  0  0
   37.3349    0.5236   23.9309 P   0  0  0  0  0  0  0  0  0  0  0  0
   36.8792    1.1276   25.2396 O   0  0  0  0  0  0  0  0  0  0  0  0
   37.7444    1.5174   22.8669 O   0  0  0  0  0  0  0  0  0  0  0  0
   36.3365   -0.4373   23.3474 O   0  0  0  0  0  0  0  0  0  0  0  0
   36.9646    2.0110   22.5683 H   0  0  0  0  0  0  0  0  0  0  0  0
   35.5093    0.0321   23.1568 H   0  0  0  0  0  0  0  0  0  0  0  0
 34 35  2  0  0  0
 34 36  1  0  0  0
 34 37  1  0  0  0
 34 33  1  0  0  0
 29 30  2  0  0  0
 29 31  1  0  0  0
 29 33  1  0  0  0
 29 28  1  0  0  0
 24 25  2  0  0  0
 24 26  1  0  0  0
 24 28  1  0  0  0
 24 23  1  0  0  0
 23 22  1  0  0  0
 22  1  1  0  0  0
  1  2  1  0  0  0
  1  3  1  0  0  0
  2  7  1  0  0  0
  3  4  1  0  0  0
  3  5  1  0  0  0
  5  6  1  0  0  0
  5  7  1  0  0  0
  7 10  1  0  0  0
 10 11  1  0  0  0
 10 19  1  0  0  0
 11 12  2  0  0  0
 12 13  1  0  0  0
 13 14  1  0  0  0
 13 19  2  0  0  0
 14 15  1  0  0  0
 14 16  2  0  0  0
 16 17  1  0  0  0
 17 18  2  0  0  0
 18 19  1  0  0  0
 36 38  1  0  0  0
 37 39  1  0  0  0
 31 32  1  0  0  0
 26 27  1  0  0  0
  4  8  1  0  0  0
  6  9  1  0  0  0
 15 20  1  0  0  0
 15 21  1  0  0  0
M  END
> <minimizedAffinity>
-7.77188

$$$$
2W5G_ATP_A_1125


 39 41  0  0  0  0  0  0  0  0999 V2000
   39.5596   -5.1816   20.2464 C   0  0  0  0  0  0  0  0  0  0  0  0
   38.6533   -4.8425   19.1958 O   0  0  0  0  0  0  0  0  0  0  0  0
   40.8460   -5.6322   19.5876 C   0  0  0  0  0  0  0  0  0  0  0  0
   40.9152   -7.0479   19.7689 O   0  0  0  0  0  0  0  0  0  0  0  0
   40.6654   -5.2888   18.1205 C   0  0  0  0  0  0  0  0  0  0  0  0
   41.3532   -6.2067   17.2540 O   0  0  0  0  0  0  0  0  0  0  0  0
   39.1444   -5.3165   17.9423 C   0  0  0  0  0  0  0  0  0  0  0  0
   40.1107   -7.4588   19.4154 H   0  0  0  0  0  0  0  0  0  0  0  0
   41.0347   -7.1079   17.4196 H   0  0  0  0  0  0  0  0  0  0  0  0
   38.6955   -4.4261   16.8323 N   0  0  0  0  0  0  0  0  0  0  0  0
   39.1238   -3.1577   16.6410 C   0  0  0  0  0  0  0  0  0  0  0  0
   38.5403   -2.5855   15.5741 N   0  0  0  0  0  0  0  0  0  0  0  0
   37.7051   -3.5203   15.0697 C   0  0  0  0  0  0  0  0  0  0  0  0
   36.7923   -3.5853   13.9475 C   0  0  0  0  0  0  0  0  0  0  0  0
   36.7005   -2.5080   13.1401 N   0  0  0  0  0  0  0  0  0  0  0  0
   36.0813   -4.7547   13.7638 N   0  0  0  0  0  0  0  0  0  0  0  0
   36.2112   -5.8245   14.5688 C   0  0  0  0  0  0  0  0  0  0  0  0
   37.0428   -5.8342   15.6296 N   0  0  0  0  0  0  0  0  0  0  0  0
   37.8058   -4.7290   15.9019 C   0  0  0  0  0  0  0  0  0  0  0  0
   37.2369   -1.7044   13.3288 H   0  0  0  0  0  0  0  0  0  0  0  0
   36.0971   -2.5257   12.3624 H   0  0  0  0  0  0  0  0  0  0  0  0
   39.8038   -4.0039   21.1767 C   0  0  0  0  0  0  0  0  0  0  0  0
   38.9040   -4.1121   22.2745 O   0  0  0  0  0  0  0  0  0  0  0  0
   39.3021   -3.6448   23.7717 P   0  0  0  0  0  0  0  0  0  0  0  0
   40.4617   -2.6894   23.6602 O   0  0  0  0  0  0  0  0  0  0  0  0
   39.4560   -4.8605   24.6574 O   0  0  0  0  0  0  0  0  0  0  0  0
   39.6947   -4.5788   25.5544 H   0  0  0  0  0  0  0  0  0  0  0  0
   37.9794   -2.8061   24.1999 O   0  0  0  0  0  0  0  0  0  0  0  0
   37.5239   -1.4217   23.4999 P   0  0  0  0  0  0  0  0  0  0  0  0
   36.1213   -1.6548   23.0110 O   0  0  0  0  0  0  0  0  0  0  0  0
   38.5915   -0.9981   22.5116 O   0  0  0  0  0  0  0  0  0  0  0  0
   38.3270   -0.1675   22.0860 H   0  0  0  0  0  0  0  0  0  0  0  0
   37.4803   -0.3194   24.6975 O   0  0  0  0  0  0  0  0  0  0  0  0
   37.4561    1.2623   24.4106 P   0  0  0  0  0  0  0  0  0  0  0  0
   38.6867    1.5112   23.5687 O   0  0  0  0  0  0  0  0  0  0  0  0
   36.1359    1.4178   23.6895 O   0  0  0  0  0  0  0  0  0  0  0  0
   37.4283    2.0847   25.6690 O   0  0  0  0  0  0  0  0  0  0  0  0
   36.0020    2.3501   23.4575 H   0  0  0  0  0  0  0  0  0  0  0  0
   37.4145    3.0270   25.4392 H   0  0  0  0  0  0  0  0  0  0  0  0
 34 35  2  0  0  0
 34 36  1  0  0  0
 34 37  1  0  0  0
 34 33  1  0  0  0
 29 30  2  0  0  0
 29 31  1  0  0  0
 29 33  1  0  0  0
 29 28  1  0  0  0
 24 25  2  0  0  0
 24 26  1  0  0  0
 24 28  1  0  0  0
 24 23  1  0  0  0
 23 22  1  0  0  0
 22  1  1  0  0  0
  1  2  1  0  0  0
  1  3  1  0  0  0
  2  7  1  0  0  0
  3  4  1  0  0  0
  3  5  1  0  0  0
  5  6  1  0  0  0
  5  7  1  0  0  0
  7 10  1  0  0  0
 10 11  1  0  0  0
 10 19  1  0  0  0
 11 12  2  0  0  0
 12 13  1  0  0  0
 13 14  1  0  0  0
 13 19  2  0  0  0
 14 15  1  0  0  0
 14 16  2  0  0  0
 16 17  1  0  0  0
 17 18  2  0  0  0
 18 19  1  0  0  0
 36 38  1  0  0  0
 37 39  1  0  0  0
 31 32  1  0  0  0
 26 27  1  0  0  0
  4  8  1  0  0  0
  6  9  1  0  0  0
 15 20  1  0  0  0
 15 21  1  0  0  0
M  END
> <minimizedAffinity>
-7.73733

$$$$
2W5G_ATP_A_1125


 39 41  0  0  0  0  0  0  0  0999 V2000
   38.3196   -6.8478   16.9797 C   0  0  0  0  0  0  0  0  0  0  0  0
   37.7829   -5.5249   16.9363 O   0  0  0  0  0  0  0  0  0  0  0  0
   38.7315   -7.2007   15.5663 C   0  0  0  0  0  0  0  0  0  0  0  0
   37.7787   -8.1568   15.0975 O   0  0  0  0  0  0  0  0  0  0  0  0
   38.6075   -5.8993   14.7953 C   0  0  0  0  0  0  0  0  0  0  0  0
   38.2460   -6.1095   13.4200 O   0  0  0  0  0  0  0  0  0  0  0  0
   37.5470   -5.1273   15.5860 C   0  0  0  0  0  0  0  0  0  0  0  0
   36.8845   -7.7902   15.1819 H   0  0  0  0  0  0  0  0  0  0  0  0
   37.4076   -6.5954   13.3766 H   0  0  0  0  0  0  0  0  0  0  0  0
   37.7047   -3.6509   15.4384 N   0  0  0  0  0  0  0  0  0  0  0  0
   36.9492   -2.8723   14.6312 C   0  0  0  0  0  0  0  0  0  0  0  0
   37.3225   -1.5824   14.6836 N   0  0  0  0  0  0  0  0  0  0  0  0
   38.3574   -1.5368   15.5511 C   0  0  0  0  0  0  0  0  0  0  0  0
   39.2150   -0.4941   16.0746 C   0  0  0  0  0  0  0  0  0  0  0  0
   38.9897    0.7745   15.6738 N   0  0  0  0  0  0  0  0  0  0  0  0
   40.2037   -0.8617   16.9658 N   0  0  0  0  0  0  0  0  0  0  0  0
   40.3902   -2.1311   17.3696 C   0  0  0  0  0  0  0  0  0  0  0  0
   39.6285   -3.1504   16.9248 N   0  0  0  0  0  0  0  0  0  0  0  0
   38.6098   -2.8999   16.0431 C   0  0  0  0  0  0  0  0  0  0  0  0
   38.2664    0.9676   15.0345 H   0  0  0  0  0  0  0  0  0  0  0  0
   39.5486    1.5069   16.0208 H   0  0  0  0  0  0  0  0  0  0  0  0
   39.4998   -6.9420   17.9339 C   0  0  0  0  0  0  0  0  0  0  0  0
   38.9917   -7.1381   19.2492 O   0  0  0  0  0  0  0  0  0  0  0  0
   39.2847   -6.1003   20.4557 P   0  0  0  0  0  0  0  0  0  0  0  0
   39.7442   -4.8031   19.8428 O   0  0  0  0  0  0  0  0  0  0  0  0
   40.1710   -6.7607   21.4875 O   0  0  0  0  0  0  0  0  0  0  0  0
   40.3457   -6.1375   22.2101 H   0  0  0  0  0  0  0  0  0  0  0  0
   37.7910   -5.8890   21.0563 O   0  0  0  0  0  0  0  0  0  0  0  0
   37.4757   -5.1010   22.4324 P   0  0  0  0  0  0  0  0  0  0  0  0
   38.6659   -5.3388   23.3198 O   0  0  0  0  0  0  0  0  0  0  0  0
   36.0974   -5.4994   22.9201 O   0  0  0  0  0  0  0  0  0  0  0  0
   35.8989   -5.0312   23.7462 H   0  0  0  0  0  0  0  0  0  0  0  0
   37.4321   -3.5231   22.0331 O   0  0  0  0  0  0  0  0  0  0  0  0
   37.4989   -2.3545   23.1352 P   0  0  0  0  0  0  0  0  0  0  0  0
   38.8734   -1.7500   22.9602 O   0  0  0  0  0  0  0  0  0  0  0  0
   36.3453   -1.4735   22.7107 O   0  0  0  0  0  0  0  0  0  0  0  0
   37.2490   -2.8524   24.5317 O   0  0  0  0  0  0  0  0  0  0  0  0
   36.2794   -0.7151   23.3120 H   0  0  0  0  0  0  0  0  0  0  0  0
   37.3007   -2.1099   25.1537 H   0  0  0  0  0  0  0  0  0  0  0  0
 34 35  2  0  0  0
 34 36  1  0  0  0
 34 37  1  0  0  0
 34 33  1  0  0  0
 29 30  2  0  0  0
 29 31  1  0  0  0
 29 33  1  0  0  0
 29 28  1  0  0  0
 24 25  2  0  0  0
 24 26  1  0  0  0
 24 28  1  0  0  0
 24 23  1  0  0  0
 23 22  1  0  0  0
 22  1  1  0  0  0
  1  2  1  0  0  0
  1  3  1  0  0  0
  2  7  1  0  0  0
  3  4  1  0  0  0
  3  5  1  0  0  0
  5  6  1  0  0  0
  5  7  1  0  0  0
  7 10  1  0  0  0
 10 11  1  0  0  0
 10 19  1  0  0  0
 11 12  2  0  0  0
 12 13  1  0  0  0
 13 14  1  0  0  0
 13 19  2  0  0  0
 14 15  1  0  0  0
 14 16  2  0  0  0
 16 17  1  0  0  0
 17 18  2  0  0  0
 18 19  1  0  0  0
 36 38  1  0  0  0
 37 39  1  0  0  0
 31 32  1  0  0  0
 26 27  1  0  0  0
  4  8  1  0  0  0
  6  9  1  0  0  0
 15 20  1  0  0  0
 15 21  1  0  0  0
M  END
> <minimizedAffinity>
-7.46894

$$$$
2W5G_ATP_A_1125


 39 41  0  0  0  0  0  0  0  0999 V2000
   38.5845   -5.7811   20.7008 C   0  0  0  0  0  0  0  0  0  0  0  0
   37.6516   -5.7328   19.6204 O   0  0  0  0  0  0  0  0  0  0  0  0
   39.8636   -6.3747   20.1497 C   0  0  0  0  0  0  0  0  0  0  0  0
   39.9577   -7.6950   20.6880 O   0  0  0  0  0  0  0  0  0  0  0  0
   39.6472   -6.4231   18.6484 C   0  0  0  0  0  0  0  0  0  0  0  0
   40.3304   -7.5272   18.0316 O   0  0  0  0  0  0  0  0  0  0  0  0
   38.1234   -6.5097   18.5199 C   0  0  0  0  0  0  0  0  0  0  0  0
   39.1523   -8.1905   20.4718 H   0  0  0  0  0  0  0  0  0  0  0  0
   40.0291   -8.3580   18.4314 H   0  0  0  0  0  0  0  0  0  0  0  0
   37.6382   -5.9400   17.2291 N   0  0  0  0  0  0  0  0  0  0  0  0
   36.8081   -6.5746   16.3706 C   0  0  0  0  0  0  0  0  0  0  0  0
   36.5504   -5.8332   15.2797 N   0  0  0  0  0  0  0  0  0  0  0  0
   37.2457   -4.6865   15.4450 C   0  0  0  0  0  0  0  0  0  0  0  0
   37.4183   -3.4694   14.6797 C   0  0  0  0  0  0  0  0  0  0  0  0
   36.7458   -3.3500   13.5160 N   0  0  0  0  0  0  0  0  0  0  0  0
   38.2513   -2.4972   15.1971 N   0  0  0  0  0  0  0  0  0  0  0  0
   38.8898   -2.6305   16.3735 C   0  0  0  0  0  0  0  0  0  0  0  0
   38.7734   -3.7345   17.1380 N   0  0  0  0  0  0  0  0  0  0  0  0
   37.9641   -4.7610   16.7264 C   0  0  0  0  0  0  0  0  0  0  0  0
   36.1673   -4.0831   13.2044 H   0  0  0  0  0  0  0  0  0  0  0  0
   36.8337   -2.5299   12.9785 H   0  0  0  0  0  0  0  0  0  0  0  0
   38.8305   -4.4010   21.2900 C   0  0  0  0  0  0  0  0  0  0  0  0
   37.9148   -4.2075   22.3627 O   0  0  0  0  0  0  0  0  0  0  0  0
   37.7210   -2.7748   23.0897 P   0  0  0  0  0  0  0  0  0  0  0  0
   38.0806   -2.9461   24.5426 O   0  0  0  0  0  0  0  0  0  0  0  0
   36.3590   -2.2140   22.7484 O   0  0  0  0  0  0  0  0  0  0  0  0
   36.2442   -1.3554   23.1848 H   0  0  0  0  0  0  0  0  0  0  0  0
   38.8821   -1.8984   22.3686 O   0  0  0  0  0  0  0  0  0  0  0  0
   39.4045   -0.4697   22.9162 P   0  0  0  0  0  0  0  0  0  0  0  0
   40.3533    0.0454   21.8697 O   0  0  0  0  0  0  0  0  0  0  0  0
   39.8946   -0.6404   24.3399 O   0  0  0  0  0  0  0  0  0  0  0  0
   40.2104    0.2124   24.6776 H   0  0  0  0  0  0  0  0  0  0  0  0
   38.0923    0.4937   22.9473 O   0  0  0  0  0  0  0  0  0  0  0  0
   37.4858    1.0778   24.3167 P   0  0  0  0  0  0  0  0  0  0  0  0
   36.3905    2.0200   23.8719 O   0  0  0  0  0  0  0  0  0  0  0  0
   37.0144   -0.1859   25.0010 O   0  0  0  0  0  0  0  0  0  0  0  0
   38.5220    1.7454   25.1776 O   0  0  0  0  0  0  0  0  0  0  0  0
   36.6196    0.0385   25.8581 H   0  0  0  0  0  0  0  0  0  0  0  0
   38.1041    2.0781   25.9873 H   0  0  0  0  0  0  0  0  0  0  0  0
 34 35  2  0  0  0
 34 36  1  0  0  0
 34 37  1  0  0  0
 34 33  1  0  0  0
 29 30  2  0  0  0
 29 31  1  0  0  0
 29 33  1  0  0  0
 29 28  1  0  0  0
 24 25  2  0  0  0
 24 26  1  0  0  0
 24 28  1  0  0  0
 24 23  1  0  0  0
 23 22  1  0  0  0
 22  1  1  0  0  0
  1  2  1  0  0  0
  1  3  1  0  0  0
  2  7  1  0  0  0
  3  4  1  0  0  0
  3  5  1  0  0  0
  5  6  1  0  0  0
  5  7  1  0  0  0
  7 10  1  0  0  0
 10 11  1  0  0  0
 10 19  1  0  0  0
 11 12  2  0  0  0
 12 13  1  0  0  0
 13 14  1  0  0  0
 13 19  2  0  0  0
 14 15  1  0  0  0
 14 16  2  0  0  0
 16 17  1  0  0  0
 17 18  2  0  0  0
 18 19  1  0  0  0
 36 38  1  0  0  0
 37 39  1  0  0  0
 31 32  1  0  0  0
 26 27  1  0  0  0
  4  8  1  0  0  0
  6  9  1  0  0  0
 15 20  1  0  0  0
 15 21  1  0  0  0
M  END
> <minimizedAffinity>
-7.45188

$$$$
2W5G_ATP_A_1125


 39 41  0  0  0  0  0  0  0  0999 V2000
   41.4463    0.9617   17.6098 C   0  0  0  0  0  0  0  0  0  0  0  0
   41.3115   -0.4480   17.4241 O   0  0  0  0  0  0  0  0  0  0  0  0
   40.2849    1.6123   16.8887 C   0  0  0  0  0  0  0  0  0  0  0  0
   40.8327    2.2333   15.7243 O   0  0  0  0  0  0  0  0  0  0  0  0
   39.3787    0.4576   16.5032 C   0  0  0  0  0  0  0  0  0  0  0  0
   38.6679    0.7042   15.2783 O   0  0  0  0  0  0  0  0  0  0  0  0
   40.3456   -0.7266   16.4108 C   0  0  0  0  0  0  0  0  0  0  0  0
   41.3176    1.5738   15.2039 H   0  0  0  0  0  0  0  0  0  0  0  0
   39.3026    0.8730   14.5645 H   0  0  0  0  0  0  0  0  0  0  0  0
   39.6642   -2.0267   16.6787 N   0  0  0  0  0  0  0  0  0  0  0  0
   39.9628   -2.8560   17.7043 C   0  0  0  0  0  0  0  0  0  0  0  0
   39.2024   -3.9640   17.6927 N   0  0  0  0  0  0  0  0  0  0  0  0
   38.3932   -3.8403   16.6176 C   0  0  0  0  0  0  0  0  0  0  0  0
   37.3443   -4.6419   16.0226 C   0  0  0  0  0  0  0  0  0  0  0  0
   37.0084   -5.7997   16.6287 N   0  0  0  0  0  0  0  0  0  0  0  0
   36.7408   -4.1630   14.8766 N   0  0  0  0  0  0  0  0  0  0  0  0
   37.0768   -2.9917   14.3070 C   0  0  0  0  0  0  0  0  0  0  0  0
   38.0416   -2.1948   14.8079 N   0  0  0  0  0  0  0  0  0  0  0  0
   38.7020   -2.5667   15.9496 C   0  0  0  0  0  0  0  0  0  0  0  0
   37.4802   -6.0829   17.4450 H   0  0  0  0  0  0  0  0  0  0  0  0
   36.2915   -6.3612   16.2545 H   0  0  0  0  0  0  0  0  0  0  0  0
   41.4534    1.3339   19.0842 C   0  0  0  0  0  0  0  0  0  0  0  0
   40.7416    0.3290   19.7983 O   0  0  0  0  0  0  0  0  0  0  0  0
   41.4334   -0.5691   20.9530 P   0  0  0  0  0  0  0  0  0  0  0  0
   42.3357    0.3320   21.7552 O   0  0  0  0  0  0  0  0  0  0  0  0
   42.0272   -1.8158   20.3371 O   0  0  0  0  0  0  0  0  0  0  0  0
   42.4415   -2.3531   21.0303 H   0  0  0  0  0  0  0  0  0  0  0  0
   40.1453   -0.9554   21.8629 O   0  0  0  0  0  0  0  0  0  0  0  0
   39.4676    0.0451   22.9370 P   0  0  0  0  0  0  0  0  0  0  0  0
   38.5336    0.9191   22.1467 O   0  0  0  0  0  0  0  0  0  0  0  0
   40.5615    0.6891   23.7646 O   0  0  0  0  0  0  0  0  0  0  0  0
   40.1644    1.2918   24.4126 H   0  0  0  0  0  0  0  0  0  0  0  0
   38.5833   -0.9034   23.9216 O   0  0  0  0  0  0  0  0  0  0  0  0
   37.5735   -2.0215   23.3606 P   0  0  0  0  0  0  0  0  0  0  0  0
   37.1768   -2.8179   24.5827 O   0  0  0  0  0  0  0  0  0  0  0  0
   36.4793   -1.1663   22.7617 O   0  0  0  0  0  0  0  0  0  0  0  0
   38.1822   -2.8693   22.2783 O   0  0  0  0  0  0  0  0  0  0  0  0
   35.7938   -1.7378   22.3817 H   0  0  0  0  0  0  0  0  0  0  0  0
   37.5331   -3.5242   21.9772 H   0  0  0  0  0  0  0  0  0  0  0  0
 34 35  2  0  0  0
 34 36  1  0  0  0
 34 37  1  0  0  0
 34 33  1  0  0  0
 29 30  2  0  0  0
 29 31  1  0  0  0
 29 33  1  0  0  0
 29 28  1  0  0  0
 24 25  2  0  0  0
 24 26  1  0  0  0
 24 28  1  0  0  0
 24 23  1  0  0  0
 23 22  1  0  0  0
 22  1  1  0  0  0
  1  2  1  0  0  0
  1  3  1  0  0  0
  2  7  1  0  0  0
  3  4  1  0  0  0
  3  5  1  0  0  0
  5  6  1  0  0  0
  5  7  1  0  0  0
  7 10  1  0  0  0
 10 11  1  0  0  0
 10 19  1  0  0  0
 11 12  2  0  0  0
 12 13  1  0  0  0
 13 14  1  0  0  0
 13 19  2  0  0  0
 14 15  1  0  0  0
 14 16  2  0  0  0
 16 17  1  0  0  0
 17 18  2  0  0  0
 18 19  1  0  0  0
 36 38  1  0  0  0
 37 39  1  0  0  0
 31 32  1  0  0  0
 26 27  1  0  0  0
  4  8  1  0  0  0
  6  9  1  0  0  0
 15 20  1  0  0  0
 15 21  1  0  0  0
M  END
> <minimizedAffinity>
-7.33294

$$$$
2W5G_ATP_A_1125


 39 41  0  0  0  0  0  0  0  0999 V2000
   38.2418   -5.1016   22.6949 C   0  0  0  0  0  0  0  0  0  0  0  0
   39.0063   -4.0740   23.3270 O   0  0  0  0  0  0  0  0  0  0  0  0
   36.9473   -4.4653   22.2351 C   0  0  0  0  0  0  0  0  0  0  0  0
   35.9271   -4.9562   23.1070 O   0  0  0  0  0  0  0  0  0  0  0  0
   37.1577   -2.9767   22.4424 C   0  0  0  0  0  0  0  0  0  0  0  0
   35.9366   -2.2903   22.7651 O   0  0  0  0  0  0  0  0  0  0  0  0
   38.1933   -2.9264   23.5698 C   0  0  0  0  0  0  0  0  0  0  0  0
   36.1697   -4.7674   24.0270 H   0  0  0  0  0  0  0  0  0  0  0  0
   35.5485   -2.6793   23.5644 H   0  0  0  0  0  0  0  0  0  0  0  0
   39.0143   -1.6815   23.5192 N   0  0  0  0  0  0  0  0  0  0  0  0
   40.2906   -1.6178   23.0767 C   0  0  0  0  0  0  0  0  0  0  0  0
   40.7900   -0.3729   23.1596 N   0  0  0  0  0  0  0  0  0  0  0  0
   39.7988    0.3842   23.6792 C   0  0  0  0  0  0  0  0  0  0  0  0
   39.6455    1.7826   24.0227 C   0  0  0  0  0  0  0  0  0  0  0  0
   40.6817    2.6129   23.7827 N   0  0  0  0  0  0  0  0  0  0  0  0
   38.4393    2.1836   24.5623 N   0  0  0  0  0  0  0  0  0  0  0  0
   37.4121    1.3397   24.7669 C   0  0  0  0  0  0  0  0  0  0  0  0
   37.4847    0.0271   24.4690 N   0  0  0  0  0  0  0  0  0  0  0  0
   38.6329   -0.4800   23.9190 C   0  0  0  0  0  0  0  0  0  0  0  0
   41.5154    2.2605   23.3954 H   0  0  0  0  0  0  0  0  0  0  0  0
   40.6040    3.5711   23.9950 H   0  0  0  0  0  0  0  0  0  0  0  0
   38.9934   -5.7200   21.5265 C   0  0  0  0  0  0  0  0  0  0  0  0
   38.1648   -5.6356   20.3720 O   0  0  0  0  0  0  0  0  0  0  0  0
   38.7707   -5.5540   18.8738 P   0  0  0  0  0  0  0  0  0  0  0  0
   39.9511   -6.4876   18.8055 O   0  0  0  0  0  0  0  0  0  0  0  0
   38.9771   -4.1063   18.4894 O   0  0  0  0  0  0  0  0  0  0  0  0
   39.3403   -4.0588   17.5912 H   0  0  0  0  0  0  0  0  0  0  0  0
   37.5541   -6.1930   18.0090 O   0  0  0  0  0  0  0  0  0  0  0  0
   37.6392   -6.5008   16.4240 P   0  0  0  0  0  0  0  0  0  0  0  0
   36.9218   -7.8070   16.2237 O   0  0  0  0  0  0  0  0  0  0  0  0
   39.0813   -6.3723   15.9769 O   0  0  0  0  0  0  0  0  0  0  0  0
   39.1426   -6.5553   15.0263 H   0  0  0  0  0  0  0  0  0  0  0  0
   36.7809   -5.3205   15.7022 O   0  0  0  0  0  0  0  0  0  0  0  0
   37.1150   -4.7975   14.2191 P   0  0  0  0  0  0  0  0  0  0  0  0
   38.3886   -3.9991   14.3794 O   0  0  0  0  0  0  0  0  0  0  0  0
   37.2583   -6.1006   13.4650 O   0  0  0  0  0  0  0  0  0  0  0  0
   35.9934   -4.0002   13.6135 O   0  0  0  0  0  0  0  0  0  0  0  0
   37.4652   -5.9152   12.5356 H   0  0  0  0  0  0  0  0  0  0  0  0
   36.2467   -3.7106   12.7230 H   0  0  0  0  0  0  0  0  0  0  0  0
 34 35  2  0  0  0
 34 36  1  0  0  0
 34 37  1  0  0  0
 34 33  1  0  0  0
 29 30  2  0  0  0
 29 31  1  0  0  0
 29 33  1  0  0  0
 29 28  1  0  0  0
 24 25  2  0  0  0
 24 26  1  0  0  0
 24 28  1  0  0  0
 24 23  1  0  0  0
 23 22  1  0  0  0
 22  1  1  0  0  0
  1  2  1  0  0  0
  1  3  1  0  0  0
  2  7  1  0  0  0
  3  4  1  0  0  0
  3  5  1  0  0  0
  5  6  1  0  0  0
  5  7  1  0  0  0
  7 10  1  0  0  0
 10 11  1  0  0  0
 10 19  1  0  0  0
 11 12  2  0  0  0
 12 13  1  0  0  0
 13 14  1  0  0  0
 13 19  2  0  0  0
 14 15  1  0  0  0
 14 16  2  0  0  0
 16 17  1  0  0  0
 17 18  2  0  0  0
 18 19  1  0  0  0
 36 38  1  0  0  0
 37 39  1  0  0  0
 31 32  1  0  0  0
 26 27  1  0  0  0
  4  8  1  0  0  0
  6  9  1  0  0  0
 15 20  1  0  0  0
 15 21  1  0  0  0
M  END
> <minimizedAffinity>
-7.17824

$$$$
2W5G_ATP_A_1125


 39 41  0  0  0  0  0  0  0  0999 V2000
   38.6146   -4.9587   21.3974 C   0  0  0  0  0  0  0  0  0  0  0  0
   38.6873   -4.7461   19.9869 O   0  0  0  0  0  0  0  0  0  0  0  0
   37.9970   -6.3255   21.6038 C   0  0  0  0  0  0  0  0  0  0  0  0
   36.6725   -6.0981   22.0894 O   0  0  0  0  0  0  0  0  0  0  0  0
   37.9601   -6.9419   20.2175 C   0  0  0  0  0  0  0  0  0  0  0  0
   36.8448   -7.8319   20.0430 O   0  0  0  0  0  0  0  0  0  0  0  0
   37.9059   -5.7200   19.2956 C   0  0  0  0  0  0  0  0  0  0  0  0
   36.1950   -5.5245   21.4699 H   0  0  0  0  0  0  0  0  0  0  0  0
   36.0186   -7.3513   20.2083 H   0  0  0  0  0  0  0  0  0  0  0  0
   38.4916   -6.0063   17.9534 N   0  0  0  0  0  0  0  0  0  0  0  0
   39.0942   -7.1664   17.6074 C   0  0  0  0  0  0  0  0  0  0  0  0
   39.5440   -7.1412   16.3412 N   0  0  0  0  0  0  0  0  0  0  0  0
   39.2221   -5.9189   15.8637 C   0  0  0  0  0  0  0  0  0  0  0  0
   39.3930   -5.2306   14.6012 C   0  0  0  0  0  0  0  0  0  0  0  0
   39.9878   -5.8969   13.5899 N   0  0  0  0  0  0  0  0  0  0  0  0
   38.9216   -3.9361   14.5056 N   0  0  0  0  0  0  0  0  0  0  0  0
   38.3081   -3.3036   15.5218 C   0  0  0  0  0  0  0  0  0  0  0  0
   38.1139   -3.8841   16.7227 N   0  0  0  0  0  0  0  0  0  0  0  0
   38.5336   -5.1724   16.9278 C   0  0  0  0  0  0  0  0  0  0  0  0
   40.3014   -6.8202   13.7259 H   0  0  0  0  0  0  0  0  0  0  0  0
   40.1082   -5.4599   12.7160 H   0  0  0  0  0  0  0  0  0  0  0  0
   39.9864   -4.8736   22.0478 C   0  0  0  0  0  0  0  0  0  0  0  0
   40.1032   -3.5991   22.6709 O   0  0  0  0  0  0  0  0  0  0  0  0
   39.7483   -3.3610   24.2317 P   0  0  0  0  0  0  0  0  0  0  0  0
   40.5182   -2.1527   24.6974 O   0  0  0  0  0  0  0  0  0  0  0  0
   39.9166   -4.6567   24.9925 O   0  0  0  0  0  0  0  0  0  0  0  0
   39.7036   -4.5126   25.9278 H   0  0  0  0  0  0  0  0  0  0  0  0
   38.1755   -2.9687   24.1386 O   0  0  0  0  0  0  0  0  0  0  0  0
   37.6151   -1.6691   23.3569 P   0  0  0  0  0  0  0  0  0  0  0  0
   36.2556   -2.0566   22.8449 O   0  0  0  0  0  0  0  0  0  0  0  0
   38.6684   -1.1959   22.3756 O   0  0  0  0  0  0  0  0  0  0  0  0
   38.3411   -0.4157   21.9012 H   0  0  0  0  0  0  0  0  0  0  0  0
   37.4335   -0.5185   24.4945 O   0  0  0  0  0  0  0  0  0  0  0  0
   38.2047    0.8903   24.4244 P   0  0  0  0  0  0  0  0  0  0  0  0
   37.6253    1.5767   23.2086 O   0  0  0  0  0  0  0  0  0  0  0  0
   37.8311    1.5051   25.7546 O   0  0  0  0  0  0  0  0  0  0  0  0
   39.6988    0.7365   24.3566 O   0  0  0  0  0  0  0  0  0  0  0  0
   38.2450    2.3788   25.8346 H   0  0  0  0  0  0  0  0  0  0  0  0
   40.1126    1.6129   24.3161 H   0  0  0  0  0  0  0  0  0  0  0  0
 34 35  2  0  0  0
 34 36  1  0  0  0
 34 37  1  0  0  0
 34 33  1  0  0  0
 29 30  2  0  0  0
 29 31  1  0  0  0
 29 33  1  0  0  0
 29 28  1  0  0  0
 24 25  2  0  0  0
 24 26  1  0  0  0
 24 28  1  0  0  0
 24 23  1  0  0  0
 23 22  1  0  0  0
 22  1  1  0  0  0
  1  2  1  0  0  0
  1  3  1  0  0  0
  2  7  1  0  0  0
  3  4  1  0  0  0
  3  5  1  0  0  0
  5  6  1  0  0  0
  5  7  1  0  0  0
  7 10  1  0  0  0
 10 11  1  0  0  0
 10 19  1  0  0  0
 11 12  2  0  0  0
 12 13  1  0  0  0
 13 14  1  0  0  0
 13 19  2  0  0  0
 14 15  1  0  0  0
 14 16  2  0  0  0
 16 17  1  0  0  0
 17 18  2  0  0  0
 18 19  1  0  0  0
 36 38  1  0  0  0
 37 39  1  0  0  0
 31 32  1  0  0  0
 26 27  1  0  0  0
  4  8  1  0  0  0
  6  9  1  0  0  0
 15 20  1  0  0  0
 15 21  1  0  0  0
M  END
> <minimizedAffinity>
-7.12233

$$$$
2W5G_ATP_A_1125


 39 41  0  0  0  0  0  0  0  0999 V2000
   38.8628   -4.9810   20.4285 C   0  0  0  0  0  0  0  0  0  0  0  0
   38.3946   -4.9800   19.0791 O   0  0  0  0  0  0  0  0  0  0  0  0
   40.1866   -4.2465   20.4341 C   0  0  0  0  0  0  0  0  0  0  0  0
   41.1957   -5.2398   20.6265 O   0  0  0  0  0  0  0  0  0  0  0  0
   40.2924   -3.6378   19.0479 C   0  0  0  0  0  0  0  0  0  0  0  0
   41.6529   -3.5417   18.5940 O   0  0  0  0  0  0  0  0  0  0  0  0
   39.4360   -4.5750   18.1911 C   0  0  0  0  0  0  0  0  0  0  0  0
   41.1116   -5.9228   19.9429 H   0  0  0  0  0  0  0  0  0  0  0  0
   42.0571   -4.4235   18.5946 H   0  0  0  0  0  0  0  0  0  0  0  0
   38.8684   -3.8797   16.9991 N   0  0  0  0  0  0  0  0  0  0  0  0
   39.1500   -2.6056   16.6438 C   0  0  0  0  0  0  0  0  0  0  0  0
   38.4846   -2.2334   15.5371 N   0  0  0  0  0  0  0  0  0  0  0  0
   37.7471   -3.3067   15.1763 C   0  0  0  0  0  0  0  0  0  0  0  0
   36.8237   -3.6052   14.1016 C   0  0  0  0  0  0  0  0  0  0  0  0
   36.5967   -2.6505   13.1756 N   0  0  0  0  0  0  0  0  0  0  0  0
   36.2423   -4.8576   14.0828 N   0  0  0  0  0  0  0  0  0  0  0  0
   36.5063   -5.8012   15.0043 C   0  0  0  0  0  0  0  0  0  0  0  0
   37.3560   -5.5925   16.0296 N   0  0  0  0  0  0  0  0  0  0  0  0
   37.9981   -4.3872   16.1423 C   0  0  0  0  0  0  0  0  0  0  0  0
   37.0450   -1.7771   13.2489 H   0  0  0  0  0  0  0  0  0  0  0  0
   35.9827   -2.8273   12.4266 H   0  0  0  0  0  0  0  0  0  0  0  0
   37.8657   -4.3202   21.3674 C   0  0  0  0  0  0  0  0  0  0  0  0
   38.5280   -4.0498   22.5981 O   0  0  0  0  0  0  0  0  0  0  0  0
   38.3402   -2.6544   23.3957 P   0  0  0  0  0  0  0  0  0  0  0  0
   37.3315   -2.8848   24.4907 O   0  0  0  0  0  0  0  0  0  0  0  0
   38.0863   -1.5374   22.4088 O   0  0  0  0  0  0  0  0  0  0  0  0
   37.9740   -0.7017   22.8883 H   0  0  0  0  0  0  0  0  0  0  0  0
   39.8066   -2.4801   24.0707 O   0  0  0  0  0  0  0  0  0  0  0  0
   40.6994   -3.7119   24.6182 P   0  0  0  0  0  0  0  0  0  0  0  0
   41.6201   -4.0812   23.4883 O   0  0  0  0  0  0  0  0  0  0  0  0
   39.7772   -4.7661   25.1963 O   0  0  0  0  0  0  0  0  0  0  0  0
   40.3041   -5.5101   25.5277 H   0  0  0  0  0  0  0  0  0  0  0  0
   41.5904   -3.0996   25.8356 O   0  0  0  0  0  0  0  0  0  0  0  0
   42.1875   -4.0188   27.0117 P   0  0  0  0  0  0  0  0  0  0  0  0
   43.1422   -4.9566   26.3087 O   0  0  0  0  0  0  0  0  0  0  0  0
   42.8358   -2.9838   27.9037 O   0  0  0  0  0  0  0  0  0  0  0  0
   41.1215   -4.7393   27.7895 O   0  0  0  0  0  0  0  0  0  0  0  0
   43.2413   -3.4235   28.6674 H   0  0  0  0  0  0  0  0  0  0  0  0
   41.5348   -5.2767   28.4832 H   0  0  0  0  0  0  0  0  0  0  0  0
 34 35  2  0  0  0
 34 36  1  0  0  0
 34 37  1  0  0  0
 34 33  1  0  0  0
 29 30  2  0  0  0
 29 31  1  0  0  0
 29 33  1  0  0  0
 29 28  1  0  0  0
 24 25  2  0  0  0
 24 26  1  0  0  0
 24 28  1  0  0  0
 24 23  1  0  0  0
 23 22  1  0  0  0
 22  1  1  0  0  0
  1  2  1  0  0  0
  1  3  1  0  0  0
  2  7  1  0  0  0
  3  4  1  0  0  0
  3  5  1  0  0  0
  5  6  1  0  0  0
  5  7  1  0  0  0
  7 10  1  0  0  0
 10 11  1  0  0  0
 10 19  1  0  0  0
 11 12  2  0  0  0
 12 13  1  0  0  0
 13 14  1  0  0  0
 13 19  2  0  0  0
 14 15  1  0  0  0
 14 16  2  0  0  0
 16 17  1  0  0  0
 17 18  2  0  0  0
 18 19  1  0  0  0
 36 38  1  0  0  0
 37 39  1  0  0  0
 31 32  1  0  0  0
 26 27  1  0  0  0
  4  8  1  0  0  0
  6  9  1  0  0  0
 15 20  1  0  0  0
 15 21  1  0  0  0
M  END
> <minimizedAffinity>
-7.07065

$$$$
2W5G_ATP_A_1125


 39 41  0  0  0  0  0  0  0  0999 V2000
   40.8446   -4.2307   19.7721 C   0  0  0  0  0  0  0  0  0  0  0  0
   39.7566   -3.6919   19.0197 O   0  0  0  0  0  0  0  0  0  0  0  0
   41.3623   -5.4258   19.0004 C   0  0  0  0  0  0  0  0  0  0  0  0
   40.9561   -6.5833   19.7333 O   0  0  0  0  0  0  0  0  0  0  0  0
   40.6445   -5.3591   17.6648 C   0  0  0  0  0  0  0  0  0  0  0  0
   40.4108   -6.6613   17.1027 O   0  0  0  0  0  0  0  0  0  0  0  0
   39.3532   -4.6077   18.0020 C   0  0  0  0  0  0  0  0  0  0  0  0
   39.9946   -6.5651   19.8595 H   0  0  0  0  0  0  0  0  0  0  0  0
   39.8919   -7.1940   17.7255 H   0  0  0  0  0  0  0  0  0  0  0  0
   38.8091   -3.8744   16.8219 N   0  0  0  0  0  0  0  0  0  0  0  0
   39.1228   -2.6002   16.4950 C   0  0  0  0  0  0  0  0  0  0  0  0
   38.4728   -2.1893   15.3928 N   0  0  0  0  0  0  0  0  0  0  0  0
   37.7123   -3.2369   15.0057 C   0  0  0  0  0  0  0  0  0  0  0  0
   36.7882   -3.4909   13.9201 C   0  0  0  0  0  0  0  0  0  0  0  0
   36.5892   -2.5119   13.0132 N   0  0  0  0  0  0  0  0  0  0  0  0
   36.1775   -4.7284   13.8719 N   0  0  0  0  0  0  0  0  0  0  0  0
   36.4138   -5.6971   14.7748 C   0  0  0  0  0  0  0  0  0  0  0  0
   37.2622   -5.5301   15.8087 N   0  0  0  0  0  0  0  0  0  0  0  0
   37.9320   -4.3430   15.9501 C   0  0  0  0  0  0  0  0  0  0  0  0
   37.0576   -1.6511   13.1072 H   0  0  0  0  0  0  0  0  0  0  0  0
   35.9755   -2.6584   12.2574 H   0  0  0  0  0  0  0  0  0  0  0  0
   41.9417   -3.1998   19.9862 C   0  0  0  0  0  0  0  0  0  0  0  0
   41.4119   -2.1483   20.7863 O   0  0  0  0  0  0  0  0  0  0  0  0
   41.1168   -2.3259   22.3674 P   0  0  0  0  0  0  0  0  0  0  0  0
   41.2391   -0.9694   23.0114 O   0  0  0  0  0  0  0  0  0  0  0  0
   41.9553   -3.4588   22.9147 O   0  0  0  0  0  0  0  0  0  0  0  0
   41.7775   -3.5641   23.8625 H   0  0  0  0  0  0  0  0  0  0  0  0
   39.5498   -2.7505   22.3475 O   0  0  0  0  0  0  0  0  0  0  0  0
   38.6707   -3.0159   23.6783 P   0  0  0  0  0  0  0  0  0  0  0  0
   39.5962   -3.6956   24.6489 O   0  0  0  0  0  0  0  0  0  0  0  0
   37.3788   -3.7021   23.2830 O   0  0  0  0  0  0  0  0  0  0  0  0
   36.8439   -3.8658   24.0755 H   0  0  0  0  0  0  0  0  0  0  0  0
   38.3001   -1.5408   24.2595 O   0  0  0  0  0  0  0  0  0  0  0  0
   37.4004   -0.4928   23.4369 P   0  0  0  0  0  0  0  0  0  0  0  0
   36.9097    0.4835   24.4814 O   0  0  0  0  0  0  0  0  0  0  0  0
   38.4068    0.0621   22.4539 O   0  0  0  0  0  0  0  0  0  0  0  0
   36.2829   -1.1515   22.6767 O   0  0  0  0  0  0  0  0  0  0  0  0
   37.9759    0.7209   21.8871 H   0  0  0  0  0  0  0  0  0  0  0  0
   35.7741   -0.4768   22.2005 H   0  0  0  0  0  0  0  0  0  0  0  0
 34 35  2  0  0  0
 34 36  1  0  0  0
 34 37  1  0  0  0
 34 33  1  0  0  0
 29 30  2  0  0  0
 29 31  1  0  0  0
 29 33  1  0  0  0
 29 28  1  0  0  0
 24 25  2  0  0  0
 24 26  1  0  0  0
 24 28  1  0  0  0
 24 23  1  0  0  0
 23 22  1  0  0  0
 22  1  1  0  0  0
  1  2  1  0  0  0
  1  3  1  0  0  0
  2  7  1  0  0  0
  3  4  1  0  0  0
  3  5  1  0  0  0
  5  6  1  0  0  0
  5  7  1  0  0  0
  7 10  1  0  0  0
 10 11  1  0  0  0
 10 19  1  0  0  0
 11 12  2  0  0  0
 12 13  1  0  0  0
 13 14  1  0  0  0
 13 19  2  0  0  0
 14 15  1  0  0  0
 14 16  2  0  0  0
 16 17  1  0  0  0
 17 18  2  0  0  0
 18 19  1  0  0  0
 36 38  1  0  0  0
 37 39  1  0  0  0
 31 32  1  0  0  0
 26 27  1  0  0  0
  4  8  1  0  0  0
  6  9  1  0  0  0
 15 20  1  0  0  0
 15 21  1  0  0  0
M  END
> <minimizedAffinity>
-7.05742

$$$$
