6CJV_G2Y_A_302


 28 29  0  0  0  0  0  0  0  0999 V2000
  -21.0075    6.2809   10.4397 C   0  0  0  0  0  0  0  0  0  0  0  0
  -21.1066    6.1213   11.9242 C   0  0  0  0  0  0  0  0  0  0  0  0
  -21.6998    4.7871   12.2364 C   0  0  0  0  0  0  0  0  0  0  0  0
  -23.1210    4.8077   11.6810 C   0  0  0  0  0  0  0  0  0  0  0  0
  -22.3167    5.8727    9.7373 C   0  0  0  0  0  0  0  0  0  0  0  0
  -22.8879    4.5925   10.2251 O   0  0  0  0  0  0  0  0  0  0  0  0
  -19.8091    6.2522   12.5508 O   0  0  0  0  0  0  0  0  0  0  0  0
  -21.6539    4.4832   13.6376 O   0  0  0  0  0  0  0  0  0  0  0  0
  -19.6130    5.2806    9.7774 Cl  0  0  0  0  0  0  0  0  0  0  0  0
  -19.2170    5.5608   12.2156 H   0  0  0  0  0  0  0  0  0  0  0  0
  -22.1503    5.1550   14.1306 H   0  0  0  0  0  0  0  0  0  0  0  0
  -22.1086    5.7621    8.2717 C   0  0  0  0  0  0  0  0  0  0  0  0
  -22.6201    4.4929    7.9225 O   0  0  0  0  0  0  0  0  0  0  0  0
  -22.1552    3.8071    8.4270 H   0  0  0  0  0  0  0  0  0  0  0  0
  -23.8356    3.8402   12.3043 O   0  0  0  0  0  0  0  0  0  0  0  0
  -25.1983    3.9138   12.7853 C   0  0  0  0  0  0  0  0  0  0  0  0
  -25.2422    5.7853   14.3144 C   0  0  0  0  0  0  0  0  0  0  0  0
  -25.1954    4.2571   14.3104 C   0  0  0  0  0  0  0  0  0  0  0  0
  -25.2041    6.2187   13.0093 C   0  0  0  0  0  0  0  0  0  0  0  0
  -25.3658    4.9550   12.0353 O   0  0  0  0  0  0  0  0  0  0  0  0
  -24.1697    3.7154   15.0175 O   0  0  0  0  0  0  0  0  0  0  0  0
  -26.4774    6.1710   15.0536 O   0  0  0  0  0  0  0  0  0  0  0  0
  -23.3262    4.0278   14.6545 H   0  0  0  0  0  0  0  0  0  0  0  0
  -27.2490    5.7663   14.6273 H   0  0  0  0  0  0  0  0  0  0  0  0
  -25.0244    2.4539   12.3667 C   0  0  0  0  0  0  0  0  0  0  0  0
  -25.9170    2.4688   10.8413 Cl  0  0  0  0  0  0  0  0  0  0  0  0
  -26.2535    7.2365   12.6535 C   0  0  0  0  0  0  0  0  0  0  0  0
  -25.8417    8.9294   13.1002 Cl  0  0  0  0  0  0  0  0  0  0  0  0
  7  2  1  0  0  0
  9  1  1  0  0  0
  1  2  1  0  0  0
  1  5  1  0  0  0
  2  3  1  0  0  0
 12  5  1  0  0  0
 12 13  1  0  0  0
  5  6  1  0  0  0
  3  8  1  0  0  0
  3  4  1  0  0  0
  6  4  1  0  0  0
  4 15  1  0  0  0
 21 18  1  0  0  0
 15 16  1  0  0  0
 18 17  1  0  0  0
 18 16  1  0  0  0
 17 19  1  0  0  0
 17 22  1  0  0  0
 25 16  1  0  0  0
 25 26  1  0  0  0
 16 20  1  0  0  0
 19 20  1  0  0  0
 19 27  1  0  0  0
 27 28  1  0  0  0
  7 10  1  0  0  0
  8 11  1  0  0  0
 13 14  1  0  0  0
 21 23  1  0  0  0
 22 24  1  0  0  0
M  END
> <minimizedAffinity>
-5.87035

$$$$
6CJV_G2Y_A_302


 28 29  0  0  0  0  0  0  0  0999 V2000
  -25.7091    8.7781    9.1213 C   0  0  0  0  0  0  0  0  0  0  0  0
  -25.2546    7.3558    9.2189 C   0  0  0  0  0  0  0  0  0  0  0  0
  -26.0245    6.6669   10.2969 C   0  0  0  0  0  0  0  0  0  0  0  0
  -25.6487    7.3596   11.6037 C   0  0  0  0  0  0  0  0  0  0  0  0
  -25.7923    9.4428   10.5089 C   0  0  0  0  0  0  0  0  0  0  0  0
  -26.4606    8.6073   11.5377 O   0  0  0  0  0  0  0  0  0  0  0  0
  -25.4278    6.6651    7.9594 O   0  0  0  0  0  0  0  0  0  0  0  0
  -25.7796    5.2537   10.3253 O   0  0  0  0  0  0  0  0  0  0  0  0
  -27.3479    8.8736    8.2910 Cl  0  0  0  0  0  0  0  0  0  0  0  0
  -26.3675    6.6618    7.7190 H   0  0  0  0  0  0  0  0  0  0  0  0
  -24.8358    5.0922   10.4806 H   0  0  0  0  0  0  0  0  0  0  0  0
  -26.5101   10.7394   10.4228 C   0  0  0  0  0  0  0  0  0  0  0  0
  -25.4998   11.7067   10.2285 O   0  0  0  0  0  0  0  0  0  0  0  0
  -24.8690   11.6677   10.9643 H   0  0  0  0  0  0  0  0  0  0  0  0
  -25.9472    6.5257   12.6287 O   0  0  0  0  0  0  0  0  0  0  0  0
  -25.1578    6.2538   13.8105 C   0  0  0  0  0  0  0  0  0  0  0  0
  -23.2501    4.9885   13.0348 C   0  0  0  0  0  0  0  0  0  0  0  0
  -24.5943    4.7975   13.7380 C   0  0  0  0  0  0  0  0  0  0  0  0
  -23.1227    6.3186   12.7075 C   0  0  0  0  0  0  0  0  0  0  0  0
  -24.3105    7.1425   13.4017 O   0  0  0  0  0  0  0  0  0  0  0  0
  -25.4210    3.8919   13.1532 O   0  0  0  0  0  0  0  0  0  0  0  0
  -22.2055    4.4836   13.9701 O   0  0  0  0  0  0  0  0  0  0  0  0
  -25.6115    4.1683   12.2432 H   0  0  0  0  0  0  0  0  0  0  0  0
  -22.2674    4.9610   14.8122 H   0  0  0  0  0  0  0  0  0  0  0  0
  -26.5757    6.4608   14.3432 C   0  0  0  0  0  0  0  0  0  0  0  0
  -26.3805    8.0380   15.1166 Cl  0  0  0  0  0  0  0  0  0  0  0  0
  -21.8113    6.9411   13.1034 C   0  0  0  0  0  0  0  0  0  0  0  0
  -21.9241    8.1576   14.4233 Cl  0  0  0  0  0  0  0  0  0  0  0  0
  7  2  1  0  0  0
  9  1  1  0  0  0
  1  2  1  0  0  0
  1  5  1  0  0  0
  2  3  1  0  0  0
 12  5  1  0  0  0
 12 13  1  0  0  0
  5  6  1  0  0  0
  3  8  1  0  0  0
  3  4  1  0  0  0
  6  4  1  0  0  0
  4 15  1  0  0  0
 21 18  1  0  0  0
 15 16  1  0  0  0
 18 17  1  0  0  0
 18 16  1  0  0  0
 17 19  1  0  0  0
 17 22  1  0  0  0
 25 16  1  0  0  0
 25 26  1  0  0  0
 16 20  1  0  0  0
 19 20  1  0  0  0
 19 27  1  0  0  0
 27 28  1  0  0  0
  7 10  1  0  0  0
  8 11  1  0  0  0
 13 14  1  0  0  0
 21 23  1  0  0  0
 22 24  1  0  0  0
M  END
> <minimizedAffinity>
-5.74083

$$$$
6CJV_G2Y_A_302


 28 29  0  0  0  0  0  0  0  0999 V2000
  -24.5385    5.1716   12.6752 C   0  0  0  0  0  0  0  0  0  0  0  0
  -24.3948    5.4029   11.2038 C   0  0  0  0  0  0  0  0  0  0  0  0
  -23.2161    4.6377   10.6991 C   0  0  0  0  0  0  0  0  0  0  0  0
  -21.9897    5.2384   11.3801 C   0  0  0  0  0  0  0  0  0  0  0  0
  -23.1912    5.3241   13.4070 C   0  0  0  0  0  0  0  0  0  0  0  0
  -22.0613    4.6311   12.7390 O   0  0  0  0  0  0  0  0  0  0  0  0
  -25.5914    5.0061   10.4940 O   0  0  0  0  0  0  0  0  0  0  0  0
  -23.1239    4.6580    9.2677 O   0  0  0  0  0  0  0  0  0  0  0  0
  -25.2313    3.4983   12.9981 Cl  0  0  0  0  0  0  0  0  0  0  0  0
  -25.7507    4.0594   10.6326 H   0  0  0  0  0  0  0  0  0  0  0  0
  -23.0398    5.5747    8.9620 H   0  0  0  0  0  0  0  0  0  0  0  0
  -23.2936    4.8152   14.7978 C   0  0  0  0  0  0  0  0  0  0  0  0
  -21.9892    4.3882   15.1300 O   0  0  0  0  0  0  0  0  0  0  0  0
  -21.6989    3.7132   14.4969 H   0  0  0  0  0  0  0  0  0  0  0  0
  -20.8950    4.9088   10.6534 O   0  0  0  0  0  0  0  0  0  0  0  0
  -19.8831    5.7955   10.1210 C   0  0  0  0  0  0  0  0  0  0  0  0
  -18.3099    4.3635    8.9735 C   0  0  0  0  0  0  0  0  0  0  0  0
  -18.4747    5.1365   10.2823 C   0  0  0  0  0  0  0  0  0  0  0  0
  -19.4647    4.5106    8.2405 C   0  0  0  0  0  0  0  0  0  0  0  0
  -20.3940    5.6103    8.9465 O   0  0  0  0  0  0  0  0  0  0  0  0
  -18.3156    4.3933   11.4083 O   0  0  0  0  0  0  0  0  0  0  0  0
  -17.0892    4.9040    8.3112 O   0  0  0  0  0  0  0  0  0  0  0  0
  -18.9677    3.6753   11.4167 H   0  0  0  0  0  0  0  0  0  0  0  0
  -17.1888    5.8599    8.1803 H   0  0  0  0  0  0  0  0  0  0  0  0
  -20.4694    6.5612   11.3071 C   0  0  0  0  0  0  0  0  0  0  0  0
  -19.5600    8.0706   11.1715 Cl  0  0  0  0  0  0  0  0  0  0  0  0
  -19.2524    4.9110    6.8057 C   0  0  0  0  0  0  0  0  0  0  0  0
  -20.6211    4.5219    5.7056 Cl  0  0  0  0  0  0  0  0  0  0  0  0
  7  2  1  0  0  0
  9  1  1  0  0  0
  1  2  1  0  0  0
  1  5  1  0  0  0
  2  3  1  0  0  0
 12  5  1  0  0  0
 12 13  1  0  0  0
  5  6  1  0  0  0
  3  8  1  0  0  0
  3  4  1  0  0  0
  6  4  1  0  0  0
  4 15  1  0  0  0
 21 18  1  0  0  0
 15 16  1  0  0  0
 18 17  1  0  0  0
 18 16  1  0  0  0
 17 19  1  0  0  0
 17 22  1  0  0  0
 25 16  1  0  0  0
 25 26  1  0  0  0
 16 20  1  0  0  0
 19 20  1  0  0  0
 19 27  1  0  0  0
 27 28  1  0  0  0
  7 10  1  0  0  0
  8 11  1  0  0  0
 13 14  1  0  0  0
 21 23  1  0  0  0
 22 24  1  0  0  0
M  END
> <minimizedAffinity>
-5.61987

$$$$
6CJV_G2Y_A_302


 28 29  0  0  0  0  0  0  0  0999 V2000
  -24.2486    5.4291   12.3675 C   0  0  0  0  0  0  0  0  0  0  0  0
  -23.2963    4.3224   12.0397 C   0  0  0  0  0  0  0  0  0  0  0  0
  -21.9527    4.6471   12.6043 C   0  0  0  0  0  0  0  0  0  0  0  0
  -21.4708    5.8983   11.8755 C   0  0  0  0  0  0  0  0  0  0  0  0
  -23.6363    6.8109   12.0676 C   0  0  0  0  0  0  0  0  0  0  0  0
  -22.2451    6.9725   12.5590 O   0  0  0  0  0  0  0  0  0  0  0  0
  -23.7669    3.0576   12.5611 O   0  0  0  0  0  0  0  0  0  0  0  0
  -21.0345    3.5505   12.4945 O   0  0  0  0  0  0  0  0  0  0  0  0
  -24.7476    5.3449   14.1361 Cl  0  0  0  0  0  0  0  0  0  0  0  0
  -23.8387    3.1126   13.5269 H   0  0  0  0  0  0  0  0  0  0  0  0
  -20.9190    3.3178   11.5600 H   0  0  0  0  0  0  0  0  0  0  0  0
  -24.4681    7.8885   12.6598 C   0  0  0  0  0  0  0  0  0  0  0  0
  -23.6173    8.5502   13.5722 O   0  0  0  0  0  0  0  0  0  0  0  0
  -23.2910    7.9153   14.2289 H   0  0  0  0  0  0  0  0  0  0  0  0
  -20.1251    5.9772   12.0094 O   0  0  0  0  0  0  0  0  0  0  0  0
  -19.1466    6.2680   10.9838 C   0  0  0  0  0  0  0  0  0  0  0  0
  -18.8465    4.1977    9.7732 C   0  0  0  0  0  0  0  0  0  0  0  0
  -18.1673    5.0582   10.8388 C   0  0  0  0  0  0  0  0  0  0  0  0
  -20.0393    4.7947    9.4362 C   0  0  0  0  0  0  0  0  0  0  0  0
  -20.1066    6.2455   10.1161 O   0  0  0  0  0  0  0  0  0  0  0  0
  -17.8811    4.4108   11.9984 O   0  0  0  0  0  0  0  0  0  0  0  0
  -17.8803    4.0766    8.6450 O   0  0  0  0  0  0  0  0  0  0  0  0
  -18.7006    4.0678   12.3879 H   0  0  0  0  0  0  0  0  0  0  0  0
  -17.6423    4.9615    8.3268 H   0  0  0  0  0  0  0  0  0  0  0  0
  -18.8696    7.3032   12.0740 C   0  0  0  0  0  0  0  0  0  0  0  0
  -19.3005    8.7804   11.2043 Cl  0  0  0  0  0  0  0  0  0  0  0  0
  -20.2713    4.9463    7.9573 C   0  0  0  0  0  0  0  0  0  0  0  0
  -21.9997    4.9214    7.4605 Cl  0  0  0  0  0  0  0  0  0  0  0  0
  7  2  1  0  0  0
  9  1  1  0  0  0
  1  2  1  0  0  0
  1  5  1  0  0  0
  2  3  1  0  0  0
 12  5  1  0  0  0
 12 13  1  0  0  0
  5  6  1  0  0  0
  3  8  1  0  0  0
  3  4  1  0  0  0
  6  4  1  0  0  0
  4 15  1  0  0  0
 21 18  1  0  0  0
 15 16  1  0  0  0
 18 17  1  0  0  0
 18 16  1  0  0  0
 17 19  1  0  0  0
 17 22  1  0  0  0
 25 16  1  0  0  0
 25 26  1  0  0  0
 16 20  1  0  0  0
 19 20  1  0  0  0
 19 27  1  0  0  0
 27 28  1  0  0  0
  7 10  1  0  0  0
  8 11  1  0  0  0
 13 14  1  0  0  0
 21 23  1  0  0  0
 22 24  1  0  0  0
M  END
> <minimizedAffinity>
-5.45135

$$$$
6CJV_G2Y_A_302


 28 29  0  0  0  0  0  0  0  0999 V2000
  -19.1218    5.2019    9.6680 C   0  0  0  0  0  0  0  0  0  0  0  0
  -19.4208    4.9779   11.1170 C   0  0  0  0  0  0  0  0  0  0  0  0
  -20.7328    4.2768   11.2451 C   0  0  0  0  0  0  0  0  0  0  0  0
  -21.7880    5.2359   10.7016 C   0  0  0  0  0  0  0  0  0  0  0  0
  -20.3409    5.7747    8.9198 C   0  0  0  0  0  0  0  0  0  0  0  0
  -21.6169    5.0826    9.2293 O   0  0  0  0  0  0  0  0  0  0  0  0
  -18.3753    4.2054   11.7521 O   0  0  0  0  0  0  0  0  0  0  0  0
  -21.0001    3.8598   12.5914 O   0  0  0  0  0  0  0  0  0  0  0  0
  -18.5895    3.6315    8.8714 Cl  0  0  0  0  0  0  0  0  0  0  0  0
  -18.3090    3.3376   11.3239 H   0  0  0  0  0  0  0  0  0  0  0  0
  -21.0166    4.6359   13.1730 H   0  0  0  0  0  0  0  0  0  0  0  0
  -20.1243    5.7191    7.4522 C   0  0  0  0  0  0  0  0  0  0  0  0
  -21.1425    4.8723    6.9621 O   0  0  0  0  0  0  0  0  0  0  0  0
  -21.0759    4.0048    7.3910 H   0  0  0  0  0  0  0  0  0  0  0  0
  -22.9952    4.8609   11.1884 O   0  0  0  0  0  0  0  0  0  0  0  0
  -24.0091    5.6998   11.7901 C   0  0  0  0  0  0  0  0  0  0  0  0
  -23.2119    6.1747   14.0220 C   0  0  0  0  0  0  0  0  0  0  0  0
  -24.2114    5.2841   13.2834 C   0  0  0  0  0  0  0  0  0  0  0  0
  -22.5200    6.9094   13.0870 C   0  0  0  0  0  0  0  0  0  0  0  0
  -23.2050    6.7043   11.6516 O   0  0  0  0  0  0  0  0  0  0  0  0
  -24.0825    3.9545   13.5305 O   0  0  0  0  0  0  0  0  0  0  0  0
  -24.0021    6.9938   14.9841 O   0  0  0  0  0  0  0  0  0  0  0  0
  -23.1944    3.6622   13.2721 H   0  0  0  0  0  0  0  0  0  0  0  0
  -24.6780    7.4959   14.5024 H   0  0  0  0  0  0  0  0  0  0  0  0
  -24.7575    4.9201   10.7090 C   0  0  0  0  0  0  0  0  0  0  0  0
  -25.7828    6.2070   10.0636 Cl  0  0  0  0  0  0  0  0  0  0  0  0
  -22.4437    8.3840   13.3764 C   0  0  0  0  0  0  0  0  0  0  0  0
  -23.6524    9.3863   12.4992 Cl  0  0  0  0  0  0  0  0  0  0  0  0
  7  2  1  0  0  0
  9  1  1  0  0  0
  1  2  1  0  0  0
  1  5  1  0  0  0
  2  3  1  0  0  0
 12  5  1  0  0  0
 12 13  1  0  0  0
  5  6  1  0  0  0
  3  8  1  0  0  0
  3  4  1  0  0  0
  6  4  1  0  0  0
  4 15  1  0  0  0
 21 18  1  0  0  0
 15 16  1  0  0  0
 18 17  1  0  0  0
 18 16  1  0  0  0
 17 19  1  0  0  0
 17 22  1  0  0  0
 25 16  1  0  0  0
 25 26  1  0  0  0
 16 20  1  0  0  0
 19 20  1  0  0  0
 19 27  1  0  0  0
 27 28  1  0  0  0
  7 10  1  0  0  0
  8 11  1  0  0  0
 13 14  1  0  0  0
 21 23  1  0  0  0
 22 24  1  0  0  0
M  END
> <minimizedAffinity>
-5.10509

$$$$
6CJV_G2Y_A_302


 28 29  0  0  0  0  0  0  0  0999 V2000
  -26.0538    9.0109   12.4518 C   0  0  0  0  0  0  0  0  0  0  0  0
  -24.9059    9.2138   13.3900 C   0  0  0  0  0  0  0  0  0  0  0  0
  -23.6295    8.9085   12.6779 C   0  0  0  0  0  0  0  0  0  0  0  0
  -23.6778    7.4244   12.3258 C   0  0  0  0  0  0  0  0  0  0  0  0
  -25.9343    7.6766   11.6905 C   0  0  0  0  0  0  0  0  0  0  0  0
  -24.5806    7.4164   11.1404 O   0  0  0  0  0  0  0  0  0  0  0  0
  -24.8833   10.5669   13.9018 O   0  0  0  0  0  0  0  0  0  0  0  0
  -22.4744    9.2597   13.4525 O   0  0  0  0  0  0  0  0  0  0  0  0
  -26.1558   10.4006   11.2509 Cl  0  0  0  0  0  0  0  0  0  0  0  0
  -24.7798   11.1895   13.1652 H   0  0  0  0  0  0  0  0  0  0  0  0
  -22.4799    8.7621   14.2851 H   0  0  0  0  0  0  0  0  0  0  0  0
  -26.9097    7.6259   10.5726 C   0  0  0  0  0  0  0  0  0  0  0  0
  -26.7253    6.3569    9.9811 O   0  0  0  0  0  0  0  0  0  0  0  0
  -25.8047    6.2670    9.6889 H   0  0  0  0  0  0  0  0  0  0  0  0
  -22.4121    7.0003   12.0952 O   0  0  0  0  0  0  0  0  0  0  0  0
  -21.8556    5.6887   12.3476 C   0  0  0  0  0  0  0  0  0  0  0  0
  -20.6312    5.1113   10.3452 C   0  0  0  0  0  0  0  0  0  0  0  0
  -21.9559    4.8210   11.0512 C   0  0  0  0  0  0  0  0  0  0  0  0
  -19.9430    6.0406   11.0904 C   0  0  0  0  0  0  0  0  0  0  0  0
  -20.6981    6.2498   12.4896 O   0  0  0  0  0  0  0  0  0  0  0  0
  -23.0648    5.0423   10.2982 O   0  0  0  0  0  0  0  0  0  0  0  0
  -19.9324    3.8034   10.1976 O   0  0  0  0  0  0  0  0  0  0  0  0
  -23.0868    5.9714   10.0204 H   0  0  0  0  0  0  0  0  0  0  0  0
  -19.8188    3.3971   11.0711 H   0  0  0  0  0  0  0  0  0  0  0  0
  -23.0731    5.7657   13.2689 C   0  0  0  0  0  0  0  0  0  0  0  0
  -22.3815    5.0751   14.7416 Cl  0  0  0  0  0  0  0  0  0  0  0  0
  -18.5073    5.6863   11.3679 C   0  0  0  0  0  0  0  0  0  0  0  0
  -17.6986    6.7268   12.5919 Cl  0  0  0  0  0  0  0  0  0  0  0  0
  7  2  1  0  0  0
  9  1  1  0  0  0
  1  2  1  0  0  0
  1  5  1  0  0  0
  2  3  1  0  0  0
 12  5  1  0  0  0
 12 13  1  0  0  0
  5  6  1  0  0  0
  3  8  1  0  0  0
  3  4  1  0  0  0
  6  4  1  0  0  0
  4 15  1  0  0  0
 21 18  1  0  0  0
 15 16  1  0  0  0
 18 17  1  0  0  0
 18 16  1  0  0  0
 17 19  1  0  0  0
 17 22  1  0  0  0
 25 16  1  0  0  0
 25 26  1  0  0  0
 16 20  1  0  0  0
 19 20  1  0  0  0
 19 27  1  0  0  0
 27 28  1  0  0  0
  7 10  1  0  0  0
  8 11  1  0  0  0
 13 14  1  0  0  0
 21 23  1  0  0  0
 22 24  1  0  0  0
M  END
> <minimizedAffinity>
-5.07555

$$$$
6CJV_G2Y_A_302


 28 29  0  0  0  0  0  0  0  0999 V2000
  -26.3409    9.1203   11.9213 C   0  0  0  0  0  0  0  0  0  0  0  0
  -25.1949    9.1026   12.8833 C   0  0  0  0  0  0  0  0  0  0  0  0
  -23.9588    8.6685   12.1670 C   0  0  0  0  0  0  0  0  0  0  0  0
  -24.2041    7.2306   11.7187 C   0  0  0  0  0  0  0  0  0  0  0  0
  -26.3912    7.8329   11.0763 C   0  0  0  0  0  0  0  0  0  0  0  0
  -25.0756    7.4225   10.5253 O   0  0  0  0  0  0  0  0  0  0  0  0
  -24.9962   10.4046   13.4822 O   0  0  0  0  0  0  0  0  0  0  0  0
  -22.7819    8.8066   12.9755 O   0  0  0  0  0  0  0  0  0  0  0  0
  -26.2264   10.5835   10.8122 Cl  0  0  0  0  0  0  0  0  0  0  0  0
  -24.7932   11.0518   12.7888 H   0  0  0  0  0  0  0  0  0  0  0  0
  -22.8725    8.2632   13.7739 H   0  0  0  0  0  0  0  0  0  0  0  0
  -27.3418    7.9885    9.9467 C   0  0  0  0  0  0  0  0  0  0  0  0
  -26.6152    7.6024    8.7990 O   0  0  0  0  0  0  0  0  0  0  0  0
  -25.8260    8.1597    8.7133 H   0  0  0  0  0  0  0  0  0  0  0  0
  -23.0046    6.6502   11.4749 O   0  0  0  0  0  0  0  0  0  0  0  0
  -22.5431    5.3495   11.9097 C   0  0  0  0  0  0  0  0  0  0  0  0
  -22.4205    5.4814   14.3200 C   0  0  0  0  0  0  0  0  0  0  0  0
  -21.5239    5.5226   13.0822 C   0  0  0  0  0  0  0  0  0  0  0  0
  -23.7263    5.3758   13.9001 C   0  0  0  0  0  0  0  0  0  0  0  0
  -23.7455    5.1031   12.3200 O   0  0  0  0  0  0  0  0  0  0  0  0
  -20.7266    6.6188   12.9911 O   0  0  0  0  0  0  0  0  0  0  0  0
  -21.9479    4.3370   15.1494 O   0  0  0  0  0  0  0  0  0  0  0  0
  -21.2762    7.4178   12.9723 H   0  0  0  0  0  0  0  0  0  0  0  0
  -21.9826    3.5216   14.6252 H   0  0  0  0  0  0  0  0  0  0  0  0
  -22.0305    5.4715   10.4747 C   0  0  0  0  0  0  0  0  0  0  0  0
  -20.5710    4.4812   10.5902 Cl  0  0  0  0  0  0  0  0  0  0  0  0
  -24.5215    4.2966   14.5833 C   0  0  0  0  0  0  0  0  0  0  0  0
  -25.1715    3.0305   13.4835 Cl  0  0  0  0  0  0  0  0  0  0  0  0
  7  2  1  0  0  0
  9  1  1  0  0  0
  1  2  1  0  0  0
  1  5  1  0  0  0
  2  3  1  0  0  0
 12  5  1  0  0  0
 12 13  1  0  0  0
  5  6  1  0  0  0
  3  8  1  0  0  0
  3  4  1  0  0  0
  6  4  1  0  0  0
  4 15  1  0  0  0
 21 18  1  0  0  0
 15 16  1  0  0  0
 18 17  1  0  0  0
 18 16  1  0  0  0
 17 19  1  0  0  0
 17 22  1  0  0  0
 25 16  1  0  0  0
 25 26  1  0  0  0
 16 20  1  0  0  0
 19 20  1  0  0  0
 19 27  1  0  0  0
 27 28  1  0  0  0
  7 10  1  0  0  0
  8 11  1  0  0  0
 13 14  1  0  0  0
 21 23  1  0  0  0
 22 24  1  0  0  0
M  END
> <minimizedAffinity>
-5.00744

$$$$
6CJV_G2Y_A_302


 28 29  0  0  0  0  0  0  0  0999 V2000
  -22.6980    9.9472   13.1749 C   0  0  0  0  0  0  0  0  0  0  0  0
  -23.3142    9.5741   11.8633 C   0  0  0  0  0  0  0  0  0  0  0  0
  -24.3570    8.5297   12.0898 C   0  0  0  0  0  0  0  0  0  0  0  0
  -23.6258    7.2996   12.6199 C   0  0  0  0  0  0  0  0  0  0  0  0
  -22.3271    8.7009   14.0016 C   0  0  0  0  0  0  0  0  0  0  0  0
  -23.3922    7.6681   14.0447 O   0  0  0  0  0  0  0  0  0  0  0  0
  -23.8940   10.7286   11.2120 O   0  0  0  0  0  0  0  0  0  0  0  0
  -25.1220    8.2562   10.9076 O   0  0  0  0  0  0  0  0  0  0  0  0
  -23.8432   11.0127   14.1430 Cl  0  0  0  0  0  0  0  0  0  0  0  0
  -24.5917   11.1004   11.7740 H   0  0  0  0  0  0  0  0  0  0  0  0
  -24.5309    7.9427   10.2053 H   0  0  0  0  0  0  0  0  0  0  0  0
  -21.9908    9.0825   15.3962 C   0  0  0  0  0  0  0  0  0  0  0  0
  -20.7972    9.8304   15.2950 O   0  0  0  0  0  0  0  0  0  0  0  0
  -20.1120    9.2902   14.8712 H   0  0  0  0  0  0  0  0  0  0  0  0
  -24.4153    6.2168   12.4217 O   0  0  0  0  0  0  0  0  0  0  0  0
  -24.0427    4.9382   11.8560 C   0  0  0  0  0  0  0  0  0  0  0  0
  -23.6810    5.3551    9.5028 C   0  0  0  0  0  0  0  0  0  0  0  0
  -24.7210    4.7687   10.4579 C   0  0  0  0  0  0  0  0  0  0  0  0
  -22.6326    5.8353   10.2530 C   0  0  0  0  0  0  0  0  0  0  0  0
  -22.8260    5.3720   11.7760 O   0  0  0  0  0  0  0  0  0  0  0  0
  -25.9621    5.3114   10.3537 O   0  0  0  0  0  0  0  0  0  0  0  0
  -23.3102    4.2651    8.5566 O   0  0  0  0  0  0  0  0  0  0  0  0
  -25.9147    6.2635   10.5327 H   0  0  0  0  0  0  0  0  0  0  0  0
  -22.9822    3.5010    9.0561 H   0  0  0  0  0  0  0  0  0  0  0  0
  -24.8474    4.5781   13.1048 C   0  0  0  0  0  0  0  0  0  0  0  0
  -25.0325    2.8384   12.8535 Cl  0  0  0  0  0  0  0  0  0  0  0  0
  -21.2716    5.3953    9.7864 C   0  0  0  0  0  0  0  0  0  0  0  0
  -20.3797    4.3503   10.9472 Cl  0  0  0  0  0  0  0  0  0  0  0  0
  7  2  1  0  0  0
  9  1  1  0  0  0
  1  2  1  0  0  0
  1  5  1  0  0  0
  2  3  1  0  0  0
 12  5  1  0  0  0
 12 13  1  0  0  0
  5  6  1  0  0  0
  3  8  1  0  0  0
  3  4  1  0  0  0
  6  4  1  0  0  0
  4 15  1  0  0  0
 21 18  1  0  0  0
 15 16  1  0  0  0
 18 17  1  0  0  0
 18 16  1  0  0  0
 17 19  1  0  0  0
 17 22  1  0  0  0
 25 16  1  0  0  0
 25 26  1  0  0  0
 16 20  1  0  0  0
 19 20  1  0  0  0
 19 27  1  0  0  0
 27 28  1  0  0  0
  7 10  1  0  0  0
  8 11  1  0  0  0
 13 14  1  0  0  0
 21 23  1  0  0  0
 22 24  1  0  0  0
M  END
> <minimizedAffinity>
-4.97866

$$$$
6CJV_G2Y_A_302


 28 29  0  0  0  0  0  0  0  0999 V2000
  -20.5904    5.0148   10.2004 C   0  0  0  0  0  0  0  0  0  0  0  0
  -22.0801    5.0940   10.0841 C   0  0  0  0  0  0  0  0  0  0  0  0
  -22.5321    6.4599   10.4834 C   0  0  0  0  0  0  0  0  0  0  0  0
  -22.1780    6.6157   11.9596 C   0  0  0  0  0  0  0  0  0  0  0  0
  -20.0950    5.5940   11.5394 C   0  0  0  0  0  0  0  0  0  0  0  0
  -20.7152    6.8934   11.8997 O   0  0  0  0  0  0  0  0  0  0  0  0
  -22.5149    4.7960    8.7367 O   0  0  0  0  0  0  0  0  0  0  0  0
  -23.9260    6.6729   10.2198 O   0  0  0  0  0  0  0  0  0  0  0  0
  -19.7886    5.9079    8.8063 Cl  0  0  0  0  0  0  0  0  0  0  0  0
  -22.1333    5.4432    8.1232 H   0  0  0  0  0  0  0  0  0  0  0  0
  -24.4515    6.0259   10.7160 H   0  0  0  0  0  0  0  0  0  0  0  0
  -18.6213    5.7711   11.5167 C   0  0  0  0  0  0  0  0  0  0  0  0
  -18.0927    4.4874   11.7759 O   0  0  0  0  0  0  0  0  0  0  0  0
  -18.4256    4.1669   12.6288 H   0  0  0  0  0  0  0  0  0  0  0  0
  -22.9377    7.6108   12.4769 O   0  0  0  0  0  0  0  0  0  0  0  0
  -23.7195    7.5894   13.6943 C   0  0  0  0  0  0  0  0  0  0  0  0
  -25.6142    6.1660   13.2189 C   0  0  0  0  0  0  0  0  0  0  0  0
  -25.2407    7.6438   13.3385 C   0  0  0  0  0  0  0  0  0  0  0  0
  -24.4741    5.4192   13.4058 C   0  0  0  0  0  0  0  0  0  0  0  0
  -23.2934    6.3850   13.9008 O   0  0  0  0  0  0  0  0  0  0  0  0
  -25.5484    8.4001   12.2527 O   0  0  0  0  0  0  0  0  0  0  0  0
  -26.6843    5.9151   14.2253 O   0  0  0  0  0  0  0  0  0  0  0  0
  -25.0869    8.0510   11.4742 H   0  0  0  0  0  0  0  0  0  0  0  0
  -26.3619    6.1575   15.1074 H   0  0  0  0  0  0  0  0  0  0  0  0
  -22.9412    8.9031   13.7688 C   0  0  0  0  0  0  0  0  0  0  0  0
  -22.1971    8.7233   15.3619 Cl  0  0  0  0  0  0  0  0  0  0  0  0
  -24.6158    4.2905   14.3906 C   0  0  0  0  0  0  0  0  0  0  0  0
  -25.3527    2.7938   13.7186 Cl  0  0  0  0  0  0  0  0  0  0  0  0
  7  2  1  0  0  0
  9  1  1  0  0  0
  1  2  1  0  0  0
  1  5  1  0  0  0
  2  3  1  0  0  0
 12  5  1  0  0  0
 12 13  1  0  0  0
  5  6  1  0  0  0
  3  8  1  0  0  0
  3  4  1  0  0  0
  6  4  1  0  0  0
  4 15  1  0  0  0
 21 18  1  0  0  0
 15 16  1  0  0  0
 18 17  1  0  0  0
 18 16  1  0  0  0
 17 19  1  0  0  0
 17 22  1  0  0  0
 25 16  1  0  0  0
 25 26  1  0  0  0
 16 20  1  0  0  0
 19 20  1  0  0  0
 19 27  1  0  0  0
 27 28  1  0  0  0
  7 10  1  0  0  0
  8 11  1  0  0  0
 13 14  1  0  0  0
 21 23  1  0  0  0
 22 24  1  0  0  0
M  END
> <minimizedAffinity>
-4.93510

$$$$
6CJV_G2Y_A_302


 28 29  0  0  0  0  0  0  0  0999 V2000
  -19.3700    6.5083   10.9509 C   0  0  0  0  0  0  0  0  0  0  0  0
  -20.3506    7.3778   11.6731 C   0  0  0  0  0  0  0  0  0  0  0  0
  -21.1031    6.5518   12.6636 C   0  0  0  0  0  0  0  0  0  0  0  0
  -21.9013    5.5326   11.8556 C   0  0  0  0  0  0  0  0  0  0  0  0
  -20.0204    5.1954   10.4744 C   0  0  0  0  0  0  0  0  0  0  0  0
  -20.8570    4.5295   11.5039 O   0  0  0  0  0  0  0  0  0  0  0  0
  -19.6832    8.4750   12.3394 O   0  0  0  0  0  0  0  0  0  0  0  0
  -21.9281    7.3488   13.5249 O   0  0  0  0  0  0  0  0  0  0  0  0
  -17.9304    6.1284   12.0314 Cl  0  0  0  0  0  0  0  0  0  0  0  0
  -19.0581    8.1243   12.9930 H   0  0  0  0  0  0  0  0  0  0  0  0
  -22.5730    7.8393   12.9917 H   0  0  0  0  0  0  0  0  0  0  0  0
  -18.9829    4.2341   10.0234 C   0  0  0  0  0  0  0  0  0  0  0  0
  -18.4807    4.7735    8.8188 O   0  0  0  0  0  0  0  0  0  0  0  0
  -19.2065    4.8776    8.1838 H   0  0  0  0  0  0  0  0  0  0  0  0
  -22.9118    5.0717   12.6312 O   0  0  0  0  0  0  0  0  0  0  0  0
  -24.3228    5.0231   12.3142 C   0  0  0  0  0  0  0  0  0  0  0  0
  -25.4202    4.3483   14.3594 C   0  0  0  0  0  0  0  0  0  0  0  0
  -24.9717    3.7834   13.0112 C   0  0  0  0  0  0  0  0  0  0  0  0
  -25.0216    5.6632   14.4272 C   0  0  0  0  0  0  0  0  0  0  0  0
  -24.4727    6.1165   12.9902 O   0  0  0  0  0  0  0  0  0  0  0  0
  -24.1735    2.6868   13.0887 O   0  0  0  0  0  0  0  0  0  0  0  0
  -26.8952    4.1492   14.4343 O   0  0  0  0  0  0  0  0  0  0  0  0
  -23.3711    2.9056   13.5878 H   0  0  0  0  0  0  0  0  0  0  0  0
  -27.3190    4.5841   13.6779 H   0  0  0  0  0  0  0  0  0  0  0  0
  -23.6266    4.8209   10.9684 C   0  0  0  0  0  0  0  0  0  0  0  0
  -24.9075    3.9776   10.0896 Cl  0  0  0  0  0  0  0  0  0  0  0  0
  -26.0963    6.6251   14.8558 C   0  0  0  0  0  0  0  0  0  0  0  0
  -26.9881    7.4079   13.5042 Cl  0  0  0  0  0  0  0  0  0  0  0  0
  7  2  1  0  0  0
  9  1  1  0  0  0
  1  2  1  0  0  0
  1  5  1  0  0  0
  2  3  1  0  0  0
 12  5  1  0  0  0
 12 13  1  0  0  0
  5  6  1  0  0  0
  3  8  1  0  0  0
  3  4  1  0  0  0
  6  4  1  0  0  0
  4 15  1  0  0  0
 21 18  1  0  0  0
 15 16  1  0  0  0
 18 17  1  0  0  0
 18 16  1  0  0  0
 17 19  1  0  0  0
 17 22  1  0  0  0
 25 16  1  0  0  0
 25 26  1  0  0  0
 16 20  1  0  0  0
 19 20  1  0  0  0
 19 27  1  0  0  0
 27 28  1  0  0  0
  7 10  1  0  0  0
  8 11  1  0  0  0
 13 14  1  0  0  0
 21 23  1  0  0  0
 22 24  1  0  0  0
M  END
> <minimizedAffinity>
-4.91096

$$$$
