6CJV_G2Y_A_302
  RCSB PDB08181802373D
Coordinates from PDB:6CJV:A:302 Model:1 without hydrogens
 23 24  0  0  0  0            999 V2000
  -23.2230    8.9990    8.6370   C 0  0  0  0  0  0  0  0  0  0  0  0
  -24.7120    9.0740    8.7650   C 0  0  0  0  0  0  0  0  0  0  0  0
  -25.0620    9.6600   10.0930   C 0  0  0  0  0  0  0  0  0  0  0  0
  -24.5600    8.6740   11.1440   C 0  0  0  0  0  0  0  0  0  0  0  0
  -22.5750    8.4020    9.9010   C 0  0  0  0  0  0  0  0  0  0  0  0
  -21.1040    8.6000    9.8750   C 0  0  0  0  0  0  0  0  0  0  0  0
  -25.2860    8.0710   13.4770   C 0  0  0  0  0  0  0  0  0  0  0  0
  -23.6320    6.3440   13.1250   C 0  0  0  0  0  0  0  0  0  0  0  0
  -25.1420    6.5730   13.0540   C 0  0  0  0  0  0  0  0  0  0  0  0
  -23.0330    7.5360   13.4610   C 0  0  0  0  0  0  0  0  0  0  0  0
  -26.6680    8.7200   13.4010   C 0  0  0  0  0  0  0  0  0  0  0  0
  -22.0380    7.4450   14.5860   C 0  0  0  0  0  0  0  0  0  0  0  0
  -23.0990    8.9660   11.1700   O 0  0  0  0  0  0  0  0  0  0  0  0
  -25.2880    9.8660    7.7000   O 0  0  0  0  0  0  0  0  0  0  0  0
  -26.4640    9.9380   10.2150   O 0  0  0  0  0  0  0  0  0  0  0  0
  -20.6010    7.7520   10.8860   O 0  0  0  0  0  0  0  0  0  0  0  0
  -25.2210    8.9130   12.3020   O 0  0  0  0  0  0  0  0  0  0  0  0
  -24.1680    8.5940   13.8660   O 0  0  0  0  0  0  0  0  0  0  0  0
  -25.7120    6.2570   11.8620   O 0  0  0  0  0  0  0  0  0  0  0  0
  -23.4140    5.2480   14.1110   O 0  0  0  0  0  0  0  0  0  0  0  0
  -22.5210   10.6680    8.3120  Cl 0  0  0  0  0  0  0  0  0  0  0  0
  -21.5630    9.0260   15.3000  Cl 0  0  0  0  0  0  0  0  0  0  0  0
  -27.2470    8.3900   15.0380  Cl 0  0  0  0  0  0  0  0  0  0  0  0
 14  2  1  0  0  0  0
 21  1  1  0  0  0  0
  1  2  1  0  0  0  0
  1  5  1  0  0  0  0
  2  3  1  0  0  0  0
  6  5  1  0  0  0  0
  6 16  1  0  0  0  0
  5 13  1  0  0  0  0
  3 15  1  0  0  0  0
  3  4  1  0  0  0  0
 13  4  1  0  0  0  0
  4 17  1  0  0  0  0
 19  9  1  0  0  0  0
 17  7  1  0  0  0  0
  9  8  1  0  0  0  0
  9  7  1  0  0  0  0
  8 10  1  0  0  0  0
  8 20  1  0  0  0  0
 11  7  1  0  0  0  0
 11 23  1  0  0  0  0
  7 18  1  0  0  0  0
 10 18  1  0  0  0  0
 10 12  1  0  0  0  0
 12 22  1  0  0  0  0
A    1
C01
A    2
C02
A    3
C03
A    4
C04
A    5
C06
A    6
C10
A    7
C13
A    8
C14
A    9
C15
A   10
C17
A   11
C18
A   12
C21
A   13
O05
A   14
O08
A   15
O09
A   16
O11
A   17
O12
A   18
O16
A   19
O19
A   20
O20
A   21
CL1
A   22
CL2
A   23
CL3
M  END
>  <InstanceId>
6CJV_G2Y_A_302

>  <ChemCompId>
G2Y

>  <PdbId>
6CJV

>  <ChainId>
A

>  <ResidueNumber>
302

>  <InsertionCode>


>  <Model>
1

>  <AltIds>


>  <MissingHeavyAtoms>
0

>  <ObservedFormula>
C12 O8 Cl3

>  <Name>
1,6-dichloro-1,6-dideoxy-alpha-L-sorbofuranosyl 4-chloro-4-deoxy-beta-D-galactopyranoside

>  <SystematicName>
(2~{S},3~{R},4~{R},5~{R},6~{R})-2-[(2~{R},3~{S},4~{S},5~{R})-2,5-bis(chloromethyl)-3,4-bis(oxidanyl)oxolan-2-yl]oxy-5-chloranyl-6-(hydroxymethyl)oxane-3,4-diol

>  <Synonyms>


>  <Type>
NON-POLYMER

>  <Formula>
C12 H19 Cl3 O8

>  <MolecularWeight>
397.633

>  <ModifiedDate>
2018-08-03

>  <Parent>


>  <OneLetterCode>


>  <SubcomponentList>


>  <AmbiguousFlag>
N

>  <InChI>
InChI=1S/C12H19Cl3O8/c13-1-4-7(17)10(20)12(3-14,22-4)23-11-9(19)8(18)6(15)5(2-16)21-11/h4-11,16-20H,1-3H2/t4-,5+,6-,7+,8-,9+,10-,11-,12-/m0/s1

>  <InChIKey>
BAQAVOSOZGMPRM-RGUBMTAVSA-N

>  <SMILES>
C([C@@H]1[C@@H]([C@@H]([C@H]([C@@H](O1)O[C@]2([C@H]([C@@H]([C@@H](O2)CCl)O)O)CCl)O)O)Cl)O

$$$$
