5SZ1_72E_A_307


 19 20  0  0  0  0  0  0  0  0999 V2000
   -0.7823    6.1636   84.3393 C   0  0  0  0  0  0  0  0  0  0  0  0
   -2.1298    6.1275   84.6949 C   0  0  0  0  0  0  0  0  0  0  0  0
   -2.6445    5.0066   85.3459 C   0  0  0  0  0  0  0  0  0  0  0  0
   -1.8178    3.9295   85.6630 C   0  0  0  0  0  0  0  0  0  0  0  0
   -0.4788    3.9782   85.3285 C   0  0  0  0  0  0  0  0  0  0  0  0
    0.0351    5.0963   84.6916 C   0  0  0  0  0  0  0  0  0  0  0  0
   -0.8684    6.8491   81.2951 C   0  0  0  0  0  0  0  0  0  0  0  0
   -0.1097    7.6808   82.3268 C   0  0  0  0  0  0  0  0  0  0  0  0
    0.5866    8.7943   81.8752 C   0  0  0  0  0  0  0  0  0  0  0  0
    1.2927    9.5935   82.7572 C   0  0  0  0  0  0  0  0  0  0  0  0
    1.3146    9.2837   84.1042 C   0  0  0  0  0  0  0  0  0  0  0  0
    0.6201    8.1709   84.5547 C   0  0  0  0  0  0  0  0  0  0  0  0
   -0.1246    7.3907   83.6882 C   0  0  0  0  0  0  0  0  0  0  0  0
   -2.4318    2.4486   86.5291 S   0  0  0  0  0  0  0  0  0  0  0  0
   -1.7532    1.1727   85.7850 O   0  0  0  0  0  0  0  0  0  0  0  0
   -1.9519    2.5375   88.0837 O   0  0  0  0  0  0  0  0  0  0  0  0
   -4.1294    2.3628   86.4320 N   0  0  0  0  0  0  0  0  0  0  0  0
   -4.5381    3.1698   86.9032 H   0  0  0  0  0  0  0  0  0  0  0  0
   -4.4528    1.5065   86.8821 H   0  0  0  0  0  0  0  0  0  0  0  0
  7  8  1  0  0  0
  9  8  2  0  0  0
  9 10  1  0  0  0
  8 13  1  0  0  0
 10 11  2  0  0  0
 13  1  1  0  0  0
 13 12  2  0  0  0
 11 12  1  0  0  0
  1  2  2  0  0  0
  1  6  1  0  0  0
  2  3  1  0  0  0
  6  5  2  0  0  0
  3  4  2  0  0  0
  5  4  1  0  0  0
  4 14  1  0  0  0
 17 14  1  0  0  0
 16 14  2  0  0  0
 14 15  2  0  0  0
 17 18  1  0  0  0
 17 19  1  0  0  0
M  END
> <minimizedAffinity>
-7.69493

$$$$
5SZ1_72E_A_307


 19 20  0  0  0  0  0  0  0  0999 V2000
   -0.7779    3.6593   83.9148 C   0  0  0  0  0  0  0  0  0  0  0  0
   -0.0046    4.8026   83.7187 C   0  0  0  0  0  0  0  0  0  0  0  0
    0.7762    4.9218   82.5692 C   0  0  0  0  0  0  0  0  0  0  0  0
    0.7741    3.9158   81.6037 C   0  0  0  0  0  0  0  0  0  0  0  0
   -0.0100    2.7946   81.7913 C   0  0  0  0  0  0  0  0  0  0  0  0
   -0.7944    2.6810   82.9279 C   0  0  0  0  0  0  0  0  0  0  0  0
   -2.8578    5.7729   84.8900 C   0  0  0  0  0  0  0  0  0  0  0  0
   -2.6143    4.4404   85.5946 C   0  0  0  0  0  0  0  0  0  0  0  0
   -3.3549    4.1677   86.7374 C   0  0  0  0  0  0  0  0  0  0  0  0
   -3.1863    2.9773   87.4230 C   0  0  0  0  0  0  0  0  0  0  0  0
   -2.2685    2.0460   86.9747 C   0  0  0  0  0  0  0  0  0  0  0  0
   -1.5283    2.3192   85.8341 C   0  0  0  0  0  0  0  0  0  0  0  0
   -1.7203    3.4865   85.1166 C   0  0  0  0  0  0  0  0  0  0  0  0
    1.7593    4.0270   80.0750 S   0  0  0  0  0  0  0  0  0  0  0  0
    1.7372    2.5435   79.4110 O   0  0  0  0  0  0  0  0  0  0  0  0
    1.0464    5.1140   79.0926 O   0  0  0  0  0  0  0  0  0  0  0  0
    3.3565    4.4988   80.4286 N   0  0  0  0  0  0  0  0  0  0  0  0
    3.3517    5.4304   80.8440 H   0  0  0  0  0  0  0  0  0  0  0  0
    3.9052    4.5126   79.5689 H   0  0  0  0  0  0  0  0  0  0  0  0
  7  8  1  0  0  0
  9  8  2  0  0  0
  9 10  1  0  0  0
  8 13  1  0  0  0
 10 11  2  0  0  0
 13  1  1  0  0  0
 13 12  2  0  0  0
 11 12  1  0  0  0
  1  2  2  0  0  0
  1  6  1  0  0  0
  2  3  1  0  0  0
  6  5  2  0  0  0
  3  4  2  0  0  0
  5  4  1  0  0  0
  4 14  1  0  0  0
 17 14  1  0  0  0
 16 14  2  0  0  0
 14 15  2  0  0  0
 17 18  1  0  0  0
 17 19  1  0  0  0
M  END
> <minimizedAffinity>
-7.53877

$$$$
5SZ1_72E_A_307


 19 20  0  0  0  0  0  0  0  0999 V2000
   -0.5674    6.0595   84.4116 C   0  0  0  0  0  0  0  0  0  0  0  0
    0.2289    4.9493   84.6894 C   0  0  0  0  0  0  0  0  0  0  0  0
   -0.3188    3.8537   85.3563 C   0  0  0  0  0  0  0  0  0  0  0  0
   -1.6622    3.8504   85.7297 C   0  0  0  0  0  0  0  0  0  0  0  0
   -2.4531    4.9430   85.4334 C   0  0  0  0  0  0  0  0  0  0  0  0
   -1.9120    6.0270   84.7609 C   0  0  0  0  0  0  0  0  0  0  0  0
   -0.8187    6.4191   81.3210 C   0  0  0  0  0  0  0  0  0  0  0  0
   -0.1161    7.4218   82.2333 C   0  0  0  0  0  0  0  0  0  0  0  0
    0.4491    8.5461   81.6458 C   0  0  0  0  0  0  0  0  0  0  0  0
    1.0980    9.4963   82.4147 C   0  0  0  0  0  0  0  0  0  0  0  0
    1.1938    9.3292   83.7835 C   0  0  0  0  0  0  0  0  0  0  0  0
    0.6303    8.2057   84.3698 C   0  0  0  0  0  0  0  0  0  0  0  0
   -0.0585    7.2721   83.6161 C   0  0  0  0  0  0  0  0  0  0  0  0
   -2.4348    2.4396   86.5856 S   0  0  0  0  0  0  0  0  0  0  0  0
   -1.8105    1.1000   85.9089 O   0  0  0  0  0  0  0  0  0  0  0  0
   -2.0422    2.5302   88.1644 O   0  0  0  0  0  0  0  0  0  0  0  0
   -4.1254    2.4760   86.3876 N   0  0  0  0  0  0  0  0  0  0  0  0
   -4.4999    3.3218   86.8174 H   0  0  0  0  0  0  0  0  0  0  0  0
   -4.5377    1.6567   86.8338 H   0  0  0  0  0  0  0  0  0  0  0  0
  7  8  1  0  0  0
  9  8  2  0  0  0
  9 10  1  0  0  0
  8 13  1  0  0  0
 10 11  2  0  0  0
 13  1  1  0  0  0
 13 12  2  0  0  0
 11 12  1  0  0  0
  1  2  2  0  0  0
  1  6  1  0  0  0
  2  3  1  0  0  0
  6  5  2  0  0  0
  3  4  2  0  0  0
  5  4  1  0  0  0
  4 14  1  0  0  0
 17 14  1  0  0  0
 16 14  2  0  0  0
 14 15  2  0  0  0
 17 18  1  0  0  0
 17 19  1  0  0  0
M  END
> <minimizedAffinity>
-7.39998

$$$$
5SZ1_72E_A_307


 19 20  0  0  0  0  0  0  0  0999 V2000
   -0.9500    5.8312   84.0154 C   0  0  0  0  0  0  0  0  0  0  0  0
   -0.1801    4.7553   84.4552 C   0  0  0  0  0  0  0  0  0  0  0  0
   -0.7262    3.8310   85.3455 C   0  0  0  0  0  0  0  0  0  0  0  0
   -2.0433    3.9622   85.7839 C   0  0  0  0  0  0  0  0  0  0  0  0
   -2.8097    5.0172   85.3291 C   0  0  0  0  0  0  0  0  0  0  0  0
   -2.2709    5.9294   84.4359 C   0  0  0  0  0  0  0  0  0  0  0  0
    0.7006    8.3990   84.6680 C   0  0  0  0  0  0  0  0  0  0  0  0
    0.2444    8.0237   83.2600 C   0  0  0  0  0  0  0  0  0  0  0  0
    0.5764    8.8836   82.2212 C   0  0  0  0  0  0  0  0  0  0  0  0
    0.1970    8.6021   80.9204 C   0  0  0  0  0  0  0  0  0  0  0  0
   -0.5256    7.4566   80.6442 C   0  0  0  0  0  0  0  0  0  0  0  0
   -0.8581    6.5987   81.6820 C   0  0  0  0  0  0  0  0  0  0  0  0
   -0.4461    6.8482   82.9790 C   0  0  0  0  0  0  0  0  0  0  0  0
   -2.8139    2.7748   86.9312 S   0  0  0  0  0  0  0  0  0  0  0  0
   -2.7005    3.4346   88.4123 O   0  0  0  0  0  0  0  0  0  0  0  0
   -4.3729    2.5903   86.4950 O   0  0  0  0  0  0  0  0  0  0  0  0
   -1.9984    1.2812   86.8790 N   0  0  0  0  0  0  0  0  0  0  0  0
   -2.0796    0.8819   85.9439 H   0  0  0  0  0  0  0  0  0  0  0  0
   -2.4134    0.6434   87.5583 H   0  0  0  0  0  0  0  0  0  0  0  0
  7  8  1  0  0  0
  9  8  2  0  0  0
  9 10  1  0  0  0
  8 13  1  0  0  0
 10 11  2  0  0  0
 13  1  1  0  0  0
 13 12  2  0  0  0
 11 12  1  0  0  0
  1  2  2  0  0  0
  1  6  1  0  0  0
  2  3  1  0  0  0
  6  5  2  0  0  0
  3  4  2  0  0  0
  5  4  1  0  0  0
  4 14  1  0  0  0
 17 14  1  0  0  0
 16 14  2  0  0  0
 14 15  2  0  0  0
 17 18  1  0  0  0
 17 19  1  0  0  0
M  END
> <minimizedAffinity>
-7.29091

$$$$
5SZ1_72E_A_307


 19 20  0  0  0  0  0  0  0  0999 V2000
   -0.3524    4.3560   84.2848 C   0  0  0  0  0  0  0  0  0  0  0  0
    0.6041    5.2898   84.6807 C   0  0  0  0  0  0  0  0  0  0  0  0
    1.5416    5.7544   83.7586 C   0  0  0  0  0  0  0  0  0  0  0  0
    1.5178    5.3082   82.4378 C   0  0  0  0  0  0  0  0  0  0  0  0
    0.5552    4.3996   82.0441 C   0  0  0  0  0  0  0  0  0  0  0  0
   -0.3833    3.9463   82.9572 C   0  0  0  0  0  0  0  0  0  0  0  0
   -2.9187    5.9573   85.0557 C   0  0  0  0  0  0  0  0  0  0  0  0
   -2.5858    4.5758   85.6144 C   0  0  0  0  0  0  0  0  0  0  0  0
   -3.4730    4.0141   86.5233 C   0  0  0  0  0  0  0  0  0  0  0  0
   -3.2337    2.7637   87.0661 C   0  0  0  0  0  0  0  0  0  0  0  0
   -2.0980    2.0615   86.7087 C   0  0  0  0  0  0  0  0  0  0  0  0
   -1.2116    2.6232   85.8019 C   0  0  0  0  0  0  0  0  0  0  0  0
   -1.4634    3.8530   85.2202 C   0  0  0  0  0  0  0  0  0  0  0  0
    2.7055    5.8951   81.1868 S   0  0  0  0  0  0  0  0  0  0  0  0
    3.2454    4.5700   80.4156 O   0  0  0  0  0  0  0  0  0  0  0  0
    1.9123    6.8818   80.1611 O   0  0  0  0  0  0  0  0  0  0  0  0
    3.9957    6.7198   81.9311 N   0  0  0  0  0  0  0  0  0  0  0  0
    3.6394    7.5472   82.4095 H   0  0  0  0  0  0  0  0  0  0  0  0
    4.6728    7.0020   81.2223 H   0  0  0  0  0  0  0  0  0  0  0  0
  7  8  1  0  0  0
  9  8  2  0  0  0
  9 10  1  0  0  0
  8 13  1  0  0  0
 10 11  2  0  0  0
 13  1  1  0  0  0
 13 12  2  0  0  0
 11 12  1  0  0  0
  1  2  2  0  0  0
  1  6  1  0  0  0
  2  3  1  0  0  0
  6  5  2  0  0  0
  3  4  2  0  0  0
  5  4  1  0  0  0
  4 14  1  0  0  0
 17 14  1  0  0  0
 16 14  2  0  0  0
 14 15  2  0  0  0
 17 18  1  0  0  0
 17 19  1  0  0  0
M  END
> <minimizedAffinity>
-7.20526

$$$$
5SZ1_72E_A_307


 19 20  0  0  0  0  0  0  0  0999 V2000
    0.6283    7.3872   84.1359 C   0  0  0  0  0  0  0  0  0  0  0  0
    1.5275    6.3220   84.1561 C   0  0  0  0  0  0  0  0  0  0  0  0
    1.0645    5.0293   84.4003 C   0  0  0  0  0  0  0  0  0  0  0  0
   -0.2939    4.7899   84.6042 C   0  0  0  0  0  0  0  0  0  0  0  0
   -1.1843    5.8446   84.5619 C   0  0  0  0  0  0  0  0  0  0  0  0
   -0.7260    7.1275   84.3082 C   0  0  0  0  0  0  0  0  0  0  0  0
    0.6080    8.6497   81.2811 C   0  0  0  0  0  0  0  0  0  0  0  0
    1.0955    9.3862   82.5266 C   0  0  0  0  0  0  0  0  0  0  0  0
    1.5645   10.6839   82.3691 C   0  0  0  0  0  0  0  0  0  0  0  0
    2.0184   11.4095   83.4567 C   0  0  0  0  0  0  0  0  0  0  0  0
    2.0130   10.8416   84.7169 C   0  0  0  0  0  0  0  0  0  0  0  0
    1.5456    9.5452   84.8736 C   0  0  0  0  0  0  0  0  0  0  0  0
    1.0490    8.8269   83.8004 C   0  0  0  0  0  0  0  0  0  0  0  0
   -0.9567    3.1201   84.9085 S   0  0  0  0  0  0  0  0  0  0  0  0
   -2.4533    3.3273   85.5080 O   0  0  0  0  0  0  0  0  0  0  0  0
   -1.0053    2.3289   83.4850 O   0  0  0  0  0  0  0  0  0  0  0  0
    0.0223    2.2847   86.0230 N   0  0  0  0  0  0  0  0  0  0  0  0
    0.9562    2.1636   85.6312 H   0  0  0  0  0  0  0  0  0  0  0  0
   -0.3865    1.3704   86.2161 H   0  0  0  0  0  0  0  0  0  0  0  0
  7  8  1  0  0  0
  9  8  2  0  0  0
  9 10  1  0  0  0
  8 13  1  0  0  0
 10 11  2  0  0  0
 13  1  1  0  0  0
 13 12  2  0  0  0
 11 12  1  0  0  0
  1  2  2  0  0  0
  1  6  1  0  0  0
  2  3  1  0  0  0
  6  5  2  0  0  0
  3  4  2  0  0  0
  5  4  1  0  0  0
  4 14  1  0  0  0
 17 14  1  0  0  0
 16 14  2  0  0  0
 14 15  2  0  0  0
 17 18  1  0  0  0
 17 19  1  0  0  0
M  END
> <minimizedAffinity>
-6.96606

$$$$
5SZ1_72E_A_307


 19 20  0  0  0  0  0  0  0  0999 V2000
   -1.1509    4.2704   83.6090 C   0  0  0  0  0  0  0  0  0  0  0  0
   -1.5374    3.6332   82.4308 C   0  0  0  0  0  0  0  0  0  0  0  0
   -0.8720    3.9186   81.2387 C   0  0  0  0  0  0  0  0  0  0  0  0
    0.1908    4.8210   81.2189 C   0  0  0  0  0  0  0  0  0  0  0  0
    0.5847    5.4338   82.3921 C   0  0  0  0  0  0  0  0  0  0  0  0
   -0.0690    5.1421   83.5786 C   0  0  0  0  0  0  0  0  0  0  0  0
   -0.5916    1.7091   85.3035 C   0  0  0  0  0  0  0  0  0  0  0  0
   -1.5848    2.7935   85.7149 C   0  0  0  0  0  0  0  0  0  0  0  0
   -2.2811    2.6163   86.9033 C   0  0  0  0  0  0  0  0  0  0  0  0
   -3.1939    3.5620   87.3368 C   0  0  0  0  0  0  0  0  0  0  0  0
   -3.4249    4.6962   86.5814 C   0  0  0  0  0  0  0  0  0  0  0  0
   -2.7303    4.8723   85.3939 C   0  0  0  0  0  0  0  0  0  0  0  0
   -1.7839    3.9548   84.9736 C   0  0  0  0  0  0  0  0  0  0  0  0
    1.1076    5.2172   79.6949 S   0  0  0  0  0  0  0  0  0  0  0  0
    2.1713    6.3798   80.0936 O   0  0  0  0  0  0  0  0  0  0  0  0
    1.8782    3.8681   79.2040 O   0  0  0  0  0  0  0  0  0  0  0  0
    0.0437    5.7705   78.4865 N   0  0  0  0  0  0  0  0  0  0  0  0
   -0.6158    5.0295   78.2488 H   0  0  0  0  0  0  0  0  0  0  0  0
    0.5771    6.0299   77.6567 H   0  0  0  0  0  0  0  0  0  0  0  0
  7  8  1  0  0  0
  9  8  2  0  0  0
  9 10  1  0  0  0
  8 13  1  0  0  0
 10 11  2  0  0  0
 13  1  1  0  0  0
 13 12  2  0  0  0
 11 12  1  0  0  0
  1  2  2  0  0  0
  1  6  1  0  0  0
  2  3  1  0  0  0
  6  5  2  0  0  0
  3  4  2  0  0  0
  5  4  1  0  0  0
  4 14  1  0  0  0
 17 14  1  0  0  0
 16 14  2  0  0  0
 14 15  2  0  0  0
 17 18  1  0  0  0
 17 19  1  0  0  0
M  END
> <minimizedAffinity>
-6.88307

$$$$
5SZ1_72E_A_307


 19 20  0  0  0  0  0  0  0  0999 V2000
    0.7470    7.6296   83.8172 C   0  0  0  0  0  0  0  0  0  0  0  0
    1.6613    6.5813   83.9100 C   0  0  0  0  0  0  0  0  0  0  0  0
    1.2281    5.3182   84.3127 C   0  0  0  0  0  0  0  0  0  0  0  0
   -0.1162    5.0895   84.6036 C   0  0  0  0  0  0  0  0  0  0  0  0
   -1.0225    6.1252   84.4895 C   0  0  0  0  0  0  0  0  0  0  0  0
   -0.5943    7.3774   84.0787 C   0  0  0  0  0  0  0  0  0  0  0  0
    1.9977    9.8960   85.5619 C   0  0  0  0  0  0  0  0  0  0  0  0
    1.6403   10.0655   84.0871 C   0  0  0  0  0  0  0  0  0  0  0  0
    1.8773   11.3024   83.5017 C   0  0  0  0  0  0  0  0  0  0  0  0
    1.5796   11.5233   82.1683 C   0  0  0  0  0  0  0  0  0  0  0  0
    1.0349   10.5080   81.4048 C   0  0  0  0  0  0  0  0  0  0  0  0
    0.7972    9.2732   81.9900 C   0  0  0  0  0  0  0  0  0  0  0  0
    1.1317    9.0286   83.3100 C   0  0  0  0  0  0  0  0  0  0  0  0
   -0.7408    3.4562   85.1157 S   0  0  0  0  0  0  0  0  0  0  0  0
   -1.0384    2.6334   83.7458 O   0  0  0  0  0  0  0  0  0  0  0  0
    0.4207    2.7237   85.9928 O   0  0  0  0  0  0  0  0  0  0  0  0
   -2.1653    3.6240   86.0327 N   0  0  0  0  0  0  0  0  0  0  0  0
   -1.9606    4.1418   86.8873 H   0  0  0  0  0  0  0  0  0  0  0  0
   -2.5258    2.7005   86.2729 H   0  0  0  0  0  0  0  0  0  0  0  0
  7  8  1  0  0  0
  9  8  2  0  0  0
  9 10  1  0  0  0
  8 13  1  0  0  0
 10 11  2  0  0  0
 13  1  1  0  0  0
 13 12  2  0  0  0
 11 12  1  0  0  0
  1  2  2  0  0  0
  1  6  1  0  0  0
  2  3  1  0  0  0
  6  5  2  0  0  0
  3  4  2  0  0  0
  5  4  1  0  0  0
  4 14  1  0  0  0
 17 14  1  0  0  0
 16 14  2  0  0  0
 14 15  2  0  0  0
 17 18  1  0  0  0
 17 19  1  0  0  0
M  END
> <minimizedAffinity>
-6.84737

$$$$
5SZ1_72E_A_307


 19 20  0  0  0  0  0  0  0  0999 V2000
   -0.1719    5.1969   84.3144 C   0  0  0  0  0  0  0  0  0  0  0  0
    0.4191    4.1586   85.0329 C   0  0  0  0  0  0  0  0  0  0  0  0
   -0.3542    3.3908   85.9034 C   0  0  0  0  0  0  0  0  0  0  0  0
   -1.7187    3.6397   86.0460 C   0  0  0  0  0  0  0  0  0  0  0  0
   -2.3048    4.6551   85.3162 C   0  0  0  0  0  0  0  0  0  0  0  0
   -1.5390    5.4107   84.4430 C   0  0  0  0  0  0  0  0  0  0  0  0
    0.3066    4.3935   81.3362 C   0  0  0  0  0  0  0  0  0  0  0  0
    0.8616    5.6688   81.9663 C   0  0  0  0  0  0  0  0  0  0  0  0
    1.6297    6.5047   81.1664 C   0  0  0  0  0  0  0  0  0  0  0  0
    2.1608    7.6780   81.6733 C   0  0  0  0  0  0  0  0  0  0  0  0
    1.9332    8.0264   82.9914 C   0  0  0  0  0  0  0  0  0  0  0  0
    1.1670    7.1906   83.7903 C   0  0  0  0  0  0  0  0  0  0  0  0
    0.5952    6.0380   83.2818 C   0  0  0  0  0  0  0  0  0  0  0  0
   -2.7804    2.6570   87.1537 S   0  0  0  0  0  0  0  0  0  0  0  0
   -2.0729    1.1996   87.2867 O   0  0  0  0  0  0  0  0  0  0  0  0
   -2.8367    3.4094   88.5979 O   0  0  0  0  0  0  0  0  0  0  0  0
   -4.3443    2.5038   86.4987 N   0  0  0  0  0  0  0  0  0  0  0  0
   -4.7729    3.4263   86.4224 H   0  0  0  0  0  0  0  0  0  0  0  0
   -4.9119    1.9145   87.1079 H   0  0  0  0  0  0  0  0  0  0  0  0
  7  8  1  0  0  0
  9  8  2  0  0  0
  9 10  1  0  0  0
  8 13  1  0  0  0
 10 11  2  0  0  0
 13  1  1  0  0  0
 13 12  2  0  0  0
 11 12  1  0  0  0
  1  2  2  0  0  0
  1  6  1  0  0  0
  2  3  1  0  0  0
  6  5  2  0  0  0
  3  4  2  0  0  0
  5  4  1  0  0  0
  4 14  1  0  0  0
 17 14  1  0  0  0
 16 14  2  0  0  0
 14 15  2  0  0  0
 17 18  1  0  0  0
 17 19  1  0  0  0
M  END
> <minimizedAffinity>
-6.65397

$$$$
5SZ1_72E_A_307


 19 20  0  0  0  0  0  0  0  0999 V2000
   -1.3974    6.6196   82.6873 C   0  0  0  0  0  0  0  0  0  0  0  0
   -0.5131    5.6025   82.3308 C   0  0  0  0  0  0  0  0  0  0  0  0
   -0.3325    4.5121   83.1815 C   0  0  0  0  0  0  0  0  0  0  0  0
   -1.0447    4.4202   84.3767 C   0  0  0  0  0  0  0  0  0  0  0  0
   -1.9359    5.4191   84.7160 C   0  0  0  0  0  0  0  0  0  0  0  0
   -2.1238    6.4970   83.8657 C   0  0  0  0  0  0  0  0  0  0  0  0
    0.7370    8.4772   81.3690 C   0  0  0  0  0  0  0  0  0  0  0  0
   -0.7687    8.6824   81.2197 C   0  0  0  0  0  0  0  0  0  0  0  0
   -1.2028    9.7637   80.4640 C   0  0  0  0  0  0  0  0  0  0  0  0
   -2.5536   10.0061   80.2857 C   0  0  0  0  0  0  0  0  0  0  0  0
   -3.4881    9.1699   80.8673 C   0  0  0  0  0  0  0  0  0  0  0  0
   -3.0542    8.0908   81.6228 C   0  0  0  0  0  0  0  0  0  0  0  0
   -1.7067    7.8143   81.7711 C   0  0  0  0  0  0  0  0  0  0  0  0
   -0.8626    3.0103   85.5164 S   0  0  0  0  0  0  0  0  0  0  0  0
    0.6880    3.0172   86.0040 O   0  0  0  0  0  0  0  0  0  0  0  0
   -1.8688    3.2460   86.7761 O   0  0  0  0  0  0  0  0  0  0  0  0
   -1.2320    1.5506   84.7220 N   0  0  0  0  0  0  0  0  0  0  0  0
   -2.2073    1.5634   84.4233 H   0  0  0  0  0  0  0  0  0  0  0  0
   -1.0821    0.7689   85.3599 H   0  0  0  0  0  0  0  0  0  0  0  0
  7  8  1  0  0  0
  9  8  2  0  0  0
  9 10  1  0  0  0
  8 13  1  0  0  0
 10 11  2  0  0  0
 13  1  1  0  0  0
 13 12  2  0  0  0
 11 12  1  0  0  0
  1  2  2  0  0  0
  1  6  1  0  0  0
  2  3  1  0  0  0
  6  5  2  0  0  0
  3  4  2  0  0  0
  5  4  1  0  0  0
  4 14  1  0  0  0
 17 14  1  0  0  0
 16 14  2  0  0  0
 14 15  2  0  0  0
 17 18  1  0  0  0
 17 19  1  0  0  0
M  END
> <minimizedAffinity>
-6.58214

$$$$
