5HU9_66K_A_601


 44 48  0  0  0  0  0  0  0  0999 V2000
   -7.5999  -27.6363  -15.5930 C   0  0  0  0  0  0  0  0  0  0  0  0
   -6.9830  -27.6088  -16.6138 O   0  0  0  0  0  0  0  0  0  0  0  0
   -7.4427  -28.6587  -14.7348 N   0  0  0  0  0  0  0  0  0  0  0  0
   -7.8209  -28.5785  -13.8293 H   0  0  0  0  0  0  0  0  0  0  0  0
   -6.7899  -29.7857  -15.0640 C   0  0  0  0  0  0  0  0  0  0  0  0
   -5.5901  -29.9212  -15.7516 C   0  0  0  0  0  0  0  0  0  0  0  0
   -7.4153  -30.9672  -14.7367 C   0  0  0  0  0  0  0  0  0  0  0  0
   -6.8584  -32.1780  -15.0476 C   0  0  0  0  0  0  0  0  0  0  0  0
   -5.6790  -32.2923  -15.6968 C   0  0  0  0  0  0  0  0  0  0  0  0
   -5.1563  -33.4977  -16.0105 C   0  0  0  0  0  0  0  0  0  0  0  0
   -5.0248  -31.1572  -16.0511 C   0  0  0  0  0  0  0  0  0  0  0  0
   -3.8781  -31.3931  -16.6583 O   0  0  0  0  0  0  0  0  0  0  0  0
   -3.1927  -30.3255  -17.2810 C   0  0  0  0  0  0  0  0  0  0  0  0
   -3.6899  -30.0584  -18.6645 C   0  0  0  0  0  0  0  0  0  0  0  0
   -3.3633  -31.1651  -19.6365 C   0  0  0  0  0  0  0  0  0  0  0  0
   -1.7646  -30.5885  -17.3295 C   0  0  0  0  0  0  0  0  0  0  0  0
   -1.4201  -31.6747  -18.3097 C   0  0  0  0  0  0  0  0  0  0  0  0
   -1.9889  -31.4892  -19.6213 N   0  0  0  0  0  0  0  0  0  0  0  0
   -1.2864  -31.6317  -20.7553 C   0  0  0  0  0  0  0  0  0  0  0  0
   -1.8215  -31.5319  -21.8267 O   0  0  0  0  0  0  0  0  0  0  0  0
    0.0951  -31.8046  -20.7481 C   0  0  0  0  0  0  0  0  0  0  0  0
    0.6661  -32.9659  -21.1989 C   0  0  0  0  0  0  0  0  0  0  0  0
    1.9877  -33.2287  -21.2006 C   0  0  0  0  0  0  0  0  0  0  0  0
    2.8512  -32.3156  -20.7003 C   0  0  0  0  0  0  0  0  0  0  0  0
    2.2982  -31.1610  -20.2028 N   0  0  0  0  0  0  0  0  0  0  0  0
    0.9665  -30.9101  -20.2072 C   0  0  0  0  0  0  0  0  0  0  0  0
   -9.9796  -24.2847  -14.4193 C   0  0  0  0  0  0  0  0  0  0  0  0
   -9.3419  -24.2999  -15.6487 C   0  0  0  0  0  0  0  0  0  0  0  0
   -8.5693  -25.3944  -16.0047 C   0  0  0  0  0  0  0  0  0  0  0  0
   -9.8266  -25.3988  -13.6135 C   0  0  0  0  0  0  0  0  0  0  0  0
   -9.0503  -26.4790  -13.9948 C   0  0  0  0  0  0  0  0  0  0  0  0
   -8.3941  -26.5292  -15.2006 C   0  0  0  0  0  0  0  0  0  0  0  0
   -9.4826  -23.1801  -16.5266 C   0  0  0  0  0  0  0  0  0  0  0  0
   -8.6031  -23.2972  -17.5148 F   0  0  0  0  0  0  0  0  0  0  0  0
   -9.2562  -22.0514  -15.8626 F   0  0  0  0  0  0  0  0  0  0  0  0
  -10.7138  -23.1594  -17.0281 F   0  0  0  0  0  0  0  0  0  0  0  0
  -10.7442  -23.1948  -13.9886 C   0  0  0  0  0  0  0  0  0  0  0  0
   -9.8294  -22.2403  -11.9226 C   0  0  0  0  0  0  0  0  0  0  0  0
   -9.9623  -22.1765  -10.4119 C   0  0  0  0  0  0  0  0  0  0  0  0
  -11.2989  -21.7608  -10.0423 N   0  0  0  0  0  0  0  0  0  0  0  0
  -11.4240  -21.6806   -8.5877 C   0  0  0  0  0  0  0  0  0  0  0  0
  -12.2838  -22.6217  -10.6314 C   0  0  0  0  0  0  0  0  0  0  0  0
  -12.1619  -22.6275  -12.1202 C   0  0  0  0  0  0  0  0  0  0  0  0
  -10.8354  -23.0260  -12.5355 N   0  0  0  0  0  0  0  0  0  0  0  0
 25 26  2  0  0  0
 25 24  1  0  0  0
 20 19  2  0  0  0
 26 21  1  0  0  0
 24 23  2  0  0  0
 21 19  1  0  0  0
 21 22  2  0  0  0
 19 18  1  0  0  0
 23 22  1  0  0  0
 18 15  1  0  0  0
 18 17  1  0  0  0
 15 14  1  0  0  0
 14 13  1  0  0  0
 17 16  1  0  0  0
 34 33  1  0  0  0
 16 13  1  0  0  0
 13 12  1  0  0  0
 36 33  1  0  0  0
 33 35  1  0  0  0
 33 28  1  0  0  0
 12 11  1  0  0  0
  2  1  2  0  0  0
 29 28  2  0  0  0
 29 32  1  0  0  0
 11  6  2  0  0  0
 11  9  1  0  0  0
 10  9  1  0  0  0
 28 27  1  0  0  0
  6  5  1  0  0  0
  9  8  2  0  0  0
  1 32  1  0  0  0
  1  3  1  0  0  0
 32 31  2  0  0  0
  5  3  1  0  0  0
  5  7  2  0  0  0
  8  7  1  0  0  0
 27 37  1  0  0  0
 27 30  2  0  0  0
 37 44  1  0  0  0
 31 30  1  0  0  0
 44 43  1  0  0  0
 44 38  1  0  0  0
 43 42  1  0  0  0
 38 39  1  0  0  0
 42 40  1  0  0  0
 39 40  1  0  0  0
 40 41  1  0  0  0
  3  4  1  0  0  0
M  END
> <minimizedAffinity>
-14.51555

$$$$
5HU9_66K_A_601


 44 48  0  0  0  0  0  0  0  0999 V2000
   -7.4002  -27.6683  -15.6448 C   0  0  0  0  0  0  0  0  0  0  0  0
   -7.5846  -27.5744  -14.4699 O   0  0  0  0  0  0  0  0  0  0  0  0
   -7.8257  -26.7016  -16.4760 N   0  0  0  0  0  0  0  0  0  0  0  0
   -7.5136  -26.7096  -17.4097 H   0  0  0  0  0  0  0  0  0  0  0  0
   -8.6601  -25.7249  -16.0827 C   0  0  0  0  0  0  0  0  0  0  0  0
   -9.5254  -25.7117  -14.9957 C   0  0  0  0  0  0  0  0  0  0  0  0
   -8.7182  -24.6136  -16.8925 C   0  0  0  0  0  0  0  0  0  0  0  0
   -9.5532  -23.5674  -16.6076 C   0  0  0  0  0  0  0  0  0  0  0  0
  -10.3722  -23.5606  -15.5329 C   0  0  0  0  0  0  0  0  0  0  0  0
  -11.2022  -22.5253  -15.2807 C   0  0  0  0  0  0  0  0  0  0  0  0
  -10.3609  -24.6370  -14.7063 C   0  0  0  0  0  0  0  0  0  0  0  0
  -11.1831  -24.5080  -13.6834 O   0  0  0  0  0  0  0  0  0  0  0  0
  -10.9991  -25.3198  -12.5413 C   0  0  0  0  0  0  0  0  0  0  0  0
  -11.9874  -25.0181  -11.4620 C   0  0  0  0  0  0  0  0  0  0  0  0
  -11.7875  -23.6596  -10.8370 C   0  0  0  0  0  0  0  0  0  0  0  0
   -9.6542  -25.1686  -12.0128 C   0  0  0  0  0  0  0  0  0  0  0  0
   -9.4451  -23.8274  -11.3673 C   0  0  0  0  0  0  0  0  0  0  0  0
  -10.4566  -23.4711  -10.4039 N   0  0  0  0  0  0  0  0  0  0  0  0
  -10.1747  -22.9748   -9.1898 C   0  0  0  0  0  0  0  0  0  0  0  0
  -11.0543  -22.6304   -8.4470 O   0  0  0  0  0  0  0  0  0  0  0  0
   -8.8724  -22.9240   -8.7000 C   0  0  0  0  0  0  0  0  0  0  0  0
   -8.1970  -21.7354   -8.6051 C   0  0  0  0  0  0  0  0  0  0  0  0
   -6.9286  -21.5985   -8.1718 C   0  0  0  0  0  0  0  0  0  0  0  0
   -6.2199  -22.6961   -7.8215 C   0  0  0  0  0  0  0  0  0  0  0  0
   -6.8619  -23.9035   -7.9492 N   0  0  0  0  0  0  0  0  0  0  0  0
   -8.1385  -24.0265   -8.3869 C   0  0  0  0  0  0  0  0  0  0  0  0
   -5.0043  -30.8479  -17.2017 C   0  0  0  0  0  0  0  0  0  0  0  0
   -5.7878  -31.0422  -16.0762 C   0  0  0  0  0  0  0  0  0  0  0  0
   -6.5507  -29.9944  -15.5849 C   0  0  0  0  0  0  0  0  0  0  0  0
   -5.0519  -29.6004  -17.7979 C   0  0  0  0  0  0  0  0  0  0  0  0
   -5.8242  -28.5721  -17.2869 C   0  0  0  0  0  0  0  0  0  0  0  0
   -6.6072  -28.7209  -16.1680 C   0  0  0  0  0  0  0  0  0  0  0  0
   -5.7880  -32.3191  -15.4327 C   0  0  0  0  0  0  0  0  0  0  0  0
   -6.7423  -32.3334  -14.5092 F   0  0  0  0  0  0  0  0  0  0  0  0
   -4.6102  -32.5375  -14.8569 F   0  0  0  0  0  0  0  0  0  0  0  0
   -6.0248  -33.2703  -16.3308 F   0  0  0  0  0  0  0  0  0  0  0  0
   -4.1863  -31.8556  -17.7247 C   0  0  0  0  0  0  0  0  0  0  0  0
   -1.7742  -31.6269  -18.1068 C   0  0  0  0  0  0  0  0  0  0  0  0
   -0.7042  -31.0559  -19.0193 C   0  0  0  0  0  0  0  0  0  0  0  0
   -0.9011  -31.5200  -20.3764 N   0  0  0  0  0  0  0  0  0  0  0  0
    0.1395  -30.9861  -21.2540 C   0  0  0  0  0  0  0  0  0  0  0  0
   -2.2227  -31.2062  -20.8379 C   0  0  0  0  0  0  0  0  0  0  0  0
   -3.2551  -31.8212  -19.9505 C   0  0  0  0  0  0  0  0  0  0  0  0
   -3.0886  -31.3937  -18.5791 N   0  0  0  0  0  0  0  0  0  0  0  0
 25 26  2  0  0  0
 25 24  1  0  0  0
 20 19  2  0  0  0
 26 21  1  0  0  0
 24 23  2  0  0  0
 21 19  1  0  0  0
 21 22  2  0  0  0
 19 18  1  0  0  0
 23 22  1  0  0  0
 18 15  1  0  0  0
 18 17  1  0  0  0
 15 14  1  0  0  0
 14 13  1  0  0  0
 17 16  1  0  0  0
 34 33  1  0  0  0
 16 13  1  0  0  0
 13 12  1  0  0  0
 36 33  1  0  0  0
 33 35  1  0  0  0
 33 28  1  0  0  0
 12 11  1  0  0  0
  2  1  2  0  0  0
 29 28  2  0  0  0
 29 32  1  0  0  0
 11  6  2  0  0  0
 11  9  1  0  0  0
 10  9  1  0  0  0
 28 27  1  0  0  0
  6  5  1  0  0  0
  9  8  2  0  0  0
  1 32  1  0  0  0
  1  3  1  0  0  0
 32 31  2  0  0  0
  5  3  1  0  0  0
  5  7  2  0  0  0
  8  7  1  0  0  0
 27 37  1  0  0  0
 27 30  2  0  0  0
 37 44  1  0  0  0
 31 30  1  0  0  0
 44 43  1  0  0  0
 44 38  1  0  0  0
 43 42  1  0  0  0
 38 39  1  0  0  0
 42 40  1  0  0  0
 39 40  1  0  0  0
 40 41  1  0  0  0
  3  4  1  0  0  0
M  END
> <minimizedAffinity>
-11.58266

$$$$
