4IVB_1J5_A_1201


 25 28  0  0  0  0  0  0  0  0999 V2000
    8.7653   57.6976   -0.5652 C   0  0  0  0  0  0  0  0  0  0  0  0
    7.6516   57.3186    0.1227 N   0  0  0  0  0  0  0  0  0  0  0  0
    6.8422   58.4434    0.2204 C   0  0  0  0  0  0  0  0  0  0  0  0
    7.5389   59.4776   -0.4398 C   0  0  0  0  0  0  0  0  0  0  0  0
    8.6988   58.9491   -0.8807 N   0  0  0  0  0  0  0  0  0  0  0  0
    7.0111   60.7639   -0.5144 C   0  0  0  0  0  0  0  0  0  0  0  0
    5.8450   61.0461    0.0061 N   0  0  0  0  0  0  0  0  0  0  0  0
    5.1267   60.1136    0.6192 C   0  0  0  0  0  0  0  0  0  0  0  0
    5.5833   58.7878    0.7541 C   0  0  0  0  0  0  0  0  0  0  0  0
    4.5378   58.0806    1.4683 C   0  0  0  0  0  0  0  0  0  0  0  0
    3.5621   58.9582    1.7083 C   0  0  0  0  0  0  0  0  0  0  0  0
    3.9112   60.1790    1.2006 N   0  0  0  0  0  0  0  0  0  0  0  0
    3.3551   60.9897    1.2521 H   0  0  0  0  0  0  0  0  0  0  0  0
    7.4188   55.9532    0.6316 C   0  0  0  0  0  0  0  0  0  0  0  0
    7.1997   55.9812    2.1561 C   0  0  0  0  0  0  0  0  0  0  0  0
    6.8555   54.5847    2.7019 C   0  0  0  0  0  0  0  0  0  0  0  0
    5.7172   53.9366    1.8763 C   0  0  0  0  0  0  0  0  0  0  0  0
    5.9948   53.9041    0.3619 C   0  0  0  0  0  0  0  0  0  0  0  0
    6.2352   55.3369   -0.1373 C   0  0  0  0  0  0  0  0  0  0  0  0
    5.5450   52.5518    2.3529 C   0  0  0  0  0  0  0  0  0  0  0  0
    5.3649   51.4908    2.7197 N   0  0  0  0  0  0  0  0  0  0  0  0
   10.6798   57.3102   -2.1289 C   0  0  0  0  0  0  0  0  0  0  0  0
    9.9358   56.8198   -0.8793 C   0  0  0  0  0  0  0  0  0  0  0  0
   10.7809   56.8774    0.2825 O   0  0  0  0  0  0  0  0  0  0  0  0
   11.0401   57.7973    0.4485 H   0  0  0  0  0  0  0  0  0  0  0  0
 24 23  1  0  0  0
  6  4  1  0  0  0
  6  7  2  0  0  0
  5  4  1  0  0  0
  5  1  2  0  0  0
  4  3  2  0  0  0
  7  8  1  0  0  0
 23  1  1  0  0  0
 23 22  1  0  0  0
  1  2  1  0  0  0
 15 16  1  0  0  0
 15 14  1  0  0  0
  8  9  2  0  0  0
  8 12  1  0  0  0
  3  2  1  0  0  0
  3  9  1  0  0  0
  2 14  1  0  0  0
  9 10  1  0  0  0
 12 11  1  0  0  0
 16 17  1  0  0  0
 14 19  1  0  0  0
 10 11  2  0  0  0
 17 20  1  0  0  0
 17 18  1  0  0  0
 19 18  1  0  0  0
 20 21  3  0  0  0
 24 25  1  0  0  0
 12 13  1  0  0  0
M  END
> <minimizedAffinity>
-9.74850

$$$$
4IVB_1J5_A_1201


 25 28  0  0  0  0  0  0  0  0999 V2000
    5.3935   58.5344    0.8496 C   0  0  0  0  0  0  0  0  0  0  0  0
    6.3163   57.5478    0.6701 N   0  0  0  0  0  0  0  0  0  0  0  0
    7.3422   58.0958   -0.0895 C   0  0  0  0  0  0  0  0  0  0  0  0
    6.9673   59.4338   -0.3348 C   0  0  0  0  0  0  0  0  0  0  0  0
    5.7709   59.6204    0.2594 N   0  0  0  0  0  0  0  0  0  0  0  0
    7.7743   60.2770   -1.0939 C   0  0  0  0  0  0  0  0  0  0  0  0
    8.9133   59.8606   -1.5834 N   0  0  0  0  0  0  0  0  0  0  0  0
    9.3369   58.6212   -1.3690 C   0  0  0  0  0  0  0  0  0  0  0  0
    8.5836   57.6932   -0.6234 C   0  0  0  0  0  0  0  0  0  0  0  0
    9.3642   56.4710   -0.6098 C   0  0  0  0  0  0  0  0  0  0  0  0
   10.4811   56.7095   -1.2994 C   0  0  0  0  0  0  0  0  0  0  0  0
   10.4688   57.9982   -1.7565 N   0  0  0  0  0  0  0  0  0  0  0  0
   11.1838   58.4120   -2.2920 H   0  0  0  0  0  0  0  0  0  0  0  0
    6.1834   56.1824    1.2138 C   0  0  0  0  0  0  0  0  0  0  0  0
    6.1519   55.1521    0.0691 C   0  0  0  0  0  0  0  0  0  0  0  0
    6.1143   53.7116    0.6080 C   0  0  0  0  0  0  0  0  0  0  0  0
    7.2180   53.4933    1.6717 C   0  0  0  0  0  0  0  0  0  0  0  0
    7.1905   54.5289    2.8111 C   0  0  0  0  0  0  0  0  0  0  0  0
    7.3280   55.9381    2.2148 C   0  0  0  0  0  0  0  0  0  0  0  0
    7.0279   52.1508    2.2514 C   0  0  0  0  0  0  0  0  0  0  0  0
    6.8344   51.1241    2.6998 N   0  0  0  0  0  0  0  0  0  0  0  0
    3.4502   59.7580    1.8430 C   0  0  0  0  0  0  0  0  0  0  0  0
    4.0956   58.3905    1.5802 C   0  0  0  0  0  0  0  0  0  0  0  0
    3.2651   57.5806    0.7306 O   0  0  0  0  0  0  0  0  0  0  0  0
    3.1610   58.0161   -0.1299 H   0  0  0  0  0  0  0  0  0  0  0  0
 24 23  1  0  0  0
  6  4  1  0  0  0
  6  7  2  0  0  0
  5  4  1  0  0  0
  5  1  2  0  0  0
  4  3  2  0  0  0
  7  8  1  0  0  0
 23  1  1  0  0  0
 23 22  1  0  0  0
  1  2  1  0  0  0
 15 16  1  0  0  0
 15 14  1  0  0  0
  8  9  2  0  0  0
  8 12  1  0  0  0
  3  2  1  0  0  0
  3  9  1  0  0  0
  2 14  1  0  0  0
  9 10  1  0  0  0
 12 11  1  0  0  0
 16 17  1  0  0  0
 14 19  1  0  0  0
 10 11  2  0  0  0
 17 20  1  0  0  0
 17 18  1  0  0  0
 19 18  1  0  0  0
 20 21  3  0  0  0
 24 25  1  0  0  0
 12 13  1  0  0  0
M  END
> <minimizedAffinity>
-8.17481

$$$$
4IVB_1J5_A_1201


 25 28  0  0  0  0  0  0  0  0999 V2000
    9.9429   55.1613    0.3232 C   0  0  0  0  0  0  0  0  0  0  0  0
    8.5944   55.2704    0.4872 N   0  0  0  0  0  0  0  0  0  0  0  0
    8.2626   56.5863    0.1902 C   0  0  0  0  0  0  0  0  0  0  0  0
    9.4755   57.2217   -0.1502 C   0  0  0  0  0  0  0  0  0  0  0  0
   10.4485   56.2946   -0.0372 N   0  0  0  0  0  0  0  0  0  0  0  0
    9.5072   58.5717   -0.4896 C   0  0  0  0  0  0  0  0  0  0  0  0
    8.4115   59.2848   -0.5241 N   0  0  0  0  0  0  0  0  0  0  0  0
    7.2341   58.7425   -0.2393 C   0  0  0  0  0  0  0  0  0  0  0  0
    7.1045   57.3882    0.1261 C   0  0  0  0  0  0  0  0  0  0  0  0
    5.6885   57.1745    0.3550 C   0  0  0  0  0  0  0  0  0  0  0  0
    5.0730   58.3356    0.1255 C   0  0  0  0  0  0  0  0  0  0  0  0
    5.9964   59.2789   -0.2313 N   0  0  0  0  0  0  0  0  0  0  0  0
    5.7878   60.2156   -0.4510 H   0  0  0  0  0  0  0  0  0  0  0  0
    7.7188   54.1566    0.8999 C   0  0  0  0  0  0  0  0  0  0  0  0
    7.1634   54.4093    2.3144 C   0  0  0  0  0  0  0  0  0  0  0  0
    6.1679   53.3137    2.7332 C   0  0  0  0  0  0  0  0  0  0  0  0
    5.1053   53.0853    1.6304 C   0  0  0  0  0  0  0  0  0  0  0  0
    5.7080   52.8068    0.2409 C   0  0  0  0  0  0  0  0  0  0  0  0
    6.6150   53.9803   -0.1595 C   0  0  0  0  0  0  0  0  0  0  0  0
    4.2833   51.9272    2.0275 C   0  0  0  0  0  0  0  0  0  0  0  0
    3.6898   51.0106    2.3441 N   0  0  0  0  0  0  0  0  0  0  0  0
   11.3062   53.3547   -0.7437 C   0  0  0  0  0  0  0  0  0  0  0  0
   10.7530   53.9272    0.5684 C   0  0  0  0  0  0  0  0  0  0  0  0
   11.8174   54.3352    1.4448 O   0  0  0  0  0  0  0  0  0  0  0  0
   12.3324   55.0400    1.0218 H   0  0  0  0  0  0  0  0  0  0  0  0
 24 23  1  0  0  0
  6  4  1  0  0  0
  6  7  2  0  0  0
  5  4  1  0  0  0
  5  1  2  0  0  0
  4  3  2  0  0  0
  7  8  1  0  0  0
 23  1  1  0  0  0
 23 22  1  0  0  0
  1  2  1  0  0  0
 15 16  1  0  0  0
 15 14  1  0  0  0
  8  9  2  0  0  0
  8 12  1  0  0  0
  3  2  1  0  0  0
  3  9  1  0  0  0
  2 14  1  0  0  0
  9 10  1  0  0  0
 12 11  1  0  0  0
 16 17  1  0  0  0
 14 19  1  0  0  0
 10 11  2  0  0  0
 17 20  1  0  0  0
 17 18  1  0  0  0
 19 18  1  0  0  0
 20 21  3  0  0  0
 24 25  1  0  0  0
 12 13  1  0  0  0
M  END
> <minimizedAffinity>
-8.00885

$$$$
4IVB_1J5_A_1201


 25 28  0  0  0  0  0  0  0  0999 V2000
    6.5693   57.4171    0.0263 C   0  0  0  0  0  0  0  0  0  0  0  0
    7.0362   56.1722    0.3257 N   0  0  0  0  0  0  0  0  0  0  0  0
    8.3654   56.1383   -0.0767 C   0  0  0  0  0  0  0  0  0  0  0  0
    8.6369   57.4133   -0.6164 C   0  0  0  0  0  0  0  0  0  0  0  0
    7.4966   58.1279   -0.5260 N   0  0  0  0  0  0  0  0  0  0  0  0
    9.8916   57.7194   -1.1367 C   0  0  0  0  0  0  0  0  0  0  0  0
   10.8611   56.8419   -1.1208 N   0  0  0  0  0  0  0  0  0  0  0  0
   10.6798   55.6325   -0.6051 C   0  0  0  0  0  0  0  0  0  0  0  0
    9.4424   55.2283   -0.0666 C   0  0  0  0  0  0  0  0  0  0  0  0
    9.6368   53.8659    0.3909 C   0  0  0  0  0  0  0  0  0  0  0  0
   10.9031   53.5390    0.1272 C   0  0  0  0  0  0  0  0  0  0  0  0
   11.5323   54.5958   -0.4703 N   0  0  0  0  0  0  0  0  0  0  0  0
   12.4730   54.5996   -0.7605 H   0  0  0  0  0  0  0  0  0  0  0  0
    6.2251   55.1155    0.9606 C   0  0  0  0  0  0  0  0  0  0  0  0
    6.1534   53.8762    0.0485 C   0  0  0  0  0  0  0  0  0  0  0  0
    5.3976   52.7204    0.7263 C   0  0  0  0  0  0  0  0  0  0  0  0
    5.9437   52.4677    2.1529 C   0  0  0  0  0  0  0  0  0  0  0  0
    5.9679   53.7287    3.0367 C   0  0  0  0  0  0  0  0  0  0  0  0
    6.8161   54.8096    2.3495 C   0  0  0  0  0  0  0  0  0  0  0  0
    5.0807   51.4593    2.7954 C   0  0  0  0  0  0  0  0  0  0  0  0
    4.4502   50.6736    3.3224 N   0  0  0  0  0  0  0  0  0  0  0  0
    4.8900   58.1211    1.7424 C   0  0  0  0  0  0  0  0  0  0  0  0
    5.1706   57.8998    0.2498 C   0  0  0  0  0  0  0  0  0  0  0  0
    5.0682   59.1317   -0.4846 O   0  0  0  0  0  0  0  0  0  0  0  0
    5.7340   59.7580   -0.1598 H   0  0  0  0  0  0  0  0  0  0  0  0
 24 23  1  0  0  0
  6  4  1  0  0  0
  6  7  2  0  0  0
  5  4  1  0  0  0
  5  1  2  0  0  0
  4  3  2  0  0  0
  7  8  1  0  0  0
 23  1  1  0  0  0
 23 22  1  0  0  0
  1  2  1  0  0  0
 15 16  1  0  0  0
 15 14  1  0  0  0
  8  9  2  0  0  0
  8 12  1  0  0  0
  3  2  1  0  0  0
  3  9  1  0  0  0
  2 14  1  0  0  0
  9 10  1  0  0  0
 12 11  1  0  0  0
 16 17  1  0  0  0
 14 19  1  0  0  0
 10 11  2  0  0  0
 17 20  1  0  0  0
 17 18  1  0  0  0
 19 18  1  0  0  0
 20 21  3  0  0  0
 24 25  1  0  0  0
 12 13  1  0  0  0
M  END
> <minimizedAffinity>
-7.45098

$$$$
4IVB_1J5_A_1201


 25 28  0  0  0  0  0  0  0  0999 V2000
    6.3592   56.6455    1.4839 C   0  0  0  0  0  0  0  0  0  0  0  0
    7.4377   56.6717    0.6512 N   0  0  0  0  0  0  0  0  0  0  0  0
    7.4748   57.9410    0.0878 C   0  0  0  0  0  0  0  0  0  0  0  0
    6.3751   58.6366    0.6333 C   0  0  0  0  0  0  0  0  0  0  0  0
    5.7435   57.7815    1.4633 N   0  0  0  0  0  0  0  0  0  0  0  0
    6.1028   59.9510    0.2632 C   0  0  0  0  0  0  0  0  0  0  0  0
    6.8703   60.5862   -0.5839 N   0  0  0  0  0  0  0  0  0  0  0  0
    7.9351   59.9983   -1.1151 C   0  0  0  0  0  0  0  0  0  0  0  0
    8.2835   58.6679   -0.8099 C   0  0  0  0  0  0  0  0  0  0  0  0
    9.4859   58.3898   -1.5715 C   0  0  0  0  0  0  0  0  0  0  0  0
    9.7868   59.4979   -2.2507 C   0  0  0  0  0  0  0  0  0  0  0  0
    8.8591   60.4653   -1.9798 N   0  0  0  0  0  0  0  0  0  0  0  0
    8.8648   61.3728   -2.3613 H   0  0  0  0  0  0  0  0  0  0  0  0
    8.3494   55.5302    0.4429 C   0  0  0  0  0  0  0  0  0  0  0  0
    9.5686   55.6424    1.3778 C   0  0  0  0  0  0  0  0  0  0  0  0
   10.4880   54.4151    1.2550 C   0  0  0  0  0  0  0  0  0  0  0  0
    9.6739   53.1037    1.3753 C   0  0  0  0  0  0  0  0  0  0  0  0
    8.4842   53.0243    0.4007 C   0  0  0  0  0  0  0  0  0  0  0  0
    7.5560   54.2249    0.6395 C   0  0  0  0  0  0  0  0  0  0  0  0
   10.5856   51.9784    1.0976 C   0  0  0  0  0  0  0  0  0  0  0  0
   11.3052   51.1147    0.9281 N   0  0  0  0  0  0  0  0  0  0  0  0
    6.5432   55.4535    3.6761 C   0  0  0  0  0  0  0  0  0  0  0  0
    5.9030   55.4643    2.2813 C   0  0  0  0  0  0  0  0  0  0  0  0
    4.4733   55.5898    2.3687 O   0  0  0  0  0  0  0  0  0  0  0  0
    4.2480   56.4332    2.7916 H   0  0  0  0  0  0  0  0  0  0  0  0
 24 23  1  0  0  0
  6  4  1  0  0  0
  6  7  2  0  0  0
  5  4  1  0  0  0
  5  1  2  0  0  0
  4  3  2  0  0  0
  7  8  1  0  0  0
 23  1  1  0  0  0
 23 22  1  0  0  0
  1  2  1  0  0  0
 15 16  1  0  0  0
 15 14  1  0  0  0
  8  9  2  0  0  0
  8 12  1  0  0  0
  3  2  1  0  0  0
  3  9  1  0  0  0
  2 14  1  0  0  0
  9 10  1  0  0  0
 12 11  1  0  0  0
 16 17  1  0  0  0
 14 19  1  0  0  0
 10 11  2  0  0  0
 17 20  1  0  0  0
 17 18  1  0  0  0
 19 18  1  0  0  0
 20 21  3  0  0  0
 24 25  1  0  0  0
 12 13  1  0  0  0
M  END
> <minimizedAffinity>
-7.22899

$$$$
4IVB_1J5_A_1201


 25 28  0  0  0  0  0  0  0  0999 V2000
    7.2127   59.2836   -0.3217 C   0  0  0  0  0  0  0  0  0  0  0  0
    7.9198   58.1211   -0.3985 N   0  0  0  0  0  0  0  0  0  0  0  0
    8.9926   58.3632   -1.2471 C   0  0  0  0  0  0  0  0  0  0  0  0
    8.8687   59.7098   -1.6499 C   0  0  0  0  0  0  0  0  0  0  0  0
    7.7610   60.1965   -1.0538 N   0  0  0  0  0  0  0  0  0  0  0  0
    9.7834   60.2822   -2.5298 C   0  0  0  0  0  0  0  0  0  0  0  0
   10.7961   59.5955   -2.9916 N   0  0  0  0  0  0  0  0  0  0  0  0
   10.9850   58.3317   -2.6331 C   0  0  0  0  0  0  0  0  0  0  0  0
   10.1061   57.6646   -1.7573 C   0  0  0  0  0  0  0  0  0  0  0  0
   10.6383   56.3237   -1.6092 C   0  0  0  0  0  0  0  0  0  0  0  0
   11.7446   56.2550   -2.3516 C   0  0  0  0  0  0  0  0  0  0  0  0
   11.9563   57.4574   -2.9675 N   0  0  0  0  0  0  0  0  0  0  0  0
   12.7098   57.6565   -3.5690 H   0  0  0  0  0  0  0  0  0  0  0  0
    7.5553   56.8829    0.3167 C   0  0  0  0  0  0  0  0  0  0  0  0
    7.0177   55.8324   -0.6735 C   0  0  0  0  0  0  0  0  0  0  0  0
    6.7226   54.4954    0.0280 C   0  0  0  0  0  0  0  0  0  0  0  0
    7.9305   54.0462    0.8862 C   0  0  0  0  0  0  0  0  0  0  0  0
    8.4128   55.1178    1.8816 C   0  0  0  0  0  0  0  0  0  0  0  0
    8.7818   56.3935    1.1092 C   0  0  0  0  0  0  0  0  0  0  0  0
    7.5257   52.8480    1.6444 C   0  0  0  0  0  0  0  0  0  0  0  0
    7.2244   51.8975    2.1908 N   0  0  0  0  0  0  0  0  0  0  0  0
    5.5398   60.9638    0.4779 C   0  0  0  0  0  0  0  0  0  0  0  0
    5.9489   59.4847    0.4541 C   0  0  0  0  0  0  0  0  0  0  0  0
    4.9582   58.6840   -0.2127 O   0  0  0  0  0  0  0  0  0  0  0  0
    4.8776   58.9716   -1.1355 H   0  0  0  0  0  0  0  0  0  0  0  0
 24 23  1  0  0  0
  6  4  1  0  0  0
  6  7  2  0  0  0
  5  4  1  0  0  0
  5  1  2  0  0  0
  4  3  2  0  0  0
  7  8  1  0  0  0
 23  1  1  0  0  0
 23 22  1  0  0  0
  1  2  1  0  0  0
 15 16  1  0  0  0
 15 14  1  0  0  0
  8  9  2  0  0  0
  8 12  1  0  0  0
  3  2  1  0  0  0
  3  9  1  0  0  0
  2 14  1  0  0  0
  9 10  1  0  0  0
 12 11  1  0  0  0
 16 17  1  0  0  0
 14 19  1  0  0  0
 10 11  2  0  0  0
 17 20  1  0  0  0
 17 18  1  0  0  0
 19 18  1  0  0  0
 20 21  3  0  0  0
 24 25  1  0  0  0
 12 13  1  0  0  0
M  END
> <minimizedAffinity>
-6.99861

$$$$
4IVB_1J5_A_1201


 25 28  0  0  0  0  0  0  0  0999 V2000
    8.5010   57.0385   -0.4699 C   0  0  0  0  0  0  0  0  0  0  0  0
    7.6756   56.2289    0.2516 N   0  0  0  0  0  0  0  0  0  0  0  0
    6.5057   56.9456    0.4691 C   0  0  0  0  0  0  0  0  0  0  0  0
    6.6973   58.1950   -0.1579 C   0  0  0  0  0  0  0  0  0  0  0  0
    7.9336   58.1772   -0.6967 N   0  0  0  0  0  0  0  0  0  0  0  0
    5.7109   59.1768   -0.1167 C   0  0  0  0  0  0  0  0  0  0  0  0
    4.5699   58.9622    0.4852 N   0  0  0  0  0  0  0  0  0  0  0  0
    4.3155   57.8000    1.0734 C   0  0  0  0  0  0  0  0  0  0  0  0
    5.2564   56.7517    1.0937 C   0  0  0  0  0  0  0  0  0  0  0  0
    4.6222   55.6656    1.8156 C   0  0  0  0  0  0  0  0  0  0  0  0
    3.4054   56.0844    2.1676 C   0  0  0  0  0  0  0  0  0  0  0  0
    3.2174   57.3642    1.7243 N   0  0  0  0  0  0  0  0  0  0  0  0
    2.3977   57.8922    1.8607 H   0  0  0  0  0  0  0  0  0  0  0  0
    8.0265   54.8611    0.6800 C   0  0  0  0  0  0  0  0  0  0  0  0
    8.2614   54.8214    2.2019 C   0  0  0  0  0  0  0  0  0  0  0  0
    8.5313   53.3889    2.6936 C   0  0  0  0  0  0  0  0  0  0  0  0
    7.4555   52.4121    2.1592 C   0  0  0  0  0  0  0  0  0  0  0  0
    7.2779   52.4660    0.6304 C   0  0  0  0  0  0  0  0  0  0  0  0
    6.9163   53.9002    0.2152 C   0  0  0  0  0  0  0  0  0  0  0  0
    7.8578   51.0450    2.5382 C   0  0  0  0  0  0  0  0  0  0  0  0
    8.2077   50.0091    2.8501 N   0  0  0  0  0  0  0  0  0  0  0  0
   10.2667   57.4396   -2.1968 C   0  0  0  0  0  0  0  0  0  0  0  0
    9.8912   56.6982   -0.9065 C   0  0  0  0  0  0  0  0  0  0  0  0
   10.7425   57.0918    0.1833 O   0  0  0  0  0  0  0  0  0  0  0  0
   10.6287   58.0394    0.3565 H   0  0  0  0  0  0  0  0  0  0  0  0
 24 23  1  0  0  0
  6  4  1  0  0  0
  6  7  2  0  0  0
  5  4  1  0  0  0
  5  1  2  0  0  0
  4  3  2  0  0  0
  7  8  1  0  0  0
 23  1  1  0  0  0
 23 22  1  0  0  0
  1  2  1  0  0  0
 15 16  1  0  0  0
 15 14  1  0  0  0
  8  9  2  0  0  0
  8 12  1  0  0  0
  3  2  1  0  0  0
  3  9  1  0  0  0
  2 14  1  0  0  0
  9 10  1  0  0  0
 12 11  1  0  0  0
 16 17  1  0  0  0
 14 19  1  0  0  0
 10 11  2  0  0  0
 17 20  1  0  0  0
 17 18  1  0  0  0
 19 18  1  0  0  0
 20 21  3  0  0  0
 24 25  1  0  0  0
 12 13  1  0  0  0
M  END
> <minimizedAffinity>
-6.96644

$$$$
4IVB_1J5_A_1201


 25 28  0  0  0  0  0  0  0  0999 V2000
    8.8523   55.7330    0.1529 C   0  0  0  0  0  0  0  0  0  0  0  0
    9.2747   54.5100    0.5806 N   0  0  0  0  0  0  0  0  0  0  0  0
    8.2028   53.9293    1.2467 C   0  0  0  0  0  0  0  0  0  0  0  0
    7.1532   54.8700    1.1806 C   0  0  0  0  0  0  0  0  0  0  0  0
    7.6276   55.9396    0.5098 N   0  0  0  0  0  0  0  0  0  0  0  0
    5.9200   54.6113    1.7731 C   0  0  0  0  0  0  0  0  0  0  0  0
    5.6912   53.4806    2.3891 N   0  0  0  0  0  0  0  0  0  0  0  0
    6.6272   52.5428    2.4660 C   0  0  0  0  0  0  0  0  0  0  0  0
    7.9084   52.7190    1.9074 C   0  0  0  0  0  0  0  0  0  0  0  0
    8.6348   51.4963    2.1916 C   0  0  0  0  0  0  0  0  0  0  0  0
    7.8061   50.6925    2.8602 C   0  0  0  0  0  0  0  0  0  0  0  0
    6.6008   51.3163    3.0270 N   0  0  0  0  0  0  0  0  0  0  0  0
    5.8246   50.9261    3.4902 H   0  0  0  0  0  0  0  0  0  0  0  0
   10.6273   53.9716    0.3399 C   0  0  0  0  0  0  0  0  0  0  0  0
   11.3466   53.7157    1.6778 C   0  0  0  0  0  0  0  0  0  0  0  0
   12.7218   53.0607    1.4623 C   0  0  0  0  0  0  0  0  0  0  0  0
   12.6065   51.8359    0.5223 C   0  0  0  0  0  0  0  0  0  0  0  0
   11.9079   52.1474   -0.8143 C   0  0  0  0  0  0  0  0  0  0  0  0
   10.5056   52.7075   -0.5316 C   0  0  0  0  0  0  0  0  0  0  0  0
   13.9708   51.3533    0.2388 C   0  0  0  0  0  0  0  0  0  0  0  0
   15.0399   51.0202    0.0422 N   0  0  0  0  0  0  0  0  0  0  0  0
    8.8145   57.8308   -1.2104 C   0  0  0  0  0  0  0  0  0  0  0  0
    9.6860   56.7337   -0.5839 C   0  0  0  0  0  0  0  0  0  0  0  0
   10.5830   57.2819    0.3969 O   0  0  0  0  0  0  0  0  0  0  0  0
   10.0701   57.6829    1.1160 H   0  0  0  0  0  0  0  0  0  0  0  0
 24 23  1  0  0  0
  6  4  1  0  0  0
  6  7  2  0  0  0
  5  4  1  0  0  0
  5  1  2  0  0  0
  4  3  2  0  0  0
  7  8  1  0  0  0
 23  1  1  0  0  0
 23 22  1  0  0  0
  1  2  1  0  0  0
 15 16  1  0  0  0
 15 14  1  0  0  0
  8  9  2  0  0  0
  8 12  1  0  0  0
  3  2  1  0  0  0
  3  9  1  0  0  0
  2 14  1  0  0  0
  9 10  1  0  0  0
 12 11  1  0  0  0
 16 17  1  0  0  0
 14 19  1  0  0  0
 10 11  2  0  0  0
 17 20  1  0  0  0
 17 18  1  0  0  0
 19 18  1  0  0  0
 20 21  3  0  0  0
 24 25  1  0  0  0
 12 13  1  0  0  0
M  END
> <minimizedAffinity>
-6.94355

$$$$
4IVB_1J5_A_1201


 25 28  0  0  0  0  0  0  0  0999 V2000
    6.9616   56.2971    1.5962 C   0  0  0  0  0  0  0  0  0  0  0  0
    8.1169   55.9612    0.9562 N   0  0  0  0  0  0  0  0  0  0  0  0
    8.3926   56.9913    0.0659 C   0  0  0  0  0  0  0  0  0  0  0  0
    7.3490   57.9273    0.2250 C   0  0  0  0  0  0  0  0  0  0  0  0
    6.5173   57.4309    1.1636 N   0  0  0  0  0  0  0  0  0  0  0  0
    7.3056   59.0899   -0.5400 C   0  0  0  0  0  0  0  0  0  0  0  0
    8.2419   59.3590   -1.4125 N   0  0  0  0  0  0  0  0  0  0  0  0
    9.2648   58.5329   -1.5937 C   0  0  0  0  0  0  0  0  0  0  0  0
    9.3878   57.3278   -0.8746 C   0  0  0  0  0  0  0  0  0  0  0  0
   10.6147   56.7120   -1.3425 C   0  0  0  0  0  0  0  0  0  0  0  0
   11.1400   57.5276   -2.2584 C   0  0  0  0  0  0  0  0  0  0  0  0
   10.3335   58.6211   -2.4121 N   0  0  0  0  0  0  0  0  0  0  0  0
   10.5078   59.3661   -3.0315 H   0  0  0  0  0  0  0  0  0  0  0  0
    8.8764   54.7230    1.2165 C   0  0  0  0  0  0  0  0  0  0  0  0
    8.4585   53.6211    0.2245 C   0  0  0  0  0  0  0  0  0  0  0  0
    9.3039   52.3488    0.4062 C   0  0  0  0  0  0  0  0  0  0  0  0
   10.8140   52.6901    0.4264 C   0  0  0  0  0  0  0  0  0  0  0  0
   11.1879   53.7743    1.4541 C   0  0  0  0  0  0  0  0  0  0  0  0
   10.3808   55.0478    1.1594 C   0  0  0  0  0  0  0  0  0  0  0  0
   11.5521   51.4563    0.7545 C   0  0  0  0  0  0  0  0  0  0  0  0
   12.1608   50.5313    1.0123 N   0  0  0  0  0  0  0  0  0  0  0  0
    6.7806   55.7652    4.0345 C   0  0  0  0  0  0  0  0  0  0  0  0
    6.2603   55.4637    2.6224 C   0  0  0  0  0  0  0  0  0  0  0  0
    4.8672   55.7984    2.5013 O   0  0  0  0  0  0  0  0  0  0  0  0
    4.7491   56.7495    2.6509 H   0  0  0  0  0  0  0  0  0  0  0  0
 24 23  1  0  0  0
  6  4  1  0  0  0
  6  7  2  0  0  0
  5  4  1  0  0  0
  5  1  2  0  0  0
  4  3  2  0  0  0
  7  8  1  0  0  0
 23  1  1  0  0  0
 23 22  1  0  0  0
  1  2  1  0  0  0
 15 16  1  0  0  0
 15 14  1  0  0  0
  8  9  2  0  0  0
  8 12  1  0  0  0
  3  2  1  0  0  0
  3  9  1  0  0  0
  2 14  1  0  0  0
  9 10  1  0  0  0
 12 11  1  0  0  0
 16 17  1  0  0  0
 14 19  1  0  0  0
 10 11  2  0  0  0
 17 20  1  0  0  0
 17 18  1  0  0  0
 19 18  1  0  0  0
 20 21  3  0  0  0
 24 25  1  0  0  0
 12 13  1  0  0  0
M  END
> <minimizedAffinity>
-6.87633

$$$$
4IVB_1J5_A_1201


 25 28  0  0  0  0  0  0  0  0999 V2000
   10.0512   54.8809    0.0470 C   0  0  0  0  0  0  0  0  0  0  0  0
    9.0286   55.7799    0.1040 N   0  0  0  0  0  0  0  0  0  0  0  0
    9.4426   56.8992   -0.6070 C   0  0  0  0  0  0  0  0  0  0  0  0
   10.7412   56.6016   -1.0716 C   0  0  0  0  0  0  0  0  0  0  0  0
   11.0423   55.3644   -0.6269 N   0  0  0  0  0  0  0  0  0  0  0  0
   11.4663   57.5282   -1.8162 C   0  0  0  0  0  0  0  0  0  0  0  0
   10.9571   58.6925   -2.1250 N   0  0  0  0  0  0  0  0  0  0  0  0
    9.7313   59.0260   -1.7406 C   0  0  0  0  0  0  0  0  0  0  0  0
    8.9272   58.1591   -0.9748 C   0  0  0  0  0  0  0  0  0  0  0  0
    7.6796   58.8660   -0.7580 C   0  0  0  0  0  0  0  0  0  0  0  0
    7.7848   60.0469   -1.3698 C   0  0  0  0  0  0  0  0  0  0  0  0
    9.0139   60.1469   -1.9606 N   0  0  0  0  0  0  0  0  0  0  0  0
    9.3301   60.9257   -2.4731 H   0  0  0  0  0  0  0  0  0  0  0  0
    7.7522   55.5370    0.8036 C   0  0  0  0  0  0  0  0  0  0  0  0
    7.3972   56.7382    1.7003 C   0  0  0  0  0  0  0  0  0  0  0  0
    6.0223   56.5577    2.3663 C   0  0  0  0  0  0  0  0  0  0  0  0
    4.9507   56.1676    1.3190 C   0  0  0  0  0  0  0  0  0  0  0  0
    5.3367   54.9437    0.4677 C   0  0  0  0  0  0  0  0  0  0  0  0
    6.6682   55.2252   -0.2451 C   0  0  0  0  0  0  0  0  0  0  0  0
    3.7019   55.8632    2.0417 C   0  0  0  0  0  0  0  0  0  0  0  0
    2.7182   55.6192    2.5568 N   0  0  0  0  0  0  0  0  0  0  0  0
   10.4818   52.4381   -0.2819 C   0  0  0  0  0  0  0  0  0  0  0  0
   10.0676   53.5374    0.7058 C   0  0  0  0  0  0  0  0  0  0  0  0
   11.0142   53.6498    1.7822 O   0  0  0  0  0  0  0  0  0  0  0  0
   11.8811   53.8996    1.4258 H   0  0  0  0  0  0  0  0  0  0  0  0
 24 23  1  0  0  0
  6  4  1  0  0  0
  6  7  2  0  0  0
  5  4  1  0  0  0
  5  1  2  0  0  0
  4  3  2  0  0  0
  7  8  1  0  0  0
 23  1  1  0  0  0
 23 22  1  0  0  0
  1  2  1  0  0  0
 15 16  1  0  0  0
 15 14  1  0  0  0
  8  9  2  0  0  0
  8 12  1  0  0  0
  3  2  1  0  0  0
  3  9  1  0  0  0
  2 14  1  0  0  0
  9 10  1  0  0  0
 12 11  1  0  0  0
 16 17  1  0  0  0
 14 19  1  0  0  0
 10 11  2  0  0  0
 17 20  1  0  0  0
 17 18  1  0  0  0
 19 18  1  0  0  0
 20 21  3  0  0  0
 24 25  1  0  0  0
 12 13  1  0  0  0
M  END
> <minimizedAffinity>
-6.76482

$$$$
