4IVB_1J5_A_1201
  RCSB PDB12061713053D
Coordinates from PDB:4IVB:A:1201 Model:1 without hydrogens
 23 26  0  0  0  0            999 V2000
   11.0410   57.1510   -1.8610   C 0  0  0  0  0  0  0  0  0  0  0  0
   10.0770   56.5990   -0.8020   C 0  0  0  0  0  0  0  0  0  0  0  0
   10.7330   56.4520    0.4690   O 0  0  0  0  0  0  0  0  0  0  0  0
    8.9410   57.5420   -0.5580   C 0  0  0  0  0  0  0  0  0  0  0  0
    7.7870   57.2400    0.1010   N 0  0  0  0  0  0  0  0  0  0  0  0
    7.0310   58.4050    0.1340   C 0  0  0  0  0  0  0  0  0  0  0  0
    7.8000   59.3820   -0.5330   C 0  0  0  0  0  0  0  0  0  0  0  0
    8.9470   58.7840   -0.9150   N 0  0  0  0  0  0  0  0  0  0  0  0
    7.3390   60.6890   -0.6670   C 0  0  0  0  0  0  0  0  0  0  0  0
    6.1710   61.0440   -0.1980   N 0  0  0  0  0  0  0  0  0  0  0  0
    5.3870   60.1680    0.4180   C 0  0  0  0  0  0  0  0  0  0  0  0
    5.7730   58.8270    0.6110   C 0  0  0  0  0  0  0  0  0  0  0  0
    4.6700   58.1950    1.3090   C 0  0  0  0  0  0  0  0  0  0  0  0
    3.7310   59.1260    1.4860   C 0  0  0  0  0  0  0  0  0  0  0  0
    4.1570   60.3110    0.9530   N 0  0  0  0  0  0  0  0  0  0  0  0
    7.4700   55.9050    0.6440   C 0  0  0  0  0  0  0  0  0  0  0  0
    7.2600   55.9840    2.1680   C 0  0  0  0  0  0  0  0  0  0  0  0
    6.8300   54.6260    2.7490   C 0  0  0  0  0  0  0  0  0  0  0  0
    5.6490   54.0320    1.9430   C 0  0  0  0  0  0  0  0  0  0  0  0
    5.9170   53.9450    0.4290   C 0  0  0  0  0  0  0  0  0  0  0  0
    6.2460   55.3470   -0.1060   C 0  0  0  0  0  0  0  0  0  0  0  0
    5.3910   52.6730    2.4540   C 0  0  0  0  0  0  0  0  0  0  0  0
    5.2020   51.6410    2.8920   N 0  0  0  0  0  0  0  0  0  0  0  0
  3  2  1  0  0  0  0
  9  7  1  0  0  0  0
  9 10  2  0  0  0  0
  8  7  1  0  0  0  0
  8  4  2  0  0  0  0
  7  6  2  0  0  0  0
 10 11  1  0  0  0  0
  2  4  1  0  0  0  0
  2  1  1  0  0  0  0
  4  5  1  0  0  0  0
 17 18  1  0  0  0  0
 17 16  1  0  0  0  0
 11 12  2  0  0  0  0
 11 15  1  0  0  0  0
  6  5  1  0  0  0  0
  6 12  1  0  0  0  0
  5 16  1  0  0  0  0
 12 13  1  0  0  0  0
 15 14  1  0  0  0  0
 18 19  1  0  0  0  0
 16 21  1  0  0  0  0
 13 14  2  0  0  0  0
 19 22  1  0  0  0  0
 19 20  1  0  0  0  0
 21 20  1  0  0  0  0
 22 23  3  0  0  0  0
A    1
C1
A    2
C2
A    3
O4
A    4
C5
A    5
N6
A    6
C7
A    7
C8
A    8
N9
A    9
C10
A   10
N11
A   11
C12
A   12
C13
A   13
C14
A   14
C15
A   15
N16
A   16
C18
A   17
C20
A   18
C21
A   19
C22
A   20
C24
A   21
C25
A   22
C26
A   23
N27
M  END
>  <InstanceId>
4IVB_1J5_A_1201

>  <ChemCompId>
1J5

>  <PdbId>
4IVB

>  <ChainId>
A

>  <ResidueNumber>
1201

>  <InsertionCode>


>  <Model>
1

>  <AltIds>


>  <MissingHeavyAtoms>
0

>  <ObservedFormula>
C17 N5 O

>  <Name>
trans-4-{2-[(1R)-1-hydroxyethyl]imidazo[4,5-d]pyrrolo[2,3-b]pyridin-1(6H)-yl}cyclohexanecarbonitrile

>  <SystematicName>


>  <Synonyms>


>  <Type>
NON-POLYMER

>  <Formula>
C17 H19 N5 O

>  <MolecularWeight>
309.366

>  <ModifiedDate>
2013-05-17

>  <Parent>


>  <OneLetterCode>


>  <SubcomponentList>


>  <AmbiguousFlag>
N

>  <InChI>
InChI=1S/C17H19N5O/c1-10(23)17-21-14-9-20-16-13(6-7-19-16)15(14)22(17)12-4-2-11(8-18)3-5-12/h6-7,9-12,23H,2-5H2,1H3,(H,19,20)/t10-,11-,12-/m1/s1

>  <InChIKey>
ANDWOIMHOOWCLK-IJLUTSLNSA-N

>  <SMILES>
C[C@H](c1nc2cnc3c(c2n1C4CCC(CC4)C#N)cc[nH]3)O

$$$$
