5M9W_7GR_A_412
  RCSB PDB12061718593D
Coordinates from PDB:5M9W:A:412 Model:1 without hydrogens
 28 28  0  0  0  0            999 V2000
   56.4840   41.7320    3.5150   C 0  0  0  0  0  0  0  0  0  0  0  0
   54.2500   38.7250    4.1620   C 0  0  0  0  0  0  0  0  0  0  0  0
   54.5800   37.7100    5.2140   C 0  0  0  0  0  0  0  0  0  0  0  0
   53.7340   38.1700    2.8480   C 0  0  0  0  0  0  0  0  0  0  0  0
   55.6040   38.2120    1.1270   C 0  0  0  0  0  0  0  0  0  0  0  0
   58.2440   40.0770    6.6710   C 0  0  0  0  0  0  0  0  0  0  0  0
   57.5630   41.2150    4.3150   N 0  0  0  0  0  0  0  0  0  0  0  0
   55.2020   40.9360    3.6060   C 0  0  0  0  0  0  0  0  0  0  0  0
   54.1040   41.4120    3.3610   O 0  0  0  0  0  0  0  0  0  0  0  0
   55.3520   39.6240    4.0140   N 0  0  0  0  0  0  0  0  0  0  0  0
   55.7260   37.6700    5.7250   O 0  0  0  0  0  0  0  0  0  0  0  0
   53.6470   36.9430    5.5570   O 0  0  0  0  0  0  0  0  0  0  0  0
   54.7640   37.3480    2.0720   C 0  0  0  0  0  0  0  0  0  0  0  0
   54.0440   36.2810    1.2280   C 0  0  0  0  0  0  0  0  0  0  0  0
   57.7590   41.6420    5.9050   P 0  0  0  0  0  0  0  0  0  0  0  0
   58.8120   42.6700    6.1250   O 0  0  0  0  0  0  0  0  0  0  0  0
   56.3890   42.1060    6.4410   O 0  0  0  0  0  0  0  0  0  0  0  0
   59.9790   38.7380   10.9340   C 0  0  0  0  0  0  0  0  0  0  0  0
   61.3950   39.1100   11.3880   C 0  0  0  0  0  0  0  0  0  0  0  0
   62.4870   38.8520   10.5800   C 0  0  0  0  0  0  0  0  0  0  0  0
   63.7680   39.1470   11.0300   C 0  0  0  0  0  0  0  0  0  0  0  0
   63.9640   39.7610   12.2560   C 0  0  0  0  0  0  0  0  0  0  0  0
   62.8470   40.0150   13.0410   C 0  0  0  0  0  0  0  0  0  0  0  0
   61.5740   39.6790   12.6200   C 0  0  0  0  0  0  0  0  0  0  0  0
   58.9830   40.3390    7.8960   N 0  0  0  0  0  0  0  0  0  0  0  0
   58.9270   39.4290    8.9510   C 0  0  0  0  0  0  0  0  0  0  0  0
   58.3890   38.3650    8.9030   O 0  0  0  0  0  0  0  0  0  0  0  0
   59.5900   39.8390   10.0830   O 0  0  0  0  0  0  0  0  0  0  0  0
 23 24  2  0  0  0  0
 23 22  1  0  0  0  0
 24 19  1  0  0  0  0
 22 21  2  0  0  0  0
 19 18  1  0  0  0  0
 19 20  2  0  0  0  0
 21 20  1  0  0  0  0
 18 28  1  0  0  0  0
 28 26  1  0  0  0  0
 26 27  2  0  0  0  0
 26 25  1  0  0  0  0
 25  6  1  0  0  0  0
  6 15  1  0  0  0  0
 17 15  2  0  0  0  0
 16 15  1  0  0  0  0
 15  7  1  0  0  0  0
 11  3  2  0  0  0  0
 12  3  1  0  0  0  0
  3  2  1  0  0  0  0
  7  1  1  0  0  0  0
  2 10  1  0  0  0  0
  2  4  1  0  0  0  0
 10  8  1  0  0  0  0
  8  1  1  0  0  0  0
  8  9  2  0  0  0  0
  4 13  1  0  0  0  0
 13  5  1  0  0  0  0
 13 14  1  0  0  0  0
A    1
C2
A    2
C9
A    3
C10
A    4
C14
A    5
C19
A    6
C31
A    7
N1
A    8
C5
A    9
O6
A   10
N7
A   11
O11
A   12
O12
A   13
C17
A   14
C23
A   15
P28
A   16
O29
A   17
O30
A   18
C39
A   19
C42
A   20
C43
A   21
C45
A   22
C47
A   23
C49
A   24
C51
A   25
N34
A   26
C36
A   27
O37
A   28
O38
M  END
>  <InstanceId>
5M9W_7GR_A_412

>  <ChemCompId>
7GR

>  <PdbId>
5M9W

>  <ChainId>
A

>  <ResidueNumber>
412

>  <InsertionCode>


>  <Model>
1

>  <AltIds>


>  <MissingHeavyAtoms>
0

>  <ObservedFormula>
C17 N3 O7 P

>  <Name>
(2~{S})-4-methyl-2-[2-[[oxidanyl(phenylmethoxycarbonylaminomethyl)phosphoryl]amino]ethanoylamino]pentanoic acid

>  <SystematicName>
(2~{S})-4-methyl-2-[2-[[oxidanyl(phenylmethoxycarbonylaminomethyl)phosphoryl]amino]ethanoylamino]pentanoic acid

>  <Synonyms>


>  <Type>
NON-POLYMER

>  <Formula>
C17 H26 N3 O7 P

>  <MolecularWeight>
415.378

>  <ModifiedDate>
2017-08-11

>  <Parent>


>  <OneLetterCode>


>  <SubcomponentList>


>  <AmbiguousFlag>
N

>  <InChI>
InChI=1S/C17H26N3O7P/c1-12(2)8-14(16(22)23)20-15(21)9-19-28(25,26)11-18-17(24)27-10-13-6-4-3-5-7-13/h3-7,12,14H,8-11H2,1-2H3,(H,18,24)(H,20,21)(H,22,23)(H2,19,25,26)/t14-/m0/s1

>  <InChIKey>
MOYNPRDFZGMZHZ-AWEZNQCLSA-N

>  <SMILES>
CC(C)C[C@@H](C(=O)O)NC(=O)CNP(=O)(CNC(=O)OCc1ccccc1)O

$$$$
