4M6U_TTN_A_402
  RCSB PDB12061713413D
Coordinates from PDB:4M6U:A:402 Model:1 without hydrogens
  8  7  0  0  0  0            999 V2000
  -22.6240   19.1650  -23.5560   C 0  0  0  0  0  0  0  0  0  0  0  0
  -21.9340   20.1990  -24.3950   C 0  0  0  0  0  0  0  0  0  0  0  0
  -22.8200   21.3890  -24.6170   C 0  0  0  0  0  0  0  0  0  0  0  0
  -23.5230   19.5360  -22.7710   O 0  0  0  0  0  0  0  0  0  0  0  0
  -22.2730   17.9710  -23.6740   O 0  5  0  0  0  0  0  0  0  0  0  0
  -20.7290   20.6160  -23.7430   O 0  0  0  0  0  0  0  0  0  0  0  0
  -23.2130   22.0340  -23.6220   O 0  0  0  0  0  0  0  0  0  0  0  0
  -23.1310   21.6900  -25.7900   O 0  5  0  0  0  0  0  0  0  0  0  0
  1  2  1  0  0  0  0
  1  4  2  0  0  0  0
  1  5  1  0  0  0  0
  2  3  1  0  0  0  0
  2  6  1  0  0  0  0
  3  7  2  0  0  0  0
  3  8  1  0  0  0  0
M  CHG  2   5  -1   8  -1
A    1
C1
A    2
C2
A    3
C3
A    4
O1
A    5
O2
A    6
O3
A    7
O4
A    8
O5
M  END
>  <InstanceId>
4M6U_TTN_A_402

>  <ChemCompId>
TTN

>  <PdbId>
4M6U

>  <ChainId>
A

>  <ResidueNumber>
402

>  <InsertionCode>


>  <Model>
1

>  <AltIds>


>  <MissingHeavyAtoms>
0

>  <ObservedFormula>
C3 O5

>  <Name>
TARTRONATE

>  <SystematicName>
2-hydroxypropanedioate

>  <Synonyms>


>  <Type>
NON-POLYMER

>  <Formula>
C3 H2 O5

>  <MolecularWeight>
118.045

>  <ModifiedDate>
2011-06-04

>  <Parent>


>  <OneLetterCode>


>  <SubcomponentList>


>  <AmbiguousFlag>
N

>  <InChI>
InChI=1S/C3H4O5/c4-1(2(5)6)3(7)8/h1,4H,(H,5,6)(H,7,8)/p-2

>  <InChIKey>
ROBFUDYVXSDBQM-UHFFFAOYSA-L

>  <SMILES>
C(C(=O)[O-])(C(=O)[O-])O

$$$$
