4I71_AGV_A_401
  RCSB PDB12061712583D
Coordinates from PDB:4I71:A:401 Model:1 without hydrogens
 20 22  0  0  0  0            999 V2000
    5.5810   22.0700   17.8970   O 0  0  0  0  0  0  0  0  0  0  0  0
    5.4850   20.6520   18.0450   C 0  0  0  0  0  0  0  0  0  0  0  0
    6.6900   19.9700   18.6750   C 0  0  0  0  0  0  0  0  0  0  0  0
    6.7110   18.4470   18.4840   C 0  0  0  0  0  0  0  0  0  0  0  0
    8.0170   17.9850   18.1430   O 0  0  0  0  0  0  0  0  0  0  0  0
    6.7770   20.0990   20.1800   N 0  0  0  0  0  0  0  0  0  0  0  0
    5.9440   18.9830   20.7260   C 0  0  0  0  0  0  0  0  0  0  0  0
    6.2110   17.8570   19.8100   C 0  0  0  0  0  0  0  0  0  0  0  0
    7.1710   16.9830   20.4360   O 0  0  0  0  0  0  0  0  0  0  0  0
    6.6010   21.4970   20.8240   C 0  0  0  0  0  0  0  0  0  0  0  0
    5.2170   21.7440   21.3470   C 0  0  0  0  0  0  0  0  0  0  0  0
    4.2580   22.4830   20.6960   C 0  0  0  0  0  0  0  0  0  0  0  0
    3.1350   22.4930   21.4570   N 0  0  0  0  0  0  0  0  0  0  0  0
    3.3290   21.7620   22.6120   C 0  0  0  0  0  0  0  0  0  0  0  0
    4.6420   21.2890   22.5480   C 0  0  0  0  0  0  0  0  0  0  0  0
    2.4990   21.4390   23.6940   C 0  0  0  0  0  0  0  0  0  0  0  0
    1.2240   21.8210   23.7800   N 0  0  0  0  0  0  0  0  0  0  0  0
    3.0380   20.6840   24.6790   N 0  0  0  0  0  0  0  0  0  0  0  0
    4.3000   20.2880   24.5740   C 0  0  0  0  0  0  0  0  0  0  0  0
    5.1410   20.5550   23.5570   N 0  0  0  0  0  0  0  0  0  0  0  0
  1  2  1  0  0  0  0
  2  3  1  0  0  0  0
  5  4  1  0  0  0  0
  4  3  1  0  0  0  0
  4  8  1  0  0  0  0
  3  6  1  0  0  0  0
  8  9  1  0  0  0  0
  8  7  1  0  0  0  0
  6  7  1  0  0  0  0
  6 10  1  0  0  0  0
 12 11  2  0  0  0  0
 12 13  1  0  0  0  0
 10 11  1  0  0  0  0
 11 15  1  0  0  0  0
 13 14  1  0  0  0  0
 15 14  1  0  0  0  0
 15 20  2  0  0  0  0
 14 16  2  0  0  0  0
 20 19  1  0  0  0  0
 16 17  1  0  0  0  0
 16 18  1  0  0  0  0
 19 18  2  0  0  0  0
A    1
O5'
A    2
C5'
A    3
C4'
A    4
C3'
A    5
O3'
A    6
N4'
A    7
C1'
A    8
C2'
A    9
O2'
A   10
C7
A   11
C9
A   12
C8
A   13
N7
A   14
C5
A   15
C4
A   16
C6
A   17
N6
A   18
N1
A   19
C2
A   20
N3
M  END
>  <InstanceId>
4I71_AGV_A_401

>  <ChemCompId>
AGV

>  <PdbId>
4I71

>  <ChainId>
A

>  <ResidueNumber>
401

>  <InsertionCode>


>  <Model>
1

>  <AltIds>


>  <MissingHeavyAtoms>
0

>  <ObservedFormula>
C12 N5 O3

>  <Name>
(2R,3R,4S)-1-[(4-amino-5H-pyrrolo[3,2-d]pyrimidin-7-yl)methyl]-2-(hydroxymethyl)pyrrolidine-3,4-diol

>  <SystematicName>
(2R,3R,4S)-1-[(4-azanyl-5H-pyrrolo[3,2-d]pyrimidin-7-yl)methyl]-2-(hydroxymethyl)pyrrolidine-3,4-diol

>  <Synonyms>


>  <Type>
NON-POLYMER

>  <Formula>
C12 H17 N5 O3

>  <MolecularWeight>
279.295

>  <ModifiedDate>
2013-08-02

>  <Parent>


>  <OneLetterCode>


>  <SubcomponentList>


>  <AmbiguousFlag>
N

>  <InChI>
InChI=1S/C12H17N5O3/c13-12-10-9(15-5-16-12)6(1-14-10)2-17-3-8(19)11(20)7(17)4-18/h1,5,7-8,11,14,18-20H,2-4H2,(H2,13,15,16)/t7-,8+,11-/m1/s1

>  <InChIKey>
RCLRGJMFVIDWTM-VHSKPIJISA-N

>  <SMILES>
c1c(c2c([nH]1)c(ncn2)N)CN3C[C@@H]([C@@H]([C@H]3CO)O)O

$$$$
