5AM6_38O_A_1766
  RCSB PDB12061716513D
Coordinates from PDB:5AM6:A:1766 Model:1 without hydrogens
 29 33  0  0  0  0            999 V2000
  220.0510  -10.4830   31.8860   C 0  0  0  0  0  0  0  0  0  0  0  0
  220.9950   -9.5940   29.8570   C 0  0  0  0  0  0  0  0  0  0  0  0
  220.6900   -9.4060   28.3760   C 0  0  0  0  0  0  0  0  0  0  0  0
  218.8860   -7.8770   29.4100   C 0  0  0  0  0  0  0  0  0  0  0  0
  218.8910   -8.7680   30.6600   C 0  0  0  0  0  0  0  0  0  0  0  0
  219.1620   -8.0260   26.9900   C 0  0  0  0  0  0  0  0  0  0  0  0
  217.0880   -7.6070   23.0210   C 0  0  0  0  0  0  0  0  0  0  0  0
  217.9450   -6.6300   23.3430   N 0  0  0  0  0  0  0  0  0  0  0  0
  219.3650   -6.2640   25.3490   C 0  0  0  0  0  0  0  0  0  0  0  0
  219.7080   -6.8140   26.5710   C 0  0  0  0  0  0  0  0  0  0  0  0
  216.3180   -7.7190   21.7510   C 0  0  0  0  0  0  0  0  0  0  0  0
  216.6060   -6.7820   20.6290   C 0  0  0  0  0  0  0  0  0  0  0  0
  216.0000   -6.1170   18.1740   C 0  0  0  0  0  0  0  0  0  0  0  0
  215.2190   -6.3730   17.0370   C 0  0  0  0  0  0  0  0  0  0  0  0
  214.2820   -7.4040   17.0320   C 0  0  0  0  0  0  0  0  0  0  0  0
  215.0160   -9.5510   22.4660   O 0  0  0  0  0  0  0  0  0  0  0  0
  219.7510   -9.9570   30.5430   N 0  0  0  0  0  0  0  0  0  0  0  0
  219.5800   -8.4680   28.2540   N 0  0  0  0  0  0  0  0  0  0  0  0
  218.2310   -8.7290   26.2010   C 0  0  0  0  0  0  0  0  0  0  0  0
  217.8480   -8.2160   24.9560   C 0  0  0  0  0  0  0  0  0  0  0  0
  217.0250   -8.5950   23.9450   N 0  0  0  0  0  0  0  0  0  0  0  0
  218.4520   -6.9250   24.5400   C 0  0  0  0  0  0  0  0  0  0  0  0
  217.5420   -5.7970   20.7280   N 0  0  0  0  0  0  0  0  0  0  0  0
  215.8250   -6.9660   19.3770   C 0  0  0  0  0  0  0  0  0  0  0  0
  216.9150   -5.1280   18.1870   F 0  0  0  0  0  0  0  0  0  0  0  0
  214.0770   -8.2270   18.1430   C 0  0  0  0  0  0  0  0  0  0  0  0
  214.8090   -8.0490   19.3190   C 0  0  0  0  0  0  0  0  0  0  0  0
  214.6160   -8.8510   20.3720   N 0  0  0  0  0  0  0  0  0  0  0  0
  215.2770   -8.7470   21.5410   C 0  0  0  0  0  0  0  0  0  0  0  0
  3  2  1  0  0  0  0
  3 18  1  0  0  0  0
  2 17  1  0  0  0  0
 25 13  1  0  0  0  0
 17  1  1  0  0  0  0
 17  5  1  0  0  0  0
 18  4  1  0  0  0  0
 18  6  1  0  0  0  0
 23 12  1  0  0  0  0
  4  5  1  0  0  0  0
 19  6  2  0  0  0  0
 19 20  1  0  0  0  0
  6 10  1  0  0  0  0
 13 14  2  0  0  0  0
 13 24  1  0  0  0  0
 21 20  1  0  0  0  0
 21  7  2  0  0  0  0
 20 22  2  0  0  0  0
 14 15  1  0  0  0  0
 12 24  1  0  0  0  0
 12 11  2  0  0  0  0
 10  9  2  0  0  0  0
 24 27  2  0  0  0  0
  7 11  1  0  0  0  0
  7  8  1  0  0  0  0
 22  9  1  0  0  0  0
 22  8  1  0  0  0  0
 11 29  1  0  0  0  0
 15 26  2  0  0  0  0
 27 26  1  0  0  0  0
 27 28  1  0  0  0  0
 29 28  1  0  0  0  0
 29 16  2  0  0  0  0
A    1
C1
A    2
C3
A    3
C4
A    4
C6
A    5
C7
A    6
C8
A    7
C12
A    8
N13
A    9
C15
A   10
C16
A   11
C17
A   12
C18
A   13
C21
A   14
C23
A   15
C24
A   16
O29
A   17
N2
A   18
N5
A   19
C9
A   20
C10
A   21
N11
A   22
C14
A   23
N19
A   24
C20
A   25
F22
A   26
C25
A   27
C26
A   28
N27
A   29
C28
M  END
>  <InstanceId>
5AM6_38O_A_1766

>  <ChemCompId>
38O

>  <PdbId>
5AM6

>  <ChainId>
A

>  <ResidueNumber>
1766

>  <InsertionCode>


>  <Model>
1

>  <AltIds>


>  <MissingHeavyAtoms>
0

>  <ObservedFormula>
C21 N6 O F

>  <Name>
4-amino-5-fluoro-3-[5-(4-methylpiperazin-1-yl)-1H-benzimidazol-2-yl]quinolin-2(1H)-one

>  <SystematicName>
4-azanyl-5-fluoranyl-3-[5-(4-methylpiperazin-1-yl)-1H-benzimidazol-2-yl]-1H-quinolin-2-one

>  <Synonyms>
Dovitinib

>  <Type>
NON-POLYMER

>  <Formula>
C21 H21 F N6 O

>  <MolecularWeight>
392.429

>  <ModifiedDate>
2014-09-19

>  <Parent>


>  <OneLetterCode>


>  <SubcomponentList>


>  <AmbiguousFlag>
N

>  <InChI>
InChI=1S/C21H21FN6O/c1-27-7-9-28(10-8-27)12-5-6-14-16(11-12)25-20(24-14)18-19(23)17-13(22)3-2-4-15(17)26-21(18)29/h2-6,11H,7-10H2,1H3,(H,24,25)(H3,23,26,29)

>  <InChIKey>
PIQCTGMSNWUMAF-UHFFFAOYSA-N

>  <SMILES>
CN1CCN(CC1)c2ccc3c(c2)nc([nH]3)C4=C(c5c(cccc5F)NC4=O)N

$$$$
