5AM6_38O_A_1766


 33 37  0  0  0  0  0  0  0  0999 V2000
  219.8383   -7.2021   26.6841 C   0  0  0  0  0  0  0  0  0  0  0  0
  217.0905   -7.5395   23.1392 C   0  0  0  0  0  0  0  0  0  0  0  0
  216.6917   -8.1641   24.2543 N   0  0  0  0  0  0  0  0  0  0  0  0
  217.7334   -8.3744   26.5004 C   0  0  0  0  0  0  0  0  0  0  0  0
  218.8416   -8.0024   27.2398 C   0  0  0  0  0  0  0  0  0  0  0  0
  219.7692   -6.7556   25.3501 C   0  0  0  0  0  0  0  0  0  0  0  0
  218.6697   -7.1047   24.5569 C   0  0  0  0  0  0  0  0  0  0  0  0
  218.2547   -6.8637   23.2869 N   0  0  0  0  0  0  0  0  0  0  0  0
  217.6254   -7.9550   25.1823 C   0  0  0  0  0  0  0  0  0  0  0  0
  215.8622   -8.6821   24.3678 H   0  0  0  0  0  0  0  0  0  0  0  0
  216.3393   -7.4656   21.8552 C   0  0  0  0  0  0  0  0  0  0  0  0
  216.6913   -6.4198   20.8541 C   0  0  0  0  0  0  0  0  0  0  0  0
  216.1619   -5.4455   18.4862 C   0  0  0  0  0  0  0  0  0  0  0  0
  215.3905   -5.5294   17.3174 C   0  0  0  0  0  0  0  0  0  0  0  0
  214.4065   -6.5060   17.1801 C   0  0  0  0  0  0  0  0  0  0  0  0
  214.9401   -9.3027   22.3348 O   0  0  0  0  0  0  0  0  0  0  0  0
  217.6705   -5.4997   21.0793 N   0  0  0  0  0  0  0  0  0  0  0  0
  215.9254   -6.4189   19.5795 C   0  0  0  0  0  0  0  0  0  0  0  0
  217.1219   -4.5105   18.6262 F   0  0  0  0  0  0  0  0  0  0  0  0
  214.1429   -7.4415   18.1847 C   0  0  0  0  0  0  0  0  0  0  0  0
  214.8610   -7.4371   19.3825 C   0  0  0  0  0  0  0  0  0  0  0  0
  214.6115   -8.3456   20.3321 N   0  0  0  0  0  0  0  0  0  0  0  0
  215.2553   -8.4104   21.5134 C   0  0  0  0  0  0  0  0  0  0  0  0
  217.8765   -4.8226   20.3950 H   0  0  0  0  0  0  0  0  0  0  0  0
  218.1721   -5.5120   21.9264 H   0  0  0  0  0  0  0  0  0  0  0  0
  213.9092   -9.0126   20.1554 H   0  0  0  0  0  0  0  0  0  0  0  0
  224.6167   -6.7450   29.4689 C   0  0  0  0  0  0  0  0  0  0  0  0
  222.7670   -5.6255   28.4089 C   0  0  0  0  0  0  0  0  0  0  0  0
  221.7825   -5.7687   27.2548 C   0  0  0  0  0  0  0  0  0  0  0  0
  221.0542   -7.7615   28.7245 C   0  0  0  0  0  0  0  0  0  0  0  0
  222.4895   -7.8503   29.2616 C   0  0  0  0  0  0  0  0  0  0  0  0
  223.4280   -6.9178   28.6161 N   0  0  0  0  0  0  0  0  0  0  0  0
  220.9154   -6.9078   27.5332 N   0  0  0  0  0  0  0  0  0  0  0  0
 29 28  1  0  0  0
 29 33  1  0  0  0
 28 32  1  0  0  0
 19 13  1  0  0  0
 32 27  1  0  0  0
 32 31  1  0  0  0
 33 30  1  0  0  0
 33  1  1  0  0  0
 17 12  1  0  0  0
 30 31  1  0  0  0
  6  1  2  0  0  0
  6  7  1  0  0  0
  1  5  1  0  0  0
 13 14  2  0  0  0
 13 18  1  0  0  0
  8  7  1  0  0  0
  8  2  2  0  0  0
  7  9  2  0  0  0
 14 15  1  0  0  0
 12 18  1  0  0  0
 12 11  2  0  0  0
  5  4  2  0  0  0
 18 21  2  0  0  0
  2 11  1  0  0  0
  2  3  1  0  0  0
  9  4  1  0  0  0
  9  3  1  0  0  0
 11 23  1  0  0  0
 15 20  2  0  0  0
 21 20  1  0  0  0
 21 22  1  0  0  0
 23 22  1  0  0  0
 23 16  2  0  0  0
  3 10  1  0  0  0
 17 24  1  0  0  0
 17 25  1  0  0  0
 22 26  1  0  0  0
M  END
> <minimizedAffinity>
-9.50929

$$$$
5AM6_38O_A_1766


 33 37  0  0  0  0  0  0  0  0999 V2000
  218.3741   -7.5989   26.9264 C   0  0  0  0  0  0  0  0  0  0  0  0
  217.6843   -6.6457   22.5853 C   0  0  0  0  0  0  0  0  0  0  0  0
  218.3723   -5.7351   23.2854 N   0  0  0  0  0  0  0  0  0  0  0  0
  219.0614   -5.6519   25.6713 C   0  0  0  0  0  0  0  0  0  0  0  0
  219.0023   -6.3565   26.8602 C   0  0  0  0  0  0  0  0  0  0  0  0
  217.7615   -8.1781   25.7983 C   0  0  0  0  0  0  0  0  0  0  0  0
  217.7909   -7.5064   24.5703 C   0  0  0  0  0  0  0  0  0  0  0  0
  217.3458   -7.7390   23.3090 N   0  0  0  0  0  0  0  0  0  0  0  0
  218.4715   -6.1873   24.5355 C   0  0  0  0  0  0  0  0  0  0  0  0
  218.7374   -4.8883   22.9408 H   0  0  0  0  0  0  0  0  0  0  0  0
  217.3678   -6.5825   21.1313 C   0  0  0  0  0  0  0  0  0  0  0  0
  216.0330   -7.0336   20.6469 C   0  0  0  0  0  0  0  0  0  0  0  0
  214.4879   -7.3183   18.5569 C   0  0  0  0  0  0  0  0  0  0  0  0
  214.3305   -7.1629   17.1715 C   0  0  0  0  0  0  0  0  0  0  0  0
  215.3613   -6.6461   16.3896 C   0  0  0  0  0  0  0  0  0  0  0  0
  219.4546   -5.6757   20.5103 O   0  0  0  0  0  0  0  0  0  0  0  0
  215.0853   -7.5316   21.4896 N   0  0  0  0  0  0  0  0  0  0  0  0
  215.7676   -6.9156   19.1885 C   0  0  0  0  0  0  0  0  0  0  0  0
  213.4947   -7.8092   19.3239 F   0  0  0  0  0  0  0  0  0  0  0  0
  216.5870   -6.2581   16.9380 C   0  0  0  0  0  0  0  0  0  0  0  0
  216.8349   -6.3741   18.3076 C   0  0  0  0  0  0  0  0  0  0  0  0
  218.0058   -5.9865   18.8252 N   0  0  0  0  0  0  0  0  0  0  0  0
  218.3256   -6.0655   20.1313 C   0  0  0  0  0  0  0  0  0  0  0  0
  214.2137   -7.8203   21.1346 H   0  0  0  0  0  0  0  0  0  0  0  0
  215.2722   -7.6026   22.4536 H   0  0  0  0  0  0  0  0  0  0  0  0
  218.6800   -5.6183   18.2095 H   0  0  0  0  0  0  0  0  0  0  0  0
  218.6911   -9.0555   32.2720 C   0  0  0  0  0  0  0  0  0  0  0  0
  217.4153   -9.0838   30.2300 C   0  0  0  0  0  0  0  0  0  0  0  0
  217.1423   -8.2613   28.9768 C   0  0  0  0  0  0  0  0  0  0  0  0
  219.6373   -8.8180   28.6214 C   0  0  0  0  0  0  0  0  0  0  0  0
  219.8052   -8.8967   30.1452 C   0  0  0  0  0  0  0  0  0  0  0  0
  218.5958   -8.5288   30.8995 N   0  0  0  0  0  0  0  0  0  0  0  0
  218.3703   -8.2033   28.1923 N   0  0  0  0  0  0  0  0  0  0  0  0
 29 28  1  0  0  0
 29 33  1  0  0  0
 28 32  1  0  0  0
 19 13  1  0  0  0
 32 27  1  0  0  0
 32 31  1  0  0  0
 33 30  1  0  0  0
 33  1  1  0  0  0
 17 12  1  0  0  0
 30 31  1  0  0  0
  6  1  2  0  0  0
  6  7  1  0  0  0
  1  5  1  0  0  0
 13 14  2  0  0  0
 13 18  1  0  0  0
  8  7  1  0  0  0
  8  2  2  0  0  0
  7  9  2  0  0  0
 14 15  1  0  0  0
 12 18  1  0  0  0
 12 11  2  0  0  0
  5  4  2  0  0  0
 18 21  2  0  0  0
  2 11  1  0  0  0
  2  3  1  0  0  0
  9  4  1  0  0  0
  9  3  1  0  0  0
 11 23  1  0  0  0
 15 20  2  0  0  0
 21 20  1  0  0  0
 21 22  1  0  0  0
 23 22  1  0  0  0
 23 16  2  0  0  0
  3 10  1  0  0  0
 17 24  1  0  0  0
 17 25  1  0  0  0
 22 26  1  0  0  0
M  END
> <minimizedAffinity>
-8.92880

$$$$
5AM6_38O_A_1766


 33 37  0  0  0  0  0  0  0  0999 V2000
  219.2623   -8.0458   28.3909 C   0  0  0  0  0  0  0  0  0  0  0  0
  217.8999   -6.8830   24.2651 C   0  0  0  0  0  0  0  0  0  0  0  0
  218.2981   -5.8800   25.0577 N   0  0  0  0  0  0  0  0  0  0  0  0
  219.1308   -5.8465   27.3985 C   0  0  0  0  0  0  0  0  0  0  0  0
  219.4224   -6.6638   28.4758 C   0  0  0  0  0  0  0  0  0  0  0  0
  218.7834   -8.6635   27.2193 C   0  0  0  0  0  0  0  0  0  0  0  0
  218.4716   -7.8825   26.1000 C   0  0  0  0  0  0  0  0  0  0  0  0
  218.0198   -8.1037   24.8390 N   0  0  0  0  0  0  0  0  0  0  0  0
  218.6576   -6.4147   26.2246 C   0  0  0  0  0  0  0  0  0  0  0  0
  218.3210   -4.9244   24.8222 H   0  0  0  0  0  0  0  0  0  0  0  0
  217.4505   -6.7614   22.8503 C   0  0  0  0  0  0  0  0  0  0  0  0
  216.3403   -7.6215   22.3528 C   0  0  0  0  0  0  0  0  0  0  0  0
  214.8267   -8.2057   20.3024 C   0  0  0  0  0  0  0  0  0  0  0  0
  214.4965   -7.9478   18.9635 C   0  0  0  0  0  0  0  0  0  0  0  0
  215.1851   -6.9829   18.2316 C   0  0  0  0  0  0  0  0  0  0  0  0
  218.9849   -5.0576   22.2976 O   0  0  0  0  0  0  0  0  0  0  0  0
  215.7270   -8.5452   23.1445 N   0  0  0  0  0  0  0  0  0  0  0  0
  215.9175   -7.4297   20.9401 C   0  0  0  0  0  0  0  0  0  0  0  0
  214.1617   -9.1306   21.0221 F   0  0  0  0  0  0  0  0  0  0  0  0
  216.2239   -6.2303   18.7869 C   0  0  0  0  0  0  0  0  0  0  0  0
  216.6217   -6.4157   20.1128 C   0  0  0  0  0  0  0  0  0  0  0  0
  217.6071   -5.6805   20.6397 N   0  0  0  0  0  0  0  0  0  0  0  0
  218.0517   -5.7965   21.9058 C   0  0  0  0  0  0  0  0  0  0  0  0
  214.9963   -9.0966   22.7822 H   0  0  0  0  0  0  0  0  0  0  0  0
  216.0145   -8.6612   24.0789 H   0  0  0  0  0  0  0  0  0  0  0  0
  218.0368   -5.0085   20.0625 H   0  0  0  0  0  0  0  0  0  0  0  0
  219.9927  -11.6552   32.5425 C   0  0  0  0  0  0  0  0  0  0  0  0
  220.9721  -10.0041   31.0889 C   0  0  0  0  0  0  0  0  0  0  0  0
  220.8654   -9.4347   29.6796 C   0  0  0  0  0  0  0  0  0  0  0  0
  218.5785   -8.7154   30.6356 C   0  0  0  0  0  0  0  0  0  0  0  0
  218.6245   -9.9281   31.5757 C   0  0  0  0  0  0  0  0  0  0  0  0
  219.7786  -10.8141   31.3521 N   0  0  0  0  0  0  0  0  0  0  0  0
  219.5786   -8.7598   29.5562 N   0  0  0  0  0  0  0  0  0  0  0  0
 29 28  1  0  0  0
 29 33  1  0  0  0
 28 32  1  0  0  0
 19 13  1  0  0  0
 32 27  1  0  0  0
 32 31  1  0  0  0
 33 30  1  0  0  0
 33  1  1  0  0  0
 17 12  1  0  0  0
 30 31  1  0  0  0
  6  1  2  0  0  0
  6  7  1  0  0  0
  1  5  1  0  0  0
 13 14  2  0  0  0
 13 18  1  0  0  0
  8  7  1  0  0  0
  8  2  2  0  0  0
  7  9  2  0  0  0
 14 15  1  0  0  0
 12 18  1  0  0  0
 12 11  2  0  0  0
  5  4  2  0  0  0
 18 21  2  0  0  0
  2 11  1  0  0  0
  2  3  1  0  0  0
  9  4  1  0  0  0
  9  3  1  0  0  0
 11 23  1  0  0  0
 15 20  2  0  0  0
 21 20  1  0  0  0
 21 22  1  0  0  0
 23 22  1  0  0  0
 23 16  2  0  0  0
  3 10  1  0  0  0
 17 24  1  0  0  0
 17 25  1  0  0  0
 22 26  1  0  0  0
M  END
> <minimizedAffinity>
-8.61584

$$$$
5AM6_38O_A_1766


 33 37  0  0  0  0  0  0  0  0999 V2000
  218.4697   -7.5972   27.0547 C   0  0  0  0  0  0  0  0  0  0  0  0
  216.8054   -7.2698   22.8891 C   0  0  0  0  0  0  0  0  0  0  0  0
  217.7961   -6.4228   23.1950 N   0  0  0  0  0  0  0  0  0  0  0  0
  219.1049   -6.0852   25.2801 C   0  0  0  0  0  0  0  0  0  0  0  0
  219.2524   -6.5483   26.5752 C   0  0  0  0  0  0  0  0  0  0  0  0
  217.4900   -8.2144   26.2531 C   0  0  0  0  0  0  0  0  0  0  0  0
  217.2984   -7.7833   24.9350 C   0  0  0  0  0  0  0  0  0  0  0  0
  216.4988   -8.1258   23.8927 N   0  0  0  0  0  0  0  0  0  0  0  0
  218.1517   -6.6666   24.4563 C   0  0  0  0  0  0  0  0  0  0  0  0
  218.1891   -5.7451   22.5987 H   0  0  0  0  0  0  0  0  0  0  0  0
  216.1246   -7.3881   21.5696 C   0  0  0  0  0  0  0  0  0  0  0  0
  216.4077   -6.3886   20.5016 C   0  0  0  0  0  0  0  0  0  0  0  0
  215.9027   -5.6734   18.0379 C   0  0  0  0  0  0  0  0  0  0  0  0
  215.2139   -5.9412   16.8454 C   0  0  0  0  0  0  0  0  0  0  0  0
  214.3606   -7.0379   16.7448 C   0  0  0  0  0  0  0  0  0  0  0  0
  214.9256   -9.3385   22.1359 O   0  0  0  0  0  0  0  0  0  0  0  0
  217.2579   -5.3416   20.6943 N   0  0  0  0  0  0  0  0  0  0  0  0
  215.7204   -6.5801   19.1969 C   0  0  0  0  0  0  0  0  0  0  0  0
  216.7369   -4.6206   18.1436 F   0  0  0  0  0  0  0  0  0  0  0  0
  214.1521   -7.9172   17.8111 C   0  0  0  0  0  0  0  0  0  0  0  0
  214.7956   -7.7323   19.0367 C   0  0  0  0  0  0  0  0  0  0  0  0
  214.6010   -8.5876   20.0466 N   0  0  0  0  0  0  0  0  0  0  0  0
  215.1799   -8.4813   21.2581 C   0  0  0  0  0  0  0  0  0  0  0  0
  217.4215   -4.6999   19.9658 H   0  0  0  0  0  0  0  0  0  0  0  0
  217.7087   -5.2267   21.5620 H   0  0  0  0  0  0  0  0  0  0  0  0
  213.9929   -9.3466   19.8939 H   0  0  0  0  0  0  0  0  0  0  0  0
  219.3899  -10.0230   31.9605 C   0  0  0  0  0  0  0  0  0  0  0  0
  219.9957   -8.2861   30.4066 C   0  0  0  0  0  0  0  0  0  0  0  0
  220.0668   -7.9852   28.9146 C   0  0  0  0  0  0  0  0  0  0  0  0
  217.5151   -8.2398   29.2066 C   0  0  0  0  0  0  0  0  0  0  0  0
  217.7755   -9.1938   30.3806 C   0  0  0  0  0  0  0  0  0  0  0  0
  219.1987   -9.5022   30.5957 N   0  0  0  0  0  0  0  0  0  0  0  0
  218.7069   -7.9626   28.3881 N   0  0  0  0  0  0  0  0  0  0  0  0
 29 28  1  0  0  0
 29 33  1  0  0  0
 28 32  1  0  0  0
 19 13  1  0  0  0
 32 27  1  0  0  0
 32 31  1  0  0  0
 33 30  1  0  0  0
 33  1  1  0  0  0
 17 12  1  0  0  0
 30 31  1  0  0  0
  6  1  2  0  0  0
  6  7  1  0  0  0
  1  5  1  0  0  0
 13 14  2  0  0  0
 13 18  1  0  0  0
  8  7  1  0  0  0
  8  2  2  0  0  0
  7  9  2  0  0  0
 14 15  1  0  0  0
 12 18  1  0  0  0
 12 11  2  0  0  0
  5  4  2  0  0  0
 18 21  2  0  0  0
  2 11  1  0  0  0
  2  3  1  0  0  0
  9  4  1  0  0  0
  9  3  1  0  0  0
 11 23  1  0  0  0
 15 20  2  0  0  0
 21 20  1  0  0  0
 21 22  1  0  0  0
 23 22  1  0  0  0
 23 16  2  0  0  0
  3 10  1  0  0  0
 17 24  1  0  0  0
 17 25  1  0  0  0
 22 26  1  0  0  0
M  END
> <minimizedAffinity>
-8.56965

$$$$
5AM6_38O_A_1766


 33 37  0  0  0  0  0  0  0  0999 V2000
  215.8644   -7.4927   20.5830 C   0  0  0  0  0  0  0  0  0  0  0  0
  218.2086   -7.3105   24.4173 C   0  0  0  0  0  0  0  0  0  0  0  0
  217.1170   -8.0857   24.4314 N   0  0  0  0  0  0  0  0  0  0  0  0
  215.4204   -8.5926   22.6882 C   0  0  0  0  0  0  0  0  0  0  0  0
  215.0753   -8.3242   21.3758 C   0  0  0  0  0  0  0  0  0  0  0  0
  217.0290   -6.8803   21.0854 C   0  0  0  0  0  0  0  0  0  0  0  0
  217.4229   -7.1171   22.4078 C   0  0  0  0  0  0  0  0  0  0  0  0
  218.4477   -6.7380   23.2135 N   0  0  0  0  0  0  0  0  0  0  0  0
  216.5610   -8.0105   23.2222 C   0  0  0  0  0  0  0  0  0  0  0  0
  216.7863   -8.6135   25.1937 H   0  0  0  0  0  0  0  0  0  0  0  0
  219.1689   -7.1224   25.5401 C   0  0  0  0  0  0  0  0  0  0  0  0
  220.0688   -5.9350   25.5496 C   0  0  0  0  0  0  0  0  0  0  0  0
  221.9318   -4.6599   26.8687 C   0  0  0  0  0  0  0  0  0  0  0  0
  222.7496   -4.6058   28.0074 C   0  0  0  0  0  0  0  0  0  0  0  0
  222.6835   -5.5997   28.9814 C   0  0  0  0  0  0  0  0  0  0  0  0
  218.5113   -9.0703   26.6958 O   0  0  0  0  0  0  0  0  0  0  0  0
  220.0657   -5.0138   24.5458 N   0  0  0  0  0  0  0  0  0  0  0  0
  220.9821   -5.7880   26.7140 C   0  0  0  0  0  0  0  0  0  0  0  0
  221.9814   -3.6998   25.9246 F   0  0  0  0  0  0  0  0  0  0  0  0
  221.8089   -6.6850   28.8773 C   0  0  0  0  0  0  0  0  0  0  0  0
  220.9554   -6.8226   27.7805 C   0  0  0  0  0  0  0  0  0  0  0  0
  220.1115   -7.8571   27.6969 N   0  0  0  0  0  0  0  0  0  0  0  0
  219.2585   -8.0646   26.6753 C   0  0  0  0  0  0  0  0  0  0  0  0
  220.6744   -4.2410   24.5851 H   0  0  0  0  0  0  0  0  0  0  0  0
  219.4549   -5.1210   23.7813 H   0  0  0  0  0  0  0  0  0  0  0  0
  220.1141   -8.5115   28.4323 H   0  0  0  0  0  0  0  0  0  0  0  0
  214.5802   -7.5435   15.1843 C   0  0  0  0  0  0  0  0  0  0  0  0
  213.8097   -7.3202   17.4547 C   0  0  0  0  0  0  0  0  0  0  0  0
  214.0960   -7.8065   18.8700 C   0  0  0  0  0  0  0  0  0  0  0  0
  216.2591   -6.4799   18.3982 C   0  0  0  0  0  0  0  0  0  0  0  0
  216.0810   -6.7807   16.9034 C   0  0  0  0  0  0  0  0  0  0  0  0
  214.9503   -7.6745   16.6042 N   0  0  0  0  0  0  0  0  0  0  0  0
  215.3979   -7.2895   19.2758 N   0  0  0  0  0  0  0  0  0  0  0  0
 29 28  1  0  0  0
 29 33  1  0  0  0
 28 32  1  0  0  0
 19 13  1  0  0  0
 32 27  1  0  0  0
 32 31  1  0  0  0
 33 30  1  0  0  0
 33  1  1  0  0  0
 17 12  1  0  0  0
 30 31  1  0  0  0
  6  1  2  0  0  0
  6  7  1  0  0  0
  1  5  1  0  0  0
 13 14  2  0  0  0
 13 18  1  0  0  0
  8  7  1  0  0  0
  8  2  2  0  0  0
  7  9  2  0  0  0
 14 15  1  0  0  0
 12 18  1  0  0  0
 12 11  2  0  0  0
  5  4  2  0  0  0
 18 21  2  0  0  0
  2 11  1  0  0  0
  2  3  1  0  0  0
  9  4  1  0  0  0
  9  3  1  0  0  0
 11 23  1  0  0  0
 15 20  2  0  0  0
 21 20  1  0  0  0
 21 22  1  0  0  0
 23 22  1  0  0  0
 23 16  2  0  0  0
  3 10  1  0  0  0
 17 24  1  0  0  0
 17 25  1  0  0  0
 22 26  1  0  0  0
M  END
> <minimizedAffinity>
-8.48478

$$$$
5AM6_38O_A_1766


 33 37  0  0  0  0  0  0  0  0999 V2000
  218.3106   -7.1714   23.9923 C   0  0  0  0  0  0  0  0  0  0  0  0
  219.2576   -5.3971   19.9692 C   0  0  0  0  0  0  0  0  0  0  0  0
  218.1426   -6.1349   20.0391 N   0  0  0  0  0  0  0  0  0  0  0  0
  217.0900   -7.3759   21.9169 C   0  0  0  0  0  0  0  0  0  0  0  0
  217.2385   -7.6768   23.2589 C   0  0  0  0  0  0  0  0  0  0  0  0
  219.2912   -6.3531   23.3989 C   0  0  0  0  0  0  0  0  0  0  0  0
  219.1897   -6.0190   22.0432 C   0  0  0  0  0  0  0  0  0  0  0  0
  219.8976   -5.2737   21.1563 N   0  0  0  0  0  0  0  0  0  0  0  0
  218.0333   -6.5718   21.2937 C   0  0  0  0  0  0  0  0  0  0  0  0
  217.5187   -6.3205   19.3004 H   0  0  0  0  0  0  0  0  0  0  0  0
  219.7589   -4.6713   18.7691 C   0  0  0  0  0  0  0  0  0  0  0  0
  221.2216   -4.6327   18.4883 C   0  0  0  0  0  0  0  0  0  0  0  0
  223.0733   -3.7982   16.8418 C   0  0  0  0  0  0  0  0  0  0  0  0
  223.3826   -3.1091   15.6595 C   0  0  0  0  0  0  0  0  0  0  0  0
  222.3775   -2.5347   14.8844 C   0  0  0  0  0  0  0  0  0  0  0  0
  217.6202   -4.0117   18.0250 O   0  0  0  0  0  0  0  0  0  0  0  0
  222.1343   -5.2224   19.3102 N   0  0  0  0  0  0  0  0  0  0  0  0
  221.6553   -3.9190   17.2579 C   0  0  0  0  0  0  0  0  0  0  0  0
  224.0366   -4.3648   17.5946 F   0  0  0  0  0  0  0  0  0  0  0  0
  221.0278   -2.6170   15.2382 C   0  0  0  0  0  0  0  0  0  0  0  0
  220.6239   -3.2842   16.3967 C   0  0  0  0  0  0  0  0  0  0  0  0
  219.3286   -3.3702   16.7193 N   0  0  0  0  0  0  0  0  0  0  0  0
  218.8556   -3.9925   17.8162 C   0  0  0  0  0  0  0  0  0  0  0  0
  223.0935   -5.1770   19.0935 H   0  0  0  0  0  0  0  0  0  0  0  0
  221.8345   -5.6939   20.1208 H   0  0  0  0  0  0  0  0  0  0  0  0
  218.6763   -2.9499   16.1134 H   0  0  0  0  0  0  0  0  0  0  0  0
  218.1328   -7.7495   29.5088 C   0  0  0  0  0  0  0  0  0  0  0  0
  217.6262   -8.6874   27.3496 C   0  0  0  0  0  0  0  0  0  0  0  0
  217.2370   -8.2879   25.9317 C   0  0  0  0  0  0  0  0  0  0  0  0
  219.6010   -7.2602   26.0615 C   0  0  0  0  0  0  0  0  0  0  0  0
  219.4192   -7.1104   27.5784 C   0  0  0  0  0  0  0  0  0  0  0  0
  218.0803   -7.4877   28.0600 N   0  0  0  0  0  0  0  0  0  0  0  0
  218.3545   -7.5623   25.3388 N   0  0  0  0  0  0  0  0  0  0  0  0
 29 28  1  0  0  0
 29 33  1  0  0  0
 28 32  1  0  0  0
 19 13  1  0  0  0
 32 27  1  0  0  0
 32 31  1  0  0  0
 33 30  1  0  0  0
 33  1  1  0  0  0
 17 12  1  0  0  0
 30 31  1  0  0  0
  6  1  2  0  0  0
  6  7  1  0  0  0
  1  5  1  0  0  0
 13 14  2  0  0  0
 13 18  1  0  0  0
  8  7  1  0  0  0
  8  2  2  0  0  0
  7  9  2  0  0  0
 14 15  1  0  0  0
 12 18  1  0  0  0
 12 11  2  0  0  0
  5  4  2  0  0  0
 18 21  2  0  0  0
  2 11  1  0  0  0
  2  3  1  0  0  0
  9  4  1  0  0  0
  9  3  1  0  0  0
 11 23  1  0  0  0
 15 20  2  0  0  0
 21 20  1  0  0  0
 21 22  1  0  0  0
 23 22  1  0  0  0
 23 16  2  0  0  0
  3 10  1  0  0  0
 17 24  1  0  0  0
 17 25  1  0  0  0
 22 26  1  0  0  0
M  END
> <minimizedAffinity>
-8.20831

$$$$
5AM6_38O_A_1766


 33 37  0  0  0  0  0  0  0  0999 V2000
  216.8963   -6.0279   20.2943 C   0  0  0  0  0  0  0  0  0  0  0  0
  219.5584   -6.5094   23.8876 C   0  0  0  0  0  0  0  0  0  0  0  0
  219.5568   -5.2993   23.3145 N   0  0  0  0  0  0  0  0  0  0  0  0
  218.3490   -4.4025   21.3368 C   0  0  0  0  0  0  0  0  0  0  0  0
  217.4461   -4.7482   20.3474 C   0  0  0  0  0  0  0  0  0  0  0  0
  217.2470   -7.0221   21.2282 C   0  0  0  0  0  0  0  0  0  0  0  0
  218.1577   -6.7256   22.2493 C   0  0  0  0  0  0  0  0  0  0  0  0
  218.7078   -7.3847   23.3010 N   0  0  0  0  0  0  0  0  0  0  0  0
  218.7207   -5.3520   22.2777 C   0  0  0  0  0  0  0  0  0  0  0  0
  220.0770   -4.5156   23.6051 H   0  0  0  0  0  0  0  0  0  0  0  0
  220.3156   -6.9042   25.1078 C   0  0  0  0  0  0  0  0  0  0  0  0
  219.5843   -7.4528   26.2842 C   0  0  0  0  0  0  0  0  0  0  0  0
  219.8195   -8.4232   28.7007 C   0  0  0  0  0  0  0  0  0  0  0  0
  220.6739   -8.7809   29.7544 C   0  0  0  0  0  0  0  0  0  0  0  0
  222.0515   -8.6023   29.6484 C   0  0  0  0  0  0  0  0  0  0  0  0
  222.4285   -6.3391   24.2250 O   0  0  0  0  0  0  0  0  0  0  0  0
  218.2286   -7.5871   26.2980 N   0  0  0  0  0  0  0  0  0  0  0  0
  220.4007   -7.8576   27.4594 C   0  0  0  0  0  0  0  0  0  0  0  0
  218.4866   -8.5994   28.7892 F   0  0  0  0  0  0  0  0  0  0  0  0
  222.6453   -8.0679   28.5014 C   0  0  0  0  0  0  0  0  0  0  0  0
  221.8755   -7.6846   27.4009 C   0  0  0  0  0  0  0  0  0  0  0  0
  222.4542   -7.1878   26.3020 N   0  0  0  0  0  0  0  0  0  0  0  0
  221.7866   -6.7937   25.2005 C   0  0  0  0  0  0  0  0  0  0  0  0
  217.7783   -7.9537   27.0931 H   0  0  0  0  0  0  0  0  0  0  0  0
  217.6992   -7.3176   25.5129 H   0  0  0  0  0  0  0  0  0  0  0  0
  223.4351   -7.1046   26.2980 H   0  0  0  0  0  0  0  0  0  0  0  0
  214.1473   -7.5096   15.7068 C   0  0  0  0  0  0  0  0  0  0  0  0
  214.1092   -7.2311   18.0983 C   0  0  0  0  0  0  0  0  0  0  0  0
  215.0052   -7.3124   19.3281 C   0  0  0  0  0  0  0  0  0  0  0  0
  216.1051   -5.3305   18.0937 C   0  0  0  0  0  0  0  0  0  0  0  0
  215.6188   -5.9275   16.7658 C   0  0  0  0  0  0  0  0  0  0  0  0
  214.9605   -7.2369   16.9045 N   0  0  0  0  0  0  0  0  0  0  0  0
  216.0054   -6.2552   19.2349 N   0  0  0  0  0  0  0  0  0  0  0  0
 29 28  1  0  0  0
 29 33  1  0  0  0
 28 32  1  0  0  0
 19 13  1  0  0  0
 32 27  1  0  0  0
 32 31  1  0  0  0
 33 30  1  0  0  0
 33  1  1  0  0  0
 17 12  1  0  0  0
 30 31  1  0  0  0
  6  1  2  0  0  0
  6  7  1  0  0  0
  1  5  1  0  0  0
 13 14  2  0  0  0
 13 18  1  0  0  0
  8  7  1  0  0  0
  8  2  2  0  0  0
  7  9  2  0  0  0
 14 15  1  0  0  0
 12 18  1  0  0  0
 12 11  2  0  0  0
  5  4  2  0  0  0
 18 21  2  0  0  0
  2 11  1  0  0  0
  2  3  1  0  0  0
  9  4  1  0  0  0
  9  3  1  0  0  0
 11 23  1  0  0  0
 15 20  2  0  0  0
 21 20  1  0  0  0
 21 22  1  0  0  0
 23 22  1  0  0  0
 23 16  2  0  0  0
  3 10  1  0  0  0
 17 24  1  0  0  0
 17 25  1  0  0  0
 22 26  1  0  0  0
M  END
> <minimizedAffinity>
-8.19156

$$$$
5AM6_38O_A_1766


 33 37  0  0  0  0  0  0  0  0999 V2000
  220.8815   -6.8437   26.0688 C   0  0  0  0  0  0  0  0  0  0  0  0
  218.8583   -6.2030   22.1032 C   0  0  0  0  0  0  0  0  0  0  0  0
  220.1938   -6.2944   22.0744 N   0  0  0  0  0  0  0  0  0  0  0  0
  221.8729   -6.6231   23.8763 C   0  0  0  0  0  0  0  0  0  0  0  0
  222.0029   -6.7970   25.2424 C   0  0  0  0  0  0  0  0  0  0  0  0
  219.5783   -6.6993   25.5547 C   0  0  0  0  0  0  0  0  0  0  0  0
  219.3902   -6.5193   24.1792 C   0  0  0  0  0  0  0  0  0  0  0  0
  218.3334   -6.3663   23.3408 N   0  0  0  0  0  0  0  0  0  0  0  0
  220.6065   -6.4781   23.3285 C   0  0  0  0  0  0  0  0  0  0  0  0
  220.7653   -6.2365   21.2748 H   0  0  0  0  0  0  0  0  0  0  0  0
  217.9619   -6.0376   20.9253 C   0  0  0  0  0  0  0  0  0  0  0  0
  216.7749   -6.9249   20.7716 C   0  0  0  0  0  0  0  0  0  0  0  0
  214.6847   -7.4845   19.3039 C   0  0  0  0  0  0  0  0  0  0  0  0
  213.9219   -7.1810   18.1663 C   0  0  0  0  0  0  0  0  0  0  0  0
  214.3007   -6.1522   17.3065 C   0  0  0  0  0  0  0  0  0  0  0  0
  219.1762   -4.2403   19.9992 O   0  0  0  0  0  0  0  0  0  0  0  0
  216.4859   -7.9117   21.6653 N   0  0  0  0  0  0  0  0  0  0  0  0
  215.9022   -6.6884   19.5911 C   0  0  0  0  0  0  0  0  0  0  0  0
  214.3231   -8.4716   20.1467 F   0  0  0  0  0  0  0  0  0  0  0  0
  215.4425   -5.3782   17.5318 C   0  0  0  0  0  0  0  0  0  0  0  0
  216.2626   -5.6055   18.6392 C   0  0  0  0  0  0  0  0  0  0  0  0
  217.3453   -4.8500   18.8543 N   0  0  0  0  0  0  0  0  0  0  0  0
  218.1878   -5.0032   19.8940 C   0  0  0  0  0  0  0  0  0  0  0  0
  215.6927   -8.4795   21.5322 H   0  0  0  0  0  0  0  0  0  0  0  0
  217.0702   -8.0571   22.4443 H   0  0  0  0  0  0  0  0  0  0  0  0
  217.5396   -4.1328   18.2084 H   0  0  0  0  0  0  0  0  0  0  0  0
  221.3897   -8.3858   31.3756 C   0  0  0  0  0  0  0  0  0  0  0  0
  222.4636   -7.5411   29.3928 C   0  0  0  0  0  0  0  0  0  0  0  0
  222.4014   -7.6168   27.8722 C   0  0  0  0  0  0  0  0  0  0  0  0
  220.1389   -6.4764   28.3641 C   0  0  0  0  0  0  0  0  0  0  0  0
  220.1163   -7.1791   29.7287 C   0  0  0  0  0  0  0  0  0  0  0  0
  221.2302   -8.1190   29.9355 N   0  0  0  0  0  0  0  0  0  0  0  0
  221.1493   -7.0098   27.4357 N   0  0  0  0  0  0  0  0  0  0  0  0
 29 28  1  0  0  0
 29 33  1  0  0  0
 28 32  1  0  0  0
 19 13  1  0  0  0
 32 27  1  0  0  0
 32 31  1  0  0  0
 33 30  1  0  0  0
 33  1  1  0  0  0
 17 12  1  0  0  0
 30 31  1  0  0  0
  6  1  2  0  0  0
  6  7  1  0  0  0
  1  5  1  0  0  0
 13 14  2  0  0  0
 13 18  1  0  0  0
  8  7  1  0  0  0
  8  2  2  0  0  0
  7  9  2  0  0  0
 14 15  1  0  0  0
 12 18  1  0  0  0
 12 11  2  0  0  0
  5  4  2  0  0  0
 18 21  2  0  0  0
  2 11  1  0  0  0
  2  3  1  0  0  0
  9  4  1  0  0  0
  9  3  1  0  0  0
 11 23  1  0  0  0
 15 20  2  0  0  0
 21 20  1  0  0  0
 21 22  1  0  0  0
 23 22  1  0  0  0
 23 16  2  0  0  0
  3 10  1  0  0  0
 17 24  1  0  0  0
 17 25  1  0  0  0
 22 26  1  0  0  0
M  END
> <minimizedAffinity>
-8.09205

$$$$
5AM6_38O_A_1766


 33 37  0  0  0  0  0  0  0  0999 V2000
  218.6104   -7.1803   27.9067 C   0  0  0  0  0  0  0  0  0  0  0  0
  217.3985   -7.2235   23.5755 C   0  0  0  0  0  0  0  0  0  0  0  0
  216.9541   -8.2430   24.3209 N   0  0  0  0  0  0  0  0  0  0  0  0
  217.2723   -8.8053   26.7203 C   0  0  0  0  0  0  0  0  0  0  0  0
  217.8778   -8.3658   27.8837 C   0  0  0  0  0  0  0  0  0  0  0  0
  218.7792   -6.3936   26.7508 C   0  0  0  0  0  0  0  0  0  0  0  0
  218.1887   -6.7934   25.5461 C   0  0  0  0  0  0  0  0  0  0  0  0
  218.1143   -6.3137   24.2783 N   0  0  0  0  0  0  0  0  0  0  0  0
  217.4127   -8.0592   25.5590 C   0  0  0  0  0  0  0  0  0  0  0  0
  216.3924   -8.9902   24.0119 H   0  0  0  0  0  0  0  0  0  0  0  0
  217.0981   -6.9897   22.1355 C   0  0  0  0  0  0  0  0  0  0  0  0
  218.1418   -6.3998   21.2509 C   0  0  0  0  0  0  0  0  0  0  0  0
  218.7224   -5.6521   18.8136 C   0  0  0  0  0  0  0  0  0  0  0  0
  218.3002   -5.5283   17.4814 C   0  0  0  0  0  0  0  0  0  0  0  0
  217.0204   -5.9238   17.0985 C   0  0  0  0  0  0  0  0  0  0  0  0
  214.9014   -7.8410   22.2474 O   0  0  0  0  0  0  0  0  0  0  0  0
  219.3694   -6.0379   21.7180 N   0  0  0  0  0  0  0  0  0  0  0  0
  217.7906   -6.2209   19.8170 C   0  0  0  0  0  0  0  0  0  0  0  0
  219.9607   -5.2806   19.1933 F   0  0  0  0  0  0  0  0  0  0  0  0
  216.1050   -6.4599   18.0087 C   0  0  0  0  0  0  0  0  0  0  0  0
  216.4363   -6.6228   19.3556 C   0  0  0  0  0  0  0  0  0  0  0  0
  215.5586   -7.1503   20.2162 N   0  0  0  0  0  0  0  0  0  0  0  0
  215.7970   -7.3400   21.5283 C   0  0  0  0  0  0  0  0  0  0  0  0
  220.0351   -5.6509   21.1045 H   0  0  0  0  0  0  0  0  0  0  0  0
  219.5908   -6.1635   22.6690 H   0  0  0  0  0  0  0  0  0  0  0  0
  214.6781   -7.4182   19.8667 H   0  0  0  0  0  0  0  0  0  0  0  0
  221.6178   -6.5877   32.5329 C   0  0  0  0  0  0  0  0  0  0  0  0
  220.4238   -5.5209   30.7344 C   0  0  0  0  0  0  0  0  0  0  0  0
  220.0659   -5.6971   29.2639 C   0  0  0  0  0  0  0  0  0  0  0  0
  218.7881   -7.6932   30.2858 C   0  0  0  0  0  0  0  0  0  0  0  0
  219.8299   -7.7439   31.4122 C   0  0  0  0  0  0  0  0  0  0  0  0
  220.9426   -6.7956   31.2402 N   0  0  0  0  0  0  0  0  0  0  0  0
  219.1855   -6.8536   29.1437 N   0  0  0  0  0  0  0  0  0  0  0  0
 29 28  1  0  0  0
 29 33  1  0  0  0
 28 32  1  0  0  0
 19 13  1  0  0  0
 32 27  1  0  0  0
 32 31  1  0  0  0
 33 30  1  0  0  0
 33  1  1  0  0  0
 17 12  1  0  0  0
 30 31  1  0  0  0
  6  1  2  0  0  0
  6  7  1  0  0  0
  1  5  1  0  0  0
 13 14  2  0  0  0
 13 18  1  0  0  0
  8  7  1  0  0  0
  8  2  2  0  0  0
  7  9  2  0  0  0
 14 15  1  0  0  0
 12 18  1  0  0  0
 12 11  2  0  0  0
  5  4  2  0  0  0
 18 21  2  0  0  0
  2 11  1  0  0  0
  2  3  1  0  0  0
  9  4  1  0  0  0
  9  3  1  0  0  0
 11 23  1  0  0  0
 15 20  2  0  0  0
 21 20  1  0  0  0
 21 22  1  0  0  0
 23 22  1  0  0  0
 23 16  2  0  0  0
  3 10  1  0  0  0
 17 24  1  0  0  0
 17 25  1  0  0  0
 22 26  1  0  0  0
M  END
> <minimizedAffinity>
-8.06429

$$$$
5AM6_38O_A_1766


 33 37  0  0  0  0  0  0  0  0999 V2000
  216.8544   -6.9371   22.2710 C   0  0  0  0  0  0  0  0  0  0  0  0
  218.5057   -7.9216   26.3372 C   0  0  0  0  0  0  0  0  0  0  0  0
  219.1400   -6.9542   25.6630 N   0  0  0  0  0  0  0  0  0  0  0  0
  218.7505   -5.9702   23.4148 C   0  0  0  0  0  0  0  0  0  0  0  0
  217.9245   -6.0450   22.3078 C   0  0  0  0  0  0  0  0  0  0  0  0
  216.5804   -7.8070   23.3442 C   0  0  0  0  0  0  0  0  0  0  0  0
  217.3863   -7.7736   24.4885 C   0  0  0  0  0  0  0  0  0  0  0  0
  217.4279   -8.4165   25.6835 N   0  0  0  0  0  0  0  0  0  0  0  0
  218.5149   -6.8088   24.4948 C   0  0  0  0  0  0  0  0  0  0  0  0
  219.9234   -6.4446   25.9728 H   0  0  0  0  0  0  0  0  0  0  0  0
  218.8303   -8.3945   27.7117 C   0  0  0  0  0  0  0  0  0  0  0  0
  217.7450   -8.5164   28.7251 C   0  0  0  0  0  0  0  0  0  0  0  0
  217.1628   -9.2043   31.1796 C   0  0  0  0  0  0  0  0  0  0  0  0
  217.6208   -9.6957   32.4112 C   0  0  0  0  0  0  0  0  0  0  0  0
  218.9660  -10.0048   32.6007 C   0  0  0  0  0  0  0  0  0  0  0  0
  221.1318   -8.6853   27.2861 O   0  0  0  0  0  0  0  0  0  0  0  0
  216.4529   -8.1846   28.4484 N   0  0  0  0  0  0  0  0  0  0  0  0
  218.1287   -9.0241   30.0691 C   0  0  0  0  0  0  0  0  0  0  0  0
  215.8627   -8.9101   30.9827 F   0  0  0  0  0  0  0  0  0  0  0  0
  219.9147   -9.8464   31.5865 C   0  0  0  0  0  0  0  0  0  0  0  0
  219.5520   -9.3653   30.3266 C   0  0  0  0  0  0  0  0  0  0  0  0
  220.4645   -9.2310   29.3578 N   0  0  0  0  0  0  0  0  0  0  0  0
  220.1995   -8.7742   28.1187 C   0  0  0  0  0  0  0  0  0  0  0  0
  215.7612   -8.2779   29.1427 H   0  0  0  0  0  0  0  0  0  0  0  0
  216.2109   -7.8517   27.5540 H   0  0  0  0  0  0  0  0  0  0  0  0
  221.3934   -9.4833   29.5646 H   0  0  0  0  0  0  0  0  0  0  0  0
  214.6696   -7.4588   17.1963 C   0  0  0  0  0  0  0  0  0  0  0  0
  214.3258   -7.5609   19.5774 C   0  0  0  0  0  0  0  0  0  0  0  0
  215.0425   -7.9043   20.8774 C   0  0  0  0  0  0  0  0  0  0  0  0
  216.4056   -5.8415   20.1372 C   0  0  0  0  0  0  0  0  0  0  0  0
  216.0701   -6.1814   18.6784 C   0  0  0  0  0  0  0  0  0  0  0  0
  215.3282   -7.4422   18.5140 N   0  0  0  0  0  0  0  0  0  0  0  0
  216.1028   -6.9251   21.0866 N   0  0  0  0  0  0  0  0  0  0  0  0
 29 28  1  0  0  0
 29 33  1  0  0  0
 28 32  1  0  0  0
 19 13  1  0  0  0
 32 27  1  0  0  0
 32 31  1  0  0  0
 33 30  1  0  0  0
 33  1  1  0  0  0
 17 12  1  0  0  0
 30 31  1  0  0  0
  6  1  2  0  0  0
  6  7  1  0  0  0
  1  5  1  0  0  0
 13 14  2  0  0  0
 13 18  1  0  0  0
  8  7  1  0  0  0
  8  2  2  0  0  0
  7  9  2  0  0  0
 14 15  1  0  0  0
 12 18  1  0  0  0
 12 11  2  0  0  0
  5  4  2  0  0  0
 18 21  2  0  0  0
  2 11  1  0  0  0
  2  3  1  0  0  0
  9  4  1  0  0  0
  9  3  1  0  0  0
 11 23  1  0  0  0
 15 20  2  0  0  0
 21 20  1  0  0  0
 21 22  1  0  0  0
 23 22  1  0  0  0
 23 16  2  0  0  0
  3 10  1  0  0  0
 17 24  1  0  0  0
 17 25  1  0  0  0
 22 26  1  0  0  0
M  END
> <minimizedAffinity>
-8.04981

$$$$
