2YKI_YKI_A_1224


 37 43  0  0  0  0  0  0  0  0999 V2000
    7.5532   14.3063   25.9269 C   0  0  0  0  0  0  0  0  0  0  0  0
    4.6979   14.4524   25.5210 C   0  0  0  0  0  0  0  0  0  0  0  0
    5.3732   15.4733   26.2549 C   0  0  0  0  0  0  0  0  0  0  0  0
    6.7920   15.3835   26.4477 C   0  0  0  0  0  0  0  0  0  0  0  0
    4.8119   12.2350   24.2020 C   0  0  0  0  0  0  0  0  0  0  0  0
    5.4275   13.3335   24.9740 C   0  0  0  0  0  0  0  0  0  0  0  0
    6.8166   13.2151   25.1472 C   0  0  0  0  0  0  0  0  0  0  0  0
    6.0711   11.3657   23.9098 C   0  0  0  0  0  0  0  0  0  0  0  0
    7.2504   11.9726   24.4706 C   0  0  0  0  0  0  0  0  0  0  0  0
    8.5390   11.3039   24.2913 C   0  0  0  0  0  0  0  0  0  0  0  0
    8.6260   10.0694   23.5671 C   0  0  0  0  0  0  0  0  0  0  0  0
    7.4216    9.4734   23.0089 C   0  0  0  0  0  0  0  0  0  0  0  0
    6.1532   10.1210   23.1788 C   0  0  0  0  0  0  0  0  0  0  0  0
   13.5302   14.3219   26.4081 C   0  0  0  0  0  0  0  0  0  0  0  0
   13.2410   14.6319   27.7364 N   0  0  0  0  0  0  0  0  0  0  0  0
   11.9293   14.7521   28.1840 C   0  0  0  0  0  0  0  0  0  0  0  0
    9.5075   14.5967   27.3758 N   0  0  0  0  0  0  0  0  0  0  0  0
   12.5069   14.1095   25.4538 C   0  0  0  0  0  0  0  0  0  0  0  0
    9.9647   14.1010   25.2639 N   0  0  0  0  0  0  0  0  0  0  0  0
    8.9792   14.3257   26.1703 C   0  0  0  0  0  0  0  0  0  0  0  0
   11.1752   14.2298   25.8873 C   0  0  0  0  0  0  0  0  0  0  0  0
   10.8749   14.5500   27.2709 C   0  0  0  0  0  0  0  0  0  0  0  0
    8.9995   14.7950   28.1954 H   0  0  0  0  0  0  0  0  0  0  0  0
    3.8108   11.8066   24.5902 N   0  0  0  0  0  0  0  0  0  0  0  0
    2.6636   11.3822   24.0219 C   0  0  0  0  0  0  0  0  0  0  0  0
    2.6145   11.4314   22.7837 O   0  0  0  0  0  0  0  0  0  0  0  0
    3.7908   11.7342   25.5719 H   0  0  0  0  0  0  0  0  0  0  0  0
   -0.9158   10.1511   26.1152 N   0  0  0  0  0  0  0  0  0  0  0  0
   -2.1203   11.6074   24.5046 N   0  0  0  0  0  0  0  0  0  0  0  0
    1.4720   10.8973   24.8097 C   0  0  0  0  0  0  0  0  0  0  0  0
    1.5287    9.9863   25.9261 C   0  0  0  0  0  0  0  0  0  0  0  0
    0.2925    9.6314   26.5700 C   0  0  0  0  0  0  0  0  0  0  0  0
    0.1498   11.4253   24.3552 C   0  0  0  0  0  0  0  0  0  0  0  0
   -0.9851   11.0371   25.0345 C   0  0  0  0  0  0  0  0  0  0  0  0
   -1.7051   12.4038   23.4517 C   0  0  0  0  0  0  0  0  0  0  0  0
   -0.3026   12.3243   23.3263 C   0  0  0  0  0  0  0  0  0  0  0  0
   -3.0455   11.4747   24.8138 H   0  0  0  0  0  0  0  0  0  0  0  0
 18 14  2  0  0  0
 14 15  1  0  0  0
 15 16  2  0  0  0
 22 16  1  0  0  0
 20 17  1  0  0  0
 22 17  1  0  0  0
 18 21  1  0  0  0
 19 21  1  0  0  0
 19 20  2  0  0  0
  1 20  1  0  0  0
 25 24  1  0  0  0
  5 24  1  0  0  0
 21 22  2  0  0  0
 34 28  2  0  0  0
 28 32  1  0  0  0
 35 29  1  0  0  0
 29 34  1  0  0  0
  7  1  2  0  0  0
  1  4  1  0  0  0
  6  2  2  0  0  0
  2  3  1  0  0  0
  3  4  2  0  0  0
 26 25  2  0  0  0
 25 30  1  0  0  0
 33 30  2  0  0  0
 30 31  1  0  0  0
 31 32  2  0  0  0
  8  5  1  0  0  0
  5  6  1  0  0  0
  6  7  1  0  0  0
  9  7  1  0  0  0
 13  8  2  0  0  0
  8  9  1  0  0  0
 10  9  2  0  0  0
 11 10  1  0  0  0
 12 11  2  0  0  0
 12 13  1  0  0  0
 36 33  1  0  0  0
 33 34  1  0  0  0
 36 35  2  0  0  0
 17 23  1  0  0  0
 24 27  1  0  0  0
 29 37  1  0  0  0
M  END
> <minimizedAffinity>
-15.72637

$$$$
2YKI_YKI_A_1224


 37 43  0  0  0  0  0  0  0  0999 V2000
    7.3250   14.3770   25.8182 C   0  0  0  0  0  0  0  0  0  0  0  0
    4.4779   14.5431   25.3652 C   0  0  0  0  0  0  0  0  0  0  0  0
    5.1647   15.6071   26.0234 C   0  0  0  0  0  0  0  0  0  0  0  0
    6.5792   15.5067   26.2410 C   0  0  0  0  0  0  0  0  0  0  0  0
    4.5633   12.2249   24.2302 C   0  0  0  0  0  0  0  0  0  0  0  0
    5.1916   13.3703   24.9193 C   0  0  0  0  0  0  0  0  0  0  0  0
    6.5760   13.2404   25.1194 C   0  0  0  0  0  0  0  0  0  0  0  0
    5.8084   11.3115   24.0251 C   0  0  0  0  0  0  0  0  0  0  0  0
    6.9930   11.9396   24.5505 C   0  0  0  0  0  0  0  0  0  0  0  0
    8.2702   11.2347   24.4420 C   0  0  0  0  0  0  0  0  0  0  0  0
    8.3411    9.9445   23.8205 C   0  0  0  0  0  0  0  0  0  0  0  0
    7.1317    9.3279   23.2966 C   0  0  0  0  0  0  0  0  0  0  0  0
    5.8743   10.0107   23.3976 C   0  0  0  0  0  0  0  0  0  0  0  0
   13.2959   14.3431   26.3693 C   0  0  0  0  0  0  0  0  0  0  0  0
   12.9952   14.7055   27.6817 N   0  0  0  0  0  0  0  0  0  0  0  0
   11.6800   14.8571   28.1089 C   0  0  0  0  0  0  0  0  0  0  0  0
    9.2659   14.6989   27.2784 N   0  0  0  0  0  0  0  0  0  0  0  0
   12.2811   14.1070   25.4115 C   0  0  0  0  0  0  0  0  0  0  0  0
    9.7413   14.1201   25.1919 N   0  0  0  0  0  0  0  0  0  0  0  0
    8.7483   14.3894   26.0777 C   0  0  0  0  0  0  0  0  0  0  0  0
   10.9461   14.2583   25.8244 C   0  0  0  0  0  0  0  0  0  0  0  0
   10.6337   14.6330   27.1916 C   0  0  0  0  0  0  0  0  0  0  0  0
    8.7509   14.9333   28.0841 H   0  0  0  0  0  0  0  0  0  0  0  0
    3.5497   11.8479   24.6387 N   0  0  0  0  0  0  0  0  0  0  0  0
    2.3794   11.4591   24.0924 C   0  0  0  0  0  0  0  0  0  0  0  0
    2.3185   11.4819   22.8539 O   0  0  0  0  0  0  0  0  0  0  0  0
    3.5378   11.7989   25.6220 H   0  0  0  0  0  0  0  0  0  0  0  0
   -0.9007   10.0827   26.5533 N   0  0  0  0  0  0  0  0  0  0  0  0
    0.7767    8.5832   27.6038 N   0  0  0  0  0  0  0  0  0  0  0  0
    1.1776   11.0429   24.9036 C   0  0  0  0  0  0  0  0  0  0  0  0
   -0.1522   11.5806   24.7549 C   0  0  0  0  0  0  0  0  0  0  0  0
   -1.1875   11.0646   25.6096 C   0  0  0  0  0  0  0  0  0  0  0  0
    1.4372    9.9924   25.9344 C   0  0  0  0  0  0  0  0  0  0  0  0
    0.3843    9.5510   26.7070 C   0  0  0  0  0  0  0  0  0  0  0  0
    2.1300    8.3810   27.3966 C   0  0  0  0  0  0  0  0  0  0  0  0
    2.5803    9.2318   26.3658 C   0  0  0  0  0  0  0  0  0  0  0  0
    0.2067    8.1251   28.2629 H   0  0  0  0  0  0  0  0  0  0  0  0
 18 14  2  0  0  0
 14 15  1  0  0  0
 15 16  2  0  0  0
 22 16  1  0  0  0
 20 17  1  0  0  0
 22 17  1  0  0  0
 18 21  1  0  0  0
 19 21  1  0  0  0
 19 20  2  0  0  0
  1 20  1  0  0  0
 25 24  1  0  0  0
  5 24  1  0  0  0
 21 22  2  0  0  0
 34 28  2  0  0  0
 28 32  1  0  0  0
 35 29  1  0  0  0
 29 34  1  0  0  0
  7  1  2  0  0  0
  1  4  1  0  0  0
  6  2  2  0  0  0
  2  3  1  0  0  0
  3  4  2  0  0  0
 26 25  2  0  0  0
 25 30  1  0  0  0
 33 30  2  0  0  0
 30 31  1  0  0  0
 31 32  2  0  0  0
  8  5  1  0  0  0
  5  6  1  0  0  0
  6  7  1  0  0  0
  9  7  1  0  0  0
 13  8  2  0  0  0
  8  9  1  0  0  0
 10  9  2  0  0  0
 11 10  1  0  0  0
 12 11  2  0  0  0
 12 13  1  0  0  0
 36 33  1  0  0  0
 33 34  1  0  0  0
 36 35  2  0  0  0
 17 23  1  0  0  0
 24 27  1  0  0  0
 29 37  1  0  0  0
M  END
> <minimizedAffinity>
-15.32546

$$$$
