2QTG_MTH_A_268


 24 26  0  0  0  0  0  0  0  0999 V2000
   12.3414   -1.4987    1.6504 C   0  0  0  0  0  0  0  0  0  0  0  0
   12.4055   -0.0971    1.2898 O   0  0  0  0  0  0  0  0  0  0  0  0
   10.1077   -0.8303    1.1442 C   0  0  0  0  0  0  0  0  0  0  0  0
    8.9091   -0.2384    1.7012 O   0  0  0  0  0  0  0  0  0  0  0  0
   10.8907   -1.7552    2.0669 C   0  0  0  0  0  0  0  0  0  0  0  0
   10.7846   -1.4355    3.4652 O   0  0  0  0  0  0  0  0  0  0  0  0
   11.0950    0.3046    0.7829 C   0  0  0  0  0  0  0  0  0  0  0  0
    9.1451    0.3131    2.4635 H   0  0  0  0  0  0  0  0  0  0  0  0
   11.1006   -0.5308    3.6149 H   0  0  0  0  0  0  0  0  0  0  0  0
   11.1895    0.4797   -0.6526 N   0  0  0  0  0  0  0  0  0  0  0  0
   12.2025    0.9592   -1.2936 C   0  0  0  0  0  0  0  0  0  0  0  0
   11.9729    1.1976   -2.5080 C   0  0  0  0  0  0  0  0  0  0  0  0
   10.9827    0.5001   -2.9665 C   0  0  0  0  0  0  0  0  0  0  0  0
   10.4433    0.2908   -4.2053 C   0  0  0  0  0  0  0  0  0  0  0  0
   11.0570    0.7279   -5.3402 N   0  0  0  0  0  0  0  0  0  0  0  0
    9.2809   -0.4282   -4.1918 N   0  0  0  0  0  0  0  0  0  0  0  0
    8.6955   -0.8628   -3.0239 C   0  0  0  0  0  0  0  0  0  0  0  0
    9.2443   -0.6395   -1.7896 N   0  0  0  0  0  0  0  0  0  0  0  0
   10.3932    0.0773   -1.7560 C   0  0  0  0  0  0  0  0  0  0  0  0
   11.8944    1.2422   -5.2802 H   0  0  0  0  0  0  0  0  0  0  0  0
   10.6633    0.5294   -6.2204 H   0  0  0  0  0  0  0  0  0  0  0  0
   12.8334   -2.3122    0.4439 C   0  0  0  0  0  0  0  0  0  0  0  0
   14.5722   -4.2466    0.9891 C   0  0  0  0  0  0  0  0  0  0  0  0
   12.8236   -4.0747    0.6171 S   0  0  0  0  0  0  0  0  0  0  0  0
 23 24  1  0  0  0
 24 22  1  0  0  0
 22  1  1  0  0  0
  1  2  1  0  0  0
  1  5  1  0  0  0
  2  7  1  0  0  0
  3  4  1  0  0  0
  3  5  1  0  0  0
  3  7  1  0  0  0
  5  6  1  0  0  0
  7 10  1  0  0  0
 10 11  1  0  0  0
 10 19  1  0  0  0
 11 12  2  0  0  0
 12 13  1  0  0  0
 13 14  2  0  0  0
 13 19  1  0  0  0
 14 15  1  0  0  0
 14 16  1  0  0  0
 16 17  2  0  0  0
 17 18  1  0  0  0
 18 19  2  0  0  0
  4  8  1  0  0  0
  6  9  1  0  0  0
 15 20  1  0  0  0
 15 21  1  0  0  0
M  END
> <minimizedAffinity>
-8.50332

$$$$
2QTG_MTH_A_268


 24 26  0  0  0  0  0  0  0  0999 V2000
   12.1232   -1.6189    2.4189 C   0  0  0  0  0  0  0  0  0  0  0  0
   12.5073   -0.5000    1.5829 O   0  0  0  0  0  0  0  0  0  0  0  0
   10.2999   -0.0811    2.4719 C   0  0  0  0  0  0  0  0  0  0  0  0
    9.7782    1.0921    3.1419 O   0  0  0  0  0  0  0  0  0  0  0  0
   11.0320   -1.0863    3.3513 C   0  0  0  0  0  0  0  0  0  0  0  0
   11.6894   -0.5135    4.4951 O   0  0  0  0  0  0  0  0  0  0  0  0
   11.3462    0.3735    1.4269 C   0  0  0  0  0  0  0  0  0  0  0  0
   10.5104    1.5927    3.5345 H   0  0  0  0  0  0  0  0  0  0  0  0
   12.3352    0.1472    4.1997 H   0  0  0  0  0  0  0  0  0  0  0  0
   10.8371    0.2278    0.0779 N   0  0  0  0  0  0  0  0  0  0  0  0
    9.6652   -0.2048   -0.2484 C   0  0  0  0  0  0  0  0  0  0  0  0
    9.5274   -0.4290   -1.4794 C   0  0  0  0  0  0  0  0  0  0  0  0
   10.3701    0.2423   -2.1978 C   0  0  0  0  0  0  0  0  0  0  0  0
   10.5389    0.4553   -3.5378 C   0  0  0  0  0  0  0  0  0  0  0  0
    9.6090    0.0603   -4.4516 N   0  0  0  0  0  0  0  0  0  0  0  0
   11.6828    1.1335   -3.8537 N   0  0  0  0  0  0  0  0  0  0  0  0
   12.5950    1.5265   -2.9002 C   0  0  0  0  0  0  0  0  0  0  0  0
   12.4155    1.2998   -1.5619 N   0  0  0  0  0  0  0  0  0  0  0  0
   11.2979    0.6226   -1.2048 C   0  0  0  0  0  0  0  0  0  0  0  0
    8.8052   -0.4259   -4.1573 H   0  0  0  0  0  0  0  0  0  0  0  0
    9.7409    0.2611   -5.4064 H   0  0  0  0  0  0  0  0  0  0  0  0
   11.6944   -2.7663    1.4920 C   0  0  0  0  0  0  0  0  0  0  0  0
   13.6161   -4.5479    1.0496 C   0  0  0  0  0  0  0  0  0  0  0  0
   12.8126   -3.1933    0.1867 S   0  0  0  0  0  0  0  0  0  0  0  0
 23 24  1  0  0  0
 24 22  1  0  0  0
 22  1  1  0  0  0
  1  2  1  0  0  0
  1  5  1  0  0  0
  2  7  1  0  0  0
  3  4  1  0  0  0
  3  5  1  0  0  0
  3  7  1  0  0  0
  5  6  1  0  0  0
  7 10  1  0  0  0
 10 11  1  0  0  0
 10 19  1  0  0  0
 11 12  2  0  0  0
 12 13  1  0  0  0
 13 14  2  0  0  0
 13 19  1  0  0  0
 14 15  1  0  0  0
 14 16  1  0  0  0
 16 17  2  0  0  0
 17 18  1  0  0  0
 18 19  2  0  0  0
  4  8  1  0  0  0
  6  9  1  0  0  0
 15 20  1  0  0  0
 15 21  1  0  0  0
M  END
> <minimizedAffinity>
-7.63472

$$$$
2QTG_MTH_A_268


 24 26  0  0  0  0  0  0  0  0999 V2000
   11.9216   -1.7356    1.2062 C   0  0  0  0  0  0  0  0  0  0  0  0
   12.6491   -0.4842    1.2611 O   0  0  0  0  0  0  0  0  0  0  0  0
   10.6003   -0.1359    0.0285 C   0  0  0  0  0  0  0  0  0  0  0  0
    9.5873    0.8872    0.1851 O   0  0  0  0  0  0  0  0  0  0  0  0
   10.4644   -1.3579    0.9274 C   0  0  0  0  0  0  0  0  0  0  0  0
    9.8393   -1.1006    2.1968 O   0  0  0  0  0  0  0  0  0  0  0  0
   11.9757    0.4745    0.3876 C   0  0  0  0  0  0  0  0  0  0  0  0
    9.6197    1.2387    1.0886 H   0  0  0  0  0  0  0  0  0  0  0  0
   10.3510   -0.4330    2.6798 H   0  0  0  0  0  0  0  0  0  0  0  0
   12.7879    0.6690   -0.7968 N   0  0  0  0  0  0  0  0  0  0  0  0
   12.3503    0.7945   -2.0050 C   0  0  0  0  0  0  0  0  0  0  0  0
   13.2520    0.7531   -2.8823 C   0  0  0  0  0  0  0  0  0  0  0  0
   14.4144    1.0690   -2.4068 C   0  0  0  0  0  0  0  0  0  0  0  0
   15.6466    1.3042   -2.9506 C   0  0  0  0  0  0  0  0  0  0  0  0
   15.8303    1.4122   -4.2961 N   0  0  0  0  0  0  0  0  0  0  0  0
   16.6407    1.4667   -2.0267 N   0  0  0  0  0  0  0  0  0  0  0  0
   16.4145    1.3609   -0.6728 C   0  0  0  0  0  0  0  0  0  0  0  0
   15.1755    1.1180   -0.1431 N   0  0  0  0  0  0  0  0  0  0  0  0
   14.1618    0.9418   -1.0242 C   0  0  0  0  0  0  0  0  0  0  0  0
   15.0703    1.2832   -4.9086 H   0  0  0  0  0  0  0  0  0  0  0  0
   16.7229    1.6193   -4.6560 H   0  0  0  0  0  0  0  0  0  0  0  0
   12.5894   -2.6151    0.1384 C   0  0  0  0  0  0  0  0  0  0  0  0
   14.3673   -4.3749    1.0356 C   0  0  0  0  0  0  0  0  0  0  0  0
   14.3512   -2.7717    0.2264 S   0  0  0  0  0  0  0  0  0  0  0  0
 23 24  1  0  0  0
 24 22  1  0  0  0
 22  1  1  0  0  0
  1  2  1  0  0  0
  1  5  1  0  0  0
  2  7  1  0  0  0
  3  4  1  0  0  0
  3  5  1  0  0  0
  3  7  1  0  0  0
  5  6  1  0  0  0
  7 10  1  0  0  0
 10 11  1  0  0  0
 10 19  1  0  0  0
 11 12  2  0  0  0
 12 13  1  0  0  0
 13 14  2  0  0  0
 13 19  1  0  0  0
 14 15  1  0  0  0
 14 16  1  0  0  0
 16 17  2  0  0  0
 17 18  1  0  0  0
 18 19  2  0  0  0
  4  8  1  0  0  0
  6  9  1  0  0  0
 15 20  1  0  0  0
 15 21  1  0  0  0
M  END
> <minimizedAffinity>
-6.90814

$$$$
2QTG_MTH_A_268


 24 26  0  0  0  0  0  0  0  0999 V2000
    9.8075   -0.7087   -0.6380 C   0  0  0  0  0  0  0  0  0  0  0  0
   11.1007   -1.3609   -0.6109 O   0  0  0  0  0  0  0  0  0  0  0  0
   11.1727    0.5636    0.8483 C   0  0  0  0  0  0  0  0  0  0  0  0
   11.6245    0.6698    2.2202 O   0  0  0  0  0  0  0  0  0  0  0  0
    9.7305    0.1162    0.6494 C   0  0  0  0  0  0  0  0  0  0  0  0
    9.2243   -0.7482    1.6814 O   0  0  0  0  0  0  0  0  0  0  0  0
   12.0271   -0.5078    0.1304 C   0  0  0  0  0  0  0  0  0  0  0  0
   11.5735   -0.2004    2.6457 H   0  0  0  0  0  0  0  0  0  0  0  0
    9.7764   -1.5439    1.7362 H   0  0  0  0  0  0  0  0  0  0  0  0
   12.9478    0.0996   -0.8096 N   0  0  0  0  0  0  0  0  0  0  0  0
   12.8722    1.3004   -1.2778 C   0  0  0  0  0  0  0  0  0  0  0  0
   13.6678    1.5307   -2.2257 C   0  0  0  0  0  0  0  0  0  0  0  0
   14.6841    0.7280   -2.2194 C   0  0  0  0  0  0  0  0  0  0  0  0
   15.8559    0.6515   -2.9198 C   0  0  0  0  0  0  0  0  0  0  0  0
   16.2654    1.6523   -3.7482 N   0  0  0  0  0  0  0  0  0  0  0  0
   16.5803   -0.4805   -2.6702 N   0  0  0  0  0  0  0  0  0  0  0  0
   16.1382   -1.4665   -1.8170 C   0  0  0  0  0  0  0  0  0  0  0  0
   14.9586   -1.3787   -1.1275 N   0  0  0  0  0  0  0  0  0  0  0  0
   14.2042   -0.2761   -1.3517 C   0  0  0  0  0  0  0  0  0  0  0  0
   15.6947    2.4427   -3.8849 H   0  0  0  0  0  0  0  0  0  0  0  0
   17.1322    1.5851   -4.2103 H   0  0  0  0  0  0  0  0  0  0  0  0
    9.7204    0.0976   -1.9425 C   0  0  0  0  0  0  0  0  0  0  0  0
    9.7883    0.3451   -4.5877 C   0  0  0  0  0  0  0  0  0  0  0  0
    9.0696   -0.7472   -3.3565 S   0  0  0  0  0  0  0  0  0  0  0  0
 23 24  1  0  0  0
 24 22  1  0  0  0
 22  1  1  0  0  0
  1  2  1  0  0  0
  1  5  1  0  0  0
  2  7  1  0  0  0
  3  4  1  0  0  0
  3  5  1  0  0  0
  3  7  1  0  0  0
  5  6  1  0  0  0
  7 10  1  0  0  0
 10 11  1  0  0  0
 10 19  1  0  0  0
 11 12  2  0  0  0
 12 13  1  0  0  0
 13 14  2  0  0  0
 13 19  1  0  0  0
 14 15  1  0  0  0
 14 16  1  0  0  0
 16 17  2  0  0  0
 17 18  1  0  0  0
 18 19  2  0  0  0
  4  8  1  0  0  0
  6  9  1  0  0  0
 15 20  1  0  0  0
 15 21  1  0  0  0
M  END
> <minimizedAffinity>
-6.70909

$$$$
2QTG_MTH_A_268


 24 26  0  0  0  0  0  0  0  0999 V2000
   11.2023    0.4266   -0.4491 C   0  0  0  0  0  0  0  0  0  0  0  0
   12.2128    1.4415   -0.6663 O   0  0  0  0  0  0  0  0  0  0  0  0
   11.5552    0.5322   -2.8062 C   0  0  0  0  0  0  0  0  0  0  0  0
   11.1554    1.2144   -4.0195 O   0  0  0  0  0  0  0  0  0  0  0  0
   10.4568    0.2902   -1.7793 C   0  0  0  0  0  0  0  0  0  0  0  0
    9.4066    1.2729   -1.7834 O   0  0  0  0  0  0  0  0  0  0  0  0
   12.6031    1.4036   -2.0741 C   0  0  0  0  0  0  0  0  0  0  0  0
   10.8228    2.0985   -3.7988 H   0  0  0  0  0  0  0  0  0  0  0  0
    9.7840    2.1500   -1.6125 H   0  0  0  0  0  0  0  0  0  0  0  0
   13.9272    0.8224   -2.1702 N   0  0  0  0  0  0  0  0  0  0  0  0
   14.3908    0.1517   -3.1713 C   0  0  0  0  0  0  0  0  0  0  0  0
   15.4893   -0.4178   -2.9405 C   0  0  0  0  0  0  0  0  0  0  0  0
   16.1413    0.1466   -1.9743 C   0  0  0  0  0  0  0  0  0  0  0  0
   17.3953    0.0075   -1.4476 C   0  0  0  0  0  0  0  0  0  0  0  0
   18.3496   -0.7528   -2.0532 N   0  0  0  0  0  0  0  0  0  0  0  0
   17.6035    0.7323   -0.3075 N   0  0  0  0  0  0  0  0  0  0  0  0
   16.6166    1.4990    0.2702 C   0  0  0  0  0  0  0  0  0  0  0  0
   15.3626    1.6231   -0.2655 N   0  0  0  0  0  0  0  0  0  0  0  0
   15.1102    0.9143   -1.3920 C   0  0  0  0  0  0  0  0  0  0  0  0
   18.1339   -1.2515   -2.8742 H   0  0  0  0  0  0  0  0  0  0  0  0
   19.2550   -0.8036   -1.6700 H   0  0  0  0  0  0  0  0  0  0  0  0
   11.9158   -0.8433    0.0387 C   0  0  0  0  0  0  0  0  0  0  0  0
   11.4695   -0.3192    2.6055 C   0  0  0  0  0  0  0  0  0  0  0  0
   11.2100   -1.6620    1.4415 S   0  0  0  0  0  0  0  0  0  0  0  0
 23 24  1  0  0  0
 24 22  1  0  0  0
 22  1  1  0  0  0
  1  2  1  0  0  0
  1  5  1  0  0  0
  2  7  1  0  0  0
  3  4  1  0  0  0
  3  5  1  0  0  0
  3  7  1  0  0  0
  5  6  1  0  0  0
  7 10  1  0  0  0
 10 11  1  0  0  0
 10 19  1  0  0  0
 11 12  2  0  0  0
 12 13  1  0  0  0
 13 14  2  0  0  0
 13 19  1  0  0  0
 14 15  1  0  0  0
 14 16  1  0  0  0
 16 17  2  0  0  0
 17 18  1  0  0  0
 18 19  2  0  0  0
  4  8  1  0  0  0
  6  9  1  0  0  0
 15 20  1  0  0  0
 15 21  1  0  0  0
M  END
> <minimizedAffinity>
-6.49973

$$$$
2QTG_MTH_A_268


 24 26  0  0  0  0  0  0  0  0999 V2000
    9.7129   -0.7181   -0.1965 C   0  0  0  0  0  0  0  0  0  0  0  0
   10.4470   -1.7899    0.4443 O   0  0  0  0  0  0  0  0  0  0  0  0
   11.3372    0.3230    1.2069 C   0  0  0  0  0  0  0  0  0  0  0  0
   11.5930    0.7886    2.5542 O   0  0  0  0  0  0  0  0  0  0  0  0
    9.9177    0.5140    0.6889 C   0  0  0  0  0  0  0  0  0  0  0  0
    8.9007    0.4837    1.7054 O   0  0  0  0  0  0  0  0  0  0  0  0
   11.5786   -1.2044    1.1599 C   0  0  0  0  0  0  0  0  0  0  0  0
   11.0334    0.2990    3.1771 H   0  0  0  0  0  0  0  0  0  0  0  0
    8.9342   -0.3665    2.1711 H   0  0  0  0  0  0  0  0  0  0  0  0
   12.7947   -1.5207    0.4378 N   0  0  0  0  0  0  0  0  0  0  0  0
   13.1604   -2.6950    0.0449 C   0  0  0  0  0  0  0  0  0  0  0  0
   14.3429   -2.7455   -0.3837 C   0  0  0  0  0  0  0  0  0  0  0  0
   14.7699   -1.5900   -0.7833 C   0  0  0  0  0  0  0  0  0  0  0  0
   15.8866   -1.1489   -1.4373 C   0  0  0  0  0  0  0  0  0  0  0  0
   16.7833   -2.0116   -1.9918 N   0  0  0  0  0  0  0  0  0  0  0  0
   15.9818    0.2121   -1.5200 N   0  0  0  0  0  0  0  0  0  0  0  0
   15.0489    1.0528   -0.9556 C   0  0  0  0  0  0  0  0  0  0  0  0
   13.9387    0.5960   -0.2973 N   0  0  0  0  0  0  0  0  0  0  0  0
   13.8090   -0.7477   -0.1845 C   0  0  0  0  0  0  0  0  0  0  0  0
   16.6562   -2.9830   -1.8953 H   0  0  0  0  0  0  0  0  0  0  0  0
   17.5584   -1.6635   -2.4891 H   0  0  0  0  0  0  0  0  0  0  0  0
   10.2377   -0.5897   -1.6344 C   0  0  0  0  0  0  0  0  0  0  0  0
    9.8608    0.2124   -4.1399 C   0  0  0  0  0  0  0  0  0  0  0  0
    9.0649   -0.8550   -2.9347 S   0  0  0  0  0  0  0  0  0  0  0  0
 23 24  1  0  0  0
 24 22  1  0  0  0
 22  1  1  0  0  0
  1  2  1  0  0  0
  1  5  1  0  0  0
  2  7  1  0  0  0
  3  4  1  0  0  0
  3  5  1  0  0  0
  3  7  1  0  0  0
  5  6  1  0  0  0
  7 10  1  0  0  0
 10 11  1  0  0  0
 10 19  1  0  0  0
 11 12  2  0  0  0
 12 13  1  0  0  0
 13 14  2  0  0  0
 13 19  1  0  0  0
 14 15  1  0  0  0
 14 16  1  0  0  0
 16 17  2  0  0  0
 17 18  1  0  0  0
 18 19  2  0  0  0
  4  8  1  0  0  0
  6  9  1  0  0  0
 15 20  1  0  0  0
 15 21  1  0  0  0
M  END
> <minimizedAffinity>
-6.46070

$$$$
2QTG_MTH_A_268


 24 26  0  0  0  0  0  0  0  0999 V2000
   15.0816    1.0595   -3.3002 C   0  0  0  0  0  0  0  0  0  0  0  0
   13.9701    1.9005   -2.9056 O   0  0  0  0  0  0  0  0  0  0  0  0
   14.6116    0.5299   -1.0219 C   0  0  0  0  0  0  0  0  0  0  0  0
   14.8882    0.9088    0.3482 O   0  0  0  0  0  0  0  0  0  0  0  0
   15.7744    0.6477   -1.9986 C   0  0  0  0  0  0  0  0  0  0  0  0
   16.7249    1.6777   -1.6759 O   0  0  0  0  0  0  0  0  0  0  0  0
   13.5206    1.4725   -1.5826 C   0  0  0  0  0  0  0  0  0  0  0  0
   15.1450    1.8437    0.3796 H   0  0  0  0  0  0  0  0  0  0  0  0
   16.2741    2.5361   -1.6471 H   0  0  0  0  0  0  0  0  0  0  0  0
   12.2547    0.7817   -1.7266 N   0  0  0  0  0  0  0  0  0  0  0  0
   11.5485    0.2836   -0.7674 C   0  0  0  0  0  0  0  0  0  0  0  0
   10.5936   -0.4381   -1.1570 C   0  0  0  0  0  0  0  0  0  0  0  0
   10.2294   -0.1586   -2.3680 C   0  0  0  0  0  0  0  0  0  0  0  0
    9.1934   -0.5394   -3.1748 C   0  0  0  0  0  0  0  0  0  0  0  0
    8.1390   -1.2595   -2.7000 N   0  0  0  0  0  0  0  0  0  0  0  0
    9.2967   -0.0910   -4.4619 N   0  0  0  0  0  0  0  0  0  0  0  0
   10.3737    0.6446   -4.9030 C   0  0  0  0  0  0  0  0  0  0  0  0
   11.4077    1.0126   -4.0843 N   0  0  0  0  0  0  0  0  0  0  0  0
   11.3499    0.5818   -2.8013 C   0  0  0  0  0  0  0  0  0  0  0  0
    8.1264   -1.5526   -1.7603 H   0  0  0  0  0  0  0  0  0  0  0  0
    7.3896   -1.4868   -3.2966 H   0  0  0  0  0  0  0  0  0  0  0  0
   14.5154   -0.0963   -4.1387 C   0  0  0  0  0  0  0  0  0  0  0  0
   13.8870   -1.0365   -6.5436 C   0  0  0  0  0  0  0  0  0  0  0  0
   15.3392   -0.4471   -5.6666 S   0  0  0  0  0  0  0  0  0  0  0  0
 23 24  1  0  0  0
 24 22  1  0  0  0
 22  1  1  0  0  0
  1  2  1  0  0  0
  1  5  1  0  0  0
  2  7  1  0  0  0
  3  4  1  0  0  0
  3  5  1  0  0  0
  3  7  1  0  0  0
  5  6  1  0  0  0
  7 10  1  0  0  0
 10 11  1  0  0  0
 10 19  1  0  0  0
 11 12  2  0  0  0
 12 13  1  0  0  0
 13 14  2  0  0  0
 13 19  1  0  0  0
 14 15  1  0  0  0
 14 16  1  0  0  0
 16 17  2  0  0  0
 17 18  1  0  0  0
 18 19  2  0  0  0
  4  8  1  0  0  0
  6  9  1  0  0  0
 15 20  1  0  0  0
 15 21  1  0  0  0
M  END
> <minimizedAffinity>
-6.39689

$$$$
2QTG_MTH_A_268


 24 26  0  0  0  0  0  0  0  0999 V2000
   16.0220   -0.6970   -2.1331 C   0  0  0  0  0  0  0  0  0  0  0  0
   14.7269   -0.0800   -2.3338 O   0  0  0  0  0  0  0  0  0  0  0  0
   15.7743    0.9274   -0.4033 C   0  0  0  0  0  0  0  0  0  0  0  0
   15.9632    2.3253   -0.0755 O   0  0  0  0  0  0  0  0  0  0  0  0
   16.8330    0.2993   -1.3002 C   0  0  0  0  0  0  0  0  0  0  0  0
   17.4591    1.2132   -2.2174 O   0  0  0  0  0  0  0  0  0  0  0  0
   14.4479    0.7803   -1.1859 C   0  0  0  0  0  0  0  0  0  0  0  0
   15.9447    2.8535   -0.8889 H   0  0  0  0  0  0  0  0  0  0  0  0
   16.7839    1.6104   -2.7895 H   0  0  0  0  0  0  0  0  0  0  0  0
   13.4274    0.1489   -0.3734 N   0  0  0  0  0  0  0  0  0  0  0  0
   13.6202   -0.4632    0.7470 C   0  0  0  0  0  0  0  0  0  0  0  0
   12.6157   -1.0979    1.1623 C   0  0  0  0  0  0  0  0  0  0  0  0
   11.5082   -0.6396    0.6718 C   0  0  0  0  0  0  0  0  0  0  0  0
   10.1814   -0.8754    0.9029 C   0  0  0  0  0  0  0  0  0  0  0  0
    9.7575   -1.6294    1.9553 N   0  0  0  0  0  0  0  0  0  0  0  0
    9.3436   -0.2508    0.0219 N   0  0  0  0  0  0  0  0  0  0  0  0
    9.8094    0.5131   -1.0246 C   0  0  0  0  0  0  0  0  0  0  0  0
   11.1421    0.7347   -1.2474 N   0  0  0  0  0  0  0  0  0  0  0  0
   12.0088    0.1269   -0.4022 C   0  0  0  0  0  0  0  0  0  0  0  0
   10.4145   -2.0531    2.5535 H   0  0  0  0  0  0  0  0  0  0  0  0
    8.7940   -1.7505    2.1175 H   0  0  0  0  0  0  0  0  0  0  0  0
   15.7883   -2.0662   -1.4773 C   0  0  0  0  0  0  0  0  0  0  0  0
   15.6087   -3.5678    0.7081 C   0  0  0  0  0  0  0  0  0  0  0  0
   16.7839   -2.4504   -0.0639 S   0  0  0  0  0  0  0  0  0  0  0  0
 23 24  1  0  0  0
 24 22  1  0  0  0
 22  1  1  0  0  0
  1  2  1  0  0  0
  1  5  1  0  0  0
  2  7  1  0  0  0
  3  4  1  0  0  0
  3  5  1  0  0  0
  3  7  1  0  0  0
  5  6  1  0  0  0
  7 10  1  0  0  0
 10 11  1  0  0  0
 10 19  1  0  0  0
 11 12  2  0  0  0
 12 13  1  0  0  0
 13 14  2  0  0  0
 13 19  1  0  0  0
 14 15  1  0  0  0
 14 16  1  0  0  0
 16 17  2  0  0  0
 17 18  1  0  0  0
 18 19  2  0  0  0
  4  8  1  0  0  0
  6  9  1  0  0  0
 15 20  1  0  0  0
 15 21  1  0  0  0
M  END
> <minimizedAffinity>
-6.28280

$$$$
2QTG_MTH_A_268


 24 26  0  0  0  0  0  0  0  0999 V2000
   11.3586    0.3305   -0.2430 C   0  0  0  0  0  0  0  0  0  0  0  0
   12.4127    1.3085   -0.4184 O   0  0  0  0  0  0  0  0  0  0  0  0
   11.6899    0.5494   -2.5955 C   0  0  0  0  0  0  0  0  0  0  0  0
   11.3088    1.3150   -3.7642 O   0  0  0  0  0  0  0  0  0  0  0  0
   10.5929    0.3018   -1.5684 C   0  0  0  0  0  0  0  0  0  0  0  0
    9.5896    1.3303   -1.5047 O   0  0  0  0  0  0  0  0  0  0  0  0
   12.7852    1.3303   -1.8313 C   0  0  0  0  0  0  0  0  0  0  0  0
   11.0201    2.1999   -3.4911 H   0  0  0  0  0  0  0  0  0  0  0  0
   10.0091    2.1785   -1.2914 H   0  0  0  0  0  0  0  0  0  0  0  0
   14.0797    0.6954   -1.9769 N   0  0  0  0  0  0  0  0  0  0  0  0
   14.8279    0.2678   -1.0155 C   0  0  0  0  0  0  0  0  0  0  0  0
   15.9871   -0.0627   -1.3778 C   0  0  0  0  0  0  0  0  0  0  0  0
   16.0420   -0.3585   -2.6375 C   0  0  0  0  0  0  0  0  0  0  0  0
   16.9942   -0.8907   -3.4618 C   0  0  0  0  0  0  0  0  0  0  0  0
   18.1531   -1.4169   -2.9764 N   0  0  0  0  0  0  0  0  0  0  0  0
   16.6499   -0.8871   -4.7846 N   0  0  0  0  0  0  0  0  0  0  0  0
   15.4633   -0.3555   -5.2370 C   0  0  0  0  0  0  0  0  0  0  0  0
   14.5220    0.1806   -4.3996 N   0  0  0  0  0  0  0  0  0  0  0  0
   14.8262    0.2051   -3.0797 C   0  0  0  0  0  0  0  0  0  0  0  0
   18.3406   -1.3870   -2.0103 H   0  0  0  0  0  0  0  0  0  0  0  0
   18.8032   -1.8270   -3.5915 H   0  0  0  0  0  0  0  0  0  0  0  0
   12.0178   -0.9956    0.1651 C   0  0  0  0  0  0  0  0  0  0  0  0
   10.7921   -0.1412    2.3629 C   0  0  0  0  0  0  0  0  0  0  0  0
   11.6061   -1.6273    1.7675 S   0  0  0  0  0  0  0  0  0  0  0  0
 23 24  1  0  0  0
 24 22  1  0  0  0
 22  1  1  0  0  0
  1  2  1  0  0  0
  1  5  1  0  0  0
  2  7  1  0  0  0
  3  4  1  0  0  0
  3  5  1  0  0  0
  3  7  1  0  0  0
  5  6  1  0  0  0
  7 10  1  0  0  0
 10 11  1  0  0  0
 10 19  1  0  0  0
 11 12  2  0  0  0
 12 13  1  0  0  0
 13 14  2  0  0  0
 13 19  1  0  0  0
 14 15  1  0  0  0
 14 16  1  0  0  0
 16 17  2  0  0  0
 17 18  1  0  0  0
 18 19  2  0  0  0
  4  8  1  0  0  0
  6  9  1  0  0  0
 15 20  1  0  0  0
 15 21  1  0  0  0
M  END
> <minimizedAffinity>
-6.19186

$$$$
2QTG_MTH_A_268


 24 26  0  0  0  0  0  0  0  0999 V2000
   16.4840    0.6799   -1.1489 C   0  0  0  0  0  0  0  0  0  0  0  0
   15.6631   -0.5076   -1.0301 O   0  0  0  0  0  0  0  0  0  0  0  0
   14.8230    0.8357   -2.8544 C   0  0  0  0  0  0  0  0  0  0  0  0
   14.5040    0.4554   -4.2148 O   0  0  0  0  0  0  0  0  0  0  0  0
   16.2796    1.1857   -2.5793 C   0  0  0  0  0  0  0  0  0  0  0  0
   17.2280    0.4995   -3.4149 O   0  0  0  0  0  0  0  0  0  0  0  0
   14.5162   -0.3614   -1.9238 C   0  0  0  0  0  0  0  0  0  0  0  0
   15.0004   -0.3436   -4.4520 H   0  0  0  0  0  0  0  0  0  0  0  0
   17.1267   -0.4583   -3.2999 H   0  0  0  0  0  0  0  0  0  0  0  0
   13.3351   -0.1124   -1.1217 N   0  0  0  0  0  0  0  0  0  0  0  0
   12.4555    0.8090   -1.3318 C   0  0  0  0  0  0  0  0  0  0  0  0
   11.6319    0.9537   -0.3909 C   0  0  0  0  0  0  0  0  0  0  0  0
   11.5287   -0.1109    0.3391 C   0  0  0  0  0  0  0  0  0  0  0  0
   10.7046   -0.5058    1.3562 C   0  0  0  0  0  0  0  0  0  0  0  0
    9.5973    0.2077    1.7030 N   0  0  0  0  0  0  0  0  0  0  0  0
   11.0684   -1.6868    1.9403 N   0  0  0  0  0  0  0  0  0  0  0  0
   12.1900   -2.3861    1.5550 C   0  0  0  0  0  0  0  0  0  0  0  0
   13.0099   -1.9743    0.5388 N   0  0  0  0  0  0  0  0  0  0  0  0
   12.6909   -0.8032   -0.0627 C   0  0  0  0  0  0  0  0  0  0  0  0
    9.3919    1.0529    1.2417 H   0  0  0  0  0  0  0  0  0  0  0  0
    9.0024   -0.1217    2.4149 H   0  0  0  0  0  0  0  0  0  0  0  0
   16.0575    1.6530   -0.0395 C   0  0  0  0  0  0  0  0  0  0  0  0
   18.2339    0.7122    1.1608 C   0  0  0  0  0  0  0  0  0  0  0  0
   17.3402    2.2634    1.0181 S   0  0  0  0  0  0  0  0  0  0  0  0
 23 24  1  0  0  0
 24 22  1  0  0  0
 22  1  1  0  0  0
  1  2  1  0  0  0
  1  5  1  0  0  0
  2  7  1  0  0  0
  3  4  1  0  0  0
  3  5  1  0  0  0
  3  7  1  0  0  0
  5  6  1  0  0  0
  7 10  1  0  0  0
 10 11  1  0  0  0
 10 19  1  0  0  0
 11 12  2  0  0  0
 12 13  1  0  0  0
 13 14  2  0  0  0
 13 19  1  0  0  0
 14 15  1  0  0  0
 14 16  1  0  0  0
 16 17  2  0  0  0
 17 18  1  0  0  0
 18 19  2  0  0  0
  4  8  1  0  0  0
  6  9  1  0  0  0
 15 20  1  0  0  0
 15 21  1  0  0  0
M  END
> <minimizedAffinity>
-6.17451

$$$$
