2QTG_MTH_A_268
  RCSB PDB12061706513D
Coordinates from PDB:2QTG:A:268 Model:1 without hydrogens
 20 22  0  0  0  0            999 V2000
   14.1960   -4.3820    1.1750   C 0  0  0  0  0  0  0  0  0  0  0  0
   12.5660   -4.2730    0.4290   S 0  0  0  0  0  0  0  0  0  0  0  0
   12.5340   -2.5080    0.2870   C 0  0  0  0  0  0  0  0  0  0  0  0
   12.1040   -1.7240    1.5360   C 0  0  0  0  0  0  0  0  0  0  0  0
   12.2240   -0.3130    1.2310   O 0  0  0  0  0  0  0  0  0  0  0  0
    9.8930   -0.9370    1.1070   C 0  0  0  0  0  0  0  0  0  0  0  0
    8.7340   -0.3160    1.7140   O 0  0  0  0  0  0  0  0  0  0  0  0
   10.6520   -1.9330    1.9740   C 0  0  0  0  0  0  0  0  0  0  0  0
   10.5890   -1.6670    3.3860   O 0  0  0  0  0  0  0  0  0  0  0  0
   10.9230    0.1670    0.7700   C 0  0  0  0  0  0  0  0  0  0  0  0
   10.9960    0.3970   -0.6590   N 0  0  0  0  0  0  0  0  0  0  0  0
   11.9570    0.9910   -1.2840   C 0  0  0  0  0  0  0  0  0  0  0  0
   11.7020    1.2460   -2.4900   C 0  0  0  0  0  0  0  0  0  0  0  0
   10.7810    0.4730   -2.9710   C 0  0  0  0  0  0  0  0  0  0  0  0
   10.2600    0.2540   -4.2160   C 0  0  0  0  0  0  0  0  0  0  0  0
   10.8260    0.7840   -5.3360   N 0  0  0  0  0  0  0  0  0  0  0  0
    9.1710   -0.5720   -4.2260   N 0  0  0  0  0  0  0  0  0  0  0  0
    8.6330   -1.0980   -3.0730   C 0  0  0  0  0  0  0  0  0  0  0  0
    9.1620   -0.8640   -1.8320   N 0  0  0  0  0  0  0  0  0  0  0  0
   10.2380   -0.0430   -1.7750   C 0  0  0  0  0  0  0  0  0  0  0  0
  1  2  1  0  0  0  0
  2  3  1  0  0  0  0
  3  4  1  0  0  0  0
  4  5  1  0  0  0  0
  4  8  1  0  0  0  0
  5 10  1  0  0  0  0
  6  7  1  0  0  0  0
  6  8  1  0  0  0  0
  6 10  1  0  0  0  0
  8  9  1  0  0  0  0
 10 11  1  0  0  0  0
 11 12  1  0  0  0  0
 11 20  1  0  0  0  0
 12 13  2  0  0  0  0
 13 14  1  0  0  0  0
 14 15  2  0  0  0  0
 14 20  1  0  0  0  0
 15 16  1  0  0  0  0
 15 17  1  0  0  0  0
 17 18  2  0  0  0  0
 18 19  1  0  0  0  0
 19 20  2  0  0  0  0
A    1
CS
A    2
S5'
A    3
C5'
A    4
C4'
A    5
O4'
A    6
C2'
A    7
O2'
A    8
C3'
A    9
O3'
A   10
C1'
A   11
N9
A   12
C8
A   13
C7
A   14
C5
A   15
C6
A   16
N6
A   17
N1
A   18
C2
A   19
N3
A   20
C4
M  END
>  <InstanceId>
2QTG_MTH_A_268

>  <ChemCompId>
MTH

>  <PdbId>
2QTG

>  <ChainId>
A

>  <ResidueNumber>
268

>  <InsertionCode>


>  <Model>
1

>  <AltIds>


>  <MissingHeavyAtoms>
0

>  <ObservedFormula>
C12 N4 O3 S

>  <Name>
2-(4-AMINO-PYRROLO[2,3-D]PYRIMIDIN-7-YL)-5-METHYLSULFANYLMETHYL-TETRAHYDRO-FURAN-3,4-DIOL

>  <SystematicName>
(2R,3R,4S,5S)-2-(4-aminopyrrolo[2,3-d]pyrimidin-7-yl)-5-(methylsulfanylmethyl)oxolane-3,4-diol

>  <Synonyms>
5'-DEOXY-5'-(METHYLTHIO)-TUBERCIDIN

>  <Type>
NON-POLYMER

>  <Formula>
C12 H16 N4 O3 S

>  <MolecularWeight>
296.345

>  <ModifiedDate>
2011-06-04

>  <Parent>


>  <OneLetterCode>


>  <SubcomponentList>


>  <AmbiguousFlag>
N

>  <InChI>
InChI=1S/C12H16N4O3S/c1-20-4-7-8(17)9(18)12(19-7)16-3-2-6-10(13)14-5-15-11(6)16/h2-3,5,7-9,12,17-18H,4H2,1H3,(H2,13,14,15)/t7-,8-,9-,12-/m1/s1

>  <InChIKey>
WBPLMFVTQMIPLW-MFYTUXHUSA-N

>  <SMILES>
CSC[C@@H]1[C@H]([C@H]([C@@H](O1)n2ccc3c2ncnc3N)O)O

$$$$
