4EW2_DXY_A_304


 41 42  0  0  0  0  0  0  0  0999 V2000
    0.1557   66.2652   95.2156 C   0  0  0  0  0  0  0  0  0  0  0  0
    0.2010   67.1196   94.1139 C   0  0  0  0  0  0  0  0  0  0  0  0
    0.6598   66.6855   92.8700 C   0  0  0  0  0  0  0  0  0  0  0  0
    0.5997   64.9909   95.0637 C   0  0  0  0  0  0  0  0  0  0  0  0
    1.0534   64.5544   93.8394 C   0  0  0  0  0  0  0  0  0  0  0  0
    1.0998   65.3743   92.7220 C   0  0  0  0  0  0  0  0  0  0  0  0
    0.4444   66.1176   97.5828 N   0  0  0  0  0  0  0  0  0  0  0  0
   -0.3230   66.5984   96.6008 C   0  0  0  0  0  0  0  0  0  0  0  0
   -1.3798   67.1849   96.8134 O   0  0  0  0  0  0  0  0  0  0  0  0
    1.2617   65.6168   97.3584 H   0  0  0  0  0  0  0  0  0  0  0  0
    0.0846   66.3263   99.0022 C   0  0  0  0  0  0  0  0  0  0  0  0
    1.2965   66.5351   99.9131 C   0  0  0  0  0  0  0  0  0  0  0  0
    2.1102   65.6107  100.0518 O   0  0  0  0  0  0  0  0  0  0  0  0
    1.3595   67.6296  100.5018 O   0  0  0  0  0  0  0  0  0  0  0  0
    1.9983   64.8124   99.5740 H   0  0  0  0  0  0  0  0  0  0  0  0
   -0.7466   65.1687   99.6147 C   0  0  0  0  0  0  0  0  0  0  0  0
   -0.6788   63.8197   98.8589 C   0  0  0  0  0  0  0  0  0  0  0  0
    0.7514   63.0760  100.7213 O   0  0  0  0  0  0  0  0  0  0  0  0
    0.1205   62.7329   99.6709 C   0  0  0  0  0  0  0  0  0  0  0  0
    0.0729   61.5618   99.2112 O   0  0  0  0  0  0  0  0  0  0  0  0
    0.7412   63.9696  101.0031 H   0  0  0  0  0  0  0  0  0  0  0  0
    1.6255   64.6588   91.4395 C   0  0  0  0  0  0  0  0  0  0  0  0
    3.2723   63.8739   91.7216 S   0  0  0  0  0  0  0  0  0  0  0  0
    3.7666   63.0612   90.1992 C   0  0  0  0  0  0  0  0  0  0  0  0
    0.6298   63.7512   90.6661 C   0  0  0  0  0  0  0  0  0  0  0  0
   -0.7537   63.6654   91.2939 C   0  0  0  0  0  0  0  0  0  0  0  0
   -1.4518   62.2663   91.4112 C   0  0  0  0  0  0  0  0  0  0  0  0
   -1.2401   61.8709   92.8511 C   0  0  0  0  0  0  0  0  0  0  0  0
   -2.1605   62.1934   93.8400 C   0  0  0  0  0  0  0  0  0  0  0  0
   -3.1591   62.8692   93.6130 O   0  0  0  0  0  0  0  0  0  0  0  0
   -1.9728   61.7908   95.1118 N   0  0  0  0  0  0  0  0  0  0  0  0
   -0.8815   61.0213   95.4557 C   0  0  0  0  0  0  0  0  0  0  0  0
   -0.7787   60.6469   96.7058 N   0  0  0  0  0  0  0  0  0  0  0  0
    0.0170   60.6864   94.5119 N   0  0  0  0  0  0  0  0  0  0  0  0
   -0.1243   61.0957   93.2492 C   0  0  0  0  0  0  0  0  0  0  0  0
    0.7875   60.7212   92.3401 N   0  0  0  0  0  0  0  0  0  0  0  0
   -2.6229   62.0492   95.8044 H   0  0  0  0  0  0  0  0  0  0  0  0
   -0.0148   60.0966   96.9936 H   0  0  0  0  0  0  0  0  0  0  0  0
   -1.4653   60.9156   97.3582 H   0  0  0  0  0  0  0  0  0  0  0  0
    0.6987   61.0140   91.4043 H   0  0  0  0  0  0  0  0  0  0  0  0
    1.5458   60.1535   92.6084 H   0  0  0  0  0  0  0  0  0  0  0  0
 20 19  2  0  0  0
 19 18  1  0  0  0
 19 17  1  0  0  0
 17 16  1  0  0  0
 16 11  1  0  0  0
 24 23  1  0  0  0
 11  7  1  0  0  0
 11 12  1  0  0  0
 23 22  1  0  0  0
  9  8  2  0  0  0
  7  8  1  0  0  0
  8  1  1  0  0  0
  1  4  2  0  0  0
  1  2  1  0  0  0
  4  5  1  0  0  0
  2  3  2  0  0  0
  5  6  2  0  0  0
  3  6  1  0  0  0
 14 12  2  0  0  0
 12 13  1  0  0  0
  6 22  1  0  0  0
 22 25  1  0  0  0
 25 26  1  0  0  0
 26 27  1  0  0  0
 27 28  1  0  0  0
 36 35  1  0  0  0
 28 35  2  0  0  0
 28 29  1  0  0  0
 35 34  1  0  0  0
 29 30  2  0  0  0
 29 31  1  0  0  0
 34 32  2  0  0  0
 31 32  1  0  0  0
 32 33  1  0  0  0
 18 21  1  0  0  0
 13 15  1  0  0  0
  7 10  1  0  0  0
 31 37  1  0  0  0
 33 38  1  0  0  0
 33 39  1  0  0  0
 36 40  1  0  0  0
 36 41  1  0  0  0
M  END
> <minimizedAffinity>
-7.91016

$$$$
4EW2_DXY_A_304


 41 42  0  0  0  0  0  0  0  0999 V2000
   -0.3339   65.1844   94.8259 C   0  0  0  0  0  0  0  0  0  0  0  0
   -0.7347   65.7306   93.6064 C   0  0  0  0  0  0  0  0  0  0  0  0
   -0.1262   65.3643   92.4057 C   0  0  0  0  0  0  0  0  0  0  0  0
    0.6942   64.2974   94.8298 C   0  0  0  0  0  0  0  0  0  0  0  0
    1.2997   63.9301   93.6492 C   0  0  0  0  0  0  0  0  0  0  0  0
    0.9174   64.4448   92.4196 C   0  0  0  0  0  0  0  0  0  0  0  0
    0.0038   65.6535   97.1442 N   0  0  0  0  0  0  0  0  0  0  0  0
   -0.9077   65.4810   96.1830 C   0  0  0  0  0  0  0  0  0  0  0  0
   -2.1140   65.4747   96.4081 O   0  0  0  0  0  0  0  0  0  0  0  0
    0.9610   65.6074   96.9186 H   0  0  0  0  0  0  0  0  0  0  0  0
   -0.4033   65.9126   98.5423 C   0  0  0  0  0  0  0  0  0  0  0  0
   -0.2226   67.3712   98.9686 C   0  0  0  0  0  0  0  0  0  0  0  0
   -0.8338   68.2570   98.3539 O   0  0  0  0  0  0  0  0  0  0  0  0
    0.5800   67.5770   99.8970 O   0  0  0  0  0  0  0  0  0  0  0  0
   -1.4243   68.0262   97.6639 H   0  0  0  0  0  0  0  0  0  0  0  0
    0.3454   65.0414   99.5847 C   0  0  0  0  0  0  0  0  0  0  0  0
    0.5971   63.5704   99.1744 C   0  0  0  0  0  0  0  0  0  0  0  0
    0.9586   62.1493  101.1536 O   0  0  0  0  0  0  0  0  0  0  0  0
    0.1230   62.5625  100.2875 C   0  0  0  0  0  0  0  0  0  0  0  0
   -1.0904   62.2300  100.2434 O   0  0  0  0  0  0  0  0  0  0  0  0
    1.8484   62.4415  101.1229 H   0  0  0  0  0  0  0  0  0  0  0  0
    1.7261   63.8662   91.2178 C   0  0  0  0  0  0  0  0  0  0  0  0
    3.4960   64.3880   91.2709 S   0  0  0  0  0  0  0  0  0  0  0  0
    4.3839   63.4639   90.0139 C   0  0  0  0  0  0  0  0  0  0  0  0
    1.5325   62.3619   90.8816 C   0  0  0  0  0  0  0  0  0  0  0  0
    0.0890   61.9631   90.6118 C   0  0  0  0  0  0  0  0  0  0  0  0
   -0.5189   60.7376   91.3779 C   0  0  0  0  0  0  0  0  0  0  0  0
   -1.3394   61.3635   92.4777 C   0  0  0  0  0  0  0  0  0  0  0  0
   -2.5168   62.0501   92.2103 C   0  0  0  0  0  0  0  0  0  0  0  0
   -2.9206   62.2416   91.0676 O   0  0  0  0  0  0  0  0  0  0  0  0
   -3.2569   62.5622   93.2125 N   0  0  0  0  0  0  0  0  0  0  0  0
   -2.8821   62.3884   94.5281 C   0  0  0  0  0  0  0  0  0  0  0  0
   -3.6641   62.8930   95.4486 N   0  0  0  0  0  0  0  0  0  0  0  0
   -1.7517   61.7160   94.8117 N   0  0  0  0  0  0  0  0  0  0  0  0
   -0.9804   61.2233   93.8400 C   0  0  0  0  0  0  0  0  0  0  0  0
    0.1273   60.5446   94.1725 N   0  0  0  0  0  0  0  0  0  0  0  0
   -4.0758   63.0670   93.0031 H   0  0  0  0  0  0  0  0  0  0  0  0
   -3.4333   62.7914   96.4003 H   0  0  0  0  0  0  0  0  0  0  0  0
   -4.4830   63.3740   95.1893 H   0  0  0  0  0  0  0  0  0  0  0  0
    0.7076   60.1743   93.4687 H   0  0  0  0  0  0  0  0  0  0  0  0
    0.3603   60.4166   95.1204 H   0  0  0  0  0  0  0  0  0  0  0  0
 20 19  2  0  0  0
 19 18  1  0  0  0
 19 17  1  0  0  0
 17 16  1  0  0  0
 16 11  1  0  0  0
 24 23  1  0  0  0
 11  7  1  0  0  0
 11 12  1  0  0  0
 23 22  1  0  0  0
  9  8  2  0  0  0
  7  8  1  0  0  0
  8  1  1  0  0  0
  1  4  2  0  0  0
  1  2  1  0  0  0
  4  5  1  0  0  0
  2  3  2  0  0  0
  5  6  2  0  0  0
  3  6  1  0  0  0
 14 12  2  0  0  0
 12 13  1  0  0  0
  6 22  1  0  0  0
 22 25  1  0  0  0
 25 26  1  0  0  0
 26 27  1  0  0  0
 27 28  1  0  0  0
 36 35  1  0  0  0
 28 35  2  0  0  0
 28 29  1  0  0  0
 35 34  1  0  0  0
 29 30  2  0  0  0
 29 31  1  0  0  0
 34 32  2  0  0  0
 31 32  1  0  0  0
 32 33  1  0  0  0
 18 21  1  0  0  0
 13 15  1  0  0  0
  7 10  1  0  0  0
 31 37  1  0  0  0
 33 38  1  0  0  0
 33 39  1  0  0  0
 36 40  1  0  0  0
 36 41  1  0  0  0
M  END
> <minimizedAffinity>
-7.51128

$$$$
4EW2_DXY_A_304


 41 42  0  0  0  0  0  0  0  0999 V2000
   -3.1620   63.6107   94.3941 C   0  0  0  0  0  0  0  0  0  0  0  0
   -3.4382   64.0246   93.0909 C   0  0  0  0  0  0  0  0  0  0  0  0
   -3.6829   63.1074   92.0686 C   0  0  0  0  0  0  0  0  0  0  0  0
   -3.1055   62.2785   94.6506 C   0  0  0  0  0  0  0  0  0  0  0  0
   -3.3464   61.3668   93.6476 C   0  0  0  0  0  0  0  0  0  0  0  0
   -3.6356   61.7451   92.3452 C   0  0  0  0  0  0  0  0  0  0  0  0
   -1.6479   64.4054   96.0628 N   0  0  0  0  0  0  0  0  0  0  0  0
   -2.8925   64.4876   95.5846 C   0  0  0  0  0  0  0  0  0  0  0  0
   -3.7676   65.1545   96.1281 O   0  0  0  0  0  0  0  0  0  0  0  0
   -0.9936   63.8225   95.6140 H   0  0  0  0  0  0  0  0  0  0  0  0
   -1.2380   65.1767   97.2564 C   0  0  0  0  0  0  0  0  0  0  0  0
   -0.9495   66.6501   96.9596 C   0  0  0  0  0  0  0  0  0  0  0  0
   -1.8892   67.4581   96.9597 O   0  0  0  0  0  0  0  0  0  0  0  0
    0.2309   66.9350   96.6875 O   0  0  0  0  0  0  0  0  0  0  0  0
   -2.7544   67.1705   97.1756 H   0  0  0  0  0  0  0  0  0  0  0  0
    0.0149   64.6064   97.9712 C   0  0  0  0  0  0  0  0  0  0  0  0
   -0.1517   64.3033   99.4798 C   0  0  0  0  0  0  0  0  0  0  0  0
    0.7937   62.5767  100.9604 O   0  0  0  0  0  0  0  0  0  0  0  0
    0.2653   62.8258   99.8300 C   0  0  0  0  0  0  0  0  0  0  0  0
    0.0341   61.9665   98.9394 O   0  0  0  0  0  0  0  0  0  0  0  0
    0.9354   63.2701  101.5744 H   0  0  0  0  0  0  0  0  0  0  0  0
   -3.8972   60.5434   91.3856 C   0  0  0  0  0  0  0  0  0  0  0  0
   -5.3555   60.8452   90.2949 S   0  0  0  0  0  0  0  0  0  0  0  0
   -4.7881   61.7422   88.8470 C   0  0  0  0  0  0  0  0  0  0  0  0
   -2.6749   59.9456   90.6361 C   0  0  0  0  0  0  0  0  0  0  0  0
   -1.5663   60.9480   90.3503 C   0  0  0  0  0  0  0  0  0  0  0  0
   -0.1596   60.7373   91.0102 C   0  0  0  0  0  0  0  0  0  0  0  0
    0.0787   62.0124   91.7797 C   0  0  0  0  0  0  0  0  0  0  0  0
    0.0928   63.2518   91.1531 C   0  0  0  0  0  0  0  0  0  0  0  0
   -0.0223   63.3750   89.9378 O   0  0  0  0  0  0  0  0  0  0  0  0
    0.2627   64.3814   91.8672 N   0  0  0  0  0  0  0  0  0  0  0  0
    0.3927   64.3373   93.2393 C   0  0  0  0  0  0  0  0  0  0  0  0
    0.5296   65.4772   93.8680 N   0  0  0  0  0  0  0  0  0  0  0  0
    0.3698   63.1485   93.8691 N   0  0  0  0  0  0  0  0  0  0  0  0
    0.2341   62.0093   93.1869 C   0  0  0  0  0  0  0  0  0  0  0  0
    0.1986   60.8502   93.8604 N   0  0  0  0  0  0  0  0  0  0  0  0
    0.2945   65.2493   91.4037 H   0  0  0  0  0  0  0  0  0  0  0  0
    0.6254   65.4906   94.8477 H   0  0  0  0  0  0  0  0  0  0  0  0
    0.5368   66.3211   93.3611 H   0  0  0  0  0  0  0  0  0  0  0  0
    0.0990   60.0006   93.3731 H   0  0  0  0  0  0  0  0  0  0  0  0
    0.2721   60.8490   94.8421 H   0  0  0  0  0  0  0  0  0  0  0  0
 20 19  2  0  0  0
 19 18  1  0  0  0
 19 17  1  0  0  0
 17 16  1  0  0  0
 16 11  1  0  0  0
 24 23  1  0  0  0
 11  7  1  0  0  0
 11 12  1  0  0  0
 23 22  1  0  0  0
  9  8  2  0  0  0
  7  8  1  0  0  0
  8  1  1  0  0  0
  1  4  2  0  0  0
  1  2  1  0  0  0
  4  5  1  0  0  0
  2  3  2  0  0  0
  5  6  2  0  0  0
  3  6  1  0  0  0
 14 12  2  0  0  0
 12 13  1  0  0  0
  6 22  1  0  0  0
 22 25  1  0  0  0
 25 26  1  0  0  0
 26 27  1  0  0  0
 27 28  1  0  0  0
 36 35  1  0  0  0
 28 35  2  0  0  0
 28 29  1  0  0  0
 35 34  1  0  0  0
 29 30  2  0  0  0
 29 31  1  0  0  0
 34 32  2  0  0  0
 31 32  1  0  0  0
 32 33  1  0  0  0
 18 21  1  0  0  0
 13 15  1  0  0  0
  7 10  1  0  0  0
 31 37  1  0  0  0
 33 38  1  0  0  0
 33 39  1  0  0  0
 36 40  1  0  0  0
 36 41  1  0  0  0
M  END
> <minimizedAffinity>
-7.13429

$$$$
4EW2_DXY_A_304


 41 42  0  0  0  0  0  0  0  0999 V2000
    2.5265   67.0713   92.8383 C   0  0  0  0  0  0  0  0  0  0  0  0
    2.7930   65.7025   92.8762 C   0  0  0  0  0  0  0  0  0  0  0  0
    1.8074   64.7745   93.2132 C   0  0  0  0  0  0  0  0  0  0  0  0
    1.2796   67.4960   93.1680 C   0  0  0  0  0  0  0  0  0  0  0  0
    0.3010   66.5867   93.5010 C   0  0  0  0  0  0  0  0  0  0  0  0
    0.5298   65.2194   93.5363 C   0  0  0  0  0  0  0  0  0  0  0  0
    2.9719   69.4016   92.5557 N   0  0  0  0  0  0  0  0  0  0  0  0
    3.4871   68.1712   92.4831 C   0  0  0  0  0  0  0  0  0  0  0  0
    4.6226   67.9523   92.0725 O   0  0  0  0  0  0  0  0  0  0  0  0
    2.0405   69.5205   92.8517 H   0  0  0  0  0  0  0  0  0  0  0  0
    3.7795   70.5879   92.1980 C   0  0  0  0  0  0  0  0  0  0  0  0
    3.4464   71.8258   93.0339 C   0  0  0  0  0  0  0  0  0  0  0  0
    2.4280   72.4778   92.7624 O   0  0  0  0  0  0  0  0  0  0  0  0
    4.2650   72.1259   93.9218 O   0  0  0  0  0  0  0  0  0  0  0  0
    1.8559   72.1899   92.0784 H   0  0  0  0  0  0  0  0  0  0  0  0
    3.6579   71.0027   90.7083 C   0  0  0  0  0  0  0  0  0  0  0  0
    2.4239   70.4497   89.9553 C   0  0  0  0  0  0  0  0  0  0  0  0
    0.3925   71.3083   88.8584 O   0  0  0  0  0  0  0  0  0  0  0  0
    1.4399   71.5992   89.5198 C   0  0  0  0  0  0  0  0  0  0  0  0
    1.7671   72.7625   89.8729 O   0  0  0  0  0  0  0  0  0  0  0  0
    0.2145   70.4170   88.6310 H   0  0  0  0  0  0  0  0  0  0  0  0
   -0.7303   64.3815   93.9147 C   0  0  0  0  0  0  0  0  0  0  0  0
   -1.4310   63.5025   92.4506 S   0  0  0  0  0  0  0  0  0  0  0  0
   -2.2897   62.0406   93.0408 C   0  0  0  0  0  0  0  0  0  0  0  0
   -0.6460   63.4960   95.1883 C   0  0  0  0  0  0  0  0  0  0  0  0
   -0.0948   64.2131   96.4121 C   0  0  0  0  0  0  0  0  0  0  0  0
   -1.0822   64.6465   97.5504 C   0  0  0  0  0  0  0  0  0  0  0  0
   -0.2191   65.4347   98.5035 C   0  0  0  0  0  0  0  0  0  0  0  0
    0.6200   64.8092   99.4166 C   0  0  0  0  0  0  0  0  0  0  0  0
    0.6595   63.5896   99.5442 O   0  0  0  0  0  0  0  0  0  0  0  0
    1.4155   65.5334  100.2275 N   0  0  0  0  0  0  0  0  0  0  0  0
    1.4409   66.9098  100.1475 C   0  0  0  0  0  0  0  0  0  0  0  0
    2.2571   67.5445  100.9503 N   0  0  0  0  0  0  0  0  0  0  0  0
    0.6454   67.5368   99.2619 N   0  0  0  0  0  0  0  0  0  0  0  0
   -0.1767   66.8493   98.4661 C   0  0  0  0  0  0  0  0  0  0  0  0
   -0.9373   67.5175   97.5867 N   0  0  0  0  0  0  0  0  0  0  0  0
    1.9859   65.0742  100.8854 H   0  0  0  0  0  0  0  0  0  0  0  0
    2.3063   68.5275  100.9257 H   0  0  0  0  0  0  0  0  0  0  0  0
    2.8216   67.0389  101.5787 H   0  0  0  0  0  0  0  0  0  0  0  0
   -1.5492   67.0263   96.9922 H   0  0  0  0  0  0  0  0  0  0  0  0
   -0.8838   68.4992   97.5357 H   0  0  0  0  0  0  0  0  0  0  0  0
 20 19  2  0  0  0
 19 18  1  0  0  0
 19 17  1  0  0  0
 17 16  1  0  0  0
 16 11  1  0  0  0
 24 23  1  0  0  0
 11  7  1  0  0  0
 11 12  1  0  0  0
 23 22  1  0  0  0
  9  8  2  0  0  0
  7  8  1  0  0  0
  8  1  1  0  0  0
  1  4  2  0  0  0
  1  2  1  0  0  0
  4  5  1  0  0  0
  2  3  2  0  0  0
  5  6  2  0  0  0
  3  6  1  0  0  0
 14 12  2  0  0  0
 12 13  1  0  0  0
  6 22  1  0  0  0
 22 25  1  0  0  0
 25 26  1  0  0  0
 26 27  1  0  0  0
 27 28  1  0  0  0
 36 35  1  0  0  0
 28 35  2  0  0  0
 28 29  1  0  0  0
 35 34  1  0  0  0
 29 30  2  0  0  0
 29 31  1  0  0  0
 34 32  2  0  0  0
 31 32  1  0  0  0
 32 33  1  0  0  0
 18 21  1  0  0  0
 13 15  1  0  0  0
  7 10  1  0  0  0
 31 37  1  0  0  0
 33 38  1  0  0  0
 33 39  1  0  0  0
 36 40  1  0  0  0
 36 41  1  0  0  0
M  END
> <minimizedAffinity>
-7.07990

$$$$
4EW2_DXY_A_304


 41 42  0  0  0  0  0  0  0  0999 V2000
    3.8710   63.5390   92.7599 C   0  0  0  0  0  0  0  0  0  0  0  0
    3.7044   64.8356   93.2467 C   0  0  0  0  0  0  0  0  0  0  0  0
    2.4391   65.3620   93.5075 C   0  0  0  0  0  0  0  0  0  0  0  0
    2.7627   62.7945   92.5124 C   0  0  0  0  0  0  0  0  0  0  0  0
    1.5104   63.3062   92.7677 C   0  0  0  0  0  0  0  0  0  0  0  0
    1.3110   64.5860   93.2629 C   0  0  0  0  0  0  0  0  0  0  0  0
    5.6775   62.1413   93.4614 N   0  0  0  0  0  0  0  0  0  0  0  0
    5.1692   62.8486   92.4485 C   0  0  0  0  0  0  0  0  0  0  0  0
    5.7592   62.9964   91.3827 O   0  0  0  0  0  0  0  0  0  0  0  0
    5.1838   62.0883   94.3115 H   0  0  0  0  0  0  0  0  0  0  0  0
    6.9706   61.4366   93.3249 C   0  0  0  0  0  0  0  0  0  0  0  0
    6.8479   59.9144   93.4238 C   0  0  0  0  0  0  0  0  0  0  0  0
    6.1224   59.4260   94.3019 O   0  0  0  0  0  0  0  0  0  0  0  0
    7.5371   59.2544   92.6251 O   0  0  0  0  0  0  0  0  0  0  0  0
    5.6307   59.9869   94.8689 H   0  0  0  0  0  0  0  0  0  0  0  0
    8.0347   61.8725   94.3659 C   0  0  0  0  0  0  0  0  0  0  0  0
    7.5366   62.8298   95.4755 C   0  0  0  0  0  0  0  0  0  0  0  0
    7.0742   60.7959   96.7858 O   0  0  0  0  0  0  0  0  0  0  0  0
    7.2126   62.0606   96.8107 C   0  0  0  0  0  0  0  0  0  0  0  0
    7.1152   62.7742   97.8433 O   0  0  0  0  0  0  0  0  0  0  0  0
    7.1611   60.3310   95.9770 H   0  0  0  0  0  0  0  0  0  0  0  0
   -0.1895   64.9415   93.4984 C   0  0  0  0  0  0  0  0  0  0  0  0
   -1.3022   63.5380   93.0518 S   0  0  0  0  0  0  0  0  0  0  0  0
   -2.9915   64.1453   93.0625 C   0  0  0  0  0  0  0  0  0  0  0  0
   -0.5615   65.6247   94.8431 C   0  0  0  0  0  0  0  0  0  0  0  0
   -0.2809   64.7750   96.0739 C   0  0  0  0  0  0  0  0  0  0  0  0
   -1.2544   64.8645   97.2998 C   0  0  0  0  0  0  0  0  0  0  0  0
   -0.4291   65.5248   98.3755 C   0  0  0  0  0  0  0  0  0  0  0  0
    0.4040   64.7915   99.2105 C   0  0  0  0  0  0  0  0  0  0  0  0
    0.4675   63.5670   99.1646 O   0  0  0  0  0  0  0  0  0  0  0  0
    1.1662   65.4075  100.1348 N   0  0  0  0  0  0  0  0  0  0  0  0
    1.1632   66.7814  100.2516 C   0  0  0  0  0  0  0  0  0  0  0  0
    1.9482   67.3105  101.1557 N   0  0  0  0  0  0  0  0  0  0  0  0
    0.3731   67.5133   99.4451 N   0  0  0  0  0  0  0  0  0  0  0  0
   -0.4168   66.9309   98.5403 C   0  0  0  0  0  0  0  0  0  0  0  0
   -1.1731   67.7032   97.7467 N   0  0  0  0  0  0  0  0  0  0  0  0
    1.7325   64.8700  100.7344 H   0  0  0  0  0  0  0  0  0  0  0  0
    1.9765   68.2877  101.2720 H   0  0  0  0  0  0  0  0  0  0  0  0
    2.5103   66.7312  101.7194 H   0  0  0  0  0  0  0  0  0  0  0  0
   -1.7614   67.2904   97.0739 H   0  0  0  0  0  0  0  0  0  0  0  0
   -1.1399   68.6830   97.8368 H   0  0  0  0  0  0  0  0  0  0  0  0
 20 19  2  0  0  0
 19 18  1  0  0  0
 19 17  1  0  0  0
 17 16  1  0  0  0
 16 11  1  0  0  0
 24 23  1  0  0  0
 11  7  1  0  0  0
 11 12  1  0  0  0
 23 22  1  0  0  0
  9  8  2  0  0  0
  7  8  1  0  0  0
  8  1  1  0  0  0
  1  4  2  0  0  0
  1  2  1  0  0  0
  4  5  1  0  0  0
  2  3  2  0  0  0
  5  6  2  0  0  0
  3  6  1  0  0  0
 14 12  2  0  0  0
 12 13  1  0  0  0
  6 22  1  0  0  0
 22 25  1  0  0  0
 25 26  1  0  0  0
 26 27  1  0  0  0
 27 28  1  0  0  0
 36 35  1  0  0  0
 28 35  2  0  0  0
 28 29  1  0  0  0
 35 34  1  0  0  0
 29 30  2  0  0  0
 29 31  1  0  0  0
 34 32  2  0  0  0
 31 32  1  0  0  0
 32 33  1  0  0  0
 18 21  1  0  0  0
 13 15  1  0  0  0
  7 10  1  0  0  0
 31 37  1  0  0  0
 33 38  1  0  0  0
 33 39  1  0  0  0
 36 40  1  0  0  0
 36 41  1  0  0  0
M  END
> <minimizedAffinity>
-6.91029

$$$$
4EW2_DXY_A_304


 41 42  0  0  0  0  0  0  0  0999 V2000
    2.4553   66.5365   92.7380 C   0  0  0  0  0  0  0  0  0  0  0  0
    1.3497   67.2596   93.1861 C   0  0  0  0  0  0  0  0  0  0  0  0
    0.1976   66.6228   93.6478 C   0  0  0  0  0  0  0  0  0  0  0  0
    2.3808   65.1806   92.7309 C   0  0  0  0  0  0  0  0  0  0  0  0
    1.2477   64.5445   93.1855 C   0  0  0  0  0  0  0  0  0  0  0  0
    0.1368   65.2332   93.6487 C   0  0  0  0  0  0  0  0  0  0  0  0
    4.0665   68.3006   92.7070 N   0  0  0  0  0  0  0  0  0  0  0  0
    3.7551   67.0930   92.2282 C   0  0  0  0  0  0  0  0  0  0  0  0
    4.4289   66.5259   91.3736 O   0  0  0  0  0  0  0  0  0  0  0  0
    3.4697   68.7315   93.3608 H   0  0  0  0  0  0  0  0  0  0  0  0
    5.2942   68.9998   92.2699 C   0  0  0  0  0  0  0  0  0  0  0  0
    6.3781   69.0590   93.3487 C   0  0  0  0  0  0  0  0  0  0  0  0
    6.9004   70.1505   93.6163 O   0  0  0  0  0  0  0  0  0  0  0  0
    6.7003   67.9731   93.8641 O   0  0  0  0  0  0  0  0  0  0  0  0
    6.6049   70.9291   93.1869 H   0  0  0  0  0  0  0  0  0  0  0  0
    5.0504   70.4560   91.7944 C   0  0  0  0  0  0  0  0  0  0  0  0
    3.6511   71.0395   92.1063 C   0  0  0  0  0  0  0  0  0  0  0  0
    2.5954   72.5147   93.7725 O   0  0  0  0  0  0  0  0  0  0  0  0
    3.6788   71.9880   93.3629 C   0  0  0  0  0  0  0  0  0  0  0  0
    4.8073   72.1597   93.8939 O   0  0  0  0  0  0  0  0  0  0  0  0
    1.7910   72.3402   93.3247 H   0  0  0  0  0  0  0  0  0  0  0  0
   -1.0188   64.3058   94.1362 C   0  0  0  0  0  0  0  0  0  0  0  0
   -1.7790   63.3696   92.7387 S   0  0  0  0  0  0  0  0  0  0  0  0
   -2.6801   61.9788   93.4291 C   0  0  0  0  0  0  0  0  0  0  0  0
   -0.7562   63.4357   95.3961 C   0  0  0  0  0  0  0  0  0  0  0  0
   -0.1828   64.2044   96.5775 C   0  0  0  0  0  0  0  0  0  0  0  0
   -1.1500   64.6919   97.7113 C   0  0  0  0  0  0  0  0  0  0  0  0
   -0.2598   65.4818   98.6377 C   0  0  0  0  0  0  0  0  0  0  0  0
    0.6269   64.8584   99.5062 C   0  0  0  0  0  0  0  0  0  0  0  0
    0.6908   63.6380   99.6157 O   0  0  0  0  0  0  0  0  0  0  0  0
    1.4446   65.5850  100.2924 N   0  0  0  0  0  0  0  0  0  0  0  0
    1.4451   66.9625  100.2299 C   0  0  0  0  0  0  0  0  0  0  0  0
    2.2845   67.6001  101.0060 N   0  0  0  0  0  0  0  0  0  0  0  0
    0.6032   67.5878   99.3870 N   0  0  0  0  0  0  0  0  0  0  0  0
   -0.2410   66.8973   98.6174 C   0  0  0  0  0  0  0  0  0  0  0  0
   -1.0484   67.5642   97.7798 N   0  0  0  0  0  0  0  0  0  0  0  0
    2.0494   65.1267  100.9197 H   0  0  0  0  0  0  0  0  0  0  0  0
    2.3173   68.5839  100.9925 H   0  0  0  0  0  0  0  0  0  0  0  0
    2.8829   67.0958  101.6033 H   0  0  0  0  0  0  0  0  0  0  0  0
   -1.6772   67.0707   97.2050 H   0  0  0  0  0  0  0  0  0  0  0  0
   -1.0124   68.5472   97.7397 H   0  0  0  0  0  0  0  0  0  0  0  0
 20 19  2  0  0  0
 19 18  1  0  0  0
 19 17  1  0  0  0
 17 16  1  0  0  0
 16 11  1  0  0  0
 24 23  1  0  0  0
 11  7  1  0  0  0
 11 12  1  0  0  0
 23 22  1  0  0  0
  9  8  2  0  0  0
  7  8  1  0  0  0
  8  1  1  0  0  0
  1  4  2  0  0  0
  1  2  1  0  0  0
  4  5  1  0  0  0
  2  3  2  0  0  0
  5  6  2  0  0  0
  3  6  1  0  0  0
 14 12  2  0  0  0
 12 13  1  0  0  0
  6 22  1  0  0  0
 22 25  1  0  0  0
 25 26  1  0  0  0
 26 27  1  0  0  0
 27 28  1  0  0  0
 36 35  1  0  0  0
 28 35  2  0  0  0
 28 29  1  0  0  0
 35 34  1  0  0  0
 29 30  2  0  0  0
 29 31  1  0  0  0
 34 32  2  0  0  0
 31 32  1  0  0  0
 32 33  1  0  0  0
 18 21  1  0  0  0
 13 15  1  0  0  0
  7 10  1  0  0  0
 31 37  1  0  0  0
 33 38  1  0  0  0
 33 39  1  0  0  0
 36 40  1  0  0  0
 36 41  1  0  0  0
M  END
> <minimizedAffinity>
-6.85486

$$$$
4EW2_DXY_A_304


 41 42  0  0  0  0  0  0  0  0999 V2000
   -0.0034   64.2312   94.9465 C   0  0  0  0  0  0  0  0  0  0  0  0
   -0.2179   63.0737   94.1979 C   0  0  0  0  0  0  0  0  0  0  0  0
    0.5772   62.7574   93.0962 C   0  0  0  0  0  0  0  0  0  0  0  0
    0.9895   65.0742   94.5625 C   0  0  0  0  0  0  0  0  0  0  0  0
    1.7791   64.7691   93.4768 C   0  0  0  0  0  0  0  0  0  0  0  0
    1.6002   63.6213   92.7194 C   0  0  0  0  0  0  0  0  0  0  0  0
   -0.0334   65.2822   97.0919 N   0  0  0  0  0  0  0  0  0  0  0  0
   -0.7739   64.6836   96.1550 C   0  0  0  0  0  0  0  0  0  0  0  0
   -1.9672   64.4418   96.3088 O   0  0  0  0  0  0  0  0  0  0  0  0
    0.9297   65.4152   96.9371 H   0  0  0  0  0  0  0  0  0  0  0  0
   -0.6387   65.7483   98.3584 C   0  0  0  0  0  0  0  0  0  0  0  0
   -0.7761   67.2701   98.4437 C   0  0  0  0  0  0  0  0  0  0  0  0
   -1.6095   67.8393   97.7245 O   0  0  0  0  0  0  0  0  0  0  0  0
    0.0088   67.8504   99.2156 O   0  0  0  0  0  0  0  0  0  0  0  0
   -2.1690   67.3355   97.1667 H   0  0  0  0  0  0  0  0  0  0  0  0
    0.1311   65.2927   99.6257 C   0  0  0  0  0  0  0  0  0  0  0  0
    0.9250   63.9709   99.4909 C   0  0  0  0  0  0  0  0  0  0  0  0
    0.8789   62.1305  101.1273 O   0  0  0  0  0  0  0  0  0  0  0  0
    0.2241   62.7860  100.2552 C   0  0  0  0  0  0  0  0  0  0  0  0
   -0.9758   62.5673   99.9428 O   0  0  0  0  0  0  0  0  0  0  0  0
    1.7715   62.3516  101.3069 H   0  0  0  0  0  0  0  0  0  0  0  0
    2.6265   63.4714   91.5544 C   0  0  0  0  0  0  0  0  0  0  0  0
    2.1283   64.4557   90.0743 S   0  0  0  0  0  0  0  0  0  0  0  0
    3.0060   66.0207   90.1289 C   0  0  0  0  0  0  0  0  0  0  0  0
    4.1341   63.6000   91.9065 C   0  0  0  0  0  0  0  0  0  0  0  0
    4.6647   62.4858   92.7966 C   0  0  0  0  0  0  0  0  0  0  0  0
    6.1885   62.1213   92.7348 C   0  0  0  0  0  0  0  0  0  0  0  0
    6.5999   62.0197   94.1822 C   0  0  0  0  0  0  0  0  0  0  0  0
    6.9580   63.1405   94.9202 C   0  0  0  0  0  0  0  0  0  0  0  0
    7.0224   64.2608   94.4240 O   0  0  0  0  0  0  0  0  0  0  0  0
    7.2786   63.0316   96.2240 N   0  0  0  0  0  0  0  0  0  0  0  0
    7.2264   61.8119   96.8652 C   0  0  0  0  0  0  0  0  0  0  0  0
    7.5278   61.7879   98.1388 N   0  0  0  0  0  0  0  0  0  0  0  0
    6.8704   60.7143   96.1732 N   0  0  0  0  0  0  0  0  0  0  0  0
    6.5769   60.7841   94.8729 C   0  0  0  0  0  0  0  0  0  0  0  0
    6.2097   59.6660   94.2300 N   0  0  0  0  0  0  0  0  0  0  0  0
    7.5536   63.8329   96.7255 H   0  0  0  0  0  0  0  0  0  0  0  0
    7.5031   60.9377   98.6345 H   0  0  0  0  0  0  0  0  0  0  0  0
    7.7791   62.6200   98.6010 H   0  0  0  0  0  0  0  0  0  0  0  0
    5.9897   59.6994   93.2710 H   0  0  0  0  0  0  0  0  0  0  0  0
    6.1600   58.8119   94.7171 H   0  0  0  0  0  0  0  0  0  0  0  0
 20 19  2  0  0  0
 19 18  1  0  0  0
 19 17  1  0  0  0
 17 16  1  0  0  0
 16 11  1  0  0  0
 24 23  1  0  0  0
 11  7  1  0  0  0
 11 12  1  0  0  0
 23 22  1  0  0  0
  9  8  2  0  0  0
  7  8  1  0  0  0
  8  1  1  0  0  0
  1  4  2  0  0  0
  1  2  1  0  0  0
  4  5  1  0  0  0
  2  3  2  0  0  0
  5  6  2  0  0  0
  3  6  1  0  0  0
 14 12  2  0  0  0
 12 13  1  0  0  0
  6 22  1  0  0  0
 22 25  1  0  0  0
 25 26  1  0  0  0
 26 27  1  0  0  0
 27 28  1  0  0  0
 36 35  1  0  0  0
 28 35  2  0  0  0
 28 29  1  0  0  0
 35 34  1  0  0  0
 29 30  2  0  0  0
 29 31  1  0  0  0
 34 32  2  0  0  0
 31 32  1  0  0  0
 32 33  1  0  0  0
 18 21  1  0  0  0
 13 15  1  0  0  0
  7 10  1  0  0  0
 31 37  1  0  0  0
 33 38  1  0  0  0
 33 39  1  0  0  0
 36 40  1  0  0  0
 36 41  1  0  0  0
M  END
> <minimizedAffinity>
-6.60793

$$$$
4EW2_DXY_A_304


 41 42  0  0  0  0  0  0  0  0999 V2000
   -2.3515   63.6185   94.5801 C   0  0  0  0  0  0  0  0  0  0  0  0
   -2.6631   63.9807   93.2695 C   0  0  0  0  0  0  0  0  0  0  0  0
   -2.4823   63.0984   92.2042 C   0  0  0  0  0  0  0  0  0  0  0  0
   -1.8338   62.3832   94.8032 C   0  0  0  0  0  0  0  0  0  0  0  0
   -1.6528   61.5062   93.7575 C   0  0  0  0  0  0  0  0  0  0  0  0
   -1.9636   61.8306   92.4456 C   0  0  0  0  0  0  0  0  0  0  0  0
   -1.3767   65.0318   96.2417 N   0  0  0  0  0  0  0  0  0  0  0  0
   -2.5069   64.4624   95.8140 C   0  0  0  0  0  0  0  0  0  0  0  0
   -3.5651   64.5475   96.4296 O   0  0  0  0  0  0  0  0  0  0  0  0
   -0.5441   64.8981   95.7336 H   0  0  0  0  0  0  0  0  0  0  0  0
   -1.3573   65.8601   97.4669 C   0  0  0  0  0  0  0  0  0  0  0  0
   -0.4896   67.1143   97.3403 C   0  0  0  0  0  0  0  0  0  0  0  0
   -0.1034   67.4667   96.2167 O   0  0  0  0  0  0  0  0  0  0  0  0
   -0.1865   67.6826   98.4050 O   0  0  0  0  0  0  0  0  0  0  0  0
   -0.3733   66.9889   95.4573 H   0  0  0  0  0  0  0  0  0  0  0  0
   -0.8717   65.1005   98.7291 C   0  0  0  0  0  0  0  0  0  0  0  0
    0.2703   64.0807   98.5019 C   0  0  0  0  0  0  0  0  0  0  0  0
   -0.6311   62.4276  100.0899 O   0  0  0  0  0  0  0  0  0  0  0  0
   -0.1512   62.6247   98.9281 C   0  0  0  0  0  0  0  0  0  0  0  0
    0.0171   61.7299   98.0585 O   0  0  0  0  0  0  0  0  0  0  0  0
   -0.7272   63.1449  100.6850 H   0  0  0  0  0  0  0  0  0  0  0  0
   -1.6998   60.6736   91.4332 C   0  0  0  0  0  0  0  0  0  0  0  0
   -3.2223   60.2337   90.4866 S   0  0  0  0  0  0  0  0  0  0  0  0
   -4.5678   60.0424   91.6596 C   0  0  0  0  0  0  0  0  0  0  0  0
   -0.4261   60.7714   90.5493 C   0  0  0  0  0  0  0  0  0  0  0  0
    0.7215   61.5381   91.1902 C   0  0  0  0  0  0  0  0  0  0  0  0
    1.1034   62.9504   90.6262 C   0  0  0  0  0  0  0  0  0  0  0  0
    2.2724   63.3805   91.4766 C   0  0  0  0  0  0  0  0  0  0  0  0
    3.5815   63.0764   91.1262 C   0  0  0  0  0  0  0  0  0  0  0  0
    3.8572   62.3902   90.1471 O   0  0  0  0  0  0  0  0  0  0  0  0
    4.6126   63.5097   91.8771 N   0  0  0  0  0  0  0  0  0  0  0  0
    4.3956   64.2928   92.9912 C   0  0  0  0  0  0  0  0  0  0  0  0
    5.4475   64.6969   93.6572 N   0  0  0  0  0  0  0  0  0  0  0  0
    3.1363   64.6102   93.3428 N   0  0  0  0  0  0  0  0  0  0  0  0
    2.0918   64.1707   92.6373 C   0  0  0  0  0  0  0  0  0  0  0  0
    0.8563   64.5286   93.0164 N   0  0  0  0  0  0  0  0  0  0  0  0
    5.5327   63.2641   91.6274 H   0  0  0  0  0  0  0  0  0  0  0  0
    5.3371   65.2579   94.4587 H   0  0  0  0  0  0  0  0  0  0  0  0
    6.3491   64.4399   93.3566 H   0  0  0  0  0  0  0  0  0  0  0  0
    0.0746   64.2135   92.5075 H   0  0  0  0  0  0  0  0  0  0  0  0
    0.7309   65.1064   93.8035 H   0  0  0  0  0  0  0  0  0  0  0  0
 20 19  2  0  0  0
 19 18  1  0  0  0
 19 17  1  0  0  0
 17 16  1  0  0  0
 16 11  1  0  0  0
 24 23  1  0  0  0
 11  7  1  0  0  0
 11 12  1  0  0  0
 23 22  1  0  0  0
  9  8  2  0  0  0
  7  8  1  0  0  0
  8  1  1  0  0  0
  1  4  2  0  0  0
  1  2  1  0  0  0
  4  5  1  0  0  0
  2  3  2  0  0  0
  5  6  2  0  0  0
  3  6  1  0  0  0
 14 12  2  0  0  0
 12 13  1  0  0  0
  6 22  1  0  0  0
 22 25  1  0  0  0
 25 26  1  0  0  0
 26 27  1  0  0  0
 27 28  1  0  0  0
 36 35  1  0  0  0
 28 35  2  0  0  0
 28 29  1  0  0  0
 35 34  1  0  0  0
 29 30  2  0  0  0
 29 31  1  0  0  0
 34 32  2  0  0  0
 31 32  1  0  0  0
 32 33  1  0  0  0
 18 21  1  0  0  0
 13 15  1  0  0  0
  7 10  1  0  0  0
 31 37  1  0  0  0
 33 38  1  0  0  0
 33 39  1  0  0  0
 36 40  1  0  0  0
 36 41  1  0  0  0
M  END
> <minimizedAffinity>
-6.35732

$$$$
4EW2_DXY_A_304


 41 42  0  0  0  0  0  0  0  0999 V2000
    2.3235   66.8990   92.8476 C   0  0  0  0  0  0  0  0  0  0  0  0
    2.7326   65.6172   93.2158 C   0  0  0  0  0  0  0  0  0  0  0  0
    1.8148   64.6365   93.5923 C   0  0  0  0  0  0  0  0  0  0  0  0
    0.9981   67.1912   92.8895 C   0  0  0  0  0  0  0  0  0  0  0  0
    0.0857   66.2288   93.2593 C   0  0  0  0  0  0  0  0  0  0  0  0
    0.4582   64.9424   93.6191 C   0  0  0  0  0  0  0  0  0  0  0  0
    2.5614   69.0104   91.7547 N   0  0  0  0  0  0  0  0  0  0  0  0
    3.2007   68.0395   92.4130 C   0  0  0  0  0  0  0  0  0  0  0  0
    4.4178   68.0363   92.5695 O   0  0  0  0  0  0  0  0  0  0  0  0
    1.5885   68.9449   91.6190 H   0  0  0  0  0  0  0  0  0  0  0  0
    3.2933   70.1821   91.2265 C   0  0  0  0  0  0  0  0  0  0  0  0
    4.2503   69.8373   90.0830 C   0  0  0  0  0  0  0  0  0  0  0  0
    4.1823   68.7158   89.5601 O   0  0  0  0  0  0  0  0  0  0  0  0
    5.0816   70.7122   89.7795 O   0  0  0  0  0  0  0  0  0  0  0  0
    3.5277   68.1070   89.8408 H   0  0  0  0  0  0  0  0  0  0  0  0
    4.1230   70.9376   92.2974 C   0  0  0  0  0  0  0  0  0  0  0  0
    3.6737   72.3885   92.5953 C   0  0  0  0  0  0  0  0  0  0  0  0
    5.5002   73.1557   91.1315 O   0  0  0  0  0  0  0  0  0  0  0  0
    4.7375   73.4426   92.1088 C   0  0  0  0  0  0  0  0  0  0  0  0
    4.7552   74.5326   92.7386 O   0  0  0  0  0  0  0  0  0  0  0  0
    5.4288   72.3216   90.7107 H   0  0  0  0  0  0  0  0  0  0  0  0
   -0.7456   64.0166   93.9756 C   0  0  0  0  0  0  0  0  0  0  0  0
   -0.9364   62.6443   92.7559 S   0  0  0  0  0  0  0  0  0  0  0  0
   -0.6912   63.3252   91.1131 C   0  0  0  0  0  0  0  0  0  0  0  0
   -0.8833   63.5572   95.4532 C   0  0  0  0  0  0  0  0  0  0  0  0
   -0.4261   64.5897   96.4733 C   0  0  0  0  0  0  0  0  0  0  0  0
   -1.2453   64.7661   97.7986 C   0  0  0  0  0  0  0  0  0  0  0  0
   -0.3155   65.5339   98.7045 C   0  0  0  0  0  0  0  0  0  0  0  0
    0.6285   64.8920   99.4956 C   0  0  0  0  0  0  0  0  0  0  0  0
    0.7168   63.6695   99.5518 O   0  0  0  0  0  0  0  0  0  0  0  0
    1.4788   65.6008  100.2632 N   0  0  0  0  0  0  0  0  0  0  0  0
    1.4552   66.9795  100.2565 C   0  0  0  0  0  0  0  0  0  0  0  0
    2.3279   67.6002  101.0092 N   0  0  0  0  0  0  0  0  0  0  0  0
    0.5573   67.6231   99.4886 N   0  0  0  0  0  0  0  0  0  0  0  0
   -0.3191   66.9492   98.7405 C   0  0  0  0  0  0  0  0  0  0  0  0
   -1.1829   67.6347   97.9775 N   0  0  0  0  0  0  0  0  0  0  0  0
    2.1253   65.1285  100.8362 H   0  0  0  0  0  0  0  0  0  0  0  0
    2.3453   68.5842  101.0337 H   0  0  0  0  0  0  0  0  0  0  0  0
    2.9670   67.0830  101.5509 H   0  0  0  0  0  0  0  0  0  0  0  0
   -1.8360   67.1537   97.4196 H   0  0  0  0  0  0  0  0  0  0  0  0
   -1.1639   68.6190   97.9753 H   0  0  0  0  0  0  0  0  0  0  0  0
 20 19  2  0  0  0
 19 18  1  0  0  0
 19 17  1  0  0  0
 17 16  1  0  0  0
 16 11  1  0  0  0
 24 23  1  0  0  0
 11  7  1  0  0  0
 11 12  1  0  0  0
 23 22  1  0  0  0
  9  8  2  0  0  0
  7  8  1  0  0  0
  8  1  1  0  0  0
  1  4  2  0  0  0
  1  2  1  0  0  0
  4  5  1  0  0  0
  2  3  2  0  0  0
  5  6  2  0  0  0
  3  6  1  0  0  0
 14 12  2  0  0  0
 12 13  1  0  0  0
  6 22  1  0  0  0
 22 25  1  0  0  0
 25 26  1  0  0  0
 26 27  1  0  0  0
 27 28  1  0  0  0
 36 35  1  0  0  0
 28 35  2  0  0  0
 28 29  1  0  0  0
 35 34  1  0  0  0
 29 30  2  0  0  0
 29 31  1  0  0  0
 34 32  2  0  0  0
 31 32  1  0  0  0
 32 33  1  0  0  0
 18 21  1  0  0  0
 13 15  1  0  0  0
  7 10  1  0  0  0
 31 37  1  0  0  0
 33 38  1  0  0  0
 33 39  1  0  0  0
 36 40  1  0  0  0
 36 41  1  0  0  0
M  END
> <minimizedAffinity>
-6.32551

$$$$
4EW2_DXY_A_304


 41 42  0  0  0  0  0  0  0  0999 V2000
    2.9886   62.9602   91.7670 C   0  0  0  0  0  0  0  0  0  0  0  0
    1.7629   62.3178   91.5909 C   0  0  0  0  0  0  0  0  0  0  0  0
    0.6161   62.7319   92.2687 C   0  0  0  0  0  0  0  0  0  0  0  0
    3.0559   63.9941   92.6449 C   0  0  0  0  0  0  0  0  0  0  0  0
    1.9286   64.4094   93.3172 C   0  0  0  0  0  0  0  0  0  0  0  0
    0.6932   63.8005   93.1557 C   0  0  0  0  0  0  0  0  0  0  0  0
    5.3761   62.8900   91.8285 N   0  0  0  0  0  0  0  0  0  0  0  0
    4.2909   62.6257   91.0956 C   0  0  0  0  0  0  0  0  0  0  0  0
    4.3559   62.2284   89.9363 O   0  0  0  0  0  0  0  0  0  0  0  0
    5.2704   63.2477   92.7396 H   0  0  0  0  0  0  0  0  0  0  0  0
    6.7338   62.6536   91.2918 C   0  0  0  0  0  0  0  0  0  0  0  0
    7.7828   62.4040   92.3777 C   0  0  0  0  0  0  0  0  0  0  0  0
    8.5410   63.3283   92.7044 O   0  0  0  0  0  0  0  0  0  0  0  0
    7.8336   61.2488   92.8376 O   0  0  0  0  0  0  0  0  0  0  0  0
    8.4430   64.1746   92.3146 H   0  0  0  0  0  0  0  0  0  0  0  0
    7.2674   63.8095   90.4056 C   0  0  0  0  0  0  0  0  0  0  0  0
    8.0529   63.3806   89.1428 C   0  0  0  0  0  0  0  0  0  0  0  0
    6.2837   62.4287   87.7176 O   0  0  0  0  0  0  0  0  0  0  0  0
    7.3423   62.1975   88.3847 C   0  0  0  0  0  0  0  0  0  0  0  0
    7.8929   61.0703   88.4914 O   0  0  0  0  0  0  0  0  0  0  0  0
    5.9312   63.2963   87.6841 H   0  0  0  0  0  0  0  0  0  0  0  0
   -0.4444   64.4550   93.9986 C   0  0  0  0  0  0  0  0  0  0  0  0
   -1.9040   63.3365   94.1612 S   0  0  0  0  0  0  0  0  0  0  0  0
   -3.3687   64.2669   93.7012 C   0  0  0  0  0  0  0  0  0  0  0  0
   -0.0422   65.1477   95.3296 C   0  0  0  0  0  0  0  0  0  0  0  0
   -0.2060   64.2724   96.5635 C   0  0  0  0  0  0  0  0  0  0  0  0
   -1.1709   64.7406   97.7074 C   0  0  0  0  0  0  0  0  0  0  0  0
   -0.2786   65.5141   98.6456 C   0  0  0  0  0  0  0  0  0  0  0  0
    0.6241   64.8765   99.4868 C   0  0  0  0  0  0  0  0  0  0  0  0
    0.7019   63.6543   99.5618 O   0  0  0  0  0  0  0  0  0  0  0  0
    1.4429   65.5898  100.2840 N   0  0  0  0  0  0  0  0  0  0  0  0
    1.4285   66.9684  100.2596 C   0  0  0  0  0  0  0  0  0  0  0  0
    2.2698   67.5933  101.0439 N   0  0  0  0  0  0  0  0  0  0  0  0
    0.5707   67.6077   99.4436 N   0  0  0  0  0  0  0  0  0  0  0  0
   -0.2748   66.9297   98.6644 C   0  0  0  0  0  0  0  0  0  0  0  0
   -1.0984   67.6108   97.8544 N   0  0  0  0  0  0  0  0  0  0  0  0
    2.0595   65.1209  100.8916 H   0  0  0  0  0  0  0  0  0  0  0  0
    2.2923   68.5774  101.0573 H   0  0  0  0  0  0  0  0  0  0  0  0
    2.8801   67.0791  101.6205 H   0  0  0  0  0  0  0  0  0  0  0  0
   -1.7284   67.1267   97.2730 H   0  0  0  0  0  0  0  0  0  0  0  0
   -1.0731   68.5949   97.8411 H   0  0  0  0  0  0  0  0  0  0  0  0
 20 19  2  0  0  0
 19 18  1  0  0  0
 19 17  1  0  0  0
 17 16  1  0  0  0
 16 11  1  0  0  0
 24 23  1  0  0  0
 11  7  1  0  0  0
 11 12  1  0  0  0
 23 22  1  0  0  0
  9  8  2  0  0  0
  7  8  1  0  0  0
  8  1  1  0  0  0
  1  4  2  0  0  0
  1  2  1  0  0  0
  4  5  1  0  0  0
  2  3  2  0  0  0
  5  6  2  0  0  0
  3  6  1  0  0  0
 14 12  2  0  0  0
 12 13  1  0  0  0
  6 22  1  0  0  0
 22 25  1  0  0  0
 25 26  1  0  0  0
 26 27  1  0  0  0
 27 28  1  0  0  0
 36 35  1  0  0  0
 28 35  2  0  0  0
 28 29  1  0  0  0
 35 34  1  0  0  0
 29 30  2  0  0  0
 29 31  1  0  0  0
 34 32  2  0  0  0
 31 32  1  0  0  0
 32 33  1  0  0  0
 18 21  1  0  0  0
 13 15  1  0  0  0
  7 10  1  0  0  0
 31 37  1  0  0  0
 33 38  1  0  0  0
 33 39  1  0  0  0
 36 40  1  0  0  0
 36 41  1  0  0  0
M  END
> <minimizedAffinity>
-6.08538

$$$$
