5LAQ_6M5_A_1005


 44 49  0  0  0  0  0  0  0  0999 V2000
    4.5089  -41.1238    3.5144 C   0  0  0  0  0  0  0  0  0  0  0  0
    3.2352  -40.5370    3.4359 C   0  0  0  0  0  0  0  0  0  0  0  0
    2.5667  -41.6550    5.4714 C   0  0  0  0  0  0  0  0  0  0  0  0
    3.8294  -42.2258    5.5379 C   0  0  0  0  0  0  0  0  0  0  0  0
    4.7932  -41.9552    4.5765 C   0  0  0  0  0  0  0  0  0  0  0  0
    2.2971  -40.7718    4.4272 C   0  0  0  0  0  0  0  0  0  0  0  0
    0.8352  -40.8761    6.9201 N   0  0  0  0  0  0  0  0  0  0  0  0
    1.7939  -44.3790    9.3733 C   0  0  0  0  0  0  0  0  0  0  0  0
   -1.4408  -42.3515    9.2225 O   0  0  0  0  0  0  0  0  0  0  0  0
   -0.6487  -42.2659    8.2798 C   0  0  0  0  0  0  0  0  0  0  0  0
   -0.1312  -41.0529    7.8825 N   0  0  0  0  0  0  0  0  0  0  0  0
   -0.1433  -43.4500    7.5084 C   0  0  0  0  0  0  0  0  0  0  0  0
    1.3560  -43.2358    7.1552 C   0  0  0  0  0  0  0  0  0  0  0  0
    2.2130  -43.3020    8.4418 C   0  0  0  0  0  0  0  0  0  0  0  0
    0.7071  -45.1060    9.1996 C   0  0  0  0  0  0  0  0  0  0  0  0
   -0.3601  -44.8009    8.1995 C   0  0  0  0  0  0  0  0  0  0  0  0
    1.5301  -41.8775    6.5138 C   0  0  0  0  0  0  0  0  0  0  0  0
   -0.0842  -39.5149    9.8182 C   0  0  0  0  0  0  0  0  0  0  0  0
   -0.6812  -39.8061    8.4463 C   0  0  0  0  0  0  0  0  0  0  0  0
   -0.5421  -38.7057    7.4024 C   0  0  0  0  0  0  0  0  0  0  0  0
   -1.2762  -37.4061    7.7238 C   0  0  0  0  0  0  0  0  0  0  0  0
   -0.4715  -36.4074    8.5429 C   0  0  0  0  0  0  0  0  0  0  0  0
    0.2942  -36.9973    9.6965 C   0  0  0  0  0  0  0  0  0  0  0  0
   -0.4218  -38.1419   10.4000 C   0  0  0  0  0  0  0  0  0  0  0  0
    5.3657  -40.7894    2.4990 O   0  0  0  0  0  0  0  0  0  0  0  0
    6.6547  -41.3937    2.4465 C   0  0  0  0  0  0  0  0  0  0  0  0
    3.0269  -39.6939    2.3788 O   0  0  0  0  0  0  0  0  0  0  0  0
    2.2524  -40.1517    1.2555 C   0  0  0  0  0  0  0  0  0  0  0  0
    1.4277  -38.9897    0.7557 C   0  0  0  0  0  0  0  0  0  0  0  0
   -0.0687  -39.2104    0.7764 C   0  0  0  0  0  0  0  0  0  0  0  0
   -0.8556  -38.0230    1.2710 C   0  0  0  0  0  0  0  0  0  0  0  0
   -0.9745  -38.1366    2.6965 O   0  0  0  0  0  0  0  0  0  0  0  0
   -0.4763  -37.1484    3.5056 C   0  0  0  0  0  0  0  0  0  0  0  0
   -1.1120  -35.9524    3.8086 C   0  0  0  0  0  0  0  0  0  0  0  0
    0.7415  -35.3199    5.2096 C   0  0  0  0  0  0  0  0  0  0  0  0
    0.7712  -37.4118    4.0372 C   0  0  0  0  0  0  0  0  0  0  0  0
    1.3667  -36.5199    4.9015 C   0  0  0  0  0  0  0  0  0  0  0  0
   -0.5043  -35.0492    4.6597 C   0  0  0  0  0  0  0  0  0  0  0  0
    2.8573  -33.1724    7.1542 N   0  0  0  0  0  0  0  0  0  0  0  0
    1.7261  -33.0396    7.7658 N   0  0  0  0  0  0  0  0  0  0  0  0
    0.7638  -33.7764    7.1526 N   0  0  0  0  0  0  0  0  0  0  0  0
    1.3625  -34.3737    6.1298 C   0  0  0  0  0  0  0  0  0  0  0  0
    2.6493  -34.0160    6.1322 N   0  0  0  0  0  0  0  0  0  0  0  0
   -0.1826  -33.8518    7.4131 H   0  0  0  0  0  0  0  0  0  0  0  0
 23 24  1  0  0  0
 23 22  1  0  0  0
 24 18  1  0  0  0
 22 21  1  0  0  0
 18 19  1  0  0  0
 39 40  2  0  0  0
 39 43  1  0  0  0
 40 41  1  0  0  0
 41 42  1  0  0  0
 43 42  2  0  0  0
  9 10  2  0  0  0
 19 20  1  0  0  0
 19 11  1  0  0  0
 21 20  1  0  0  0
 42 35  1  0  0  0
 10 11  1  0  0  0
 10 12  1  0  0  0
 35 38  2  0  0  0
 35 37  1  0  0  0
 38 34  1  0  0  0
 11  7  1  0  0  0
 37 36  2  0  0  0
 34 33  2  0  0  0
 36 33  1  0  0  0
 12 16  1  0  0  0
 12 13  1  0  0  0
 16 15  1  0  0  0
 33 32  1  0  0  0
  7 17  2  0  0  0
 32 31  1  0  0  0
 31 30  1  0  0  0
 30 29  1  0  0  0
 15  8  2  0  0  0
 17 13  1  0  0  0
 17  3  1  0  0  0
 13 14  1  0  0  0
  8 14  1  0  0  0
 28 29  1  0  0  0
 28 27  1  0  0  0
  6  3  2  0  0  0
  6  2  1  0  0  0
  3  4  1  0  0  0
 27  2  1  0  0  0
  2  1  2  0  0  0
  4  5  2  0  0  0
  1  5  1  0  0  0
  1 25  1  0  0  0
 25 26  1  0  0  0
 41 44  1  0  0  0
M  END
> <minimizedAffinity>
-10.58329

$$$$
5LAQ_6M5_A_1005


 44 49  0  0  0  0  0  0  0  0999 V2000
    4.7372  -41.4721    3.4403 C   0  0  0  0  0  0  0  0  0  0  0  0
    3.6224  -40.6705    3.1445 C   0  0  0  0  0  0  0  0  0  0  0  0
    2.6239  -41.2292    5.2731 C   0  0  0  0  0  0  0  0  0  0  0  0
    3.7320  -42.0155    5.5533 C   0  0  0  0  0  0  0  0  0  0  0  0
    4.7817  -42.1274    4.6520 C   0  0  0  0  0  0  0  0  0  0  0  0
    2.6038  -40.5235    4.0711 C   0  0  0  0  0  0  0  0  0  0  0  0
    1.3513  -41.9033    7.1781 N   0  0  0  0  0  0  0  0  0  0  0  0
   -1.8990  -39.5647    5.3964 C   0  0  0  0  0  0  0  0  0  0  0  0
   -1.3742  -40.5787    9.0425 O   0  0  0  0  0  0  0  0  0  0  0  0
   -0.4042  -40.6042    8.2796 C   0  0  0  0  0  0  0  0  0  0  0  0
    0.3292  -41.7539    8.0861 N   0  0  0  0  0  0  0  0  0  0  0  0
    0.0463  -39.4251    7.4677 C   0  0  0  0  0  0  0  0  0  0  0  0
    0.5192  -39.9107    6.0681 C   0  0  0  0  0  0  0  0  0  0  0  0
   -0.6931  -40.4179    5.2512 C   0  0  0  0  0  0  0  0  0  0  0  0
   -1.9815  -38.5654    6.2534 C   0  0  0  0  0  0  0  0  0  0  0  0
   -0.9916  -38.3041    7.3413 C   0  0  0  0  0  0  0  0  0  0  0  0
    1.5090  -41.0412    6.2386 C   0  0  0  0  0  0  0  0  0  0  0  0
   -1.2892  -43.5173    8.7073 C   0  0  0  0  0  0  0  0  0  0  0  0
    0.0930  -42.9236    8.9528 C   0  0  0  0  0  0  0  0  0  0  0  0
    1.2725  -43.8757    8.8050 C   0  0  0  0  0  0  0  0  0  0  0  0
    1.3121  -45.0249    9.8094 C   0  0  0  0  0  0  0  0  0  0  0  0
    0.5533  -46.2718    9.3789 C   0  0  0  0  0  0  0  0  0  0  0  0
   -0.7990  -46.0177    8.7691 C   0  0  0  0  0  0  0  0  0  0  0  0
   -1.5573  -44.8559    9.3957 C   0  0  0  0  0  0  0  0  0  0  0  0
    5.6988  -41.5117    2.4651 O   0  0  0  0  0  0  0  0  0  0  0  0
    6.7563  -42.4607    2.5667 C   0  0  0  0  0  0  0  0  0  0  0  0
    3.6543  -40.0179    1.9425 O   0  0  0  0  0  0  0  0  0  0  0  0
    2.6348  -40.2935    0.9648 C   0  0  0  0  0  0  0  0  0  0  0  0
    1.9078  -39.0020    0.6752 C   0  0  0  0  0  0  0  0  0  0  0  0
    0.4064  -39.1283    0.5411 C   0  0  0  0  0  0  0  0  0  0  0  0
   -0.3506  -37.8890    0.9470 C   0  0  0  0  0  0  0  0  0  0  0  0
   -0.7377  -38.0397    2.3205 O   0  0  0  0  0  0  0  0  0  0  0  0
   -0.3584  -37.1015    3.2453 C   0  0  0  0  0  0  0  0  0  0  0  0
   -1.1052  -35.9975    3.6322 C   0  0  0  0  0  0  0  0  0  0  0  0
    0.6298  -35.3625    5.1765 C   0  0  0  0  0  0  0  0  0  0  0  0
    0.8846  -37.3159    3.8086 C   0  0  0  0  0  0  0  0  0  0  0  0
    1.3667  -36.4709    4.7837 C   0  0  0  0  0  0  0  0  0  0  0  0
   -0.6112  -35.1390    4.5957 C   0  0  0  0  0  0  0  0  0  0  0  0
    2.4083  -33.0902    7.3080 N   0  0  0  0  0  0  0  0  0  0  0  0
    1.4136  -33.4243    8.0630 N   0  0  0  0  0  0  0  0  0  0  0  0
    0.5896  -34.2855    7.4118 N   0  0  0  0  0  0  0  0  0  0  0  0
    1.1305  -34.4673    6.2136 C   0  0  0  0  0  0  0  0  0  0  0  0
    2.2524  -33.7456    6.1480 N   0  0  0  0  0  0  0  0  0  0  0  0
   -0.2382  -34.6912    7.7573 H   0  0  0  0  0  0  0  0  0  0  0  0
 23 24  1  0  0  0
 23 22  1  0  0  0
 24 18  1  0  0  0
 22 21  1  0  0  0
 18 19  1  0  0  0
 39 40  2  0  0  0
 39 43  1  0  0  0
 40 41  1  0  0  0
 41 42  1  0  0  0
 43 42  2  0  0  0
  9 10  2  0  0  0
 19 20  1  0  0  0
 19 11  1  0  0  0
 21 20  1  0  0  0
 42 35  1  0  0  0
 10 11  1  0  0  0
 10 12  1  0  0  0
 35 38  2  0  0  0
 35 37  1  0  0  0
 38 34  1  0  0  0
 11  7  1  0  0  0
 37 36  2  0  0  0
 34 33  2  0  0  0
 36 33  1  0  0  0
 12 16  1  0  0  0
 12 13  1  0  0  0
 16 15  1  0  0  0
 33 32  1  0  0  0
  7 17  2  0  0  0
 32 31  1  0  0  0
 31 30  1  0  0  0
 30 29  1  0  0  0
 15  8  2  0  0  0
 17 13  1  0  0  0
 17  3  1  0  0  0
 13 14  1  0  0  0
  8 14  1  0  0  0
 28 29  1  0  0  0
 28 27  1  0  0  0
  6  3  2  0  0  0
  6  2  1  0  0  0
  3  4  1  0  0  0
 27  2  1  0  0  0
  2  1  2  0  0  0
  4  5  2  0  0  0
  1  5  1  0  0  0
  1 25  1  0  0  0
 25 26  1  0  0  0
 41 44  1  0  0  0
M  END
> <minimizedAffinity>
-10.38500

$$$$
5LAQ_6M5_A_1005


 44 49  0  0  0  0  0  0  0  0999 V2000
   -0.8556  -35.1154    4.0333 C   0  0  0  0  0  0  0  0  0  0  0  0
   -0.9384  -36.5127    4.1501 C   0  0  0  0  0  0  0  0  0  0  0  0
   -0.7992  -36.3451    6.5569 C   0  0  0  0  0  0  0  0  0  0  0  0
   -0.7208  -34.9662    6.4270 C   0  0  0  0  0  0  0  0  0  0  0  0
   -0.7593  -34.3572    5.1803 C   0  0  0  0  0  0  0  0  0  0  0  0
   -0.9514  -37.1082    5.4003 C   0  0  0  0  0  0  0  0  0  0  0  0
   -0.6616  -38.3009    7.9205 N   0  0  0  0  0  0  0  0  0  0  0  0
   -2.9680  -35.9952   10.8484 C   0  0  0  0  0  0  0  0  0  0  0  0
   -0.6799  -39.0032   11.4084 O   0  0  0  0  0  0  0  0  0  0  0  0
   -0.5573  -38.3576   10.3636 C   0  0  0  0  0  0  0  0  0  0  0  0
   -0.6739  -38.9571    9.1291 N   0  0  0  0  0  0  0  0  0  0  0  0
   -0.3143  -36.8770   10.3248 C   0  0  0  0  0  0  0  0  0  0  0  0
   -1.1110  -36.2526    9.1442 C   0  0  0  0  0  0  0  0  0  0  0  0
   -2.6282  -36.3207    9.4406 C   0  0  0  0  0  0  0  0  0  0  0  0
   -2.0623  -35.8182   11.7908 C   0  0  0  0  0  0  0  0  0  0  0  0
   -0.6129  -36.1473   11.6394 C   0  0  0  0  0  0  0  0  0  0  0  0
   -0.8187  -37.0264    7.8783 C   0  0  0  0  0  0  0  0  0  0  0  0
   -1.8476  -40.8682    8.0875 C   0  0  0  0  0  0  0  0  0  0  0  0
   -0.7391  -40.4275    9.0363 C   0  0  0  0  0  0  0  0  0  0  0  0
    0.6583  -40.9510    8.7311 C   0  0  0  0  0  0  0  0  0  0  0  0
    0.8247  -42.4649    8.8380 C   0  0  0  0  0  0  0  0  0  0  0  0
    0.5135  -43.2304    7.5601 C   0  0  0  0  0  0  0  0  0  0  0  0
   -0.7282  -42.7854    6.8355 C   0  0  0  0  0  0  0  0  0  0  0  0
   -1.8666  -42.3598    7.7523 C   0  0  0  0  0  0  0  0  0  0  0  0
   -0.8903  -34.6372    2.7498 O   0  0  0  0  0  0  0  0  0  0  0  0
   -1.8541  -33.6482    2.3999 C   0  0  0  0  0  0  0  0  0  0  0  0
   -1.0687  -37.2063    2.9781 O   0  0  0  0  0  0  0  0  0  0  0  0
   -0.4072  -38.4765    2.8349 C   0  0  0  0  0  0  0  0  0  0  0  0
   -0.3715  -38.8182    1.3645 C   0  0  0  0  0  0  0  0  0  0  0  0
    0.9769  -39.2632    0.8429 C   0  0  0  0  0  0  0  0  0  0  0  0
    2.1465  -38.6886    1.6016 C   0  0  0  0  0  0  0  0  0  0  0  0
    3.1221  -39.7289    1.7602 O   0  0  0  0  0  0  0  0  0  0  0  0
    3.2785  -40.3406    2.9769 C   0  0  0  0  0  0  0  0  0  0  0  0
    2.4150  -40.2270    4.0576 C   0  0  0  0  0  0  0  0  0  0  0  0
    3.8099  -41.7200    5.3317 C   0  0  0  0  0  0  0  0  0  0  0  0
    4.4114  -41.1234    3.0881 C   0  0  0  0  0  0  0  0  0  0  0  0
    4.6650  -41.8281    4.2441 C   0  0  0  0  0  0  0  0  0  0  0  0
    2.6816  -40.9184    5.2240 C   0  0  0  0  0  0  0  0  0  0  0  0
    4.3502  -44.1194    7.9435 N   0  0  0  0  0  0  0  0  0  0  0  0
    4.3504  -43.0114    8.6095 N   0  0  0  0  0  0  0  0  0  0  0  0
    4.1774  -41.9539    7.7747 N   0  0  0  0  0  0  0  0  0  0  0  0
    4.0680  -42.4690    6.5565 C   0  0  0  0  0  0  0  0  0  0  0  0
    4.1619  -43.7976    6.6549 N   0  0  0  0  0  0  0  0  0  0  0  0
    4.1407  -41.0018    8.0224 H   0  0  0  0  0  0  0  0  0  0  0  0
 23 24  1  0  0  0
 23 22  1  0  0  0
 24 18  1  0  0  0
 22 21  1  0  0  0
 18 19  1  0  0  0
 39 40  2  0  0  0
 39 43  1  0  0  0
 40 41  1  0  0  0
 41 42  1  0  0  0
 43 42  2  0  0  0
  9 10  2  0  0  0
 19 20  1  0  0  0
 19 11  1  0  0  0
 21 20  1  0  0  0
 42 35  1  0  0  0
 10 11  1  0  0  0
 10 12  1  0  0  0
 35 38  2  0  0  0
 35 37  1  0  0  0
 38 34  1  0  0  0
 11  7  1  0  0  0
 37 36  2  0  0  0
 34 33  2  0  0  0
 36 33  1  0  0  0
 12 16  1  0  0  0
 12 13  1  0  0  0
 16 15  1  0  0  0
 33 32  1  0  0  0
  7 17  2  0  0  0
 32 31  1  0  0  0
 31 30  1  0  0  0
 30 29  1  0  0  0
 15  8  2  0  0  0
 17 13  1  0  0  0
 17  3  1  0  0  0
 13 14  1  0  0  0
  8 14  1  0  0  0
 28 29  1  0  0  0
 28 27  1  0  0  0
  6  3  2  0  0  0
  6  2  1  0  0  0
  3  4  1  0  0  0
 27  2  1  0  0  0
  2  1  2  0  0  0
  4  5  2  0  0  0
  1  5  1  0  0  0
  1 25  1  0  0  0
 25 26  1  0  0  0
 41 44  1  0  0  0
M  END
> <minimizedAffinity>
-9.96661

$$$$
5LAQ_6M5_A_1005


 44 49  0  0  0  0  0  0  0  0999 V2000
   -1.2159  -39.1772    9.3974 C   0  0  0  0  0  0  0  0  0  0  0  0
   -2.1055  -39.6797    8.4336 C   0  0  0  0  0  0  0  0  0  0  0  0
   -1.6082  -37.8226    6.9694 C   0  0  0  0  0  0  0  0  0  0  0  0
   -0.7309  -37.3389    7.9291 C   0  0  0  0  0  0  0  0  0  0  0  0
   -0.5287  -38.0138    9.1250 C   0  0  0  0  0  0  0  0  0  0  0  0
   -2.2620  -39.0274    7.2220 C   0  0  0  0  0  0  0  0  0  0  0  0
   -1.1422  -37.5806    4.6396 N   0  0  0  0  0  0  0  0  0  0  0  0
   -2.4957  -33.4443    5.1567 C   0  0  0  0  0  0  0  0  0  0  0  0
   -2.3570  -35.5577    1.9768 O   0  0  0  0  0  0  0  0  0  0  0  0
   -2.3342  -36.1347    3.0677 C   0  0  0  0  0  0  0  0  0  0  0  0
   -1.3059  -36.9841    3.4113 N   0  0  0  0  0  0  0  0  0  0  0  0
   -3.3779  -35.9465    4.1297 C   0  0  0  0  0  0  0  0  0  0  0  0
   -2.6981  -35.9423    5.5284 C   0  0  0  0  0  0  0  0  0  0  0  0
   -1.8410  -34.6644    5.6915 C   0  0  0  0  0  0  0  0  0  0  0  0
   -3.6230  -33.4670    4.4722 C   0  0  0  0  0  0  0  0  0  0  0  0
   -4.2625  -34.7088    3.9421 C   0  0  0  0  0  0  0  0  0  0  0  0
   -1.8056  -37.1565    5.6549 C   0  0  0  0  0  0  0  0  0  0  0  0
    1.0922  -37.3952    2.9699 C   0  0  0  0  0  0  0  0  0  0  0  0
   -0.3179  -37.3823    2.3913 C   0  0  0  0  0  0  0  0  0  0  0  0
   -0.7932  -38.6759    1.7429 C   0  0  0  0  0  0  0  0  0  0  0  0
   -0.0170  -39.1054    0.5002 C   0  0  0  0  0  0  0  0  0  0  0  0
    1.2039  -39.9695    0.7805 C   0  0  0  0  0  0  0  0  0  0  0  0
    2.0618  -39.5097    1.9283 C   0  0  0  0  0  0  0  0  0  0  0  0
    2.1656  -37.9968    2.0625 C   0  0  0  0  0  0  0  0  0  0  0  0
   -1.1144  -39.9262   10.5401 O   0  0  0  0  0  0  0  0  0  0  0  0
   -1.3134  -39.3002   11.8043 C   0  0  0  0  0  0  0  0  0  0  0  0
   -2.7293  -40.8560    8.7479 O   0  0  0  0  0  0  0  0  0  0  0  0
   -2.8396  -41.8835    7.7462 C   0  0  0  0  0  0  0  0  0  0  0  0
   -2.0024  -43.0585    8.1922 C   0  0  0  0  0  0  0  0  0  0  0  0
   -0.6541  -43.1772    7.5167 C   0  0  0  0  0  0  0  0  0  0  0  0
    0.5145  -42.9154    8.4331 C   0  0  0  0  0  0  0  0  0  0  0  0
    1.1196  -41.6776    8.0319 O   0  0  0  0  0  0  0  0  0  0  0  0
    1.9918  -41.6533    6.9746 C   0  0  0  0  0  0  0  0  0  0  0  0
    1.9583  -40.7545    5.9175 C   0  0  0  0  0  0  0  0  0  0  0  0
    3.9078  -41.7989    4.9652 C   0  0  0  0  0  0  0  0  0  0  0  0
    2.9672  -42.6310    7.0083 C   0  0  0  0  0  0  0  0  0  0  0  0
    3.9330  -42.6907    6.0281 C   0  0  0  0  0  0  0  0  0  0  0  0
    2.9157  -40.8286    4.9239 C   0  0  0  0  0  0  0  0  0  0  0  0
    6.7394  -42.3749    2.8390 N   0  0  0  0  0  0  0  0  0  0  0  0
    6.1363  -41.4204    2.2095 N   0  0  0  0  0  0  0  0  0  0  0  0
    4.9980  -41.0655    2.8600 N   0  0  0  0  0  0  0  0  0  0  0  0
    4.9315  -41.8514    3.9274 C   0  0  0  0  0  0  0  0  0  0  0  0
    6.0027  -42.6490    3.9261 N   0  0  0  0  0  0  0  0  0  0  0  0
    4.3548  -40.3690    2.5945 H   0  0  0  0  0  0  0  0  0  0  0  0
 23 24  1  0  0  0
 23 22  1  0  0  0
 24 18  1  0  0  0
 22 21  1  0  0  0
 18 19  1  0  0  0
 39 40  2  0  0  0
 39 43  1  0  0  0
 40 41  1  0  0  0
 41 42  1  0  0  0
 43 42  2  0  0  0
  9 10  2  0  0  0
 19 20  1  0  0  0
 19 11  1  0  0  0
 21 20  1  0  0  0
 42 35  1  0  0  0
 10 11  1  0  0  0
 10 12  1  0  0  0
 35 38  2  0  0  0
 35 37  1  0  0  0
 38 34  1  0  0  0
 11  7  1  0  0  0
 37 36  2  0  0  0
 34 33  2  0  0  0
 36 33  1  0  0  0
 12 16  1  0  0  0
 12 13  1  0  0  0
 16 15  1  0  0  0
 33 32  1  0  0  0
  7 17  2  0  0  0
 32 31  1  0  0  0
 31 30  1  0  0  0
 30 29  1  0  0  0
 15  8  2  0  0  0
 17 13  1  0  0  0
 17  3  1  0  0  0
 13 14  1  0  0  0
  8 14  1  0  0  0
 28 29  1  0  0  0
 28 27  1  0  0  0
  6  3  2  0  0  0
  6  2  1  0  0  0
  3  4  1  0  0  0
 27  2  1  0  0  0
  2  1  2  0  0  0
  4  5  2  0  0  0
  1  5  1  0  0  0
  1 25  1  0  0  0
 25 26  1  0  0  0
 41 44  1  0  0  0
M  END
> <minimizedAffinity>
-9.83883

$$$$
5LAQ_6M5_A_1005


 44 49  0  0  0  0  0  0  0  0999 V2000
    4.2275  -40.9988    3.4400 C   0  0  0  0  0  0  0  0  0  0  0  0
    2.9918  -40.3726    3.2083 C   0  0  0  0  0  0  0  0  0  0  0  0
    2.1609  -41.1695    5.3331 C   0  0  0  0  0  0  0  0  0  0  0  0
    3.3870  -41.7811    5.5500 C   0  0  0  0  0  0  0  0  0  0  0  0
    4.4125  -41.6881    4.6192 C   0  0  0  0  0  0  0  0  0  0  0  0
    1.9923  -40.4271    4.1654 C   0  0  0  0  0  0  0  0  0  0  0  0
    0.5006  -40.0951    6.6720 N   0  0  0  0  0  0  0  0  0  0  0  0
    0.8465  -43.5955    9.2865 C   0  0  0  0  0  0  0  0  0  0  0  0
   -2.0559  -41.1388    8.9156 O   0  0  0  0  0  0  0  0  0  0  0  0
   -1.2216  -41.2045    8.0084 C   0  0  0  0  0  0  0  0  0  0  0  0
   -0.5200  -40.0942    7.5939 N   0  0  0  0  0  0  0  0  0  0  0  0
   -0.8595  -42.4786    7.3026 C   0  0  0  0  0  0  0  0  0  0  0  0
    0.6682  -42.4932    7.0123 C   0  0  0  0  0  0  0  0  0  0  0  0
    1.4533  -42.6275    8.3389 C   0  0  0  0  0  0  0  0  0  0  0  0
   -0.3250  -44.1679    9.0876 C   0  0  0  0  0  0  0  0  0  0  0  0
   -1.2956  -43.7560    8.0291 C   0  0  0  0  0  0  0  0  0  0  0  0
    1.0611  -41.2005    6.3332 C   0  0  0  0  0  0  0  0  0  0  0  0
   -0.3083  -38.4887    9.4627 C   0  0  0  0  0  0  0  0  0  0  0  0
   -0.9086  -38.7601    8.0882 C   0  0  0  0  0  0  0  0  0  0  0  0
   -0.5989  -37.7377    7.0026 C   0  0  0  0  0  0  0  0  0  0  0  0
   -1.1574  -36.3380    7.2473 C   0  0  0  0  0  0  0  0  0  0  0  0
   -0.2434  -35.4195    8.0454 C   0  0  0  0  0  0  0  0  0  0  0  0
    0.4097  -36.0529    9.2442 C   0  0  0  0  0  0  0  0  0  0  0  0
   -0.4699  -37.0574    9.9755 C   0  0  0  0  0  0  0  0  0  0  0  0
    5.1523  -40.8454    2.4408 O   0  0  0  0  0  0  0  0  0  0  0  0
    6.3640  -41.5929    2.4912 C   0  0  0  0  0  0  0  0  0  0  0  0
    2.8830  -39.6743    2.0369 O   0  0  0  0  0  0  0  0  0  0  0  0
    2.5595  -38.2726    2.0807 C   0  0  0  0  0  0  0  0  0  0  0  0
    1.5279  -38.0006    1.0119 C   0  0  0  0  0  0  0  0  0  0  0  0
    0.2683  -37.3176    1.4966 C   0  0  0  0  0  0  0  0  0  0  0  0
   -0.2960  -36.3129    0.5239 C   0  0  0  0  0  0  0  0  0  0  0  0
   -0.5224  -35.0886    1.2375 O   0  0  0  0  0  0  0  0  0  0  0  0
   -1.5178  -35.0184    2.1774 C   0  0  0  0  0  0  0  0  0  0  0  0
   -1.4074  -34.4354    3.4321 C   0  0  0  0  0  0  0  0  0  0  0  0
   -3.7085  -34.9781    3.8890 C   0  0  0  0  0  0  0  0  0  0  0  0
   -2.7133  -35.5963    1.7964 C   0  0  0  0  0  0  0  0  0  0  0  0
   -3.8081  -35.5562    2.6313 C   0  0  0  0  0  0  0  0  0  0  0  0
   -2.5007  -34.4141    4.2769 C   0  0  0  0  0  0  0  0  0  0  0  0
   -6.1214  -34.5266    6.5051 N   0  0  0  0  0  0  0  0  0  0  0  0
   -6.7793  -35.2675    5.6748 N   0  0  0  0  0  0  0  0  0  0  0  0
   -6.0260  -35.5378    4.5775 N   0  0  0  0  0  0  0  0  0  0  0  0
   -4.8654  -34.9254    4.7758 C   0  0  0  0  0  0  0  0  0  0  0  0
   -4.9138  -34.3127    5.9615 N   0  0  0  0  0  0  0  0  0  0  0  0
   -6.2870  -36.0770    3.7962 H   0  0  0  0  0  0  0  0  0  0  0  0
 23 24  1  0  0  0
 23 22  1  0  0  0
 24 18  1  0  0  0
 22 21  1  0  0  0
 18 19  1  0  0  0
 39 40  2  0  0  0
 39 43  1  0  0  0
 40 41  1  0  0  0
 41 42  1  0  0  0
 43 42  2  0  0  0
  9 10  2  0  0  0
 19 20  1  0  0  0
 19 11  1  0  0  0
 21 20  1  0  0  0
 42 35  1  0  0  0
 10 11  1  0  0  0
 10 12  1  0  0  0
 35 38  2  0  0  0
 35 37  1  0  0  0
 38 34  1  0  0  0
 11  7  1  0  0  0
 37 36  2  0  0  0
 34 33  2  0  0  0
 36 33  1  0  0  0
 12 16  1  0  0  0
 12 13  1  0  0  0
 16 15  1  0  0  0
 33 32  1  0  0  0
  7 17  2  0  0  0
 32 31  1  0  0  0
 31 30  1  0  0  0
 30 29  1  0  0  0
 15  8  2  0  0  0
 17 13  1  0  0  0
 17  3  1  0  0  0
 13 14  1  0  0  0
  8 14  1  0  0  0
 28 29  1  0  0  0
 28 27  1  0  0  0
  6  3  2  0  0  0
  6  2  1  0  0  0
  3  4  1  0  0  0
 27  2  1  0  0  0
  2  1  2  0  0  0
  4  5  2  0  0  0
  1  5  1  0  0  0
  1 25  1  0  0  0
 25 26  1  0  0  0
 41 44  1  0  0  0
M  END
> <minimizedAffinity>
-9.78920

$$$$
5LAQ_6M5_A_1005


 44 49  0  0  0  0  0  0  0  0999 V2000
   -3.3656  -38.0355    8.4863 C   0  0  0  0  0  0  0  0  0  0  0  0
   -2.2013  -38.6464    8.9802 C   0  0  0  0  0  0  0  0  0  0  0  0
   -1.3913  -38.9819    6.7283 C   0  0  0  0  0  0  0  0  0  0  0  0
   -2.5449  -38.3744    6.2542 C   0  0  0  0  0  0  0  0  0  0  0  0
   -3.5162  -37.8969    7.1232 C   0  0  0  0  0  0  0  0  0  0  0  0
   -1.2140  -39.0732    8.1079 C   0  0  0  0  0  0  0  0  0  0  0  0
    0.4172  -40.4488    6.1985 N   0  0  0  0  0  0  0  0  0  0  0  0
    1.8113  -37.2178    3.5860 C   0  0  0  0  0  0  0  0  0  0  0  0
    2.5788  -40.9568    3.4185 O   0  0  0  0  0  0  0  0  0  0  0  0
    1.5880  -40.5878    4.0555 C   0  0  0  0  0  0  0  0  0  0  0  0
    1.4280  -40.9063    5.3859 N   0  0  0  0  0  0  0  0  0  0  0  0
    0.4957  -39.7378    3.4751 C   0  0  0  0  0  0  0  0  0  0  0  0
    0.0093  -38.7188    4.5445 C   0  0  0  0  0  0  0  0  0  0  0  0
    1.1180  -37.6742    4.8166 C   0  0  0  0  0  0  0  0  0  0  0  0
    1.6135  -37.7582    2.3992 C   0  0  0  0  0  0  0  0  0  0  0  0
    0.8655  -39.0304    2.1664 C   0  0  0  0  0  0  0  0  0  0  0  0
   -0.3052  -39.4528    5.8287 C   0  0  0  0  0  0  0  0  0  0  0  0
    3.6719  -41.2238    6.3753 C   0  0  0  0  0  0  0  0  0  0  0  0
    2.3416  -41.8763    6.0180 C   0  0  0  0  0  0  0  0  0  0  0  0
    1.5990  -42.5623    7.1571 C   0  0  0  0  0  0  0  0  0  0  0  0
    2.3119  -43.7663    7.7680 C   0  0  0  0  0  0  0  0  0  0  0  0
    3.2662  -43.4303    8.9049 C   0  0  0  0  0  0  0  0  0  0  0  0
    4.1474  -42.2338    8.6665 C   0  0  0  0  0  0  0  0  0  0  0  0
    4.6122  -42.0789    7.2252 C   0  0  0  0  0  0  0  0  0  0  0  0
   -4.2535  -37.6194    9.4432 O   0  0  0  0  0  0  0  0  0  0  0  0
   -5.0412  -36.4565    9.2052 C   0  0  0  0  0  0  0  0  0  0  0  0
   -2.0944  -38.7216   10.3421 O   0  0  0  0  0  0  0  0  0  0  0  0
   -0.7878  -38.7571   10.9444 C   0  0  0  0  0  0  0  0  0  0  0  0
   -0.4251  -37.3485   11.3503 C   0  0  0  0  0  0  0  0  0  0  0  0
    0.5841  -36.6639   10.4553 C   0  0  0  0  0  0  0  0  0  0  0  0
    0.2229  -35.2436   10.1003 C   0  0  0  0  0  0  0  0  0  0  0  0
    1.1249  -34.8033    9.0747 O   0  0  0  0  0  0  0  0  0  0  0  0
    0.6534  -34.5441    7.8139 C   0  0  0  0  0  0  0  0  0  0  0  0
    1.1535  -33.5859    6.9431 C   0  0  0  0  0  0  0  0  0  0  0  0
   -0.4663  -34.2427    5.2869 C   0  0  0  0  0  0  0  0  0  0  0  0
   -0.4155  -35.3280    7.4248 C   0  0  0  0  0  0  0  0  0  0  0  0
   -0.9567  -35.1990    6.1648 C   0  0  0  0  0  0  0  0  0  0  0  0
    0.5962  -33.4435    5.6867 C   0  0  0  0  0  0  0  0  0  0  0  0
   -1.4596  -34.4564    1.8462 N   0  0  0  0  0  0  0  0  0  0  0  0
   -2.0190  -33.3479    2.2060 N   0  0  0  0  0  0  0  0  0  0  0  0
   -1.7732  -33.0940    3.5175 N   0  0  0  0  0  0  0  0  0  0  0  0
   -1.0293  -34.1051    3.9483 C   0  0  0  0  0  0  0  0  0  0  0  0
   -0.8241  -34.9384    2.9249 N   0  0  0  0  0  0  0  0  0  0  0  0
   -2.0830  -32.3197    4.0406 H   0  0  0  0  0  0  0  0  0  0  0  0
 23 24  1  0  0  0
 23 22  1  0  0  0
 24 18  1  0  0  0
 22 21  1  0  0  0
 18 19  1  0  0  0
 39 40  2  0  0  0
 39 43  1  0  0  0
 40 41  1  0  0  0
 41 42  1  0  0  0
 43 42  2  0  0  0
  9 10  2  0  0  0
 19 20  1  0  0  0
 19 11  1  0  0  0
 21 20  1  0  0  0
 42 35  1  0  0  0
 10 11  1  0  0  0
 10 12  1  0  0  0
 35 38  2  0  0  0
 35 37  1  0  0  0
 38 34  1  0  0  0
 11  7  1  0  0  0
 37 36  2  0  0  0
 34 33  2  0  0  0
 36 33  1  0  0  0
 12 16  1  0  0  0
 12 13  1  0  0  0
 16 15  1  0  0  0
 33 32  1  0  0  0
  7 17  2  0  0  0
 32 31  1  0  0  0
 31 30  1  0  0  0
 30 29  1  0  0  0
 15  8  2  0  0  0
 17 13  1  0  0  0
 17  3  1  0  0  0
 13 14  1  0  0  0
  8 14  1  0  0  0
 28 29  1  0  0  0
 28 27  1  0  0  0
  6  3  2  0  0  0
  6  2  1  0  0  0
  3  4  1  0  0  0
 27  2  1  0  0  0
  2  1  2  0  0  0
  4  5  2  0  0  0
  1  5  1  0  0  0
  1 25  1  0  0  0
 25 26  1  0  0  0
 41 44  1  0  0  0
M  END
> <minimizedAffinity>
-9.75426

$$$$
5LAQ_6M5_A_1005


 44 49  0  0  0  0  0  0  0  0999 V2000
    0.4958  -34.7036    7.6253 C   0  0  0  0  0  0  0  0  0  0  0  0
    0.1716  -35.5080    6.5205 C   0  0  0  0  0  0  0  0  0  0  0  0
   -0.3843  -37.3450    7.9888 C   0  0  0  0  0  0  0  0  0  0  0  0
   -0.0631  -36.5388    9.0711 C   0  0  0  0  0  0  0  0  0  0  0  0
    0.3619  -35.2296    8.8923 C   0  0  0  0  0  0  0  0  0  0  0  0
   -0.3009  -36.7958    6.7103 C   0  0  0  0  0  0  0  0  0  0  0  0
   -0.0897  -39.7149    7.9657 N   0  0  0  0  0  0  0  0  0  0  0  0
   -4.4061  -39.8923    7.2275 C   0  0  0  0  0  0  0  0  0  0  0  0
   -2.0990  -42.5574    8.7012 O   0  0  0  0  0  0  0  0  0  0  0  0
   -1.7185  -41.3833    8.7046 C   0  0  0  0  0  0  0  0  0  0  0  0
   -0.5363  -41.0081    8.1058 N   0  0  0  0  0  0  0  0  0  0  0  0
   -2.5033  -40.2567    9.3109 C   0  0  0  0  0  0  0  0  0  0  0  0
   -2.3616  -38.9894    8.4207 C   0  0  0  0  0  0  0  0  0  0  0  0
   -3.0983  -39.2066    7.0774 C   0  0  0  0  0  0  0  0  0  0  0  0
   -4.8297  -40.4050    8.3666 C   0  0  0  0  0  0  0  0  0  0  0  0
   -3.9772  -40.5795    9.5811 C   0  0  0  0  0  0  0  0  0  0  0  0
   -0.8970  -38.7318    8.1461 C   0  0  0  0  0  0  0  0  0  0  0  0
    1.3700  -41.4746    6.6014 C   0  0  0  0  0  0  0  0  0  0  0  0
    0.4010  -42.0432    7.6314 C   0  0  0  0  0  0  0  0  0  0  0  0
    1.0259  -42.7170    8.8460 C   0  0  0  0  0  0  0  0  0  0  0  0
    1.8392  -43.9741    8.5472 C   0  0  0  0  0  0  0  0  0  0  0  0
    3.3052  -43.7213    8.2262 C   0  0  0  0  0  0  0  0  0  0  0  0
    3.5652  -42.5693    7.2934 C   0  0  0  0  0  0  0  0  0  0  0  0
    2.5176  -42.4023    6.2015 C   0  0  0  0  0  0  0  0  0  0  0  0
    0.9155  -33.4363    7.3174 O   0  0  0  0  0  0  0  0  0  0  0  0
    2.2699  -33.0706    7.5651 C   0  0  0  0  0  0  0  0  0  0  0  0
    0.2906  -34.9171    5.2923 O   0  0  0  0  0  0  0  0  0  0  0  0
   -0.8826  -34.7482    4.4760 C   0  0  0  0  0  0  0  0  0  0  0  0
   -0.5631  -35.2612    3.0921 C   0  0  0  0  0  0  0  0  0  0  0  0
   -0.9768  -36.6921    2.8282 C   0  0  0  0  0  0  0  0  0  0  0  0
   -0.2419  -37.3400    1.6819 C   0  0  0  0  0  0  0  0  0  0  0  0
   -0.1421  -38.7441    1.9605 O   0  0  0  0  0  0  0  0  0  0  0  0
    1.0740  -39.2955    2.2708 C   0  0  0  0  0  0  0  0  0  0  0  0
    1.6357  -39.3570    3.5385 C   0  0  0  0  0  0  0  0  0  0  0  0
    3.5508  -40.5046    2.6365 C   0  0  0  0  0  0  0  0  0  0  0  0
    1.7630  -39.8175    1.1932 C   0  0  0  0  0  0  0  0  0  0  0  0
    2.9785  -40.4396    1.3739 C   0  0  0  0  0  0  0  0  0  0  0  0
    2.8649  -39.9631    3.7152 C   0  0  0  0  0  0  0  0  0  0  0  0
    6.8810  -41.8345    2.5304 N   0  0  0  0  0  0  0  0  0  0  0  0
    6.3876  -42.4601    3.5484 N   0  0  0  0  0  0  0  0  0  0  0  0
    5.1066  -42.0685    3.7731 N   0  0  0  0  0  0  0  0  0  0  0  0
    4.8342  -41.1682    2.8368 C   0  0  0  0  0  0  0  0  0  0  0  0
    5.9150  -41.0287    2.0646 N   0  0  0  0  0  0  0  0  0  0  0  0
    4.5044  -42.3868    4.4839 H   0  0  0  0  0  0  0  0  0  0  0  0
 23 24  1  0  0  0
 23 22  1  0  0  0
 24 18  1  0  0  0
 22 21  1  0  0  0
 18 19  1  0  0  0
 39 40  2  0  0  0
 39 43  1  0  0  0
 40 41  1  0  0  0
 41 42  1  0  0  0
 43 42  2  0  0  0
  9 10  2  0  0  0
 19 20  1  0  0  0
 19 11  1  0  0  0
 21 20  1  0  0  0
 42 35  1  0  0  0
 10 11  1  0  0  0
 10 12  1  0  0  0
 35 38  2  0  0  0
 35 37  1  0  0  0
 38 34  1  0  0  0
 11  7  1  0  0  0
 37 36  2  0  0  0
 34 33  2  0  0  0
 36 33  1  0  0  0
 12 16  1  0  0  0
 12 13  1  0  0  0
 16 15  1  0  0  0
 33 32  1  0  0  0
  7 17  2  0  0  0
 32 31  1  0  0  0
 31 30  1  0  0  0
 30 29  1  0  0  0
 15  8  2  0  0  0
 17 13  1  0  0  0
 17  3  1  0  0  0
 13 14  1  0  0  0
  8 14  1  0  0  0
 28 29  1  0  0  0
 28 27  1  0  0  0
  6  3  2  0  0  0
  6  2  1  0  0  0
  3  4  1  0  0  0
 27  2  1  0  0  0
  2  1  2  0  0  0
  4  5  2  0  0  0
  1  5  1  0  0  0
  1 25  1  0  0  0
 25 26  1  0  0  0
 41 44  1  0  0  0
M  END
> <minimizedAffinity>
-9.57099

$$$$
5LAQ_6M5_A_1005


 44 49  0  0  0  0  0  0  0  0999 V2000
   -3.0080  -38.0265    9.2544 C   0  0  0  0  0  0  0  0  0  0  0  0
   -1.8302  -38.3602    9.9430 C   0  0  0  0  0  0  0  0  0  0  0  0
   -1.0491  -39.6318    8.0422 C   0  0  0  0  0  0  0  0  0  0  0  0
   -2.2158  -39.2925    7.3729 C   0  0  0  0  0  0  0  0  0  0  0  0
   -3.1797  -38.4902    7.9678 C   0  0  0  0  0  0  0  0  0  0  0  0
   -0.8510  -39.1181    9.3228 C   0  0  0  0  0  0  0  0  0  0  0  0
    0.4020  -40.1550    6.2190 N   0  0  0  0  0  0  0  0  0  0  0  0
    0.5863  -44.1665    7.9745 C   0  0  0  0  0  0  0  0  0  0  0  0
    3.0643  -42.4414    5.6334 O   0  0  0  0  0  0  0  0  0  0  0  0
    2.2624  -41.7424    6.2593 C   0  0  0  0  0  0  0  0  0  0  0  0
    1.3979  -40.8858    5.6144 N   0  0  0  0  0  0  0  0  0  0  0  0
    2.1168  -41.7786    7.7526 C   0  0  0  0  0  0  0  0  0  0  0  0
    0.6147  -41.6379    8.1297 C   0  0  0  0  0  0  0  0  0  0  0  0
   -0.1553  -42.9100    7.7017 C   0  0  0  0  0  0  0  0  0  0  0  0
    1.8365  -44.1943    8.3941 C   0  0  0  0  0  0  0  0  0  0  0  0
    2.7420  -43.0063    8.4246 C   0  0  0  0  0  0  0  0  0  0  0  0
    0.0291  -40.4408    7.4148 C   0  0  0  0  0  0  0  0  0  0  0  0
    0.2106  -40.5000    3.4799 C   0  0  0  0  0  0  0  0  0  0  0  0
    1.5627  -40.6347    4.1705 C   0  0  0  0  0  0  0  0  0  0  0  0
    2.5297  -39.4714    3.9936 C   0  0  0  0  0  0  0  0  0  0  0  0
    3.0031  -39.2295    2.5624 C   0  0  0  0  0  0  0  0  0  0  0  0
    2.1109  -38.3062    1.7453 C   0  0  0  0  0  0  0  0  0  0  0  0
    0.6338  -38.5588    1.8834 C   0  0  0  0  0  0  0  0  0  0  0  0
    0.2631  -40.0284    2.0265 C   0  0  0  0  0  0  0  0  0  0  0  0
   -3.8866  -37.2414    9.9536 O   0  0  0  0  0  0  0  0  0  0  0  0
   -5.0612  -37.8296   10.5048 C   0  0  0  0  0  0  0  0  0  0  0  0
   -1.7029  -37.8399   11.2019 O   0  0  0  0  0  0  0  0  0  0  0  0
   -0.5397  -37.0564   11.5252 C   0  0  0  0  0  0  0  0  0  0  0  0
   -0.6347  -35.7514   10.7713 C   0  0  0  0  0  0  0  0  0  0  0  0
    0.6671  -35.2567   10.1808 C   0  0  0  0  0  0  0  0  0  0  0  0
    0.6096  -35.0087    8.6945 C   0  0  0  0  0  0  0  0  0  0  0  0
   -0.3690  -35.8981    8.1374 O   0  0  0  0  0  0  0  0  0  0  0  0
   -0.7024  -35.8044    6.8110 C   0  0  0  0  0  0  0  0  0  0  0  0
   -1.9136  -35.3474    6.3106 C   0  0  0  0  0  0  0  0  0  0  0  0
   -1.1135  -35.6804    4.0640 C   0  0  0  0  0  0  0  0  0  0  0  0
    0.2848  -36.2169    5.9371 C   0  0  0  0  0  0  0  0  0  0  0  0
    0.0944  -36.1335    4.5755 C   0  0  0  0  0  0  0  0  0  0  0  0
   -2.1109  -35.2835    4.9444 C   0  0  0  0  0  0  0  0  0  0  0  0
   -2.2370  -35.7253    0.6573 N   0  0  0  0  0  0  0  0  0  0  0  0
   -1.0100  -35.3432    0.5173 N   0  0  0  0  0  0  0  0  0  0  0  0
   -0.4021  -35.2406    1.7276 N   0  0  0  0  0  0  0  0  0  0  0  0
   -1.3198  -35.5823    2.6234 C   0  0  0  0  0  0  0  0  0  0  0  0
   -2.4442  -35.8916    1.9722 N   0  0  0  0  0  0  0  0  0  0  0  0
    0.5275  -34.9688    1.9041 H   0  0  0  0  0  0  0  0  0  0  0  0
 23 24  1  0  0  0
 23 22  1  0  0  0
 24 18  1  0  0  0
 22 21  1  0  0  0
 18 19  1  0  0  0
 39 40  2  0  0  0
 39 43  1  0  0  0
 40 41  1  0  0  0
 41 42  1  0  0  0
 43 42  2  0  0  0
  9 10  2  0  0  0
 19 20  1  0  0  0
 19 11  1  0  0  0
 21 20  1  0  0  0
 42 35  1  0  0  0
 10 11  1  0  0  0
 10 12  1  0  0  0
 35 38  2  0  0  0
 35 37  1  0  0  0
 38 34  1  0  0  0
 11  7  1  0  0  0
 37 36  2  0  0  0
 34 33  2  0  0  0
 36 33  1  0  0  0
 12 16  1  0  0  0
 12 13  1  0  0  0
 16 15  1  0  0  0
 33 32  1  0  0  0
  7 17  2  0  0  0
 32 31  1  0  0  0
 31 30  1  0  0  0
 30 29  1  0  0  0
 15  8  2  0  0  0
 17 13  1  0  0  0
 17  3  1  0  0  0
 13 14  1  0  0  0
  8 14  1  0  0  0
 28 29  1  0  0  0
 28 27  1  0  0  0
  6  3  2  0  0  0
  6  2  1  0  0  0
  3  4  1  0  0  0
 27  2  1  0  0  0
  2  1  2  0  0  0
  4  5  2  0  0  0
  1  5  1  0  0  0
  1 25  1  0  0  0
 25 26  1  0  0  0
 41 44  1  0  0  0
M  END
> <minimizedAffinity>
-9.53293

$$$$
5LAQ_6M5_A_1005


 44 49  0  0  0  0  0  0  0  0999 V2000
   -2.7679  -37.5301    9.7137 C   0  0  0  0  0  0  0  0  0  0  0  0
   -3.4076  -37.8597    8.5075 C   0  0  0  0  0  0  0  0  0  0  0  0
   -1.2898  -38.4843    7.5254 C   0  0  0  0  0  0  0  0  0  0  0  0
   -0.6712  -38.1573    8.7233 C   0  0  0  0  0  0  0  0  0  0  0  0
   -1.4028  -37.6957    9.8087 C   0  0  0  0  0  0  0  0  0  0  0  0
   -2.6767  -38.3685    7.4469 C   0  0  0  0  0  0  0  0  0  0  0  0
    0.1822  -40.0809    6.5316 N   0  0  0  0  0  0  0  0  0  0  0  0
    0.9841  -36.9660    3.5546 C   0  0  0  0  0  0  0  0  0  0  0  0
    1.4084  -40.7516    3.2598 O   0  0  0  0  0  0  0  0  0  0  0  0
    0.6719  -40.3097    4.1461 C   0  0  0  0  0  0  0  0  0  0  0  0
    0.8810  -40.6129    5.4733 N   0  0  0  0  0  0  0  0  0  0  0  0
   -0.4796  -39.3831    3.8851 C   0  0  0  0  0  0  0  0  0  0  0  0
   -0.5644  -38.3290    5.0254 C   0  0  0  0  0  0  0  0  0  0  0  0
    0.6455  -37.3680    4.9428 C   0  0  0  0  0  0  0  0  0  0  0  0
    0.4150  -37.4930    2.4877 C   0  0  0  0  0  0  0  0  0  0  0  0
   -0.4550  -38.7074    2.5095 C   0  0  0  0  0  0  0  0  0  0  0  0
   -0.5451  -39.0353    6.3624 C   0  0  0  0  0  0  0  0  0  0  0  0
    3.2904  -41.1090    5.7251 C   0  0  0  0  0  0  0  0  0  0  0  0
    1.8684  -41.6459    5.8380 C   0  0  0  0  0  0  0  0  0  0  0  0
    1.4733  -42.2315    7.1874 C   0  0  0  0  0  0  0  0  0  0  0  0
    2.2458  -43.4797    7.6074 C   0  0  0  0  0  0  0  0  0  0  0  0
    3.5345  -43.2034    8.3683 C   0  0  0  0  0  0  0  0  0  0  0  0
    4.3861  -42.0992    7.8024 C   0  0  0  0  0  0  0  0  0  0  0  0
    4.3810  -42.0246    6.2819 C   0  0  0  0  0  0  0  0  0  0  0  0
   -3.5967  -37.0730   10.7042 O   0  0  0  0  0  0  0  0  0  0  0  0
   -3.2576  -35.8776   11.4010 C   0  0  0  0  0  0  0  0  0  0  0  0
   -4.7672  -37.7079    8.4881 O   0  0  0  0  0  0  0  0  0  0  0  0
   -5.3357  -36.5353    7.8772 C   0  0  0  0  0  0  0  0  0  0  0  0
   -5.9612  -36.9512    6.5672 C   0  0  0  0  0  0  0  0  0  0  0  0
   -5.5971  -36.0866    5.3806 C   0  0  0  0  0  0  0  0  0  0  0  0
   -4.2491  -36.4032    4.7834 C   0  0  0  0  0  0  0  0  0  0  0  0
   -3.6495  -35.1668    4.3700 O   0  0  0  0  0  0  0  0  0  0  0  0
   -2.4461  -34.7791    4.8997 C   0  0  0  0  0  0  0  0  0  0  0  0
   -1.4781  -34.0282    4.2473 C   0  0  0  0  0  0  0  0  0  0  0  0
   -0.0957  -34.0945    6.2178 C   0  0  0  0  0  0  0  0  0  0  0  0
   -2.2233  -35.2010    6.1962 C   0  0  0  0  0  0  0  0  0  0  0  0
   -1.0714  -34.8428    6.8611 C   0  0  0  0  0  0  0  0  0  0  0  0
   -0.3138  -33.6869    4.9087 C   0  0  0  0  0  0  0  0  0  0  0  0
    3.1750  -33.0976    7.3036 N   0  0  0  0  0  0  0  0  0  0  0  0
    2.5982  -33.3556    8.4314 N   0  0  0  0  0  0  0  0  0  0  0  0
    1.3105  -33.7384    8.2312 N   0  0  0  0  0  0  0  0  0  0  0  0
    1.1234  -33.7051    6.9178 C   0  0  0  0  0  0  0  0  0  0  0  0
    2.2668  -33.3237    6.3426 N   0  0  0  0  0  0  0  0  0  0  0  0
    0.6518  -33.9889    8.9187 H   0  0  0  0  0  0  0  0  0  0  0  0
 23 24  1  0  0  0
 23 22  1  0  0  0
 24 18  1  0  0  0
 22 21  1  0  0  0
 18 19  1  0  0  0
 39 40  2  0  0  0
 39 43  1  0  0  0
 40 41  1  0  0  0
 41 42  1  0  0  0
 43 42  2  0  0  0
  9 10  2  0  0  0
 19 20  1  0  0  0
 19 11  1  0  0  0
 21 20  1  0  0  0
 42 35  1  0  0  0
 10 11  1  0  0  0
 10 12  1  0  0  0
 35 38  2  0  0  0
 35 37  1  0  0  0
 38 34  1  0  0  0
 11  7  1  0  0  0
 37 36  2  0  0  0
 34 33  2  0  0  0
 36 33  1  0  0  0
 12 16  1  0  0  0
 12 13  1  0  0  0
 16 15  1  0  0  0
 33 32  1  0  0  0
  7 17  2  0  0  0
 32 31  1  0  0  0
 31 30  1  0  0  0
 30 29  1  0  0  0
 15  8  2  0  0  0
 17 13  1  0  0  0
 17  3  1  0  0  0
 13 14  1  0  0  0
  8 14  1  0  0  0
 28 29  1  0  0  0
 28 27  1  0  0  0
  6  3  2  0  0  0
  6  2  1  0  0  0
  3  4  1  0  0  0
 27  2  1  0  0  0
  2  1  2  0  0  0
  4  5  2  0  0  0
  1  5  1  0  0  0
  1 25  1  0  0  0
 25 26  1  0  0  0
 41 44  1  0  0  0
M  END
> <minimizedAffinity>
-9.29818

$$$$
5LAQ_6M5_A_1005


 44 49  0  0  0  0  0  0  0  0999 V2000
    3.0491  -42.8234    6.6057 C   0  0  0  0  0  0  0  0  0  0  0  0
    1.7531  -42.3394    6.8480 C   0  0  0  0  0  0  0  0  0  0  0  0
    2.0619  -40.6088    5.1898 C   0  0  0  0  0  0  0  0  0  0  0  0
    3.3390  -41.0988    4.9589 C   0  0  0  0  0  0  0  0  0  0  0  0
    3.8236  -42.2000    5.6510 C   0  0  0  0  0  0  0  0  0  0  0  0
    1.2591  -41.2725    6.1161 C   0  0  0  0  0  0  0  0  0  0  0  0
    0.7649  -38.6085    5.0477 N   0  0  0  0  0  0  0  0  0  0  0  0
    0.3193  -39.6159    0.8057 C   0  0  0  0  0  0  0  0  0  0  0  0
    0.0032  -36.2185    2.5246 O   0  0  0  0  0  0  0  0  0  0  0  0
    0.6057  -37.1211    3.1125 C   0  0  0  0  0  0  0  0  0  0  0  0
    0.2245  -37.5426    4.3671 N   0  0  0  0  0  0  0  0  0  0  0  0
    1.7659  -37.8681    2.5221 C   0  0  0  0  0  0  0  0  0  0  0  0
    1.6780  -39.3664    2.9295 C   0  0  0  0  0  0  0  0  0  0  0  0
    0.4742  -40.0329    2.2218 C   0  0  0  0  0  0  0  0  0  0  0  0
    1.0361  -38.6589    0.2489 C   0  0  0  0  0  0  0  0  0  0  0  0
    1.9158  -37.7166    1.0041 C   0  0  0  0  0  0  0  0  0  0  0  0
    1.4904  -39.4679    4.4266 C   0  0  0  0  0  0  0  0  0  0  0  0
   -2.1899  -37.2967    4.8412 C   0  0  0  0  0  0  0  0  0  0  0  0
   -0.7853  -36.7740    5.1186 C   0  0  0  0  0  0  0  0  0  0  0  0
   -0.3600  -36.7245    6.5802 C   0  0  0  0  0  0  0  0  0  0  0  0
   -1.1611  -35.7676    7.4599 C   0  0  0  0  0  0  0  0  0  0  0  0
   -2.4083  -36.3738    8.0867 C   0  0  0  0  0  0  0  0  0  0  0  0
   -3.2401  -37.2216    7.1623 C   0  0  0  0  0  0  0  0  0  0  0  0
   -3.2911  -36.7145    5.7278 C   0  0  0  0  0  0  0  0  0  0  0  0
    3.4154  -43.9057    7.3618 O   0  0  0  0  0  0  0  0  0  0  0  0
    4.0821  -43.6957    8.6032 C   0  0  0  0  0  0  0  0  0  0  0  0
    1.0217  -43.0228    7.7806 O   0  0  0  0  0  0  0  0  0  0  0  0
   -0.3921  -43.1979    7.5759 C   0  0  0  0  0  0  0  0  0  0  0  0
   -1.1001  -42.7775    8.8417 C   0  0  0  0  0  0  0  0  0  0  0  0
   -0.3560  -41.7669    9.6863 C   0  0  0  0  0  0  0  0  0  0  0  0
   -0.6443  -40.3328    9.3202 C   0  0  0  0  0  0  0  0  0  0  0  0
   -1.9327  -39.9930    9.8527 O   0  0  0  0  0  0  0  0  0  0  0  0
   -2.0865  -38.8519   10.5966 C   0  0  0  0  0  0  0  0  0  0  0  0
   -1.0587  -38.1025   11.1521 C   0  0  0  0  0  0  0  0  0  0  0  0
   -2.6692  -36.5478   12.0395 C   0  0  0  0  0  0  0  0  0  0  0  0
   -3.3970  -38.4578   10.7850 C   0  0  0  0  0  0  0  0  0  0  0  0
   -3.6885  -37.3035   11.4777 C   0  0  0  0  0  0  0  0  0  0  0  0
   -1.3537  -36.9557   11.8644 C   0  0  0  0  0  0  0  0  0  0  0  0
   -2.9196  -33.2492   13.4275 N   0  0  0  0  0  0  0  0  0  0  0  0
   -3.6929  -33.9191   14.2178 N   0  0  0  0  0  0  0  0  0  0  0  0
   -3.7510  -35.2213   13.8362 N   0  0  0  0  0  0  0  0  0  0  0  0
   -2.9696  -35.3204   12.7681 C   0  0  0  0  0  0  0  0  0  0  0  0
   -2.4479  -34.1164   12.5192 N   0  0  0  0  0  0  0  0  0  0  0  0
   -4.2665  -35.9429   14.2638 H   0  0  0  0  0  0  0  0  0  0  0  0
 23 24  1  0  0  0
 23 22  1  0  0  0
 24 18  1  0  0  0
 22 21  1  0  0  0
 18 19  1  0  0  0
 39 40  2  0  0  0
 39 43  1  0  0  0
 40 41  1  0  0  0
 41 42  1  0  0  0
 43 42  2  0  0  0
  9 10  2  0  0  0
 19 20  1  0  0  0
 19 11  1  0  0  0
 21 20  1  0  0  0
 42 35  1  0  0  0
 10 11  1  0  0  0
 10 12  1  0  0  0
 35 38  2  0  0  0
 35 37  1  0  0  0
 38 34  1  0  0  0
 11  7  1  0  0  0
 37 36  2  0  0  0
 34 33  2  0  0  0
 36 33  1  0  0  0
 12 16  1  0  0  0
 12 13  1  0  0  0
 16 15  1  0  0  0
 33 32  1  0  0  0
  7 17  2  0  0  0
 32 31  1  0  0  0
 31 30  1  0  0  0
 30 29  1  0  0  0
 15  8  2  0  0  0
 17 13  1  0  0  0
 17  3  1  0  0  0
 13 14  1  0  0  0
  8 14  1  0  0  0
 28 29  1  0  0  0
 28 27  1  0  0  0
  6  3  2  0  0  0
  6  2  1  0  0  0
  3  4  1  0  0  0
 27  2  1  0  0  0
  2  1  2  0  0  0
  4  5  2  0  0  0
  1  5  1  0  0  0
  1 25  1  0  0  0
 25 26  1  0  0  0
 41 44  1  0  0  0
M  END
> <minimizedAffinity>
-9.23375

$$$$
