3ZZE_6XP_A_2345


 29 31  0  0  0  0  0  0  0  0999 V2000
   19.8716   10.4949    5.4392 N   0  0  0  0  0  0  0  0  0  0  0  0
   18.8543   10.4316    5.4777 H   0  0  0  0  0  0  0  0  0  0  0  0
   21.1463   14.6685    1.0205 C   0  0  0  0  0  0  0  0  0  0  0  0
   20.8728   13.6065    3.8629 N   0  0  0  0  0  0  0  0  0  0  0  0
   20.7933   13.1667    6.1468 O   0  0  0  0  0  0  0  0  0  0  0  0
   19.2704    8.9414    2.4230 Cl  0  0  0  0  0  0  0  0  0  0  0  0
   20.3413   12.3198    0.3947 C   0  0  0  0  0  0  0  0  0  0  0  0
   19.8912   10.9429    0.7635 C   0  0  0  0  0  0  0  0  0  0  0  0
   20.1405   11.4910    3.1724 C   0  0  0  0  0  0  0  0  0  0  0  0
   20.6885   13.2757    1.3459 C   0  0  0  0  0  0  0  0  0  0  0  0
   20.1723   11.4712    4.5164 C   0  0  0  0  0  0  0  0  0  0  0  0
   19.7941   10.5456    2.0837 C   0  0  0  0  0  0  0  0  0  0  0  0
   20.5966   12.8774    2.8312 C   0  0  0  0  0  0  0  0  0  0  0  0
   20.6438   12.8295    4.9653 C   0  0  0  0  0  0  0  0  0  0  0  0
   21.1868   14.5396    3.8563 H   0  0  0  0  0  0  0  0  0  0  0  0
   20.0915    9.5499    7.6267 C   0  0  0  0  0  0  0  0  0  0  0  0
   20.3231   10.6111    6.7780 N   0  0  0  0  0  0  0  0  0  0  0  0
   20.2837    9.6710    8.8406 O   0  0  0  0  0  0  0  0  0  0  0  0
   20.7860   11.4218    7.0907 H   0  0  0  0  0  0  0  0  0  0  0  0
   19.9227    7.0686    8.0015 C   0  0  0  0  0  0  0  0  0  0  0  0
   19.5741    8.2209    7.0411 C   0  0  0  0  0  0  0  0  0  0  0  0
   17.0966    8.3143    7.8556 C   0  0  0  0  0  0  0  0  0  0  0  0
   17.5316    8.0781    5.4224 C   0  0  0  0  0  0  0  0  0  0  0  0
   15.6705    8.3013    7.5900 C   0  0  0  0  0  0  0  0  0  0  0  0
   16.1265    8.0652    5.1553 C   0  0  0  0  0  0  0  0  0  0  0  0
   13.8653    8.1655    5.9911 O   0  0  0  0  0  0  0  0  0  0  0  0
   18.0557    8.1999    6.7646 C   0  0  0  0  0  0  0  0  0  0  0  0
   15.2058    8.1766    6.2368 C   0  0  0  0  0  0  0  0  0  0  0  0
   13.2583    8.2387    6.7011 H   0  0  0  0  0  0  0  0  0  0  0  0
 20 21  1  0  0  0
 22 24  1  0  0  0
 22 27  2  0  0  0
 23 25  2  0  0  0
 23 27  1  0  0  0
 24 28  2  0  0  0
 25 28  1  0  0  0
 16 21  1  0  0  0
 16 17  1  0  0  0
 16 18  2  0  0  0
  3 10  1  0  0  0
 21 27  1  0  0  0
  4 13  1  0  0  0
  4 14  1  0  0  0
  1 17  1  0  0  0
  1 11  1  0  0  0
  5 14  2  0  0  0
 26 28  1  0  0  0
  6 12  1  0  0  0
  7  8  1  0  0  0
  7 10  2  0  0  0
  8 12  2  0  0  0
  9 11  1  0  0  0
  9 12  1  0  0  0
  9 13  2  0  0  0
 10 13  1  0  0  0
 11 14  1  0  0  0
  4 15  1  0  0  0
  1  2  1  0  0  0
 17 19  1  0  0  0
 26 29  1  0  0  0
M  END
> <minimizedAffinity>
-10.69034

$$$$
3ZZE_6XP_A_2345


 29 31  0  0  0  0  0  0  0  0999 V2000
   19.5398   11.4650    2.8544 N   0  0  0  0  0  0  0  0  0  0  0  0
   19.5101   12.3591    3.3445 H   0  0  0  0  0  0  0  0  0  0  0  0
   19.5121    7.2787    7.4417 C   0  0  0  0  0  0  0  0  0  0  0  0
   19.1360    8.3088    4.5993 N   0  0  0  0  0  0  0  0  0  0  0  0
   18.7343    8.7122    2.3428 O   0  0  0  0  0  0  0  0  0  0  0  0
   20.5987   13.1126    5.6893 Cl  0  0  0  0  0  0  0  0  0  0  0  0
   20.2254    9.6959    7.8941 C   0  0  0  0  0  0  0  0  0  0  0  0
   20.4796   11.0978    7.4419 C   0  0  0  0  0  0  0  0  0  0  0  0
   19.8039   10.4904    5.1311 C   0  0  0  0  0  0  0  0  0  0  0  0
   19.7789    8.6985    7.0310 C   0  0  0  0  0  0  0  0  0  0  0  0
   19.5080   10.4839    3.8196 C   0  0  0  0  0  0  0  0  0  0  0  0
   20.2797   11.4792    6.1286 C   0  0  0  0  0  0  0  0  0  0  0  0
   19.5430    9.0770    5.5566 C   0  0  0  0  0  0  0  0  0  0  0  0
   19.0787    9.0824    3.4725 C   0  0  0  0  0  0  0  0  0  0  0  0
   18.9110    7.3528    4.6680 H   0  0  0  0  0  0  0  0  0  0  0  0
   18.9085   11.9549    0.5988 C   0  0  0  0  0  0  0  0  0  0  0  0
   18.5384   11.5167    1.8522 N   0  0  0  0  0  0  0  0  0  0  0  0
   18.0485   12.2060   -0.2513 O   0  0  0  0  0  0  0  0  0  0  0  0
   17.6108   11.2490    2.0449 H   0  0  0  0  0  0  0  0  0  0  0  0
   20.7755   11.3055   -0.9562 C   0  0  0  0  0  0  0  0  0  0  0  0
   20.4056   12.1428    0.2822 C   0  0  0  0  0  0  0  0  0  0  0  0
   21.0657   14.1002   -1.3124 C   0  0  0  0  0  0  0  0  0  0  0  0
   20.9723   14.5459    1.1284 C   0  0  0  0  0  0  0  0  0  0  0  0
   21.4493   15.4809   -1.5380 C   0  0  0  0  0  0  0  0  0  0  0  0
   21.3499   15.9083    0.9112 C   0  0  0  0  0  0  0  0  0  0  0  0
   21.9455   17.6643   -0.6325 O   0  0  0  0  0  0  0  0  0  0  0  0
   20.8215   13.6089    0.0374 C   0  0  0  0  0  0  0  0  0  0  0  0
   21.5858   16.3677   -0.4166 C   0  0  0  0  0  0  0  0  0  0  0  0
   22.1011   17.9683   -1.5051 H   0  0  0  0  0  0  0  0  0  0  0  0
 20 21  1  0  0  0
 22 24  1  0  0  0
 22 27  2  0  0  0
 23 25  2  0  0  0
 23 27  1  0  0  0
 24 28  2  0  0  0
 25 28  1  0  0  0
 16 21  1  0  0  0
 16 17  1  0  0  0
 16 18  2  0  0  0
  3 10  1  0  0  0
 21 27  1  0  0  0
  4 13  1  0  0  0
  4 14  1  0  0  0
  1 17  1  0  0  0
  1 11  1  0  0  0
  5 14  2  0  0  0
 26 28  1  0  0  0
  6 12  1  0  0  0
  7  8  1  0  0  0
  7 10  2  0  0  0
  8 12  2  0  0  0
  9 11  1  0  0  0
  9 12  1  0  0  0
  9 13  2  0  0  0
 10 13  1  0  0  0
 11 14  1  0  0  0
  4 15  1  0  0  0
  1  2  1  0  0  0
 17 19  1  0  0  0
 26 29  1  0  0  0
M  END
> <minimizedAffinity>
-9.19421

$$$$
3ZZE_6XP_A_2345


 29 31  0  0  0  0  0  0  0  0999 V2000
   20.1007   13.2782    3.3262 N   0  0  0  0  0  0  0  0  0  0  0  0
   19.9175   12.9096    2.3930 H   0  0  0  0  0  0  0  0  0  0  0  0
   19.2979    8.3593    7.0314 C   0  0  0  0  0  0  0  0  0  0  0  0
   20.3424   11.1044    6.2220 N   0  0  0  0  0  0  0  0  0  0  0  0
   21.3155   13.2037    5.9734 O   0  0  0  0  0  0  0  0  0  0  0  0
   18.1127   11.0613    1.5927 Cl  0  0  0  0  0  0  0  0  0  0  0  0
   18.2246    8.4234    4.7076 C   0  0  0  0  0  0  0  0  0  0  0  0
   17.9551    9.1005    3.4025 C   0  0  0  0  0  0  0  0  0  0  0  0
   19.3160   11.0506    4.1168 C   0  0  0  0  0  0  0  0  0  0  0  0
   19.0028    9.0024    5.7067 C   0  0  0  0  0  0  0  0  0  0  0  0
   19.9676   12.2236    4.2010 C   0  0  0  0  0  0  0  0  0  0  0  0
   18.4730   10.3499    3.1180 C   0  0  0  0  0  0  0  0  0  0  0  0
   19.6007   10.3958    5.4346 C   0  0  0  0  0  0  0  0  0  0  0  0
   20.6287   12.2634    5.5539 C   0  0  0  0  0  0  0  0  0  0  0  0
   20.6428   10.8577    7.1265 H   0  0  0  0  0  0  0  0  0  0  0  0
   21.7316   14.4286    2.0059 C   0  0  0  0  0  0  0  0  0  0  0  0
   21.3215   13.9947    3.2483 N   0  0  0  0  0  0  0  0  0  0  0  0
   22.8703   14.8805    1.8496 O   0  0  0  0  0  0  0  0  0  0  0  0
   21.8579   14.1760    4.0537 H   0  0  0  0  0  0  0  0  0  0  0  0
   20.8350   15.6133   -0.0235 C   0  0  0  0  0  0  0  0  0  0  0  0
   20.7566   14.3247    0.8162 C   0  0  0  0  0  0  0  0  0  0  0  0
   21.1772   13.2868   -1.5409 C   0  0  0  0  0  0  0  0  0  0  0  0
   21.0971   11.7673    0.4212 C   0  0  0  0  0  0  0  0  0  0  0  0
   21.4209   12.1443   -2.4009 C   0  0  0  0  0  0  0  0  0  0  0  0
   21.3376   10.6376   -0.4225 C   0  0  0  0  0  0  0  0  0  0  0  0
   21.7279    9.7601   -2.6359 O   0  0  0  0  0  0  0  0  0  0  0  0
   21.0085   13.1115   -0.1043 C   0  0  0  0  0  0  0  0  0  0  0  0
   21.4979   10.8310   -1.8249 C   0  0  0  0  0  0  0  0  0  0  0  0
   21.8336    9.8853   -3.5585 H   0  0  0  0  0  0  0  0  0  0  0  0
 20 21  1  0  0  0
 22 24  1  0  0  0
 22 27  2  0  0  0
 23 25  2  0  0  0
 23 27  1  0  0  0
 24 28  2  0  0  0
 25 28  1  0  0  0
 16 21  1  0  0  0
 16 17  1  0  0  0
 16 18  2  0  0  0
  3 10  1  0  0  0
 21 27  1  0  0  0
  4 13  1  0  0  0
  4 14  1  0  0  0
  1 17  1  0  0  0
  1 11  1  0  0  0
  5 14  2  0  0  0
 26 28  1  0  0  0
  6 12  1  0  0  0
  7  8  1  0  0  0
  7 10  2  0  0  0
  8 12  2  0  0  0
  9 11  1  0  0  0
  9 12  1  0  0  0
  9 13  2  0  0  0
 10 13  1  0  0  0
 11 14  1  0  0  0
  4 15  1  0  0  0
  1  2  1  0  0  0
 17 19  1  0  0  0
 26 29  1  0  0  0
M  END
> <minimizedAffinity>
-9.02635

$$$$
3ZZE_6XP_A_2345


 29 31  0  0  0  0  0  0  0  0999 V2000
   20.1478   10.5213    3.9494 N   0  0  0  0  0  0  0  0  0  0  0  0
   19.5341    9.8182    4.3608 H   0  0  0  0  0  0  0  0  0  0  0  0
   18.2611   11.8265   -1.8218 C   0  0  0  0  0  0  0  0  0  0  0  0
   18.5474   10.1599    0.7125 N   0  0  0  0  0  0  0  0  0  0  0  0
   18.5401    8.6103    2.4488 O   0  0  0  0  0  0  0  0  0  0  0  0
   21.3650   13.6583    3.2077 Cl  0  0  0  0  0  0  0  0  0  0  0  0
   19.6697   13.5105   -0.5042 C   0  0  0  0  0  0  0  0  0  0  0  0
   20.4124   13.9263    0.7246 C   0  0  0  0  0  0  0  0  0  0  0  0
   19.8338   11.7745    1.8200 C   0  0  0  0  0  0  0  0  0  0  0  0
   19.0189   12.2839   -0.6085 C   0  0  0  0  0  0  0  0  0  0  0  0
   19.6947   10.7404    2.6680 C   0  0  0  0  0  0  0  0  0  0  0  0
   20.4928   13.1029    1.8317 C   0  0  0  0  0  0  0  0  0  0  0  0
   19.0805   11.3328    0.6017 C   0  0  0  0  0  0  0  0  0  0  0  0
   18.8671    9.6996    1.9604 C   0  0  0  0  0  0  0  0  0  0  0  0
   18.0149    9.6895    0.0310 H   0  0  0  0  0  0  0  0  0  0  0  0
   19.9364   11.3152    6.1969 C   0  0  0  0  0  0  0  0  0  0  0  0
   20.2199   11.5913    4.8765 N   0  0  0  0  0  0  0  0  0  0  0  0
   19.7919   12.2356    7.0076 O   0  0  0  0  0  0  0  0  0  0  0  0
   20.4639   12.5002    4.5873 H   0  0  0  0  0  0  0  0  0  0  0  0
   20.4826    9.6476    7.9987 C   0  0  0  0  0  0  0  0  0  0  0  0
   19.7857    9.8462    6.6398 C   0  0  0  0  0  0  0  0  0  0  0  0
   17.5448    9.6206    7.9579 C   0  0  0  0  0  0  0  0  0  0  0  0
   17.6714    8.6616    5.6711 C   0  0  0  0  0  0  0  0  0  0  0  0
   16.1682    9.1738    8.0564 C   0  0  0  0  0  0  0  0  0  0  0  0
   16.3142    8.2194    5.7631 C   0  0  0  0  0  0  0  0  0  0  0  0
   14.2778    8.0594    7.0473 O   0  0  0  0  0  0  0  0  0  0  0  0
   18.3231    9.3662    6.7527 C   0  0  0  0  0  0  0  0  0  0  0  0
   15.5716    8.4768    6.9514 C   0  0  0  0  0  0  0  0  0  0  0  0
   13.7878    8.2278    7.8280 H   0  0  0  0  0  0  0  0  0  0  0  0
 20 21  1  0  0  0
 22 24  1  0  0  0
 22 27  2  0  0  0
 23 25  2  0  0  0
 23 27  1  0  0  0
 24 28  2  0  0  0
 25 28  1  0  0  0
 16 21  1  0  0  0
 16 17  1  0  0  0
 16 18  2  0  0  0
  3 10  1  0  0  0
 21 27  1  0  0  0
  4 13  1  0  0  0
  4 14  1  0  0  0
  1 17  1  0  0  0
  1 11  1  0  0  0
  5 14  2  0  0  0
 26 28  1  0  0  0
  6 12  1  0  0  0
  7  8  1  0  0  0
  7 10  2  0  0  0
  8 12  2  0  0  0
  9 11  1  0  0  0
  9 12  1  0  0  0
  9 13  2  0  0  0
 10 13  1  0  0  0
 11 14  1  0  0  0
  4 15  1  0  0  0
  1  2  1  0  0  0
 17 19  1  0  0  0
 26 29  1  0  0  0
M  END
> <minimizedAffinity>
-8.89260

$$$$
3ZZE_6XP_A_2345


 29 31  0  0  0  0  0  0  0  0999 V2000
   20.1670   12.1632    3.4315 N   0  0  0  0  0  0  0  0  0  0  0  0
   20.3692   13.1542    3.5629 H   0  0  0  0  0  0  0  0  0  0  0  0
   19.9626    9.2961    8.9367 C   0  0  0  0  0  0  0  0  0  0  0  0
   20.4306   11.6076    7.0080 N   0  0  0  0  0  0  0  0  0  0  0  0
   20.8915   13.5843    5.8695 O   0  0  0  0  0  0  0  0  0  0  0  0
   19.1052    8.9430    2.8191 Cl  0  0  0  0  0  0  0  0  0  0  0  0
   19.3204    8.0454    6.7968 C   0  0  0  0  0  0  0  0  0  0  0  0
   19.1219    7.9896    5.3163 C   0  0  0  0  0  0  0  0  0  0  0  0
   19.8243   10.3629    5.1182 C   0  0  0  0  0  0  0  0  0  0  0  0
   19.7513    9.1954    7.4533 C   0  0  0  0  0  0  0  0  0  0  0  0
   20.1466   11.5942    4.6849 C   0  0  0  0  0  0  0  0  0  0  0  0
   19.3611    9.0899    4.5148 C   0  0  0  0  0  0  0  0  0  0  0  0
   20.0297   10.4477    6.6005 C   0  0  0  0  0  0  0  0  0  0  0  0
   20.5364   12.3990    5.8971 C   0  0  0  0  0  0  0  0  0  0  0  0
   20.6225   11.8702    7.9372 H   0  0  0  0  0  0  0  0  0  0  0  0
   19.2002   12.3547    1.2509 C   0  0  0  0  0  0  0  0  0  0  0  0
   19.0270   12.0883    2.5922 N   0  0  0  0  0  0  0  0  0  0  0  0
   18.2199   12.4966    0.5133 O   0  0  0  0  0  0  0  0  0  0  0  0
   18.1421   11.8541    2.9548 H   0  0  0  0  0  0  0  0  0  0  0  0
   20.8906   11.3642   -0.3263 C   0  0  0  0  0  0  0  0  0  0  0  0
   20.6308   12.4897    0.6922 C   0  0  0  0  0  0  0  0  0  0  0  0
   21.1075   13.9450   -1.4207 C   0  0  0  0  0  0  0  0  0  0  0  0
   21.0112   15.0700    0.7907 C   0  0  0  0  0  0  0  0  0  0  0  0
   21.3742   15.2258   -2.0476 C   0  0  0  0  0  0  0  0  0  0  0  0
   21.2736   16.3353    0.1774 C   0  0  0  0  0  0  0  0  0  0  0  0
   21.7031   17.6084   -1.8267 O   0  0  0  0  0  0  0  0  0  0  0  0
   20.9224   13.8488    0.0213 C   0  0  0  0  0  0  0  0  0  0  0  0
   21.4531   16.4068   -1.2341 C   0  0  0  0  0  0  0  0  0  0  0  0
   21.8215   17.6574   -2.7548 H   0  0  0  0  0  0  0  0  0  0  0  0
 20 21  1  0  0  0
 22 24  1  0  0  0
 22 27  2  0  0  0
 23 25  2  0  0  0
 23 27  1  0  0  0
 24 28  2  0  0  0
 25 28  1  0  0  0
 16 21  1  0  0  0
 16 17  1  0  0  0
 16 18  2  0  0  0
  3 10  1  0  0  0
 21 27  1  0  0  0
  4 13  1  0  0  0
  4 14  1  0  0  0
  1 17  1  0  0  0
  1 11  1  0  0  0
  5 14  2  0  0  0
 26 28  1  0  0  0
  6 12  1  0  0  0
  7  8  1  0  0  0
  7 10  2  0  0  0
  8 12  2  0  0  0
  9 11  1  0  0  0
  9 12  1  0  0  0
  9 13  2  0  0  0
 10 13  1  0  0  0
 11 14  1  0  0  0
  4 15  1  0  0  0
  1  2  1  0  0  0
 17 19  1  0  0  0
 26 29  1  0  0  0
M  END
> <minimizedAffinity>
-8.70513

$$$$
3ZZE_6XP_A_2345


 29 31  0  0  0  0  0  0  0  0999 V2000
   18.2113   10.0125    2.9974 N   0  0  0  0  0  0  0  0  0  0  0  0
   19.0295   10.1447    2.4029 H   0  0  0  0  0  0  0  0  0  0  0  0
   20.0236    9.4596    8.9117 C   0  0  0  0  0  0  0  0  0  0  0  0
   20.1219   10.4885    6.0458 N   0  0  0  0  0  0  0  0  0  0  0  0
   20.5226   11.4876    3.9825 O   0  0  0  0  0  0  0  0  0  0  0  0
   16.0155    7.8183    4.4929 Cl  0  0  0  0  0  0  0  0  0  0  0  0
   17.9889    8.1655    8.0509 C   0  0  0  0  0  0  0  0  0  0  0  0
   17.0356    7.7872    6.9634 C   0  0  0  0  0  0  0  0  0  0  0  0
   18.2490    9.2543    5.3695 C   0  0  0  0  0  0  0  0  0  0  0  0
   19.0442    9.0513    7.8490 C   0  0  0  0  0  0  0  0  0  0  0  0
   18.6715    9.9398    4.2928 C   0  0  0  0  0  0  0  0  0  0  0  0
   17.1567    8.3028    5.6868 C   0  0  0  0  0  0  0  0  0  0  0  0
   19.2181    9.6525    6.4414 C   0  0  0  0  0  0  0  0  0  0  0  0
   19.8756   10.7360    4.7231 C   0  0  0  0  0  0  0  0  0  0  0  0
   20.8466   10.8722    6.5906 H   0  0  0  0  0  0  0  0  0  0  0  0
   17.6586   11.9293    1.6759 C   0  0  0  0  0  0  0  0  0  0  0  0
   17.2727   11.0076    2.6254 N   0  0  0  0  0  0  0  0  0  0  0  0
   16.9630   12.9263    1.4582 O   0  0  0  0  0  0  0  0  0  0  0  0
   16.3763   11.0393    3.0313 H   0  0  0  0  0  0  0  0  0  0  0  0
   18.6723   11.0148   -0.4364 C   0  0  0  0  0  0  0  0  0  0  0  0
   18.9755   11.7058    0.9061 C   0  0  0  0  0  0  0  0  0  0  0  0
   19.9351   13.5058   -0.7215 C   0  0  0  0  0  0  0  0  0  0  0  0
   20.3858   13.7504    1.7080 C   0  0  0  0  0  0  0  0  0  0  0  0
   20.6829   14.7237   -0.9709 C   0  0  0  0  0  0  0  0  0  0  0  0
   21.1237   14.9519    1.4674 C   0  0  0  0  0  0  0  0  0  0  0  0
   21.9692   16.5753   -0.1046 O   0  0  0  0  0  0  0  0  0  0  0  0
   19.7766   12.9969    0.6346 C   0  0  0  0  0  0  0  0  0  0  0  0
   21.2681   15.4311    0.1335 C   0  0  0  0  0  0  0  0  0  0  0  0
   22.0653   16.8921   -0.9812 H   0  0  0  0  0  0  0  0  0  0  0  0
 20 21  1  0  0  0
 22 24  1  0  0  0
 22 27  2  0  0  0
 23 25  2  0  0  0
 23 27  1  0  0  0
 24 28  2  0  0  0
 25 28  1  0  0  0
 16 21  1  0  0  0
 16 17  1  0  0  0
 16 18  2  0  0  0
  3 10  1  0  0  0
 21 27  1  0  0  0
  4 13  1  0  0  0
  4 14  1  0  0  0
  1 17  1  0  0  0
  1 11  1  0  0  0
  5 14  2  0  0  0
 26 28  1  0  0  0
  6 12  1  0  0  0
  7  8  1  0  0  0
  7 10  2  0  0  0
  8 12  2  0  0  0
  9 11  1  0  0  0
  9 12  1  0  0  0
  9 13  2  0  0  0
 10 13  1  0  0  0
 11 14  1  0  0  0
  4 15  1  0  0  0
  1  2  1  0  0  0
 17 19  1  0  0  0
 26 29  1  0  0  0
M  END
> <minimizedAffinity>
-8.54960

$$$$
3ZZE_6XP_A_2345


 29 31  0  0  0  0  0  0  0  0999 V2000
   18.6950   10.5950    2.9283 N   0  0  0  0  0  0  0  0  0  0  0  0
   19.4596   11.2701    2.9328 H   0  0  0  0  0  0  0  0  0  0  0  0
   19.1256    7.8692    8.4920 C   0  0  0  0  0  0  0  0  0  0  0  0
   18.2396    8.1739    5.5929 N   0  0  0  0  0  0  0  0  0  0  0  0
   17.3734    8.0487    3.4366 O   0  0  0  0  0  0  0  0  0  0  0  0
   20.6481   12.6566    4.8797 Cl  0  0  0  0  0  0  0  0  0  0  0  0
   20.2925   10.1046    8.0475 C   0  0  0  0  0  0  0  0  0  0  0  0
   20.6442   11.2484    7.1517 C   0  0  0  0  0  0  0  0  0  0  0  0
   19.3458   10.2185    5.3028 C   0  0  0  0  0  0  0  0  0  0  0  0
   19.5021    9.0379    7.6272 C   0  0  0  0  0  0  0  0  0  0  0  0
   18.7451    9.9329    4.1343 C   0  0  0  0  0  0  0  0  0  0  0  0
   20.1952   11.3060    5.8458 C   0  0  0  0  0  0  0  0  0  0  0  0
   18.9794    9.0584    6.1783 C   0  0  0  0  0  0  0  0  0  0  0  0
   18.0331    8.6180    4.3156 C   0  0  0  0  0  0  0  0  0  0  0  0
   17.8925    7.3423    5.9895 H   0  0  0  0  0  0  0  0  0  0  0  0
   17.5716   12.0297    1.3773 C   0  0  0  0  0  0  0  0  0  0  0  0
   17.5279   11.3045    2.5487 N   0  0  0  0  0  0  0  0  0  0  0  0
   16.6620   12.8176    1.0993 O   0  0  0  0  0  0  0  0  0  0  0  0
   16.7143   11.2801    3.1025 H   0  0  0  0  0  0  0  0  0  0  0  0
   18.2751   11.4794   -0.9739 C   0  0  0  0  0  0  0  0  0  0  0  0
   18.7773   11.8556    0.4325 C   0  0  0  0  0  0  0  0  0  0  0  0
   20.2498   13.7177    1.5161 C   0  0  0  0  0  0  0  0  0  0  0  0
   20.0054   13.6941   -0.9547 C   0  0  0  0  0  0  0  0  0  0  0  0
   21.1049   14.8847    1.4086 C   0  0  0  0  0  0  0  0  0  0  0  0
   20.8483   14.8443   -1.0661 C   0  0  0  0  0  0  0  0  0  0  0  0
   22.1966   16.5278    0.0152 O   0  0  0  0  0  0  0  0  0  0  0  0
   19.6815   13.1019    0.3241 C   0  0  0  0  0  0  0  0  0  0  0  0
   21.3922   15.4320    0.1123 C   0  0  0  0  0  0  0  0  0  0  0  0
   22.5553   16.9158    0.7890 H   0  0  0  0  0  0  0  0  0  0  0  0
 20 21  1  0  0  0
 22 24  1  0  0  0
 22 27  2  0  0  0
 23 25  2  0  0  0
 23 27  1  0  0  0
 24 28  2  0  0  0
 25 28  1  0  0  0
 16 21  1  0  0  0
 16 17  1  0  0  0
 16 18  2  0  0  0
  3 10  1  0  0  0
 21 27  1  0  0  0
  4 13  1  0  0  0
  4 14  1  0  0  0
  1 17  1  0  0  0
  1 11  1  0  0  0
  5 14  2  0  0  0
 26 28  1  0  0  0
  6 12  1  0  0  0
  7  8  1  0  0  0
  7 10  2  0  0  0
  8 12  2  0  0  0
  9 11  1  0  0  0
  9 12  1  0  0  0
  9 13  2  0  0  0
 10 13  1  0  0  0
 11 14  1  0  0  0
  4 15  1  0  0  0
  1  2  1  0  0  0
 17 19  1  0  0  0
 26 29  1  0  0  0
M  END
> <minimizedAffinity>
-8.45676

$$$$
3ZZE_6XP_A_2345


 29 31  0  0  0  0  0  0  0  0999 V2000
   18.7464   11.4443    1.7783 N   0  0  0  0  0  0  0  0  0  0  0  0
   19.1903   11.6215    2.6794 H   0  0  0  0  0  0  0  0  0  0  0  0
   21.2713   15.7301   -1.9402 C   0  0  0  0  0  0  0  0  0  0  0  0
   19.4425   13.4115   -1.1908 N   0  0  0  0  0  0  0  0  0  0  0  0
   17.9201   11.6609   -1.0072 O   0  0  0  0  0  0  0  0  0  0  0  0
   21.0169   13.1883    3.6955 Cl  0  0  0  0  0  0  0  0  0  0  0  0
   21.9964   15.5460    0.5086 C   0  0  0  0  0  0  0  0  0  0  0  0
   21.9134   14.9124    1.8599 C   0  0  0  0  0  0  0  0  0  0  0  0
   20.1857   13.3340    1.0295 C   0  0  0  0  0  0  0  0  0  0  0  0
   21.2211   15.1223   -0.5678 C   0  0  0  0  0  0  0  0  0  0  0  0
   19.2611   12.3672    0.8958 C   0  0  0  0  0  0  0  0  0  0  0  0
   21.0536   13.8598    2.1110 C   0  0  0  0  0  0  0  0  0  0  0  0
   20.2469   13.9520   -0.3346 C   0  0  0  0  0  0  0  0  0  0  0  0
   18.7793   12.4136   -0.5306 C   0  0  0  0  0  0  0  0  0  0  0  0
   19.3294   13.6682   -2.1345 H   0  0  0  0  0  0  0  0  0  0  0  0
   18.5484    9.1834    2.5368 C   0  0  0  0  0  0  0  0  0  0  0  0
   18.8822   10.0564    1.5236 N   0  0  0  0  0  0  0  0  0  0  0  0
   18.8300    7.9846    2.4427 O   0  0  0  0  0  0  0  0  0  0  0  0
   19.2037    9.7274    0.6531 H   0  0  0  0  0  0  0  0  0  0  0  0
   16.5409    8.9317    4.0309 C   0  0  0  0  0  0  0  0  0  0  0  0
   17.8371    9.7281    3.7915 C   0  0  0  0  0  0  0  0  0  0  0  0
   18.7721    8.4738    5.8802 C   0  0  0  0  0  0  0  0  0  0  0  0
   19.4573   10.8322    5.5143 C   0  0  0  0  0  0  0  0  0  0  0  0
   19.5855    8.4360    7.0808 C   0  0  0  0  0  0  0  0  0  0  0  0
   20.2611   10.7999    6.6970 C   0  0  0  0  0  0  0  0  0  0  0  0
   21.0848    9.5663    8.6000 O   0  0  0  0  0  0  0  0  0  0  0  0
   18.6950    9.6850    5.0739 C   0  0  0  0  0  0  0  0  0  0  0  0
   20.3211    9.6058    7.4719 C   0  0  0  0  0  0  0  0  0  0  0  0
   21.1255    8.7819    9.1110 H   0  0  0  0  0  0  0  0  0  0  0  0
 20 21  1  0  0  0
 22 24  1  0  0  0
 22 27  2  0  0  0
 23 25  2  0  0  0
 23 27  1  0  0  0
 24 28  2  0  0  0
 25 28  1  0  0  0
 16 21  1  0  0  0
 16 17  1  0  0  0
 16 18  2  0  0  0
  3 10  1  0  0  0
 21 27  1  0  0  0
  4 13  1  0  0  0
  4 14  1  0  0  0
  1 17  1  0  0  0
  1 11  1  0  0  0
  5 14  2  0  0  0
 26 28  1  0  0  0
  6 12  1  0  0  0
  7  8  1  0  0  0
  7 10  2  0  0  0
  8 12  2  0  0  0
  9 11  1  0  0  0
  9 12  1  0  0  0
  9 13  2  0  0  0
 10 13  1  0  0  0
 11 14  1  0  0  0
  4 15  1  0  0  0
  1  2  1  0  0  0
 17 19  1  0  0  0
 26 29  1  0  0  0
M  END
> <minimizedAffinity>
-8.41489

$$$$
3ZZE_6XP_A_2345


 29 31  0  0  0  0  0  0  0  0999 V2000
   20.0484   11.3302    2.7832 N   0  0  0  0  0  0  0  0  0  0  0  0
   19.1884   11.8073    2.5124 H   0  0  0  0  0  0  0  0  0  0  0  0
   18.6197    7.4013    7.3758 C   0  0  0  0  0  0  0  0  0  0  0  0
   18.8204    8.3761    4.4964 N   0  0  0  0  0  0  0  0  0  0  0  0
   18.7994    8.7630    2.2016 O   0  0  0  0  0  0  0  0  0  0  0  0
   21.0300   12.8525    5.7143 Cl  0  0  0  0  0  0  0  0  0  0  0  0
   19.7219    9.6544    7.8904 C   0  0  0  0  0  0  0  0  0  0  0  0
   20.2983   10.9645    7.4595 C   0  0  0  0  0  0  0  0  0  0  0  0
   19.8226   10.4097    5.0865 C   0  0  0  0  0  0  0  0  0  0  0  0
   19.2065    8.7281    6.9875 C   0  0  0  0  0  0  0  0  0  0  0  0
   19.7031   10.4101    3.7473 C   0  0  0  0  0  0  0  0  0  0  0  0
   20.3474   11.3271    6.1267 C   0  0  0  0  0  0  0  0  0  0  0  0
   19.2408    9.0887    5.4902 C   0  0  0  0  0  0  0  0  0  0  0  0
   19.0598    9.1035    3.3627 C   0  0  0  0  0  0  0  0  0  0  0  0
   18.4080    7.4835    4.5459 H   0  0  0  0  0  0  0  0  0  0  0  0
   20.1767   11.3972    0.3947 C   0  0  0  0  0  0  0  0  0  0  0  0
   20.6757   10.9097    1.5836 N   0  0  0  0  0  0  0  0  0  0  0  0
   20.5514   10.9180   -0.6802 O   0  0  0  0  0  0  0  0  0  0  0  0
   21.4413   10.2909    1.5990 H   0  0  0  0  0  0  0  0  0  0  0  0
   19.4082   13.5128   -0.7274 C   0  0  0  0  0  0  0  0  0  0  0  0
   19.1346   12.5328    0.4287 C   0  0  0  0  0  0  0  0  0  0  0  0
   17.0346   11.8285   -0.9510 C   0  0  0  0  0  0  0  0  0  0  0  0
   16.8852   11.7944    1.5272 C   0  0  0  0  0  0  0  0  0  0  0  0
   15.6608   11.3690   -1.0285 C   0  0  0  0  0  0  0  0  0  0  0  0
   15.5305   11.3408    1.4562 C   0  0  0  0  0  0  0  0  0  0  0  0
   13.6368   10.6985    0.1061 O   0  0  0  0  0  0  0  0  0  0  0  0
   17.6708   12.0513    0.3407 C   0  0  0  0  0  0  0  0  0  0  0  0
   14.9269   11.1310    0.1829 C   0  0  0  0  0  0  0  0  0  0  0  0
   13.2381   10.5599   -0.7304 H   0  0  0  0  0  0  0  0  0  0  0  0
 20 21  1  0  0  0
 22 24  1  0  0  0
 22 27  2  0  0  0
 23 25  2  0  0  0
 23 27  1  0  0  0
 24 28  2  0  0  0
 25 28  1  0  0  0
 16 21  1  0  0  0
 16 17  1  0  0  0
 16 18  2  0  0  0
  3 10  1  0  0  0
 21 27  1  0  0  0
  4 13  1  0  0  0
  4 14  1  0  0  0
  1 17  1  0  0  0
  1 11  1  0  0  0
  5 14  2  0  0  0
 26 28  1  0  0  0
  6 12  1  0  0  0
  7  8  1  0  0  0
  7 10  2  0  0  0
  8 12  2  0  0  0
  9 11  1  0  0  0
  9 12  1  0  0  0
  9 13  2  0  0  0
 10 13  1  0  0  0
 11 14  1  0  0  0
  4 15  1  0  0  0
  1  2  1  0  0  0
 17 19  1  0  0  0
 26 29  1  0  0  0
M  END
> <minimizedAffinity>
-8.31265

$$$$
3ZZE_6XP_A_2345


 29 31  0  0  0  0  0  0  0  0999 V2000
   17.2464   10.5896    2.6855 N   0  0  0  0  0  0  0  0  0  0  0  0
   16.4249   10.0162    2.4939 H   0  0  0  0  0  0  0  0  0  0  0  0
   20.0317    7.6424    7.3893 C   0  0  0  0  0  0  0  0  0  0  0  0
   19.8387    9.4908    4.9752 N   0  0  0  0  0  0  0  0  0  0  0  0
   20.0910   10.9648    3.1921 O   0  0  0  0  0  0  0  0  0  0  0  0
   14.8120    8.7146    4.2444 Cl  0  0  0  0  0  0  0  0  0  0  0  0
   17.5306    7.3140    6.9503 C   0  0  0  0  0  0  0  0  0  0  0  0
   16.2852    7.5921    6.1718 C   0  0  0  0  0  0  0  0  0  0  0  0
   17.5475    9.1114    4.6674 C   0  0  0  0  0  0  0  0  0  0  0  0
   18.7575    7.8922    6.6348 C   0  0  0  0  0  0  0  0  0  0  0  0
   17.9311    9.9705    3.7069 C   0  0  0  0  0  0  0  0  0  0  0  0
   16.2897    8.4461    5.0851 C   0  0  0  0  0  0  0  0  0  0  0  0
   18.8107    8.8523    5.4313 C   0  0  0  0  0  0  0  0  0  0  0  0
   19.4041   10.2184    3.9013 C   0  0  0  0  0  0  0  0  0  0  0  0
   20.7559    9.4594    5.3316 H   0  0  0  0  0  0  0  0  0  0  0  0
   17.1095   11.3404    0.4176 C   0  0  0  0  0  0  0  0  0  0  0  0
   17.8786   10.8247    1.4387 N   0  0  0  0  0  0  0  0  0  0  0  0
   17.5519   11.3808   -0.7348 O   0  0  0  0  0  0  0  0  0  0  0  0
   18.8339   10.6265    1.3066 H   0  0  0  0  0  0  0  0  0  0  0  0
   15.4265   13.1517   -0.0432 C   0  0  0  0  0  0  0  0  0  0  0  0
   15.6879   11.8471    0.7324 C   0  0  0  0  0  0  0  0  0  0  0  0
   13.5638   10.4854    1.3984 C   0  0  0  0  0  0  0  0  0  0  0  0
   14.4687   10.2135   -0.8977 C   0  0  0  0  0  0  0  0  0  0  0  0
   12.5094    9.5405    1.0822 C   0  0  0  0  0  0  0  0  0  0  0  0
   13.4309    9.2817   -1.2147 C   0  0  0  0  0  0  0  0  0  0  0  0
   11.4669    8.0643   -0.5201 O   0  0  0  0  0  0  0  0  0  0  0  0
   14.5686   10.8365    0.4034 C   0  0  0  0  0  0  0  0  0  0  0  0
   12.4594    8.9509   -0.2264 C   0  0  0  0  0  0  0  0  0  0  0  0
   10.8271    7.8454    0.1285 H   0  0  0  0  0  0  0  0  0  0  0  0
 20 21  1  0  0  0
 22 24  1  0  0  0
 22 27  2  0  0  0
 23 25  2  0  0  0
 23 27  1  0  0  0
 24 28  2  0  0  0
 25 28  1  0  0  0
 16 21  1  0  0  0
 16 17  1  0  0  0
 16 18  2  0  0  0
  3 10  1  0  0  0
 21 27  1  0  0  0
  4 13  1  0  0  0
  4 14  1  0  0  0
  1 17  1  0  0  0
  1 11  1  0  0  0
  5 14  2  0  0  0
 26 28  1  0  0  0
  6 12  1  0  0  0
  7  8  1  0  0  0
  7 10  2  0  0  0
  8 12  2  0  0  0
  9 11  1  0  0  0
  9 12  1  0  0  0
  9 13  2  0  0  0
 10 13  1  0  0  0
 11 14  1  0  0  0
  4 15  1  0  0  0
  1  2  1  0  0  0
 17 19  1  0  0  0
 26 29  1  0  0  0
M  END
> <minimizedAffinity>
-8.29706

$$$$
