3EVD_GTP_A_901


 41 43  0  0  0  0  0  0  0  0999 V2000
   28.1074   24.5735  -44.0207 C   0  0  0  0  0  0  0  0  0  0  0  0
   27.9556   25.1526  -45.3404 O   0  0  0  0  0  0  0  0  0  0  0  0
   29.5472   24.0921  -43.9843 C   0  0  0  0  0  0  0  0  0  0  0  0
   29.7087   23.0321  -43.0536 O   0  0  0  0  0  0  0  0  0  0  0  0
   29.7877   23.6157  -45.4186 C   0  0  0  0  0  0  0  0  0  0  0  0
   29.4074   22.2728  -45.6389 O   0  0  0  0  0  0  0  0  0  0  0  0
   28.8965   24.5640  -46.2279 C   0  0  0  0  0  0  0  0  0  0  0  0
   29.1054   22.3074  -43.2811 H   0  0  0  0  0  0  0  0  0  0  0  0
   28.4679   22.1634  -45.4241 H   0  0  0  0  0  0  0  0  0  0  0  0
   29.6010   25.6313  -46.9365 N   0  0  0  0  0  0  0  0  0  0  0  0
   30.3288   26.6597  -46.3824 C   0  0  0  0  0  0  0  0  0  0  0  0
   30.8028   27.4871  -47.2735 N   0  0  0  0  0  0  0  0  0  0  0  0
   30.3742   26.9750  -48.4885 C   0  0  0  0  0  0  0  0  0  0  0  0
   30.5703   27.4552  -49.8100 C   0  0  0  0  0  0  0  0  0  0  0  0
   31.1759   28.4677  -50.1784 O   0  0  0  0  0  0  0  0  0  0  0  0
   29.9689   26.6258  -50.7500 N   0  0  0  0  0  0  0  0  0  0  0  0
   29.2658   25.4831  -50.4593 C   0  0  0  0  0  0  0  0  0  0  0  0
   28.7665   24.8136  -51.5057 N   0  0  0  0  0  0  0  0  0  0  0  0
   29.0690   25.0258  -49.2314 N   0  0  0  0  0  0  0  0  0  0  0  0
   29.6455   25.8192  -48.3016 C   0  0  0  0  0  0  0  0  0  0  0  0
   30.0540   26.8776  -51.6979 H   0  0  0  0  0  0  0  0  0  0  0  0
   28.9106   25.1502  -52.4196 H   0  0  0  0  0  0  0  0  0  0  0  0
   28.2553   23.9847  -51.3613 H   0  0  0  0  0  0  0  0  0  0  0  0
   27.6630   25.5526  -42.9361 C   0  0  0  0  0  0  0  0  0  0  0  0
   28.7635   26.3679  -42.4812 O   0  0  0  0  0  0  0  0  0  0  0  0
   28.5520   27.4710  -41.3219 P   0  0  0  0  0  0  0  0  0  0  0  0
   29.9221   27.4586  -40.4724 O   0  0  0  0  0  0  0  0  0  0  0  0
   28.2309   28.8228  -41.8361 O   0  0  0  0  0  0  0  0  0  0  0  0
   28.1171   29.4335  -41.0911 H   0  0  0  0  0  0  0  0  0  0  0  0
   27.4168   26.9370  -40.3063 O   0  0  0  0  0  0  0  0  0  0  0  0
   26.4358   27.9592  -39.5349 P   0  0  0  0  0  0  0  0  0  0  0  0
   25.3711   28.4630  -40.6334 O   0  0  0  0  0  0  0  0  0  0  0  0
   27.1766   29.0760  -38.9053 O   0  0  0  0  0  0  0  0  0  0  0  0
   26.5517   29.6648  -38.4540 H   0  0  0  0  0  0  0  0  0  0  0  0
   25.5787   27.1189  -38.4603 O   0  0  0  0  0  0  0  0  0  0  0  0
   26.2659   26.4853  -37.1509 P   0  0  0  0  0  0  0  0  0  0  0  0
   25.6178   27.2468  -35.8898 O   0  0  0  0  0  0  0  0  0  0  0  0
   25.7673   24.9594  -37.0392 O   0  0  0  0  0  0  0  0  0  0  0  0
   27.7407   26.5988  -37.1693 O   0  0  0  0  0  0  0  0  0  0  0  0
   26.1646   24.5459  -36.2569 H   0  0  0  0  0  0  0  0  0  0  0  0
   28.1055   26.2039  -36.3619 H   0  0  0  0  0  0  0  0  0  0  0  0
 36 37  2  0  0  0
 36 38  1  0  0  0
 36 39  1  0  0  0
 36 35  1  0  0  0
 35 31  1  0  0  0
 31 32  2  0  0  0
 31 33  1  0  0  0
 31 30  1  0  0  0
 30 26  1  0  0  0
 26 27  2  0  0  0
 26 28  1  0  0  0
 26 25  1  0  0  0
 25 24  1  0  0  0
 24  1  1  0  0  0
  1  2  1  0  0  0
  1  3  1  0  0  0
  2  7  1  0  0  0
  3  4  1  0  0  0
  3  5  1  0  0  0
  5  6  1  0  0  0
  5  7  1  0  0  0
  7 10  1  0  0  0
 10 11  1  0  0  0
 10 20  1  0  0  0
 11 12  2  0  0  0
 12 13  1  0  0  0
 13 14  1  0  0  0
 13 20  2  0  0  0
 14 15  2  0  0  0
 14 16  1  0  0  0
 16 17  1  0  0  0
 17 18  1  0  0  0
 17 19  2  0  0  0
 19 20  1  0  0  0
 38 40  1  0  0  0
 39 41  1  0  0  0
 33 34  1  0  0  0
 28 29  1  0  0  0
  4  8  1  0  0  0
  6  9  1  0  0  0
 16 21  1  0  0  0
 18 22  1  0  0  0
 18 23  1  0  0  0
M  END
> <minimizedAffinity>
-8.90726

$$$$
3EVD_GTP_A_901


 41 43  0  0  0  0  0  0  0  0999 V2000
   28.2274   24.4943  -44.1142 C   0  0  0  0  0  0  0  0  0  0  0  0
   28.0227   25.1133  -45.4084 O   0  0  0  0  0  0  0  0  0  0  0  0
   29.6551   23.9792  -44.1650 C   0  0  0  0  0  0  0  0  0  0  0  0
   29.8379   22.8901  -43.2726 O   0  0  0  0  0  0  0  0  0  0  0  0
   29.8106   23.5378  -45.6221 C   0  0  0  0  0  0  0  0  0  0  0  0
   29.3871   22.2105  -45.8583 O   0  0  0  0  0  0  0  0  0  0  0  0
   28.9026   24.5284  -46.3586 C   0  0  0  0  0  0  0  0  0  0  0  0
   29.2064   22.1860  -43.4880 H   0  0  0  0  0  0  0  0  0  0  0  0
   28.4573   22.1167  -45.5984 H   0  0  0  0  0  0  0  0  0  0  0  0
   29.5958   25.5987  -47.0738 N   0  0  0  0  0  0  0  0  0  0  0  0
   30.3275   26.6281  -46.5267 C   0  0  0  0  0  0  0  0  0  0  0  0
   30.7887   27.4583  -47.4220 N   0  0  0  0  0  0  0  0  0  0  0  0
   30.3470   26.9470  -48.6327 C   0  0  0  0  0  0  0  0  0  0  0  0
   30.5261   27.4299  -49.9556 C   0  0  0  0  0  0  0  0  0  0  0  0
   31.1245   28.4446  -50.3294 O   0  0  0  0  0  0  0  0  0  0  0  0
   29.9157   26.6005  -50.8897 N   0  0  0  0  0  0  0  0  0  0  0  0
   29.2190   25.4554  -50.5926 C   0  0  0  0  0  0  0  0  0  0  0  0
   28.7090   24.7864  -51.6341 N   0  0  0  0  0  0  0  0  0  0  0  0
   29.0381   24.9956  -49.3632 N   0  0  0  0  0  0  0  0  0  0  0  0
   29.6236   25.7890  -48.4390 C   0  0  0  0  0  0  0  0  0  0  0  0
   29.9887   26.8541  -51.8382 H   0  0  0  0  0  0  0  0  0  0  0  0
   28.8413   25.1249  -52.5491 H   0  0  0  0  0  0  0  0  0  0  0  0
   28.2017   23.9560  -51.4850 H   0  0  0  0  0  0  0  0  0  0  0  0
   27.8627   25.4525  -42.9823 C   0  0  0  0  0  0  0  0  0  0  0  0
   28.1733   26.8184  -43.3297 O   0  0  0  0  0  0  0  0  0  0  0  0
   29.0541   27.7432  -42.3424 P   0  0  0  0  0  0  0  0  0  0  0  0
   30.5652   27.2023  -42.4937 O   0  0  0  0  0  0  0  0  0  0  0  0
   28.9523   29.1923  -42.6337 O   0  0  0  0  0  0  0  0  0  0  0  0
   29.5029   29.6874  -42.0071 H   0  0  0  0  0  0  0  0  0  0  0  0
   28.6344   27.4128  -40.8193 O   0  0  0  0  0  0  0  0  0  0  0  0
   27.3311   28.0837  -40.1458 P   0  0  0  0  0  0  0  0  0  0  0  0
   26.6714   26.9390  -39.2247 O   0  0  0  0  0  0  0  0  0  0  0  0
   26.3894   28.6132  -41.1584 O   0  0  0  0  0  0  0  0  0  0  0  0
   25.6228   29.0063  -40.7128 H   0  0  0  0  0  0  0  0  0  0  0  0
   27.8256   29.2259  -39.1228 O   0  0  0  0  0  0  0  0  0  0  0  0
   27.5604   30.7855  -39.4156 P   0  0  0  0  0  0  0  0  0  0  0  0
   25.9664   30.9932  -39.3359 O   0  0  0  0  0  0  0  0  0  0  0  0
   28.1684   31.6152  -38.1782 O   0  0  0  0  0  0  0  0  0  0  0  0
   28.1124   31.2234  -40.7163 O   0  0  0  0  0  0  0  0  0  0  0  0
   28.0249   32.5635  -38.3232 H   0  0  0  0  0  0  0  0  0  0  0  0
   27.9271   32.1668  -40.8451 H   0  0  0  0  0  0  0  0  0  0  0  0
 36 37  2  0  0  0
 36 38  1  0  0  0
 36 39  1  0  0  0
 36 35  1  0  0  0
 35 31  1  0  0  0
 31 32  2  0  0  0
 31 33  1  0  0  0
 31 30  1  0  0  0
 30 26  1  0  0  0
 26 27  2  0  0  0
 26 28  1  0  0  0
 26 25  1  0  0  0
 25 24  1  0  0  0
 24  1  1  0  0  0
  1  2  1  0  0  0
  1  3  1  0  0  0
  2  7  1  0  0  0
  3  4  1  0  0  0
  3  5  1  0  0  0
  5  6  1  0  0  0
  5  7  1  0  0  0
  7 10  1  0  0  0
 10 11  1  0  0  0
 10 20  1  0  0  0
 11 12  2  0  0  0
 12 13  1  0  0  0
 13 14  1  0  0  0
 13 20  2  0  0  0
 14 15  2  0  0  0
 14 16  1  0  0  0
 16 17  1  0  0  0
 17 18  1  0  0  0
 17 19  2  0  0  0
 19 20  1  0  0  0
 38 40  1  0  0  0
 39 41  1  0  0  0
 33 34  1  0  0  0
 28 29  1  0  0  0
  4  8  1  0  0  0
  6  9  1  0  0  0
 16 21  1  0  0  0
 18 22  1  0  0  0
 18 23  1  0  0  0
M  END
> <minimizedAffinity>
-8.07768

$$$$
3EVD_GTP_A_901


 41 43  0  0  0  0  0  0  0  0999 V2000
   28.3578   27.8147  -40.2206 C   0  0  0  0  0  0  0  0  0  0  0  0
   29.6629   27.6851  -40.8369 O   0  0  0  0  0  0  0  0  0  0  0  0
   27.4532   26.9356  -41.0660 C   0  0  0  0  0  0  0  0  0  0  0  0
   26.1026   27.3668  -40.9880 O   0  0  0  0  0  0  0  0  0  0  0  0
   28.0159   27.1186  -42.4774 C   0  0  0  0  0  0  0  0  0  0  0  0
   27.4743   28.2302  -43.1615 O   0  0  0  0  0  0  0  0  0  0  0  0
   29.5085   27.3330  -42.2050 C   0  0  0  0  0  0  0  0  0  0  0  0
   26.0429   28.2946  -41.2644 H   0  0  0  0  0  0  0  0  0  0  0  0
   27.6400   29.0371  -42.6493 H   0  0  0  0  0  0  0  0  0  0  0  0
   30.3673   26.1850  -42.4915 N   0  0  0  0  0  0  0  0  0  0  0  0
   29.9832   24.9622  -42.9933 C   0  0  0  0  0  0  0  0  0  0  0  0
   30.9742   24.1193  -43.0971 N   0  0  0  0  0  0  0  0  0  0  0  0
   32.0806   24.8241  -42.6483 C   0  0  0  0  0  0  0  0  0  0  0  0
   33.4360   24.4226  -42.5168 C   0  0  0  0  0  0  0  0  0  0  0  0
   33.9409   23.3240  -42.7727 O   0  0  0  0  0  0  0  0  0  0  0  0
   34.2296   25.4539  -42.0270 N   0  0  0  0  0  0  0  0  0  0  0  0
   33.7797   26.7095  -41.7013 C   0  0  0  0  0  0  0  0  0  0  0  0
   34.7017   27.5696  -41.2511 N   0  0  0  0  0  0  0  0  0  0  0  0
   32.5176   27.0968  -41.8126 N   0  0  0  0  0  0  0  0  0  0  0  0
   31.7285   26.1074  -42.2867 C   0  0  0  0  0  0  0  0  0  0  0  0
   35.1888   25.2694  -41.9042 H   0  0  0  0  0  0  0  0  0  0  0  0
   35.6406   27.2855  -41.1671 H   0  0  0  0  0  0  0  0  0  0  0  0
   34.4408   28.4862  -41.0041 H   0  0  0  0  0  0  0  0  0  0  0  0
   28.4256   27.5237  -38.7228 C   0  0  0  0  0  0  0  0  0  0  0  0
   27.1461   27.0929  -38.2129 O   0  0  0  0  0  0  0  0  0  0  0  0
   27.0405   26.2833  -36.8204 P   0  0  0  0  0  0  0  0  0  0  0  0
   25.7604   25.3181  -36.9893 O   0  0  0  0  0  0  0  0  0  0  0  0
   28.2656   25.5241  -36.4773 O   0  0  0  0  0  0  0  0  0  0  0  0
   28.1349   25.0635  -35.6337 H   0  0  0  0  0  0  0  0  0  0  0  0
   26.6390   27.3220  -35.6520 O   0  0  0  0  0  0  0  0  0  0  0  0
   25.2164   28.0825  -35.6606 P   0  0  0  0  0  0  0  0  0  0  0  0
   24.4714   27.6406  -34.3028 O   0  0  0  0  0  0  0  0  0  0  0  0
   24.4243   27.7712  -36.8723 O   0  0  0  0  0  0  0  0  0  0  0  0
   23.5797   28.2470  -36.8376 H   0  0  0  0  0  0  0  0  0  0  0  0
   25.4902   29.6626  -35.5053 O   0  0  0  0  0  0  0  0  0  0  0  0
   26.2426   30.4999  -36.6546 P   0  0  0  0  0  0  0  0  0  0  0  0
   27.8105   30.1734  -36.4954 O   0  0  0  0  0  0  0  0  0  0  0  0
   25.8094   29.8674  -38.0694 O   0  0  0  0  0  0  0  0  0  0  0  0
   25.9675   31.9512  -36.5756 O   0  0  0  0  0  0  0  0  0  0  0  0
   26.2472   30.3509  -38.7873 H   0  0  0  0  0  0  0  0  0  0  0  0
   26.4420   32.4095  -37.2868 H   0  0  0  0  0  0  0  0  0  0  0  0
 36 37  2  0  0  0
 36 38  1  0  0  0
 36 39  1  0  0  0
 36 35  1  0  0  0
 35 31  1  0  0  0
 31 32  2  0  0  0
 31 33  1  0  0  0
 31 30  1  0  0  0
 30 26  1  0  0  0
 26 27  2  0  0  0
 26 28  1  0  0  0
 26 25  1  0  0  0
 25 24  1  0  0  0
 24  1  1  0  0  0
  1  2  1  0  0  0
  1  3  1  0  0  0
  2  7  1  0  0  0
  3  4  1  0  0  0
  3  5  1  0  0  0
  5  6  1  0  0  0
  5  7  1  0  0  0
  7 10  1  0  0  0
 10 11  1  0  0  0
 10 20  1  0  0  0
 11 12  2  0  0  0
 12 13  1  0  0  0
 13 14  1  0  0  0
 13 20  2  0  0  0
 14 15  2  0  0  0
 14 16  1  0  0  0
 16 17  1  0  0  0
 17 18  1  0  0  0
 17 19  2  0  0  0
 19 20  1  0  0  0
 38 40  1  0  0  0
 39 41  1  0  0  0
 33 34  1  0  0  0
 28 29  1  0  0  0
  4  8  1  0  0  0
  6  9  1  0  0  0
 16 21  1  0  0  0
 18 22  1  0  0  0
 18 23  1  0  0  0
M  END
> <minimizedAffinity>
-7.46663

$$$$
3EVD_GTP_A_901


 41 43  0  0  0  0  0  0  0  0999 V2000
   27.7628   28.1548  -39.7016 C   0  0  0  0  0  0  0  0  0  0  0  0
   28.6503   27.1021  -40.1534 O   0  0  0  0  0  0  0  0  0  0  0  0
   27.9363   29.2600  -40.7284 C   0  0  0  0  0  0  0  0  0  0  0  0
   27.6195   30.5280  -40.1735 O   0  0  0  0  0  0  0  0  0  0  0  0
   29.4204   29.1649  -41.0897 C   0  0  0  0  0  0  0  0  0  0  0  0
   30.2593   29.9120  -40.2325 O   0  0  0  0  0  0  0  0  0  0  0  0
   29.6954   27.6654  -40.9344 C   0  0  0  0  0  0  0  0  0  0  0  0
   28.1743   30.6874  -39.3939 H   0  0  0  0  0  0  0  0  0  0  0  0
   30.1378   29.6110  -39.3184 H   0  0  0  0  0  0  0  0  0  0  0  0
   29.7993   26.9162  -42.1855 N   0  0  0  0  0  0  0  0  0  0  0  0
   28.9386   26.9636  -43.2586 C   0  0  0  0  0  0  0  0  0  0  0  0
   29.2711   26.1412  -44.2160 N   0  0  0  0  0  0  0  0  0  0  0  0
   30.4225   25.5194  -43.7580 C   0  0  0  0  0  0  0  0  0  0  0  0
   31.2295   24.5187  -44.3603 C   0  0  0  0  0  0  0  0  0  0  0  0
   31.0749   23.9600  -45.4519 O   0  0  0  0  0  0  0  0  0  0  0  0
   32.3079   24.1764  -43.5521 N   0  0  0  0  0  0  0  0  0  0  0  0
   32.5761   24.7219  -42.3211 C   0  0  0  0  0  0  0  0  0  0  0  0
   33.6694   24.2654  -41.6975 N   0  0  0  0  0  0  0  0  0  0  0  0
   31.8293   25.6514  -41.7435 N   0  0  0  0  0  0  0  0  0  0  0  0
   30.7740   25.9979  -42.5133 C   0  0  0  0  0  0  0  0  0  0  0  0
   32.9273   23.4892  -43.8888 H   0  0  0  0  0  0  0  0  0  0  0  0
   34.2268   23.5747  -42.1235 H   0  0  0  0  0  0  0  0  0  0  0  0
   33.9159   24.6204  -40.8130 H   0  0  0  0  0  0  0  0  0  0  0  0
   26.3504   27.6217  -39.4702 C   0  0  0  0  0  0  0  0  0  0  0  0
   26.3691   26.4004  -38.7016 O   0  0  0  0  0  0  0  0  0  0  0  0
   25.9811   26.4031  -37.1347 P   0  0  0  0  0  0  0  0  0  0  0  0
   25.4412   24.9147  -36.8310 O   0  0  0  0  0  0  0  0  0  0  0  0
   27.1029   26.7784  -36.2428 O   0  0  0  0  0  0  0  0  0  0  0  0
   26.8029   26.7600  -35.3206 H   0  0  0  0  0  0  0  0  0  0  0  0
   24.7057   27.3696  -36.9235 O   0  0  0  0  0  0  0  0  0  0  0  0
   24.6836   28.4835  -35.7568 P   0  0  0  0  0  0  0  0  0  0  0  0
   24.7282   27.6691  -34.3680 O   0  0  0  0  0  0  0  0  0  0  0  0
   23.5049   29.3740  -35.8575 O   0  0  0  0  0  0  0  0  0  0  0  0
   23.5302   30.0263  -35.1401 H   0  0  0  0  0  0  0  0  0  0  0  0
   26.0691   29.3034  -35.8184 O   0  0  0  0  0  0  0  0  0  0  0  0
   26.2321   30.6055  -36.7491 P   0  0  0  0  0  0  0  0  0  0  0  0
   27.7896   30.6816  -37.1471 O   0  0  0  0  0  0  0  0  0  0  0  0
   25.4471   30.3133  -38.1230 O   0  0  0  0  0  0  0  0  0  0  0  0
   25.7682   31.8431  -36.0846 O   0  0  0  0  0  0  0  0  0  0  0  0
   25.5255   31.0816  -38.7099 H   0  0  0  0  0  0  0  0  0  0  0  0
   25.8870   32.5961  -36.6843 H   0  0  0  0  0  0  0  0  0  0  0  0
 36 37  2  0  0  0
 36 38  1  0  0  0
 36 39  1  0  0  0
 36 35  1  0  0  0
 35 31  1  0  0  0
 31 32  2  0  0  0
 31 33  1  0  0  0
 31 30  1  0  0  0
 30 26  1  0  0  0
 26 27  2  0  0  0
 26 28  1  0  0  0
 26 25  1  0  0  0
 25 24  1  0  0  0
 24  1  1  0  0  0
  1  2  1  0  0  0
  1  3  1  0  0  0
  2  7  1  0  0  0
  3  4  1  0  0  0
  3  5  1  0  0  0
  5  6  1  0  0  0
  5  7  1  0  0  0
  7 10  1  0  0  0
 10 11  1  0  0  0
 10 20  1  0  0  0
 11 12  2  0  0  0
 12 13  1  0  0  0
 13 14  1  0  0  0
 13 20  2  0  0  0
 14 15  2  0  0  0
 14 16  1  0  0  0
 16 17  1  0  0  0
 17 18  1  0  0  0
 17 19  2  0  0  0
 19 20  1  0  0  0
 38 40  1  0  0  0
 39 41  1  0  0  0
 33 34  1  0  0  0
 28 29  1  0  0  0
  4  8  1  0  0  0
  6  9  1  0  0  0
 16 21  1  0  0  0
 18 22  1  0  0  0
 18 23  1  0  0  0
M  END
> <minimizedAffinity>
-7.40478

$$$$
3EVD_GTP_A_901


 41 43  0  0  0  0  0  0  0  0999 V2000
   30.2824   28.5124  -40.5829 C   0  0  0  0  0  0  0  0  0  0  0  0
   31.0497   27.8772  -41.6354 O   0  0  0  0  0  0  0  0  0  0  0  0
   28.9434   28.8229  -41.2283 C   0  0  0  0  0  0  0  0  0  0  0  0
   28.3024   29.9105  -40.5785 O   0  0  0  0  0  0  0  0  0  0  0  0
   29.3282   29.1811  -42.6655 C   0  0  0  0  0  0  0  0  0  0  0  0
   29.6596   30.5438  -42.8385 O   0  0  0  0  0  0  0  0  0  0  0  0
   30.5578   28.2972  -42.9007 C   0  0  0  0  0  0  0  0  0  0  0  0
   28.8847   30.6860  -40.5955 H   0  0  0  0  0  0  0  0  0  0  0  0
   30.3942   30.7753  -42.2488 H   0  0  0  0  0  0  0  0  0  0  0  0
   30.3278   27.1142  -43.7284 N   0  0  0  0  0  0  0  0  0  0  0  0
   30.9810   26.7707  -44.8902 C   0  0  0  0  0  0  0  0  0  0  0  0
   30.5201   25.6754  -45.4299 N   0  0  0  0  0  0  0  0  0  0  0  0
   29.5106   25.2624  -44.5741 C   0  0  0  0  0  0  0  0  0  0  0  0
   28.6414   24.1424  -44.6494 C   0  0  0  0  0  0  0  0  0  0  0  0
   28.5859   23.2693  -45.5224 O   0  0  0  0  0  0  0  0  0  0  0  0
   27.7695   24.0982  -43.5673 N   0  0  0  0  0  0  0  0  0  0  0  0
   27.7334   25.0136  -42.5448 C   0  0  0  0  0  0  0  0  0  0  0  0
   26.8244   24.7944  -41.5866 N   0  0  0  0  0  0  0  0  0  0  0  0
   28.5333   26.0667  -42.4640 N   0  0  0  0  0  0  0  0  0  0  0  0
   29.3890   26.1288  -43.5081 C   0  0  0  0  0  0  0  0  0  0  0  0
   27.1280   23.3522  -43.5315 H   0  0  0  0  0  0  0  0  0  0  0  0
   26.2282   24.0130  -41.6432 H   0  0  0  0  0  0  0  0  0  0  0  0
   26.7522   25.4146  -40.8254 H   0  0  0  0  0  0  0  0  0  0  0  0
   30.2745   27.6589  -39.3164 C   0  0  0  0  0  0  0  0  0  0  0  0
   28.9365   27.4969  -38.8004 O   0  0  0  0  0  0  0  0  0  0  0  0
   28.6527   27.5310  -37.2117 P   0  0  0  0  0  0  0  0  0  0  0  0
   28.8402   26.0082  -36.7167 O   0  0  0  0  0  0  0  0  0  0  0  0
   29.5287   28.4670  -36.4691 O   0  0  0  0  0  0  0  0  0  0  0  0
   29.3064   28.4382  -35.5254 H   0  0  0  0  0  0  0  0  0  0  0  0
   27.0914   27.8657  -36.9763 O   0  0  0  0  0  0  0  0  0  0  0  0
   25.9348   27.0558  -37.7564 P   0  0  0  0  0  0  0  0  0  0  0  0
   25.5641   25.8011  -36.8170 O   0  0  0  0  0  0  0  0  0  0  0  0
   26.3596   26.6451  -39.1142 O   0  0  0  0  0  0  0  0  0  0  0  0
   25.6376   26.1629  -39.5468 H   0  0  0  0  0  0  0  0  0  0  0  0
   24.6116   27.9743  -37.7877 O   0  0  0  0  0  0  0  0  0  0  0  0
   24.1062   28.7612  -36.4787 P   0  0  0  0  0  0  0  0  0  0  0  0
   24.7044   30.2512  -36.5908 O   0  0  0  0  0  0  0  0  0  0  0  0
   22.5102   28.9241  -36.6043 O   0  0  0  0  0  0  0  0  0  0  0  0
   24.5097   28.0946  -35.2213 O   0  0  0  0  0  0  0  0  0  0  0  0
   22.1713   29.3966  -35.8278 H   0  0  0  0  0  0  0  0  0  0  0  0
   24.1823   28.6059  -34.4648 H   0  0  0  0  0  0  0  0  0  0  0  0
 36 37  2  0  0  0
 36 38  1  0  0  0
 36 39  1  0  0  0
 36 35  1  0  0  0
 35 31  1  0  0  0
 31 32  2  0  0  0
 31 33  1  0  0  0
 31 30  1  0  0  0
 30 26  1  0  0  0
 26 27  2  0  0  0
 26 28  1  0  0  0
 26 25  1  0  0  0
 25 24  1  0  0  0
 24  1  1  0  0  0
  1  2  1  0  0  0
  1  3  1  0  0  0
  2  7  1  0  0  0
  3  4  1  0  0  0
  3  5  1  0  0  0
  5  6  1  0  0  0
  5  7  1  0  0  0
  7 10  1  0  0  0
 10 11  1  0  0  0
 10 20  1  0  0  0
 11 12  2  0  0  0
 12 13  1  0  0  0
 13 14  1  0  0  0
 13 20  2  0  0  0
 14 15  2  0  0  0
 14 16  1  0  0  0
 16 17  1  0  0  0
 17 18  1  0  0  0
 17 19  2  0  0  0
 19 20  1  0  0  0
 38 40  1  0  0  0
 39 41  1  0  0  0
 33 34  1  0  0  0
 28 29  1  0  0  0
  4  8  1  0  0  0
  6  9  1  0  0  0
 16 21  1  0  0  0
 18 22  1  0  0  0
 18 23  1  0  0  0
M  END
> <minimizedAffinity>
-7.35921

$$$$
3EVD_GTP_A_901


 41 43  0  0  0  0  0  0  0  0999 V2000
   30.7057   24.3917  -47.5104 C   0  0  0  0  0  0  0  0  0  0  0  0
   31.1386   24.8728  -46.2139 O   0  0  0  0  0  0  0  0  0  0  0  0
   29.2183   24.6953  -47.5473 C   0  0  0  0  0  0  0  0  0  0  0  0
   28.5394   23.8200  -48.4354 O   0  0  0  0  0  0  0  0  0  0  0  0
   28.7837   24.4658  -46.0980 C   0  0  0  0  0  0  0  0  0  0  0  0
   28.4416   23.1239  -45.8168 O   0  0  0  0  0  0  0  0  0  0  0  0
   30.0370   24.8737  -45.3162 C   0  0  0  0  0  0  0  0  0  0  0  0
   28.7002   22.9011  -48.1695 H   0  0  0  0  0  0  0  0  0  0  0  0
   29.1979   22.5494  -46.0135 H   0  0  0  0  0  0  0  0  0  0  0  0
   29.9683   26.1797  -44.6625 N   0  0  0  0  0  0  0  0  0  0  0  0
   30.7439   27.2854  -44.9274 C   0  0  0  0  0  0  0  0  0  0  0  0
   30.4787   28.2943  -44.1431 N   0  0  0  0  0  0  0  0  0  0  0  0
   29.4634   27.8370  -43.3170 C   0  0  0  0  0  0  0  0  0  0  0  0
   28.7786   28.4851  -42.2556 C   0  0  0  0  0  0  0  0  0  0  0  0
   28.9465   29.6282  -41.8166 O   0  0  0  0  0  0  0  0  0  0  0  0
   27.8157   27.6582  -41.6881 N   0  0  0  0  0  0  0  0  0  0  0  0
   27.5463   26.3720  -42.0855 C   0  0  0  0  0  0  0  0  0  0  0  0
   26.5741   25.7381  -41.4180 N   0  0  0  0  0  0  0  0  0  0  0  0
   28.1807   25.7518  -43.0695 N   0  0  0  0  0  0  0  0  0  0  0  0
   29.1227   26.5390  -43.6346 C   0  0  0  0  0  0  0  0  0  0  0  0
   27.2857   28.0235  -40.9431 H   0  0  0  0  0  0  0  0  0  0  0  0
   26.1004   26.1956  -40.6862 H   0  0  0  0  0  0  0  0  0  0  0  0
   26.3329   24.8145  -41.6589 H   0  0  0  0  0  0  0  0  0  0  0  0
   31.5718   24.9686  -48.6284 C   0  0  0  0  0  0  0  0  0  0  0  0
   30.7626   25.4999  -49.6987 O   0  0  0  0  0  0  0  0  0  0  0  0
   30.9573   24.9856  -51.2165 P   0  0  0  0  0  0  0  0  0  0  0  0
   31.8610   23.6558  -51.0989 O   0  0  0  0  0  0  0  0  0  0  0  0
   29.6831   24.7287  -51.9273 O   0  0  0  0  0  0  0  0  0  0  0  0
   29.8715   24.4241  -52.8288 H   0  0  0  0  0  0  0  0  0  0  0  0
   31.8732   26.0540  -52.0068 O   0  0  0  0  0  0  0  0  0  0  0  0
   31.2201   27.3258  -52.7541 P   0  0  0  0  0  0  0  0  0  0  0  0
   29.7464   27.4972  -52.1274 O   0  0  0  0  0  0  0  0  0  0  0  0
   31.1976   27.1580  -54.2251 O   0  0  0  0  0  0  0  0  0  0  0  0
   30.7986   27.9419  -54.6339 H   0  0  0  0  0  0  0  0  0  0  0  0
   32.0325   28.6433  -52.3071 O   0  0  0  0  0  0  0  0  0  0  0  0
   32.2547   29.0049  -50.7553 P   0  0  0  0  0  0  0  0  0  0  0  0
   33.1653   30.3318  -50.7287 O   0  0  0  0  0  0  0  0  0  0  0  0
   30.8274   29.4464  -50.1574 O   0  0  0  0  0  0  0  0  0  0  0  0
   32.8687   27.8955  -49.9934 O   0  0  0  0  0  0  0  0  0  0  0  0
   30.9258   29.6722  -49.2192 H   0  0  0  0  0  0  0  0  0  0  0  0
   32.9811   28.1623  -49.0677 H   0  0  0  0  0  0  0  0  0  0  0  0
 36 37  2  0  0  0
 36 38  1  0  0  0
 36 39  1  0  0  0
 36 35  1  0  0  0
 35 31  1  0  0  0
 31 32  2  0  0  0
 31 33  1  0  0  0
 31 30  1  0  0  0
 30 26  1  0  0  0
 26 27  2  0  0  0
 26 28  1  0  0  0
 26 25  1  0  0  0
 25 24  1  0  0  0
 24  1  1  0  0  0
  1  2  1  0  0  0
  1  3  1  0  0  0
  2  7  1  0  0  0
  3  4  1  0  0  0
  3  5  1  0  0  0
  5  6  1  0  0  0
  5  7  1  0  0  0
  7 10  1  0  0  0
 10 11  1  0  0  0
 10 20  1  0  0  0
 11 12  2  0  0  0
 12 13  1  0  0  0
 13 14  1  0  0  0
 13 20  2  0  0  0
 14 15  2  0  0  0
 14 16  1  0  0  0
 16 17  1  0  0  0
 17 18  1  0  0  0
 17 19  2  0  0  0
 19 20  1  0  0  0
 38 40  1  0  0  0
 39 41  1  0  0  0
 33 34  1  0  0  0
 28 29  1  0  0  0
  4  8  1  0  0  0
  6  9  1  0  0  0
 16 21  1  0  0  0
 18 22  1  0  0  0
 18 23  1  0  0  0
M  END
> <minimizedAffinity>
-7.30778

$$$$
3EVD_GTP_A_901


 41 43  0  0  0  0  0  0  0  0999 V2000
   30.2919   25.5826  -47.5318 C   0  0  0  0  0  0  0  0  0  0  0  0
   30.5336   25.9783  -46.1589 O   0  0  0  0  0  0  0  0  0  0  0  0
   28.9475   24.8778  -47.4892 C   0  0  0  0  0  0  0  0  0  0  0  0
   28.8199   23.9543  -48.5601 O   0  0  0  0  0  0  0  0  0  0  0  0
   28.9761   24.1622  -46.1367 C   0  0  0  0  0  0  0  0  0  0  0  0
   29.5768   22.8841  -46.1868 O   0  0  0  0  0  0  0  0  0  0  0  0
   29.8187   25.1166  -45.2838 C   0  0  0  0  0  0  0  0  0  0  0  0
   29.5488   23.3152  -48.5245 H   0  0  0  0  0  0  0  0  0  0  0  0
   30.4845   22.9663  -46.5189 H   0  0  0  0  0  0  0  0  0  0  0  0
   29.0667   25.9350  -44.3340 N   0  0  0  0  0  0  0  0  0  0  0  0
   29.0730   27.3074  -44.2295 C   0  0  0  0  0  0  0  0  0  0  0  0
   28.3325   27.7478  -43.2492 N   0  0  0  0  0  0  0  0  0  0  0  0
   27.7962   26.6050  -42.6759 C   0  0  0  0  0  0  0  0  0  0  0  0
   26.9267   26.4546  -41.5638 C   0  0  0  0  0  0  0  0  0  0  0  0
   26.4494   27.3325  -40.8365 O   0  0  0  0  0  0  0  0  0  0  0  0
   26.6262   25.1179  -41.3267 N   0  0  0  0  0  0  0  0  0  0  0  0
   27.1022   24.0598  -42.0606 C   0  0  0  0  0  0  0  0  0  0  0  0
   26.6915   22.8437  -41.6798 N   0  0  0  0  0  0  0  0  0  0  0  0
   27.9188   24.1836  -43.0966 N   0  0  0  0  0  0  0  0  0  0  0  0
   28.2243   25.4768  -43.3435 C   0  0  0  0  0  0  0  0  0  0  0  0
   26.0254   24.9144  -40.5738 H   0  0  0  0  0  0  0  0  0  0  0  0
   26.0847   22.7476  -40.9105 H   0  0  0  0  0  0  0  0  0  0  0  0
   26.9964   22.0456  -42.1690 H   0  0  0  0  0  0  0  0  0  0  0  0
   30.4360   26.7710  -48.4803 C   0  0  0  0  0  0  0  0  0  0  0  0
   30.2951   26.3639  -49.8576 O   0  0  0  0  0  0  0  0  0  0  0  0
   30.8945   27.2682  -51.0530 P   0  0  0  0  0  0  0  0  0  0  0  0
   29.6948   27.4052  -52.1210 O   0  0  0  0  0  0  0  0  0  0  0  0
   31.3942   28.5900  -50.6081 O   0  0  0  0  0  0  0  0  0  0  0  0
   31.7386   29.0791  -51.3717 H   0  0  0  0  0  0  0  0  0  0  0  0
   32.0430   26.4230  -51.8093 O   0  0  0  0  0  0  0  0  0  0  0  0
   31.7084   25.0253  -52.5419 P   0  0  0  0  0  0  0  0  0  0  0  0
   32.2292   25.1855  -54.0575 O   0  0  0  0  0  0  0  0  0  0  0  0
   30.2690   24.6863  -52.4669 O   0  0  0  0  0  0  0  0  0  0  0  0
   30.1117   23.8419  -52.9178 H   0  0  0  0  0  0  0  0  0  0  0  0
   32.6351   23.8808  -51.8883 O   0  0  0  0  0  0  0  0  0  0  0  0
   32.5261   23.5034  -50.3282 P   0  0  0  0  0  0  0  0  0  0  0  0
   33.4437   22.1983  -50.1162 O   0  0  0  0  0  0  0  0  0  0  0  0
   33.2467   24.6796  -49.4996 O   0  0  0  0  0  0  0  0  0  0  0  0
   31.1307   23.2771  -49.8924 O   0  0  0  0  0  0  0  0  0  0  0  0
   33.1990   24.4828  -48.5509 H   0  0  0  0  0  0  0  0  0  0  0  0
   31.1190   23.0536  -48.9486 H   0  0  0  0  0  0  0  0  0  0  0  0
 36 37  2  0  0  0
 36 38  1  0  0  0
 36 39  1  0  0  0
 36 35  1  0  0  0
 35 31  1  0  0  0
 31 32  2  0  0  0
 31 33  1  0  0  0
 31 30  1  0  0  0
 30 26  1  0  0  0
 26 27  2  0  0  0
 26 28  1  0  0  0
 26 25  1  0  0  0
 25 24  1  0  0  0
 24  1  1  0  0  0
  1  2  1  0  0  0
  1  3  1  0  0  0
  2  7  1  0  0  0
  3  4  1  0  0  0
  3  5  1  0  0  0
  5  6  1  0  0  0
  5  7  1  0  0  0
  7 10  1  0  0  0
 10 11  1  0  0  0
 10 20  1  0  0  0
 11 12  2  0  0  0
 12 13  1  0  0  0
 13 14  1  0  0  0
 13 20  2  0  0  0
 14 15  2  0  0  0
 14 16  1  0  0  0
 16 17  1  0  0  0
 17 18  1  0  0  0
 17 19  2  0  0  0
 19 20  1  0  0  0
 38 40  1  0  0  0
 39 41  1  0  0  0
 33 34  1  0  0  0
 28 29  1  0  0  0
  4  8  1  0  0  0
  6  9  1  0  0  0
 16 21  1  0  0  0
 18 22  1  0  0  0
 18 23  1  0  0  0
M  END
> <minimizedAffinity>
-7.29173

$$$$
3EVD_GTP_A_901


 41 43  0  0  0  0  0  0  0  0999 V2000
   28.4233   24.7654  -43.9164 C   0  0  0  0  0  0  0  0  0  0  0  0
   28.1833   25.4220  -45.1857 O   0  0  0  0  0  0  0  0  0  0  0  0
   29.7883   24.1201  -44.0785 C   0  0  0  0  0  0  0  0  0  0  0  0
   29.9326   23.0042  -43.2126 O   0  0  0  0  0  0  0  0  0  0  0  0
   29.7940   23.6901  -45.5472 C   0  0  0  0  0  0  0  0  0  0  0  0
   29.2310   22.4123  -45.7637 O   0  0  0  0  0  0  0  0  0  0  0  0
   28.9320   24.7732  -46.2045 C   0  0  0  0  0  0  0  0  0  0  0  0
   29.2234   22.3659  -43.3868 H   0  0  0  0  0  0  0  0  0  0  0  0
   28.3181   22.4015  -45.4359 H   0  0  0  0  0  0  0  0  0  0  0  0
   29.6687   25.7856  -46.9593 N   0  0  0  0  0  0  0  0  0  0  0  0
   30.4380   26.8075  -46.4510 C   0  0  0  0  0  0  0  0  0  0  0  0
   30.9341   27.5818  -47.3772 N   0  0  0  0  0  0  0  0  0  0  0  0
   30.4770   27.0388  -48.5682 C   0  0  0  0  0  0  0  0  0  0  0  0
   30.6792   27.4599  -49.9088 C   0  0  0  0  0  0  0  0  0  0  0  0
   31.3179   28.4344  -50.3208 O   0  0  0  0  0  0  0  0  0  0  0  0
   30.0402   26.6171  -50.8113 N   0  0  0  0  0  0  0  0  0  0  0  0
   29.2985   25.5130  -50.4711 C   0  0  0  0  0  0  0  0  0  0  0  0
   28.7664   24.8221  -51.4870 N   0  0  0  0  0  0  0  0  0  0  0  0
   29.0957   25.1113  -49.2250 N   0  0  0  0  0  0  0  0  0  0  0  0
   29.7085   25.9186  -48.3310 C   0  0  0  0  0  0  0  0  0  0  0  0
   30.1262   26.8286  -51.7690 H   0  0  0  0  0  0  0  0  0  0  0  0
   28.9149   25.1174  -52.4144 H   0  0  0  0  0  0  0  0  0  0  0  0
   28.2267   24.0187  -51.3067 H   0  0  0  0  0  0  0  0  0  0  0  0
   28.2347   25.7348  -42.7514 C   0  0  0  0  0  0  0  0  0  0  0  0
   29.1613   26.8384  -42.8310 O   0  0  0  0  0  0  0  0  0  0  0  0
   30.2065   27.1289  -41.6355 P   0  0  0  0  0  0  0  0  0  0  0  0
   29.3209   27.1167  -40.2885 O   0  0  0  0  0  0  0  0  0  0  0  0
   31.3250   26.1595  -41.5722 O   0  0  0  0  0  0  0  0  0  0  0  0
   31.9122   26.3910  -40.8357 H   0  0  0  0  0  0  0  0  0  0  0  0
   30.7419   28.6448  -41.7790 O   0  0  0  0  0  0  0  0  0  0  0  0
   29.7481   29.9035  -41.6052 P   0  0  0  0  0  0  0  0  0  0  0  0
   30.3500   30.7772  -40.3935 O   0  0  0  0  0  0  0  0  0  0  0  0
   28.3495   29.4814  -41.3635 O   0  0  0  0  0  0  0  0  0  0  0  0
   27.7874   30.2658  -41.2651 H   0  0  0  0  0  0  0  0  0  0  0  0
   29.8823   30.8343  -42.9134 O   0  0  0  0  0  0  0  0  0  0  0  0
   29.7678   30.2189  -44.3954 P   0  0  0  0  0  0  0  0  0  0  0  0
   29.5247   31.4664  -45.3828 O   0  0  0  0  0  0  0  0  0  0  0  0
   31.2156   29.6338  -44.7841 O   0  0  0  0  0  0  0  0  0  0  0  0
   28.6979   29.2038  -44.5104 O   0  0  0  0  0  0  0  0  0  0  0  0
   31.1819   29.2535  -45.6758 H   0  0  0  0  0  0  0  0  0  0  0  0
   28.6699   28.8650  -45.4188 H   0  0  0  0  0  0  0  0  0  0  0  0
 36 37  2  0  0  0
 36 38  1  0  0  0
 36 39  1  0  0  0
 36 35  1  0  0  0
 35 31  1  0  0  0
 31 32  2  0  0  0
 31 33  1  0  0  0
 31 30  1  0  0  0
 30 26  1  0  0  0
 26 27  2  0  0  0
 26 28  1  0  0  0
 26 25  1  0  0  0
 25 24  1  0  0  0
 24  1  1  0  0  0
  1  2  1  0  0  0
  1  3  1  0  0  0
  2  7  1  0  0  0
  3  4  1  0  0  0
  3  5  1  0  0  0
  5  6  1  0  0  0
  5  7  1  0  0  0
  7 10  1  0  0  0
 10 11  1  0  0  0
 10 20  1  0  0  0
 11 12  2  0  0  0
 12 13  1  0  0  0
 13 14  1  0  0  0
 13 20  2  0  0  0
 14 15  2  0  0  0
 14 16  1  0  0  0
 16 17  1  0  0  0
 17 18  1  0  0  0
 17 19  2  0  0  0
 19 20  1  0  0  0
 38 40  1  0  0  0
 39 41  1  0  0  0
 33 34  1  0  0  0
 28 29  1  0  0  0
  4  8  1  0  0  0
  6  9  1  0  0  0
 16 21  1  0  0  0
 18 22  1  0  0  0
 18 23  1  0  0  0
M  END
> <minimizedAffinity>
-7.25421

$$$$
3EVD_GTP_A_901


 41 43  0  0  0  0  0  0  0  0999 V2000
   28.6856   29.0584  -40.8766 C   0  0  0  0  0  0  0  0  0  0  0  0
   29.9454   28.8314  -41.5558 O   0  0  0  0  0  0  0  0  0  0  0  0
   27.8574   27.8269  -41.1981 C   0  0  0  0  0  0  0  0  0  0  0  0
   26.4683   28.1103  -41.1213 O   0  0  0  0  0  0  0  0  0  0  0  0
   28.2794   27.4920  -42.6306 C   0  0  0  0  0  0  0  0  0  0  0  0
   27.5318   28.1776  -43.6143 O   0  0  0  0  0  0  0  0  0  0  0  0
   29.7412   27.9512  -42.6526 C   0  0  0  0  0  0  0  0  0  0  0  0
   26.2535   28.8404  -41.7227 H   0  0  0  0  0  0  0  0  0  0  0  0
   27.6165   29.1341  -43.4765 H   0  0  0  0  0  0  0  0  0  0  0  0
   30.7338   26.8800  -42.5827 N   0  0  0  0  0  0  0  0  0  0  0  0
   31.4857   26.5112  -41.4904 C   0  0  0  0  0  0  0  0  0  0  0  0
   32.3241   25.5455  -41.7507 N   0  0  0  0  0  0  0  0  0  0  0  0
   32.1111   25.2491  -43.0883 C   0  0  0  0  0  0  0  0  0  0  0  0
   32.7406   24.2958  -43.9311 C   0  0  0  0  0  0  0  0  0  0  0  0
   33.6477   23.5038  -43.6530 O   0  0  0  0  0  0  0  0  0  0  0  0
   32.2147   24.3246  -45.2178 N   0  0  0  0  0  0  0  0  0  0  0  0
   31.2146   25.1635  -45.6432 C   0  0  0  0  0  0  0  0  0  0  0  0
   30.8382   25.0344  -46.9215 N   0  0  0  0  0  0  0  0  0  0  0  0
   30.6221   26.0621  -44.8707 N   0  0  0  0  0  0  0  0  0  0  0  0
   31.1201   26.0510  -43.6144 C   0  0  0  0  0  0  0  0  0  0  0  0
   32.5885   23.6942  -45.8752 H   0  0  0  0  0  0  0  0  0  0  0  0
   31.2761   24.3678  -47.4987 H   0  0  0  0  0  0  0  0  0  0  0  0
   30.1235   25.6061  -47.2844 H   0  0  0  0  0  0  0  0  0  0  0  0
   28.9078   29.3947  -39.4035 C   0  0  0  0  0  0  0  0  0  0  0  0
   29.3422   28.2367  -38.6600 O   0  0  0  0  0  0  0  0  0  0  0  0
   28.4695   27.6710  -37.4254 P   0  0  0  0  0  0  0  0  0  0  0  0
   29.2151   26.3172  -36.9668 O   0  0  0  0  0  0  0  0  0  0  0  0
   28.3265   28.6313  -36.3064 O   0  0  0  0  0  0  0  0  0  0  0  0
   27.7940   28.2299  -35.6020 H   0  0  0  0  0  0  0  0  0  0  0  0
   27.0330   27.1960  -37.9875 O   0  0  0  0  0  0  0  0  0  0  0  0
   25.8968   26.6177  -36.9991 P   0  0  0  0  0  0  0  0  0  0  0  0
   26.3067   27.1078  -35.5207 O   0  0  0  0  0  0  0  0  0  0  0  0
   25.7690   25.1457  -37.0963 O   0  0  0  0  0  0  0  0  0  0  0  0
   25.0778   24.8403  -36.4881 H   0  0  0  0  0  0  0  0  0  0  0  0
   24.5111   27.3693  -37.3317 O   0  0  0  0  0  0  0  0  0  0  0  0
   24.4792   28.9226  -37.7494 P   0  0  0  0  0  0  0  0  0  0  0  0
   23.0186   29.4663  -37.3476 O   0  0  0  0  0  0  0  0  0  0  0  0
   25.5104   29.6983  -36.7879 O   0  0  0  0  0  0  0  0  0  0  0  0
   24.7745   29.1336  -39.1834 O   0  0  0  0  0  0  0  0  0  0  0  0
   25.5159   30.6416  -37.0138 H   0  0  0  0  0  0  0  0  0  0  0  0
   24.7431   30.0822  -39.3838 H   0  0  0  0  0  0  0  0  0  0  0  0
 36 37  2  0  0  0
 36 38  1  0  0  0
 36 39  1  0  0  0
 36 35  1  0  0  0
 35 31  1  0  0  0
 31 32  2  0  0  0
 31 33  1  0  0  0
 31 30  1  0  0  0
 30 26  1  0  0  0
 26 27  2  0  0  0
 26 28  1  0  0  0
 26 25  1  0  0  0
 25 24  1  0  0  0
 24  1  1  0  0  0
  1  2  1  0  0  0
  1  3  1  0  0  0
  2  7  1  0  0  0
  3  4  1  0  0  0
  3  5  1  0  0  0
  5  6  1  0  0  0
  5  7  1  0  0  0
  7 10  1  0  0  0
 10 11  1  0  0  0
 10 20  1  0  0  0
 11 12  2  0  0  0
 12 13  1  0  0  0
 13 14  1  0  0  0
 13 20  2  0  0  0
 14 15  2  0  0  0
 14 16  1  0  0  0
 16 17  1  0  0  0
 17 18  1  0  0  0
 17 19  2  0  0  0
 19 20  1  0  0  0
 38 40  1  0  0  0
 39 41  1  0  0  0
 33 34  1  0  0  0
 28 29  1  0  0  0
  4  8  1  0  0  0
  6  9  1  0  0  0
 16 21  1  0  0  0
 18 22  1  0  0  0
 18 23  1  0  0  0
M  END
> <minimizedAffinity>
-7.15032

$$$$
3EVD_GTP_A_901


 41 43  0  0  0  0  0  0  0  0999 V2000
   31.0890   27.6245  -44.9065 C   0  0  0  0  0  0  0  0  0  0  0  0
   30.3528   28.0625  -46.0754 O   0  0  0  0  0  0  0  0  0  0  0  0
   32.0307   26.5561  -45.4332 C   0  0  0  0  0  0  0  0  0  0  0  0
   32.3952   25.6446  -44.4074 O   0  0  0  0  0  0  0  0  0  0  0  0
   31.1998   25.8692  -46.5195 C   0  0  0  0  0  0  0  0  0  0  0  0
   30.3843   24.8241  -46.0303 O   0  0  0  0  0  0  0  0  0  0  0  0
   30.3361   27.0218  -47.0429 C   0  0  0  0  0  0  0  0  0  0  0  0
   31.5954   25.2472  -44.0289 H   0  0  0  0  0  0  0  0  0  0  0  0
   29.7871   25.1715  -45.3495 H   0  0  0  0  0  0  0  0  0  0  0  0
   30.7477   27.5758  -48.3318 N   0  0  0  0  0  0  0  0  0  0  0  0
   31.5536   28.6703  -48.5488 C   0  0  0  0  0  0  0  0  0  0  0  0
   31.7036   28.9504  -49.8146 N   0  0  0  0  0  0  0  0  0  0  0  0
   30.9641   27.9823  -50.4766 C   0  0  0  0  0  0  0  0  0  0  0  0
   30.7401   27.7847  -51.8645 C   0  0  0  0  0  0  0  0  0  0  0  0
   31.1597   28.4550  -52.8143 O   0  0  0  0  0  0  0  0  0  0  0  0
   29.9320   26.6780  -52.0995 N   0  0  0  0  0  0  0  0  0  0  0  0
   29.4030   25.8661  -51.1270 C   0  0  0  0  0  0  0  0  0  0  0  0
   28.6532   24.8426  -51.5544 N   0  0  0  0  0  0  0  0  0  0  0  0
   29.5977   26.0413  -49.8282 N   0  0  0  0  0  0  0  0  0  0  0  0
   30.3809   27.1139  -49.5780 C   0  0  0  0  0  0  0  0  0  0  0  0
   29.7229   26.4595  -53.0364 H   0  0  0  0  0  0  0  0  0  0  0  0
   28.5062   24.7091  -52.5187 H   0  0  0  0  0  0  0  0  0  0  0  0
   28.2488   24.2235  -50.9045 H   0  0  0  0  0  0  0  0  0  0  0  0
   31.7084   28.8107  -44.1703 C   0  0  0  0  0  0  0  0  0  0  0  0
   31.6117   28.6495  -42.7395 O   0  0  0  0  0  0  0  0  0  0  0  0
   30.2470   29.0105  -41.9566 P   0  0  0  0  0  0  0  0  0  0  0  0
   30.7019   29.3416  -40.4459 O   0  0  0  0  0  0  0  0  0  0  0  0
   29.4883   30.1284  -42.5646 O   0  0  0  0  0  0  0  0  0  0  0  0
   28.6841   30.2922  -42.0476 H   0  0  0  0  0  0  0  0  0  0  0  0
   29.3491   27.6737  -41.8473 O   0  0  0  0  0  0  0  0  0  0  0  0
   27.7961   27.6704  -42.2838 P   0  0  0  0  0  0  0  0  0  0  0  0
   27.7634   28.2039  -43.8031 O   0  0  0  0  0  0  0  0  0  0  0  0
   26.9591   28.4867  -41.3752 O   0  0  0  0  0  0  0  0  0  0  0  0
   26.0362   28.4577  -41.6723 H   0  0  0  0  0  0  0  0  0  0  0  0
   27.2974   26.1401  -42.3554 O   0  0  0  0  0  0  0  0  0  0  0  0
   28.0658   25.0491  -43.2539 P   0  0  0  0  0  0  0  0  0  0  0  0
   27.7815   25.4485  -44.7869 O   0  0  0  0  0  0  0  0  0  0  0  0
   29.6440   25.2726  -43.0331 O   0  0  0  0  0  0  0  0  0  0  0  0
   27.6431   23.6636  -42.9542 O   0  0  0  0  0  0  0  0  0  0  0  0
   30.1390   24.6283  -43.5629 H   0  0  0  0  0  0  0  0  0  0  0  0
   28.1333   23.0464  -43.5197 H   0  0  0  0  0  0  0  0  0  0  0  0
 36 37  2  0  0  0
 36 38  1  0  0  0
 36 39  1  0  0  0
 36 35  1  0  0  0
 35 31  1  0  0  0
 31 32  2  0  0  0
 31 33  1  0  0  0
 31 30  1  0  0  0
 30 26  1  0  0  0
 26 27  2  0  0  0
 26 28  1  0  0  0
 26 25  1  0  0  0
 25 24  1  0  0  0
 24  1  1  0  0  0
  1  2  1  0  0  0
  1  3  1  0  0  0
  2  7  1  0  0  0
  3  4  1  0  0  0
  3  5  1  0  0  0
  5  6  1  0  0  0
  5  7  1  0  0  0
  7 10  1  0  0  0
 10 11  1  0  0  0
 10 20  1  0  0  0
 11 12  2  0  0  0
 12 13  1  0  0  0
 13 14  1  0  0  0
 13 20  2  0  0  0
 14 15  2  0  0  0
 14 16  1  0  0  0
 16 17  1  0  0  0
 17 18  1  0  0  0
 17 19  2  0  0  0
 19 20  1  0  0  0
 38 40  1  0  0  0
 39 41  1  0  0  0
 33 34  1  0  0  0
 28 29  1  0  0  0
  4  8  1  0  0  0
  6  9  1  0  0  0
 16 21  1  0  0  0
 18 22  1  0  0  0
 18 23  1  0  0  0
M  END
> <minimizedAffinity>
-7.02879

$$$$
