3EVD_GTP_A_901
  RCSB PDB12061708303D
Coordinates from PDB:3EVD:A:901 Model:1 without hydrogens
 32 34  0  0  0  0            999 V2000
   27.9710   30.7380  -39.5880   P 0  0  0  0  0  0  0  0  0  0  0  0
   26.6240   31.5970  -39.3930   O 0  0  0  0  0  0  0  0  0  0  0  0
   28.9720   31.2320  -38.4290   O 0  0  0  0  0  0  0  0  0  0  0  0
   28.5450   30.9060  -40.9410   O 0  0  0  0  0  0  0  0  0  0  0  0
   27.5810   29.2110  -39.2650   O 0  0  0  0  0  0  0  0  0  0  0  0
   28.5580   27.9930  -39.6620   P 0  0  0  0  0  0  0  0  0  0  0  0
   29.7460   28.0240  -38.5750   O 0  0  0  0  0  0  0  0  0  0  0  0
   27.8460   26.6950  -39.6910   O 0  0  0  0  0  0  0  0  0  0  0  0
   29.2460   28.3410  -41.0790   O 0  0  0  0  0  0  0  0  0  0  0  0
   28.4870   28.0480  -42.4730   P 0  0  0  0  0  0  0  0  0  0  0  0
   29.3830   28.7670  -43.6040   O 0  0  0  0  0  0  0  0  0  0  0  0
   27.0980   28.5630  -42.4560   O 0  0  0  0  0  0  0  0  0  0  0  0
   28.5910   26.4690  -42.7920   O 0  0  0  0  0  0  0  0  0  0  0  0
   27.4640   25.7480  -43.3330   C 0  0  0  0  0  0  0  0  0  0  0  0
   27.8970   24.7890  -44.4400   C 0  0  0  0  0  0  0  0  0  0  0  0
   27.7520   25.4000  -45.7460   O 0  0  0  0  0  0  0  0  0  0  0  0
   29.3310   24.2900  -44.4150   C 0  0  0  0  0  0  0  0  0  0  0  0
   29.4800   23.2070  -43.5090   O 0  0  0  0  0  0  0  0  0  0  0  0
   29.5660   23.8440  -45.8600   C 0  0  0  0  0  0  0  0  0  0  0  0
   29.1700   22.5110  -46.1110   O 0  0  0  0  0  0  0  0  0  0  0  0
   28.6860   24.8210  -46.6470   C 0  0  0  0  0  0  0  0  0  0  0  0
   29.4030   25.8960  -47.3310   N 0  0  0  0  0  0  0  0  0  0  0  0
   30.0590   26.9590  -46.7530   C 0  0  0  0  0  0  0  0  0  0  0  0
   30.5660   27.7830  -47.6290   N 0  0  0  0  0  0  0  0  0  0  0  0
   30.2370   27.2320  -48.8580   C 0  0  0  0  0  0  0  0  0  0  0  0
   30.5070   27.6910  -50.1740   C 0  0  0  0  0  0  0  0  0  0  0  0
   31.1040   28.7150  -50.5240   O 0  0  0  0  0  0  0  0  0  0  0  0
   29.9970   26.8230  -51.1330   N 0  0  0  0  0  0  0  0  0  0  0  0
   29.3120   25.6640  -50.8640   C 0  0  0  0  0  0  0  0  0  0  0  0
   28.9060   24.9570  -51.9260   N 0  0  0  0  0  0  0  0  0  0  0  0
   29.0470   25.2260  -49.6420   N 0  0  0  0  0  0  0  0  0  0  0  0
   29.5340   26.0570  -48.6940   C 0  0  0  0  0  0  0  0  0  0  0  0
  1  2  2  0  0  0  0
  1  3  1  0  0  0  0
  1  4  1  0  0  0  0
  1  5  1  0  0  0  0
  5  6  1  0  0  0  0
  6  7  2  0  0  0  0
  6  8  1  0  0  0  0
  6  9  1  0  0  0  0
  9 10  1  0  0  0  0
 10 11  2  0  0  0  0
 10 12  1  0  0  0  0
 10 13  1  0  0  0  0
 13 14  1  0  0  0  0
 14 15  1  0  0  0  0
 15 16  1  0  0  0  0
 15 17  1  0  0  0  0
 16 21  1  0  0  0  0
 17 18  1  0  0  0  0
 17 19  1  0  0  0  0
 19 20  1  0  0  0  0
 19 21  1  0  0  0  0
 21 22  1  0  0  0  0
 22 23  1  0  0  0  0
 22 32  1  0  0  0  0
 23 24  2  0  0  0  0
 24 25  1  0  0  0  0
 25 26  1  0  0  0  0
 25 32  2  0  0  0  0
 26 27  2  0  0  0  0
 26 28  1  0  0  0  0
 28 29  1  0  0  0  0
 29 30  1  0  0  0  0
 29 31  2  0  0  0  0
 31 32  1  0  0  0  0
A    1
PG
A    2
O1G
A    3
O2G
A    4
O3G
A    5
O3B
A    6
PB
A    7
O1B
A    8
O2B
A    9
O3A
A   10
PA
A   11
O1A
A   12
O2A
A   13
O5'
A   14
C5'
A   15
C4'
A   16
O4'
A   17
C3'
A   18
O3'
A   19
C2'
A   20
O2'
A   21
C1'
A   22
N9
A   23
C8
A   24
N7
A   25
C5
A   26
C6
A   27
O6
A   28
N1
A   29
C2
A   30
N2
A   31
N3
A   32
C4
M  END
>  <InstanceId>
3EVD_GTP_A_901

>  <ChemCompId>
GTP

>  <PdbId>
3EVD

>  <ChainId>
A

>  <ResidueNumber>
901

>  <InsertionCode>


>  <Model>
1

>  <AltIds>


>  <MissingHeavyAtoms>
0

>  <ObservedFormula>
C10 N5 O14 P3

>  <Name>
GUANOSINE-5'-TRIPHOSPHATE

>  <SystematicName>
[[(2R,3S,4R,5R)-5-(2-azanyl-6-oxidanylidene-1H-purin-9-yl)-3,4-bis(oxidanyl)oxolan-2-yl]methoxy-oxidanyl-phosphoryl] phosphono hydrogen phosphate

>  <Synonyms>


>  <Type>
NON-POLYMER

>  <Formula>
C10 H16 N5 O14 P3

>  <MolecularWeight>
523.18

>  <ModifiedDate>
2013-03-22

>  <Parent>
G

>  <OneLetterCode>
G

>  <SubcomponentList>


>  <AmbiguousFlag>
N

>  <InChI>
InChI=1S/C10H16N5O14P3/c11-10-13-7-4(8(18)14-10)12-2-15(7)9-6(17)5(16)3(27-9)1-26-31(22,23)29-32(24,25)28-30(19,20)21/h2-3,5-6,9,16-17H,1H2,(H,22,23)(H,24,25)(H2,19,20,21)(H3,11,13,14,18)/t3-,5-,6-,9-/m1/s1

>  <InChIKey>
XKMLYUALXHKNFT-UUOKFMHZSA-N

>  <SMILES>
c1nc2c(n1[C@H]3[C@@H]([C@@H]([C@H](O3)CO[P@](=O)(O)O[P@](=O)(O)OP(=O)(O)O)O)O)N=C(NC2=O)N

$$$$
