2WEH_FB1_A_1263


 13 13  0  0  0  0  0  0  0  0999 V2000
   14.9008    6.8163   15.4013 C   0  0  0  0  0  0  0  0  0  0  0  0
   15.1388    4.2242   18.2867 Cl  0  0  0  0  0  0  0  0  0  0  0  0
   15.4584    6.1145   14.3459 C   0  0  0  0  0  0  0  0  0  0  0  0
   15.9158    4.8114   14.5065 C   0  0  0  0  0  0  0  0  0  0  0  0
   15.8505    4.1340   15.7378 C   0  0  0  0  0  0  0  0  0  0  0  0
   15.2768    4.8737   16.7663 C   0  0  0  0  0  0  0  0  0  0  0  0
   14.7903    6.1711   16.6006 C   0  0  0  0  0  0  0  0  0  0  0  0
   16.3476    2.5461   15.8835 S   0  0  0  0  0  0  0  0  0  0  0  0
   15.3789    1.7225   16.8789 N   0  0  0  0  0  0  0  0  0  0  0  0
   16.4599    1.9574   14.6154 O   0  0  0  0  0  0  0  0  0  0  0  0
   17.6321    2.5622   16.5154 O   0  0  0  0  0  0  0  0  0  0  0  0
   14.4413    1.6764   16.4799 H   0  0  0  0  0  0  0  0  0  0  0  0
   15.3409    2.1932   17.7830 H   0  0  0  0  0  0  0  0  0  0  0  0
  2  6  1  0  0  0
  6  5  1  0  0  0
  6  7  2  0  0  0
  5  8  1  0  0  0
  5  4  2  0  0  0
  8 10  2  0  0  0
  8 11  2  0  0  0
  8  9  1  0  0  0
  7  1  1  0  0  0
  1  3  2  0  0  0
  3  4  1  0  0  0
  9 12  1  0  0  0
  9 13  1  0  0  0
M  END
> <minimizedAffinity>
-6.83523

$$$$
2WEH_FB1_A_1263


 13 13  0  0  0  0  0  0  0  0999 V2000
   14.8225    3.6083   18.1572 C   0  0  0  0  0  0  0  0  0  0  0  0
   15.3553    6.6749   15.8305 Cl  0  0  0  0  0  0  0  0  0  0  0  0
   15.3699    2.5843   17.4028 C   0  0  0  0  0  0  0  0  0  0  0  0
   15.9261    2.8265   16.1519 C   0  0  0  0  0  0  0  0  0  0  0  0
   15.9602    4.1096   15.5756 C   0  0  0  0  0  0  0  0  0  0  0  0
   15.4069    5.1071   16.3711 C   0  0  0  0  0  0  0  0  0  0  0  0
   14.8743    4.8716   17.6393 C   0  0  0  0  0  0  0  0  0  0  0  0
   16.6942    4.3803   14.1000 S   0  0  0  0  0  0  0  0  0  0  0  0
   15.6366    4.9479   13.0198 N   0  0  0  0  0  0  0  0  0  0  0  0
   17.8123    5.2115   14.2626 O   0  0  0  0  0  0  0  0  0  0  0  0
   17.1171    3.1076   13.5991 O   0  0  0  0  0  0  0  0  0  0  0  0
   15.2968    5.8603   13.3238 H   0  0  0  0  0  0  0  0  0  0  0  0
   14.8514    4.3017   12.9407 H   0  0  0  0  0  0  0  0  0  0  0  0
  2  6  1  0  0  0
  6  5  1  0  0  0
  6  7  2  0  0  0
  5  8  1  0  0  0
  5  4  2  0  0  0
  8 10  2  0  0  0
  8 11  2  0  0  0
  8  9  1  0  0  0
  7  1  1  0  0  0
  1  3  2  0  0  0
  3  4  1  0  0  0
  9 12  1  0  0  0
  9 13  1  0  0  0
M  END
> <minimizedAffinity>
-6.53681

$$$$
2WEH_FB1_A_1263


 13 13  0  0  0  0  0  0  0  0999 V2000
   14.7554    4.4391   18.1436 C   0  0  0  0  0  0  0  0  0  0  0  0
   15.0851    6.8632   15.1244 Cl  0  0  0  0  0  0  0  0  0  0  0  0
   15.4160    3.3156   17.6759 C   0  0  0  0  0  0  0  0  0  0  0  0
   15.9878    3.2891   16.4088 C   0  0  0  0  0  0  0  0  0  0  0  0
   15.9251    4.3848   15.5285 C   0  0  0  0  0  0  0  0  0  0  0  0
   15.2597    5.4924   16.0426 C   0  0  0  0  0  0  0  0  0  0  0  0
   14.7104    5.5319   17.3248 C   0  0  0  0  0  0  0  0  0  0  0  0
   16.6785    4.3465   14.0383 S   0  0  0  0  0  0  0  0  0  0  0  0
   17.9045    5.3957   13.9793 N   0  0  0  0  0  0  0  0  0  0  0  0
   17.0635    3.0344   13.7260 O   0  0  0  0  0  0  0  0  0  0  0  0
   15.7267    4.8052   13.0722 O   0  0  0  0  0  0  0  0  0  0  0  0
   18.6207    5.1199   14.6512 H   0  0  0  0  0  0  0  0  0  0  0  0
   17.5643    6.3294   14.2092 H   0  0  0  0  0  0  0  0  0  0  0  0
  2  6  1  0  0  0
  6  5  1  0  0  0
  6  7  2  0  0  0
  5  8  1  0  0  0
  5  4  2  0  0  0
  8 10  2  0  0  0
  8 11  2  0  0  0
  8  9  1  0  0  0
  7  1  1  0  0  0
  1  3  2  0  0  0
  3  4  1  0  0  0
  9 12  1  0  0  0
  9 13  1  0  0  0
M  END
> <minimizedAffinity>
-6.31420

$$$$
2WEH_FB1_A_1263


 13 13  0  0  0  0  0  0  0  0999 V2000
   14.7810    4.1807   17.9749 C   0  0  0  0  0  0  0  0  0  0  0  0
   16.6496    2.4459   15.0423 Cl  0  0  0  0  0  0  0  0  0  0  0  0
   14.6586    5.4767   17.5030 C   0  0  0  0  0  0  0  0  0  0  0  0
   15.1497    5.8400   16.2541 C   0  0  0  0  0  0  0  0  0  0  0  0
   15.8018    4.9282   15.4040 C   0  0  0  0  0  0  0  0  0  0  0  0
   15.8950    3.6382   15.9150 C   0  0  0  0  0  0  0  0  0  0  0  0
   15.3773    3.2640   17.1557 C   0  0  0  0  0  0  0  0  0  0  0  0
   16.3221    5.3783   13.8820 S   0  0  0  0  0  0  0  0  0  0  0  0
   17.9227    5.2159   13.7430 N   0  0  0  0  0  0  0  0  0  0  0  0
   15.6114    4.6717   12.9007 O   0  0  0  0  0  0  0  0  0  0  0  0
   16.0594    6.7788   13.7432 O   0  0  0  0  0  0  0  0  0  0  0  0
   18.1737    4.2315   13.8340 H   0  0  0  0  0  0  0  0  0  0  0  0
   18.3840    5.7537   14.4767 H   0  0  0  0  0  0  0  0  0  0  0  0
  2  6  1  0  0  0
  6  5  1  0  0  0
  6  7  2  0  0  0
  5  8  1  0  0  0
  5  4  2  0  0  0
  8 10  2  0  0  0
  8 11  2  0  0  0
  8  9  1  0  0  0
  7  1  1  0  0  0
  1  3  2  0  0  0
  3  4  1  0  0  0
  9 12  1  0  0  0
  9 13  1  0  0  0
M  END
> <minimizedAffinity>
-6.12712

$$$$
2WEH_FB1_A_1263


 13 13  0  0  0  0  0  0  0  0999 V2000
   15.9633    6.6798   14.6298 C   0  0  0  0  0  0  0  0  0  0  0  0
   16.5281    2.8380   14.7812 Cl  0  0  0  0  0  0  0  0  0  0  0  0
   15.2512    6.9056   15.7957 C   0  0  0  0  0  0  0  0  0  0  0  0
   14.9359    5.8653   16.6625 C   0  0  0  0  0  0  0  0  0  0  0  0
   15.3076    4.5322   16.4097 C   0  0  0  0  0  0  0  0  0  0  0  0
   16.0270    4.3538   15.2330 C   0  0  0  0  0  0  0  0  0  0  0  0
   16.3699    5.4004   14.3760 C   0  0  0  0  0  0  0  0  0  0  0  0
   14.9719    3.3142   17.5022 S   0  0  0  0  0  0  0  0  0  0  0  0
   16.1095    2.1689   17.4640 N   0  0  0  0  0  0  0  0  0  0  0  0
   14.7793    3.8541   18.7824 O   0  0  0  0  0  0  0  0  0  0  0  0
   13.7648    2.6787   17.0680 O   0  0  0  0  0  0  0  0  0  0  0  0
   17.0001    2.5641   17.7655 H   0  0  0  0  0  0  0  0  0  0  0  0
   16.2005    1.8117   16.5130 H   0  0  0  0  0  0  0  0  0  0  0  0
  2  6  1  0  0  0
  6  5  1  0  0  0
  6  7  2  0  0  0
  5  8  1  0  0  0
  5  4  2  0  0  0
  8 10  2  0  0  0
  8 11  2  0  0  0
  8  9  1  0  0  0
  7  1  1  0  0  0
  1  3  2  0  0  0
  3  4  1  0  0  0
  9 12  1  0  0  0
  9 13  1  0  0  0
M  END
> <minimizedAffinity>
-6.11733

$$$$
2WEH_FB1_A_1263


 13 13  0  0  0  0  0  0  0  0999 V2000
   17.0666    3.1724   11.2261 C   0  0  0  0  0  0  0  0  0  0  0  0
   16.8414    5.5366   14.3020 Cl  0  0  0  0  0  0  0  0  0  0  0  0
   16.9588    1.9264   11.8204 C   0  0  0  0  0  0  0  0  0  0  0  0
   16.8055    1.7931   13.1958 C   0  0  0  0  0  0  0  0  0  0  0  0
   16.7594    2.9008   14.0619 C   0  0  0  0  0  0  0  0  0  0  0  0
   16.8635    4.1307   13.4212 C   0  0  0  0  0  0  0  0  0  0  0  0
   16.9881    4.2684   12.0381 C   0  0  0  0  0  0  0  0  0  0  0  0
   16.5081    2.7115   15.7023 S   0  0  0  0  0  0  0  0  0  0  0  0
   15.3258    3.6793   16.2250 N   0  0  0  0  0  0  0  0  0  0  0  0
   16.2845    1.3600   16.0033 O   0  0  0  0  0  0  0  0  0  0  0  0
   17.6966    3.1558   16.3654 O   0  0  0  0  0  0  0  0  0  0  0  0
   14.4463    3.4101   15.7842 H   0  0  0  0  0  0  0  0  0  0  0  0
   15.5455    4.6456   15.9832 H   0  0  0  0  0  0  0  0  0  0  0  0
  2  6  1  0  0  0
  6  5  1  0  0  0
  6  7  2  0  0  0
  5  8  1  0  0  0
  5  4  2  0  0  0
  8 10  2  0  0  0
  8 11  2  0  0  0
  8  9  1  0  0  0
  7  1  1  0  0  0
  1  3  2  0  0  0
  3  4  1  0  0  0
  9 12  1  0  0  0
  9 13  1  0  0  0
M  END
> <minimizedAffinity>
-5.79220

$$$$
2WEH_FB1_A_1263


 13 13  0  0  0  0  0  0  0  0999 V2000
   15.2961    2.4822   17.7761 C   0  0  0  0  0  0  0  0  0  0  0  0
   16.6167    3.2518   14.2033 Cl  0  0  0  0  0  0  0  0  0  0  0  0
   14.9176    3.7404   18.2133 C   0  0  0  0  0  0  0  0  0  0  0  0
   15.0582    4.8599   17.4008 C   0  0  0  0  0  0  0  0  0  0  0  0
   15.5950    4.7886   16.1023 C   0  0  0  0  0  0  0  0  0  0  0  0
   15.9538    3.5057   15.7029 C   0  0  0  0  0  0  0  0  0  0  0  0
   15.7868    2.3763   16.5054 C   0  0  0  0  0  0  0  0  0  0  0  0
   15.6901    6.1403   15.1258 S   0  0  0  0  0  0  0  0  0  0  0  0
   14.8194    5.9475   13.7796 N   0  0  0  0  0  0  0  0  0  0  0  0
   15.3321    7.2859   15.8516 O   0  0  0  0  0  0  0  0  0  0  0  0
   17.0508    6.2557   14.6961 O   0  0  0  0  0  0  0  0  0  0  0  0
   13.8328    5.8587   14.0225 H   0  0  0  0  0  0  0  0  0  0  0  0
   15.1270    5.1051   13.2935 H   0  0  0  0  0  0  0  0  0  0  0  0
  2  6  1  0  0  0
  6  5  1  0  0  0
  6  7  2  0  0  0
  5  8  1  0  0  0
  5  4  2  0  0  0
  8 10  2  0  0  0
  8 11  2  0  0  0
  8  9  1  0  0  0
  7  1  1  0  0  0
  1  3  2  0  0  0
  3  4  1  0  0  0
  9 12  1  0  0  0
  9 13  1  0  0  0
M  END
> <minimizedAffinity>
-5.77438

$$$$
2WEH_FB1_A_1263


 13 13  0  0  0  0  0  0  0  0999 V2000
   14.9232    5.7221   16.3170 C   0  0  0  0  0  0  0  0  0  0  0  0
   16.7619    2.4204   15.4120 Cl  0  0  0  0  0  0  0  0  0  0  0  0
   14.9511    6.3997   15.1097 C   0  0  0  0  0  0  0  0  0  0  0  0
   15.5379    5.8397   13.9806 C   0  0  0  0  0  0  0  0  0  0  0  0
   16.1411    4.5687   13.9939 C   0  0  0  0  0  0  0  0  0  0  0  0
   16.0829    3.9225   15.2239 C   0  0  0  0  0  0  0  0  0  0  0  0
   15.4688    4.4700   16.3512 C   0  0  0  0  0  0  0  0  0  0  0  0
   16.7793    3.8950   12.6052 S   0  0  0  0  0  0  0  0  0  0  0  0
   16.0547    4.4831   11.2874 N   0  0  0  0  0  0  0  0  0  0  0  0
   18.1721    4.0595   12.5853 O   0  0  0  0  0  0  0  0  0  0  0  0
   16.4661    2.4983   12.6312 O   0  0  0  0  0  0  0  0  0  0  0  0
   16.2427    5.4829   11.2136 H   0  0  0  0  0  0  0  0  0  0  0  0
   15.0485    4.3305   11.3560 H   0  0  0  0  0  0  0  0  0  0  0  0
  2  6  1  0  0  0
  6  5  1  0  0  0
  6  7  2  0  0  0
  5  8  1  0  0  0
  5  4  2  0  0  0
  8 10  2  0  0  0
  8 11  2  0  0  0
  8  9  1  0  0  0
  7  1  1  0  0  0
  1  3  2  0  0  0
  3  4  1  0  0  0
  9 12  1  0  0  0
  9 13  1  0  0  0
M  END
> <minimizedAffinity>
-5.69405

$$$$
2WEH_FB1_A_1263


 13 13  0  0  0  0  0  0  0  0999 V2000
   16.6517    3.2615   16.0213 C   0  0  0  0  0  0  0  0  0  0  0  0
   16.8981    1.3487   12.6477 Cl  0  0  0  0  0  0  0  0  0  0  0  0
   16.5457    4.5742   15.5934 C   0  0  0  0  0  0  0  0  0  0  0  0
   16.5409    4.8947   14.2406 C   0  0  0  0  0  0  0  0  0  0  0  0
   16.6507    3.9194   13.2325 C   0  0  0  0  0  0  0  0  0  0  0  0
   16.7470    2.6160   13.7078 C   0  0  0  0  0  0  0  0  0  0  0  0
   16.7228    2.2891   15.0642 C   0  0  0  0  0  0  0  0  0  0  0  0
   16.5754    4.3290   11.6151 S   0  0  0  0  0  0  0  0  0  0  0  0
   17.9883    4.0609   10.8808 N   0  0  0  0  0  0  0  0  0  0  0  0
   15.5026    3.6676   10.9994 O   0  0  0  0  0  0  0  0  0  0  0  0
   16.3637    5.7433   11.5472 O   0  0  0  0  0  0  0  0  0  0  0  0
   18.1959    3.0623   10.8971 H   0  0  0  0  0  0  0  0  0  0  0  0
   18.7264    4.5695   11.3676 H   0  0  0  0  0  0  0  0  0  0  0  0
  2  6  1  0  0  0
  6  5  1  0  0  0
  6  7  2  0  0  0
  5  8  1  0  0  0
  5  4  2  0  0  0
  8 10  2  0  0  0
  8 11  2  0  0  0
  8  9  1  0  0  0
  7  1  1  0  0  0
  1  3  2  0  0  0
  3  4  1  0  0  0
  9 12  1  0  0  0
  9 13  1  0  0  0
M  END
> <minimizedAffinity>
-5.60488

$$$$
2WEH_FB1_A_1263


 13 13  0  0  0  0  0  0  0  0999 V2000
   15.6981    2.3414   17.0401 C   0  0  0  0  0  0  0  0  0  0  0  0
   14.3192    5.9709   17.2036 Cl  0  0  0  0  0  0  0  0  0  0  0  0
   16.4089    2.3637   15.8520 C   0  0  0  0  0  0  0  0  0  0  0  0
   16.4819    3.5146   15.0756 C   0  0  0  0  0  0  0  0  0  0  0  0
   15.8395    4.7127   15.4379 C   0  0  0  0  0  0  0  0  0  0  0  0
   15.1448    4.6463   16.6408 C   0  0  0  0  0  0  0  0  0  0  0  0
   15.0941    3.5010   17.4366 C   0  0  0  0  0  0  0  0  0  0  0  0
   16.0002    6.0976   14.5182 S   0  0  0  0  0  0  0  0  0  0  0  0
   14.5750    6.5693   13.9234 N   0  0  0  0  0  0  0  0  0  0  0  0
   16.6431    7.0984   15.2615 O   0  0  0  0  0  0  0  0  0  0  0  0
   16.8033    5.7592   13.3824 O   0  0  0  0  0  0  0  0  0  0  0  0
   13.9542    6.8255   14.6911 H   0  0  0  0  0  0  0  0  0  0  0  0
   14.1594    5.8054   13.3904 H   0  0  0  0  0  0  0  0  0  0  0  0
  2  6  1  0  0  0
  6  5  1  0  0  0
  6  7  2  0  0  0
  5  8  1  0  0  0
  5  4  2  0  0  0
  8 10  2  0  0  0
  8 11  2  0  0  0
  8  9  1  0  0  0
  7  1  1  0  0  0
  1  3  2  0  0  0
  3  4  1  0  0  0
  9 12  1  0  0  0
  9 13  1  0  0  0
M  END
> <minimizedAffinity>
-5.55337

$$$$
