1NKI_PPF_A_5001
  RCSB PDB12061703253D
Coordinates from PDB:1NKI:A:5001 Model:1 without hydrogens
  7  6  0  0  0  0            999 V2000
   36.7970   35.6310   17.3340   C 0  0  0  0  0  0  0  0  0  0  0  0
   35.4740   36.8030   15.4710   O 0  0  0  0  0  0  0  0  0  0  0  0
   37.4360   38.0660   16.2930   O 0  0  0  0  0  0  0  0  0  0  0  0
   35.4310   37.8150   17.7760   O 0  0  0  0  0  0  0  0  0  0  0  0
   37.5800   35.5780   18.3440   O 0  0  0  0  0  0  0  0  0  0  0  0
   36.3700   34.5430   16.8120   O 0  0  0  0  0  0  0  0  0  0  0  0
   36.2520   37.2150   16.6880   P 0  0  0  0  0  0  0  0  0  0  0  0
  1  5  1  0  0  0  0
  1  6  2  0  0  0  0
  1  7  1  0  0  0  0
  2  7  1  0  0  0  0
  3  7  1  0  0  0  0
  4  7  2  0  0  0  0
A    1
C1
A    2
O1
A    3
O2
A    4
O3
A    5
O4
A    6
O5
A    7
P1
M  END
>  <InstanceId>
1NKI_PPF_A_5001

>  <ChemCompId>
PPF

>  <PdbId>
1NKI

>  <ChainId>
A

>  <ResidueNumber>
5001

>  <InsertionCode>


>  <Model>
1

>  <AltIds>


>  <MissingHeavyAtoms>
0

>  <ObservedFormula>
C O5 P

>  <Name>
PHOSPHONOFORMIC ACID

>  <SystematicName>
phosphonomethanoic acid

>  <Synonyms>


>  <Type>
NON-POLYMER

>  <Formula>
C H3 O5 P

>  <MolecularWeight>
126.005

>  <ModifiedDate>
2011-06-04

>  <Parent>


>  <OneLetterCode>


>  <SubcomponentList>


>  <AmbiguousFlag>
N

>  <InChI>
InChI=1S/CH3O5P/c2-1(3)7(4,5)6/h(H,2,3)(H2,4,5,6)

>  <InChIKey>
ZJAOAACCNHFJAH-UHFFFAOYSA-N

>  <SMILES>
C(=O)(O)P(=O)(O)O

$$$$
