3ZLL_4WF_A_400


 21 22  0  0  0  0  0  0  0  0999 V2000
   38.7569    1.5155   10.3598 C   0  0  0  0  0  0  0  0  0  0  0  0
   40.6747    0.2427    9.7765 N   0  0  0  0  0  0  0  0  0  0  0  0
   38.2768    0.4859   11.1121 O   0  0  0  0  0  0  0  0  0  0  0  0
   39.9803    1.3900    9.6825 C   0  0  0  0  0  0  0  0  0  0  0  0
   40.4816    2.4470    8.9083 C   0  0  0  0  0  0  0  0  0  0  0  0
   37.8224    4.8022    9.4435 O   0  0  0  0  0  0  0  0  0  0  0  0
   38.4876    3.7677    9.5022 C   0  0  0  0  0  0  0  0  0  0  0  0
   38.0093    2.7101   10.2910 N   0  0  0  0  0  0  0  0  0  0  0  0
   41.5632    2.3321    8.2980 O   0  0  0  0  0  0  0  0  0  0  0  0
   39.7191    3.6415    8.8177 N   0  0  0  0  0  0  0  0  0  0  0  0
   40.3256   -0.5010   10.3190 H   0  0  0  0  0  0  0  0  0  0  0  0
   41.5323    0.1461    9.3028 H   0  0  0  0  0  0  0  0  0  0  0  0
   38.7583   -0.3158   11.1707 H   0  0  0  0  0  0  0  0  0  0  0  0
   40.0515    4.3906    8.2722 H   0  0  0  0  0  0  0  0  0  0  0  0
   36.7008    2.8324   10.9774 C   0  0  0  0  0  0  0  0  0  0  0  0
   33.1780    1.2295    9.0786 C   0  0  0  0  0  0  0  0  0  0  0  0
   33.7545    2.3923    8.5783 C   0  0  0  0  0  0  0  0  0  0  0  0
   33.7383    0.5891   10.1777 C   0  0  0  0  0  0  0  0  0  0  0  0
   34.8937    2.9338    9.1707 C   0  0  0  0  0  0  0  0  0  0  0  0
   34.8767    1.1370   10.7636 C   0  0  0  0  0  0  0  0  0  0  0  0
   35.4552    2.3082   10.2693 C   0  0  0  0  0  0  0  0  0  0  0  0
  1  3  1  0  0  0
  1  4  2  0  0  0
  1  8  1  0  0  0
  2  4  1  0  0  0
  4  5  1  0  0  0
  5  9  2  0  0  0
  5 10  1  0  0  0
  6  7  2  0  0  0
 16 17  1  0  0  0
 16 18  2  0  0  0
 17 19  2  0  0  0
 18 20  1  0  0  0
 19 21  1  0  0  0
 20 21  2  0  0  0
 15  8  1  0  0  0
 15 21  1  0  0  0
  8  7  1  0  0  0
  7 10  1  0  0  0
  2 11  1  0  0  0
  2 12  1  0  0  0
  3 13  1  0  0  0
 10 14  1  0  0  0
M  END
> <minimizedAffinity>
-6.66983

$$$$
3ZLL_4WF_A_400


 21 22  0  0  0  0  0  0  0  0999 V2000
   35.7501    1.6890    8.1957 C   0  0  0  0  0  0  0  0  0  0  0  0
   34.5759    2.0468    6.1631 N   0  0  0  0  0  0  0  0  0  0  0  0
   36.9387    1.9332    7.5762 O   0  0  0  0  0  0  0  0  0  0  0  0
   34.5473    1.7502    7.4740 C   0  0  0  0  0  0  0  0  0  0  0  0
   33.3197    1.5024    8.1062 C   0  0  0  0  0  0  0  0  0  0  0  0
   34.5517    0.8533   11.4176 O   0  0  0  0  0  0  0  0  0  0  0  0
   34.5350    1.1194   10.2156 C   0  0  0  0  0  0  0  0  0  0  0  0
   35.7536    1.3917    9.5750 N   0  0  0  0  0  0  0  0  0  0  0  0
   32.2520    1.5464    7.4631 O   0  0  0  0  0  0  0  0  0  0  0  0
   33.3228    1.1789    9.4889 N   0  0  0  0  0  0  0  0  0  0  0  0
   35.4358    2.2213    5.7165 H   0  0  0  0  0  0  0  0  0  0  0  0
   33.7370    2.0895    5.6496 H   0  0  0  0  0  0  0  0  0  0  0  0
   36.9577    2.1325    6.6609 H   0  0  0  0  0  0  0  0  0  0  0  0
   32.4713    0.9938    9.9471 H   0  0  0  0  0  0  0  0  0  0  0  0
   37.0250    1.2927   10.3313 C   0  0  0  0  0  0  0  0  0  0  0  0
   38.6653    4.7459   12.3237 C   0  0  0  0  0  0  0  0  0  0  0  0
   37.6259    4.9116   11.4143 C   0  0  0  0  0  0  0  0  0  0  0  0
   39.1649    3.4764   12.5899 C   0  0  0  0  0  0  0  0  0  0  0  0
   37.0752    3.8141   10.7553 C   0  0  0  0  0  0  0  0  0  0  0  0
   38.6086    2.3853   11.9269 C   0  0  0  0  0  0  0  0  0  0  0  0
   37.5696    2.5471   11.0077 C   0  0  0  0  0  0  0  0  0  0  0  0
  1  3  1  0  0  0
  1  4  2  0  0  0
  1  8  1  0  0  0
  2  4  1  0  0  0
  4  5  1  0  0  0
  5  9  2  0  0  0
  5 10  1  0  0  0
  6  7  2  0  0  0
 16 17  1  0  0  0
 16 18  2  0  0  0
 17 19  2  0  0  0
 18 20  1  0  0  0
 19 21  1  0  0  0
 20 21  2  0  0  0
 15  8  1  0  0  0
 15 21  1  0  0  0
  8  7  1  0  0  0
  7 10  1  0  0  0
  2 11  1  0  0  0
  2 12  1  0  0  0
  3 13  1  0  0  0
 10 14  1  0  0  0
M  END
> <minimizedAffinity>
-6.62015

$$$$
3ZLL_4WF_A_400


 21 22  0  0  0  0  0  0  0  0999 V2000
   34.3980    1.0389   10.0021 C   0  0  0  0  0  0  0  0  0  0  0  0
   32.0320    0.9309    9.8320 N   0  0  0  0  0  0  0  0  0  0  0  0
   34.3448    0.6182   11.2969 O   0  0  0  0  0  0  0  0  0  0  0  0
   33.2182    1.1948    9.2570 C   0  0  0  0  0  0  0  0  0  0  0  0
   33.2659    1.6252    7.9227 C   0  0  0  0  0  0  0  0  0  0  0  0
   36.8269    1.9783    7.6078 O   0  0  0  0  0  0  0  0  0  0  0  0
   35.7209    1.7492    8.0979 C   0  0  0  0  0  0  0  0  0  0  0  0
   35.6594    1.2964    9.4248 N   0  0  0  0  0  0  0  0  0  0  0  0
   32.2175    1.7738    7.2637 O   0  0  0  0  0  0  0  0  0  0  0  0
   34.5327    1.9086    7.3470 N   0  0  0  0  0  0  0  0  0  0  0  0
   31.9952    0.6287   10.7682 H   0  0  0  0  0  0  0  0  0  0  0  0
   31.2002    1.0399    9.3168 H   0  0  0  0  0  0  0  0  0  0  0  0
   33.5169    0.4418   11.6986 H   0  0  0  0  0  0  0  0  0  0  0  0
   34.5846    2.2196    6.4144 H   0  0  0  0  0  0  0  0  0  0  0  0
   36.9039    1.1656   10.2201 C   0  0  0  0  0  0  0  0  0  0  0  0
   38.5632    4.5721   12.2762 C   0  0  0  0  0  0  0  0  0  0  0  0
   37.4682    4.7478   11.4365 C   0  0  0  0  0  0  0  0  0  0  0  0
   39.1119    3.3073   12.4531 C   0  0  0  0  0  0  0  0  0  0  0  0
   36.9099    3.6655   10.7591 C   0  0  0  0  0  0  0  0  0  0  0  0
   38.5478    2.2314   11.7723 C   0  0  0  0  0  0  0  0  0  0  0  0
   37.4527    2.4037   10.9227 C   0  0  0  0  0  0  0  0  0  0  0  0
  1  3  1  0  0  0
  1  4  2  0  0  0
  1  8  1  0  0  0
  2  4  1  0  0  0
  4  5  1  0  0  0
  5  9  2  0  0  0
  5 10  1  0  0  0
  6  7  2  0  0  0
 16 17  1  0  0  0
 16 18  2  0  0  0
 17 19  2  0  0  0
 18 20  1  0  0  0
 19 21  1  0  0  0
 20 21  2  0  0  0
 15  8  1  0  0  0
 15 21  1  0  0  0
  8  7  1  0  0  0
  7 10  1  0  0  0
  2 11  1  0  0  0
  2 12  1  0  0  0
  3 13  1  0  0  0
 10 14  1  0  0  0
M  END
> <minimizedAffinity>
-6.61213

$$$$
3ZLL_4WF_A_400


 21 22  0  0  0  0  0  0  0  0999 V2000
   38.5106    2.9282   11.0930 C   0  0  0  0  0  0  0  0  0  0  0  0
   38.5380    0.5852   11.4777 N   0  0  0  0  0  0  0  0  0  0  0  0
   39.7939    3.0372   11.5375 O   0  0  0  0  0  0  0  0  0  0  0  0
   37.8739    1.6773   11.0609 C   0  0  0  0  0  0  0  0  0  0  0  0
   36.5536    1.5576   10.6019 C   0  0  0  0  0  0  0  0  0  0  0  0
   35.9443    5.0141    9.8365 O   0  0  0  0  0  0  0  0  0  0  0  0
   36.5169    3.9905   10.2113 C   0  0  0  0  0  0  0  0  0  0  0  0
   37.8455    4.0918   10.6519 N   0  0  0  0  0  0  0  0  0  0  0  0
   35.9842    0.4482   10.5831 O   0  0  0  0  0  0  0  0  0  0  0  0
   35.8738    2.7309   10.1805 N   0  0  0  0  0  0  0  0  0  0  0  0
   39.4646    0.6659   11.8003 H   0  0  0  0  0  0  0  0  0  0  0  0
   38.0977   -0.2952   11.4603 H   0  0  0  0  0  0  0  0  0  0  0  0
   40.2530    2.2763   11.8347 H   0  0  0  0  0  0  0  0  0  0  0  0
   34.9441    2.6670    9.8632 H   0  0  0  0  0  0  0  0  0  0  0  0
   38.5039    5.4186   10.7172 C   0  0  0  0  0  0  0  0  0  0  0  0
   37.8484    8.0038   14.1043 C   0  0  0  0  0  0  0  0  0  0  0  0
   37.9202    6.6283   14.2986 C   0  0  0  0  0  0  0  0  0  0  0  0
   37.9927    8.5375   12.8290 C   0  0  0  0  0  0  0  0  0  0  0  0
   38.1317    5.7677   13.2231 C   0  0  0  0  0  0  0  0  0  0  0  0
   38.2038    7.6703   11.7600 C   0  0  0  0  0  0  0  0  0  0  0  0
   38.2696    6.2880   11.9489 C   0  0  0  0  0  0  0  0  0  0  0  0
  1  3  1  0  0  0
  1  4  2  0  0  0
  1  8  1  0  0  0
  2  4  1  0  0  0
  4  5  1  0  0  0
  5  9  2  0  0  0
  5 10  1  0  0  0
  6  7  2  0  0  0
 16 17  1  0  0  0
 16 18  2  0  0  0
 17 19  2  0  0  0
 18 20  1  0  0  0
 19 21  1  0  0  0
 20 21  2  0  0  0
 15  8  1  0  0  0
 15 21  1  0  0  0
  8  7  1  0  0  0
  7 10  1  0  0  0
  2 11  1  0  0  0
  2 12  1  0  0  0
  3 13  1  0  0  0
 10 14  1  0  0  0
M  END
> <minimizedAffinity>
-6.59207

$$$$
3ZLL_4WF_A_400


 21 22  0  0  0  0  0  0  0  0999 V2000
   38.0987    2.9138    9.0691 C   0  0  0  0  0  0  0  0  0  0  0  0
   40.0916    3.1140    7.7935 N   0  0  0  0  0  0  0  0  0  0  0  0
   37.5367    3.9545    8.3929 O   0  0  0  0  0  0  0  0  0  0  0  0
   39.3997    2.4857    8.7599 C   0  0  0  0  0  0  0  0  0  0  0  0
   39.9835    1.4131    9.4505 C   0  0  0  0  0  0  0  0  0  0  0  0
   37.2539    0.6586   11.6605 O   0  0  0  0  0  0  0  0  0  0  0  0
   37.9213    1.2086   10.7842 C   0  0  0  0  0  0  0  0  0  0  0  0
   37.3418    2.2684   10.0697 N   0  0  0  0  0  0  0  0  0  0  0  0
   41.1429    1.0393    9.1832 O   0  0  0  0  0  0  0  0  0  0  0  0
   39.2328    0.7779   10.4748 N   0  0  0  0  0  0  0  0  0  0  0  0
   39.6847    3.8671    7.3071 H   0  0  0  0  0  0  0  0  0  0  0  0
   41.0051    2.8212    7.5724 H   0  0  0  0  0  0  0  0  0  0  0  0
   38.0229    4.3963    7.7247 H   0  0  0  0  0  0  0  0  0  0  0  0
   39.6296    0.0288   10.9755 H   0  0  0  0  0  0  0  0  0  0  0  0
   35.9811    2.7408   10.4214 C   0  0  0  0  0  0  0  0  0  0  0  0
   32.6204    1.2075    8.1989 C   0  0  0  0  0  0  0  0  0  0  0  0
   33.0808    0.5085    9.3098 C   0  0  0  0  0  0  0  0  0  0  0  0
   33.2369    2.3925    7.8144 C   0  0  0  0  0  0  0  0  0  0  0  0
   34.1647    0.9797   10.0482 C   0  0  0  0  0  0  0  0  0  0  0  0
   34.3193    2.8561    8.5579 C   0  0  0  0  0  0  0  0  0  0  0  0
   34.7898    2.1543    9.6700 C   0  0  0  0  0  0  0  0  0  0  0  0
  1  3  1  0  0  0
  1  4  2  0  0  0
  1  8  1  0  0  0
  2  4  1  0  0  0
  4  5  1  0  0  0
  5  9  2  0  0  0
  5 10  1  0  0  0
  6  7  2  0  0  0
 16 17  1  0  0  0
 16 18  2  0  0  0
 17 19  2  0  0  0
 18 20  1  0  0  0
 19 21  1  0  0  0
 20 21  2  0  0  0
 15  8  1  0  0  0
 15 21  1  0  0  0
  8  7  1  0  0  0
  7 10  1  0  0  0
  2 11  1  0  0  0
  2 12  1  0  0  0
  3 13  1  0  0  0
 10 14  1  0  0  0
M  END
> <minimizedAffinity>
-6.45346

$$$$
3ZLL_4WF_A_400


 21 22  0  0  0  0  0  0  0  0999 V2000
   37.6828    1.3470   10.5631 C   0  0  0  0  0  0  0  0  0  0  0  0
   38.3898    0.9986   12.8030 N   0  0  0  0  0  0  0  0  0  0  0  0
   37.1610    0.0895   10.5103 O   0  0  0  0  0  0  0  0  0  0  0  0
   38.3060    1.8088   11.7335 C   0  0  0  0  0  0  0  0  0  0  0  0
   38.8431    3.1033   11.7954 C   0  0  0  0  0  0  0  0  0  0  0  0
   38.0218    4.1767    8.4672 O   0  0  0  0  0  0  0  0  0  0  0  0
   38.1209    3.4655    9.4673 C   0  0  0  0  0  0  0  0  0  0  0  0
   37.5683    2.1761    9.4272 N   0  0  0  0  0  0  0  0  0  0  0  0
   39.4059    3.5101   12.8314 O   0  0  0  0  0  0  0  0  0  0  0  0
   38.7508    3.9310   10.6453 N   0  0  0  0  0  0  0  0  0  0  0  0
   38.0138    0.0896   12.7627 H   0  0  0  0  0  0  0  0  0  0  0  0
   38.8271    1.3143   13.6266 H   0  0  0  0  0  0  0  0  0  0  0  0
   37.2267   -0.4766   11.2541 H   0  0  0  0  0  0  0  0  0  0  0  0
   39.1295    4.8394   10.6681 H   0  0  0  0  0  0  0  0  0  0  0  0
   36.9414    1.6786    8.1791 C   0  0  0  0  0  0  0  0  0  0  0  0
   32.6441    1.4741    7.9025 C   0  0  0  0  0  0  0  0  0  0  0  0
   33.2631    2.7147    8.0136 C   0  0  0  0  0  0  0  0  0  0  0  0
   33.4072    0.3126    7.8756 C   0  0  0  0  0  0  0  0  0  0  0  0
   34.6503    2.8124    8.1042 C   0  0  0  0  0  0  0  0  0  0  0  0
   34.7927    0.4194    7.9667 C   0  0  0  0  0  0  0  0  0  0  0  0
   35.4186    1.6623    8.0854 C   0  0  0  0  0  0  0  0  0  0  0  0
  1  3  1  0  0  0
  1  4  2  0  0  0
  1  8  1  0  0  0
  2  4  1  0  0  0
  4  5  1  0  0  0
  5  9  2  0  0  0
  5 10  1  0  0  0
  6  7  2  0  0  0
 16 17  1  0  0  0
 16 18  2  0  0  0
 17 19  2  0  0  0
 18 20  1  0  0  0
 19 21  1  0  0  0
 20 21  2  0  0  0
 15  8  1  0  0  0
 15 21  1  0  0  0
  8  7  1  0  0  0
  7 10  1  0  0  0
  2 11  1  0  0  0
  2 12  1  0  0  0
  3 13  1  0  0  0
 10 14  1  0  0  0
M  END
> <minimizedAffinity>
-6.33988

$$$$
3ZLL_4WF_A_400


 21 22  0  0  0  0  0  0  0  0999 V2000
   38.2959    1.2768    8.6412 C   0  0  0  0  0  0  0  0  0  0  0  0
   40.3188    0.8413    9.8059 N   0  0  0  0  0  0  0  0  0  0  0  0
   38.1374   -0.0505    8.3780 O   0  0  0  0  0  0  0  0  0  0  0  0
   39.4069    1.7283    9.3714 C   0  0  0  0  0  0  0  0  0  0  0  0
   39.5749    3.0934    9.6481 C   0  0  0  0  0  0  0  0  0  0  0  0
   36.6233    4.3310    8.0171 O   0  0  0  0  0  0  0  0  0  0  0  0
   37.4817    3.5513    8.4309 C   0  0  0  0  0  0  0  0  0  0  0  0
   37.3151    2.1805    8.1808 N   0  0  0  0  0  0  0  0  0  0  0  0
   40.5671    3.4959   10.2877 O   0  0  0  0  0  0  0  0  0  0  0  0
   38.6018    4.0075    9.1647 N   0  0  0  0  0  0  0  0  0  0  0  0
   40.2038   -0.1173    9.6134 H   0  0  0  0  0  0  0  0  0  0  0  0
   41.1017    1.1503   10.3167 H   0  0  0  0  0  0  0  0  0  0  0  0
   38.7777   -0.6668    8.6751 H   0  0  0  0  0  0  0  0  0  0  0  0
   38.7078    4.9700    9.3424 H   0  0  0  0  0  0  0  0  0  0  0  0
   36.1593    1.7099    7.3802 C   0  0  0  0  0  0  0  0  0  0  0  0
   32.3761    0.9127    9.2872 C   0  0  0  0  0  0  0  0  0  0  0  0
   33.5561    0.6682    9.9818 C   0  0  0  0  0  0  0  0  0  0  0  0
   32.4193    1.4149    7.9918 C   0  0  0  0  0  0  0  0  0  0  0  0
   34.7939    0.9167    9.3917 C   0  0  0  0  0  0  0  0  0  0  0  0
   33.6604    1.6603    7.4098 C   0  0  0  0  0  0  0  0  0  0  0  0
   34.8482    1.4099    8.1005 C   0  0  0  0  0  0  0  0  0  0  0  0
  1  3  1  0  0  0
  1  4  2  0  0  0
  1  8  1  0  0  0
  2  4  1  0  0  0
  4  5  1  0  0  0
  5  9  2  0  0  0
  5 10  1  0  0  0
  6  7  2  0  0  0
 16 17  1  0  0  0
 16 18  2  0  0  0
 17 19  2  0  0  0
 18 20  1  0  0  0
 19 21  1  0  0  0
 20 21  2  0  0  0
 15  8  1  0  0  0
 15 21  1  0  0  0
  8  7  1  0  0  0
  7 10  1  0  0  0
  2 11  1  0  0  0
  2 12  1  0  0  0
  3 13  1  0  0  0
 10 14  1  0  0  0
M  END
> <minimizedAffinity>
-6.31788

$$$$
3ZLL_4WF_A_400


 21 22  0  0  0  0  0  0  0  0999 V2000
   36.3274    3.5213    9.9272 C   0  0  0  0  0  0  0  0  0  0  0  0
   34.3452    2.6018    8.9978 N   0  0  0  0  0  0  0  0  0  0  0  0
   36.1175    4.6945    9.2670 O   0  0  0  0  0  0  0  0  0  0  0  0
   35.4213    2.4575    9.7905 C   0  0  0  0  0  0  0  0  0  0  0  0
   35.6300    1.2477   10.4695 C   0  0  0  0  0  0  0  0  0  0  0  0
   38.6900    2.1029   12.1456 O   0  0  0  0  0  0  0  0  0  0  0  0
   37.6938    2.1940   11.4279 C   0  0  0  0  0  0  0  0  0  0  0  0
   37.4603    3.4062   10.7603 N   0  0  0  0  0  0  0  0  0  0  0  0
   34.8309    0.2990   10.3401 O   0  0  0  0  0  0  0  0  0  0  0  0
   36.7825    1.1209   11.2892 N   0  0  0  0  0  0  0  0  0  0  0  0
   34.1959    3.4496    8.5200 H   0  0  0  0  0  0  0  0  0  0  0  0
   33.7064    1.8598    8.8950 H   0  0  0  0  0  0  0  0  0  0  0  0
   35.3710    4.7910    8.7090 H   0  0  0  0  0  0  0  0  0  0  0  0
   36.9494    0.2762   11.7666 H   0  0  0  0  0  0  0  0  0  0  0  0
   38.4364    4.5158   10.8790 C   0  0  0  0  0  0  0  0  0  0  0  0
   37.6389    7.7389   13.6287 C   0  0  0  0  0  0  0  0  0  0  0  0
   37.9670    6.4821   14.1261 C   0  0  0  0  0  0  0  0  0  0  0  0
   37.5749    7.9522   12.2566 C   0  0  0  0  0  0  0  0  0  0  0  0
   38.2305    5.4211   13.2619 C   0  0  0  0  0  0  0  0  0  0  0  0
   37.8397    6.8865   11.4002 C   0  0  0  0  0  0  0  0  0  0  0  0
   38.1628    5.6209   11.8948 C   0  0  0  0  0  0  0  0  0  0  0  0
  1  3  1  0  0  0
  1  4  2  0  0  0
  1  8  1  0  0  0
  2  4  1  0  0  0
  4  5  1  0  0  0
  5  9  2  0  0  0
  5 10  1  0  0  0
  6  7  2  0  0  0
 16 17  1  0  0  0
 16 18  2  0  0  0
 17 19  2  0  0  0
 18 20  1  0  0  0
 19 21  1  0  0  0
 20 21  2  0  0  0
 15  8  1  0  0  0
 15 21  1  0  0  0
  8  7  1  0  0  0
  7 10  1  0  0  0
  2 11  1  0  0  0
  2 12  1  0  0  0
  3 13  1  0  0  0
 10 14  1  0  0  0
M  END
> <minimizedAffinity>
-6.27663

$$$$
3ZLL_4WF_A_400


 21 22  0  0  0  0  0  0  0  0999 V2000
   35.3999    2.6765    8.6653 C   0  0  0  0  0  0  0  0  0  0  0  0
   33.3518    2.7998    7.4700 N   0  0  0  0  0  0  0  0  0  0  0  0
   35.9670    3.5904    7.8289 O   0  0  0  0  0  0  0  0  0  0  0  0
   34.0663    2.2774    8.4819 C   0  0  0  0  0  0  0  0  0  0  0  0
   33.4755    1.3387    9.3409 C   0  0  0  0  0  0  0  0  0  0  0  0
   36.2898    0.7465   11.4934 O   0  0  0  0  0  0  0  0  0  0  0  0
   35.6024    1.1994   10.5778 C   0  0  0  0  0  0  0  0  0  0  0  0
   36.1733    2.1560    9.7243 N   0  0  0  0  0  0  0  0  0  0  0  0
   32.2942    0.9762    9.1720 O   0  0  0  0  0  0  0  0  0  0  0  0
   34.2595    0.7951   10.3926 N   0  0  0  0  0  0  0  0  0  0  0  0
   33.7636    3.4587    6.8655 H   0  0  0  0  0  0  0  0  0  0  0  0
   32.4169    2.5234    7.3335 H   0  0  0  0  0  0  0  0  0  0  0  0
   35.4701    3.9481    7.1196 H   0  0  0  0  0  0  0  0  0  0  0  0
   33.8638    0.1289   11.0000 H   0  0  0  0  0  0  0  0  0  0  0  0
   37.5919    2.5501    9.8990 C   0  0  0  0  0  0  0  0  0  0  0  0
   38.5993    5.5752   12.8006 C   0  0  0  0  0  0  0  0  0  0  0  0
   37.8698    5.9288   11.6703 C   0  0  0  0  0  0  0  0  0  0  0  0
   38.9938    4.2563   12.9929 C   0  0  0  0  0  0  0  0  0  0  0  0
   37.5289    4.9728   10.7153 C   0  0  0  0  0  0  0  0  0  0  0  0
   38.6489    3.3075   12.0337 C   0  0  0  0  0  0  0  0  0  0  0  0
   37.9226    3.6588   10.8936 C   0  0  0  0  0  0  0  0  0  0  0  0
  1  3  1  0  0  0
  1  4  2  0  0  0
  1  8  1  0  0  0
  2  4  1  0  0  0
  4  5  1  0  0  0
  5  9  2  0  0  0
  5 10  1  0  0  0
  6  7  2  0  0  0
 16 17  1  0  0  0
 16 18  2  0  0  0
 17 19  2  0  0  0
 18 20  1  0  0  0
 19 21  1  0  0  0
 20 21  2  0  0  0
 15  8  1  0  0  0
 15 21  1  0  0  0
  8  7  1  0  0  0
  7 10  1  0  0  0
  2 11  1  0  0  0
  2 12  1  0  0  0
  3 13  1  0  0  0
 10 14  1  0  0  0
M  END
> <minimizedAffinity>
-6.19917

$$$$
3ZLL_4WF_A_400


 21 22  0  0  0  0  0  0  0  0999 V2000
   37.3520    7.0570    8.4207 C   0  0  0  0  0  0  0  0  0  0  0  0
   36.3360    8.0682    6.5277 N   0  0  0  0  0  0  0  0  0  0  0  0
   38.3496    7.9847    8.4069 O   0  0  0  0  0  0  0  0  0  0  0  0
   36.3256    7.1034    7.4637 C   0  0  0  0  0  0  0  0  0  0  0  0
   35.2940    6.1527    7.4738 C   0  0  0  0  0  0  0  0  0  0  0  0
   36.3764    4.2274   10.3068 O   0  0  0  0  0  0  0  0  0  0  0  0
   36.3507    5.0934    9.4319 C   0  0  0  0  0  0  0  0  0  0  0  0
   37.3640    6.0642    9.4233 N   0  0  0  0  0  0  0  0  0  0  0  0
   34.3878    6.1874    6.6175 O   0  0  0  0  0  0  0  0  0  0  0  0
   35.3173    5.1380    8.4669 N   0  0  0  0  0  0  0  0  0  0  0  0
   37.0586    8.7368    6.5179 H   0  0  0  0  0  0  0  0  0  0  0  0
   35.6211    8.1062    5.8519 H   0  0  0  0  0  0  0  0  0  0  0  0
   38.3596    8.6522    7.7494 H   0  0  0  0  0  0  0  0  0  0  0  0
   34.6059    4.4577    8.4840 H   0  0  0  0  0  0  0  0  0  0  0  0
   38.4651    5.9928   10.4136 C   0  0  0  0  0  0  0  0  0  0  0  0
   37.9054    7.7353   14.3168 C   0  0  0  0  0  0  0  0  0  0  0  0
   37.9935    8.5656   13.2043 C   0  0  0  0  0  0  0  0  0  0  0  0
   37.9918    6.3560   14.1676 C   0  0  0  0  0  0  0  0  0  0  0  0
   38.1739    8.0313   11.9299 C   0  0  0  0  0  0  0  0  0  0  0  0
   38.1720    5.8306   12.8905 C   0  0  0  0  0  0  0  0  0  0  0  0
   38.2681    6.6604   11.7712 C   0  0  0  0  0  0  0  0  0  0  0  0
  1  3  1  0  0  0
  1  4  2  0  0  0
  1  8  1  0  0  0
  2  4  1  0  0  0
  4  5  1  0  0  0
  5  9  2  0  0  0
  5 10  1  0  0  0
  6  7  2  0  0  0
 16 17  1  0  0  0
 16 18  2  0  0  0
 17 19  2  0  0  0
 18 20  1  0  0  0
 19 21  1  0  0  0
 20 21  2  0  0  0
 15  8  1  0  0  0
 15 21  1  0  0  0
  8  7  1  0  0  0
  7 10  1  0  0  0
  2 11  1  0  0  0
  2 12  1  0  0  0
  3 13  1  0  0  0
 10 14  1  0  0  0
M  END
> <minimizedAffinity>
-6.18513

$$$$
