5O1D_9GW_A_402
  RCSB PDB05121802173D
Coordinates from PDB:5O1D:A:402 Model:1 without hydrogens
 20 21  0  0  0  0            999 V2000
   92.5950   89.8470  -47.8610   C 0  0  0  0  0  0  0  0  0  0  0  0
   92.7520   89.8650  -41.7790   C 0  0  0  0  0  0  0  0  0  0  0  0
   91.2490   94.0680  -45.5910   C 0  0  0  0  0  0  0  0  0  0  0  0
   92.5430   91.7420  -42.9720   N 0  0  0  0  0  0  0  0  0  0  0  0
   91.2860   96.3640  -42.7460   O 0  0  0  0  0  0  0  0  0  0  0  0
   91.7150   92.8740  -45.0240   C 0  0  0  0  0  0  0  0  0  0  0  0
   91.8630   91.7060  -45.7240   O 0  0  0  0  0  0  0  0  0  0  0  0
   92.0390   92.8670  -43.6590   C 0  0  0  0  0  0  0  0  0  0  0  0
   90.3210   96.3890  -46.7660   O 0  0  0  0  0  0  0  0  0  0  0  0
   91.8960   94.0390  -42.8930   C 0  0  0  0  0  0  0  0  0  0  0  0
   90.5000   97.5190  -44.8000   O 0  0  0  0  0  0  0  0  0  0  0  0
   91.4270   95.2200  -43.4880   C 0  0  0  0  0  0  0  0  0  0  0  0
   91.0990   95.2450  -44.8420   C 0  0  0  0  0  0  0  0  0  0  0  0
   90.5970   96.4850  -45.5240   C 0  0  0  0  0  0  0  0  0  0  0  0
   91.0440   91.5720  -46.8890   C 0  0  0  0  0  0  0  0  0  0  0  0
   91.1780   90.1490  -47.4050   C 0  0  0  0  0  0  0  0  0  0  0  0
   91.8570   90.6830  -42.4280   C 0  0  0  0  0  0  0  0  0  0  0  0
   94.0340   90.4450  -41.9100   C 0  0  0  0  0  0  0  0  0  0  0  0
   93.8760   91.6050  -42.6290   C 0  0  0  0  0  0  0  0  0  0  0  0
   92.3460   94.0900  -40.8190   I 0  0  0  0  0  0  0  0  0  0  0  0
  1 16  1  0  0  0  0
 16 15  1  0  0  0  0
 15  7  1  0  0  0  0
  9 14  2  0  0  0  0
  7  6  1  0  0  0  0
  3  6  2  0  0  0  0
  3 13  1  0  0  0  0
 14 13  1  0  0  0  0
 14 11  1  0  0  0  0
  6  8  1  0  0  0  0
 13 12  2  0  0  0  0
  8  4  1  0  0  0  0
  8 10  2  0  0  0  0
 12 10  1  0  0  0  0
 12  5  1  0  0  0  0
  4 19  1  0  0  0  0
  4 17  1  0  0  0  0
 10 20  1  0  0  0  0
 19 18  2  0  0  0  0
 17  2  2  0  0  0  0
 18  2  1  0  0  0  0
A    1
C10
A    2
C17
A    3
C01
A    4
N01
A    5
O01
A    6
C02
A    7
O02
A    8
C03
A    9
O03
A   10
C04
A   11
O04
A   12
C05
A   13
C06
A   14
C07
A   15
C08
A   16
C09
A   17
C16
A   18
C18
A   19
C19
A   20
I01
M  END
>  <InstanceId>
5O1D_9GW_A_402

>  <ChemCompId>
9GW

>  <PdbId>
5O1D

>  <ChainId>
A

>  <ResidueNumber>
402

>  <InsertionCode>


>  <Model>
1

>  <AltIds>


>  <MissingHeavyAtoms>
0

>  <ObservedFormula>
C14 N O4 I

>  <Name>
3-iodanyl-2-oxidanyl-5-propoxy-4-pyrrol-1-yl-benzoic acid

>  <SystematicName>
3-iodanyl-2-oxidanyl-5-propoxy-4-pyrrol-1-yl-benzoic acid

>  <Synonyms>


>  <Type>
NON-POLYMER

>  <Formula>
C14 H14 I N O4

>  <MolecularWeight>
387.17

>  <ModifiedDate>
2018-05-04

>  <Parent>


>  <OneLetterCode>


>  <SubcomponentList>


>  <AmbiguousFlag>
N

>  <InChI>
InChI=1S/C14H14INO4/c1-2-7-20-10-8-9(14(18)19)13(17)11(15)12(10)16-5-3-4-6-16/h3-6,8,17H,2,7H2,1H3,(H,18,19)

>  <InChIKey>
HDCGZTAEMHVMPH-UHFFFAOYSA-N

>  <SMILES>
CCCOc1cc(c(c(c1n2cccc2)I)O)C(=O)O

$$$$
