1YVM_TMG_A_501


 15 17  0  0  0  0  0  0  0  0999 V2000
   24.5563  -13.5445    7.6942 C   0  0  0  0  0  0  0  0  0  0  0  0
   23.6140  -12.7361    7.1806 N   0  0  0  0  0  0  0  0  0  0  0  0
   24.1534  -11.8843    6.3788 C   0  0  0  0  0  0  0  0  0  0  0  0
   25.5009  -11.8705    6.4406 N   0  0  0  0  0  0  0  0  0  0  0  0
   25.7487  -13.0443    7.1932 C   0  0  0  0  0  0  0  0  0  0  0  0
   26.9722  -13.5308    7.6383 C   0  0  0  0  0  0  0  0  0  0  0  0
   26.8935  -14.6904    8.4191 C   0  0  0  0  0  0  0  0  0  0  0  0
   25.6806  -15.2358    8.8728 C   0  0  0  0  0  0  0  0  0  0  0  0
   24.4581  -14.6624    8.5123 C   0  0  0  0  0  0  0  0  0  0  0  0
   26.1385  -11.2212    6.0648 H   0  0  0  0  0  0  0  0  0  0  0  0
   23.3166  -10.8167    5.8310 C   0  0  0  0  0  0  0  0  0  0  0  0
   23.6177   -9.9076    4.9039 C   0  0  0  0  0  0  0  0  0  0  0  0
   22.1647   -8.9796    4.3907 S   0  0  0  0  0  0  0  0  0  0  0  0
   21.2007   -9.9538    5.5277 C   0  0  0  0  0  0  0  0  0  0  0  0
   21.8972  -10.8476    6.0780 N   0  0  0  0  0  0  0  0  0  0  0  0
  1  2  1  0  0  0
  1  5  2  0  0  0
  1  9  1  0  0  0
  2  3  2  0  0  0
  3 11  1  0  0  0
  3  4  1  0  0  0
 11 12  2  0  0  0
 11 15  1  0  0  0
 12 13  1  0  0  0
 13 14  1  0  0  0
 14 15  2  0  0  0
  4  5  1  0  0  0
  5  6  1  0  0  0
  6  7  2  0  0  0
  7  8  1  0  0  0
  8  9  2  0  0  0
  4 10  1  0  0  0
M  END
> <minimizedAffinity>
-6.86447

$$$$
1YVM_TMG_A_501


 15 17  0  0  0  0  0  0  0  0999 V2000
   24.5099  -13.4066    7.6224 C   0  0  0  0  0  0  0  0  0  0  0  0
   23.6517  -12.5405    7.0577 N   0  0  0  0  0  0  0  0  0  0  0  0
   24.2841  -11.7494    6.2616 C   0  0  0  0  0  0  0  0  0  0  0  0
   25.6255  -11.8361    6.3754 N   0  0  0  0  0  0  0  0  0  0  0  0
   25.7548  -13.0088    7.1588 C   0  0  0  0  0  0  0  0  0  0  0  0
   26.9201  -13.5766    7.6600 C   0  0  0  0  0  0  0  0  0  0  0  0
   26.7242  -14.7098    8.4586 C   0  0  0  0  0  0  0  0  0  0  0  0
   25.4572  -15.1522    8.8750 C   0  0  0  0  0  0  0  0  0  0  0  0
   24.2962  -14.4959    8.4567 C   0  0  0  0  0  0  0  0  0  0  0  0
   26.3243  -11.2450    6.0126 H   0  0  0  0  0  0  0  0  0  0  0  0
   23.5521  -10.6336    5.6620 C   0  0  0  0  0  0  0  0  0  0  0  0
   22.2386  -10.4087    5.6385 C   0  0  0  0  0  0  0  0  0  0  0  0
   21.8593   -8.7688    5.0039 S   0  0  0  0  0  0  0  0  0  0  0  0
   23.6081   -8.4902    4.8159 C   0  0  0  0  0  0  0  0  0  0  0  0
   24.2818   -9.4583    5.2583 N   0  0  0  0  0  0  0  0  0  0  0  0
  1  2  1  0  0  0
  1  5  2  0  0  0
  1  9  1  0  0  0
  2  3  2  0  0  0
  3 11  1  0  0  0
  3  4  1  0  0  0
 11 12  2  0  0  0
 11 15  1  0  0  0
 12 13  1  0  0  0
 13 14  1  0  0  0
 14 15  2  0  0  0
  4  5  1  0  0  0
  5  6  1  0  0  0
  6  7  2  0  0  0
  7  8  1  0  0  0
  8  9  2  0  0  0
  4 10  1  0  0  0
M  END
> <minimizedAffinity>
-6.21857

$$$$
1YVM_TMG_A_501


 15 17  0  0  0  0  0  0  0  0999 V2000
   26.6393  -13.6096    7.4135 C   0  0  0  0  0  0  0  0  0  0  0  0
   27.3682  -12.8754    6.5562 N   0  0  0  0  0  0  0  0  0  0  0  0
   26.5982  -12.0959    5.8787 C   0  0  0  0  0  0  0  0  0  0  0  0
   25.2872  -12.3754    6.0299 N   0  0  0  0  0  0  0  0  0  0  0  0
   25.3261  -13.2654    7.1309 C   0  0  0  0  0  0  0  0  0  0  0  0
   24.2656  -13.9481    7.7148 C   0  0  0  0  0  0  0  0  0  0  0  0
   24.6260  -14.8110    8.7568 C   0  0  0  0  0  0  0  0  0  0  0  0
   25.9588  -15.1098    9.0869 C   0  0  0  0  0  0  0  0  0  0  0  0
   27.0184  -14.5021    8.4076 C   0  0  0  0  0  0  0  0  0  0  0  0
   24.5139  -12.0495    5.5151 H   0  0  0  0  0  0  0  0  0  0  0  0
   27.1814  -11.3208    4.7835 C   0  0  0  0  0  0  0  0  0  0  0  0
   28.3395  -10.6621    4.7464 C   0  0  0  0  0  0  0  0  0  0  0  0
   28.7197  -10.0851    3.0856 S   0  0  0  0  0  0  0  0  0  0  0  0
   27.1999  -10.8296    2.5314 C   0  0  0  0  0  0  0  0  0  0  0  0
   26.6240  -11.4546    3.4613 N   0  0  0  0  0  0  0  0  0  0  0  0
  1  2  1  0  0  0
  1  5  2  0  0  0
  1  9  1  0  0  0
  2  3  2  0  0  0
  3 11  1  0  0  0
  3  4  1  0  0  0
 11 12  2  0  0  0
 11 15  1  0  0  0
 12 13  1  0  0  0
 13 14  1  0  0  0
 14 15  2  0  0  0
  4  5  1  0  0  0
  5  6  1  0  0  0
  6  7  2  0  0  0
  7  8  1  0  0  0
  8  9  2  0  0  0
  4 10  1  0  0  0
M  END
> <minimizedAffinity>
-5.89891

$$$$
1YVM_TMG_A_501


 15 17  0  0  0  0  0  0  0  0999 V2000
   26.2055  -13.1342    7.3085 C   0  0  0  0  0  0  0  0  0  0  0  0
   26.3209  -12.0307    6.5507 N   0  0  0  0  0  0  0  0  0  0  0  0
   25.1676  -11.4768    6.4004 C   0  0  0  0  0  0  0  0  0  0  0  0
   24.1449  -12.2461    6.8273 N   0  0  0  0  0  0  0  0  0  0  0  0
   24.8429  -13.2536    7.5369 C   0  0  0  0  0  0  0  0  0  0  0  0
   24.3174  -14.3801    8.1584 C   0  0  0  0  0  0  0  0  0  0  0  0
   25.2695  -15.2324    8.7305 C   0  0  0  0  0  0  0  0  0  0  0  0
   26.6544  -15.0737    8.5537 C   0  0  0  0  0  0  0  0  0  0  0  0
   27.1644  -13.9971    7.8227 C   0  0  0  0  0  0  0  0  0  0  0  0
   23.1770  -12.1369    6.6845 H   0  0  0  0  0  0  0  0  0  0  0  0
   25.0533  -10.3441    5.4816 C   0  0  0  0  0  0  0  0  0  0  0  0
   24.2911  -10.2193    4.3953 C   0  0  0  0  0  0  0  0  0  0  0  0
   24.3185   -8.5376    3.7574 S   0  0  0  0  0  0  0  0  0  0  0  0
   25.4151   -8.1014    5.0909 C   0  0  0  0  0  0  0  0  0  0  0  0
   25.5990   -9.0697    5.8753 N   0  0  0  0  0  0  0  0  0  0  0  0
  1  2  1  0  0  0
  1  5  2  0  0  0
  1  9  1  0  0  0
  2  3  2  0  0  0
  3 11  1  0  0  0
  3  4  1  0  0  0
 11 12  2  0  0  0
 11 15  1  0  0  0
 12 13  1  0  0  0
 13 14  1  0  0  0
 14 15  2  0  0  0
  4  5  1  0  0  0
  5  6  1  0  0  0
  6  7  2  0  0  0
  7  8  1  0  0  0
  8  9  2  0  0  0
  4 10  1  0  0  0
M  END
> <minimizedAffinity>
-5.59047

$$$$
1YVM_TMG_A_501


 15 17  0  0  0  0  0  0  0  0999 V2000
   21.4984   -9.9898    5.1301 C   0  0  0  0  0  0  0  0  0  0  0  0
   22.1292  -10.7064    6.0756 N   0  0  0  0  0  0  0  0  0  0  0  0
   23.3242  -10.9915    5.6883 C   0  0  0  0  0  0  0  0  0  0  0  0
   23.5460  -10.7120    4.3874 N   0  0  0  0  0  0  0  0  0  0  0  0
   22.4007   -9.9383    4.0784 C   0  0  0  0  0  0  0  0  0  0  0  0
   22.0346   -9.4093    2.8465 C   0  0  0  0  0  0  0  0  0  0  0  0
   20.8066   -8.7368    2.8383 C   0  0  0  0  0  0  0  0  0  0  0  0
   19.9199   -8.7336    3.9284 C   0  0  0  0  0  0  0  0  0  0  0  0
   20.2536   -9.3741    5.1250 C   0  0  0  0  0  0  0  0  0  0  0  0
   24.2990  -10.9744    3.8099 H   0  0  0  0  0  0  0  0  0  0  0  0
   24.1261  -11.8964    6.5121 C   0  0  0  0  0  0  0  0  0  0  0  0
   25.4214  -11.8255    6.8180 C   0  0  0  0  0  0  0  0  0  0  0  0
   25.8722  -13.0339    8.0719 S   0  0  0  0  0  0  0  0  0  0  0  0
   24.1741  -13.5694    8.0970 C   0  0  0  0  0  0  0  0  0  0  0  0
   23.4532  -12.8595    7.3466 N   0  0  0  0  0  0  0  0  0  0  0  0
  1  2  1  0  0  0
  1  5  2  0  0  0
  1  9  1  0  0  0
  2  3  2  0  0  0
  3 11  1  0  0  0
  3  4  1  0  0  0
 11 12  2  0  0  0
 11 15  1  0  0  0
 12 13  1  0  0  0
 13 14  1  0  0  0
 14 15  2  0  0  0
  4  5  1  0  0  0
  5  6  1  0  0  0
  6  7  2  0  0  0
  7  8  1  0  0  0
  8  9  2  0  0  0
  4 10  1  0  0  0
M  END
> <minimizedAffinity>
-5.40191

$$$$
1YVM_TMG_A_501


 15 17  0  0  0  0  0  0  0  0999 V2000
   23.0236  -10.7439    5.0016 C   0  0  0  0  0  0  0  0  0  0  0  0
   23.1944  -11.2746    6.2241 N   0  0  0  0  0  0  0  0  0  0  0  0
   24.3260  -11.8870    6.2845 C   0  0  0  0  0  0  0  0  0  0  0  0
   24.9190  -12.0351    5.0818 N   0  0  0  0  0  0  0  0  0  0  0  0
   24.1311  -11.1700    4.2840 C   0  0  0  0  0  0  0  0  0  0  0  0
   24.2256  -10.9485    2.9152 C   0  0  0  0  0  0  0  0  0  0  0  0
   23.2615  -10.0773    2.3940 C   0  0  0  0  0  0  0  0  0  0  0  0
   22.1741   -9.5921    3.1401 C   0  0  0  0  0  0  0  0  0  0  0  0
   22.0279   -9.9219    4.4904 C   0  0  0  0  0  0  0  0  0  0  0  0
   25.6896  -12.5927    4.8279 H   0  0  0  0  0  0  0  0  0  0  0  0
   24.6351  -12.6625    7.4859 C   0  0  0  0  0  0  0  0  0  0  0  0
   24.3881  -13.9472    7.7411 C   0  0  0  0  0  0  0  0  0  0  0  0
   25.1946  -14.4878    9.2554 S   0  0  0  0  0  0  0  0  0  0  0  0
   25.8517  -12.8426    9.4355 C   0  0  0  0  0  0  0  0  0  0  0  0
   25.5527  -12.1140    8.4523 N   0  0  0  0  0  0  0  0  0  0  0  0
  1  2  1  0  0  0
  1  5  2  0  0  0
  1  9  1  0  0  0
  2  3  2  0  0  0
  3 11  1  0  0  0
  3  4  1  0  0  0
 11 12  2  0  0  0
 11 15  1  0  0  0
 12 13  1  0  0  0
 13 14  1  0  0  0
 14 15  2  0  0  0
  4  5  1  0  0  0
  5  6  1  0  0  0
  6  7  2  0  0  0
  7  8  1  0  0  0
  8  9  2  0  0  0
  4 10  1  0  0  0
M  END
> <minimizedAffinity>
-5.23925

$$$$
1YVM_TMG_A_501


 15 17  0  0  0  0  0  0  0  0999 V2000
   22.4291   -8.5092    4.5755 C   0  0  0  0  0  0  0  0  0  0  0  0
   23.4540   -9.2958    4.9443 N   0  0  0  0  0  0  0  0  0  0  0  0
   23.0078  -10.3734    5.4913 C   0  0  0  0  0  0  0  0  0  0  0  0
   21.6860  -10.3304    5.7575 N   0  0  0  0  0  0  0  0  0  0  0  0
   21.3023   -9.1749    5.0340 C   0  0  0  0  0  0  0  0  0  0  0  0
   20.0472   -8.5807    4.9773 C   0  0  0  0  0  0  0  0  0  0  0  0
   19.9893   -7.4030    4.2222 C   0  0  0  0  0  0  0  0  0  0  0  0
   21.1261   -6.7625    3.7007 C   0  0  0  0  0  0  0  0  0  0  0  0
   22.3993   -7.3137    3.8695 C   0  0  0  0  0  0  0  0  0  0  0  0
   21.1374  -10.9371    6.3054 H   0  0  0  0  0  0  0  0  0  0  0  0
   23.9677  -11.2951    6.0988 C   0  0  0  0  0  0  0  0  0  0  0  0
   25.2890  -11.1689    6.2215 C   0  0  0  0  0  0  0  0  0  0  0  0
   25.9815  -12.4535    7.2731 S   0  0  0  0  0  0  0  0  0  0  0  0
   24.3351  -13.0971    7.4885 C   0  0  0  0  0  0  0  0  0  0  0  0
   23.4758  -12.3705    6.9225 N   0  0  0  0  0  0  0  0  0  0  0  0
  1  2  1  0  0  0
  1  5  2  0  0  0
  1  9  1  0  0  0
  2  3  2  0  0  0
  3 11  1  0  0  0
  3  4  1  0  0  0
 11 12  2  0  0  0
 11 15  1  0  0  0
 12 13  1  0  0  0
 13 14  1  0  0  0
 14 15  2  0  0  0
  4  5  1  0  0  0
  5  6  1  0  0  0
  6  7  2  0  0  0
  7  8  1  0  0  0
  8  9  2  0  0  0
  4 10  1  0  0  0
M  END
> <minimizedAffinity>
-5.09839

$$$$
1YVM_TMG_A_501


 15 17  0  0  0  0  0  0  0  0999 V2000
   25.3599  -11.4734    5.0594 C   0  0  0  0  0  0  0  0  0  0  0  0
   24.5685  -10.8761    4.1527 N   0  0  0  0  0  0  0  0  0  0  0  0
   23.4409  -10.5623    4.6907 C   0  0  0  0  0  0  0  0  0  0  0  0
   23.2617  -11.1051    5.9126 N   0  0  0  0  0  0  0  0  0  0  0  0
   24.5675  -11.5764    6.1927 C   0  0  0  0  0  0  0  0  0  0  0  0
   24.9964  -12.2939    7.3031 C   0  0  0  0  0  0  0  0  0  0  0  0
   26.3427  -12.6769    7.2700 C   0  0  0  0  0  0  0  0  0  0  0  0
   27.1654  -12.5127    6.1428 C   0  0  0  0  0  0  0  0  0  0  0  0
   26.6816  -11.8935    4.9870 C   0  0  0  0  0  0  0  0  0  0  0  0
   22.4455  -11.1589    6.4605 H   0  0  0  0  0  0  0  0  0  0  0  0
   22.3808  -10.0370    3.8301 C   0  0  0  0  0  0  0  0  0  0  0  0
   21.4717   -9.0995    4.0971 C   0  0  0  0  0  0  0  0  0  0  0  0
   20.5558   -8.6272    2.6227 S   0  0  0  0  0  0  0  0  0  0  0  0
   21.5345   -9.7941    1.6998 C   0  0  0  0  0  0  0  0  0  0  0  0
   22.4218  -10.3257    2.4188 N   0  0  0  0  0  0  0  0  0  0  0  0
  1  2  1  0  0  0
  1  5  2  0  0  0
  1  9  1  0  0  0
  2  3  2  0  0  0
  3 11  1  0  0  0
  3  4  1  0  0  0
 11 12  2  0  0  0
 11 15  1  0  0  0
 12 13  1  0  0  0
 13 14  1  0  0  0
 14 15  2  0  0  0
  4  5  1  0  0  0
  5  6  1  0  0  0
  6  7  2  0  0  0
  7  8  1  0  0  0
  8  9  2  0  0  0
  4 10  1  0  0  0
M  END
> <minimizedAffinity>
-4.82835

$$$$
1YVM_TMG_A_501


 15 17  0  0  0  0  0  0  0  0999 V2000
   21.7142  -10.3147    5.6259 C   0  0  0  0  0  0  0  0  0  0  0  0
   22.7842  -10.9363    6.1494 N   0  0  0  0  0  0  0  0  0  0  0  0
   23.7684  -10.8935    5.3194 C   0  0  0  0  0  0  0  0  0  0  0  0
   23.4145  -10.4608    4.0917 N   0  0  0  0  0  0  0  0  0  0  0  0
   22.1142   -9.9605    4.3463 C   0  0  0  0  0  0  0  0  0  0  0  0
   21.2085   -9.4329    3.4335 C   0  0  0  0  0  0  0  0  0  0  0  0
   19.9687   -9.0757    3.9770 C   0  0  0  0  0  0  0  0  0  0  0  0
   19.5872   -9.3764    5.2955 C   0  0  0  0  0  0  0  0  0  0  0  0
   20.4711  -10.0166    6.1686 C   0  0  0  0  0  0  0  0  0  0  0  0
   23.9219  -10.4859    3.2484 H   0  0  0  0  0  0  0  0  0  0  0  0
   24.9817  -11.6462    5.6384 C   0  0  0  0  0  0  0  0  0  0  0  0
   26.2164  -11.4872    5.1622 C   0  0  0  0  0  0  0  0  0  0  0  0
   27.4067  -12.4931    6.0605 S   0  0  0  0  0  0  0  0  0  0  0  0
   26.0689  -13.0804    7.0787 C   0  0  0  0  0  0  0  0  0  0  0  0
   24.9837  -12.5077    6.7936 N   0  0  0  0  0  0  0  0  0  0  0  0
  1  2  1  0  0  0
  1  5  2  0  0  0
  1  9  1  0  0  0
  2  3  2  0  0  0
  3 11  1  0  0  0
  3  4  1  0  0  0
 11 12  2  0  0  0
 11 15  1  0  0  0
 12 13  1  0  0  0
 13 14  1  0  0  0
 14 15  2  0  0  0
  4  5  1  0  0  0
  5  6  1  0  0  0
  6  7  2  0  0  0
  7  8  1  0  0  0
  8  9  2  0  0  0
  4 10  1  0  0  0
M  END
> <minimizedAffinity>
-4.79922

$$$$
1YVM_TMG_A_501


 15 17  0  0  0  0  0  0  0  0999 V2000
   22.9194  -10.3142    3.5625 C   0  0  0  0  0  0  0  0  0  0  0  0
   23.6570  -11.1676    4.2925 N   0  0  0  0  0  0  0  0  0  0  0  0
   23.3376  -11.0730    5.5369 C   0  0  0  0  0  0  0  0  0  0  0  0
   22.5446  -10.0155    5.8067 N   0  0  0  0  0  0  0  0  0  0  0  0
   22.1721   -9.6170    4.4998 C   0  0  0  0  0  0  0  0  0  0  0  0
   21.3979   -8.5241    4.1285 C   0  0  0  0  0  0  0  0  0  0  0  0
   21.2515   -8.3512    2.7468 C   0  0  0  0  0  0  0  0  0  0  0  0
   21.9601   -9.1030    1.7944 C   0  0  0  0  0  0  0  0  0  0  0  0
   22.8289  -10.1238    2.1899 C   0  0  0  0  0  0  0  0  0  0  0  0
   22.2933   -9.6267    6.6756 H   0  0  0  0  0  0  0  0  0  0  0  0
   24.1324  -11.8118    6.5181 C   0  0  0  0  0  0  0  0  0  0  0  0
   25.3451  -11.5331    6.9958 C   0  0  0  0  0  0  0  0  0  0  0  0
   25.7771  -12.6076    8.3721 S   0  0  0  0  0  0  0  0  0  0  0  0
   24.1888  -13.3929    8.1945 C   0  0  0  0  0  0  0  0  0  0  0  0
   23.4907  -12.8314    7.3090 N   0  0  0  0  0  0  0  0  0  0  0  0
  1  2  1  0  0  0
  1  5  2  0  0  0
  1  9  1  0  0  0
  2  3  2  0  0  0
  3 11  1  0  0  0
  3  4  1  0  0  0
 11 12  2  0  0  0
 11 15  1  0  0  0
 12 13  1  0  0  0
 13 14  1  0  0  0
 14 15  2  0  0  0
  4  5  1  0  0  0
  5  6  1  0  0  0
  6  7  2  0  0  0
  7  8  1  0  0  0
  8  9  2  0  0  0
  4 10  1  0  0  0
M  END
> <minimizedAffinity>
-4.74774

$$$$
