2RK8_PPF_A_3969
  RCSB PDB12061706563D
Coordinates from PDB:2RK8:A:3969 Model:1 without hydrogens
  7  6  0  0  0  0            999 V2000
   23.2760    3.1650    4.8940   C 0  0  0  0  0  0  0  0  0  0  0  0
   22.1050    2.8430    2.6190   O 0  0  0  0  0  0  0  0  0  0  0  0
   20.7720    3.1500    4.7080   O 0  0  0  0  0  0  0  0  0  0  0  0
   22.0950    0.9810    4.4010   O 0  0  0  0  0  0  0  0  0  0  0  0
   23.8690    2.4870    5.7740   O 0  0  0  0  0  0  0  0  0  0  0  0
   23.6060    4.3360    4.6120   O 0  0  0  0  0  0  0  0  0  0  0  0
   21.9530    2.4650    4.0690   P 0  0  0  0  0  0  0  0  0  0  0  0
  1  5  1  0  0  0  0
  1  6  2  0  0  0  0
  1  7  1  0  0  0  0
  2  7  1  0  0  0  0
  3  7  1  0  0  0  0
  4  7  2  0  0  0  0
A    1
C1
A    2
O1
A    3
O2
A    4
O3
A    5
O4
A    6
O5
A    7
P1
M  END
>  <InstanceId>
2RK8_PPF_A_3969

>  <ChemCompId>
PPF

>  <PdbId>
2RK8

>  <ChainId>
A

>  <ResidueNumber>
3969

>  <InsertionCode>


>  <Model>
1

>  <AltIds>


>  <MissingHeavyAtoms>
0

>  <ObservedFormula>
C O5 P

>  <Name>
PHOSPHONOFORMIC ACID

>  <SystematicName>
phosphonomethanoic acid

>  <Synonyms>


>  <Type>
NON-POLYMER

>  <Formula>
C H3 O5 P

>  <MolecularWeight>
126.005

>  <ModifiedDate>
2011-06-04

>  <Parent>


>  <OneLetterCode>


>  <SubcomponentList>


>  <AmbiguousFlag>
N

>  <InChI>
InChI=1S/CH3O5P/c2-1(3)7(4,5)6/h(H,2,3)(H2,4,5,6)

>  <InChIKey>
ZJAOAACCNHFJAH-UHFFFAOYSA-N

>  <SMILES>
C(=O)(O)P(=O)(O)O

$$$$
