1WS4_GYP_A_501
  RCSB PDB12061704343D
Coordinates from PDB:1WS4:A:501 Model:1 without hydrogens
 13 13  0  0  0  0            999 V2000
   51.0840   54.1280   66.3810   C 0  0  0  0  0  0  0  0  0  0  0  0
   51.6640   55.4150   65.7840   C 0  0  0  0  0  0  0  0  0  0  0  0
   51.6710   56.5720   66.7820   C 0  0  0  0  0  0  0  0  0  0  0  0
   50.2330   56.8080   67.2470   C 0  0  0  0  0  0  0  0  0  0  0  0
   49.7010   55.5160   67.9130   C 0  0  0  0  0  0  0  0  0  0  0  0
   48.2610   55.6660   68.4270   C 0  0  0  0  0  0  0  0  0  0  0  0
   51.4270   52.3010   67.9180   C 0  0  0  0  0  0  0  0  0  0  0  0
   51.9540   53.5340   67.3700   O 0  0  0  0  0  0  0  0  0  0  0  0
   52.9930   55.1490   65.3030   O 0  0  0  0  0  0  0  0  0  0  0  0
   52.2070   57.7500   66.1450   O 0  0  0  0  0  0  0  0  0  0  0  0
   50.2100   57.8880   68.1810   O 0  0  0  0  0  0  0  0  0  0  0  0
   49.7480   54.4140   66.9400   O 0  0  0  0  0  0  0  0  0  0  0  0
   47.3570   55.9400   67.3600   O 0  0  0  0  0  0  0  0  0  0  0  0
  1  2  1  0  0  0  0
  1  8  1  0  0  0  0
  1 12  1  0  0  0  0
  2  3  1  0  0  0  0
  2  9  1  0  0  0  0
  3  4  1  0  0  0  0
  3 10  1  0  0  0  0
  4  5  1  0  0  0  0
  4 11  1  0  0  0  0
  5  6  1  0  0  0  0
  5 12  1  0  0  0  0
  6 13  1  0  0  0  0
  7  8  1  0  0  0  0
A    1
C1
A    2
C2
A    3
C3
A    4
C4
A    5
C5
A    6
C6
A    7
C7
A    8
O1
A    9
O2
A   10
O3
A   11
O4
A   12
O5
A   13
O6
M  END
>  <InstanceId>
1WS4_GYP_A_501

>  <ChemCompId>
GYP

>  <PdbId>
1WS4

>  <ChainId>
A

>  <ResidueNumber>
501

>  <InsertionCode>


>  <Model>
1

>  <AltIds>


>  <MissingHeavyAtoms>
0

>  <ObservedFormula>
C7 O6

>  <Name>
METHYL-ALPHA-D-GLUCOPYRANOSIDE

>  <SystematicName>
(2R,3S,4S,5R,6S)-2-(hydroxymethyl)-6-methoxy-oxane-3,4,5-triol

>  <Synonyms>
ALPHA-METHYL-D-GLUCOPYRANOSIDE

>  <Type>
D-SACCHARIDE

>  <Formula>
C7 H14 O6

>  <MolecularWeight>
194.182

>  <ModifiedDate>
2011-06-04

>  <Parent>


>  <OneLetterCode>


>  <SubcomponentList>


>  <AmbiguousFlag>
N

>  <InChI>
InChI=1S/C7H14O6/c1-12-7-6(11)5(10)4(9)3(2-8)13-7/h3-11H,2H2,1H3/t3-,4-,5+,6-,7+/m1/s1

>  <InChIKey>
HOVAGTYPODGVJG-ZFYZTMLRSA-N

>  <SMILES>
CO[C@@H]1[C@@H]([C@H]([C@@H]([C@H](O1)CO)O)O)O

$$$$
