1WS4_GYP_A_501


 17 17  0  0  0  0  0  0  0  0999 V2000
   51.3946   54.1715   66.2258 C   0  0  0  0  0  0  0  0  0  0  0  0
   51.8956   55.5558   65.7990 C   0  0  0  0  0  0  0  0  0  0  0  0
   51.7420   56.6002   66.9036 C   0  0  0  0  0  0  0  0  0  0  0  0
   50.2636   56.6706   67.2897 C   0  0  0  0  0  0  0  0  0  0  0  0
   49.8067   55.2781   67.7878 C   0  0  0  0  0  0  0  0  0  0  0  0
   53.2692   55.4485   65.3866 O   0  0  0  0  0  0  0  0  0  0  0  0
   52.2111   57.8769   66.4234 O   0  0  0  0  0  0  0  0  0  0  0  0
   50.0907   57.6429   68.3213 O   0  0  0  0  0  0  0  0  0  0  0  0
   50.0076   54.2900   66.7171 O   0  0  0  0  0  0  0  0  0  0  0  0
   53.8080   55.1433   66.1332 H   0  0  0  0  0  0  0  0  0  0  0  0
   51.6984   58.1367   65.6421 H   0  0  0  0  0  0  0  0  0  0  0  0
   50.6218   57.3929   69.0935 H   0  0  0  0  0  0  0  0  0  0  0  0
   48.3308   55.2580   68.2140 C   0  0  0  0  0  0  0  0  0  0  0  0
   47.5176   55.9841   67.2962 O   0  0  0  0  0  0  0  0  0  0  0  0
   47.8072   56.9094   67.2696 H   0  0  0  0  0  0  0  0  0  0  0  0
   51.9141   52.1636   67.4572 C   0  0  0  0  0  0  0  0  0  0  0  0
   52.2518   53.5502   67.2092 O   0  0  0  0  0  0  0  0  0  0  0  0
  1  2  1  0  0  0
  1 17  1  0  0  0
  1  9  1  0  0  0
  2  3  1  0  0  0
  2  6  1  0  0  0
  3  4  1  0  0  0
  3  7  1  0  0  0
  4  5  1  0  0  0
  4  8  1  0  0  0
  5 13  1  0  0  0
  5  9  1  0  0  0
 13 14  1  0  0  0
 16 17  1  0  0  0
  6 10  1  0  0  0
  7 11  1  0  0  0
  8 12  1  0  0  0
 14 15  1  0  0  0
M  END
> <minimizedAffinity>
-5.63113

$$$$
1WS4_GYP_A_501


 17 17  0  0  0  0  0  0  0  0999 V2000
   49.8985   55.6028   68.0017 C   0  0  0  0  0  0  0  0  0  0  0  0
   50.7939   56.6793   67.3783 C   0  0  0  0  0  0  0  0  0  0  0  0
   51.3829   56.2459   66.0366 C   0  0  0  0  0  0  0  0  0  0  0  0
   52.1816   54.9607   66.2605 C   0  0  0  0  0  0  0  0  0  0  0  0
   51.2348   53.8706   66.8185 C   0  0  0  0  0  0  0  0  0  0  0  0
   50.0345   57.8920   67.2334 O   0  0  0  0  0  0  0  0  0  0  0  0
   52.2286   57.2960   65.5239 O   0  0  0  0  0  0  0  0  0  0  0  0
   52.7462   54.5336   65.0203 O   0  0  0  0  0  0  0  0  0  0  0  0
   50.6526   54.3366   68.0862 O   0  0  0  0  0  0  0  0  0  0  0  0
   49.2840   57.7344   66.6394 H   0  0  0  0  0  0  0  0  0  0  0  0
   52.9386   57.4785   66.1591 H   0  0  0  0  0  0  0  0  0  0  0  0
   52.0357   54.3732   64.3797 H   0  0  0  0  0  0  0  0  0  0  0  0
   51.9513   52.5334   67.0608 C   0  0  0  0  0  0  0  0  0  0  0  0
   53.2732   52.7367   67.5527 O   0  0  0  0  0  0  0  0  0  0  0  0
   53.7880   53.2361   66.8997 H   0  0  0  0  0  0  0  0  0  0  0  0
   47.4913   55.5348   68.1386 C   0  0  0  0  0  0  0  0  0  0  0  0
   48.6563   55.4306   67.2840 O   0  0  0  0  0  0  0  0  0  0  0  0
  1  2  1  0  0  0
  1 17  1  0  0  0
  1  9  1  0  0  0
  2  3  1  0  0  0
  2  6  1  0  0  0
  3  4  1  0  0  0
  3  7  1  0  0  0
  4  5  1  0  0  0
  4  8  1  0  0  0
  5 13  1  0  0  0
  5  9  1  0  0  0
 13 14  1  0  0  0
 16 17  1  0  0  0
  6 10  1  0  0  0
  7 11  1  0  0  0
  8 12  1  0  0  0
 14 15  1  0  0  0
M  END
> <minimizedAffinity>
-4.64464

$$$$
1WS4_GYP_A_501


 17 17  0  0  0  0  0  0  0  0999 V2000
   51.8045   56.5225   66.4273 C   0  0  0  0  0  0  0  0  0  0  0  0
   50.3221   56.6108   66.8066 C   0  0  0  0  0  0  0  0  0  0  0  0
   49.9304   55.5944   67.8781 C   0  0  0  0  0  0  0  0  0  0  0  0
   50.2569   54.1965   67.3499 C   0  0  0  0  0  0  0  0  0  0  0  0
   51.7727   54.1140   67.0476 C   0  0  0  0  0  0  0  0  0  0  0  0
   50.0311   57.9497   67.2438 O   0  0  0  0  0  0  0  0  0  0  0  0
   48.5227   55.7212   68.1660 O   0  0  0  0  0  0  0  0  0  0  0  0
   49.8980   53.2246   68.3327 O   0  0  0  0  0  0  0  0  0  0  0  0
   52.1236   55.1325   66.0461 O   0  0  0  0  0  0  0  0  0  0  0  0
   50.5621   58.1562   68.0288 H   0  0  0  0  0  0  0  0  0  0  0  0
   48.0119   55.5686   67.3556 H   0  0  0  0  0  0  0  0  0  0  0  0
   50.3933   53.3926   69.1496 H   0  0  0  0  0  0  0  0  0  0  0  0
   52.1966   52.7333   66.5240 C   0  0  0  0  0  0  0  0  0  0  0  0
   51.9997   51.7235   67.5101 O   0  0  0  0  0  0  0  0  0  0  0  0
   52.5393   51.9244   68.2908 H   0  0  0  0  0  0  0  0  0  0  0  0
   54.0686   57.0325   67.0842 C   0  0  0  0  0  0  0  0  0  0  0  0
   52.6754   56.9947   67.4791 O   0  0  0  0  0  0  0  0  0  0  0  0
  1  2  1  0  0  0
  1 17  1  0  0  0
  1  9  1  0  0  0
  2  3  1  0  0  0
  2  6  1  0  0  0
  3  4  1  0  0  0
  3  7  1  0  0  0
  4  5  1  0  0  0
  4  8  1  0  0  0
  5 13  1  0  0  0
  5  9  1  0  0  0
 13 14  1  0  0  0
 16 17  1  0  0  0
  6 10  1  0  0  0
  7 11  1  0  0  0
  8 12  1  0  0  0
 14 15  1  0  0  0
M  END
> <minimizedAffinity>
-4.60849

$$$$
1WS4_GYP_A_501


 17 17  0  0  0  0  0  0  0  0999 V2000
   49.9441   56.5754   67.0573 C   0  0  0  0  0  0  0  0  0  0  0  0
   50.9169   56.0520   65.9947 C   0  0  0  0  0  0  0  0  0  0  0  0
   52.3668   56.0538   66.4768 C   0  0  0  0  0  0  0  0  0  0  0  0
   52.7358   57.4853   66.8698 C   0  0  0  0  0  0  0  0  0  0  0  0
   51.7856   57.9587   67.9963 C   0  0  0  0  0  0  0  0  0  0  0  0
   50.5121   54.7289   65.6023 O   0  0  0  0  0  0  0  0  0  0  0  0
   53.2228   55.5721   65.4204 O   0  0  0  0  0  0  0  0  0  0  0  0
   54.0896   57.5165   67.3231 O   0  0  0  0  0  0  0  0  0  0  0  0
   50.3970   57.9039   67.5144 O   0  0  0  0  0  0  0  0  0  0  0  0
   50.5492   54.1382   66.3708 H   0  0  0  0  0  0  0  0  0  0  0  0
   53.1271   56.1422   64.6414 H   0  0  0  0  0  0  0  0  0  0  0  0
   54.1880   56.9284   68.0883 H   0  0  0  0  0  0  0  0  0  0  0  0
   52.0937   59.3882   68.4674 C   0  0  0  0  0  0  0  0  0  0  0  0
   52.8048   60.1188   67.4717 O   0  0  0  0  0  0  0  0  0  0  0  0
   53.6489   59.6775   67.2880 H   0  0  0  0  0  0  0  0  0  0  0  0
   48.4140   55.2492   68.3680 C   0  0  0  0  0  0  0  0  0  0  0  0
   49.7879   55.6608   68.1650 O   0  0  0  0  0  0  0  0  0  0  0  0
  1  2  1  0  0  0
  1 17  1  0  0  0
  1  9  1  0  0  0
  2  3  1  0  0  0
  2  6  1  0  0  0
  3  4  1  0  0  0
  3  7  1  0  0  0
  4  5  1  0  0  0
  4  8  1  0  0  0
  5 13  1  0  0  0
  5  9  1  0  0  0
 13 14  1  0  0  0
 16 17  1  0  0  0
  6 10  1  0  0  0
  7 11  1  0  0  0
  8 12  1  0  0  0
 14 15  1  0  0  0
M  END
> <minimizedAffinity>
-4.23406

$$$$
1WS4_GYP_A_501


 17 17  0  0  0  0  0  0  0  0999 V2000
   51.9468   56.7376   66.3791 C   0  0  0  0  0  0  0  0  0  0  0  0
   50.4701   56.3356   66.4623 C   0  0  0  0  0  0  0  0  0  0  0  0
   50.2324   55.1773   67.4301 C   0  0  0  0  0  0  0  0  0  0  0  0
   51.0769   53.9891   66.9667 C   0  0  0  0  0  0  0  0  0  0  0  0
   52.5687   54.4019   66.9656 C   0  0  0  0  0  0  0  0  0  0  0  0
   49.6940   57.4850   66.8429 O   0  0  0  0  0  0  0  0  0  0  0  0
   48.8297   54.8410   67.4385 O   0  0  0  0  0  0  0  0  0  0  0  0
   50.8718   52.8893   67.8542 O   0  0  0  0  0  0  0  0  0  0  0  0
   52.7550   55.5447   66.0585 O   0  0  0  0  0  0  0  0  0  0  0  0
   49.9788   57.7921   67.7178 H   0  0  0  0  0  0  0  0  0  0  0  0
   48.5513   54.5930   66.5430 H   0  0  0  0  0  0  0  0  0  0  0  0
   51.1297   53.1468   68.7532 H   0  0  0  0  0  0  0  0  0  0  0  0
   53.4975   53.2599   66.5259 C   0  0  0  0  0  0  0  0  0  0  0  0
   52.8023   52.3066   65.7266 O   0  0  0  0  0  0  0  0  0  0  0  0
   52.0778   51.9193   66.2423 H   0  0  0  0  0  0  0  0  0  0  0  0
   53.3314   58.4741   67.3200 C   0  0  0  0  0  0  0  0  0  0  0  0
   52.4145   57.3841   67.5837 O   0  0  0  0  0  0  0  0  0  0  0  0
  1  2  1  0  0  0
  1 17  1  0  0  0
  1  9  1  0  0  0
  2  3  1  0  0  0
  2  6  1  0  0  0
  3  4  1  0  0  0
  3  7  1  0  0  0
  4  5  1  0  0  0
  4  8  1  0  0  0
  5 13  1  0  0  0
  5  9  1  0  0  0
 13 14  1  0  0  0
 16 17  1  0  0  0
  6 10  1  0  0  0
  7 11  1  0  0  0
  8 12  1  0  0  0
 14 15  1  0  0  0
M  END
> <minimizedAffinity>
-4.20342

$$$$
1WS4_GYP_A_501


 17 17  0  0  0  0  0  0  0  0999 V2000
   51.6519   54.3911   66.8777 C   0  0  0  0  0  0  0  0  0  0  0  0
   50.6747   55.4548   67.3904 C   0  0  0  0  0  0  0  0  0  0  0  0
   51.0003   56.8515   66.8634 C   0  0  0  0  0  0  0  0  0  0  0  0
   52.4282   57.1993   67.2876 C   0  0  0  0  0  0  0  0  0  0  0  0
   53.3994   56.1512   66.6924 C   0  0  0  0  0  0  0  0  0  0  0  0
   49.3364   55.0727   67.0281 O   0  0  0  0  0  0  0  0  0  0  0  0
   50.0564   57.7989   67.4040 O   0  0  0  0  0  0  0  0  0  0  0  0
   52.7586   58.5035   66.8090 O   0  0  0  0  0  0  0  0  0  0  0  0
   53.0322   54.8149   67.1849 O   0  0  0  0  0  0  0  0  0  0  0  0
   49.2632   55.0282   66.0618 H   0  0  0  0  0  0  0  0  0  0  0  0
   50.1041   57.7859   68.3727 H   0  0  0  0  0  0  0  0  0  0  0  0
   52.6885   58.5203   65.8417 H   0  0  0  0  0  0  0  0  0  0  0  0
   54.8656   56.4309   67.0559 C   0  0  0  0  0  0  0  0  0  0  0  0
   54.9671   57.1340   68.2913 O   0  0  0  0  0  0  0  0  0  0  0  0
   54.5111   57.9868   68.2163 H   0  0  0  0  0  0  0  0  0  0  0  0
   52.6179   53.4249   64.8899 C   0  0  0  0  0  0  0  0  0  0  0  0
   51.4849   54.1174   65.4687 O   0  0  0  0  0  0  0  0  0  0  0  0
  1  2  1  0  0  0
  1 17  1  0  0  0
  1  9  1  0  0  0
  2  3  1  0  0  0
  2  6  1  0  0  0
  3  4  1  0  0  0
  3  7  1  0  0  0
  4  5  1  0  0  0
  4  8  1  0  0  0
  5 13  1  0  0  0
  5  9  1  0  0  0
 13 14  1  0  0  0
 16 17  1  0  0  0
  6 10  1  0  0  0
  7 11  1  0  0  0
  8 12  1  0  0  0
 14 15  1  0  0  0
M  END
> <minimizedAffinity>
-4.17199

$$$$
1WS4_GYP_A_501


 17 17  0  0  0  0  0  0  0  0999 V2000
   52.6561   54.1290   66.1003 C   0  0  0  0  0  0  0  0  0  0  0  0
   52.2367   53.1712   67.2211 C   0  0  0  0  0  0  0  0  0  0  0  0
   50.7236   53.1431   67.4314 C   0  0  0  0  0  0  0  0  0  0  0  0
   50.2613   54.5653   67.7530 C   0  0  0  0  0  0  0  0  0  0  0  0
   50.6308   55.4939   66.5710 C   0  0  0  0  0  0  0  0  0  0  0  0
   52.7340   51.8555   66.9213 O   0  0  0  0  0  0  0  0  0  0  0  0
   50.4075   52.2413   68.5120 O   0  0  0  0  0  0  0  0  0  0  0  0
   48.8479   54.5677   67.9569 O   0  0  0  0  0  0  0  0  0  0  0  0
   52.0873   55.4646   66.3681 O   0  0  0  0  0  0  0  0  0  0  0  0
   52.3444   51.5444   66.0892 H   0  0  0  0  0  0  0  0  0  0  0  0
   50.8536   52.5371   69.3210 H   0  0  0  0  0  0  0  0  0  0  0  0
   48.4049   54.2502   67.1545 H   0  0  0  0  0  0  0  0  0  0  0  0
   50.1887   56.9471   66.8007 C   0  0  0  0  0  0  0  0  0  0  0  0
   50.0031   57.2182   68.1874 O   0  0  0  0  0  0  0  0  0  0  0  0
   49.3113   56.6372   68.5406 H   0  0  0  0  0  0  0  0  0  0  0  0
   53.3955   53.5978   63.8667 C   0  0  0  0  0  0  0  0  0  0  0  0
   52.2808   53.6483   64.7904 O   0  0  0  0  0  0  0  0  0  0  0  0
  1  2  1  0  0  0
  1 17  1  0  0  0
  1  9  1  0  0  0
  2  3  1  0  0  0
  2  6  1  0  0  0
  3  4  1  0  0  0
  3  7  1  0  0  0
  4  5  1  0  0  0
  4  8  1  0  0  0
  5 13  1  0  0  0
  5  9  1  0  0  0
 13 14  1  0  0  0
 16 17  1  0  0  0
  6 10  1  0  0  0
  7 11  1  0  0  0
  8 12  1  0  0  0
 14 15  1  0  0  0
M  END
> <minimizedAffinity>
-4.16538

$$$$
1WS4_GYP_A_501


 17 17  0  0  0  0  0  0  0  0999 V2000
   52.3775   55.3430   66.5732 C   0  0  0  0  0  0  0  0  0  0  0  0
   50.9577   55.2290   67.1391 C   0  0  0  0  0  0  0  0  0  0  0  0
   50.2023   56.5566   67.0970 C   0  0  0  0  0  0  0  0  0  0  0  0
   51.0058   57.5866   67.8927 C   0  0  0  0  0  0  0  0  0  0  0  0
   52.4072   57.7355   67.2524 C   0  0  0  0  0  0  0  0  0  0  0  0
   50.2450   54.2140   66.4111 O   0  0  0  0  0  0  0  0  0  0  0  0
   48.8882   56.3775   67.6642 O   0  0  0  0  0  0  0  0  0  0  0  0
   50.3200   58.8391   67.8716 O   0  0  0  0  0  0  0  0  0  0  0  0
   53.0893   56.4325   67.2700 O   0  0  0  0  0  0  0  0  0  0  0  0
   50.1841   54.4685   65.4770 H   0  0  0  0  0  0  0  0  0  0  0  0
   48.9707   56.0669   68.5795 H   0  0  0  0  0  0  0  0  0  0  0  0
   50.2188   59.1369   66.9540 H   0  0  0  0  0  0  0  0  0  0  0  0
   53.2830   58.7665   67.9806 C   0  0  0  0  0  0  0  0  0  0  0  0
   52.6533   59.2307   69.1717 O   0  0  0  0  0  0  0  0  0  0  0  0
   51.8129   59.6598   68.9470 H   0  0  0  0  0  0  0  0  0  0  0  0
   53.3514   54.6873   64.4662 C   0  0  0  0  0  0  0  0  0  0  0  0
   52.3902   55.5351   65.1412 O   0  0  0  0  0  0  0  0  0  0  0  0
  1  2  1  0  0  0
  1 17  1  0  0  0
  1  9  1  0  0  0
  2  3  1  0  0  0
  2  6  1  0  0  0
  3  4  1  0  0  0
  3  7  1  0  0  0
  4  5  1  0  0  0
  4  8  1  0  0  0
  5 13  1  0  0  0
  5  9  1  0  0  0
 13 14  1  0  0  0
 16 17  1  0  0  0
  6 10  1  0  0  0
  7 11  1  0  0  0
  8 12  1  0  0  0
 14 15  1  0  0  0
M  END
> <minimizedAffinity>
-4.05287

$$$$
1WS4_GYP_A_501


 17 17  0  0  0  0  0  0  0  0999 V2000
   50.2011   57.2683   67.2372 C   0  0  0  0  0  0  0  0  0  0  0  0
   49.6516   55.8377   67.2104 C   0  0  0  0  0  0  0  0  0  0  0  0
   50.6546   54.8152   67.7426 C   0  0  0  0  0  0  0  0  0  0  0  0
   51.9242   54.9082   66.8945 C   0  0  0  0  0  0  0  0  0  0  0  0
   52.4974   56.3420   67.0020 C   0  0  0  0  0  0  0  0  0  0  0  0
   48.4289   55.7930   67.9662 O   0  0  0  0  0  0  0  0  0  0  0  0
   50.0785   53.4951   67.6656 O   0  0  0  0  0  0  0  0  0  0  0  0
   52.8801   53.9596   67.3698 O   0  0  0  0  0  0  0  0  0  0  0  0
   51.4925   57.3032   66.5229 O   0  0  0  0  0  0  0  0  0  0  0  0
   48.6094   56.0358   68.8878 H   0  0  0  0  0  0  0  0  0  0  0  0
   49.8514   53.2946   66.7441 H   0  0  0  0  0  0  0  0  0  0  0  0
   53.0888   54.1483   68.2981 H   0  0  0  0  0  0  0  0  0  0  0  0
   53.7888   56.5245   66.1900 C   0  0  0  0  0  0  0  0  0  0  0  0
   53.7260   57.6913   65.3742 O   0  0  0  0  0  0  0  0  0  0  0  0
   52.9898   57.6087   64.7480 H   0  0  0  0  0  0  0  0  0  0  0  0
   50.8792   59.1278   68.6157 C   0  0  0  0  0  0  0  0  0  0  0  0
   50.3257   57.7897   68.5790 O   0  0  0  0  0  0  0  0  0  0  0  0
  1  2  1  0  0  0
  1 17  1  0  0  0
  1  9  1  0  0  0
  2  3  1  0  0  0
  2  6  1  0  0  0
  3  4  1  0  0  0
  3  7  1  0  0  0
  4  5  1  0  0  0
  4  8  1  0  0  0
  5 13  1  0  0  0
  5  9  1  0  0  0
 13 14  1  0  0  0
 16 17  1  0  0  0
  6 10  1  0  0  0
  7 11  1  0  0  0
  8 12  1  0  0  0
 14 15  1  0  0  0
M  END
> <minimizedAffinity>
-4.05110

$$$$
1WS4_GYP_A_501


 17 17  0  0  0  0  0  0  0  0999 V2000
   51.4861   53.4841   66.0986 C   0  0  0  0  0  0  0  0  0  0  0  0
   52.3815   53.9253   64.9355 C   0  0  0  0  0  0  0  0  0  0  0  0
   53.0102   55.2982   65.1687 C   0  0  0  0  0  0  0  0  0  0  0  0
   51.8814   56.3091   65.3778 C   0  0  0  0  0  0  0  0  0  0  0  0
   51.0407   55.8783   66.6040 C   0  0  0  0  0  0  0  0  0  0  0  0
   53.3971   52.9291   64.7242 O   0  0  0  0  0  0  0  0  0  0  0  0
   53.8172   55.6550   64.0276 O   0  0  0  0  0  0  0  0  0  0  0  0
   52.4418   57.6043   65.5964 O   0  0  0  0  0  0  0  0  0  0  0  0
   50.4864   54.5371   66.3651 O   0  0  0  0  0  0  0  0  0  0  0  0
   53.9445   52.8513   65.5212 H   0  0  0  0  0  0  0  0  0  0  0  0
   53.2630   55.6702   63.2317 H   0  0  0  0  0  0  0  0  0  0  0  0
   53.0134   57.5812   66.3797 H   0  0  0  0  0  0  0  0  0  0  0  0
   49.8872   56.8489   66.9001 C   0  0  0  0  0  0  0  0  0  0  0  0
   50.3431   57.9882   67.6246 O   0  0  0  0  0  0  0  0  0  0  0  0
   50.7176   57.7034   68.4728 H   0  0  0  0  0  0  0  0  0  0  0  0
   51.9639   51.8277   67.7856 C   0  0  0  0  0  0  0  0  0  0  0  0
   52.2406   53.1594   67.2874 O   0  0  0  0  0  0  0  0  0  0  0  0
  1  2  1  0  0  0
  1 17  1  0  0  0
  1  9  1  0  0  0
  2  3  1  0  0  0
  2  6  1  0  0  0
  3  4  1  0  0  0
  3  7  1  0  0  0
  4  5  1  0  0  0
  4  8  1  0  0  0
  5 13  1  0  0  0
  5  9  1  0  0  0
 13 14  1  0  0  0
 16 17  1  0  0  0
  6 10  1  0  0  0
  7 11  1  0  0  0
  8 12  1  0  0  0
 14 15  1  0  0  0
M  END
> <minimizedAffinity>
-3.95314

$$$$
