2D1O_FA4_A_1001


 42 42  0  0  0  0  0  0  0  0999 V2000
   27.2786    4.5413   13.8813 C   0  0  0  0  0  0  0  0  0  0  0  0
   26.1144    3.6950   13.3584 C   0  0  0  0  0  0  0  0  0  0  0  0
   25.9553    2.3846   14.1337 C   0  0  0  0  0  0  0  0  0  0  0  0
   24.6783    1.6198   13.7730 C   0  0  0  0  0  0  0  0  0  0  0  0
   23.6422    1.6354   14.8976 C   0  0  0  0  0  0  0  0  0  0  0  0
   22.6029    2.7561   14.7249 C   0  0  0  0  0  0  0  0  0  0  0  0
   20.4537    1.4396   11.8038 C   0  0  0  0  0  0  0  0  0  0  0  0
   21.1248    1.5324   13.0607 C   0  0  0  0  0  0  0  0  0  0  0  0
   21.9060    2.6893   13.3895 C   0  0  0  0  0  0  0  0  0  0  0  0
   22.0101    3.7796   12.4125 C   0  0  0  0  0  0  0  0  0  0  0  0
   21.3280    3.6692   11.1495 C   0  0  0  0  0  0  0  0  0  0  0  0
   20.5520    2.4977   10.8446 C   0  0  0  0  0  0  0  0  0  0  0  0
   22.8006    5.0545   12.6502 C   0  0  0  0  0  0  0  0  0  0  0  0
   21.9343    6.2379   12.5743 N   0  0  0  0  0  0  0  0  0  0  0  0
   21.7380    6.6430   11.6987 H   0  0  0  0  0  0  0  0  0  0  0  0
   21.3932    6.7871   13.7174 C   0  0  0  0  0  0  0  0  0  0  0  0
   22.1988    7.1997   14.6895 N   0  0  0  0  0  0  0  0  0  0  0  0
   20.0663    6.9090   13.8695 N   0  0  0  0  0  0  0  0  0  0  0  0
   23.1745    7.1154   14.5892 H   0  0  0  0  0  0  0  0  0  0  0  0
   21.8201    7.5898   15.5103 H   0  0  0  0  0  0  0  0  0  0  0  0
   19.4592    6.6068   13.1559 H   0  0  0  0  0  0  0  0  0  0  0  0
   28.1809    3.7866   14.8511 C   0  0  0  0  0  0  0  0  0  0  0  0
   29.6706    4.0241   14.5799 C   0  0  0  0  0  0  0  0  0  0  0  0
   30.5053    4.2107   15.8477 C   0  0  0  0  0  0  0  0  0  0  0  0
   31.7670    5.0352   15.5559 C   0  0  0  0  0  0  0  0  0  0  0  0
   31.5255    6.3588   15.6814 N   0  0  0  0  0  0  0  0  0  0  0  0
   32.8377    4.5013   15.2545 O   0  0  0  0  0  0  0  0  0  0  0  0
   30.6200    6.6599   15.9236 H   0  0  0  0  0  0  0  0  0  0  0  0
   32.5653    7.3477   15.4688 C   0  0  0  0  0  0  0  0  0  0  0  0
   32.7570    7.5958   13.9619 C   0  0  0  0  0  0  0  0  0  0  0  0
   33.7503    6.8795   13.4161 N   0  0  0  0  0  0  0  0  0  0  0  0
   34.0242    7.0124   12.0518 O   0  0  0  0  0  0  0  0  0  0  0  0
   32.0412    8.3791   13.3464 O   0  0  0  0  0  0  0  0  0  0  0  0
   34.2824    6.2650   13.9716 H   0  0  0  0  0  0  0  0  0  0  0  0
   33.4106    7.6534   11.6598 H   0  0  0  0  0  0  0  0  0  0  0  0
   32.1424    8.6274   16.1940 C   0  0  0  0  0  0  0  0  0  0  0  0
   30.6407    8.8897   16.1517 C   0  0  0  0  0  0  0  0  0  0  0  0
   30.0599    9.0954   17.5505 C   0  0  0  0  0  0  0  0  0  0  0  0
   29.1950    7.9175   18.0028 C   0  0  0  0  0  0  0  0  0  0  0  0
   28.8167    7.0453   16.8978 N   0  0  0  0  0  0  0  0  0  0  0  0
   28.2640    7.5728   16.2221 H   0  0  0  0  0  0  0  0  0  0  0  0
   28.2642    6.2654   17.2541 H   0  0  0  0  0  0  0  0  0  0  0  0
  7  8  2  0  0  0
  7 12  1  0  0  0
  8  9  1  0  0  0
  9 10  2  0  0  0
  9  6  1  0  0  0
 10 11  1  0  0  0
 10 13  1  0  0  0
 11 12  2  0  0  0
  6  5  1  0  0  0
  5  4  1  0  0  0
  4  3  1  0  0  0
  3  2  1  0  0  0
  2  1  1  0  0  0
  1 22  1  0  0  0
 22 23  1  0  0  0
 23 24  1  0  0  0
 24 25  1  0  0  0
 25 26  1  0  0  0
 25 27  2  0  0  0
 26 29  1  0  0  0
 29 36  1  0  0  0
 29 30  1  0  0  0
 36 37  1  0  0  0
 30 31  1  0  0  0
 30 33  2  0  0  0
 31 32  1  0  0  0
 37 38  1  0  0  0
 38 39  1  0  0  0
 39 40  1  0  0  0
 13 14  1  0  0  0
 14 16  1  0  0  0
 16 17  1  0  0  0
 16 18  2  0  0  0
 26 28  1  0  0  0
 31 34  1  0  0  0
 40 41  1  0  0  0
 40 42  1  0  0  0
 14 15  1  0  0  0
 17 19  1  0  0  0
 17 20  1  0  0  0
 18 21  1  0  0  0
 32 35  1  0  0  0
M  END
> <minimizedAffinity>
-8.46312

$$$$
2D1O_FA4_A_1001


 42 42  0  0  0  0  0  0  0  0999 V2000
   26.1553    3.3897   14.2011 C   0  0  0  0  0  0  0  0  0  0  0  0
   25.0827    3.1538   15.2682 C   0  0  0  0  0  0  0  0  0  0  0  0
   24.2425    1.9067   14.9809 C   0  0  0  0  0  0  0  0  0  0  0  0
   24.2341    1.5108   13.5014 C   0  0  0  0  0  0  0  0  0  0  0  0
   22.8911    0.9343   13.0514 C   0  0  0  0  0  0  0  0  0  0  0  0
   22.0514    1.9492   12.2570 C   0  0  0  0  0  0  0  0  0  0  0  0
   18.3074    1.4172   13.0215 C   0  0  0  0  0  0  0  0  0  0  0  0
   19.6177    1.2564   12.4773 C   0  0  0  0  0  0  0  0  0  0  0  0
   20.6792    2.1456   12.8503 C   0  0  0  0  0  0  0  0  0  0  0  0
   20.3999    3.2294   13.7997 C   0  0  0  0  0  0  0  0  0  0  0  0
   19.0730    3.3779   14.3379 C   0  0  0  0  0  0  0  0  0  0  0  0
   18.0264    2.4731   13.9465 C   0  0  0  0  0  0  0  0  0  0  0  0
   21.4427    4.2266   14.2742 C   0  0  0  0  0  0  0  0  0  0  0  0
   21.5775    5.3432   13.3298 N   0  0  0  0  0  0  0  0  0  0  0  0
   20.7988    5.6305   12.8003 H   0  0  0  0  0  0  0  0  0  0  0  0
   22.7840    5.9929   13.1774 C   0  0  0  0  0  0  0  0  0  0  0  0
   23.0065    7.1229   13.8390 N   0  0  0  0  0  0  0  0  0  0  0  0
   23.7378    5.5078   12.3690 N   0  0  0  0  0  0  0  0  0  0  0  0
   22.3138    7.4888   14.4353 H   0  0  0  0  0  0  0  0  0  0  0  0
   23.8641    7.5947   13.7330 H   0  0  0  0  0  0  0  0  0  0  0  0
   23.5845    4.6711   11.8735 H   0  0  0  0  0  0  0  0  0  0  0  0
   27.4942    2.7458   14.5435 C   0  0  0  0  0  0  0  0  0  0  0  0
   28.4007    3.6676   15.3666 C   0  0  0  0  0  0  0  0  0  0  0  0
   28.4953    5.0910   14.8152 C   0  0  0  0  0  0  0  0  0  0  0  0
   29.5405    5.9086   15.5870 C   0  0  0  0  0  0  0  0  0  0  0  0
   30.3060    6.6399   14.7472 N   0  0  0  0  0  0  0  0  0  0  0  0
   29.6206    5.8662   16.8174 O   0  0  0  0  0  0  0  0  0  0  0  0
   30.1441    6.5817   13.7779 H   0  0  0  0  0  0  0  0  0  0  0  0
   31.3598    7.5085   15.2364 C   0  0  0  0  0  0  0  0  0  0  0  0
   32.3713    7.7951   14.1122 C   0  0  0  0  0  0  0  0  0  0  0  0
   32.9125    6.6923   13.5750 N   0  0  0  0  0  0  0  0  0  0  0  0
   33.8450    6.8179   12.5413 O   0  0  0  0  0  0  0  0  0  0  0  0
   32.6282    8.9417   13.7598 O   0  0  0  0  0  0  0  0  0  0  0  0
   32.6553    5.8014   13.9059 H   0  0  0  0  0  0  0  0  0  0  0  0
   33.9812    7.7572   12.3410 H   0  0  0  0  0  0  0  0  0  0  0  0
   30.7030    8.7975   15.7358 C   0  0  0  0  0  0  0  0  0  0  0  0
   30.9273    9.0660   17.2200 C   0  0  0  0  0  0  0  0  0  0  0  0
   32.4138    9.0908   17.5750 C   0  0  0  0  0  0  0  0  0  0  0  0
   33.1415   10.2870   16.9587 C   0  0  0  0  0  0  0  0  0  0  0  0
   34.3488    9.8974   16.2408 N   0  0  0  0  0  0  0  0  0  0  0  0
   35.0027    9.4580   16.8887 H   0  0  0  0  0  0  0  0  0  0  0  0
   34.7816   10.7243   15.8295 H   0  0  0  0  0  0  0  0  0  0  0  0
  7  8  2  0  0  0
  7 12  1  0  0  0
  8  9  1  0  0  0
  9 10  2  0  0  0
  9  6  1  0  0  0
 10 11  1  0  0  0
 10 13  1  0  0  0
 11 12  2  0  0  0
  6  5  1  0  0  0
  5  4  1  0  0  0
  4  3  1  0  0  0
  3  2  1  0  0  0
  2  1  1  0  0  0
  1 22  1  0  0  0
 22 23  1  0  0  0
 23 24  1  0  0  0
 24 25  1  0  0  0
 25 26  1  0  0  0
 25 27  2  0  0  0
 26 29  1  0  0  0
 29 36  1  0  0  0
 29 30  1  0  0  0
 36 37  1  0  0  0
 30 31  1  0  0  0
 30 33  2  0  0  0
 31 32  1  0  0  0
 37 38  1  0  0  0
 38 39  1  0  0  0
 39 40  1  0  0  0
 13 14  1  0  0  0
 14 16  1  0  0  0
 16 17  1  0  0  0
 16 18  2  0  0  0
 26 28  1  0  0  0
 31 34  1  0  0  0
 40 41  1  0  0  0
 40 42  1  0  0  0
 14 15  1  0  0  0
 17 19  1  0  0  0
 17 20  1  0  0  0
 18 21  1  0  0  0
 32 35  1  0  0  0
M  END
> <minimizedAffinity>
-8.15231

$$$$
2D1O_FA4_A_1001


 42 42  0  0  0  0  0  0  0  0999 V2000
   26.2994    2.3751   14.8152 C   0  0  0  0  0  0  0  0  0  0  0  0
   27.6085    2.8325   14.1655 C   0  0  0  0  0  0  0  0  0  0  0  0
   28.4829    3.6405   15.1280 C   0  0  0  0  0  0  0  0  0  0  0  0
   28.6808    5.0945   14.6894 C   0  0  0  0  0  0  0  0  0  0  0  0
   30.1476    5.5261   14.7179 C   0  0  0  0  0  0  0  0  0  0  0  0
   30.7711    5.4001   16.1184 C   0  0  0  0  0  0  0  0  0  0  0  0
   29.5019    8.3829   18.2104 C   0  0  0  0  0  0  0  0  0  0  0  0
   29.5451    7.1493   17.4924 C   0  0  0  0  0  0  0  0  0  0  0  0
   30.7590    6.7072   16.8699 C   0  0  0  0  0  0  0  0  0  0  0  0
   31.9603    7.5434   16.9775 C   0  0  0  0  0  0  0  0  0  0  0  0
   31.8989    8.7847   17.7040 C   0  0  0  0  0  0  0  0  0  0  0  0
   30.6687    9.2053   18.3182 C   0  0  0  0  0  0  0  0  0  0  0  0
   33.3021    7.1771   16.3676 C   0  0  0  0  0  0  0  0  0  0  0  0
   33.6077    8.0260   15.2088 N   0  0  0  0  0  0  0  0  0  0  0  0
   34.3004    8.7217   15.2832 H   0  0  0  0  0  0  0  0  0  0  0  0
   32.9339    7.8582   14.0176 C   0  0  0  0  0  0  0  0  0  0  0  0
   31.8693    8.6084   13.7570 N   0  0  0  0  0  0  0  0  0  0  0  0
   33.3303    6.9471   13.1168 N   0  0  0  0  0  0  0  0  0  0  0  0
   31.5688    9.2806   14.4105 H   0  0  0  0  0  0  0  0  0  0  0  0
   31.3807    8.4924   12.9102 H   0  0  0  0  0  0  0  0  0  0  0  0
   34.1179    6.3852   13.2988 H   0  0  0  0  0  0  0  0  0  0  0  0
   25.3239    1.7504   13.8240 C   0  0  0  0  0  0  0  0  0  0  0  0
   23.9229    1.5573   14.4146 C   0  0  0  0  0  0  0  0  0  0  0  0
   23.7471    2.1809   15.7999 C   0  0  0  0  0  0  0  0  0  0  0  0
   22.7438    3.3419   15.7542 C   0  0  0  0  0  0  0  0  0  0  0  0
   22.2872    3.5438   14.4985 N   0  0  0  0  0  0  0  0  0  0  0  0
   22.4298    3.9706   16.7683 O   0  0  0  0  0  0  0  0  0  0  0  0
   22.6221    2.9734   13.7693 H   0  0  0  0  0  0  0  0  0  0  0  0
   21.3166    4.5787   14.1967 C   0  0  0  0  0  0  0  0  0  0  0  0
   21.9560    5.6572   13.3038 C   0  0  0  0  0  0  0  0  0  0  0  0
   23.1253    5.2888   12.7608 N   0  0  0  0  0  0  0  0  0  0  0  0
   23.8063    6.1795   11.9260 O   0  0  0  0  0  0  0  0  0  0  0  0
   21.4122    6.7414   13.1212 O   0  0  0  0  0  0  0  0  0  0  0  0
   23.5010    4.3983   12.9484 H   0  0  0  0  0  0  0  0  0  0  0  0
   23.2995    7.0031   11.8500 H   0  0  0  0  0  0  0  0  0  0  0  0
   20.1294    3.9109   13.4990 C   0  0  0  0  0  0  0  0  0  0  0  0
   20.4628    2.5578   12.8797 C   0  0  0  0  0  0  0  0  0  0  0  0
   19.9064    2.4288   11.4619 C   0  0  0  0  0  0  0  0  0  0  0  0
   20.9897    2.5846   10.3930 C   0  0  0  0  0  0  0  0  0  0  0  0
   20.4644    3.1046    9.1366 N   0  0  0  0  0  0  0  0  0  0  0  0
   19.7736    2.4544    8.7619 H   0  0  0  0  0  0  0  0  0  0  0  0
   21.2271    3.2129    8.4681 H   0  0  0  0  0  0  0  0  0  0  0  0
  7  8  2  0  0  0
  7 12  1  0  0  0
  8  9  1  0  0  0
  9 10  2  0  0  0
  9  6  1  0  0  0
 10 11  1  0  0  0
 10 13  1  0  0  0
 11 12  2  0  0  0
  6  5  1  0  0  0
  5  4  1  0  0  0
  4  3  1  0  0  0
  3  2  1  0  0  0
  2  1  1  0  0  0
  1 22  1  0  0  0
 22 23  1  0  0  0
 23 24  1  0  0  0
 24 25  1  0  0  0
 25 26  1  0  0  0
 25 27  2  0  0  0
 26 29  1  0  0  0
 29 36  1  0  0  0
 29 30  1  0  0  0
 36 37  1  0  0  0
 30 31  1  0  0  0
 30 33  2  0  0  0
 31 32  1  0  0  0
 37 38  1  0  0  0
 38 39  1  0  0  0
 39 40  1  0  0  0
 13 14  1  0  0  0
 14 16  1  0  0  0
 16 17  1  0  0  0
 16 18  2  0  0  0
 26 28  1  0  0  0
 31 34  1  0  0  0
 40 41  1  0  0  0
 40 42  1  0  0  0
 14 15  1  0  0  0
 17 19  1  0  0  0
 17 20  1  0  0  0
 18 21  1  0  0  0
 32 35  1  0  0  0
M  END
> <minimizedAffinity>
-8.06823

$$$$
2D1O_FA4_A_1001


 42 42  0  0  0  0  0  0  0  0999 V2000
   30.0959    4.7921   15.9916 C   0  0  0  0  0  0  0  0  0  0  0  0
   29.8439    4.0090   14.7000 C   0  0  0  0  0  0  0  0  0  0  0  0
   28.3579    3.9525   14.3360 C   0  0  0  0  0  0  0  0  0  0  0  0
   27.5834    2.8888   15.1199 C   0  0  0  0  0  0  0  0  0  0  0  0
   26.3512    2.3818   14.3694 C   0  0  0  0  0  0  0  0  0  0  0  0
   25.0996    3.2301   14.6522 C   0  0  0  0  0  0  0  0  0  0  0  0
   22.4262    0.9780   13.0193 C   0  0  0  0  0  0  0  0  0  0  0  0
   23.5408    1.4162   13.7970 C   0  0  0  0  0  0  0  0  0  0  0  0
   23.9172    2.7998   13.8214 C   0  0  0  0  0  0  0  0  0  0  0  0
   23.1414    3.7631   13.0313 C   0  0  0  0  0  0  0  0  0  0  0  0
   22.0214    3.3041   12.2519 C   0  0  0  0  0  0  0  0  0  0  0  0
   21.6658    1.9109   12.2442 C   0  0  0  0  0  0  0  0  0  0  0  0
   23.4394    5.2516   12.9839 C   0  0  0  0  0  0  0  0  0  0  0  0
   22.5646    5.9973   13.8979 N   0  0  0  0  0  0  0  0  0  0  0  0
   22.6335    5.8483   14.8687 H   0  0  0  0  0  0  0  0  0  0  0  0
   21.6476    6.9039   13.4097 C   0  0  0  0  0  0  0  0  0  0  0  0
   21.2832    7.9356   14.1627 N   0  0  0  0  0  0  0  0  0  0  0  0
   21.1117    6.7619   12.1886 N   0  0  0  0  0  0  0  0  0  0  0  0
   21.6697    8.0504   15.0608 H   0  0  0  0  0  0  0  0  0  0  0  0
   20.6264    8.5855   13.8227 H   0  0  0  0  0  0  0  0  0  0  0  0
   21.3741    6.0013   11.6213 H   0  0  0  0  0  0  0  0  0  0  0  0
   29.2231    6.0355   16.1195 C   0  0  0  0  0  0  0  0  0  0  0  0
   29.4406    6.7775   17.4428 C   0  0  0  0  0  0  0  0  0  0  0  0
   30.0577    8.1668   17.2758 C   0  0  0  0  0  0  0  0  0  0  0  0
   31.5236    8.0647   16.8313 C   0  0  0  0  0  0  0  0  0  0  0  0
   31.7029    8.6136   15.6096 N   0  0  0  0  0  0  0  0  0  0  0  0
   32.3844    7.5415   17.5436 O   0  0  0  0  0  0  0  0  0  0  0  0
   30.9284    8.9971   15.1381 H   0  0  0  0  0  0  0  0  0  0  0  0
   33.0066    8.6527   14.9746 C   0  0  0  0  0  0  0  0  0  0  0  0
   33.1016    7.5573   13.8975 C   0  0  0  0  0  0  0  0  0  0  0  0
   34.1209    7.7240   13.0425 N   0  0  0  0  0  0  0  0  0  0  0  0
   34.3178    6.7935   12.0181 O   0  0  0  0  0  0  0  0  0  0  0  0
   32.3043    6.6258   13.8603 O   0  0  0  0  0  0  0  0  0  0  0  0
   34.7257    8.4953   13.1354 H   0  0  0  0  0  0  0  0  0  0  0  0
   33.6377    6.1040   12.0724 H   0  0  0  0  0  0  0  0  0  0  0  0
   33.1844   10.0465   14.3678 C   0  0  0  0  0  0  0  0  0  0  0  0
   32.8897   11.1824   15.3416 C   0  0  0  0  0  0  0  0  0  0  0  0
   34.1043   11.5198   16.2061 C   0  0  0  0  0  0  0  0  0  0  0  0
   33.7447   11.6696   17.6854 C   0  0  0  0  0  0  0  0  0  0  0  0
   32.7170   10.7266   18.1090 N   0  0  0  0  0  0  0  0  0  0  0  0
   31.8613   10.8961   17.5803 H   0  0  0  0  0  0  0  0  0  0  0  0
   32.5317   10.8501   19.1044 H   0  0  0  0  0  0  0  0  0  0  0  0
  7  8  2  0  0  0
  7 12  1  0  0  0
  8  9  1  0  0  0
  9 10  2  0  0  0
  9  6  1  0  0  0
 10 11  1  0  0  0
 10 13  1  0  0  0
 11 12  2  0  0  0
  6  5  1  0  0  0
  5  4  1  0  0  0
  4  3  1  0  0  0
  3  2  1  0  0  0
  2  1  1  0  0  0
  1 22  1  0  0  0
 22 23  1  0  0  0
 23 24  1  0  0  0
 24 25  1  0  0  0
 25 26  1  0  0  0
 25 27  2  0  0  0
 26 29  1  0  0  0
 29 36  1  0  0  0
 29 30  1  0  0  0
 36 37  1  0  0  0
 30 31  1  0  0  0
 30 33  2  0  0  0
 31 32  1  0  0  0
 37 38  1  0  0  0
 38 39  1  0  0  0
 39 40  1  0  0  0
 13 14  1  0  0  0
 14 16  1  0  0  0
 16 17  1  0  0  0
 16 18  2  0  0  0
 26 28  1  0  0  0
 31 34  1  0  0  0
 40 41  1  0  0  0
 40 42  1  0  0  0
 14 15  1  0  0  0
 17 19  1  0  0  0
 17 20  1  0  0  0
 18 21  1  0  0  0
 32 35  1  0  0  0
M  END
> <minimizedAffinity>
-7.95376

$$$$
2D1O_FA4_A_1001


 42 42  0  0  0  0  0  0  0  0999 V2000
   19.1980    2.9414   13.9686 C   0  0  0  0  0  0  0  0  0  0  0  0
   17.8833    3.6963   14.1844 C   0  0  0  0  0  0  0  0  0  0  0  0
   17.6057    3.9671   15.6654 C   0  0  0  0  0  0  0  0  0  0  0  0
   17.5115    5.4587   16.0001 C   0  0  0  0  0  0  0  0  0  0  0  0
   17.9551    5.7730   17.4294 C   0  0  0  0  0  0  0  0  0  0  0  0
   19.4511    6.1194   17.5185 C   0  0  0  0  0  0  0  0  0  0  0  0
   19.7173    9.6724   18.9987 C   0  0  0  0  0  0  0  0  0  0  0  0
   19.5000    8.2665   18.8746 C   0  0  0  0  0  0  0  0  0  0  0  0
   19.6897    7.6050   17.6164 C   0  0  0  0  0  0  0  0  0  0  0  0
   20.1083    8.3949   16.4524 C   0  0  0  0  0  0  0  0  0  0  0  0
   20.3218    9.8115   16.5948 C   0  0  0  0  0  0  0  0  0  0  0  0
   20.1236   10.4502   17.8677 C   0  0  0  0  0  0  0  0  0  0  0  0
   20.3474    7.8055   15.0732 C   0  0  0  0  0  0  0  0  0  0  0  0
   21.7059    7.2598   14.9576 N   0  0  0  0  0  0  0  0  0  0  0  0
   22.2491    7.1285   15.7681 H   0  0  0  0  0  0  0  0  0  0  0  0
   22.2280    6.9296   13.7249 C   0  0  0  0  0  0  0  0  0  0  0  0
   21.4780    7.0708   12.6378 N   0  0  0  0  0  0  0  0  0  0  0  0
   23.4793    6.4631   13.6020 N   0  0  0  0  0  0  0  0  0  0  0  0
   20.5579    7.4122   12.7155 H   0  0  0  0  0  0  0  0  0  0  0  0
   21.8423    6.8340   11.7544 H   0  0  0  0  0  0  0  0  0  0  0  0
   24.0447    6.3542   14.4006 H   0  0  0  0  0  0  0  0  0  0  0  0
   19.2292    2.1509   12.6654 C   0  0  0  0  0  0  0  0  0  0  0  0
   20.5609    1.4249   12.4455 C   0  0  0  0  0  0  0  0  0  0  0  0
   21.5167    2.1623   11.5066 C   0  0  0  0  0  0  0  0  0  0  0  0
   22.5654    2.9518   12.3027 C   0  0  0  0  0  0  0  0  0  0  0  0
   23.0788    2.2072   13.3067 N   0  0  0  0  0  0  0  0  0  0  0  0
   22.8632    4.1134   12.0128 O   0  0  0  0  0  0  0  0  0  0  0  0
   22.7511    1.2882   13.4377 H   0  0  0  0  0  0  0  0  0  0  0  0
   24.1000    2.7265   14.1965 C   0  0  0  0  0  0  0  0  0  0  0  0
   23.5271    2.8960   15.6150 C   0  0  0  0  0  0  0  0  0  0  0  0
   22.9723    4.0964   15.8363 N   0  0  0  0  0  0  0  0  0  0  0  0
   22.4127    4.3749   17.0866 O   0  0  0  0  0  0  0  0  0  0  0  0
   23.5830    1.9899   16.4400 O   0  0  0  0  0  0  0  0  0  0  0  0
   22.9593    4.7760   15.1241 H   0  0  0  0  0  0  0  0  0  0  0  0
   22.5111    3.6019   17.6643 H   0  0  0  0  0  0  0  0  0  0  0  0
   25.2705    1.7405   14.1834 C   0  0  0  0  0  0  0  0  0  0  0  0
   26.5719    2.3248   14.7223 C   0  0  0  0  0  0  0  0  0  0  0  0
   27.2619    3.2205   13.6938 C   0  0  0  0  0  0  0  0  0  0  0  0
   26.8504    4.6878   13.8276 C   0  0  0  0  0  0  0  0  0  0  0  0
   26.0754    5.1572   12.6857 N   0  0  0  0  0  0  0  0  0  0  0  0
   26.6403    5.0868   11.8394 H   0  0  0  0  0  0  0  0  0  0  0  0
   25.8056    6.1296   12.8345 H   0  0  0  0  0  0  0  0  0  0  0  0
  7  8  2  0  0  0
  7 12  1  0  0  0
  8  9  1  0  0  0
  9 10  2  0  0  0
  9  6  1  0  0  0
 10 11  1  0  0  0
 10 13  1  0  0  0
 11 12  2  0  0  0
  6  5  1  0  0  0
  5  4  1  0  0  0
  4  3  1  0  0  0
  3  2  1  0  0  0
  2  1  1  0  0  0
  1 22  1  0  0  0
 22 23  1  0  0  0
 23 24  1  0  0  0
 24 25  1  0  0  0
 25 26  1  0  0  0
 25 27  2  0  0  0
 26 29  1  0  0  0
 29 36  1  0  0  0
 29 30  1  0  0  0
 36 37  1  0  0  0
 30 31  1  0  0  0
 30 33  2  0  0  0
 31 32  1  0  0  0
 37 38  1  0  0  0
 38 39  1  0  0  0
 39 40  1  0  0  0
 13 14  1  0  0  0
 14 16  1  0  0  0
 16 17  1  0  0  0
 16 18  2  0  0  0
 26 28  1  0  0  0
 31 34  1  0  0  0
 40 41  1  0  0  0
 40 42  1  0  0  0
 14 15  1  0  0  0
 17 19  1  0  0  0
 17 20  1  0  0  0
 18 21  1  0  0  0
 32 35  1  0  0  0
M  END
> <minimizedAffinity>
-7.86793

$$$$
2D1O_FA4_A_1001


 42 42  0  0  0  0  0  0  0  0999 V2000
   32.4736   10.4568   16.3423 C   0  0  0  0  0  0  0  0  0  0  0  0
   33.6766    9.5425   16.5908 C   0  0  0  0  0  0  0  0  0  0  0  0
   34.6029    9.4586   15.3748 C   0  0  0  0  0  0  0  0  0  0  0  0
   34.0027   10.0857   14.1130 C   0  0  0  0  0  0  0  0  0  0  0  0
   35.0636   10.4634   13.0785 C   0  0  0  0  0  0  0  0  0  0  0  0
   36.4562   10.6499   13.7046 C   0  0  0  0  0  0  0  0  0  0  0  0
   38.2689    9.6141   10.4602 C   0  0  0  0  0  0  0  0  0  0  0  0
   37.2396    9.9266   11.3993 C   0  0  0  0  0  0  0  0  0  0  0  0
   37.5665   10.3274   12.7369 C   0  0  0  0  0  0  0  0  0  0  0  0
   38.9779   10.4095   13.1310 C   0  0  0  0  0  0  0  0  0  0  0  0
   40.0030   10.0898   12.1720 C   0  0  0  0  0  0  0  0  0  0  0  0
   39.6478    9.6896   10.8374 C   0  0  0  0  0  0  0  0  0  0  0  0
   39.4460   10.8281   14.5139 C   0  0  0  0  0  0  0  0  0  0  0  0
   39.5464    9.6710   15.4128 N   0  0  0  0  0  0  0  0  0  0  0  0
   39.0226    8.8593   15.2230 H   0  0  0  0  0  0  0  0  0  0  0  0
   40.3670    9.7106   16.5201 C   0  0  0  0  0  0  0  0  0  0  0  0
   40.7287    8.5753   17.1071 N   0  0  0  0  0  0  0  0  0  0  0  0
   40.8045   10.8755   17.0202 N   0  0  0  0  0  0  0  0  0  0  0  0
   40.4138    7.7140   16.7491 H   0  0  0  0  0  0  0  0  0  0  0  0
   41.3116    8.5952   17.9002 H   0  0  0  0  0  0  0  0  0  0  0  0
   40.5431   11.7235   16.5937 H   0  0  0  0  0  0  0  0  0  0  0  0
   31.2077    9.9888   17.0513 C   0  0  0  0  0  0  0  0  0  0  0  0
   31.4921    8.9639   18.1547 C   0  0  0  0  0  0  0  0  0  0  0  0
   30.3266    8.0116   18.4261 C   0  0  0  0  0  0  0  0  0  0  0  0
   29.9135    7.2731   17.1452 C   0  0  0  0  0  0  0  0  0  0  0  0
   30.9601    6.6120   16.6035 N   0  0  0  0  0  0  0  0  0  0  0  0
   28.7573    7.3114   16.7164 O   0  0  0  0  0  0  0  0  0  0  0  0
   31.8397    6.6653   17.0423 H   0  0  0  0  0  0  0  0  0  0  0  0
   30.8216    5.8257   15.3923 C   0  0  0  0  0  0  0  0  0  0  0  0
   32.1753    5.7339   14.6655 C   0  0  0  0  0  0  0  0  0  0  0  0
   32.3781    6.7113   13.7704 N   0  0  0  0  0  0  0  0  0  0  0  0
   33.5725    6.7418   13.0449 O   0  0  0  0  0  0  0  0  0  0  0  0
   32.9756    4.8381   14.9146 O   0  0  0  0  0  0  0  0  0  0  0  0
   31.6914    7.4017   13.6254 H   0  0  0  0  0  0  0  0  0  0  0  0
   34.1311    5.9945   13.3102 H   0  0  0  0  0  0  0  0  0  0  0  0
   30.3114    4.4403   15.7954 C   0  0  0  0  0  0  0  0  0  0  0  0
   29.5051    3.7417   14.7058 C   0  0  0  0  0  0  0  0  0  0  0  0
   28.1125    3.3448   15.1950 C   0  0  0  0  0  0  0  0  0  0  0  0
   27.0577    4.4066   14.8787 C   0  0  0  0  0  0  0  0  0  0  0  0
   27.4053    5.2097   13.7129 N   0  0  0  0  0  0  0  0  0  0  0  0
   28.2782    5.7068   13.8905 H   0  0  0  0  0  0  0  0  0  0  0  0
   26.6616    5.8834   13.5301 H   0  0  0  0  0  0  0  0  0  0  0  0
  7  8  2  0  0  0
  7 12  1  0  0  0
  8  9  1  0  0  0
  9 10  2  0  0  0
  9  6  1  0  0  0
 10 11  1  0  0  0
 10 13  1  0  0  0
 11 12  2  0  0  0
  6  5  1  0  0  0
  5  4  1  0  0  0
  4  3  1  0  0  0
  3  2  1  0  0  0
  2  1  1  0  0  0
  1 22  1  0  0  0
 22 23  1  0  0  0
 23 24  1  0  0  0
 24 25  1  0  0  0
 25 26  1  0  0  0
 25 27  2  0  0  0
 26 29  1  0  0  0
 29 36  1  0  0  0
 29 30  1  0  0  0
 36 37  1  0  0  0
 30 31  1  0  0  0
 30 33  2  0  0  0
 31 32  1  0  0  0
 37 38  1  0  0  0
 38 39  1  0  0  0
 39 40  1  0  0  0
 13 14  1  0  0  0
 14 16  1  0  0  0
 16 17  1  0  0  0
 16 18  2  0  0  0
 26 28  1  0  0  0
 31 34  1  0  0  0
 40 41  1  0  0  0
 40 42  1  0  0  0
 14 15  1  0  0  0
 17 19  1  0  0  0
 17 20  1  0  0  0
 18 21  1  0  0  0
 32 35  1  0  0  0
M  END
> <minimizedAffinity>
-7.76406

$$$$
2D1O_FA4_A_1001


 42 42  0  0  0  0  0  0  0  0999 V2000
   26.5213    3.6873   14.9030 C   0  0  0  0  0  0  0  0  0  0  0  0
   27.1080    4.6346   13.8526 C   0  0  0  0  0  0  0  0  0  0  0  0
   28.3649    5.3505   14.3540 C   0  0  0  0  0  0  0  0  0  0  0  0
   29.5459    4.4044   14.5906 C   0  0  0  0  0  0  0  0  0  0  0  0
   30.1622    4.5644   15.9810 C   0  0  0  0  0  0  0  0  0  0  0  0
   31.3746    5.5110   15.9820 C   0  0  0  0  0  0  0  0  0  0  0  0
   30.3090    8.3895   18.3195 C   0  0  0  0  0  0  0  0  0  0  0  0
   30.6513    7.0907   17.8348 C   0  0  0  0  0  0  0  0  0  0  0  0
   31.0194    6.8953   16.4626 C   0  0  0  0  0  0  0  0  0  0  0  0
   31.0366    8.0511   15.5582 C   0  0  0  0  0  0  0  0  0  0  0  0
   30.6876    9.3533   16.0631 C   0  0  0  0  0  0  0  0  0  0  0  0
   30.3213    9.5216   17.4433 C   0  0  0  0  0  0  0  0  0  0  0  0
   31.4159    7.9693   14.0898 C   0  0  0  0  0  0  0  0  0  0  0  0
   32.6081    8.7778   13.8039 N   0  0  0  0  0  0  0  0  0  0  0  0
   32.5654    9.7575   13.8919 H   0  0  0  0  0  0  0  0  0  0  0  0
   33.7867    8.1782   13.4134 C   0  0  0  0  0  0  0  0  0  0  0  0
   34.9455    8.7034   13.7948 N   0  0  0  0  0  0  0  0  0  0  0  0
   33.7864    7.0752   12.6505 N   0  0  0  0  0  0  0  0  0  0  0  0
   34.9585    9.5129   14.3550 H   0  0  0  0  0  0  0  0  0  0  0  0
   35.7915    8.2832   13.5174 H   0  0  0  0  0  0  0  0  0  0  0  0
   32.9337    6.6768   12.3616 H   0  0  0  0  0  0  0  0  0  0  0  0
   26.3873    2.2515   14.4080 C   0  0  0  0  0  0  0  0  0  0  0  0
   24.9886    1.9417   13.8634 C   0  0  0  0  0  0  0  0  0  0  0  0
   23.9089    2.9076   14.3534 C   0  0  0  0  0  0  0  0  0  0  0  0
   23.3660    3.7554   13.1944 C   0  0  0  0  0  0  0  0  0  0  0  0
   22.0944    3.4124   12.8921 N   0  0  0  0  0  0  0  0  0  0  0  0
   24.0489    4.6273   12.6506 O   0  0  0  0  0  0  0  0  0  0  0  0
   21.6589    2.6908   13.4008 H   0  0  0  0  0  0  0  0  0  0  0  0
   21.3542    4.0795   11.8379 C   0  0  0  0  0  0  0  0  0  0  0  0
   20.6838    3.0381   10.9240 C   0  0  0  0  0  0  0  0  0  0  0  0
   19.4432    3.3716   10.5403 N   0  0  0  0  0  0  0  0  0  0  0  0
   18.7270    2.5094    9.7049 O   0  0  0  0  0  0  0  0  0  0  0  0
   21.2655    2.0110   10.5902 O   0  0  0  0  0  0  0  0  0  0  0  0
   19.0399    4.2167   10.8443 H   0  0  0  0  0  0  0  0  0  0  0  0
   19.2687    1.7303    9.5037 H   0  0  0  0  0  0  0  0  0  0  0  0
   20.3162    4.9861   12.5033 C   0  0  0  0  0  0  0  0  0  0  0  0
   20.7339    6.4512   12.5715 C   0  0  0  0  0  0  0  0  0  0  0  0
   21.4651    6.7739   13.8744 C   0  0  0  0  0  0  0  0  0  0  0  0
   20.7575    6.1938   15.1003 C   0  0  0  0  0  0  0  0  0  0  0  0
   21.6097    5.2884   15.8611 N   0  0  0  0  0  0  0  0  0  0  0  0
   21.8754    4.4977   15.2740 H   0  0  0  0  0  0  0  0  0  0  0  0
   21.1018    4.9497   16.6783 H   0  0  0  0  0  0  0  0  0  0  0  0
  7  8  2  0  0  0
  7 12  1  0  0  0
  8  9  1  0  0  0
  9 10  2  0  0  0
  9  6  1  0  0  0
 10 11  1  0  0  0
 10 13  1  0  0  0
 11 12  2  0  0  0
  6  5  1  0  0  0
  5  4  1  0  0  0
  4  3  1  0  0  0
  3  2  1  0  0  0
  2  1  1  0  0  0
  1 22  1  0  0  0
 22 23  1  0  0  0
 23 24  1  0  0  0
 24 25  1  0  0  0
 25 26  1  0  0  0
 25 27  2  0  0  0
 26 29  1  0  0  0
 29 36  1  0  0  0
 29 30  1  0  0  0
 36 37  1  0  0  0
 30 31  1  0  0  0
 30 33  2  0  0  0
 31 32  1  0  0  0
 37 38  1  0  0  0
 38 39  1  0  0  0
 39 40  1  0  0  0
 13 14  1  0  0  0
 14 16  1  0  0  0
 16 17  1  0  0  0
 16 18  2  0  0  0
 26 28  1  0  0  0
 31 34  1  0  0  0
 40 41  1  0  0  0
 40 42  1  0  0  0
 14 15  1  0  0  0
 17 19  1  0  0  0
 17 20  1  0  0  0
 18 21  1  0  0  0
 32 35  1  0  0  0
M  END
> <minimizedAffinity>
-7.74900

$$$$
2D1O_FA4_A_1001


 42 42  0  0  0  0  0  0  0  0999 V2000
   27.0276    3.6232   14.8938 C   0  0  0  0  0  0  0  0  0  0  0  0
   26.4805    2.1980   14.7744 C   0  0  0  0  0  0  0  0  0  0  0  0
   24.9514    2.1560   14.8376 C   0  0  0  0  0  0  0  0  0  0  0  0
   24.3182    1.4021   13.6644 C   0  0  0  0  0  0  0  0  0  0  0  0
   22.7899    1.4475   13.6884 C   0  0  0  0  0  0  0  0  0  0  0  0
   22.1823    1.5662   12.2803 C   0  0  0  0  0  0  0  0  0  0  0  0
   18.4085    0.8955   12.7197 C   0  0  0  0  0  0  0  0  0  0  0  0
   19.8238    0.7109   12.6765 C   0  0  0  0  0  0  0  0  0  0  0  0
   20.6923    1.7941   12.3173 C   0  0  0  0  0  0  0  0  0  0  0  0
   20.1057    3.0990   11.9900 C   0  0  0  0  0  0  0  0  0  0  0  0
   18.6768    3.2674   12.0374 C   0  0  0  0  0  0  0  0  0  0  0  0
   17.8283    2.1645   12.3998 C   0  0  0  0  0  0  0  0  0  0  0  0
   20.9227    4.3195   11.6033 C   0  0  0  0  0  0  0  0  0  0  0  0
   21.1813    5.1757   12.7681 N   0  0  0  0  0  0  0  0  0  0  0  0
   20.4304    5.6252   13.2191 H   0  0  0  0  0  0  0  0  0  0  0  0
   22.4656    5.3562   13.2364 C   0  0  0  0  0  0  0  0  0  0  0  0
   22.7768    4.9545   14.4635 N   0  0  0  0  0  0  0  0  0  0  0  0
   23.4077    5.9347   12.4772 N   0  0  0  0  0  0  0  0  0  0  0  0
   22.0937    4.5285   15.0302 H   0  0  0  0  0  0  0  0  0  0  0  0
   23.6907    5.0828   14.8065 H   0  0  0  0  0  0  0  0  0  0  0  0
   23.1888    6.2365   11.5660 H   0  0  0  0  0  0  0  0  0  0  0  0
   28.5245    3.7162   14.6200 C   0  0  0  0  0  0  0  0  0  0  0  0
   29.3500    3.8934   15.8991 C   0  0  0  0  0  0  0  0  0  0  0  0
   30.3354    5.0615   15.8394 C   0  0  0  0  0  0  0  0  0  0  0  0
   29.6838    6.3539   16.3510 C   0  0  0  0  0  0  0  0  0  0  0  0
   30.4442    6.9412   17.3012 N   0  0  0  0  0  0  0  0  0  0  0  0
   28.6046    6.7572   15.9098 O   0  0  0  0  0  0  0  0  0  0  0  0
   31.2887    6.5133   17.5715 H   0  0  0  0  0  0  0  0  0  0  0  0
   30.0491    8.1857   17.9333 C   0  0  0  0  0  0  0  0  0  0  0  0
   29.5427    7.9143   19.3613 C   0  0  0  0  0  0  0  0  0  0  0  0
   30.2005    8.5973   20.3092 N   0  0  0  0  0  0  0  0  0  0  0  0
   29.8335    8.4405   21.6489 O   0  0  0  0  0  0  0  0  0  0  0  0
   28.6132    7.1428   19.5745 O   0  0  0  0  0  0  0  0  0  0  0  0
   30.9358    9.2041   20.0638 H   0  0  0  0  0  0  0  0  0  0  0  0
   29.0978    7.8114   21.7111 H   0  0  0  0  0  0  0  0  0  0  0  0
   31.2699    9.1087   17.9420 C   0  0  0  0  0  0  0  0  0  0  0  0
   31.7045    9.5653   16.5534 C   0  0  0  0  0  0  0  0  0  0  0  0
   33.1966    9.3309   16.3189 C   0  0  0  0  0  0  0  0  0  0  0  0
   33.4700    8.0440   15.5385 C   0  0  0  0  0  0  0  0  0  0  0  0
   33.6392    6.8875   16.4095 N   0  0  0  0  0  0  0  0  0  0  0  0
   34.4423    7.0365   17.0204 H   0  0  0  0  0  0  0  0  0  0  0  0
   33.7938    6.0541   15.8419 H   0  0  0  0  0  0  0  0  0  0  0  0
  7  8  2  0  0  0
  7 12  1  0  0  0
  8  9  1  0  0  0
  9 10  2  0  0  0
  9  6  1  0  0  0
 10 11  1  0  0  0
 10 13  1  0  0  0
 11 12  2  0  0  0
  6  5  1  0  0  0
  5  4  1  0  0  0
  4  3  1  0  0  0
  3  2  1  0  0  0
  2  1  1  0  0  0
  1 22  1  0  0  0
 22 23  1  0  0  0
 23 24  1  0  0  0
 24 25  1  0  0  0
 25 26  1  0  0  0
 25 27  2  0  0  0
 26 29  1  0  0  0
 29 36  1  0  0  0
 29 30  1  0  0  0
 36 37  1  0  0  0
 30 31  1  0  0  0
 30 33  2  0  0  0
 31 32  1  0  0  0
 37 38  1  0  0  0
 38 39  1  0  0  0
 39 40  1  0  0  0
 13 14  1  0  0  0
 14 16  1  0  0  0
 16 17  1  0  0  0
 16 18  2  0  0  0
 26 28  1  0  0  0
 31 34  1  0  0  0
 40 41  1  0  0  0
 40 42  1  0  0  0
 14 15  1  0  0  0
 17 19  1  0  0  0
 17 20  1  0  0  0
 18 21  1  0  0  0
 32 35  1  0  0  0
M  END
> <minimizedAffinity>
-7.73786

$$$$
2D1O_FA4_A_1001


 42 42  0  0  0  0  0  0  0  0999 V2000
   36.8510    9.3093    9.7258 C   0  0  0  0  0  0  0  0  0  0  0  0
   36.7566   10.2729    8.5394 C   0  0  0  0  0  0  0  0  0  0  0  0
   38.1084   10.4815    7.8519 C   0  0  0  0  0  0  0  0  0  0  0  0
   39.3001   10.0837    8.7280 C   0  0  0  0  0  0  0  0  0  0  0  0
   39.9533   11.2824    9.4172 C   0  0  0  0  0  0  0  0  0  0  0  0
   40.1743   11.0480   10.9212 C   0  0  0  0  0  0  0  0  0  0  0  0
   37.0344   13.0388   11.9519 C   0  0  0  0  0  0  0  0  0  0  0  0
   38.1244   12.5241   11.1865 C   0  0  0  0  0  0  0  0  0  0  0  0
   39.0330   11.5717   11.7558 C   0  0  0  0  0  0  0  0  0  0  0  0
   38.8296   11.1335   13.1417 C   0  0  0  0  0  0  0  0  0  0  0  0
   37.7263   11.6635   13.8996 C   0  0  0  0  0  0  0  0  0  0  0  0
   36.8304   12.6182   13.3050 C   0  0  0  0  0  0  0  0  0  0  0  0
   39.7198   10.1263   13.8487 C   0  0  0  0  0  0  0  0  0  0  0  0
   39.2294    9.8441   15.2039 N   0  0  0  0  0  0  0  0  0  0  0  0
   38.3039    9.5341   15.3327 H   0  0  0  0  0  0  0  0  0  0  0  0
   40.0527   10.0090   16.2976 C   0  0  0  0  0  0  0  0  0  0  0  0
   40.7283    8.9679   16.7707 N   0  0  0  0  0  0  0  0  0  0  0  0
   40.1816   11.2016   16.8974 N   0  0  0  0  0  0  0  0  0  0  0  0
   40.6417    8.0875   16.3388 H   0  0  0  0  0  0  0  0  0  0  0  0
   41.3156    9.0766   17.5534 H   0  0  0  0  0  0  0  0  0  0  0  0
   39.6859   11.9805   16.5558 H   0  0  0  0  0  0  0  0  0  0  0  0
   35.5763    9.2585   10.5605 C   0  0  0  0  0  0  0  0  0  0  0  0
   35.8562    9.0955   12.0586 C   0  0  0  0  0  0  0  0  0  0  0  0
   34.6928    9.5262   12.9529 C   0  0  0  0  0  0  0  0  0  0  0  0
   33.7529    8.3456   13.2349 C   0  0  0  0  0  0  0  0  0  0  0  0
   32.9327    8.6119   14.2752 N   0  0  0  0  0  0  0  0  0  0  0  0
   33.7855    7.3128   12.5608 O   0  0  0  0  0  0  0  0  0  0  0  0
   33.0101    9.4778   14.7371 H   0  0  0  0  0  0  0  0  0  0  0  0
   31.9411    7.6554   14.7294 C   0  0  0  0  0  0  0  0  0  0  0  0
   32.6330    6.4645   15.4165 C   0  0  0  0  0  0  0  0  0  0  0  0
   32.5276    5.3117   14.7401 N   0  0  0  0  0  0  0  0  0  0  0  0
   33.1169    4.1547   15.2580 O   0  0  0  0  0  0  0  0  0  0  0  0
   33.2254    6.5970   16.4825 O   0  0  0  0  0  0  0  0  0  0  0  0
   32.0394    5.2803   13.8858 H   0  0  0  0  0  0  0  0  0  0  0  0
   33.5533    4.3627   16.0989 H   0  0  0  0  0  0  0  0  0  0  0  0
   31.0016    8.3846   15.6927 C   0  0  0  0  0  0  0  0  0  0  0  0
   29.9203    7.4908   16.2905 C   0  0  0  0  0  0  0  0  0  0  0  0
   29.2450    6.6260   15.2263 C   0  0  0  0  0  0  0  0  0  0  0  0
   28.7902    5.2728   15.7759 C   0  0  0  0  0  0  0  0  0  0  0  0
   29.8168    4.2454   15.6517 N   0  0  0  0  0  0  0  0  0  0  0  0
   30.0375    4.1028   14.6661 H   0  0  0  0  0  0  0  0  0  0  0  0
   29.4746    3.3725   16.0532 H   0  0  0  0  0  0  0  0  0  0  0  0
  7  8  2  0  0  0
  7 12  1  0  0  0
  8  9  1  0  0  0
  9 10  2  0  0  0
  9  6  1  0  0  0
 10 11  1  0  0  0
 10 13  1  0  0  0
 11 12  2  0  0  0
  6  5  1  0  0  0
  5  4  1  0  0  0
  4  3  1  0  0  0
  3  2  1  0  0  0
  2  1  1  0  0  0
  1 22  1  0  0  0
 22 23  1  0  0  0
 23 24  1  0  0  0
 24 25  1  0  0  0
 25 26  1  0  0  0
 25 27  2  0  0  0
 26 29  1  0  0  0
 29 36  1  0  0  0
 29 30  1  0  0  0
 36 37  1  0  0  0
 30 31  1  0  0  0
 30 33  2  0  0  0
 31 32  1  0  0  0
 37 38  1  0  0  0
 38 39  1  0  0  0
 39 40  1  0  0  0
 13 14  1  0  0  0
 14 16  1  0  0  0
 16 17  1  0  0  0
 16 18  2  0  0  0
 26 28  1  0  0  0
 31 34  1  0  0  0
 40 41  1  0  0  0
 40 42  1  0  0  0
 14 15  1  0  0  0
 17 19  1  0  0  0
 17 20  1  0  0  0
 18 21  1  0  0  0
 32 35  1  0  0  0
M  END
> <minimizedAffinity>
-7.59983

$$$$
2D1O_FA4_A_1001


 42 42  0  0  0  0  0  0  0  0999 V2000
   33.4865   10.3643   16.9150 C   0  0  0  0  0  0  0  0  0  0  0  0
   32.4108    9.7014   17.7801 C   0  0  0  0  0  0  0  0  0  0  0  0
   31.0041   10.2020   17.4419 C   0  0  0  0  0  0  0  0  0  0  0  0
   29.9148    9.5878   18.3263 C   0  0  0  0  0  0  0  0  0  0  0  0
   30.0697    8.0754   18.4905 C   0  0  0  0  0  0  0  0  0  0  0  0
   29.3766    7.2872   17.3660 C   0  0  0  0  0  0  0  0  0  0  0  0
   32.6760    5.8832   15.9423 C   0  0  0  0  0  0  0  0  0  0  0  0
   31.7413    6.6979   16.6504 C   0  0  0  0  0  0  0  0  0  0  0  0
   30.3376    6.4070   16.6078 C   0  0  0  0  0  0  0  0  0  0  0  0
   29.8718    5.2588   15.8212 C   0  0  0  0  0  0  0  0  0  0  0  0
   30.8276    4.4486   15.1124 C   0  0  0  0  0  0  0  0  0  0  0  0
   32.2295    4.7628   15.1711 C   0  0  0  0  0  0  0  0  0  0  0  0
   28.4138    4.8488   15.7069 C   0  0  0  0  0  0  0  0  0  0  0  0
   27.7637    5.5124   14.5694 N   0  0  0  0  0  0  0  0  0  0  0  0
   28.1355    6.3536   14.2183 H   0  0  0  0  0  0  0  0  0  0  0  0
   26.6375    4.9688   13.9887 C   0  0  0  0  0  0  0  0  0  0  0  0
   26.3893    5.1965   12.7039 N   0  0  0  0  0  0  0  0  0  0  0  0
   25.7833    4.2167   14.6980 N   0  0  0  0  0  0  0  0  0  0  0  0
   27.0091    5.7471   12.1729 H   0  0  0  0  0  0  0  0  0  0  0  0
   25.5856    4.8148   12.2826 H   0  0  0  0  0  0  0  0  0  0  0  0
   25.9567    4.0409   15.6511 H   0  0  0  0  0  0  0  0  0  0  0  0
   34.1073    9.4144   15.8969 C   0  0  0  0  0  0  0  0  0  0  0  0
   33.6552    9.7073   14.4620 C   0  0  0  0  0  0  0  0  0  0  0  0
   33.2560    8.4582   13.6750 C   0  0  0  0  0  0  0  0  0  0  0  0
   34.3213    8.1085   12.6263 C   0  0  0  0  0  0  0  0  0  0  0  0
   35.2141    9.1126   12.4832 N   0  0  0  0  0  0  0  0  0  0  0  0
   34.3142    7.0304   12.0263 O   0  0  0  0  0  0  0  0  0  0  0  0
   35.1059    9.9303   13.0208 H   0  0  0  0  0  0  0  0  0  0  0  0
   36.3276    9.0176   11.5584 C   0  0  0  0  0  0  0  0  0  0  0  0
   35.8634    9.3758   10.1353 C   0  0  0  0  0  0  0  0  0  0  0  0
   36.3612    8.5728    9.1840 N   0  0  0  0  0  0  0  0  0  0  0  0
   36.0125    8.7918    7.8481 O   0  0  0  0  0  0  0  0  0  0  0  0
   35.0995   10.3131    9.9286 O   0  0  0  0  0  0  0  0  0  0  0  0
   36.9672    7.8351    9.4242 H   0  0  0  0  0  0  0  0  0  0  0  0
   35.4131    9.5523    7.7909 H   0  0  0  0  0  0  0  0  0  0  0  0
   37.4173    9.9755   12.0458 C   0  0  0  0  0  0  0  0  0  0  0  0
   37.0759   10.6790   13.3550 C   0  0  0  0  0  0  0  0  0  0  0  0
   38.2457   11.5155   13.8728 C   0  0  0  0  0  0  0  0  0  0  0  0
   39.3576   10.6549   14.4753 C   0  0  0  0  0  0  0  0  0  0  0  0
   39.0293   10.1725   15.8111 N   0  0  0  0  0  0  0  0  0  0  0  0
   38.9011   10.9671   16.4375 H   0  0  0  0  0  0  0  0  0  0  0  0
   39.7887    9.5859   16.1569 H   0  0  0  0  0  0  0  0  0  0  0  0
  7  8  2  0  0  0
  7 12  1  0  0  0
  8  9  1  0  0  0
  9 10  2  0  0  0
  9  6  1  0  0  0
 10 11  1  0  0  0
 10 13  1  0  0  0
 11 12  2  0  0  0
  6  5  1  0  0  0
  5  4  1  0  0  0
  4  3  1  0  0  0
  3  2  1  0  0  0
  2  1  1  0  0  0
  1 22  1  0  0  0
 22 23  1  0  0  0
 23 24  1  0  0  0
 24 25  1  0  0  0
 25 26  1  0  0  0
 25 27  2  0  0  0
 26 29  1  0  0  0
 29 36  1  0  0  0
 29 30  1  0  0  0
 36 37  1  0  0  0
 30 31  1  0  0  0
 30 33  2  0  0  0
 31 32  1  0  0  0
 37 38  1  0  0  0
 38 39  1  0  0  0
 39 40  1  0  0  0
 13 14  1  0  0  0
 14 16  1  0  0  0
 16 17  1  0  0  0
 16 18  2  0  0  0
 26 28  1  0  0  0
 31 34  1  0  0  0
 40 41  1  0  0  0
 40 42  1  0  0  0
 14 15  1  0  0  0
 17 19  1  0  0  0
 17 20  1  0  0  0
 18 21  1  0  0  0
 32 35  1  0  0  0
M  END
> <minimizedAffinity>
-7.36167

$$$$
