2D1O_FA4_A_1001
  RCSB PDB12061705183D
Coordinates from PDB:2D1O:A:1001 Model:1 without hydrogens
 33 33  0  0  0  0            999 V2000
   21.9090    1.3290   12.8340   C 0  0  0  0  0  0  0  0  0  0  0  0
   23.0090    1.6730   13.6770   C 0  0  0  0  0  0  0  0  0  0  0  0
   23.5620    2.9960   13.6550   C 0  0  0  0  0  0  0  0  0  0  0  0
   22.9830    3.9950   12.7490   C 0  0  0  0  0  0  0  0  0  0  0  0
   21.8750    3.6310   11.9050   C 0  0  0  0  0  0  0  0  0  0  0  0
   21.3400    2.2970   11.9460   C 0  0  0  0  0  0  0  0  0  0  0  0
   24.7240    3.3270   14.5570   C 0  0  0  0  0  0  0  0  0  0  0  0
   26.0760    2.9430   13.9320   C 0  0  0  0  0  0  0  0  0  0  0  0
   27.2640    3.4260   14.7650   C 0  0  0  0  0  0  0  0  0  0  0  0
   27.9570    4.6480   14.1550   C 0  0  0  0  0  0  0  0  0  0  0  0
   29.1400    5.1500   14.9870   C 0  0  0  0  0  0  0  0  0  0  0  0
   28.7270    6.2300   15.9910   C 0  0  0  0  0  0  0  0  0  0  0  0
   29.7800    7.3180   16.1690   C 0  0  0  0  0  0  0  0  0  0  0  0
   30.6220    7.1250   17.4350   C 0  0  0  0  0  0  0  0  0  0  0  0
   31.6880    8.2030   17.6360   C 0  0  0  0  0  0  0  0  0  0  0  0
   32.8660    7.9940   16.6740   C 0  0  0  0  0  0  0  0  0  0  0  0
   32.9050    8.9620   15.7320   N 0  0  0  0  0  0  0  0  0  0  0  0
   33.9360    8.9930   14.7120   C 0  0  0  0  0  0  0  0  0  0  0  0
   33.6470    7.0470   16.7980   O 0  0  0  0  0  0  0  0  0  0  0  0
   34.3010   10.4590   14.4670   C 0  0  0  0  0  0  0  0  0  0  0  0
   33.4250    8.3210   13.4250   C 0  0  0  0  0  0  0  0  0  0  0  0
   34.2320    7.3570   12.9590   N 0  0  0  0  0  0  0  0  0  0  0  0
   35.7530   10.7930   14.7920   C 0  0  0  0  0  0  0  0  0  0  0  0
   36.0630   12.2710   14.5560   C 0  0  0  0  0  0  0  0  0  0  0  0
   37.1470   12.7980   15.4980   C 0  0  0  0  0  0  0  0  0  0  0  0
   37.4400   14.2090   15.2790   N 0  0  0  0  0  0  0  0  0  0  0  0
   23.4780    5.4270   12.6430   C 0  0  0  0  0  0  0  0  0  0  0  0
   22.9060    6.2660   13.7040   N 0  0  0  0  0  0  0  0  0  0  0  0
   21.7550    6.9920   13.4820   C 0  0  0  0  0  0  0  0  0  0  0  0
   20.9490    7.2680   14.5010   N 0  0  0  0  0  0  0  0  0  0  0  0
   21.4300    7.4220   12.2540   N 0  0  0  0  0  0  0  0  0  0  0  0
   33.8780    6.6670   11.7960   O 0  0  0  0  0  0  0  0  0  0  0  0
   32.3660    8.6570   12.9050   O 0  0  0  0  0  0  0  0  0  0  0  0
  1  2  2  0  0  0  0
  1  6  1  0  0  0  0
  2  3  1  0  0  0  0
  3  4  2  0  0  0  0
  3  7  1  0  0  0  0
  4  5  1  0  0  0  0
  4 27  1  0  0  0  0
  5  6  2  0  0  0  0
  7  8  1  0  0  0  0
  8  9  1  0  0  0  0
  9 10  1  0  0  0  0
 10 11  1  0  0  0  0
 11 12  1  0  0  0  0
 12 13  1  0  0  0  0
 13 14  1  0  0  0  0
 14 15  1  0  0  0  0
 15 16  1  0  0  0  0
 16 17  1  0  0  0  0
 16 19  2  0  0  0  0
 17 18  1  0  0  0  0
 18 20  1  0  0  0  0
 18 21  1  0  0  0  0
 20 23  1  0  0  0  0
 21 22  1  0  0  0  0
 21 33  2  0  0  0  0
 22 32  1  0  0  0  0
 23 24  1  0  0  0  0
 24 25  1  0  0  0  0
 25 26  1  0  0  0  0
 27 28  1  0  0  0  0
 28 29  1  0  0  0  0
 29 30  1  0  0  0  0
 29 31  2  0  0  0  0
A    1
C1
A    2
C2
A    3
C3
A    4
C4
A    5
C5
A    6
C6
A    7
C7
A    8
C8
A    9
C9
A   10
C10
A   11
C11
A   12
C12
A   13
C13
A   14
C14
A   15
C15
A   16
C16
A   17
N17
A   18
C18
A   19
O19
A   20
C20
A   21
C21
A   22
N22
A   23
C23
A   24
C24
A   25
C25
A   26
N26
A   27
C27
A   28
N28
A   29
C29
A   30
N30
A   31
N31
A   32
O32
A   33
O33
M  END
>  <InstanceId>
2D1O_FA4_A_1001

>  <ChemCompId>
FA4

>  <PdbId>
2D1O

>  <ChainId>
A

>  <ResidueNumber>
1001

>  <InsertionCode>


>  <Model>
1

>  <AltIds>


>  <MissingHeavyAtoms>
0

>  <ObservedFormula>
C24 N6 O3

>  <Name>
SM-25453

>  <SystematicName>
N-[(2R)-6-amino-1-(hydroxyamino)-1-oxo-hexan-2-yl]-10-[2-(carbamimidamidomethyl)phenyl]decanamide

>  <Synonyms>
(2-(9-((R)-1-(HYDROXYCARBAMOYL)-5-AMINOPENTYLCARBAMOYL)NONYL)BENZYL)GUANIDINE, GUANIDINOMETHYLBENZIL D-LYSINE HYDROXAMATE

>  <Type>
NON-POLYMER

>  <Formula>
C24 H42 N6 O3

>  <MolecularWeight>
462.629

>  <ModifiedDate>
2011-06-04

>  <Parent>


>  <OneLetterCode>


>  <SubcomponentList>


>  <AmbiguousFlag>
N

>  <InChI>
InChI=1S/C24H42N6O3/c25-17-11-10-15-21(23(32)30-33)29-22(31)16-7-5-3-1-2-4-6-12-19-13-8-9-14-20(19)18-28-24(26)27/h8-9,13-14,21,33H,1-7,10-12,15-18,25H2,(H,29,31)(H,30,32)(H4,26,27,28)/t21-/m1/s1

>  <InChIKey>
DPKFTMHWVJEOMW-OAQYLSRUSA-N

>  <SMILES>
[H]/N=C(/N)\NCc1ccccc1CCCCCCCCCC(=O)N[C@H](CCCCN)C(=O)NO

$$$$
