3OYQ_OYQ_A_263
  RCSB PDB12061710113D
Coordinates from PDB:3OYQ:A:263 Model:1 without hydrogens
 19 19  0  0  0  0            999 V2000
   -0.2910   10.2450   14.9080   C 0  0  0  0  0  0  0  0  0  0  0  0
    0.3270    8.1210   13.1670   C 0  0  0  0  0  0  0  0  0  0  0  0
   -5.3460   -0.4520   16.0600   N 0  0  0  0  0  0  0  0  0  0  0  0
   -4.7630    6.7140   13.0320   O 0  0  0  0  0  0  0  0  0  0  0  0
   -5.3770    1.2400   18.0450   O 0  0  0  0  0  0  0  0  0  0  0  0
   -7.3160    1.1810   16.5400   O 0  0  0  0  0  0  0  0  0  0  0  0
   -5.1920    4.4030   14.5200   C 0  0  0  0  0  0  0  0  0  0  0  0
   -3.1020    3.2280   14.7680   C 0  0  0  0  0  0  0  0  0  0  0  0
   -5.8370    3.3890   15.2430   C 0  0  0  0  0  0  0  0  0  0  0  0
   -3.7260    2.2440   15.4980   C 0  0  0  0  0  0  0  0  0  0  0  0
   -0.9520    8.9190   15.0920   C 0  0  0  0  0  0  0  0  0  0  0  0
   -2.6310    7.3190   12.2220   C 0  0  0  0  0  0  0  0  0  0  0  0
   -2.0520    8.4300   13.0060   C 0  0  0  0  0  0  0  0  0  0  0  0
   -3.0400    5.2590   13.5640   N 0  0  0  0  0  0  0  0  0  0  0  0
   -3.5750    6.4350   12.9590   C 0  0  0  0  0  0  0  0  0  0  0  0
   -3.8170    4.3070   14.2930   C 0  0  0  0  0  0  0  0  0  0  0  0
   -5.0920    2.2980   15.7430   C 0  0  0  0  0  0  0  0  0  0  0  0
   -0.9620    8.0160   13.9160   C 0  0  0  0  0  0  0  0  0  0  0  0
   -5.8440    0.9830   16.6910   S 0  0  0  0  0  0  0  0  0  0  0  0
  1 11  1  0  0  0  0
  2 18  1  0  0  0  0
  3 19  1  0  0  0  0
  6 19  2  0  0  0  0
  7  9  1  0  0  0  0
  8 10  2  0  0  0  0
  9 17  2  0  0  0  0
 10 17  1  0  0  0  0
 12 15  1  0  0  0  0
 12 13  1  0  0  0  0
 13 18  1  0  0  0  0
 14 16  1  0  0  0  0
 15  4  2  0  0  0  0
 15 14  1  0  0  0  0
 16  7  2  0  0  0  0
 16  8  1  0  0  0  0
 17 19  1  0  0  0  0
 18 11  1  0  0  0  0
 19  5  2  0  0  0  0
A    1
CAA
A    2
CAB
A    3
NAC
A    4
OAD
A    5
OAE
A    6
OAF
A    7
CAG
A    8
CAH
A    9
CAI
A   10
CAJ
A   11
CAK
A   12
CAL
A   13
CAM
A   14
NAN
A   15
CAO
A   16
CAP
A   17
CAQ
A   18
CAR
A   19
SAS
M  END
>  <InstanceId>
3OYQ_OYQ_A_263

>  <ChemCompId>
OYQ

>  <PdbId>
3OYQ

>  <ChainId>
A

>  <ResidueNumber>
263

>  <InsertionCode>


>  <Model>
1

>  <AltIds>


>  <MissingHeavyAtoms>
0

>  <ObservedFormula>
C13 N2 O3 S

>  <Name>
(4S)-4-methyl-N-(4-sulfamoylphenyl)hexanamide

>  <SystematicName>
(4S)-4-methyl-N-(4-sulfamoylphenyl)hexanamide

>  <Synonyms>


>  <Type>
NON-POLYMER

>  <Formula>
C13 H20 N2 O3 S

>  <MolecularWeight>
284.375

>  <ModifiedDate>
2011-08-05

>  <Parent>


>  <OneLetterCode>


>  <SubcomponentList>


>  <AmbiguousFlag>
N

>  <InChI>
InChI=1S/C13H20N2O3S/c1-3-10(2)4-9-13(16)15-11-5-7-12(8-6-11)19(14,17)18/h5-8,10H,3-4,9H2,1-2H3,(H,15,16)(H2,14,17,18)/t10-/m0/s1

>  <InChIKey>
NTFBKJBQQKWQSL-JTQLQIEISA-N

>  <SMILES>
CC[C@H](C)CCC(=O)Nc1ccc(cc1)S(=O)(=O)N

$$$$
