3OYQ_OYQ_A_263


 22 22  0  0  0  0  0  0  0  0999 V2000
   -3.6629    3.7229   14.7981 C   0  0  0  0  0  0  0  0  0  0  0  0
   -5.8763    4.6549   15.0046 C   0  0  0  0  0  0  0  0  0  0  0  0
   -4.0713    2.6110   15.5490 C   0  0  0  0  0  0  0  0  0  0  0  0
   -6.2874    3.5553   15.7204 C   0  0  0  0  0  0  0  0  0  0  0  0
   -4.5837    4.7391   14.5319 C   0  0  0  0  0  0  0  0  0  0  0  0
   -5.4033    2.5245   16.0112 C   0  0  0  0  0  0  0  0  0  0  0  0
   -7.6418    1.1335   16.8954 N   0  0  0  0  0  0  0  0  0  0  0  0
   -5.3763   -0.0094   16.2908 O   0  0  0  0  0  0  0  0  0  0  0  0
   -5.4851    1.3399   18.3391 O   0  0  0  0  0  0  0  0  0  0  0  0
   -5.9980    1.1273   16.9533 S   0  0  0  0  0  0  0  0  0  0  0  0
   -7.9959    1.9583   17.3798 H   0  0  0  0  0  0  0  0  0  0  0  0
   -8.0011    0.2930   17.3480 H   0  0  0  0  0  0  0  0  0  0  0  0
   -5.0088    5.1757   11.7199 O   0  0  0  0  0  0  0  0  0  0  0  0
   -4.2985    5.9283   13.7931 N   0  0  0  0  0  0  0  0  0  0  0  0
   -4.5320    6.0776   12.3937 C   0  0  0  0  0  0  0  0  0  0  0  0
   -3.9166    6.6934   14.2808 H   0  0  0  0  0  0  0  0  0  0  0  0
   -4.1667    7.3793   11.7710 C   0  0  0  0  0  0  0  0  0  0  0  0
   -4.9662    7.7696   10.5908 C   0  0  0  0  0  0  0  0  0  0  0  0
   -6.1303    9.8528   10.2969 C   0  0  0  0  0  0  0  0  0  0  0  0
   -6.2091    8.4987   10.9243 C   0  0  0  0  0  0  0  0  0  0  0  0
   -7.2165    7.1965    9.0028 C   0  0  0  0  0  0  0  0  0  0  0  0
   -7.3655    7.7445   10.3836 C   0  0  0  0  0  0  0  0  0  0  0  0
 21 22  1  0  0  0
 19 20  1  0  0  0
  7 10  1  0  0  0
  9 10  2  0  0  0
  1  3  1  0  0  0
  2  4  2  0  0  0
  3  6  2  0  0  0
  4  6  1  0  0  0
 17 15  1  0  0  0
 17 18  1  0  0  0
 18 20  1  0  0  0
 14  5  1  0  0  0
 15 13  2  0  0  0
 15 14  1  0  0  0
  5  1  2  0  0  0
  5  2  1  0  0  0
  6 10  1  0  0  0
 20 22  1  0  0  0
 10  8  2  0  0  0
  7 11  1  0  0  0
  7 12  1  0  0  0
 14 16  1  0  0  0
M  END
> <minimizedAffinity>
-7.09148

$$$$
3OYQ_OYQ_A_263


 22 22  0  0  0  0  0  0  0  0999 V2000
   -6.0394    4.8806   15.0737 C   0  0  0  0  0  0  0  0  0  0  0  0
   -3.8938    3.8344   14.7394 C   0  0  0  0  0  0  0  0  0  0  0  0
   -6.4600    3.7620   15.8077 C   0  0  0  0  0  0  0  0  0  0  0  0
   -4.2937    2.7463   15.4788 C   0  0  0  0  0  0  0  0  0  0  0  0
   -4.7460    4.9010   14.5465 C   0  0  0  0  0  0  0  0  0  0  0  0
   -5.5725    2.6832   16.0171 C   0  0  0  0  0  0  0  0  0  0  0  0
   -5.2692   -0.0647   16.3079 N   0  0  0  0  0  0  0  0  0  0  0  0
   -5.6065    1.5715   18.3112 O   0  0  0  0  0  0  0  0  0  0  0  0
   -7.5174    1.1393   16.8313 O   0  0  0  0  0  0  0  0  0  0  0  0
   -6.0333    1.2373   16.9608 S   0  0  0  0  0  0  0  0  0  0  0  0
   -5.6242   -0.2303   15.3661 H   0  0  0  0  0  0  0  0  0  0  0  0
   -5.4434   -0.8865   16.8864 H   0  0  0  0  0  0  0  0  0  0  0  0
   -5.0217    5.3047   11.7111 O   0  0  0  0  0  0  0  0  0  0  0  0
   -4.1953    5.9677   13.7717 N   0  0  0  0  0  0  0  0  0  0  0  0
   -4.3688    6.1071   12.3626 C   0  0  0  0  0  0  0  0  0  0  0  0
   -3.6621    6.6500   14.2402 H   0  0  0  0  0  0  0  0  0  0  0  0
   -3.7171    7.2708   11.7017 C   0  0  0  0  0  0  0  0  0  0  0  0
   -4.4211    7.8109   10.5198 C   0  0  0  0  0  0  0  0  0  0  0  0
   -5.2280   10.0168   10.0061 C   0  0  0  0  0  0  0  0  0  0  0  0
   -5.4658    8.8051   10.8479 C   0  0  0  0  0  0  0  0  0  0  0  0
   -7.6104    7.7834   11.7197 C   0  0  0  0  0  0  0  0  0  0  0  0
   -6.7944    8.2192   10.5478 C   0  0  0  0  0  0  0  0  0  0  0  0
 21 22  1  0  0  0
 19 20  1  0  0  0
  7 10  1  0  0  0
  9 10  2  0  0  0
  1  3  1  0  0  0
  2  4  2  0  0  0
  3  6  2  0  0  0
  4  6  1  0  0  0
 17 15  1  0  0  0
 17 18  1  0  0  0
 18 20  1  0  0  0
 14  5  1  0  0  0
 15 13  2  0  0  0
 15 14  1  0  0  0
  5  1  2  0  0  0
  5  2  1  0  0  0
  6 10  1  0  0  0
 20 22  1  0  0  0
 10  8  2  0  0  0
  7 11  1  0  0  0
  7 12  1  0  0  0
 14 16  1  0  0  0
M  END
> <minimizedAffinity>
-6.91571

$$$$
3OYQ_OYQ_A_263


 22 22  0  0  0  0  0  0  0  0999 V2000
   -5.6527    4.7113   15.0449 C   0  0  0  0  0  0  0  0  0  0  0  0
   -3.4674    3.6957   15.1036 C   0  0  0  0  0  0  0  0  0  0  0  0
   -6.1855    3.5789   15.6779 C   0  0  0  0  0  0  0  0  0  0  0  0
   -3.9815    2.5941   15.7460 C   0  0  0  0  0  0  0  0  0  0  0  0
   -4.2845    4.7539   14.7663 C   0  0  0  0  0  0  0  0  0  0  0  0
   -5.3366    2.5088   16.0378 C   0  0  0  0  0  0  0  0  0  0  0  0
   -7.5870    1.0771   16.8209 N   0  0  0  0  0  0  0  0  0  0  0  0
   -5.3399   -0.0397   16.1086 O   0  0  0  0  0  0  0  0  0  0  0  0
   -5.4192    1.1384   18.2614 O   0  0  0  0  0  0  0  0  0  0  0  0
   -5.9432    1.0463   16.8664 S   0  0  0  0  0  0  0  0  0  0  0  0
   -7.9278    1.8636   17.3737 H   0  0  0  0  0  0  0  0  0  0  0  0
   -7.9542    0.2067   17.2057 H   0  0  0  0  0  0  0  0  0  0  0  0
   -4.5168    5.5273   12.0047 O   0  0  0  0  0  0  0  0  0  0  0  0
   -3.6154    5.8365   14.1167 N   0  0  0  0  0  0  0  0  0  0  0  0
   -3.7742    6.1646   12.7375 C   0  0  0  0  0  0  0  0  0  0  0  0
   -3.0059    6.3912   14.6553 H   0  0  0  0  0  0  0  0  0  0  0  0
   -2.9934    7.3174   12.2110 C   0  0  0  0  0  0  0  0  0  0  0  0
   -1.8321    7.7285   13.0275 C   0  0  0  0  0  0  0  0  0  0  0  0
   -2.4846    9.7967   11.9893 C   0  0  0  0  0  0  0  0  0  0  0  0
   -1.5492    9.1794   12.9779 C   0  0  0  0  0  0  0  0  0  0  0  0
   -1.6729    8.8102   15.4781 C   0  0  0  0  0  0  0  0  0  0  0  0
   -1.7678    9.7556   14.3265 C   0  0  0  0  0  0  0  0  0  0  0  0
 21 22  1  0  0  0
 19 20  1  0  0  0
  7 10  1  0  0  0
  9 10  2  0  0  0
  1  3  1  0  0  0
  2  4  2  0  0  0
  3  6  2  0  0  0
  4  6  1  0  0  0
 17 15  1  0  0  0
 17 18  1  0  0  0
 18 20  1  0  0  0
 14  5  1  0  0  0
 15 13  2  0  0  0
 15 14  1  0  0  0
  5  1  2  0  0  0
  5  2  1  0  0  0
  6 10  1  0  0  0
 20 22  1  0  0  0
 10  8  2  0  0  0
  7 11  1  0  0  0
  7 12  1  0  0  0
 14 16  1  0  0  0
M  END
> <minimizedAffinity>
-6.60969

$$$$
3OYQ_OYQ_A_263


 22 22  0  0  0  0  0  0  0  0999 V2000
   -6.1141    4.7918   14.8404 C   0  0  0  0  0  0  0  0  0  0  0  0
   -4.1065    3.4916   14.5414 C   0  0  0  0  0  0  0  0  0  0  0  0
   -6.5868    3.8351   15.7506 C   0  0  0  0  0  0  0  0  0  0  0  0
   -4.5554    2.5637   15.4513 C   0  0  0  0  0  0  0  0  0  0  0  0
   -4.8647    4.6043   14.2444 C   0  0  0  0  0  0  0  0  0  0  0  0
   -5.7935    2.7091   16.0637 C   0  0  0  0  0  0  0  0  0  0  0  0
   -5.4066    0.1179   16.9930 N   0  0  0  0  0  0  0  0  0  0  0  0
   -6.1226    2.1083   18.5194 O   0  0  0  0  0  0  0  0  0  0  0  0
   -7.7633    1.2220   16.9224 O   0  0  0  0  0  0  0  0  0  0  0  0
   -6.3226    1.4633   17.2305 S   0  0  0  0  0  0  0  0  0  0  0  0
   -5.6060   -0.2709   16.0713 H   0  0  0  0  0  0  0  0  0  0  0  0
   -5.6272   -0.5743   17.7090 H   0  0  0  0  0  0  0  0  0  0  0  0
   -3.2585    6.9243   14.8072 O   0  0  0  0  0  0  0  0  0  0  0  0
   -4.2706    5.4906   13.2942 N   0  0  0  0  0  0  0  0  0  0  0  0
   -3.4847    6.6292   13.6426 C   0  0  0  0  0  0  0  0  0  0  0  0
   -4.4125    5.3037   12.3381 H   0  0  0  0  0  0  0  0  0  0  0  0
   -2.9475    7.4599   12.5304 C   0  0  0  0  0  0  0  0  0  0  0  0
   -3.6392    7.3141   11.2325 C   0  0  0  0  0  0  0  0  0  0  0  0
   -4.2323    9.2404    9.9214 C   0  0  0  0  0  0  0  0  0  0  0  0
   -4.6988    8.3202   11.0027 C   0  0  0  0  0  0  0  0  0  0  0  0
   -7.0851    7.6757   11.5439 C   0  0  0  0  0  0  0  0  0  0  0  0
   -5.9394    7.6219   10.5881 C   0  0  0  0  0  0  0  0  0  0  0  0
 21 22  1  0  0  0
 19 20  1  0  0  0
  7 10  1  0  0  0
  9 10  2  0  0  0
  1  3  1  0  0  0
  2  4  2  0  0  0
  3  6  2  0  0  0
  4  6  1  0  0  0
 17 15  1  0  0  0
 17 18  1  0  0  0
 18 20  1  0  0  0
 14  5  1  0  0  0
 15 13  2  0  0  0
 15 14  1  0  0  0
  5  1  2  0  0  0
  5  2  1  0  0  0
  6 10  1  0  0  0
 20 22  1  0  0  0
 10  8  2  0  0  0
  7 11  1  0  0  0
  7 12  1  0  0  0
 14 16  1  0  0  0
M  END
> <minimizedAffinity>
-6.57739

$$$$
3OYQ_OYQ_A_263


 22 22  0  0  0  0  0  0  0  0999 V2000
   -3.5564    3.2696   15.0417 C   0  0  0  0  0  0  0  0  0  0  0  0
   -5.6175    4.5037   14.8438 C   0  0  0  0  0  0  0  0  0  0  0  0
   -4.1871    2.3753   15.9189 C   0  0  0  0  0  0  0  0  0  0  0  0
   -6.2461    3.6154   15.6843 C   0  0  0  0  0  0  0  0  0  0  0  0
   -4.2911    4.3316   14.5090 C   0  0  0  0  0  0  0  0  0  0  0  0
   -5.5519    2.5484   16.2395 C   0  0  0  0  0  0  0  0  0  0  0  0
   -5.6300   -0.0052   17.3352 N   0  0  0  0  0  0  0  0  0  0  0  0
   -6.4060    2.1364   18.6061 O   0  0  0  0  0  0  0  0  0  0  0  0
   -7.7974    1.3160   16.7570 O   0  0  0  0  0  0  0  0  0  0  0  0
   -6.4246    1.4349   17.3313 S   0  0  0  0  0  0  0  0  0  0  0  0
   -5.6904   -0.4294   16.4095 H   0  0  0  0  0  0  0  0  0  0  0  0
   -6.0561   -0.6268   18.0225 H   0  0  0  0  0  0  0  0  0  0  0  0
   -3.3628    6.9676   15.1937 O   0  0  0  0  0  0  0  0  0  0  0  0
   -3.7714    5.3195   13.6171 N   0  0  0  0  0  0  0  0  0  0  0  0
   -3.3295    6.6135   14.0241 C   0  0  0  0  0  0  0  0  0  0  0  0
   -3.7147    5.0928   12.6608 H   0  0  0  0  0  0  0  0  0  0  0  0
   -2.8264    7.5321   12.9664 C   0  0  0  0  0  0  0  0  0  0  0  0
   -1.3672    7.7665   12.9651 C   0  0  0  0  0  0  0  0  0  0  0  0
   -2.0908   10.0594   12.9515 C   0  0  0  0  0  0  0  0  0  0  0  0
   -0.9815    9.1411   13.3513 C   0  0  0  0  0  0  0  0  0  0  0  0
    0.1064   10.2731   15.3357 C   0  0  0  0  0  0  0  0  0  0  0  0
   -0.7767    9.1857   14.8191 C   0  0  0  0  0  0  0  0  0  0  0  0
 21 22  1  0  0  0
 19 20  1  0  0  0
  7 10  1  0  0  0
  9 10  2  0  0  0
  1  3  1  0  0  0
  2  4  2  0  0  0
  3  6  2  0  0  0
  4  6  1  0  0  0
 17 15  1  0  0  0
 17 18  1  0  0  0
 18 20  1  0  0  0
 14  5  1  0  0  0
 15 13  2  0  0  0
 15 14  1  0  0  0
  5  1  2  0  0  0
  5  2  1  0  0  0
  6 10  1  0  0  0
 20 22  1  0  0  0
 10  8  2  0  0  0
  7 11  1  0  0  0
  7 12  1  0  0  0
 14 16  1  0  0  0
M  END
> <minimizedAffinity>
-6.36999

$$$$
3OYQ_OYQ_A_263


 22 22  0  0  0  0  0  0  0  0999 V2000
   -5.5691    4.1825   14.5267 C   0  0  0  0  0  0  0  0  0  0  0  0
   -4.2200    2.2359   14.0785 C   0  0  0  0  0  0  0  0  0  0  0  0
   -6.1328    3.5260   15.6304 C   0  0  0  0  0  0  0  0  0  0  0  0
   -4.7523    1.5978   15.1739 C   0  0  0  0  0  0  0  0  0  0  0  0
   -4.6077    3.5201   13.7597 C   0  0  0  0  0  0  0  0  0  0  0  0
   -5.7140    2.2181   15.9608 C   0  0  0  0  0  0  0  0  0  0  0  0
   -6.2921    2.3193   18.6780 N   0  0  0  0  0  0  0  0  0  0  0  0
   -7.7250    0.9981   16.9445 O   0  0  0  0  0  0  0  0  0  0  0  0
   -5.5010    0.1283   17.5154 O   0  0  0  0  0  0  0  0  0  0  0  0
   -6.3725    1.3312   17.3656 S   0  0  0  0  0  0  0  0  0  0  0  0
   -5.3150    2.5027   18.9062 H   0  0  0  0  0  0  0  0  0  0  0  0
   -6.7476    1.8684   19.4715 H   0  0  0  0  0  0  0  0  0  0  0  0
   -5.2578    3.0004   11.0055 O   0  0  0  0  0  0  0  0  0  0  0  0
   -3.9642    4.0649   12.6062 N   0  0  0  0  0  0  0  0  0  0  0  0
   -4.3365    3.7617   11.2628 C   0  0  0  0  0  0  0  0  0  0  0  0
   -3.2163    4.6893   12.7474 H   0  0  0  0  0  0  0  0  0  0  0  0
   -3.5545    4.4042   10.1713 C   0  0  0  0  0  0  0  0  0  0  0  0
   -2.5327    5.3794   10.6062 C   0  0  0  0  0  0  0  0  0  0  0  0
   -0.4669    5.8564    9.4722 C   0  0  0  0  0  0  0  0  0  0  0  0
   -1.1418    4.9141   10.4156 C   0  0  0  0  0  0  0  0  0  0  0  0
    0.0145    6.2397   12.2346 C   0  0  0  0  0  0  0  0  0  0  0  0
   -0.4531    4.9151   11.7287 C   0  0  0  0  0  0  0  0  0  0  0  0
 21 22  1  0  0  0
 19 20  1  0  0  0
  7 10  1  0  0  0
  9 10  2  0  0  0
  1  3  1  0  0  0
  2  4  2  0  0  0
  3  6  2  0  0  0
  4  6  1  0  0  0
 17 15  1  0  0  0
 17 18  1  0  0  0
 18 20  1  0  0  0
 14  5  1  0  0  0
 15 13  2  0  0  0
 15 14  1  0  0  0
  5  1  2  0  0  0
  5  2  1  0  0  0
  6 10  1  0  0  0
 20 22  1  0  0  0
 10  8  2  0  0  0
  7 11  1  0  0  0
  7 12  1  0  0  0
 14 16  1  0  0  0
M  END
> <minimizedAffinity>
-6.22491

$$$$
3OYQ_OYQ_A_263


 22 22  0  0  0  0  0  0  0  0999 V2000
   -6.0522    4.8550   15.0733 C   0  0  0  0  0  0  0  0  0  0  0  0
   -3.8844    3.8348   14.8086 C   0  0  0  0  0  0  0  0  0  0  0  0
   -6.4802    3.7347   15.8004 C   0  0  0  0  0  0  0  0  0  0  0  0
   -4.2924    2.7453   15.5416 C   0  0  0  0  0  0  0  0  0  0  0  0
   -4.7439    4.8894   14.5848 C   0  0  0  0  0  0  0  0  0  0  0  0
   -5.5857    2.6684   16.0419 C   0  0  0  0  0  0  0  0  0  0  0  0
   -5.2918   -0.0810   16.3274 N   0  0  0  0  0  0  0  0  0  0  0  0
   -5.6363    1.5510   18.3328 O   0  0  0  0  0  0  0  0  0  0  0  0
   -7.5396    1.1279   16.8407 O   0  0  0  0  0  0  0  0  0  0  0  0
   -6.0561    1.2214   16.9791 S   0  0  0  0  0  0  0  0  0  0  0  0
   -5.6417   -0.2433   15.3831 H   0  0  0  0  0  0  0  0  0  0  0  0
   -5.4717   -0.9039   16.9027 H   0  0  0  0  0  0  0  0  0  0  0  0
   -5.0856    5.3721   11.7690 O   0  0  0  0  0  0  0  0  0  0  0  0
   -4.1839    5.9592   13.8210 N   0  0  0  0  0  0  0  0  0  0  0  0
   -4.3920    6.1390   12.4212 C   0  0  0  0  0  0  0  0  0  0  0  0
   -3.6184    6.6141   14.2908 H   0  0  0  0  0  0  0  0  0  0  0  0
   -3.7251    7.3000   11.7708 C   0  0  0  0  0  0  0  0  0  0  0  0
   -2.3092    7.0973   11.3988 C   0  0  0  0  0  0  0  0  0  0  0  0
   -1.4312    5.2126   10.1914 C   0  0  0  0  0  0  0  0  0  0  0  0
   -1.8470    5.6996   11.5417 C   0  0  0  0  0  0  0  0  0  0  0  0
    0.5253    6.4132   12.0570 C   0  0  0  0  0  0  0  0  0  0  0  0
   -0.6984    5.6693   12.4789 C   0  0  0  0  0  0  0  0  0  0  0  0
 21 22  1  0  0  0
 19 20  1  0  0  0
  7 10  1  0  0  0
  9 10  2  0  0  0
  1  3  1  0  0  0
  2  4  2  0  0  0
  3  6  2  0  0  0
  4  6  1  0  0  0
 17 15  1  0  0  0
 17 18  1  0  0  0
 18 20  1  0  0  0
 14  5  1  0  0  0
 15 13  2  0  0  0
 15 14  1  0  0  0
  5  1  2  0  0  0
  5  2  1  0  0  0
  6 10  1  0  0  0
 20 22  1  0  0  0
 10  8  2  0  0  0
  7 11  1  0  0  0
  7 12  1  0  0  0
 14 16  1  0  0  0
M  END
> <minimizedAffinity>
-6.14373

$$$$
3OYQ_OYQ_A_263


 22 22  0  0  0  0  0  0  0  0999 V2000
   -3.6397    3.2244   14.9317 C   0  0  0  0  0  0  0  0  0  0  0  0
   -5.7197    4.4289   14.7502 C   0  0  0  0  0  0  0  0  0  0  0  0
   -4.2338    2.3574   15.8603 C   0  0  0  0  0  0  0  0  0  0  0  0
   -6.3129    3.5665   15.6419 C   0  0  0  0  0  0  0  0  0  0  0  0
   -4.4020    4.2580   14.3822 C   0  0  0  0  0  0  0  0  0  0  0  0
   -5.5903    2.5283   16.2153 C   0  0  0  0  0  0  0  0  0  0  0  0
   -5.6247    0.0066   17.3847 N   0  0  0  0  0  0  0  0  0  0  0  0
   -6.3444    2.1848   18.6264 O   0  0  0  0  0  0  0  0  0  0  0  0
   -7.8133    1.3159   16.8613 O   0  0  0  0  0  0  0  0  0  0  0  0
   -6.4173    1.4478   17.3738 S   0  0  0  0  0  0  0  0  0  0  0  0
   -5.7245   -0.4432   16.4747 H   0  0  0  0  0  0  0  0  0  0  0  0
   -6.0221   -0.5945   18.1066 H   0  0  0  0  0  0  0  0  0  0  0  0
   -3.4229    6.9040   14.9472 O   0  0  0  0  0  0  0  0  0  0  0  0
   -3.9204    5.2169   13.4388 N   0  0  0  0  0  0  0  0  0  0  0  0
   -3.4500    6.5178   13.7876 C   0  0  0  0  0  0  0  0  0  0  0  0
   -3.9127    4.9638   12.4874 H   0  0  0  0  0  0  0  0  0  0  0  0
   -2.9937    7.4031   12.6813 C   0  0  0  0  0  0  0  0  0  0  0  0
   -3.7137    7.2473   11.4001 C   0  0  0  0  0  0  0  0  0  0  0  0
   -1.4584    7.4833   10.6006 C   0  0  0  0  0  0  0  0  0  0  0  0
   -2.8275    7.0037   10.2412 C   0  0  0  0  0  0  0  0  0  0  0  0
   -2.4193    5.1512    8.5666 C   0  0  0  0  0  0  0  0  0  0  0  0
   -2.8070    5.5496    9.9523 C   0  0  0  0  0  0  0  0  0  0  0  0
 21 22  1  0  0  0
 19 20  1  0  0  0
  7 10  1  0  0  0
  9 10  2  0  0  0
  1  3  1  0  0  0
  2  4  2  0  0  0
  3  6  2  0  0  0
  4  6  1  0  0  0
 17 15  1  0  0  0
 17 18  1  0  0  0
 18 20  1  0  0  0
 14  5  1  0  0  0
 15 13  2  0  0  0
 15 14  1  0  0  0
  5  1  2  0  0  0
  5  2  1  0  0  0
  6 10  1  0  0  0
 20 22  1  0  0  0
 10  8  2  0  0  0
  7 11  1  0  0  0
  7 12  1  0  0  0
 14 16  1  0  0  0
M  END
> <minimizedAffinity>
-6.03957

$$$$
3OYQ_OYQ_A_263


 22 22  0  0  0  0  0  0  0  0999 V2000
   -6.2365    4.7598   15.0325 C   0  0  0  0  0  0  0  0  0  0  0  0
   -4.5440    3.2154   14.2840 C   0  0  0  0  0  0  0  0  0  0  0  0
   -6.5905    3.8635   16.0514 C   0  0  0  0  0  0  0  0  0  0  0  0
   -4.8715    2.3444   15.2963 C   0  0  0  0  0  0  0  0  0  0  0  0
   -5.2043    4.4189   14.1552 C   0  0  0  0  0  0  0  0  0  0  0  0
   -5.8942    2.6420   16.1876 C   0  0  0  0  0  0  0  0  0  0  0  0
   -6.2492    2.2550   18.9174 N   0  0  0  0  0  0  0  0  0  0  0  0
   -7.5864    0.9616   17.0890 O   0  0  0  0  0  0  0  0  0  0  0  0
   -5.2095    0.4234   17.3869 O   0  0  0  0  0  0  0  0  0  0  0  0
   -6.2765    1.4638   17.4756 S   0  0  0  0  0  0  0  0  0  0  0  0
   -5.2999    2.5728   19.1128 H   0  0  0  0  0  0  0  0  0  0  0  0
   -6.5555    1.6236   19.6576 H   0  0  0  0  0  0  0  0  0  0  0  0
   -3.4420    6.6884   14.3046 O   0  0  0  0  0  0  0  0  0  0  0  0
   -4.7523    5.2303   13.0694 N   0  0  0  0  0  0  0  0  0  0  0  0
   -3.8772    6.3476   13.2142 C   0  0  0  0  0  0  0  0  0  0  0  0
   -5.0646    5.0038   12.1637 H   0  0  0  0  0  0  0  0  0  0  0  0
   -3.5114    7.0983   11.9820 C   0  0  0  0  0  0  0  0  0  0  0  0
   -4.6426    7.6752   11.2259 C   0  0  0  0  0  0  0  0  0  0  0  0
   -6.6145    7.1529    9.9531 C   0  0  0  0  0  0  0  0  0  0  0  0
   -5.1867    6.7769   10.1844 C   0  0  0  0  0  0  0  0  0  0  0  0
   -3.7018    5.7403    8.4172 C   0  0  0  0  0  0  0  0  0  0  0  0
   -4.3976    6.9527    8.9415 C   0  0  0  0  0  0  0  0  0  0  0  0
 21 22  1  0  0  0
 19 20  1  0  0  0
  7 10  1  0  0  0
  9 10  2  0  0  0
  1  3  1  0  0  0
  2  4  2  0  0  0
  3  6  2  0  0  0
  4  6  1  0  0  0
 17 15  1  0  0  0
 17 18  1  0  0  0
 18 20  1  0  0  0
 14  5  1  0  0  0
 15 13  2  0  0  0
 15 14  1  0  0  0
  5  1  2  0  0  0
  5  2  1  0  0  0
  6 10  1  0  0  0
 20 22  1  0  0  0
 10  8  2  0  0  0
  7 11  1  0  0  0
  7 12  1  0  0  0
 14 16  1  0  0  0
M  END
> <minimizedAffinity>
-5.92688

$$$$
3OYQ_OYQ_A_263


 22 22  0  0  0  0  0  0  0  0999 V2000
   -1.9437    5.8995   13.7778 C   0  0  0  0  0  0  0  0  0  0  0  0
   -2.6760    3.7996   12.8480 C   0  0  0  0  0  0  0  0  0  0  0  0
   -0.9673    5.9921   12.7752 C   0  0  0  0  0  0  0  0  0  0  0  0
   -1.7362    3.8983   11.8493 C   0  0  0  0  0  0  0  0  0  0  0  0
   -2.7952    4.7923   13.7975 C   0  0  0  0  0  0  0  0  0  0  0  0
   -0.8667    4.9800   11.7950 C   0  0  0  0  0  0  0  0  0  0  0  0
    1.1222    6.4871   10.5701 N   0  0  0  0  0  0  0  0  0  0  0  0
    1.1773    3.8845   10.7358 O   0  0  0  0  0  0  0  0  0  0  0  0
   -0.4515    4.9164    9.2157 O   0  0  0  0  0  0  0  0  0  0  0  0
    0.3378    5.0444   10.4765 S   0  0  0  0  0  0  0  0  0  0  0  0
    0.4664    7.2439   10.3763 H   0  0  0  0  0  0  0  0  0  0  0  0
    1.8778    6.5083    9.8853 H   0  0  0  0  0  0  0  0  0  0  0  0
   -5.6145    5.2703   13.4783 O   0  0  0  0  0  0  0  0  0  0  0  0
   -3.8212    4.5667   14.7659 N   0  0  0  0  0  0  0  0  0  0  0  0
   -5.2056    4.8292   14.5426 C   0  0  0  0  0  0  0  0  0  0  0  0
   -3.5559    4.2073   15.6433 H   0  0  0  0  0  0  0  0  0  0  0  0
   -6.1470    4.5514   15.6617 C   0  0  0  0  0  0  0  0  0  0  0  0
   -6.7189    3.1890   15.6922 C   0  0  0  0  0  0  0  0  0  0  0  0
   -7.3661    1.3087   17.0438 C   0  0  0  0  0  0  0  0  0  0  0  0
   -6.3814    2.4253   16.9130 C   0  0  0  0  0  0  0  0  0  0  0  0
   -4.8179    0.7803   15.7940 C   0  0  0  0  0  0  0  0  0  0  0  0
   -5.0059    1.8887   16.7764 C   0  0  0  0  0  0  0  0  0  0  0  0
 21 22  1  0  0  0
 19 20  1  0  0  0
  7 10  1  0  0  0
  9 10  2  0  0  0
  1  3  1  0  0  0
  2  4  2  0  0  0
  3  6  2  0  0  0
  4  6  1  0  0  0
 17 15  1  0  0  0
 17 18  1  0  0  0
 18 20  1  0  0  0
 14  5  1  0  0  0
 15 13  2  0  0  0
 15 14  1  0  0  0
  5  1  2  0  0  0
  5  2  1  0  0  0
  6 10  1  0  0  0
 20 22  1  0  0  0
 10  8  2  0  0  0
  7 11  1  0  0  0
  7 12  1  0  0  0
 14 16  1  0  0  0
M  END
> <minimizedAffinity>
-5.92346

$$$$
