4PCS_2M7_A_505


 19 20  0  0  0  0  0  0  0  0999 V2000
   31.0193    6.5927   55.8724 C   0  0  0  0  0  0  0  0  0  0  0  0
   29.6003    6.6081   56.2970 N   0  0  0  0  0  0  0  0  0  0  0  0
   29.1545    5.2060   56.2383 C   0  0  0  0  0  0  0  0  0  0  0  0
   27.7004    5.0742   55.8912 C   0  0  0  0  0  0  0  0  0  0  0  0
   30.0449    4.6027   55.2049 C   0  0  0  0  0  0  0  0  0  0  0  0
   29.6874    5.1791   53.9187 O   0  0  0  0  0  0  0  0  0  0  0  0
   31.3481    5.1382   55.7489 C   0  0  0  0  0  0  0  0  0  0  0  0
   32.4566    4.8197   54.8677 O   0  0  0  0  0  0  0  0  0  0  0  0
   29.0455    7.1849   55.6645 H   0  0  0  0  0  0  0  0  0  0  0  0
   29.6848    6.1467   53.9875 H   0  0  0  0  0  0  0  0  0  0  0  0
   32.2678    5.1541   53.9769 H   0  0  0  0  0  0  0  0  0  0  0  0
   32.3340    7.7727   57.7817 C   0  0  0  0  0  0  0  0  0  0  0  0
   31.7498    7.2958   56.9560 C   0  0  0  0  0  0  0  0  0  0  0  0
   32.4644    9.6289   59.3951 C   0  0  0  0  0  0  0  0  0  0  0  0
   33.0994   10.3855   60.3725 C   0  0  0  0  0  0  0  0  0  0  0  0
   34.3787    9.9867   60.7688 C   0  0  0  0  0  0  0  0  0  0  0  0
   35.0095    8.8581   60.2068 C   0  0  0  0  0  0  0  0  0  0  0  0
   34.3552    8.1083   59.2211 C   0  0  0  0  0  0  0  0  0  0  0  0
   33.0701    8.4990   58.8297 C   0  0  0  0  0  0  0  0  0  0  0  0
  6  5  1  0  0  0
  8  7  1  0  0  0
  5  7  1  0  0  0
  5  3  1  0  0  0
  4  3  1  0  0  0
  7  1  1  0  0  0
  1  2  1  0  0  0
  1 13  1  0  0  0
  3  2  1  0  0  0
 13 12  3  0  0  0
 12 19  1  0  0  0
 14 19  2  0  0  0
 14 15  1  0  0  0
 19 18  1  0  0  0
 15 16  2  0  0  0
 18 17  2  0  0  0
 16 17  1  0  0  0
  2  9  1  0  0  0
  6 10  1  0  0  0
  8 11  1  0  0  0
M  END
> <minimizedAffinity>
-7.81405

$$$$
4PCS_2M7_A_505


 19 20  0  0  0  0  0  0  0  0999 V2000
   33.2423    6.9274   58.2721 C   0  0  0  0  0  0  0  0  0  0  0  0
   32.5874    6.9748   56.9443 N   0  0  0  0  0  0  0  0  0  0  0  0
   31.5083    5.9745   56.9994 C   0  0  0  0  0  0  0  0  0  0  0  0
   31.2402    5.3372   55.6675 C   0  0  0  0  0  0  0  0  0  0  0  0
   31.9959    4.9949   58.0130 C   0  0  0  0  0  0  0  0  0  0  0  0
   33.1412    4.3014   57.4459 O   0  0  0  0  0  0  0  0  0  0  0  0
   32.3811    6.0010   59.0715 C   0  0  0  0  0  0  0  0  0  0  0  0
   33.0320    5.3569   60.1976 O   0  0  0  0  0  0  0  0  0  0  0  0
   33.2544    6.7389   56.2096 H   0  0  0  0  0  0  0  0  0  0  0  0
   33.7822    4.9509   57.1170 H   0  0  0  0  0  0  0  0  0  0  0  0
   33.7954    4.8483   59.8822 H   0  0  0  0  0  0  0  0  0  0  0  0
   33.2689    9.3720   59.1609 C   0  0  0  0  0  0  0  0  0  0  0  0
   33.2386    8.3323   58.7500 C   0  0  0  0  0  0  0  0  0  0  0  0
   32.0867   11.3296   60.0749 C   0  0  0  0  0  0  0  0  0  0  0  0
   32.0070   12.6543   60.4868 C   0  0  0  0  0  0  0  0  0  0  0  0
   33.1668   13.4289   60.4002 C   0  0  0  0  0  0  0  0  0  0  0  0
   34.3790   12.8952   59.9175 C   0  0  0  0  0  0  0  0  0  0  0  0
   34.4404   11.5580   59.5047 C   0  0  0  0  0  0  0  0  0  0  0  0
   33.2836   10.7772   59.6000 C   0  0  0  0  0  0  0  0  0  0  0  0
  6  5  1  0  0  0
  8  7  1  0  0  0
  5  7  1  0  0  0
  5  3  1  0  0  0
  4  3  1  0  0  0
  7  1  1  0  0  0
  1  2  1  0  0  0
  1 13  1  0  0  0
  3  2  1  0  0  0
 13 12  3  0  0  0
 12 19  1  0  0  0
 14 19  2  0  0  0
 14 15  1  0  0  0
 19 18  1  0  0  0
 15 16  2  0  0  0
 18 17  2  0  0  0
 16 17  1  0  0  0
  2  9  1  0  0  0
  6 10  1  0  0  0
  8 11  1  0  0  0
M  END
> <minimizedAffinity>
-6.66242

$$$$
4PCS_2M7_A_505


 19 20  0  0  0  0  0  0  0  0999 V2000
   31.6908    7.3805   58.8115 C   0  0  0  0  0  0  0  0  0  0  0  0
   32.7668    6.4612   59.2491 N   0  0  0  0  0  0  0  0  0  0  0  0
   33.0649    5.6164   58.0806 C   0  0  0  0  0  0  0  0  0  0  0  0
   33.5077    4.2342   58.4626 C   0  0  0  0  0  0  0  0  0  0  0  0
   31.7828    5.6147   57.3185 C   0  0  0  0  0  0  0  0  0  0  0  0
   30.8042    4.8721   58.0964 O   0  0  0  0  0  0  0  0  0  0  0  0
   31.5493    7.1066   57.3473 C   0  0  0  0  0  0  0  0  0  0  0  0
   30.2633    7.4491   56.7680 O   0  0  0  0  0  0  0  0  0  0  0  0
   32.4496    5.8883   60.0311 H   0  0  0  0  0  0  0  0  0  0  0  0
   30.7785    5.2208   59.0012 H   0  0  0  0  0  0  0  0  0  0  0  0
   29.5617    6.9608   57.2266 H   0  0  0  0  0  0  0  0  0  0  0  0
   32.5172    9.7744   59.4053 C   0  0  0  0  0  0  0  0  0  0  0  0
   32.1940    8.7386   59.1346 C   0  0  0  0  0  0  0  0  0  0  0  0
   32.1638   12.0434   60.2953 C   0  0  0  0  0  0  0  0  0  0  0  0
   32.5760   13.3291   60.6239 C   0  0  0  0  0  0  0  0  0  0  0  0
   33.9100   13.6632   60.3762 C   0  0  0  0  0  0  0  0  0  0  0  0
   34.8135   12.7367   59.8171 C   0  0  0  0  0  0  0  0  0  0  0  0
   34.3800   11.4455   59.4901 C   0  0  0  0  0  0  0  0  0  0  0  0
   33.0476   11.1047   59.7466 C   0  0  0  0  0  0  0  0  0  0  0  0
  6  5  1  0  0  0
  8  7  1  0  0  0
  5  7  1  0  0  0
  5  3  1  0  0  0
  4  3  1  0  0  0
  7  1  1  0  0  0
  1  2  1  0  0  0
  1 13  1  0  0  0
  3  2  1  0  0  0
 13 12  3  0  0  0
 12 19  1  0  0  0
 14 19  2  0  0  0
 14 15  1  0  0  0
 19 18  1  0  0  0
 15 16  2  0  0  0
 18 17  2  0  0  0
 16 17  1  0  0  0
  2  9  1  0  0  0
  6 10  1  0  0  0
  8 11  1  0  0  0
M  END
> <minimizedAffinity>
-6.61198

$$$$
4PCS_2M7_A_505


 19 20  0  0  0  0  0  0  0  0999 V2000
   31.3942    7.1238   57.0215 C   0  0  0  0  0  0  0  0  0  0  0  0
   30.1242    6.7026   56.3861 N   0  0  0  0  0  0  0  0  0  0  0  0
   30.1175    5.2317   56.4522 C   0  0  0  0  0  0  0  0  0  0  0  0
   29.3979    4.6028   55.2951 C   0  0  0  0  0  0  0  0  0  0  0  0
   31.5667    4.8800   56.4823 C   0  0  0  0  0  0  0  0  0  0  0  0
   32.1310    5.2088   55.1832 O   0  0  0  0  0  0  0  0  0  0  0  0
   31.9703    5.8538   57.5638 C   0  0  0  0  0  0  0  0  0  0  0  0
   33.4082    5.8534   57.7622 O   0  0  0  0  0  0  0  0  0  0  0  0
   30.0903    7.0156   55.4159 H   0  0  0  0  0  0  0  0  0  0  0  0
   31.9044    6.1238   54.9545 H   0  0  0  0  0  0  0  0  0  0  0  0
   33.8509    6.0396   56.9195 H   0  0  0  0  0  0  0  0  0  0  0  0
   30.7380    8.8872   58.8176 C   0  0  0  0  0  0  0  0  0  0  0  0
   30.9947    8.1070   58.0586 C   0  0  0  0  0  0  0  0  0  0  0  0
   29.0741    9.6440   60.4681 C   0  0  0  0  0  0  0  0  0  0  0  0
   28.5780   10.5269   61.4197 C   0  0  0  0  0  0  0  0  0  0  0  0
   29.3457   11.6562   61.7158 C   0  0  0  0  0  0  0  0  0  0  0  0
   30.5810   11.8988   61.0811 C   0  0  0  0  0  0  0  0  0  0  0  0
   31.0646   10.9989   60.1228 C   0  0  0  0  0  0  0  0  0  0  0  0
   30.3032    9.8620   59.8317 C   0  0  0  0  0  0  0  0  0  0  0  0
  6  5  1  0  0  0
  8  7  1  0  0  0
  5  7  1  0  0  0
  5  3  1  0  0  0
  4  3  1  0  0  0
  7  1  1  0  0  0
  1  2  1  0  0  0
  1 13  1  0  0  0
  3  2  1  0  0  0
 13 12  3  0  0  0
 12 19  1  0  0  0
 14 19  2  0  0  0
 14 15  1  0  0  0
 19 18  1  0  0  0
 15 16  2  0  0  0
 18 17  2  0  0  0
 16 17  1  0  0  0
  2  9  1  0  0  0
  6 10  1  0  0  0
  8 11  1  0  0  0
M  END
> <minimizedAffinity>
-6.59671

$$$$
4PCS_2M7_A_505


 19 20  0  0  0  0  0  0  0  0999 V2000
   31.8794    7.4191   58.5707 C   0  0  0  0  0  0  0  0  0  0  0  0
   32.7642    6.4131   59.2027 N   0  0  0  0  0  0  0  0  0  0  0  0
   33.1007    5.4561   58.1355 C   0  0  0  0  0  0  0  0  0  0  0  0
   33.3109    4.0627   58.6517 C   0  0  0  0  0  0  0  0  0  0  0  0
   31.9380    5.5511   57.2061 C   0  0  0  0  0  0  0  0  0  0  0  0
   30.7806    4.9883   57.8831 O   0  0  0  0  0  0  0  0  0  0  0  0
   31.8944    7.0582   57.1187 C   0  0  0  0  0  0  0  0  0  0  0  0
   30.7480    7.5077   56.3502 O   0  0  0  0  0  0  0  0  0  0  0  0
   32.2783    5.9403   59.9648 H   0  0  0  0  0  0  0  0  0  0  0  0
   30.6829    5.4025   58.7547 H   0  0  0  0  0  0  0  0  0  0  0  0
   29.9368    7.1407   56.7351 H   0  0  0  0  0  0  0  0  0  0  0  0
   32.9496    9.7117   59.1753 C   0  0  0  0  0  0  0  0  0  0  0  0
   32.5053    8.7279   58.8829 C   0  0  0  0  0  0  0  0  0  0  0  0
   34.9568   11.1380   59.1284 C   0  0  0  0  0  0  0  0  0  0  0  0
   35.6599   12.3056   59.3991 C   0  0  0  0  0  0  0  0  0  0  0  0
   34.9753   13.3367   60.0478 C   0  0  0  0  0  0  0  0  0  0  0  0
   33.6203   13.2088   60.4153 C   0  0  0  0  0  0  0  0  0  0  0  0
   32.9277   12.0237   60.1363 C   0  0  0  0  0  0  0  0  0  0  0  0
   33.6075   10.9936   59.4777 C   0  0  0  0  0  0  0  0  0  0  0  0
  6  5  1  0  0  0
  8  7  1  0  0  0
  5  7  1  0  0  0
  5  3  1  0  0  0
  4  3  1  0  0  0
  7  1  1  0  0  0
  1  2  1  0  0  0
  1 13  1  0  0  0
  3  2  1  0  0  0
 13 12  3  0  0  0
 12 19  1  0  0  0
 14 19  2  0  0  0
 14 15  1  0  0  0
 19 18  1  0  0  0
 15 16  2  0  0  0
 18 17  2  0  0  0
 16 17  1  0  0  0
  2  9  1  0  0  0
  6 10  1  0  0  0
  8 11  1  0  0  0
M  END
> <minimizedAffinity>
-6.52815

$$$$
4PCS_2M7_A_505


 19 20  0  0  0  0  0  0  0  0999 V2000
   31.6412    6.2439   57.7037 C   0  0  0  0  0  0  0  0  0  0  0  0
   32.0504    5.1187   56.8315 N   0  0  0  0  0  0  0  0  0  0  0  0
   31.3678    5.3455   55.5468 C   0  0  0  0  0  0  0  0  0  0  0  0
   31.0235    4.0672   54.8398 C   0  0  0  0  0  0  0  0  0  0  0  0
   30.1581    6.1288   55.9311 C   0  0  0  0  0  0  0  0  0  0  0  0
   29.2813    5.2498   56.6881 O   0  0  0  0  0  0  0  0  0  0  0  0
   30.8639    7.1452   56.7969 C   0  0  0  0  0  0  0  0  0  0  0  0
   29.9155    8.0265   57.4531 O   0  0  0  0  0  0  0  0  0  0  0  0
   31.7592    4.2294   57.2374 H   0  0  0  0  0  0  0  0  0  0  0  0
   29.7828    4.8331   57.4062 H   0  0  0  0  0  0  0  0  0  0  0  0
   29.2778    7.4974   57.9573 H   0  0  0  0  0  0  0  0  0  0  0  0
   33.8718    7.2184   58.6211 C   0  0  0  0  0  0  0  0  0  0  0  0
   32.9135    6.8243   58.2004 C   0  0  0  0  0  0  0  0  0  0  0  0
   35.2203    9.1717   59.2778 C   0  0  0  0  0  0  0  0  0  0  0  0
   36.3951    9.7926   59.6845 C   0  0  0  0  0  0  0  0  0  0  0  0
   37.5194    8.9855   59.8772 C   0  0  0  0  0  0  0  0  0  0  0  0
   37.4735    7.5913   59.6728 C   0  0  0  0  0  0  0  0  0  0  0  0
   36.2810    6.9827   59.2609 C   0  0  0  0  0  0  0  0  0  0  0  0
   35.1511    7.7867   59.0771 C   0  0  0  0  0  0  0  0  0  0  0  0
  6  5  1  0  0  0
  8  7  1  0  0  0
  5  7  1  0  0  0
  5  3  1  0  0  0
  4  3  1  0  0  0
  7  1  1  0  0  0
  1  2  1  0  0  0
  1 13  1  0  0  0
  3  2  1  0  0  0
 13 12  3  0  0  0
 12 19  1  0  0  0
 14 19  2  0  0  0
 14 15  1  0  0  0
 19 18  1  0  0  0
 15 16  2  0  0  0
 18 17  2  0  0  0
 16 17  1  0  0  0
  2  9  1  0  0  0
  6 10  1  0  0  0
  8 11  1  0  0  0
M  END
> <minimizedAffinity>
-6.33957

$$$$
4PCS_2M7_A_505


 19 20  0  0  0  0  0  0  0  0999 V2000
   32.1690    6.1712   59.4986 C   0  0  0  0  0  0  0  0  0  0  0  0
   33.5960    6.0472   59.8760 N   0  0  0  0  0  0  0  0  0  0  0  0
   34.2454    5.3597   58.7474 C   0  0  0  0  0  0  0  0  0  0  0  0
   35.3982    4.5006   59.1779 C   0  0  0  0  0  0  0  0  0  0  0  0
   33.1373    4.5662   58.1415 C   0  0  0  0  0  0  0  0  0  0  0  0
   32.7766    3.5168   59.0812 O   0  0  0  0  0  0  0  0  0  0  0  0
   32.1209    5.6819   58.0854 C   0  0  0  0  0  0  0  0  0  0  0  0
   30.8297    5.1951   57.6353 O   0  0  0  0  0  0  0  0  0  0  0  0
   33.6920    5.4981   60.7303 H   0  0  0  0  0  0  0  0  0  0  0  0
   32.6131    3.9067   59.9542 H   0  0  0  0  0  0  0  0  0  0  0  0
   30.5413    4.4669   58.2075 H   0  0  0  0  0  0  0  0  0  0  0  0
   31.5585    8.6853   59.7689 C   0  0  0  0  0  0  0  0  0  0  0  0
   31.8557    7.6128   59.6585 C   0  0  0  0  0  0  0  0  0  0  0  0
   32.3456   10.9940   60.1095 C   0  0  0  0  0  0  0  0  0  0  0  0
   32.1568   12.3542   60.3219 C   0  0  0  0  0  0  0  0  0  0  0  0
   30.8416   12.8197   60.3997 C   0  0  0  0  0  0  0  0  0  0  0  0
   29.7397   11.9507   60.2655 C   0  0  0  0  0  0  0  0  0  0  0  0
   29.9488   10.5819   60.0538 C   0  0  0  0  0  0  0  0  0  0  0  0
   31.2644   10.1145   59.9651 C   0  0  0  0  0  0  0  0  0  0  0  0
  6  5  1  0  0  0
  8  7  1  0  0  0
  5  7  1  0  0  0
  5  3  1  0  0  0
  4  3  1  0  0  0
  7  1  1  0  0  0
  1  2  1  0  0  0
  1 13  1  0  0  0
  3  2  1  0  0  0
 13 12  3  0  0  0
 12 19  1  0  0  0
 14 19  2  0  0  0
 14 15  1  0  0  0
 19 18  1  0  0  0
 15 16  2  0  0  0
 18 17  2  0  0  0
 16 17  1  0  0  0
  2  9  1  0  0  0
  6 10  1  0  0  0
  8 11  1  0  0  0
M  END
> <minimizedAffinity>
-6.29233

$$$$
4PCS_2M7_A_505


 19 20  0  0  0  0  0  0  0  0999 V2000
   32.1862    6.1514   59.5625 C   0  0  0  0  0  0  0  0  0  0  0  0
   33.6268    6.0813   59.9001 N   0  0  0  0  0  0  0  0  0  0  0  0
   34.2716    5.4278   58.7491 C   0  0  0  0  0  0  0  0  0  0  0  0
   35.4687    4.6120   59.1414 C   0  0  0  0  0  0  0  0  0  0  0  0
   33.1794    4.5952   58.1672 C   0  0  0  0  0  0  0  0  0  0  0  0
   32.8862    3.5260   59.1080 O   0  0  0  0  0  0  0  0  0  0  0  0
   32.1187    5.6701   58.1473 C   0  0  0  0  0  0  0  0  0  0  0  0
   30.8359    5.1357   57.7285 O   0  0  0  0  0  0  0  0  0  0  0  0
   33.7677    5.5307   60.7471 H   0  0  0  0  0  0  0  0  0  0  0  0
   32.7314    3.9032   59.9881 H   0  0  0  0  0  0  0  0  0  0  0  0
   30.5921    4.3928   58.3025 H   0  0  0  0  0  0  0  0  0  0  0  0
   31.5528    8.6616   59.8150 C   0  0  0  0  0  0  0  0  0  0  0  0
   31.8208    7.5783   59.7421 C   0  0  0  0  0  0  0  0  0  0  0  0
   29.7939   10.3831   59.9043 C   0  0  0  0  0  0  0  0  0  0  0  0
   29.3350   11.6866   60.0504 C   0  0  0  0  0  0  0  0  0  0  0  0
   30.2842   12.6822   60.2962 C   0  0  0  0  0  0  0  0  0  0  0  0
   31.6587   12.3855   60.3975 C   0  0  0  0  0  0  0  0  0  0  0  0
   32.1035   11.0660   60.2455 C   0  0  0  0  0  0  0  0  0  0  0  0
   31.1545   10.0656   60.0097 C   0  0  0  0  0  0  0  0  0  0  0  0
  6  5  1  0  0  0
  8  7  1  0  0  0
  5  7  1  0  0  0
  5  3  1  0  0  0
  4  3  1  0  0  0
  7  1  1  0  0  0
  1  2  1  0  0  0
  1 13  1  0  0  0
  3  2  1  0  0  0
 13 12  3  0  0  0
 12 19  1  0  0  0
 14 19  2  0  0  0
 14 15  1  0  0  0
 19 18  1  0  0  0
 15 16  2  0  0  0
 18 17  2  0  0  0
 16 17  1  0  0  0
  2  9  1  0  0  0
  6 10  1  0  0  0
  8 11  1  0  0  0
M  END
> <minimizedAffinity>
-6.25817

$$$$
4PCS_2M7_A_505


 19 20  0  0  0  0  0  0  0  0999 V2000
   33.1789    4.4656   58.8513 C   0  0  0  0  0  0  0  0  0  0  0  0
   33.4762    5.5443   57.8807 N   0  0  0  0  0  0  0  0  0  0  0  0
   32.3875    6.5240   58.0322 C   0  0  0  0  0  0  0  0  0  0  0  0
   32.0639    7.2339   56.7502 C   0  0  0  0  0  0  0  0  0  0  0  0
   31.2484    5.7010   58.5321 C   0  0  0  0  0  0  0  0  0  0  0  0
   30.8309    4.8186   57.4544 O   0  0  0  0  0  0  0  0  0  0  0  0
   32.0054    4.9816   59.6231 C   0  0  0  0  0  0  0  0  0  0  0  0
   31.1798    3.9702   60.2573 O   0  0  0  0  0  0  0  0  0  0  0  0
   33.4922    5.1739   56.9305 H   0  0  0  0  0  0  0  0  0  0  0  0
   31.6020    4.3410   57.1105 H   0  0  0  0  0  0  0  0  0  0  0  0
   30.8419    3.3595   59.5837 H   0  0  0  0  0  0  0  0  0  0  0  0
   35.3719    4.2663   60.2361 C   0  0  0  0  0  0  0  0  0  0  0  0
   34.4205    4.3182   59.6505 C   0  0  0  0  0  0  0  0  0  0  0  0
   37.1489    2.8354   61.1635 C   0  0  0  0  0  0  0  0  0  0  0  0
   38.2759    2.5974   61.9408 C   0  0  0  0  0  0  0  0  0  0  0  0
   38.8227    3.6800   62.6348 C   0  0  0  0  0  0  0  0  0  0  0  0
   38.2617    4.9708   62.5534 C   0  0  0  0  0  0  0  0  0  0  0  0
   37.1243    5.1919   61.7664 C   0  0  0  0  0  0  0  0  0  0  0  0
   36.5808    4.1121   61.0622 C   0  0  0  0  0  0  0  0  0  0  0  0
  6  5  1  0  0  0
  8  7  1  0  0  0
  5  7  1  0  0  0
  5  3  1  0  0  0
  4  3  1  0  0  0
  7  1  1  0  0  0
  1  2  1  0  0  0
  1 13  1  0  0  0
  3  2  1  0  0  0
 13 12  3  0  0  0
 12 19  1  0  0  0
 14 19  2  0  0  0
 14 15  1  0  0  0
 19 18  1  0  0  0
 15 16  2  0  0  0
 18 17  2  0  0  0
 16 17  1  0  0  0
  2  9  1  0  0  0
  6 10  1  0  0  0
  8 11  1  0  0  0
M  END
> <minimizedAffinity>
-6.09693

$$$$
4PCS_2M7_A_505


 19 20  0  0  0  0  0  0  0  0999 V2000
   31.6904    4.6521   60.3428 C   0  0  0  0  0  0  0  0  0  0  0  0
   33.0345    4.5970   60.9631 N   0  0  0  0  0  0  0  0  0  0  0  0
   33.9708    5.0452   59.9189 C   0  0  0  0  0  0  0  0  0  0  0  0
   35.3174    4.3918   60.0287 C   0  0  0  0  0  0  0  0  0  0  0  0
   33.2684    4.6951   58.6506 C   0  0  0  0  0  0  0  0  0  0  0  0
   33.2344    3.2451   58.5469 O   0  0  0  0  0  0  0  0  0  0  0  0
   31.9285    5.2916   59.0111 C   0  0  0  0  0  0  0  0  0  0  0  0
   30.9343    5.0060   57.9930 O   0  0  0  0  0  0  0  0  0  0  0  0
   33.2540    3.6440   61.2530 H   0  0  0  0  0  0  0  0  0  0  0  0
   32.8762    2.8706   59.3668 H   0  0  0  0  0  0  0  0  0  0  0  0
   30.8814    4.0476   57.8526 H   0  0  0  0  0  0  0  0  0  0  0  0
   30.3097    6.1061   61.9999 C   0  0  0  0  0  0  0  0  0  0  0  0
   30.8725    5.4663   61.2756 C   0  0  0  0  0  0  0  0  0  0  0  0
   29.3926    6.5559   64.2409 C   0  0  0  0  0  0  0  0  0  0  0  0
   28.6113    7.2632   65.1465 C   0  0  0  0  0  0  0  0  0  0  0  0
   27.8966    8.3623   64.6630 C   0  0  0  0  0  0  0  0  0  0  0  0
   27.9615    8.7499   63.3091 C   0  0  0  0  0  0  0  0  0  0  0  0
   28.7528    8.0238   62.4098 C   0  0  0  0  0  0  0  0  0  0  0  0
   29.4777    6.9293   62.8931 C   0  0  0  0  0  0  0  0  0  0  0  0
  6  5  1  0  0  0
  8  7  1  0  0  0
  5  7  1  0  0  0
  5  3  1  0  0  0
  4  3  1  0  0  0
  7  1  1  0  0  0
  1  2  1  0  0  0
  1 13  1  0  0  0
  3  2  1  0  0  0
 13 12  3  0  0  0
 12 19  1  0  0  0
 14 19  2  0  0  0
 14 15  1  0  0  0
 19 18  1  0  0  0
 15 16  2  0  0  0
 18 17  2  0  0  0
 16 17  1  0  0  0
  2  9  1  0  0  0
  6 10  1  0  0  0
  8 11  1  0  0  0
M  END
> <minimizedAffinity>
-5.99268

$$$$
