3B26_B2L_A_1
  RCSB PDB12061707583D
Coordinates from PDB:3B26:A:1 Model:1 without hydrogens
 21 24  0  0  0  0            999 V2000
   -3.1480   11.3090    1.5130   C 0  0  0  0  0  0  0  0  0  0  0  0
   -3.9000   10.1970    2.0890   O 0  0  0  0  0  0  0  0  0  0  0  0
   -3.7490    9.0130    1.2290   C 0  0  0  0  0  0  0  0  0  0  0  0
   -2.4470    8.6980    0.7920   C 0  0  0  0  0  0  0  0  0  0  0  0
   -2.1160    7.3820    0.4490   C 0  0  0  0  0  0  0  0  0  0  0  0
   -0.8210    7.0850    0.0110   C 0  0  0  0  0  0  0  0  0  0  0  0
    0.1570    8.0860   -0.0230   C 0  0  0  0  0  0  0  0  0  0  0  0
   -0.1450    9.4190    0.3380   C 0  0  0  0  0  0  0  0  0  0  0  0
   -1.4700    9.7200    0.7420   C 0  0  0  0  0  0  0  0  0  0  0  0
   -1.8300   11.0480    1.0700   C 0  0  0  0  0  0  0  0  0  0  0  0
   -0.8660   12.0680    1.0440   C 0  0  0  0  0  0  0  0  0  0  0  0
    0.4330   11.7720    0.6130   C 0  0  0  0  0  0  0  0  0  0  0  0
    0.8170   10.4610    0.2730   C 0  0  0  0  0  0  0  0  0  0  0  0
    2.1390   10.2860   -0.1670   C 0  0  0  0  0  0  0  0  0  0  0  0
    3.1580   10.7770    0.5790   N 0  0  0  0  0  0  0  0  0  0  0  0
    2.4300    9.7690   -1.4440   C 0  0  0  0  0  0  0  0  0  0  0  0
    3.7660    9.6930   -1.8470   C 0  0  0  0  0  0  0  0  0  0  0  0
    4.1410    9.0490   -3.1980   C 0  0  0  0  0  0  0  0  0  0  0  0
    4.7400   10.1540   -1.0280   N 0  0  0  0  0  0  0  0  0  0  0  0
    4.4390   10.7120    0.1600   C 0  0  0  0  0  0  0  0  0  0  0  0
    5.4180   11.1680    0.9380   N 0  0  0  0  0  0  0  0  0  0  0  0
  1  2  1  0  0  0  0
  1 10  1  0  0  0  0
  2  3  1  0  0  0  0
  3  4  1  0  0  0  0
  4  5  2  0  0  0  0
  4  9  1  0  0  0  0
  5  6  1  0  0  0  0
  6  7  2  0  0  0  0
  7  8  1  0  0  0  0
  8  9  2  0  0  0  0
  8 13  1  0  0  0  0
  9 10  1  0  0  0  0
 10 11  2  0  0  0  0
 11 12  1  0  0  0  0
 12 13  2  0  0  0  0
 13 14  1  0  0  0  0
 14 15  2  0  0  0  0
 14 16  1  0  0  0  0
 15 20  1  0  0  0  0
 16 17  2  0  0  0  0
 17 18  1  0  0  0  0
 17 19  1  0  0  0  0
 19 20  2  0  0  0  0
 20 21  1  0  0  0  0
A    1
C1
A    2
O2
A    3
C3
A    4
C4
A    5
C5
A    6
C6
A    7
C7
A    8
C8
A    9
C9
A   10
C10
A   11
C11
A   12
C12
A   13
C13
A   14
C14
A   15
N15
A   16
C16
A   17
C17
A   18
C18
A   19
N19
A   20
C20
A   21
N21
M  END
>  <InstanceId>
3B26_B2L_A_1

>  <ChemCompId>
B2L

>  <PdbId>
3B26

>  <ChainId>
A

>  <ResidueNumber>
1

>  <InsertionCode>


>  <Model>
1

>  <AltIds>


>  <MissingHeavyAtoms>
0

>  <ObservedFormula>
C17 N3 O

>  <Name>
4-(1H,3H-benzo[de]isochromen-6-yl)-6-methylpyrimidin-2-amine

>  <SystematicName>


>  <Synonyms>


>  <Type>
NON-POLYMER

>  <Formula>
C17 H15 N3 O

>  <MolecularWeight>
277.321

>  <ModifiedDate>
2011-09-09

>  <Parent>


>  <OneLetterCode>


>  <SubcomponentList>


>  <AmbiguousFlag>
N

>  <InChI>
InChI=1S/C17H15N3O/c1-10-7-15(20-17(18)19-10)13-6-5-12-9-21-8-11-3-2-4-14(13)16(11)12/h2-7H,8-9H2,1H3,(H2,18,19,20)

>  <InChIKey>
RUGFWNOTXBMCJB-UHFFFAOYSA-N

>  <SMILES>
Cc1cc(nc(n1)N)c2ccc3c4c2cccc4COC3

$$$$
