3B26_B2L_A_1


 23 26  0  0  0  0  0  0  0  0999 V2000
   -2.9854   11.4179    1.2912 C   0  0  0  0  0  0  0  0  0  0  0  0
   -3.6824   10.3683    2.0302 O   0  0  0  0  0  0  0  0  0  0  0  0
   -3.3214    9.0579    1.4671 C   0  0  0  0  0  0  0  0  0  0  0  0
   -1.9546    8.8177    1.2235 C   0  0  0  0  0  0  0  0  0  0  0  0
   -1.4594    7.5086    1.2073 C   0  0  0  0  0  0  0  0  0  0  0  0
   -0.1011    7.2848    0.9582 C   0  0  0  0  0  0  0  0  0  0  0  0
    0.7709    8.3669    0.7897 C   0  0  0  0  0  0  0  0  0  0  0  0
    0.3007    9.6996    0.8222 C   0  0  0  0  0  0  0  0  0  0  0  0
   -1.0839    9.9167    1.0348 C   0  0  0  0  0  0  0  0  0  0  0  0
   -1.6073   11.2307    1.0313 C   0  0  0  0  0  0  0  0  0  0  0  0
   -0.7520   12.3313    0.8652 C   0  0  0  0  0  0  0  0  0  0  0  0
    0.6094   12.1103    0.6231 C   0  0  0  0  0  0  0  0  0  0  0  0
    1.1562   10.8131    0.6132 C   0  0  0  0  0  0  0  0  0  0  0  0
    2.5293   10.7105    0.3378 C   0  0  0  0  0  0  0  0  0  0  0  0
    3.4258   11.1304    1.2630 N   0  0  0  0  0  0  0  0  0  0  0  0
    3.0014   10.3461   -0.9378 C   0  0  0  0  0  0  0  0  0  0  0  0
    4.3805   10.3379   -1.1641 C   0  0  0  0  0  0  0  0  0  0  0  0
    4.9495    9.8571   -2.5152 C   0  0  0  0  0  0  0  0  0  0  0  0
    5.2237   10.7190   -0.1763 N   0  0  0  0  0  0  0  0  0  0  0  0
    4.7521   11.1340    1.0148 C   0  0  0  0  0  0  0  0  0  0  0  0
    5.6058   11.5148    1.9623 N   0  0  0  0  0  0  0  0  0  0  0  0
    5.2682   11.8194    2.8355 H   0  0  0  0  0  0  0  0  0  0  0  0
    6.5748   11.4919    1.7900 H   0  0  0  0  0  0  0  0  0  0  0  0
  1  2  1  0  0  0
  1 10  1  0  0  0
  2  3  1  0  0  0
  3  4  1  0  0  0
  4  5  2  0  0  0
  4  9  1  0  0  0
  5  6  1  0  0  0
  6  7  2  0  0  0
  7  8  1  0  0  0
  8  9  2  0  0  0
  8 13  1  0  0  0
  9 10  1  0  0  0
 10 11  2  0  0  0
 11 12  1  0  0  0
 12 13  2  0  0  0
 13 14  1  0  0  0
 14 15  2  0  0  0
 14 16  1  0  0  0
 15 20  1  0  0  0
 16 17  2  0  0  0
 17 18  1  0  0  0
 17 19  1  0  0  0
 19 20  2  0  0  0
 20 21  1  0  0  0
 21 22  1  0  0  0
 21 23  1  0  0  0
M  END
> <minimizedAffinity>
-9.12388

$$$$
3B26_B2L_A_1


 23 26  0  0  0  0  0  0  0  0999 V2000
   -2.6515    7.0280   -0.5656 C   0  0  0  0  0  0  0  0  0  0  0  0
   -3.8746    7.8267   -0.5657 O   0  0  0  0  0  0  0  0  0  0  0  0
   -3.7575    8.8920    0.4421 C   0  0  0  0  0  0  0  0  0  0  0  0
   -2.5565    9.6286    0.4621 C   0  0  0  0  0  0  0  0  0  0  0  0
   -2.5361   10.9330    0.9693 C   0  0  0  0  0  0  0  0  0  0  0  0
   -1.3351   11.6503    0.9883 C   0  0  0  0  0  0  0  0  0  0  0  0
   -0.1730   11.0909    0.4441 C   0  0  0  0  0  0  0  0  0  0  0  0
   -0.1706    9.7834   -0.0934 C   0  0  0  0  0  0  0  0  0  0  0  0
   -1.3822    9.0480   -0.0722 C   0  0  0  0  0  0  0  0  0  0  0  0
   -1.4177    7.7202   -0.5585 C   0  0  0  0  0  0  0  0  0  0  0  0
   -0.2650    7.1388   -1.1095 C   0  0  0  0  0  0  0  0  0  0  0  0
    0.9368    7.8573   -1.0985 C   0  0  0  0  0  0  0  0  0  0  0  0
    1.0031    9.1773   -0.6136 C   0  0  0  0  0  0  0  0  0  0  0  0
    2.2655    9.7920   -0.6309 C   0  0  0  0  0  0  0  0  0  0  0  0
    3.0194    9.7298   -1.7550 N   0  0  0  0  0  0  0  0  0  0  0  0
    2.8452   10.3215    0.5380 C   0  0  0  0  0  0  0  0  0  0  0  0
    4.1367   10.8504    0.4645 C   0  0  0  0  0  0  0  0  0  0  0  0
    4.7778   11.5251    1.6950 C   0  0  0  0  0  0  0  0  0  0  0  0
    4.8141   10.8035   -0.7064 N   0  0  0  0  0  0  0  0  0  0  0  0
    4.2726   10.2282   -1.7969 C   0  0  0  0  0  0  0  0  0  0  0  0
    4.9685   10.1859   -2.9307 N   0  0  0  0  0  0  0  0  0  0  0  0
    4.5791    9.7669   -3.7320 H   0  0  0  0  0  0  0  0  0  0  0  0
    5.8727   10.5736   -2.9681 H   0  0  0  0  0  0  0  0  0  0  0  0
  1  2  1  0  0  0
  1 10  1  0  0  0
  2  3  1  0  0  0
  3  4  1  0  0  0
  4  5  2  0  0  0
  4  9  1  0  0  0
  5  6  1  0  0  0
  6  7  2  0  0  0
  7  8  1  0  0  0
  8  9  2  0  0  0
  8 13  1  0  0  0
  9 10  1  0  0  0
 10 11  2  0  0  0
 11 12  1  0  0  0
 12 13  2  0  0  0
 13 14  1  0  0  0
 14 15  2  0  0  0
 14 16  1  0  0  0
 15 20  1  0  0  0
 16 17  2  0  0  0
 17 18  1  0  0  0
 17 19  1  0  0  0
 19 20  2  0  0  0
 20 21  1  0  0  0
 21 22  1  0  0  0
 21 23  1  0  0  0
M  END
> <minimizedAffinity>
-8.55864

$$$$
3B26_B2L_A_1


 23 26  0  0  0  0  0  0  0  0999 V2000
    4.3612    9.6932    0.2611 C   0  0  0  0  0  0  0  0  0  0  0  0
    4.9936   10.8661    0.8595 O   0  0  0  0  0  0  0  0  0  0  0  0
    4.2356   12.0697    0.4839 C   0  0  0  0  0  0  0  0  0  0  0  0
    2.8334   12.0112    0.6091 C   0  0  0  0  0  0  0  0  0  0  0  0
    2.0912   13.1831    0.7956 C   0  0  0  0  0  0  0  0  0  0  0  0
    0.6990   13.1104    0.9123 C   0  0  0  0  0  0  0  0  0  0  0  0
    0.0567   11.8666    0.9072 C   0  0  0  0  0  0  0  0  0  0  0  0
    0.7844   10.6660    0.7414 C   0  0  0  0  0  0  0  0  0  0  0  0
    2.1905   10.7512    0.5832 C   0  0  0  0  0  0  0  0  0  0  0  0
    2.9552    9.5804    0.3702 C   0  0  0  0  0  0  0  0  0  0  0  0
    2.3330    8.3222    0.3622 C   0  0  0  0  0  0  0  0  0  0  0  0
    0.9403    8.2459    0.4862 C   0  0  0  0  0  0  0  0  0  0  0  0
    0.1536    9.3952    0.6912 C   0  0  0  0  0  0  0  0  0  0  0  0
   -1.2343    9.2009    0.7791 C   0  0  0  0  0  0  0  0  0  0  0  0
   -1.8930    9.6073    1.8913 N   0  0  0  0  0  0  0  0  0  0  0  0
   -1.9358    8.4414   -0.1769 C   0  0  0  0  0  0  0  0  0  0  0  0
   -3.3032    8.2240    0.0130 C   0  0  0  0  0  0  0  0  0  0  0  0
   -4.1329    7.4780   -1.0526 C   0  0  0  0  0  0  0  0  0  0  0  0
   -3.9102    8.7052    1.1229 N   0  0  0  0  0  0  0  0  0  0  0  0
   -3.2096    9.3674    2.0632 C   0  0  0  0  0  0  0  0  0  0  0  0
   -3.8322    9.8175    3.1502 N   0  0  0  0  0  0  0  0  0  0  0  0
   -3.3264   10.3025    3.8417 H   0  0  0  0  0  0  0  0  0  0  0  0
   -4.7983    9.6655    3.2626 H   0  0  0  0  0  0  0  0  0  0  0  0
  1  2  1  0  0  0
  1 10  1  0  0  0
  2  3  1  0  0  0
  3  4  1  0  0  0
  4  5  2  0  0  0
  4  9  1  0  0  0
  5  6  1  0  0  0
  6  7  2  0  0  0
  7  8  1  0  0  0
  8  9  2  0  0  0
  8 13  1  0  0  0
  9 10  1  0  0  0
 10 11  2  0  0  0
 11 12  1  0  0  0
 12 13  2  0  0  0
 13 14  1  0  0  0
 14 15  2  0  0  0
 14 16  1  0  0  0
 15 20  1  0  0  0
 16 17  2  0  0  0
 17 18  1  0  0  0
 17 19  1  0  0  0
 19 20  2  0  0  0
 20 21  1  0  0  0
 21 22  1  0  0  0
 21 23  1  0  0  0
M  END
> <minimizedAffinity>
-8.46601

$$$$
3B26_B2L_A_1


 23 26  0  0  0  0  0  0  0  0999 V2000
   -2.1048    7.4165    1.5604 C   0  0  0  0  0  0  0  0  0  0  0  0
   -3.3004    8.1743    1.1999 O   0  0  0  0  0  0  0  0  0  0  0  0
   -3.1254    9.5775    1.6060 C   0  0  0  0  0  0  0  0  0  0  0  0
   -1.9006   10.1928    1.2797 C   0  0  0  0  0  0  0  0  0  0  0  0
   -1.8256   11.5826    1.1317 C   0  0  0  0  0  0  0  0  0  0  0  0
   -0.6015   12.1805    0.8135 C   0  0  0  0  0  0  0  0  0  0  0  0
    0.5289   11.3882    0.5809 C   0  0  0  0  0  0  0  0  0  0  0  0
    0.4759    9.9808    0.7031 C   0  0  0  0  0  0  0  0  0  0  0  0
   -0.7585    9.3857    1.0656 C   0  0  0  0  0  0  0  0  0  0  0  0
   -0.8489    7.9853    1.2429 C   0  0  0  0  0  0  0  0  0  0  0  0
    0.2711    7.1707    1.0143 C   0  0  0  0  0  0  0  0  0  0  0  0
    1.4960    7.7660    0.6884 C   0  0  0  0  0  0  0  0  0  0  0  0
    1.6168    9.1575    0.5133 C   0  0  0  0  0  0  0  0  0  0  0  0
    2.8982    9.6452    0.2095 C   0  0  0  0  0  0  0  0  0  0  0  0
    3.5885   10.3315    1.1521 N   0  0  0  0  0  0  0  0  0  0  0  0
    3.4171    9.5937   -1.0984 C   0  0  0  0  0  0  0  0  0  0  0  0
    4.6677   10.1663   -1.3455 C   0  0  0  0  0  0  0  0  0  0  0  0
    5.3189   10.0537   -2.7398 C   0  0  0  0  0  0  0  0  0  0  0  0
    5.3282   10.7913   -0.3430 N   0  0  0  0  0  0  0  0  0  0  0  0
    4.7852   10.8948    0.8849 C   0  0  0  0  0  0  0  0  0  0  0  0
    5.4535   11.5266    1.8471 N   0  0  0  0  0  0  0  0  0  0  0  0
    5.0626   11.6062    2.7472 H   0  0  0  0  0  0  0  0  0  0  0  0
    6.3386   11.9143    1.6588 H   0  0  0  0  0  0  0  0  0  0  0  0
  1  2  1  0  0  0
  1 10  1  0  0  0
  2  3  1  0  0  0
  3  4  1  0  0  0
  4  5  2  0  0  0
  4  9  1  0  0  0
  5  6  1  0  0  0
  6  7  2  0  0  0
  7  8  1  0  0  0
  8  9  2  0  0  0
  8 13  1  0  0  0
  9 10  1  0  0  0
 10 11  2  0  0  0
 11 12  1  0  0  0
 12 13  2  0  0  0
 13 14  1  0  0  0
 14 15  2  0  0  0
 14 16  1  0  0  0
 15 20  1  0  0  0
 16 17  2  0  0  0
 17 18  1  0  0  0
 17 19  1  0  0  0
 19 20  2  0  0  0
 20 21  1  0  0  0
 21 22  1  0  0  0
 21 23  1  0  0  0
M  END
> <minimizedAffinity>
-8.34248

$$$$
3B26_B2L_A_1


 23 26  0  0  0  0  0  0  0  0999 V2000
    3.1251    5.4920   -3.4612 C   0  0  0  0  0  0  0  0  0  0  0  0
    2.1349    4.4704   -3.1303 O   0  0  0  0  0  0  0  0  0  0  0  0
    2.1770    4.2054   -1.6838 C   0  0  0  0  0  0  0  0  0  0  0  0
    2.1998    5.3231   -0.8261 C   0  0  0  0  0  0  0  0  0  0  0  0
    1.7194    5.2179    0.4843 C   0  0  0  0  0  0  0  0  0  0  0  0
    1.7537    6.3343    1.3266 C   0  0  0  0  0  0  0  0  0  0  0  0
    2.2064    7.5672    0.8422 C   0  0  0  0  0  0  0  0  0  0  0  0
    2.6776    7.7062   -0.4833 C   0  0  0  0  0  0  0  0  0  0  0  0
    2.6773    6.5606   -1.3181 C   0  0  0  0  0  0  0  0  0  0  0  0
    3.1804    6.6411   -2.6377 C   0  0  0  0  0  0  0  0  0  0  0  0
    3.6387    7.8669   -3.1453 C   0  0  0  0  0  0  0  0  0  0  0  0
    3.6673    8.9879   -2.3066 C   0  0  0  0  0  0  0  0  0  0  0  0
    3.1804    8.9347   -0.9868 C   0  0  0  0  0  0  0  0  0  0  0  0
    3.2799   10.1139   -0.2308 C   0  0  0  0  0  0  0  0  0  0  0  0
    4.3763   10.3195    0.5384 N   0  0  0  0  0  0  0  0  0  0  0  0
    2.1990   11.0085   -0.1122 C   0  0  0  0  0  0  0  0  0  0  0  0
    2.3411   12.1238    0.7179 C   0  0  0  0  0  0  0  0  0  0  0  0
    1.2205   13.1806    0.8082 C   0  0  0  0  0  0  0  0  0  0  0  0
    3.4865   12.2963    1.4180 N   0  0  0  0  0  0  0  0  0  0  0  0
    4.4827   11.3929    1.3490 C   0  0  0  0  0  0  0  0  0  0  0  0
    5.5921   11.5835    2.0594 N   0  0  0  0  0  0  0  0  0  0  0  0
    6.3246   10.9273    2.0138 H   0  0  0  0  0  0  0  0  0  0  0  0
    5.6802   12.3807    2.6302 H   0  0  0  0  0  0  0  0  0  0  0  0
  1  2  1  0  0  0
  1 10  1  0  0  0
  2  3  1  0  0  0
  3  4  1  0  0  0
  4  5  2  0  0  0
  4  9  1  0  0  0
  5  6  1  0  0  0
  6  7  2  0  0  0
  7  8  1  0  0  0
  8  9  2  0  0  0
  8 13  1  0  0  0
  9 10  1  0  0  0
 10 11  2  0  0  0
 11 12  1  0  0  0
 12 13  2  0  0  0
 13 14  1  0  0  0
 14 15  2  0  0  0
 14 16  1  0  0  0
 15 20  1  0  0  0
 16 17  2  0  0  0
 17 18  1  0  0  0
 17 19  1  0  0  0
 19 20  2  0  0  0
 20 21  1  0  0  0
 21 22  1  0  0  0
 21 23  1  0  0  0
M  END
> <minimizedAffinity>
-8.27580

$$$$
3B26_B2L_A_1


 23 26  0  0  0  0  0  0  0  0999 V2000
    5.0324   10.5181   -1.4473 C   0  0  0  0  0  0  0  0  0  0  0  0
    5.1554   10.1345   -2.8514 O   0  0  0  0  0  0  0  0  0  0  0  0
    4.5293    8.8183   -3.0507 C   0  0  0  0  0  0  0  0  0  0  0  0
    3.2560    8.6194   -2.4809 C   0  0  0  0  0  0  0  0  0  0  0  0
    2.3793    7.6728   -3.0234 C   0  0  0  0  0  0  0  0  0  0  0  0
    1.1206    7.4819   -2.4435 C   0  0  0  0  0  0  0  0  0  0  0  0
    0.7143    8.2780   -1.3661 C   0  0  0  0  0  0  0  0  0  0  0  0
    1.5721    9.2557   -0.8122 C   0  0  0  0  0  0  0  0  0  0  0  0
    2.8612    9.4151   -1.3797 C   0  0  0  0  0  0  0  0  0  0  0  0
    3.7700   10.3499   -0.8311 C   0  0  0  0  0  0  0  0  0  0  0  0
    3.3844   11.1598    0.2486 C   0  0  0  0  0  0  0  0  0  0  0  0
    2.1222   10.9759    0.8263 C   0  0  0  0  0  0  0  0  0  0  0  0
    1.2006   10.0476    0.3060 C   0  0  0  0  0  0  0  0  0  0  0  0
   -0.0260    9.9325    0.9799 C   0  0  0  0  0  0  0  0  0  0  0  0
   -0.2812    8.8198    1.7099 N   0  0  0  0  0  0  0  0  0  0  0  0
   -1.0679   10.8584    0.7804 C   0  0  0  0  0  0  0  0  0  0  0  0
   -2.2891   10.6411    1.4244 C   0  0  0  0  0  0  0  0  0  0  0  0
   -3.4289   11.6749    1.3113 C   0  0  0  0  0  0  0  0  0  0  0  0
   -2.4583    9.5334    2.1835 N   0  0  0  0  0  0  0  0  0  0  0  0
   -1.4756    8.6208    2.3053 C   0  0  0  0  0  0  0  0  0  0  0  0
   -1.6764    7.5351    3.0486 N   0  0  0  0  0  0  0  0  0  0  0  0
   -0.9624    6.8637    3.1422 H   0  0  0  0  0  0  0  0  0  0  0  0
   -2.5388    7.4033    3.5047 H   0  0  0  0  0  0  0  0  0  0  0  0
  1  2  1  0  0  0
  1 10  1  0  0  0
  2  3  1  0  0  0
  3  4  1  0  0  0
  4  5  2  0  0  0
  4  9  1  0  0  0
  5  6  1  0  0  0
  6  7  2  0  0  0
  7  8  1  0  0  0
  8  9  2  0  0  0
  8 13  1  0  0  0
  9 10  1  0  0  0
 10 11  2  0  0  0
 11 12  1  0  0  0
 12 13  2  0  0  0
 13 14  1  0  0  0
 14 15  2  0  0  0
 14 16  1  0  0  0
 15 20  1  0  0  0
 16 17  2  0  0  0
 17 18  1  0  0  0
 17 19  1  0  0  0
 19 20  2  0  0  0
 20 21  1  0  0  0
 21 22  1  0  0  0
 21 23  1  0  0  0
M  END
> <minimizedAffinity>
-8.22609

$$$$
3B26_B2L_A_1


 23 26  0  0  0  0  0  0  0  0999 V2000
    4.2709   12.1909    1.7881 C   0  0  0  0  0  0  0  0  0  0  0  0
    3.2784   12.4682    2.8234 O   0  0  0  0  0  0  0  0  0  0  0  0
    1.9502   12.5860    2.2020 C   0  0  0  0  0  0  0  0  0  0  0  0
    1.5870   11.5946    1.2689 C   0  0  0  0  0  0  0  0  0  0  0  0
    0.2378   11.3046    1.0354 C   0  0  0  0  0  0  0  0  0  0  0  0
   -0.1081   10.3219    0.1017 C   0  0  0  0  0  0  0  0  0  0  0  0
    0.8902    9.5873   -0.5490 C   0  0  0  0  0  0  0  0  0  0  0  0
    2.2604    9.8455   -0.3161 C   0  0  0  0  0  0  0  0  0  0  0  0
    2.6027   10.8705    0.6014 C   0  0  0  0  0  0  0  0  0  0  0  0
    3.9599   11.1943    0.8334 C   0  0  0  0  0  0  0  0  0  0  0  0
    4.9781   10.4706    0.1930 C   0  0  0  0  0  0  0  0  0  0  0  0
    4.6347    9.4814   -0.7366 C   0  0  0  0  0  0  0  0  0  0  0  0
    3.2923    9.1437   -0.9930 C   0  0  0  0  0  0  0  0  0  0  0  0
    3.0661    8.1521   -1.9613 C   0  0  0  0  0  0  0  0  0  0  0  0
    2.3010    8.4407   -3.0416 N   0  0  0  0  0  0  0  0  0  0  0  0
    3.4658    6.8172   -1.7586 C   0  0  0  0  0  0  0  0  0  0  0  0
    3.1412    5.8664   -2.7300 C   0  0  0  0  0  0  0  0  0  0  0  0
    3.6369    4.4112   -2.5979 C   0  0  0  0  0  0  0  0  0  0  0  0
    2.4184    6.2352   -3.8133 N   0  0  0  0  0  0  0  0  0  0  0  0
    1.9820    7.5011   -3.9561 C   0  0  0  0  0  0  0  0  0  0  0  0
    1.2623    7.8306   -5.0262 N   0  0  0  0  0  0  0  0  0  0  0  0
    0.9398    8.7542   -5.1372 H   0  0  0  0  0  0  0  0  0  0  0  0
    1.0524    7.1508   -5.7066 H   0  0  0  0  0  0  0  0  0  0  0  0
  1  2  1  0  0  0
  1 10  1  0  0  0
  2  3  1  0  0  0
  3  4  1  0  0  0
  4  5  2  0  0  0
  4  9  1  0  0  0
  5  6  1  0  0  0
  6  7  2  0  0  0
  7  8  1  0  0  0
  8  9  2  0  0  0
  8 13  1  0  0  0
  9 10  1  0  0  0
 10 11  2  0  0  0
 11 12  1  0  0  0
 12 13  2  0  0  0
 13 14  1  0  0  0
 14 15  2  0  0  0
 14 16  1  0  0  0
 15 20  1  0  0  0
 16 17  2  0  0  0
 17 18  1  0  0  0
 17 19  1  0  0  0
 19 20  2  0  0  0
 20 21  1  0  0  0
 21 22  1  0  0  0
 21 23  1  0  0  0
M  END
> <minimizedAffinity>
-8.02881

$$$$
3B26_B2L_A_1


 23 26  0  0  0  0  0  0  0  0999 V2000
   -3.1003    9.7091    0.6853 C   0  0  0  0  0  0  0  0  0  0  0  0
   -3.5244    8.4467    1.2856 O   0  0  0  0  0  0  0  0  0  0  0  0
   -2.6884    7.3558    0.7610 C   0  0  0  0  0  0  0  0  0  0  0  0
   -1.2962    7.5709    0.7302 C   0  0  0  0  0  0  0  0  0  0  0  0
   -0.4127    6.4859    0.7668 C   0  0  0  0  0  0  0  0  0  0  0  0
    0.9670    6.7143    0.7295 C   0  0  0  0  0  0  0  0  0  0  0  0
    1.4633    8.0232    0.7206 C   0  0  0  0  0  0  0  0  0  0  0  0
    0.5934    9.1374    0.7045 C   0  0  0  0  0  0  0  0  0  0  0  0
   -0.8035    8.8968    0.7015 C   0  0  0  0  0  0  0  0  0  0  0  0
   -1.7122    9.9791    0.6412 C   0  0  0  0  0  0  0  0  0  0  0  0
   -1.2376   11.3001    0.6325 C   0  0  0  0  0  0  0  0  0  0  0  0
    0.1430   11.5318    0.6026 C   0  0  0  0  0  0  0  0  0  0  0  0
    1.0701   10.4737    0.6537 C   0  0  0  0  0  0  0  0  0  0  0  0
    2.4289   10.8234    0.5950 C   0  0  0  0  0  0  0  0  0  0  0  0
    3.1570   10.4792   -0.4946 N   0  0  0  0  0  0  0  0  0  0  0  0
    3.1001   11.3675    1.7068 C   0  0  0  0  0  0  0  0  0  0  0  0
    4.4705   11.6212    1.6032 C   0  0  0  0  0  0  0  0  0  0  0  0
    5.2305   12.3021    2.7605 C   0  0  0  0  0  0  0  0  0  0  0  0
    5.1267   11.3011    0.4636 N   0  0  0  0  0  0  0  0  0  0  0  0
    4.4839   10.7145   -0.5640 C   0  0  0  0  0  0  0  0  0  0  0  0
    5.1591   10.3998   -1.6671 N   0  0  0  0  0  0  0  0  0  0  0  0
    4.6957    9.9707   -2.4223 H   0  0  0  0  0  0  0  0  0  0  0  0
    6.1220   10.5960   -1.7277 H   0  0  0  0  0  0  0  0  0  0  0  0
  1  2  1  0  0  0
  1 10  1  0  0  0
  2  3  1  0  0  0
  3  4  1  0  0  0
  4  5  2  0  0  0
  4  9  1  0  0  0
  5  6  1  0  0  0
  6  7  2  0  0  0
  7  8  1  0  0  0
  8  9  2  0  0  0
  8 13  1  0  0  0
  9 10  1  0  0  0
 10 11  2  0  0  0
 11 12  1  0  0  0
 12 13  2  0  0  0
 13 14  1  0  0  0
 14 15  2  0  0  0
 14 16  1  0  0  0
 15 20  1  0  0  0
 16 17  2  0  0  0
 17 18  1  0  0  0
 17 19  1  0  0  0
 19 20  2  0  0  0
 20 21  1  0  0  0
 21 22  1  0  0  0
 21 23  1  0  0  0
M  END
> <minimizedAffinity>
-7.90724

$$$$
3B26_B2L_A_1


 23 26  0  0  0  0  0  0  0  0999 V2000
    4.3083   10.0905    0.1352 C   0  0  0  0  0  0  0  0  0  0  0  0
    4.5204   11.3633    0.8200 O   0  0  0  0  0  0  0  0  0  0  0  0
    3.3814   12.2544    0.5500 C   0  0  0  0  0  0  0  0  0  0  0  0
    2.0905   11.7058    0.6836 C   0  0  0  0  0  0  0  0  0  0  0  0
    0.9980   12.5322    0.9710 C   0  0  0  0  0  0  0  0  0  0  0  0
   -0.2789   11.9744    1.0950 C   0  0  0  0  0  0  0  0  0  0  0  0
   -0.4541   10.5890    0.9959 C   0  0  0  0  0  0  0  0  0  0  0  0
    0.6354    9.7294    0.7269 C   0  0  0  0  0  0  0  0  0  0  0  0
    1.9196   10.3066    0.5624 C   0  0  0  0  0  0  0  0  0  0  0  0
    3.0319    9.4911    0.2485 C   0  0  0  0  0  0  0  0  0  0  0  0
    2.8804    8.0994    0.1451 C   0  0  0  0  0  0  0  0  0  0  0  0
    1.6045    7.5376    0.2761 C   0  0  0  0  0  0  0  0  0  0  0  0
    0.4787    8.3260    0.5806 C   0  0  0  0  0  0  0  0  0  0  0  0
   -0.7536    7.6581    0.6660 C   0  0  0  0  0  0  0  0  0  0  0  0
   -0.8817    6.6056    1.5097 N   0  0  0  0  0  0  0  0  0  0  0  0
   -1.8085    7.9379   -0.2237 C   0  0  0  0  0  0  0  0  0  0  0  0
   -2.9805    7.1823   -0.1313 C   0  0  0  0  0  0  0  0  0  0  0  0
   -4.1972    7.5123   -1.0209 C   0  0  0  0  0  0  0  0  0  0  0  0
   -3.0605    6.1780    0.7726 N   0  0  0  0  0  0  0  0  0  0  0  0
   -2.0156    5.8764    1.5667 C   0  0  0  0  0  0  0  0  0  0  0  0
   -2.1201    4.8748    2.4370 N   0  0  0  0  0  0  0  0  0  0  0  0
   -1.3603    4.6486    3.0208 H   0  0  0  0  0  0  0  0  0  0  0  0
   -2.9572    4.3601    2.4969 H   0  0  0  0  0  0  0  0  0  0  0  0
  1  2  1  0  0  0
  1 10  1  0  0  0
  2  3  1  0  0  0
  3  4  1  0  0  0
  4  5  2  0  0  0
  4  9  1  0  0  0
  5  6  1  0  0  0
  6  7  2  0  0  0
  7  8  1  0  0  0
  8  9  2  0  0  0
  8 13  1  0  0  0
  9 10  1  0  0  0
 10 11  2  0  0  0
 11 12  1  0  0  0
 12 13  2  0  0  0
 13 14  1  0  0  0
 14 15  2  0  0  0
 14 16  1  0  0  0
 15 20  1  0  0  0
 16 17  2  0  0  0
 17 18  1  0  0  0
 17 19  1  0  0  0
 19 20  2  0  0  0
 20 21  1  0  0  0
 21 22  1  0  0  0
 21 23  1  0  0  0
M  END
> <minimizedAffinity>
-7.83057

$$$$
3B26_B2L_A_1


 23 26  0  0  0  0  0  0  0  0999 V2000
   -3.3460   11.1010    1.4585 C   0  0  0  0  0  0  0  0  0  0  0  0
   -4.1413    9.9567    1.8965 O   0  0  0  0  0  0  0  0  0  0  0  0
   -4.1146    8.9202    0.8528 C   0  0  0  0  0  0  0  0  0  0  0  0
   -2.8607    8.6040    0.2931 C   0  0  0  0  0  0  0  0  0  0  0  0
   -2.6373    7.3435   -0.2728 C   0  0  0  0  0  0  0  0  0  0  0  0
   -1.3893    7.0456   -0.8303 C   0  0  0  0  0  0  0  0  0  0  0  0
   -0.3488    7.9799   -0.7654 C   0  0  0  0  0  0  0  0  0  0  0  0
   -0.5412    9.2526   -0.1808 C   0  0  0  0  0  0  0  0  0  0  0  0
   -1.8206    9.5616    0.3456 C   0  0  0  0  0  0  0  0  0  0  0  0
   -2.0728   10.8381    0.9004 C   0  0  0  0  0  0  0  0  0  0  0  0
   -1.0446   11.7906    0.9770 C   0  0  0  0  0  0  0  0  0  0  0  0
    0.2078   11.4923    0.4264 C   0  0  0  0  0  0  0  0  0  0  0  0
    0.4845   10.2331   -0.1390 C   0  0  0  0  0  0  0  0  0  0  0  0
    1.7676   10.0542   -0.6809 C   0  0  0  0  0  0  0  0  0  0  0  0
    1.9044    9.4145   -1.8674 N   0  0  0  0  0  0  0  0  0  0  0  0
    2.9288   10.3648    0.0525 C   0  0  0  0  0  0  0  0  0  0  0  0
    4.1746   10.0903   -0.5184 C   0  0  0  0  0  0  0  0  0  0  0  0
    5.4747   10.4973    0.2059 C   0  0  0  0  0  0  0  0  0  0  0  0
    4.2386    9.4970   -1.7333 N   0  0  0  0  0  0  0  0  0  0  0  0
    3.1181    9.1405   -2.3896 C   0  0  0  0  0  0  0  0  0  0  0  0
    3.2136    8.5470   -3.5771 N   0  0  0  0  0  0  0  0  0  0  0  0
    2.3987    8.2836   -4.0627 H   0  0  0  0  0  0  0  0  0  0  0  0
    4.0991    8.3714   -3.9699 H   0  0  0  0  0  0  0  0  0  0  0  0
  1  2  1  0  0  0
  1 10  1  0  0  0
  2  3  1  0  0  0
  3  4  1  0  0  0
  4  5  2  0  0  0
  4  9  1  0  0  0
  5  6  1  0  0  0
  6  7  2  0  0  0
  7  8  1  0  0  0
  8  9  2  0  0  0
  8 13  1  0  0  0
  9 10  1  0  0  0
 10 11  2  0  0  0
 11 12  1  0  0  0
 12 13  2  0  0  0
 13 14  1  0  0  0
 14 15  2  0  0  0
 14 16  1  0  0  0
 15 20  1  0  0  0
 16 17  2  0  0  0
 17 18  1  0  0  0
 17 19  1  0  0  0
 19 20  2  0  0  0
 20 21  1  0  0  0
 21 22  1  0  0  0
 21 23  1  0  0  0
M  END
> <minimizedAffinity>
-7.79131

$$$$
