1PA9_CSN_A_737


 17 17  0  0  0  0  0  0  0  0999 V2000
    2.5866   -8.5619   74.6958 O   0  0  0  0  0  0  0  0  0  0  0  0
    3.5348  -11.3783   72.4876 C   0  0  0  0  0  0  0  0  0  0  0  0
    1.5653  -10.8416   74.6243 C   0  0  0  0  0  0  0  0  0  0  0  0
    3.4813  -10.0376   73.1615 C   0  0  0  0  0  0  0  0  0  0  0  0
    1.6017  -12.1489   73.9832 C   0  0  0  0  0  0  0  0  0  0  0  0
    2.4836   -9.7918   74.2307 C   0  0  0  0  0  0  0  0  0  0  0  0
    2.5837  -12.4455   72.9032 C   0  0  0  0  0  0  0  0  0  0  0  0
    2.0147   -8.2696   75.3780 H   0  0  0  0  0  0  0  0  0  0  0  0
    3.5626  -14.1738   71.5960 O   0  0  0  0  0  0  0  0  0  0  0  0
    1.6141  -14.4913   72.4272 O   0  0  0  0  0  0  0  0  0  0  0  0
    2.5890  -13.7592   72.2810 N   0  0  0  0  0  0  0  0  0  0  0  0
    4.3983   -9.2210   72.6543 O   0  0  0  0  0  0  0  0  0  0  0  0
    5.7425   -8.8170   73.6035 S   0  0  0  0  0  0  0  0  0  0  0  0
    5.2687   -8.1780   74.7792 O   0  0  0  0  0  0  0  0  0  0  0  0
    6.5389   -7.9355   72.7733 O   0  0  0  0  0  0  0  0  0  0  0  0
    6.4610  -10.0146   73.9558 O   0  0  0  0  0  0  0  0  0  0  0  0
    5.8983  -10.5781   74.5096 H   0  0  0  0  0  0  0  0  0  0  0  0
 13 12  1  0  0  0
 13 14  2  0  0  0
 13 15  2  0  0  0
 13 16  1  0  0  0
 12  4  1  0  0  0
  1  6  1  0  0  0
  9 11  2  0  0  0
 10 11  1  0  0  0
  2  4  2  0  0  0
  2  7  1  0  0  0
 11  7  1  0  0  0
  3  5  1  0  0  0
  3  6  2  0  0  0
  4  6  1  0  0  0
  5  7  2  0  0  0
 16 17  1  0  0  0
  1  8  1  0  0  0
M  CHG 1  10  -1
M  CHG 1  11   1
M  END
> <minimizedAffinity>
-6.69506

$$$$
1PA9_CSN_A_737


 17 17  0  0  0  0  0  0  0  0999 V2000
    4.0437  -11.5732   72.5634 O   0  0  0  0  0  0  0  0  0  0  0  0
    1.7978   -9.4333   74.5843 C   0  0  0  0  0  0  0  0  0  0  0  0
    1.5448  -11.5531   72.5410 C   0  0  0  0  0  0  0  0  0  0  0  0
    3.0185  -10.0714   73.9867 C   0  0  0  0  0  0  0  0  0  0  0  0
    0.3485  -10.9461   73.1082 C   0  0  0  0  0  0  0  0  0  0  0  0
    2.8662  -11.1338   72.9634 C   0  0  0  0  0  0  0  0  0  0  0  0
    0.4477   -9.8764   74.1400 C   0  0  0  0  0  0  0  0  0  0  0  0
    4.0965  -12.2484   71.9159 H   0  0  0  0  0  0  0  0  0  0  0  0
   -1.0146   -8.0622   74.6137 O   0  0  0  0  0  0  0  0  0  0  0  0
   -1.5797  -10.0300   75.2437 O   0  0  0  0  0  0  0  0  0  0  0  0
   -0.7667   -9.2959   74.6889 N   0  0  0  0  0  0  0  0  0  0  0  0
    4.1232   -9.5510   74.5097 O   0  0  0  0  0  0  0  0  0  0  0  0
    5.3108   -8.9440   73.4645 S   0  0  0  0  0  0  0  0  0  0  0  0
    6.3932   -9.8623   73.4557 O   0  0  0  0  0  0  0  0  0  0  0  0
    5.6780   -7.6561   74.0185 O   0  0  0  0  0  0  0  0  0  0  0  0
    4.7663   -8.8201   72.1368 O   0  0  0  0  0  0  0  0  0  0  0  0
    4.5330   -9.6992   71.7997 H   0  0  0  0  0  0  0  0  0  0  0  0
 13 12  1  0  0  0
 13 14  2  0  0  0
 13 15  2  0  0  0
 13 16  1  0  0  0
 12  4  1  0  0  0
  1  6  1  0  0  0
  9 11  2  0  0  0
 10 11  1  0  0  0
  2  4  2  0  0  0
  2  7  1  0  0  0
 11  7  1  0  0  0
  3  5  1  0  0  0
  3  6  2  0  0  0
  4  6  1  0  0  0
  5  7  2  0  0  0
 16 17  1  0  0  0
  1  8  1  0  0  0
M  CHG 1  10  -1
M  CHG 1  11   1
M  END
> <minimizedAffinity>
-6.65401

$$$$
1PA9_CSN_A_737


 17 17  0  0  0  0  0  0  0  0999 V2000
    0.2787  -12.0514   73.6677 O   0  0  0  0  0  0  0  0  0  0  0  0
    2.6842   -9.3598   74.4898 C   0  0  0  0  0  0  0  0  0  0  0  0
    2.6487  -11.8510   72.9007 C   0  0  0  0  0  0  0  0  0  0  0  0
    1.4456  -10.2054   74.4179 C   0  0  0  0  0  0  0  0  0  0  0  0
    3.8603  -11.0447   72.9583 C   0  0  0  0  0  0  0  0  0  0  0  0
    1.4517  -11.4509   73.6132 C   0  0  0  0  0  0  0  0  0  0  0  0
    3.9050   -9.7845   73.7510 C   0  0  0  0  0  0  0  0  0  0  0  0
    0.1408  -12.8533   73.2030 H   0  0  0  0  0  0  0  0  0  0  0  0
    5.3082   -8.0683   74.6113 O   0  0  0  0  0  0  0  0  0  0  0  0
    6.0198   -9.2556   72.9765 O   0  0  0  0  0  0  0  0  0  0  0  0
    5.1291   -9.0011   73.7825 N   0  0  0  0  0  0  0  0  0  0  0  0
    0.4659   -9.6637   75.1333 O   0  0  0  0  0  0  0  0  0  0  0  0
   -0.9471   -9.1725   74.3375 S   0  0  0  0  0  0  0  0  0  0  0  0
   -1.3691   -7.9471   74.9167 O   0  0  0  0  0  0  0  0  0  0  0  0
   -1.8953  -10.2468   74.5555 O   0  0  0  0  0  0  0  0  0  0  0  0
   -0.6693   -8.9794   72.9374 O   0  0  0  0  0  0  0  0  0  0  0  0
   -0.0332   -8.2550   72.8310 H   0  0  0  0  0  0  0  0  0  0  0  0
 13 12  1  0  0  0
 13 14  2  0  0  0
 13 15  2  0  0  0
 13 16  1  0  0  0
 12  4  1  0  0  0
  1  6  1  0  0  0
  9 11  2  0  0  0
 10 11  1  0  0  0
  2  4  2  0  0  0
  2  7  1  0  0  0
 11  7  1  0  0  0
  3  5  1  0  0  0
  3  6  2  0  0  0
  4  6  1  0  0  0
  5  7  2  0  0  0
 16 17  1  0  0  0
  1  8  1  0  0  0
M  CHG 1  10  -1
M  CHG 1  11   1
M  END
> <minimizedAffinity>
-6.29246

$$$$
1PA9_CSN_A_737


 17 17  0  0  0  0  0  0  0  0999 V2000
    0.3175  -11.8087   74.5137 O   0  0  0  0  0  0  0  0  0  0  0  0
    3.5645  -11.3370   72.7985 C   0  0  0  0  0  0  0  0  0  0  0  0
    1.9313   -9.9246   74.8161 C   0  0  0  0  0  0  0  0  0  0  0  0
    2.2410  -11.8929   73.2389 C   0  0  0  0  0  0  0  0  0  0  0  0
    3.2121   -9.3688   74.4016 C   0  0  0  0  0  0  0  0  0  0  0  0
    1.4397  -11.1665   74.2534 C   0  0  0  0  0  0  0  0  0  0  0  0
    4.0553  -10.0607   73.3872 C   0  0  0  0  0  0  0  0  0  0  0  0
   -0.2871  -11.4608   75.1393 H   0  0  0  0  0  0  0  0  0  0  0  0
    6.4180   -9.8346   73.5315 O   0  0  0  0  0  0  0  0  0  0  0  0
    5.3525   -8.6185   72.1264 O   0  0  0  0  0  0  0  0  0  0  0  0
    5.3309   -9.4809   73.0003 N   0  0  0  0  0  0  0  0  0  0  0  0
    1.9787  -13.0332   72.6097 O   0  0  0  0  0  0  0  0  0  0  0  0
    0.6703  -13.0870   71.5344 S   0  0  0  0  0  0  0  0  0  0  0  0
   -0.4827  -13.4660   72.2707 O   0  0  0  0  0  0  0  0  0  0  0  0
    1.0422  -14.0708   70.5372 O   0  0  0  0  0  0  0  0  0  0  0  0
    0.4706  -11.7844   70.9530 O   0  0  0  0  0  0  0  0  0  0  0  0
    0.2238  -11.1545   71.6481 H   0  0  0  0  0  0  0  0  0  0  0  0
 13 12  1  0  0  0
 13 14  2  0  0  0
 13 15  2  0  0  0
 13 16  1  0  0  0
 12  4  1  0  0  0
  1  6  1  0  0  0
  9 11  2  0  0  0
 10 11  1  0  0  0
  2  4  2  0  0  0
  2  7  1  0  0  0
 11  7  1  0  0  0
  3  5  1  0  0  0
  3  6  2  0  0  0
  4  6  1  0  0  0
  5  7  2  0  0  0
 16 17  1  0  0  0
  1  8  1  0  0  0
M  CHG 1  10  -1
M  CHG 1  11   1
M  END
> <minimizedAffinity>
-5.76151

$$$$
1PA9_CSN_A_737


 17 17  0  0  0  0  0  0  0  0999 V2000
    3.6069  -11.7003   72.3703 O   0  0  0  0  0  0  0  0  0  0  0  0
    0.0506  -10.9709   73.0973 C   0  0  0  0  0  0  0  0  0  0  0  0
    2.7028  -10.1507   74.1102 C   0  0  0  0  0  0  0  0  0  0  0  0
    1.3073  -11.5330   72.4980 C   0  0  0  0  0  0  0  0  0  0  0  0
    1.4955   -9.5944   74.7052 C   0  0  0  0  0  0  0  0  0  0  0  0
    2.6268  -11.1057   73.0226 C   0  0  0  0  0  0  0  0  0  0  0  0
    0.1464   -9.9900   74.2132 C   0  0  0  0  0  0  0  0  0  0  0  0
    4.4978  -11.5217   72.5989 H   0  0  0  0  0  0  0  0  0  0  0  0
   -1.9408  -10.1218   75.3448 O   0  0  0  0  0  0  0  0  0  0  0  0
   -1.1639   -8.1900   74.8417 O   0  0  0  0  0  0  0  0  0  0  0  0
   -1.0377   -9.4113   74.8263 N   0  0  0  0  0  0  0  0  0  0  0  0
    1.0200  -12.3821   71.5175 O   0  0  0  0  0  0  0  0  0  0  0  0
    1.1949  -14.0433   71.8021 S   0  0  0  0  0  0  0  0  0  0  0  0
    0.8885  -14.2855   73.1668 O   0  0  0  0  0  0  0  0  0  0  0  0
    2.5774  -14.3371   71.4814 O   0  0  0  0  0  0  0  0  0  0  0  0
    0.2830  -14.7749   70.9609 O   0  0  0  0  0  0  0  0  0  0  0  0
   -0.6296  -14.5534   71.2039 H   0  0  0  0  0  0  0  0  0  0  0  0
 13 12  1  0  0  0
 13 14  2  0  0  0
 13 15  2  0  0  0
 13 16  1  0  0  0
 12  4  1  0  0  0
  1  6  1  0  0  0
  9 11  2  0  0  0
 10 11  1  0  0  0
  2  4  2  0  0  0
  2  7  1  0  0  0
 11  7  1  0  0  0
  3  5  1  0  0  0
  3  6  2  0  0  0
  4  6  1  0  0  0
  5  7  2  0  0  0
 16 17  1  0  0  0
  1  8  1  0  0  0
M  CHG 1  10  -1
M  CHG 1  11   1
M  END
> <minimizedAffinity>
-5.41473

$$$$
1PA9_CSN_A_737


 17 17  0  0  0  0  0  0  0  0999 V2000
   -0.4944  -11.3679   73.6939 O   0  0  0  0  0  0  0  0  0  0  0  0
    3.0291  -10.8217   72.6972 C   0  0  0  0  0  0  0  0  0  0  0  0
    1.1848   -9.8920   74.8107 C   0  0  0  0  0  0  0  0  0  0  0  0
    1.6095  -11.3085   72.7442 C   0  0  0  0  0  0  0  0  0  0  0  0
    2.5581   -9.4076   74.7820 C   0  0  0  0  0  0  0  0  0  0  0  0
    0.7030  -10.8283   73.8150 C   0  0  0  0  0  0  0  0  0  0  0  0
    3.5084   -9.8607   73.7283 C   0  0  0  0  0  0  0  0  0  0  0  0
   -1.1698  -11.1518   74.3064 H   0  0  0  0  0  0  0  0  0  0  0  0
    5.7685   -9.8473   72.9894 O   0  0  0  0  0  0  0  0  0  0  0  0
    5.1665   -8.4347   74.4829 O   0  0  0  0  0  0  0  0  0  0  0  0
    4.8736   -9.3613   73.7324 N   0  0  0  0  0  0  0  0  0  0  0  0
    1.3723  -12.1585   71.7512 O   0  0  0  0  0  0  0  0  0  0  0  0
    1.4145  -13.8211   72.0755 S   0  0  0  0  0  0  0  0  0  0  0  0
    1.0995  -14.0048   73.4474 O   0  0  0  0  0  0  0  0  0  0  0  0
    2.7664  -14.2335   71.7547 O   0  0  0  0  0  0  0  0  0  0  0  0
    0.4403  -14.4965   71.2574 O   0  0  0  0  0  0  0  0  0  0  0  0
   -0.4496  -14.1961   71.4998 H   0  0  0  0  0  0  0  0  0  0  0  0
 13 12  1  0  0  0
 13 14  2  0  0  0
 13 15  2  0  0  0
 13 16  1  0  0  0
 12  4  1  0  0  0
  1  6  1  0  0  0
  9 11  2  0  0  0
 10 11  1  0  0  0
  2  4  2  0  0  0
  2  7  1  0  0  0
 11  7  1  0  0  0
  3  5  1  0  0  0
  3  6  2  0  0  0
  4  6  1  0  0  0
  5  7  2  0  0  0
 16 17  1  0  0  0
  1  8  1  0  0  0
M  CHG 1  10  -1
M  CHG 1  11   1
M  END
> <minimizedAffinity>
-5.13362

$$$$
1PA9_CSN_A_737


 17 17  0  0  0  0  0  0  0  0999 V2000
    1.9820   -8.9110   74.7080 O   0  0  0  0  0  0  0  0  0  0  0  0
    1.0717  -12.2295   73.3420 C   0  0  0  0  0  0  0  0  0  0  0  0
    3.4553  -10.4858   73.4452 C   0  0  0  0  0  0  0  0  0  0  0  0
    1.0150  -10.8935   74.0249 C   0  0  0  0  0  0  0  0  0  0  0  0
    3.5304  -11.7781   72.7776 C   0  0  0  0  0  0  0  0  0  0  0  0
    2.2245  -10.0364   74.0645 C   0  0  0  0  0  0  0  0  0  0  0  0
    2.3442  -12.6766   72.7118 C   0  0  0  0  0  0  0  0  0  0  0  0
    2.6611   -8.2733   74.8088 H   0  0  0  0  0  0  0  0  0  0  0  0
    1.4783  -14.7512   71.9370 O   0  0  0  0  0  0  0  0  0  0  0  0
    3.5364  -14.2913   71.5613 O   0  0  0  0  0  0  0  0  0  0  0  0
    2.4556  -13.9619   72.0421 N   0  0  0  0  0  0  0  0  0  0  0  0
   -0.1951  -10.6750   74.5278 O   0  0  0  0  0  0  0  0  0  0  0  0
   -1.0676   -9.3251   73.9915 S   0  0  0  0  0  0  0  0  0  0  0  0
   -2.4449   -9.6689   73.9923 O   0  0  0  0  0  0  0  0  0  0  0  0
   -0.5623   -9.0542   72.6603 O   0  0  0  0  0  0  0  0  0  0  0  0
   -0.8412   -8.2188   74.8855 O   0  0  0  0  0  0  0  0  0  0  0  0
   -1.1914   -8.4359   75.7637 H   0  0  0  0  0  0  0  0  0  0  0  0
 13 12  1  0  0  0
 13 14  2  0  0  0
 13 15  2  0  0  0
 13 16  1  0  0  0
 12  4  1  0  0  0
  1  6  1  0  0  0
  9 11  2  0  0  0
 10 11  1  0  0  0
  2  4  2  0  0  0
  2  7  1  0  0  0
 11  7  1  0  0  0
  3  5  1  0  0  0
  3  6  2  0  0  0
  4  6  1  0  0  0
  5  7  2  0  0  0
 16 17  1  0  0  0
  1  8  1  0  0  0
M  CHG 1  10  -1
M  CHG 1  11   1
M  END
> <minimizedAffinity>
-5.04104

$$$$
1PA9_CSN_A_737


 17 17  0  0  0  0  0  0  0  0999 V2000
    3.3688  -11.9346   72.4023 O   0  0  0  0  0  0  0  0  0  0  0  0
    0.4258  -13.3512   74.1455 C   0  0  0  0  0  0  0  0  0  0  0  0
    2.1812  -14.0704   71.8797 C   0  0  0  0  0  0  0  0  0  0  0  0
    1.5613  -12.4558   73.7415 C   0  0  0  0  0  0  0  0  0  0  0  0
    1.0846  -14.9521   72.2558 C   0  0  0  0  0  0  0  0  0  0  0  0
    2.4291  -12.8384   72.6015 C   0  0  0  0  0  0  0  0  0  0  0  0
    0.1855  -14.6138   73.3941 C   0  0  0  0  0  0  0  0  0  0  0  0
    3.9904  -12.0496   71.7107 H   0  0  0  0  0  0  0  0  0  0  0  0
   -1.4766  -15.4692   74.8638 O   0  0  0  0  0  0  0  0  0  0  0  0
   -1.2588  -16.3600   72.9279 O   0  0  0  0  0  0  0  0  0  0  0  0
   -0.8962  -15.5190   73.7459 N   0  0  0  0  0  0  0  0  0  0  0  0
    1.6183  -11.3870   74.5284 O   0  0  0  0  0  0  0  0  0  0  0  0
    1.2594   -9.8690   73.8665 S   0  0  0  0  0  0  0  0  0  0  0  0
    0.4791   -9.1550   74.8133 O   0  0  0  0  0  0  0  0  0  0  0  0
    0.5314  -10.1527   72.6458 O   0  0  0  0  0  0  0  0  0  0  0  0
    2.4831   -9.1552   73.6064 O   0  0  0  0  0  0  0  0  0  0  0  0
    2.9416   -8.9837   74.4439 H   0  0  0  0  0  0  0  0  0  0  0  0
 13 12  1  0  0  0
 13 14  2  0  0  0
 13 15  2  0  0  0
 13 16  1  0  0  0
 12  4  1  0  0  0
  1  6  1  0  0  0
  9 11  2  0  0  0
 10 11  1  0  0  0
  2  4  2  0  0  0
  2  7  1  0  0  0
 11  7  1  0  0  0
  3  5  1  0  0  0
  3  6  2  0  0  0
  4  6  1  0  0  0
  5  7  2  0  0  0
 16 17  1  0  0  0
  1  8  1  0  0  0
M  CHG 1  10  -1
M  CHG 1  11   1
M  END
> <minimizedAffinity>
-4.98416

$$$$
1PA9_CSN_A_737


 17 17  0  0  0  0  0  0  0  0999 V2000
    1.6950   -8.9647   73.4964 O   0  0  0  0  0  0  0  0  0  0  0  0
    2.1605  -12.5984   72.9604 C   0  0  0  0  0  0  0  0  0  0  0  0
    0.1554  -10.8079   74.1877 C   0  0  0  0  0  0  0  0  0  0  0  0
    2.3646  -11.1108   72.9692 C   0  0  0  0  0  0  0  0  0  0  0  0
   -0.0607  -12.2482   74.1897 C   0  0  0  0  0  0  0  0  0  0  0  0
    1.3440  -10.2326   73.5904 C   0  0  0  0  0  0  0  0  0  0  0  0
    0.9335  -13.1730   73.5774 C   0  0  0  0  0  0  0  0  0  0  0  0
    1.1395   -8.2975   73.8488 H   0  0  0  0  0  0  0  0  0  0  0  0
    1.1159  -15.3712   72.6894 O   0  0  0  0  0  0  0  0  0  0  0  0
    0.0314  -15.0862   74.5145 O   0  0  0  0  0  0  0  0  0  0  0  0
    0.6838  -14.6049   73.5922 N   0  0  0  0  0  0  0  0  0  0  0  0
    3.5070  -10.7909   72.3713 O   0  0  0  0  0  0  0  0  0  0  0  0
    4.5757   -9.7429   73.1658 S   0  0  0  0  0  0  0  0  0  0  0  0
    5.8763  -10.3062   73.0872 O   0  0  0  0  0  0  0  0  0  0  0  0
    4.0843   -9.6645   74.5270 O   0  0  0  0  0  0  0  0  0  0  0  0
    4.5616   -8.4573   72.5165 O   0  0  0  0  0  0  0  0  0  0  0  0
    4.8960   -8.5490   71.6106 H   0  0  0  0  0  0  0  0  0  0  0  0
 13 12  1  0  0  0
 13 14  2  0  0  0
 13 15  2  0  0  0
 13 16  1  0  0  0
 12  4  1  0  0  0
  1  6  1  0  0  0
  9 11  2  0  0  0
 10 11  1  0  0  0
  2  4  2  0  0  0
  2  7  1  0  0  0
 11  7  1  0  0  0
  3  5  1  0  0  0
  3  6  2  0  0  0
  4  6  1  0  0  0
  5  7  2  0  0  0
 16 17  1  0  0  0
  1  8  1  0  0  0
M  CHG 1  10  -1
M  CHG 1  11   1
M  END
> <minimizedAffinity>
-4.86435

$$$$
1PA9_CSN_A_737


 17 17  0  0  0  0  0  0  0  0999 V2000
   -0.6659  -13.0620   74.0972 O   0  0  0  0  0  0  0  0  0  0  0  0
    1.7975  -14.6169   71.8123 C   0  0  0  0  0  0  0  0  0  0  0  0
   -0.0480  -15.4791   73.9532 C   0  0  0  0  0  0  0  0  0  0  0  0
    0.9309  -13.6191   72.5251 C   0  0  0  0  0  0  0  0  0  0  0  0
    0.7848  -16.4623   73.2740 C   0  0  0  0  0  0  0  0  0  0  0  0
    0.0121  -14.0759   73.5956 C   0  0  0  0  0  0  0  0  0  0  0  0
    1.7228  -16.0547   72.1911 C   0  0  0  0  0  0  0  0  0  0  0  0
   -1.2858  -13.2072   74.7847 H   0  0  0  0  0  0  0  0  0  0  0  0
    2.9349  -16.9302   70.3423 O   0  0  0  0  0  0  0  0  0  0  0  0
    2.8453  -18.0772   72.1492 O   0  0  0  0  0  0  0  0  0  0  0  0
    2.5356  -17.0627   71.5306 N   0  0  0  0  0  0  0  0  0  0  0  0
    1.1335  -12.3963   72.0471 O   0  0  0  0  0  0  0  0  0  0  0  0
    2.0352  -11.2999   72.9724 S   0  0  0  0  0  0  0  0  0  0  0  0
    2.1953  -11.8540   74.2696 O   0  0  0  0  0  0  0  0  0  0  0  0
    1.2522  -10.0804   72.9808 O   0  0  0  0  0  0  0  0  0  0  0  0
    3.3259  -11.1033   72.3640 O   0  0  0  0  0  0  0  0  0  0  0  0
    3.8197  -11.9381   72.3765 H   0  0  0  0  0  0  0  0  0  0  0  0
 13 12  1  0  0  0
 13 14  2  0  0  0
 13 15  2  0  0  0
 13 16  1  0  0  0
 12  4  1  0  0  0
  1  6  1  0  0  0
  9 11  2  0  0  0
 10 11  1  0  0  0
  2  4  2  0  0  0
  2  7  1  0  0  0
 11  7  1  0  0  0
  3  5  1  0  0  0
  3  6  2  0  0  0
  4  6  1  0  0  0
  5  7  2  0  0  0
 16 17  1  0  0  0
  1  8  1  0  0  0
M  CHG 1  10  -1
M  CHG 1  11   1
M  END
> <minimizedAffinity>
-4.74686

$$$$
