4KOW_CFX_A_204
  RCSB PDB12061713243D
Coordinates from PDB:4KOW:A:204 Model:1 without hydrogens
 28 30  0  0  0  0            999 V2000
  -12.9660    3.6630   -9.7180   C 0  0  0  0  0  0  0  0  0  0  0  0
  -11.8430    4.1200   -9.5440   O 0  0  0  0  0  0  0  0  0  0  0  0
  -14.1840    4.1250   -9.4260   N 0  0  0  0  0  0  0  0  0  0  0  0
  -14.8900    3.0110  -10.0960   C 0  0  0  0  0  0  0  0  0  0  0  0
  -16.1590    2.3900   -8.9880   S 0  0  0  0  0  0  0  0  0  0  0  0
  -16.9640    4.0050   -8.8870   C 0  0  0  0  0  0  0  0  0  0  0  0
  -16.0520    5.1900   -8.5120   C 0  0  0  0  0  0  0  0  0  0  0  0
  -14.7620    5.2150   -8.7230   C 0  0  0  0  0  0  0  0  0  0  0  0
  -16.7280    6.3320   -7.7880   C 0  0  0  0  0  0  0  0  0  0  0  0
  -13.8000    6.1880   -8.1640   C 0  0  0  0  0  0  0  0  0  0  0  0
  -13.9170    7.3670   -8.5110   O 0  0  0  0  0  0  0  0  0  0  0  0
  -12.9180    5.7940   -7.3630   O 0  0  0  0  0  0  0  0  0  0  0  0
  -13.5290    2.3230  -10.2010   C 0  0  0  0  0  0  0  0  0  0  0  0
  -13.2730    1.9920  -11.5610   O 0  0  0  0  0  0  0  0  0  0  0  0
  -11.9220    1.7320  -11.8640   C 0  0  0  0  0  0  0  0  0  0  0  0
  -13.1350    1.2700   -9.3210   N 0  0  0  0  0  0  0  0  0  0  0  0
  -13.6110    0.0370   -9.3600   C 0  0  0  0  0  0  0  0  0  0  0  0
  -14.5700   -0.2430  -10.0460   O 0  0  0  0  0  0  0  0  0  0  0  0
  -12.9300   -0.9880   -8.5160   C 0  0  0  0  0  0  0  0  0  0  0  0
  -13.6740   -1.3430   -7.2880   C 0  0  0  0  0  0  0  0  0  0  0  0
  -13.0690   -2.4900   -6.1610   S 0  0  0  0  0  0  0  0  0  0  0  0
  -14.4020   -2.3750   -5.1500   C 0  0  0  0  0  0  0  0  0  0  0  0
  -15.2700   -1.5440   -5.6200   C 0  0  0  0  0  0  0  0  0  0  0  0
  -14.8760   -0.9330   -6.8370   C 0  0  0  0  0  0  0  0  0  0  0  0
  -17.7870    6.9150   -8.6790   O 0  0  0  0  0  0  0  0  0  0  0  0
  -18.3290    8.1440   -8.4010   C 0  0  0  0  0  0  0  0  0  0  0  0
  -17.9100    9.0730   -7.6670   O 0  0  0  0  0  0  0  0  0  0  0  0
  -19.4500    8.2090   -9.1250   N 0  0  0  0  0  0  0  0  0  0  0  0
  1  2  2  0  0  0  0
  1  3  1  0  0  0  0
  1 13  1  0  0  0  0
  3  4  1  0  0  0  0
  3  8  1  0  0  0  0
  4  5  1  0  0  0  0
  4 13  1  0  0  0  0
  5  6  1  0  0  0  0
  6  7  1  0  0  0  0
  7  8  2  0  0  0  0
  7  9  1  0  0  0  0
  8 10  1  0  0  0  0
  9 25  1  0  0  0  0
 10 11  2  0  0  0  0
 10 12  1  0  0  0  0
 13 14  1  0  0  0  0
 13 16  1  0  0  0  0
 14 15  1  0  0  0  0
 16 17  1  0  0  0  0
 17 18  2  0  0  0  0
 17 19  1  0  0  0  0
 19 20  1  0  0  0  0
 20 21  1  0  0  0  0
 20 24  2  0  0  0  0
 21 22  1  0  0  0  0
 22 23  2  0  0  0  0
 23 24  1  0  0  0  0
 25 26  1  0  0  0  0
 26 27  2  0  0  0  0
 26 28  1  0  0  0  0
A    1
C4
A    2
O5
A    3
N1
A    4
C2
A    5
S8
A    6
C9
A    7
C10
A    8
C11
A    9
C15
A   10
C12
A   11
O13
A   12
O14
A   13
C3
A   14
O16
A   15
C17
A   16
N18
A   17
C19
A   18
O21
A   19
C20
A   20
C23
A   21
S24
A   22
C25
A   23
C26
A   24
C27
A   25
O30
A   26
C31
A   27
O32
A   28
N33
M  END
>  <InstanceId>
4KOW_CFX_A_204

>  <ChemCompId>
CFX

>  <PdbId>
4KOW

>  <ChainId>
A

>  <ResidueNumber>
204

>  <InsertionCode>


>  <Model>
1

>  <AltIds>


>  <MissingHeavyAtoms>
0

>  <ObservedFormula>
C16 N3 O7 S2

>  <Name>
CEFOXITIN

>  <SystematicName>
(6R,7S)-3-(aminocarbonyloxymethyl)-7-methoxy-8-oxo-7-(2-thiophen-2-ylethanoylamino)-5-thia-1-azabicyclo[4.2.0]oct-2-ene-2-carboxylic acid

>  <Synonyms>


>  <Type>
NON-POLYMER

>  <Formula>
C16 H17 N3 O7 S2

>  <MolecularWeight>
427.452

>  <ModifiedDate>
2011-06-04

>  <Parent>


>  <OneLetterCode>


>  <SubcomponentList>


>  <AmbiguousFlag>
N

>  <InChI>
InChI=1S/C16H17N3O7S2/c1-25-16(18-10(20)5-9-3-2-4-27-9)13(23)19-11(12(21)22)8(6-26-15(17)24)7-28-14(16)19/h2-4,14H,5-7H2,1H3,(H2,17,24)(H,18,20)(H,21,22)/t14-,16+/m1/s1

>  <InChIKey>
WZOZEZRFJCJXNZ-ZBFHGGJFSA-N

>  <SMILES>
CO[C@@]1([C@@H]2N(C1=O)C(=C(CS2)COC(=O)N)C(=O)O)NC(=O)Cc3cccs3

$$$$
