3O5X_JZG_A_1


 45 50  0  0  0  0  0  0  0  0999 V2000
   29.7668    2.3072    1.6866 N   0  0  0  0  0  0  0  0  0  0  0  0
   29.3143    3.2618    2.5417 N   0  0  0  0  0  0  0  0  0  0  0  0
   28.8049    4.3930    2.0085 N   0  0  0  0  0  0  0  0  0  0  0  0
   29.5217    2.8848    0.5043 C   0  0  0  0  0  0  0  0  0  0  0  0
   28.9406    4.1442    0.7033 C   0  0  0  0  0  0  0  0  0  0  0  0
   29.4814    1.5386   -2.8409 C   0  0  0  0  0  0  0  0  0  0  0  0
   30.8295    1.4777   -2.5164 N   0  0  0  0  0  0  0  0  0  0  0  0
   26.7428    0.9496   -5.2225 O   0  0  0  0  0  0  0  0  0  0  0  0
   28.7998    1.1452   -4.0311 C   0  0  0  0  0  0  0  0  0  0  0  0
   27.3839    1.3269   -4.0909 C   0  0  0  0  0  0  0  0  0  0  0  0
   26.6615    1.9023   -2.9805 C   0  0  0  0  0  0  0  0  0  0  0  0
   27.3718    2.2836   -1.7973 C   0  0  0  0  0  0  0  0  0  0  0  0
   28.7994    2.1003   -1.7238 C   0  0  0  0  0  0  0  0  0  0  0  0
   29.7778    2.3588   -0.7184 C   0  0  0  0  0  0  0  0  0  0  0  0
   31.0314    1.9724   -1.2256 C   0  0  0  0  0  0  0  0  0  0  0  0
   31.8889    0.9536   -3.4251 C   0  0  0  0  0  0  0  0  0  0  0  0
   27.2269    0.5779   -5.9335 H   0  0  0  0  0  0  0  0  0  0  0  0
   32.2313    2.0538   -0.5844 C   0  0  0  0  0  0  0  0  0  0  0  0
   32.7152    0.9473    0.1828 C   0  0  0  0  0  0  0  0  0  0  0  0
   33.9674    1.0367    0.8501 C   0  0  0  0  0  0  0  0  0  0  0  0
   34.7423    2.2281    0.7523 C   0  0  0  0  0  0  0  0  0  0  0  0
   34.2643    3.3313   -0.0117 C   0  0  0  0  0  0  0  0  0  0  0  0
   33.0131    3.2463   -0.6769 C   0  0  0  0  0  0  0  0  0  0  0  0
   24.6015    1.4929   -3.7914 O   0  0  0  0  0  0  0  0  0  0  0  0
   24.7391    2.9847   -2.2032 O   0  0  0  0  0  0  0  0  0  0  0  0
   25.3020    2.1001   -3.0266 C   0  0  0  0  0  0  0  0  0  0  0  0
   25.2698    3.4672   -1.6002 H   0  0  0  0  0  0  0  0  0  0  0  0
   28.2441    5.5879    2.6707 C   0  0  0  0  0  0  0  0  0  0  0  0
   29.3786    6.5642    2.9884 C   0  0  0  0  0  0  0  0  0  0  0  0
   28.3493    8.6053    2.4487 O   0  0  0  0  0  0  0  0  0  0  0  0
   30.1074    8.1307    1.1389 N   0  0  0  0  0  0  0  0  0  0  0  0
   29.2314    7.8343    2.1763 C   0  0  0  0  0  0  0  0  0  0  0  0
   30.7439    8.8733    1.2512 H   0  0  0  0  0  0  0  0  0  0  0  0
   30.1148    7.4257   -0.0318 C   0  0  0  0  0  0  0  0  0  0  0  0
   31.2968    6.7404   -0.4310 C   0  0  0  0  0  0  0  0  0  0  0  0
   31.3195    6.0003   -1.6444 C   0  0  0  0  0  0  0  0  0  0  0  0
   30.1581    5.9400   -2.4698 C   0  0  0  0  0  0  0  0  0  0  0  0
   28.9696    6.6306   -2.0715 C   0  0  0  0  0  0  0  0  0  0  0  0
   28.9481    7.3697   -0.8597 C   0  0  0  0  0  0  0  0  0  0  0  0
   30.1853    5.2311   -3.6188 C   0  0  0  0  0  0  0  0  0  0  0  0
   31.4177    4.7035   -4.1159 C   0  0  0  0  0  0  0  0  0  0  0  0
   31.4314    3.9573   -5.3281 C   0  0  0  0  0  0  0  0  0  0  0  0
   30.2196    3.7353   -6.0450 C   0  0  0  0  0  0  0  0  0  0  0  0
   28.9942    4.2576   -5.5516 C   0  0  0  0  0  0  0  0  0  0  0  0
   28.9705    5.0030   -4.3445 C   0  0  0  0  0  0  0  0  0  0  0  0
  6  7  1  0  0  0
  6  9  1  0  0  0
  6 13  2  0  0  0
  7 15  1  0  0  0
  7 16  1  0  0  0
  8 10  1  0  0  0
  9 10  2  0  0  0
  1  2  2  0  0  0
  1  4  1  0  0  0
 24 26  2  0  0  0
 10 11  1  0  0  0
  2  3  1  0  0  0
 25 26  1  0  0  0
 11 12  2  0  0  0
 11 26  1  0  0  0
  3  5  1  0  0  0
  3 28  1  0  0  0
 30 32  2  0  0  0
 12 13  1  0  0  0
 31 32  1  0  0  0
 31 34  1  0  0  0
 13 14  1  0  0  0
 14 15  2  0  0  0
 14  4  1  0  0  0
 15 18  1  0  0  0
 18 19  2  0  0  0
 18 23  1  0  0  0
 19 20  1  0  0  0
 20 21  2  0  0  0
 21 22  1  0  0  0
 22 23  2  0  0  0
  4  5  2  0  0  0
 28 29  1  0  0  0
 29 32  1  0  0  0
 34 35  2  0  0  0
 34 39  1  0  0  0
 35 36  1  0  0  0
 36 37  2  0  0  0
 37 38  1  0  0  0
 37 40  1  0  0  0
 38 39  2  0  0  0
 40 41  2  0  0  0
 40 45  1  0  0  0
 41 42  1  0  0  0
 42 43  2  0  0  0
 43 44  1  0  0  0
 44 45  2  0  0  0
  8 17  1  0  0  0
 25 27  1  0  0  0
 31 33  1  0  0  0
M  END
> <minimizedAffinity>
-8.17915

$$$$
3O5X_JZG_A_1


 45 50  0  0  0  0  0  0  0  0999 V2000
   28.7972    3.0820    1.8666 N   0  0  0  0  0  0  0  0  0  0  0  0
   29.7073    2.2763    2.4747 N   0  0  0  0  0  0  0  0  0  0  0  0
   30.9119    2.1295    1.8823 N   0  0  0  0  0  0  0  0  0  0  0  0
   29.4870    3.4830    0.7919 C   0  0  0  0  0  0  0  0  0  0  0  0
   30.7637    2.9056    0.8054 C   0  0  0  0  0  0  0  0  0  0  0  0
   28.1387    5.1034   -2.1339 C   0  0  0  0  0  0  0  0  0  0  0  0
   28.5692    6.1817   -1.3735 N   0  0  0  0  0  0  0  0  0  0  0  0
   26.5863    3.7700   -5.1886 O   0  0  0  0  0  0  0  0  0  0  0  0
   27.5170    5.0688   -3.4177 C   0  0  0  0  0  0  0  0  0  0  0  0
   27.1743    3.7959   -3.9690 C   0  0  0  0  0  0  0  0  0  0  0  0
   27.4408    2.5762   -3.2429 C   0  0  0  0  0  0  0  0  0  0  0  0
   28.0699    2.6419   -1.9585 C   0  0  0  0  0  0  0  0  0  0  0  0
   28.4245    3.9199   -1.3948 C   0  0  0  0  0  0  0  0  0  0  0  0
   29.0512    4.3231   -0.1784 C   0  0  0  0  0  0  0  0  0  0  0  0
   29.1298    5.7274   -0.1774 C   0  0  0  0  0  0  0  0  0  0  0  0
   28.4459    7.6072   -1.7928 C   0  0  0  0  0  0  0  0  0  0  0  0
   26.4206    4.5709   -5.6459 H   0  0  0  0  0  0  0  0  0  0  0  0
   29.6590    6.5142    0.8016 C   0  0  0  0  0  0  0  0  0  0  0  0
   28.8443    6.9533    1.8927 C   0  0  0  0  0  0  0  0  0  0  0  0
   29.4006    7.7740    2.9117 C   0  0  0  0  0  0  0  0  0  0  0  0
   30.7712    8.1570    2.8477 C   0  0  0  0  0  0  0  0  0  0  0  0
   31.5857    7.7207    1.7636 C   0  0  0  0  0  0  0  0  0  0  0  0
   31.0326    6.9036    0.7430 C   0  0  0  0  0  0  0  0  0  0  0  0
   27.9253    0.4843   -3.9196 O   0  0  0  0  0  0  0  0  0  0  0  0
   25.8321    1.0885   -4.0617 O   0  0  0  0  0  0  0  0  0  0  0  0
   27.1030    1.3440   -3.7501 C   0  0  0  0  0  0  0  0  0  0  0  0
   25.1775    1.7470   -3.9361 H   0  0  0  0  0  0  0  0  0  0  0  0
   32.0854    1.3351    2.2975 C   0  0  0  0  0  0  0  0  0  0  0  0
   33.3616    2.0843    1.9082 C   0  0  0  0  0  0  0  0  0  0  0  0
   35.3523    1.2433    0.9881 O   0  0  0  0  0  0  0  0  0  0  0  0
   33.5213    0.6079   -0.1412 N   0  0  0  0  0  0  0  0  0  0  0  0
   34.1545    1.2921    0.8894 C   0  0  0  0  0  0  0  0  0  0  0  0
   33.5147   -0.3765   -0.1252 H   0  0  0  0  0  0  0  0  0  0  0  0
   32.9074    1.2558   -1.1761 C   0  0  0  0  0  0  0  0  0  0  0  0
   33.3489    2.5561   -1.5508 C   0  0  0  0  0  0  0  0  0  0  0  0
   32.7228    3.2418   -2.6271 C   0  0  0  0  0  0  0  0  0  0  0  0
   31.6478    2.6313   -3.3382 C   0  0  0  0  0  0  0  0  0  0  0  0
   31.2006    1.3251   -2.9611 C   0  0  0  0  0  0  0  0  0  0  0  0
   31.8265    0.6414   -1.8860 C   0  0  0  0  0  0  0  0  0  0  0  0
   31.0607    3.2865   -4.3626 C   0  0  0  0  0  0  0  0  0  0  0  0
   30.4208    2.5607   -5.4153 C   0  0  0  0  0  0  0  0  0  0  0  0
   29.8051    3.2645   -6.4886 C   0  0  0  0  0  0  0  0  0  0  0  0
   29.8253    4.6894   -6.5144 C   0  0  0  0  0  0  0  0  0  0  0  0
   30.4594    5.4119   -5.4685 C   0  0  0  0  0  0  0  0  0  0  0  0
   31.0761    4.7193   -4.3947 C   0  0  0  0  0  0  0  0  0  0  0  0
  6  7  1  0  0  0
  6  9  1  0  0  0
  6 13  2  0  0  0
  7 15  1  0  0  0
  7 16  1  0  0  0
  8 10  1  0  0  0
  9 10  2  0  0  0
  1  2  2  0  0  0
  1  4  1  0  0  0
 24 26  2  0  0  0
 10 11  1  0  0  0
  2  3  1  0  0  0
 25 26  1  0  0  0
 11 12  2  0  0  0
 11 26  1  0  0  0
  3  5  1  0  0  0
  3 28  1  0  0  0
 30 32  2  0  0  0
 12 13  1  0  0  0
 31 32  1  0  0  0
 31 34  1  0  0  0
 13 14  1  0  0  0
 14 15  2  0  0  0
 14  4  1  0  0  0
 15 18  1  0  0  0
 18 19  2  0  0  0
 18 23  1  0  0  0
 19 20  1  0  0  0
 20 21  2  0  0  0
 21 22  1  0  0  0
 22 23  2  0  0  0
  4  5  2  0  0  0
 28 29  1  0  0  0
 29 32  1  0  0  0
 34 35  2  0  0  0
 34 39  1  0  0  0
 35 36  1  0  0  0
 36 37  2  0  0  0
 37 38  1  0  0  0
 37 40  1  0  0  0
 38 39  2  0  0  0
 40 41  2  0  0  0
 40 45  1  0  0  0
 41 42  1  0  0  0
 42 43  2  0  0  0
 43 44  1  0  0  0
 44 45  2  0  0  0
  8 17  1  0  0  0
 25 27  1  0  0  0
 31 33  1  0  0  0
M  END
> <minimizedAffinity>
-7.43039

$$$$
3O5X_JZG_A_1


 45 50  0  0  0  0  0  0  0  0999 V2000
   30.1127    4.4740    2.4958 N   0  0  0  0  0  0  0  0  0  0  0  0
   31.1467    3.7677    3.0243 N   0  0  0  0  0  0  0  0  0  0  0  0
   31.8893    3.0160    2.1834 N   0  0  0  0  0  0  0  0  0  0  0  0
   30.2086    4.1408    1.2030 C   0  0  0  0  0  0  0  0  0  0  0  0
   31.2829    3.2602    1.0187 C   0  0  0  0  0  0  0  0  0  0  0  0
   27.6756    4.7142   -1.2988 C   0  0  0  0  0  0  0  0  0  0  0  0
   28.5575    5.7609   -1.5291 N   0  0  0  0  0  0  0  0  0  0  0  0
   24.5939    2.8943   -2.1414 O   0  0  0  0  0  0  0  0  0  0  0  0
   26.4611    4.3676   -1.9627 C   0  0  0  0  0  0  0  0  0  0  0  0
   25.7447    3.2189   -1.5057 C   0  0  0  0  0  0  0  0  0  0  0  0
   26.2309    2.4338   -0.3952 C   0  0  0  0  0  0  0  0  0  0  0  0
   27.4551    2.8034    0.2485 C   0  0  0  0  0  0  0  0  0  0  0  0
   28.1887    3.9572   -0.2070 C   0  0  0  0  0  0  0  0  0  0  0  0
   29.4096    4.5742    0.1974 C   0  0  0  0  0  0  0  0  0  0  0  0
   29.6226    5.6931   -0.6277 C   0  0  0  0  0  0  0  0  0  0  0  0
   28.3778    6.7922   -2.5906 C   0  0  0  0  0  0  0  0  0  0  0  0
   24.2929    3.4146   -2.8602 H   0  0  0  0  0  0  0  0  0  0  0  0
   30.6744    6.5583   -0.5737 C   0  0  0  0  0  0  0  0  0  0  0  0
   31.8504    6.3128   -1.3505 C   0  0  0  0  0  0  0  0  0  0  0  0
   32.9451    7.2180   -1.2910 C   0  0  0  0  0  0  0  0  0  0  0  0
   32.8697    8.3720   -0.4592 C   0  0  0  0  0  0  0  0  0  0  0  0
   31.6998    8.6204    0.3147 C   0  0  0  0  0  0  0  0  0  0  0  0
   30.6061    7.7170    0.2597 C   0  0  0  0  0  0  0  0  0  0  0  0
   24.5015    0.9924   -0.4152 O   0  0  0  0  0  0  0  0  0  0  0  0
   26.0505    0.6271    1.0794 O   0  0  0  0  0  0  0  0  0  0  0  0
   25.5467    1.3356    0.0687 C   0  0  0  0  0  0  0  0  0  0  0  0
   26.8643    0.8800    1.4690 H   0  0  0  0  0  0  0  0  0  0  0  0
   33.0574    2.1551    2.4573 C   0  0  0  0  0  0  0  0  0  0  0  0
   33.1206    1.0457    1.4052 C   0  0  0  0  0  0  0  0  0  0  0  0
   34.8392    2.2740    0.3783 O   0  0  0  0  0  0  0  0  0  0  0  0
   33.6932    0.9889   -1.0594 N   0  0  0  0  0  0  0  0  0  0  0  0
   33.9434    1.4886    0.2131 C   0  0  0  0  0  0  0  0  0  0  0  0
   34.3494    0.3798   -1.4689 H   0  0  0  0  0  0  0  0  0  0  0  0
   32.5668    1.3149   -1.7613 C   0  0  0  0  0  0  0  0  0  0  0  0
   31.5728    0.3228   -1.9935 C   0  0  0  0  0  0  0  0  0  0  0  0
   30.3943    0.6470   -2.7191 C   0  0  0  0  0  0  0  0  0  0  0  0
   30.2004    1.9684   -3.2194 C   0  0  0  0  0  0  0  0  0  0  0  0
   31.1999    2.9665   -2.9893 C   0  0  0  0  0  0  0  0  0  0  0  0
   32.3766    2.6416   -2.2648 C   0  0  0  0  0  0  0  0  0  0  0  0
   29.0762    2.2705   -3.9037 C   0  0  0  0  0  0  0  0  0  0  0  0
   28.9700    3.5073   -4.6133 C   0  0  0  0  0  0  0  0  0  0  0  0
   27.7793    3.8124   -5.3313 C   0  0  0  0  0  0  0  0  0  0  0  0
   26.6950    2.8873   -5.3440 C   0  0  0  0  0  0  0  0  0  0  0  0
   26.7996    1.6575   -4.6408 C   0  0  0  0  0  0  0  0  0  0  0  0
   27.9822    1.3447   -3.9220 C   0  0  0  0  0  0  0  0  0  0  0  0
  6  7  1  0  0  0
  6  9  1  0  0  0
  6 13  2  0  0  0
  7 15  1  0  0  0
  7 16  1  0  0  0
  8 10  1  0  0  0
  9 10  2  0  0  0
  1  2  2  0  0  0
  1  4  1  0  0  0
 24 26  2  0  0  0
 10 11  1  0  0  0
  2  3  1  0  0  0
 25 26  1  0  0  0
 11 12  2  0  0  0
 11 26  1  0  0  0
  3  5  1  0  0  0
  3 28  1  0  0  0
 30 32  2  0  0  0
 12 13  1  0  0  0
 31 32  1  0  0  0
 31 34  1  0  0  0
 13 14  1  0  0  0
 14 15  2  0  0  0
 14  4  1  0  0  0
 15 18  1  0  0  0
 18 19  2  0  0  0
 18 23  1  0  0  0
 19 20  1  0  0  0
 20 21  2  0  0  0
 21 22  1  0  0  0
 22 23  2  0  0  0
  4  5  2  0  0  0
 28 29  1  0  0  0
 29 32  1  0  0  0
 34 35  2  0  0  0
 34 39  1  0  0  0
 35 36  1  0  0  0
 36 37  2  0  0  0
 37 38  1  0  0  0
 37 40  1  0  0  0
 38 39  2  0  0  0
 40 41  2  0  0  0
 40 45  1  0  0  0
 41 42  1  0  0  0
 42 43  2  0  0  0
 43 44  1  0  0  0
 44 45  2  0  0  0
  8 17  1  0  0  0
 25 27  1  0  0  0
 31 33  1  0  0  0
M  END
> <minimizedAffinity>
-7.29092

$$$$
3O5X_JZG_A_1


 45 50  0  0  0  0  0  0  0  0999 V2000
   29.4706    0.5686   -2.9881 N   0  0  0  0  0  0  0  0  0  0  0  0
   28.1351    0.6170   -2.7402 N   0  0  0  0  0  0  0  0  0  0  0  0
   27.5576    1.8338   -2.6423 N   0  0  0  0  0  0  0  0  0  0  0  0
   29.7667    1.8722   -3.0542 C   0  0  0  0  0  0  0  0  0  0  0  0
   28.6086    2.6327   -2.8450 C   0  0  0  0  0  0  0  0  0  0  0  0
   32.7144    3.5259   -4.3113 C   0  0  0  0  0  0  0  0  0  0  0  0
   33.1565    3.0224   -3.0959 N   0  0  0  0  0  0  0  0  0  0  0  0
   33.3559    5.3843   -7.4184 O   0  0  0  0  0  0  0  0  0  0  0  0
   33.4079    4.2785   -5.3057 C   0  0  0  0  0  0  0  0  0  0  0  0
   32.6915    4.6720   -6.4777 C   0  0  0  0  0  0  0  0  0  0  0  0
   31.2997    4.3261   -6.6484 C   0  0  0  0  0  0  0  0  0  0  0  0
   30.6314    3.5663   -5.6356 C   0  0  0  0  0  0  0  0  0  0  0  0
   31.3453    3.1596   -4.4515 C   0  0  0  0  0  0  0  0  0  0  0  0
   30.9879    2.4105   -3.2913 C   0  0  0  0  0  0  0  0  0  0  0  0
   32.1189    2.3378   -2.4584 C   0  0  0  0  0  0  0  0  0  0  0  0
   34.5406    3.1945   -2.5692 C   0  0  0  0  0  0  0  0  0  0  0  0
   34.2589    5.6002   -7.2916 H   0  0  0  0  0  0  0  0  0  0  0  0
   32.2037    1.7121   -1.2505 C   0  0  0  0  0  0  0  0  0  0  0  0
   32.5761    0.3327   -1.1779 C   0  0  0  0  0  0  0  0  0  0  0  0
   32.6632   -0.3160    0.0842 C   0  0  0  0  0  0  0  0  0  0  0  0
   32.3824    0.4092    1.2778 C   0  0  0  0  0  0  0  0  0  0  0  0
   32.0127    1.7831    1.2095 C   0  0  0  0  0  0  0  0  0  0  0  0
   31.9219    2.4330   -0.0494 C   0  0  0  0  0  0  0  0  0  0  0  0
   30.9652    4.4448   -8.8717 O   0  0  0  0  0  0  0  0  0  0  0  0
   29.4548    5.3932   -7.6123 O   0  0  0  0  0  0  0  0  0  0  0  0
   30.5901    4.7103   -7.7612 C   0  0  0  0  0  0  0  0  0  0  0  0
   29.1471    5.6091   -6.7540 H   0  0  0  0  0  0  0  0  0  0  0  0
   26.1506    2.2007   -2.3849 C   0  0  0  0  0  0  0  0  0  0  0  0
   26.1102    3.5138   -1.6003 C   0  0  0  0  0  0  0  0  0  0  0  0
   24.3377    3.4228   -0.0618 O   0  0  0  0  0  0  0  0  0  0  0  0
   26.3249    2.9243    0.8516 N   0  0  0  0  0  0  0  0  0  0  0  0
   25.5227    3.2927   -0.2218 C   0  0  0  0  0  0  0  0  0  0  0  0
   26.2395    2.0151    1.2194 H   0  0  0  0  0  0  0  0  0  0  0  0
   27.2284    3.7820    1.4136 C   0  0  0  0  0  0  0  0  0  0  0  0
   26.7871    5.0424    1.9061 C   0  0  0  0  0  0  0  0  0  0  0  0
   27.7140    5.9443    2.4962 C   0  0  0  0  0  0  0  0  0  0  0  0
   29.0922    5.5920    2.5982 C   0  0  0  0  0  0  0  0  0  0  0  0
   29.5382    4.3262    2.1010 C   0  0  0  0  0  0  0  0  0  0  0  0
   28.6118    3.4265    1.5117 C   0  0  0  0  0  0  0  0  0  0  0  0
   29.9663    6.4515    3.1642 C   0  0  0  0  0  0  0  0  0  0  0  0
   29.5037    7.6601    3.7723 C   0  0  0  0  0  0  0  0  0  0  0  0
   30.4364    8.5567    4.3661 C   0  0  0  0  0  0  0  0  0  0  0  0
   31.8285    8.2509    4.3556 C   0  0  0  0  0  0  0  0  0  0  0  0
   32.2895    7.0499    3.7530 C   0  0  0  0  0  0  0  0  0  0  0  0
   31.3676    6.1502    3.1583 C   0  0  0  0  0  0  0  0  0  0  0  0
  6  7  1  0  0  0
  6  9  1  0  0  0
  6 13  2  0  0  0
  7 15  1  0  0  0
  7 16  1  0  0  0
  8 10  1  0  0  0
  9 10  2  0  0  0
  1  2  2  0  0  0
  1  4  1  0  0  0
 24 26  2  0  0  0
 10 11  1  0  0  0
  2  3  1  0  0  0
 25 26  1  0  0  0
 11 12  2  0  0  0
 11 26  1  0  0  0
  3  5  1  0  0  0
  3 28  1  0  0  0
 30 32  2  0  0  0
 12 13  1  0  0  0
 31 32  1  0  0  0
 31 34  1  0  0  0
 13 14  1  0  0  0
 14 15  2  0  0  0
 14  4  1  0  0  0
 15 18  1  0  0  0
 18 19  2  0  0  0
 18 23  1  0  0  0
 19 20  1  0  0  0
 20 21  2  0  0  0
 21 22  1  0  0  0
 22 23  2  0  0  0
  4  5  2  0  0  0
 28 29  1  0  0  0
 29 32  1  0  0  0
 34 35  2  0  0  0
 34 39  1  0  0  0
 35 36  1  0  0  0
 36 37  2  0  0  0
 37 38  1  0  0  0
 37 40  1  0  0  0
 38 39  2  0  0  0
 40 41  2  0  0  0
 40 45  1  0  0  0
 41 42  1  0  0  0
 42 43  2  0  0  0
 43 44  1  0  0  0
 44 45  2  0  0  0
  8 17  1  0  0  0
 25 27  1  0  0  0
 31 33  1  0  0  0
M  END
> <minimizedAffinity>
-7.23808

$$$$
3O5X_JZG_A_1


 45 50  0  0  0  0  0  0  0  0999 V2000
   30.4905    0.6080   -2.0985 N   0  0  0  0  0  0  0  0  0  0  0  0
   29.2062    0.6020   -2.5433 N   0  0  0  0  0  0  0  0  0  0  0  0
   28.4803    1.7294   -2.3833 N   0  0  0  0  0  0  0  0  0  0  0  0
   30.5882    1.8516   -1.6133 C   0  0  0  0  0  0  0  0  0  0  0  0
   29.3721    2.5255   -1.7875 C   0  0  0  0  0  0  0  0  0  0  0  0
   33.2171    3.0726    0.5320 C   0  0  0  0  0  0  0  0  0  0  0  0
   33.6197    3.5302   -0.7149 N   0  0  0  0  0  0  0  0  0  0  0  0
   33.7606    2.7964    4.1579 O   0  0  0  0  0  0  0  0  0  0  0  0
   33.8246    3.2302    1.8134 C   0  0  0  0  0  0  0  0  0  0  0  0
   33.1798    2.6414    2.9444 C   0  0  0  0  0  0  0  0  0  0  0  0
   31.9506    1.8981    2.7948 C   0  0  0  0  0  0  0  0  0  0  0  0
   31.3620    1.7605    1.4970 C   0  0  0  0  0  0  0  0  0  0  0  0
   32.0008    2.3543    0.3498 C   0  0  0  0  0  0  0  0  0  0  0  0
   31.6823    2.4095   -1.0396 C   0  0  0  0  0  0  0  0  0  0  0  0
   32.6968    3.1373   -1.6871 C   0  0  0  0  0  0  0  0  0  0  0  0
   34.8566    4.3264   -0.9578 C   0  0  0  0  0  0  0  0  0  0  0  0
   34.5582    3.2817    4.2371 H   0  0  0  0  0  0  0  0  0  0  0  0
   32.7752    3.4207   -3.0180 C   0  0  0  0  0  0  0  0  0  0  0  0
   32.1564    4.5996   -3.5416 C   0  0  0  0  0  0  0  0  0  0  0  0
   32.2407    4.8912   -4.9305 C   0  0  0  0  0  0  0  0  0  0  0  0
   32.9443    4.0101   -5.8011 C   0  0  0  0  0  0  0  0  0  0  0  0
   33.5627    2.8361   -5.2832 C   0  0  0  0  0  0  0  0  0  0  0  0
   33.4780    2.5405   -3.8973 C   0  0  0  0  0  0  0  0  0  0  0  0
   31.9171    1.0604    4.8843 O   0  0  0  0  0  0  0  0  0  0  0  0
   30.0286    1.0107    3.7897 O   0  0  0  0  0  0  0  0  0  0  0  0
   31.3252    1.3108    3.8688 C   0  0  0  0  0  0  0  0  0  0  0  0
   29.5512    1.1988    3.0057 H   0  0  0  0  0  0  0  0  0  0  0  0
   27.0828    2.0221   -2.7600 C   0  0  0  0  0  0  0  0  0  0  0  0
   26.1745    1.7656   -1.5556 C   0  0  0  0  0  0  0  0  0  0  0  0
   24.7793    3.6357   -1.8258 O   0  0  0  0  0  0  0  0  0  0  0  0
   25.7822    3.5661    0.1794 N   0  0  0  0  0  0  0  0  0  0  0  0
   25.5320    3.0554   -1.0887 C   0  0  0  0  0  0  0  0  0  0  0  0
   25.0605    3.5522    0.8488 H   0  0  0  0  0  0  0  0  0  0  0  0
   26.9967    4.0868    0.5281 C   0  0  0  0  0  0  0  0  0  0  0  0
   27.6479    4.9984   -0.3500 C   0  0  0  0  0  0  0  0  0  0  0  0
   28.9099    5.5511   -0.0002 C   0  0  0  0  0  0  0  0  0  0  0  0
   29.5319    5.1955    1.2329 C   0  0  0  0  0  0  0  0  0  0  0  0
   28.8800    4.2771    2.1159 C   0  0  0  0  0  0  0  0  0  0  0  0
   27.6199    3.7254    1.7655 C   0  0  0  0  0  0  0  0  0  0  0  0
   30.7286    5.7280    1.5610 C   0  0  0  0  0  0  0  0  0  0  0  0
   31.5713    6.2928    0.5535 C   0  0  0  0  0  0  0  0  0  0  0  0
   32.8300    6.8517    0.9139 C   0  0  0  0  0  0  0  0  0  0  0  0
   33.2498    6.8493    2.2759 C   0  0  0  0  0  0  0  0  0  0  0  0
   32.4130    6.2899    3.2783 C   0  0  0  0  0  0  0  0  0  0  0  0
   31.1569    5.7302    2.9288 C   0  0  0  0  0  0  0  0  0  0  0  0
  6  7  1  0  0  0
  6  9  1  0  0  0
  6 13  2  0  0  0
  7 15  1  0  0  0
  7 16  1  0  0  0
  8 10  1  0  0  0
  9 10  2  0  0  0
  1  2  2  0  0  0
  1  4  1  0  0  0
 24 26  2  0  0  0
 10 11  1  0  0  0
  2  3  1  0  0  0
 25 26  1  0  0  0
 11 12  2  0  0  0
 11 26  1  0  0  0
  3  5  1  0  0  0
  3 28  1  0  0  0
 30 32  2  0  0  0
 12 13  1  0  0  0
 31 32  1  0  0  0
 31 34  1  0  0  0
 13 14  1  0  0  0
 14 15  2  0  0  0
 14  4  1  0  0  0
 15 18  1  0  0  0
 18 19  2  0  0  0
 18 23  1  0  0  0
 19 20  1  0  0  0
 20 21  2  0  0  0
 21 22  1  0  0  0
 22 23  2  0  0  0
  4  5  2  0  0  0
 28 29  1  0  0  0
 29 32  1  0  0  0
 34 35  2  0  0  0
 34 39  1  0  0  0
 35 36  1  0  0  0
 36 37  2  0  0  0
 37 38  1  0  0  0
 37 40  1  0  0  0
 38 39  2  0  0  0
 40 41  2  0  0  0
 40 45  1  0  0  0
 41 42  1  0  0  0
 42 43  2  0  0  0
 43 44  1  0  0  0
 44 45  2  0  0  0
  8 17  1  0  0  0
 25 27  1  0  0  0
 31 33  1  0  0  0
M  END
> <minimizedAffinity>
-7.10347

$$$$
3O5X_JZG_A_1


 45 50  0  0  0  0  0  0  0  0999 V2000
   28.3847    4.2873    2.8665 N   0  0  0  0  0  0  0  0  0  0  0  0
   27.1169    4.0685    2.4280 N   0  0  0  0  0  0  0  0  0  0  0  0
   26.9193    3.9797    1.0951 N   0  0  0  0  0  0  0  0  0  0  0  0
   29.0513    4.3415    1.7071 C   0  0  0  0  0  0  0  0  0  0  0  0
   28.1626    4.1550    0.6399 C   0  0  0  0  0  0  0  0  0  0  0  0
   32.6007    4.1648    1.0950 C   0  0  0  0  0  0  0  0  0  0  0  0
   32.4400    5.4788    1.5120 N   0  0  0  0  0  0  0  0  0  0  0  0
   34.7662    1.4219   -0.0477 O   0  0  0  0  0  0  0  0  0  0  0  0
   33.7774    3.4567    0.7078 C   0  0  0  0  0  0  0  0  0  0  0  0
   33.6454    2.0888    0.3167 C   0  0  0  0  0  0  0  0  0  0  0  0
   32.3544    1.4413    0.3042 C   0  0  0  0  0  0  0  0  0  0  0  0
   31.1919    2.1760    0.7022 C   0  0  0  0  0  0  0  0  0  0  0  0
   31.3137    3.5549    1.1033 C   0  0  0  0  0  0  0  0  0  0  0  0
   30.3833    4.5389    1.5515 C   0  0  0  0  0  0  0  0  0  0  0  0
   31.0950    5.7271    1.7963 C   0  0  0  0  0  0  0  0  0  0  0  0
   33.5535    6.4626    1.6356 C   0  0  0  0  0  0  0  0  0  0  0  0
   35.5958    1.8572   -0.0338 H   0  0  0  0  0  0  0  0  0  0  0  0
   30.5810    6.9101    2.2366 C   0  0  0  0  0  0  0  0  0  0  0  0
   30.0997    7.8796    1.3010 C   0  0  0  0  0  0  0  0  0  0  0  0
   29.5643    9.1123    1.7648 C   0  0  0  0  0  0  0  0  0  0  0  0
   29.5045    9.3811    3.1625 C   0  0  0  0  0  0  0  0  0  0  0  0
   29.9815    8.4176    4.0970 C   0  0  0  0  0  0  0  0  0  0  0  0
   30.5193    7.1869    3.6371 C   0  0  0  0  0  0  0  0  0  0  0  0
   31.5076   -0.1760   -1.0134 O   0  0  0  0  0  0  0  0  0  0  0  0
   32.8521   -0.8277    0.5786 O   0  0  0  0  0  0  0  0  0  0  0  0
   32.2060    0.1313   -0.0849 C   0  0  0  0  0  0  0  0  0  0  0  0
   33.4009   -0.6066    1.3051 H   0  0  0  0  0  0  0  0  0  0  0  0
   25.6766    3.7494    0.3313 C   0  0  0  0  0  0  0  0  0  0  0  0
   25.7412    2.3698   -0.3274 C   0  0  0  0  0  0  0  0  0  0  0  0
   25.0116    1.7167   -2.4624 O   0  0  0  0  0  0  0  0  0  0  0  0
   26.3632    3.5064   -2.5016 N   0  0  0  0  0  0  0  0  0  0  0  0
   25.6794    2.4963   -1.8356 C   0  0  0  0  0  0  0  0  0  0  0  0
   25.8482    4.2323   -2.9224 H   0  0  0  0  0  0  0  0  0  0  0  0
   27.7268    3.5257   -2.5918 C   0  0  0  0  0  0  0  0  0  0  0  0
   28.4067    4.7730   -2.6817 C   0  0  0  0  0  0  0  0  0  0  0  0
   29.8247    4.8099   -2.7731 C   0  0  0  0  0  0  0  0  0  0  0  0
   30.5753    3.5972   -2.7757 C   0  0  0  0  0  0  0  0  0  0  0  0
   29.8933    2.3420   -2.6881 C   0  0  0  0  0  0  0  0  0  0  0  0
   28.4771    2.3063   -2.5972 C   0  0  0  0  0  0  0  0  0  0  0  0
   31.9224    3.6399   -2.8579 C   0  0  0  0  0  0  0  0  0  0  0  0
   32.6613    2.4822   -3.2556 C   0  0  0  0  0  0  0  0  0  0  0  0
   34.0811    2.5417   -3.3389 C   0  0  0  0  0  0  0  0  0  0  0  0
   34.7656    3.7525   -3.0274 C   0  0  0  0  0  0  0  0  0  0  0  0
   34.0328    4.9040   -2.6335 C   0  0  0  0  0  0  0  0  0  0  0  0
   32.6175    4.8543   -2.5473 C   0  0  0  0  0  0  0  0  0  0  0  0
  6  7  1  0  0  0
  6  9  1  0  0  0
  6 13  2  0  0  0
  7 15  1  0  0  0
  7 16  1  0  0  0
  8 10  1  0  0  0
  9 10  2  0  0  0
  1  2  2  0  0  0
  1  4  1  0  0  0
 24 26  2  0  0  0
 10 11  1  0  0  0
  2  3  1  0  0  0
 25 26  1  0  0  0
 11 12  2  0  0  0
 11 26  1  0  0  0
  3  5  1  0  0  0
  3 28  1  0  0  0
 30 32  2  0  0  0
 12 13  1  0  0  0
 31 32  1  0  0  0
 31 34  1  0  0  0
 13 14  1  0  0  0
 14 15  2  0  0  0
 14  4  1  0  0  0
 15 18  1  0  0  0
 18 19  2  0  0  0
 18 23  1  0  0  0
 19 20  1  0  0  0
 20 21  2  0  0  0
 21 22  1  0  0  0
 22 23  2  0  0  0
  4  5  2  0  0  0
 28 29  1  0  0  0
 29 32  1  0  0  0
 34 35  2  0  0  0
 34 39  1  0  0  0
 35 36  1  0  0  0
 36 37  2  0  0  0
 37 38  1  0  0  0
 37 40  1  0  0  0
 38 39  2  0  0  0
 40 41  2  0  0  0
 40 45  1  0  0  0
 41 42  1  0  0  0
 42 43  2  0  0  0
 43 44  1  0  0  0
 44 45  2  0  0  0
  8 17  1  0  0  0
 25 27  1  0  0  0
 31 33  1  0  0  0
M  END
> <minimizedAffinity>
-6.99697

$$$$
3O5X_JZG_A_1


 45 50  0  0  0  0  0  0  0  0999 V2000
   27.8271    1.8787   -0.7769 N   0  0  0  0  0  0  0  0  0  0  0  0
   27.1712    2.4390    0.2734 N   0  0  0  0  0  0  0  0  0  0  0  0
   27.6110    3.6334    0.7244 N   0  0  0  0  0  0  0  0  0  0  0  0
   28.7673    2.8014   -1.0140 C   0  0  0  0  0  0  0  0  0  0  0  0
   28.6331    3.8595   -0.1051 C   0  0  0  0  0  0  0  0  0  0  0  0
   30.7342    2.8066   -4.0364 C   0  0  0  0  0  0  0  0  0  0  0  0
   31.6904    2.5464   -3.0646 N   0  0  0  0  0  0  0  0  0  0  0  0
   29.8249    3.3184   -7.5620 O   0  0  0  0  0  0  0  0  0  0  0  0
   30.8662    2.9284   -5.4519 C   0  0  0  0  0  0  0  0  0  0  0  0
   29.6931    3.2059   -6.2190 C   0  0  0  0  0  0  0  0  0  0  0  0
   28.4086    3.3683   -5.5790 C   0  0  0  0  0  0  0  0  0  0  0  0
   28.3062    3.2360   -4.1571 C   0  0  0  0  0  0  0  0  0  0  0  0
   29.4819    2.9513   -3.3737 C   0  0  0  0  0  0  0  0  0  0  0  0
   29.7166    2.7553   -1.9804 C   0  0  0  0  0  0  0  0  0  0  0  0
   31.0902    2.5100   -1.8037 C   0  0  0  0  0  0  0  0  0  0  0  0
   33.1390    2.3354   -3.3473 C   0  0  0  0  0  0  0  0  0  0  0  0
   30.6658    3.2100   -7.9610 H   0  0  0  0  0  0  0  0  0  0  0  0
   31.7315    2.2724   -0.6248 C   0  0  0  0  0  0  0  0  0  0  0  0
   31.8652    0.9353   -0.1336 C   0  0  0  0  0  0  0  0  0  0  0  0
   32.5349    0.6922    1.0967 C   0  0  0  0  0  0  0  0  0  0  0  0
   33.0759    1.7807    1.8395 C   0  0  0  0  0  0  0  0  0  0  0  0
   32.9459    3.1131    1.3530 C   0  0  0  0  0  0  0  0  0  0  0  0
   32.2753    3.3597    0.1263 C   0  0  0  0  0  0  0  0  0  0  0  0
   26.1927    3.2488   -5.9587 O   0  0  0  0  0  0  0  0  0  0  0  0
   27.3630    4.3945   -7.4025 O   0  0  0  0  0  0  0  0  0  0  0  0
   27.2725    3.6519   -6.2989 C   0  0  0  0  0  0  0  0  0  0  0  0
   28.1968    4.7174   -7.6828 H   0  0  0  0  0  0  0  0  0  0  0  0
   27.1103    4.4758    1.8291 C   0  0  0  0  0  0  0  0  0  0  0  0
   28.2952    5.1575    2.5167 C   0  0  0  0  0  0  0  0  0  0  0  0
   27.2845    7.2777    2.4979 O   0  0  0  0  0  0  0  0  0  0  0  0
   29.3979    7.3014    1.7464 N   0  0  0  0  0  0  0  0  0  0  0  0
   28.2795    6.6486    2.2507 C   0  0  0  0  0  0  0  0  0  0  0  0
   29.8922    7.9196    2.3318 H   0  0  0  0  0  0  0  0  0  0  0  0
   29.8344    7.1138    0.4650 C   0  0  0  0  0  0  0  0  0  0  0  0
   28.9101    7.2123   -0.6129 C   0  0  0  0  0  0  0  0  0  0  0  0
   29.3492    7.0230   -1.9515 C   0  0  0  0  0  0  0  0  0  0  0  0
   30.7188    6.7326   -2.2231 C   0  0  0  0  0  0  0  0  0  0  0  0
   31.6492    6.6305   -1.1404 C   0  0  0  0  0  0  0  0  0  0  0  0
   31.2096    6.8195    0.1961 C   0  0  0  0  0  0  0  0  0  0  0  0
   31.1299    6.5586   -3.4975 C   0  0  0  0  0  0  0  0  0  0  0  0
   30.2487    6.8392   -4.5879 C   0  0  0  0  0  0  0  0  0  0  0  0
   30.6958    6.6521   -5.9265 C   0  0  0  0  0  0  0  0  0  0  0  0
   32.0189    6.1868   -6.1801 C   0  0  0  0  0  0  0  0  0  0  0  0
   32.8961    5.9090   -5.0977 C   0  0  0  0  0  0  0  0  0  0  0  0
   32.4594    6.0920   -3.7602 C   0  0  0  0  0  0  0  0  0  0  0  0
  6  7  1  0  0  0
  6  9  1  0  0  0
  6 13  2  0  0  0
  7 15  1  0  0  0
  7 16  1  0  0  0
  8 10  1  0  0  0
  9 10  2  0  0  0
  1  2  2  0  0  0
  1  4  1  0  0  0
 24 26  2  0  0  0
 10 11  1  0  0  0
  2  3  1  0  0  0
 25 26  1  0  0  0
 11 12  2  0  0  0
 11 26  1  0  0  0
  3  5  1  0  0  0
  3 28  1  0  0  0
 30 32  2  0  0  0
 12 13  1  0  0  0
 31 32  1  0  0  0
 31 34  1  0  0  0
 13 14  1  0  0  0
 14 15  2  0  0  0
 14  4  1  0  0  0
 15 18  1  0  0  0
 18 19  2  0  0  0
 18 23  1  0  0  0
 19 20  1  0  0  0
 20 21  2  0  0  0
 21 22  1  0  0  0
 22 23  2  0  0  0
  4  5  2  0  0  0
 28 29  1  0  0  0
 29 32  1  0  0  0
 34 35  2  0  0  0
 34 39  1  0  0  0
 35 36  1  0  0  0
 36 37  2  0  0  0
 37 38  1  0  0  0
 37 40  1  0  0  0
 38 39  2  0  0  0
 40 41  2  0  0  0
 40 45  1  0  0  0
 41 42  1  0  0  0
 42 43  2  0  0  0
 43 44  1  0  0  0
 44 45  2  0  0  0
  8 17  1  0  0  0
 25 27  1  0  0  0
 31 33  1  0  0  0
M  END
> <minimizedAffinity>
-6.92068

$$$$
3O5X_JZG_A_1


 45 50  0  0  0  0  0  0  0  0999 V2000
   30.5790    0.1341   -2.0089 N   0  0  0  0  0  0  0  0  0  0  0  0
   31.5641   -0.4896   -1.3105 N   0  0  0  0  0  0  0  0  0  0  0  0
   32.4335    0.2825   -0.6238 N   0  0  0  0  0  0  0  0  0  0  0  0
   30.8472    1.4177   -1.7402 C   0  0  0  0  0  0  0  0  0  0  0  0
   31.9678    1.5027   -0.9032 C   0  0  0  0  0  0  0  0  0  0  0  0
   28.4728    4.0167   -2.5218 C   0  0  0  0  0  0  0  0  0  0  0  0
   29.5800    4.3972   -3.2671 N   0  0  0  0  0  0  0  0  0  0  0  0
   25.0065    4.5890   -1.4372 O   0  0  0  0  0  0  0  0  0  0  0  0
   27.1881    4.6258   -2.4005 C   0  0  0  0  0  0  0  0  0  0  0  0
   26.2244    4.0069   -1.5463 C   0  0  0  0  0  0  0  0  0  0  0  0
   26.5437    2.8020   -0.8168 C   0  0  0  0  0  0  0  0  0  0  0  0
   27.8396    2.2111   -0.9619 C   0  0  0  0  0  0  0  0  0  0  0  0
   28.8181    2.8238   -1.8246 C   0  0  0  0  0  0  0  0  0  0  0  0
   30.1582    2.4959   -2.1873 C   0  0  0  0  0  0  0  0  0  0  0  0
   30.6187    3.4824   -3.0778 C   0  0  0  0  0  0  0  0  0  0  0  0
   29.6305    5.6060   -4.1384 C   0  0  0  0  0  0  0  0  0  0  0  0
   24.8160    5.3706   -1.9175 H   0  0  0  0  0  0  0  0  0  0  0  0
   31.8484    3.5440   -3.6622 C   0  0  0  0  0  0  0  0  0  0  0  0
   32.8564    4.4092   -3.1309 C   0  0  0  0  0  0  0  0  0  0  0  0
   34.1378    4.4704   -3.7438 C   0  0  0  0  0  0  0  0  0  0  0  0
   34.4192    3.6672   -4.8862 C   0  0  0  0  0  0  0  0  0  0  0  0
   33.4185    2.8036   -5.4171 C   0  0  0  0  0  0  0  0  0  0  0  0
   32.1370    2.7423   -4.8093 C   0  0  0  0  0  0  0  0  0  0  0  0
   25.2529    2.7399    1.0267 O   0  0  0  0  0  0  0  0  0  0  0  0
   25.1596    0.9941   -0.2810 O   0  0  0  0  0  0  0  0  0  0  0  0
   25.6350    2.2021    0.0222 C   0  0  0  0  0  0  0  0  0  0  0  0
   25.4463    0.5598   -1.0602 H   0  0  0  0  0  0  0  0  0  0  0  0
   33.5876   -0.0994    0.2146 C   0  0  0  0  0  0  0  0  0  0  0  0
   34.8573    0.5291   -0.3635 C   0  0  0  0  0  0  0  0  0  0  0  0
   36.2902    0.8243    1.4740 O   0  0  0  0  0  0  0  0  0  0  0  0
   35.3970    2.7445    0.7347 N   0  0  0  0  0  0  0  0  0  0  0  0
   35.5622    1.3656    0.6842 C   0  0  0  0  0  0  0  0  0  0  0  0
   36.1536    3.3237    0.4870 H   0  0  0  0  0  0  0  0  0  0  0  0
   34.2194    3.3234    1.1167 C   0  0  0  0  0  0  0  0  0  0  0  0
   33.5559    2.8584    2.2869 C   0  0  0  0  0  0  0  0  0  0  0  0
   32.3319    3.4523    2.6991 C   0  0  0  0  0  0  0  0  0  0  0  0
   31.7608    4.5177    1.9423 C   0  0  0  0  0  0  0  0  0  0  0  0
   32.4251    4.9848    0.7639 C   0  0  0  0  0  0  0  0  0  0  0  0
   33.6472    4.3908    0.3530 C   0  0  0  0  0  0  0  0  0  0  0  0
   30.6003    5.0804    2.3423 C   0  0  0  0  0  0  0  0  0  0  0  0
   30.5991    6.3505    2.9988 C   0  0  0  0  0  0  0  0  0  0  0  0
   29.3681    6.9324    3.4143 C   0  0  0  0  0  0  0  0  0  0  0  0
   28.1389    6.2514    3.1762 C   0  0  0  0  0  0  0  0  0  0  0  0
   28.1383    4.9900    2.5227 C   0  0  0  0  0  0  0  0  0  0  0  0
   29.3602    4.4019    2.1053 C   0  0  0  0  0  0  0  0  0  0  0  0
  6  7  1  0  0  0
  6  9  1  0  0  0
  6 13  2  0  0  0
  7 15  1  0  0  0
  7 16  1  0  0  0
  8 10  1  0  0  0
  9 10  2  0  0  0
  1  2  2  0  0  0
  1  4  1  0  0  0
 24 26  2  0  0  0
 10 11  1  0  0  0
  2  3  1  0  0  0
 25 26  1  0  0  0
 11 12  2  0  0  0
 11 26  1  0  0  0
  3  5  1  0  0  0
  3 28  1  0  0  0
 30 32  2  0  0  0
 12 13  1  0  0  0
 31 32  1  0  0  0
 31 34  1  0  0  0
 13 14  1  0  0  0
 14 15  2  0  0  0
 14  4  1  0  0  0
 15 18  1  0  0  0
 18 19  2  0  0  0
 18 23  1  0  0  0
 19 20  1  0  0  0
 20 21  2  0  0  0
 21 22  1  0  0  0
 22 23  2  0  0  0
  4  5  2  0  0  0
 28 29  1  0  0  0
 29 32  1  0  0  0
 34 35  2  0  0  0
 34 39  1  0  0  0
 35 36  1  0  0  0
 36 37  2  0  0  0
 37 38  1  0  0  0
 37 40  1  0  0  0
 38 39  2  0  0  0
 40 41  2  0  0  0
 40 45  1  0  0  0
 41 42  1  0  0  0
 42 43  2  0  0  0
 43 44  1  0  0  0
 44 45  2  0  0  0
  8 17  1  0  0  0
 25 27  1  0  0  0
 31 33  1  0  0  0
M  END
> <minimizedAffinity>
-6.85328

$$$$
3O5X_JZG_A_1


 45 50  0  0  0  0  0  0  0  0999 V2000
   31.2056    5.1635   -1.7004 N   0  0  0  0  0  0  0  0  0  0  0  0
   31.2527    5.9731   -0.6098 N   0  0  0  0  0  0  0  0  0  0  0  0
   30.1239    6.6290   -0.2646 N   0  0  0  0  0  0  0  0  0  0  0  0
   29.9318    5.3193   -2.0809 C   0  0  0  0  0  0  0  0  0  0  0  0
   29.2821    6.2050   -1.2109 C   0  0  0  0  0  0  0  0  0  0  0  0
   27.9007    3.4262   -4.3819 C   0  0  0  0  0  0  0  0  0  0  0  0
   28.7919    4.0640   -5.2336 N   0  0  0  0  0  0  0  0  0  0  0  0
   25.0623    1.1485   -3.8575 O   0  0  0  0  0  0  0  0  0  0  0  0
   26.8375    2.5190   -4.6695 C   0  0  0  0  0  0  0  0  0  0  0  0
   26.0685    2.0106   -3.5779 C   0  0  0  0  0  0  0  0  0  0  0  0
   26.3524    2.4109   -2.2195 C   0  0  0  0  0  0  0  0  0  0  0  0
   27.4284    3.3193   -1.9612 C   0  0  0  0  0  0  0  0  0  0  0  0
   28.2140    3.8347   -3.0540 C   0  0  0  0  0  0  0  0  0  0  0  0
   29.3272    4.7228   -3.1373 C   0  0  0  0  0  0  0  0  0  0  0  0
   29.6710    4.8589   -4.4943 C   0  0  0  0  0  0  0  0  0  0  0  0
   28.7955    3.9062   -6.7161 C   0  0  0  0  0  0  0  0  0  0  0  0
   24.8917    0.8994   -4.7445 H   0  0  0  0  0  0  0  0  0  0  0  0
   30.6791    5.6187   -5.0083 C   0  0  0  0  0  0  0  0  0  0  0  0
   30.4592    6.9999   -5.3093 C   0  0  0  0  0  0  0  0  0  0  0  0
   31.5136    7.7887   -5.8454 C   0  0  0  0  0  0  0  0  0  0  0  0
   32.7911    7.2037   -6.0803 C   0  0  0  0  0  0  0  0  0  0  0  0
   33.0141    5.8291   -5.7806 C   0  0  0  0  0  0  0  0  0  0  0  0
   31.9626    5.0381   -5.2478 C   0  0  0  0  0  0  0  0  0  0  0  0
   24.7352    2.6013   -0.6648 O   0  0  0  0  0  0  0  0  0  0  0  0
   25.8682    0.7350   -0.6612 O   0  0  0  0  0  0  0  0  0  0  0  0
   25.6127    1.9453   -1.1586 C   0  0  0  0  0  0  0  0  0  0  0  0
   26.5487    0.2095   -1.0337 H   0  0  0  0  0  0  0  0  0  0  0  0
   29.8695    7.5616    0.8517 C   0  0  0  0  0  0  0  0  0  0  0  0
   28.5806    7.1493    1.5660 C   0  0  0  0  0  0  0  0  0  0  0  0
   29.1584    7.0040    3.8380 O   0  0  0  0  0  0  0  0  0  0  0  0
   28.8683    5.0005    2.8719 N   0  0  0  0  0  0  0  0  0  0  0  0
   28.8962    6.3895    2.8378 C   0  0  0  0  0  0  0  0  0  0  0  0
   28.1528    4.5512    3.3773 H   0  0  0  0  0  0  0  0  0  0  0  0
   29.8010    4.2374    2.2273 C   0  0  0  0  0  0  0  0  0  0  0  0
   31.1739    4.3572    2.5837 C   0  0  0  0  0  0  0  0  0  0  0  0
   32.1556    3.5682    1.9248 C   0  0  0  0  0  0  0  0  0  0  0  0
   31.7713    2.6517    0.9019 C   0  0  0  0  0  0  0  0  0  0  0  0
   30.3918    2.5318    0.5402 C   0  0  0  0  0  0  0  0  0  0  0  0
   29.4122    3.3204    1.1987 C   0  0  0  0  0  0  0  0  0  0  0  0
   32.7087    1.9019    0.2834 C   0  0  0  0  0  0  0  0  0  0  0  0
   33.1699    0.6850    0.8755 C   0  0  0  0  0  0  0  0  0  0  0  0
   34.1579   -0.0960    0.2119 C   0  0  0  0  0  0  0  0  0  0  0  0
   34.6862    0.3330   -1.0405 C   0  0  0  0  0  0  0  0  0  0  0  0
   34.2279    1.5411   -1.6307 C   0  0  0  0  0  0  0  0  0  0  0  0
   33.2437    2.3265   -0.9767 C   0  0  0  0  0  0  0  0  0  0  0  0
  6  7  1  0  0  0
  6  9  1  0  0  0
  6 13  2  0  0  0
  7 15  1  0  0  0
  7 16  1  0  0  0
  8 10  1  0  0  0
  9 10  2  0  0  0
  1  2  2  0  0  0
  1  4  1  0  0  0
 24 26  2  0  0  0
 10 11  1  0  0  0
  2  3  1  0  0  0
 25 26  1  0  0  0
 11 12  2  0  0  0
 11 26  1  0  0  0
  3  5  1  0  0  0
  3 28  1  0  0  0
 30 32  2  0  0  0
 12 13  1  0  0  0
 31 32  1  0  0  0
 31 34  1  0  0  0
 13 14  1  0  0  0
 14 15  2  0  0  0
 14  4  1  0  0  0
 15 18  1  0  0  0
 18 19  2  0  0  0
 18 23  1  0  0  0
 19 20  1  0  0  0
 20 21  2  0  0  0
 21 22  1  0  0  0
 22 23  2  0  0  0
  4  5  2  0  0  0
 28 29  1  0  0  0
 29 32  1  0  0  0
 34 35  2  0  0  0
 34 39  1  0  0  0
 35 36  1  0  0  0
 36 37  2  0  0  0
 37 38  1  0  0  0
 37 40  1  0  0  0
 38 39  2  0  0  0
 40 41  2  0  0  0
 40 45  1  0  0  0
 41 42  1  0  0  0
 42 43  2  0  0  0
 43 44  1  0  0  0
 44 45  2  0  0  0
  8 17  1  0  0  0
 25 27  1  0  0  0
 31 33  1  0  0  0
M  END
> <minimizedAffinity>
-6.84408

$$$$
3O5X_JZG_A_1


 45 50  0  0  0  0  0  0  0  0999 V2000
   30.8662    6.1468   -1.6895 N   0  0  0  0  0  0  0  0  0  0  0  0
   31.1871    6.4502   -2.9749 N   0  0  0  0  0  0  0  0  0  0  0  0
   30.3088    6.1041   -3.9405 N   0  0  0  0  0  0  0  0  0  0  0  0
   29.6768    5.5557   -1.8546 C   0  0  0  0  0  0  0  0  0  0  0  0
   29.3438    5.5322   -3.2156 C   0  0  0  0  0  0  0  0  0  0  0  0
   27.2702    3.8287    0.2021 C   0  0  0  0  0  0  0  0  0  0  0  0
   27.9205    4.6350    1.1258 N   0  0  0  0  0  0  0  0  0  0  0  0
   24.7029    1.3204   -0.5954 O   0  0  0  0  0  0  0  0  0  0  0  0
   26.1992    2.9024    0.3778 C   0  0  0  0  0  0  0  0  0  0  0  0
   25.7208    2.1965   -0.7687 C   0  0  0  0  0  0  0  0  0  0  0  0
   26.3109    2.4070   -2.0700 C   0  0  0  0  0  0  0  0  0  0  0  0
   27.3814    3.3463   -2.2165 C   0  0  0  0  0  0  0  0  0  0  0  0
   27.8689    4.0676   -1.0680 C   0  0  0  0  0  0  0  0  0  0  0  0
   28.8849    5.0506   -0.8773 C   0  0  0  0  0  0  0  0  0  0  0  0
   28.9083    5.3890    0.4876 C   0  0  0  0  0  0  0  0  0  0  0  0
   27.5938    4.6779    2.5798 C   0  0  0  0  0  0  0  0  0  0  0  0
   24.3316    1.1959    0.2558 H   0  0  0  0  0  0  0  0  0  0  0  0
   29.7338    6.2904    1.0907 C   0  0  0  0  0  0  0  0  0  0  0  0
   29.3765    7.6749    1.1393 C   0  0  0  0  0  0  0  0  0  0  0  0
   30.2407    8.6118    1.7693 C   0  0  0  0  0  0  0  0  0  0  0  0
   31.4620    8.1709    2.3552 C   0  0  0  0  0  0  0  0  0  0  0  0
   31.8204    6.7930    2.3099 C   0  0  0  0  0  0  0  0  0  0  0  0
   30.9612    5.8554    1.6791 C   0  0  0  0  0  0  0  0  0  0  0  0
   24.7214    1.7391   -3.5179 O   0  0  0  0  0  0  0  0  0  0  0  0
   26.7487    1.0294   -3.9090 O   0  0  0  0  0  0  0  0  0  0  0  0
   25.8749    1.7248   -3.1809 C   0  0  0  0  0  0  0  0  0  0  0  0
   27.6521    1.0070   -3.6612 H   0  0  0  0  0  0  0  0  0  0  0  0
   30.3775    6.2988   -5.4027 C   0  0  0  0  0  0  0  0  0  0  0  0
   31.5389    5.4759   -5.9643 C   0  0  0  0  0  0  0  0  0  0  0  0
   30.2029    3.7208   -6.7715 O   0  0  0  0  0  0  0  0  0  0  0  0
   31.8710    3.0212   -5.4452 N   0  0  0  0  0  0  0  0  0  0  0  0
   31.1474    4.0180   -6.0887 C   0  0  0  0  0  0  0  0  0  0  0  0
   32.4125    2.4018   -5.9859 H   0  0  0  0  0  0  0  0  0  0  0  0
   31.8560    2.8720   -4.0868 C   0  0  0  0  0  0  0  0  0  0  0  0
   32.8834    3.4697   -3.3036 C   0  0  0  0  0  0  0  0  0  0  0  0
   32.8800    3.3263   -1.8894 C   0  0  0  0  0  0  0  0  0  0  0  0
   31.8473    2.5821   -1.2461 C   0  0  0  0  0  0  0  0  0  0  0  0
   30.8150    1.9781   -2.0321 C   0  0  0  0  0  0  0  0  0  0  0  0
   30.8195    2.1217   -3.4444 C   0  0  0  0  0  0  0  0  0  0  0  0
   31.8477    2.4539    0.0980 C   0  0  0  0  0  0  0  0  0  0  0  0
   30.6223    2.2557    0.8075 C   0  0  0  0  0  0  0  0  0  0  0  0
   30.6377    2.1213    2.2247 C   0  0  0  0  0  0  0  0  0  0  0  0
   31.8716    2.1832    2.9355 C   0  0  0  0  0  0  0  0  0  0  0  0
   33.0901    2.3786    2.2319 C   0  0  0  0  0  0  0  0  0  0  0  0
   33.0848    2.5141    0.8195 C   0  0  0  0  0  0  0  0  0  0  0  0
  6  7  1  0  0  0
  6  9  1  0  0  0
  6 13  2  0  0  0
  7 15  1  0  0  0
  7 16  1  0  0  0
  8 10  1  0  0  0
  9 10  2  0  0  0
  1  2  2  0  0  0
  1  4  1  0  0  0
 24 26  2  0  0  0
 10 11  1  0  0  0
  2  3  1  0  0  0
 25 26  1  0  0  0
 11 12  2  0  0  0
 11 26  1  0  0  0
  3  5  1  0  0  0
  3 28  1  0  0  0
 30 32  2  0  0  0
 12 13  1  0  0  0
 31 32  1  0  0  0
 31 34  1  0  0  0
 13 14  1  0  0  0
 14 15  2  0  0  0
 14  4  1  0  0  0
 15 18  1  0  0  0
 18 19  2  0  0  0
 18 23  1  0  0  0
 19 20  1  0  0  0
 20 21  2  0  0  0
 21 22  1  0  0  0
 22 23  2  0  0  0
  4  5  2  0  0  0
 28 29  1  0  0  0
 29 32  1  0  0  0
 34 35  2  0  0  0
 34 39  1  0  0  0
 35 36  1  0  0  0
 36 37  2  0  0  0
 37 38  1  0  0  0
 37 40  1  0  0  0
 38 39  2  0  0  0
 40 41  2  0  0  0
 40 45  1  0  0  0
 41 42  1  0  0  0
 42 43  2  0  0  0
 43 44  1  0  0  0
 44 45  2  0  0  0
  8 17  1  0  0  0
 25 27  1  0  0  0
 31 33  1  0  0  0
M  END
> <minimizedAffinity>
-6.63929

$$$$
