3O5X_JZG_A_1
  RCSB PDB12061710013D
Coordinates from PDB:3O5X:A:1 Model:1 without hydrogens
 42 47  0  0  0  0            999 V2000
   27.7690    3.8870   -0.0110   C 0  0  0  0  0  0  0  0  0  0  0  0
   28.6990    4.5120    0.8080   N 0  0  0  0  0  0  0  0  0  0  0  0
   24.3590    2.6430   -0.5970   O 0  0  0  0  0  0  0  0  0  0  0  0
   26.3930    3.5860    0.2170   C 0  0  0  0  0  0  0  0  0  0  0  0
   31.7020    2.9690   -2.1170   N 0  0  0  0  0  0  0  0  0  0  0  0
   24.6490    2.3840   -3.5750   O 0  0  0  0  0  0  0  0  0  0  0  0
   25.6650    2.9240   -0.8190   C 0  0  0  0  0  0  0  0  0  0  0  0
   32.3380    3.3190   -3.2660   N 0  0  0  0  0  0  0  0  0  0  0  0
   26.0570    0.7180   -3.4810   O 0  0  0  0  0  0  0  0  0  0  0  0
   26.3060    2.5600   -2.0610   C 0  0  0  0  0  0  0  0  0  0  0  0
   31.8530    4.3730   -3.9570   N 0  0  0  0  0  0  0  0  0  0  0  0
   34.6400    6.8730   -6.1510   O 0  0  0  0  0  0  0  0  0  0  0  0
   27.6870    2.8790   -2.2630   C 0  0  0  0  0  0  0  0  0  0  0  0
   34.9450    6.7200   -3.9340   N 0  0  0  0  0  0  0  0  0  0  0  0
   28.4300    3.5510   -1.2270   C 0  0  0  0  0  0  0  0  0  0  0  0
   25.6260    1.9080   -3.0620   C 0  0  0  0  0  0  0  0  0  0  0  0
   29.7770    4.0070   -1.1150   C 0  0  0  0  0  0  0  0  0  0  0  0
   29.9300    4.5960    0.1530   C 0  0  0  0  0  0  0  0  0  0  0  0
   28.4050    5.0160    2.1800   C 0  0  0  0  0  0  0  0  0  0  0  0
   31.0640    5.1560    0.6610   C 0  0  0  0  0  0  0  0  0  0  0  0
   31.3840    6.5210    0.3760   C 0  0  0  0  0  0  0  0  0  0  0  0
   32.5680    7.1010    0.9080   C 0  0  0  0  0  0  0  0  0  0  0  0
   33.4350    6.3230    1.7280   C 0  0  0  0  0  0  0  0  0  0  0  0
   33.1190    4.9640    2.0150   C 0  0  0  0  0  0  0  0  0  0  0  0
   31.9390    4.3810    1.4830   C 0  0  0  0  0  0  0  0  0  0  0  0
   30.7260    3.8840   -2.0750   C 0  0  0  0  0  0  0  0  0  0  0  0
   30.8210    4.7300   -3.1880   C 0  0  0  0  0  0  0  0  0  0  0  0
   32.3230    4.9810   -5.2180   C 0  0  0  0  0  0  0  0  0  0  0  0
   32.6520    6.4550   -4.9720   C 0  0  0  0  0  0  0  0  0  0  0  0
   34.1450    6.6910   -5.0700   C 0  0  0  0  0  0  0  0  0  0  0  0
   35.2070    5.5980   -3.1990   C 0  0  0  0  0  0  0  0  0  0  0  0
   34.6840    5.4850   -1.8800   C 0  0  0  0  0  0  0  0  0  0  0  0
   34.9450    4.3230   -1.1040   C 0  0  0  0  0  0  0  0  0  0  0  0
   35.7330    3.2630   -1.6420   C 0  0  0  0  0  0  0  0  0  0  0  0
   36.2620    3.3760   -2.9670   C 0  0  0  0  0  0  0  0  0  0  0  0
   36.0010    4.5370   -3.7410   C 0  0  0  0  0  0  0  0  0  0  0  0
   35.9730    2.1600   -0.9010   C 0  0  0  0  0  0  0  0  0  0  0  0
   36.9560    2.1840    0.1370   C 0  0  0  0  0  0  0  0  0  0  0  0
   37.1980    1.0140    0.9110   C 0  0  0  0  0  0  0  0  0  0  0  0
   36.4620   -0.1790    0.6530   C 0  0  0  0  0  0  0  0  0  0  0  0
   35.4840   -0.2040   -0.3770   C 0  0  0  0  0  0  0  0  0  0  0  0
   35.2360    0.9570   -1.1540   C 0  0  0  0  0  0  0  0  0  0  0  0
  1  2  1  0  0  0  0
  1  4  1  0  0  0  0
  1 15  2  0  0  0  0
  2 18  1  0  0  0  0
  2 19  1  0  0  0  0
  3  7  1  0  0  0  0
  4  7  2  0  0  0  0
  5  8  2  0  0  0  0
  5 26  1  0  0  0  0
  6 16  2  0  0  0  0
  7 10  1  0  0  0  0
  8 11  1  0  0  0  0
  9 16  1  0  0  0  0
 10 13  2  0  0  0  0
 10 16  1  0  0  0  0
 11 27  1  0  0  0  0
 11 28  1  0  0  0  0
 12 30  2  0  0  0  0
 13 15  1  0  0  0  0
 14 30  1  0  0  0  0
 14 31  1  0  0  0  0
 15 17  1  0  0  0  0
 17 18  2  0  0  0  0
 17 26  1  0  0  0  0
 18 20  1  0  0  0  0
 20 21  2  0  0  0  0
 20 25  1  0  0  0  0
 21 22  1  0  0  0  0
 22 23  2  0  0  0  0
 23 24  1  0  0  0  0
 24 25  2  0  0  0  0
 26 27  2  0  0  0  0
 28 29  1  0  0  0  0
 29 30  1  0  0  0  0
 31 32  2  0  0  0  0
 31 36  1  0  0  0  0
 32 33  1  0  0  0  0
 33 34  2  0  0  0  0
 34 35  1  0  0  0  0
 34 37  1  0  0  0  0
 35 36  2  0  0  0  0
 37 38  2  0  0  0  0
 37 42  1  0  0  0  0
 38 39  1  0  0  0  0
 39 40  2  0  0  0  0
 40 41  1  0  0  0  0
 41 42  2  0  0  0  0
A    1
C1
A    2
N1
A    3
O1
A    4
C2
A    5
N2
A    6
O2
A    7
C3
A    8
N3
A    9
O3
A   10
C4
A   11
N4
A   12
O4
A   13
C5
A   14
N5
A   15
C6
A   16
C7
A   17
C8
A   18
C9
A   19
C10
A   20
C11
A   21
C12
A   22
C13
A   23
C14
A   24
C15
A   25
C16
A   26
C17
A   27
C18
A   28
C19
A   29
C20
A   30
C21
A   31
C22
A   32
C23
A   33
C24
A   34
C25
A   35
C26
A   36
C27
A   37
C28
A   38
C29
A   39
C30
A   40
C31
A   41
C32
A   42
C33
M  END
>  <InstanceId>
3O5X_JZG_A_1

>  <ChemCompId>
JZG

>  <PdbId>
3O5X

>  <ChainId>
A

>  <ResidueNumber>
1

>  <InsertionCode>


>  <Model>
1

>  <AltIds>


>  <MissingHeavyAtoms>
0

>  <ObservedFormula>
C33 N5 O4

>  <Name>
3-{1-[3-(biphenyl-4-ylamino)-3-oxopropyl]-1H-1,2,3-triazol-4-yl}-6-hydroxy-1-methyl-2-phenyl-1H-indole-5-carboxylic acid

>  <SystematicName>
6-hydroxy-1-methyl-3-[1-[3-oxo-3-[(4-phenylphenyl)amino]propyl]-1,2,3-triazol-4-yl]-2-phenyl-indole-5-carboxylic acid

>  <Synonyms>


>  <Type>
NON-POLYMER

>  <Formula>
C33 H27 N5 O4

>  <MolecularWeight>
557.599

>  <ModifiedDate>
2011-06-04

>  <Parent>


>  <OneLetterCode>


>  <SubcomponentList>


>  <AmbiguousFlag>
N

>  <InChI>
InChI=1S/C33H27N5O4/c1-37-28-19-29(39)26(33(41)42)18-25(28)31(32(37)23-10-6-3-7-11-23)27-20-38(36-35-27)17-16-30(40)34-24-14-12-22(13-15-24)21-8-4-2-5-9-21/h2-15,18-20,39H,16-17H2,1H3,(H,34,40)(H,41,42)

>  <InChIKey>
RATFAFAWIWHLMR-UHFFFAOYSA-N

>  <SMILES>
Cn1c2cc(c(cc2c(c1c3ccccc3)c4cn(nn4)CCC(=O)Nc5ccc(cc5)c6ccccc6)C(=O)O)O

$$$$
