2IZL_IMI_B_300
  RCSB PDB12061705583D
Coordinates from PDB:2IZL:B:300 Model:1 without hydrogens
 16 17  0  0  0  0            999 V2000
   29.2980   14.3270   -9.8890   C 0  0  0  0  0  0  0  0  0  0  0  0
   28.0900   14.1070   -9.8120   O 0  0  0  0  0  0  0  0  0  0  0  0
   30.0100   13.9020  -10.7890   O 0  0  0  0  0  0  0  0  0  0  0  0
   29.9750   15.2140   -8.8110   C 0  0  0  0  0  0  0  0  0  0  0  0
   31.4330   14.8050   -8.4620   C 0  0  0  0  0  0  0  0  0  0  0  0
   31.4760   13.4260   -7.7710   C 0  0  0  0  0  0  0  0  0  0  0  0
   32.8560   13.2180   -7.1340   C 0  0  0  0  0  0  0  0  0  0  0  0
   32.8280   11.9210   -6.2780   C 0  0  0  0  0  0  0  0  0  0  0  0
   32.0850   12.0150   -4.6360   S 0  0  0  0  0  0  0  0  0  0  0  0
   32.8850   10.4480   -4.1980   C 0  0  0  0  0  0  0  0  0  0  0  0
   34.2070   10.2490   -4.9770   C 0  0  0  0  0  0  0  0  0  0  0  0
   35.3210   10.7870   -4.1460   N 0  0  0  0  0  0  0  0  0  0  0  0
   35.8070   11.8830   -4.6390   C 0  0  0  0  0  0  0  0  0  0  0  0
   36.7610   12.5430   -4.0600   N 0  0  0  0  0  0  0  0  0  0  0  0
   35.2340   12.2360   -5.7600   N 0  0  0  0  0  0  0  0  0  0  0  0
   34.2240   11.2500   -6.2010   C 0  0  0  0  0  0  0  0  0  0  0  0
  1  2  2  0  0  0  0
  1  3  1  0  0  0  0
  1  4  1  0  0  0  0
  4  5  1  0  0  0  0
  5  6  1  0  0  0  0
  6  7  1  0  0  0  0
  7  8  1  0  0  0  0
  8  9  1  0  0  0  0
  8 16  1  0  0  0  0
  9 10  1  0  0  0  0
 10 11  1  0  0  0  0
 11 12  1  0  0  0  0
 11 16  1  0  0  0  0
 12 13  1  0  0  0  0
 13 14  2  0  0  0  0
 13 15  1  0  0  0  0
 15 16  1  0  0  0  0
A    1
C11
A    2
O11
A    3
O12
A    4
C10
A    5
C9
A    6
C8
A    7
C7
A    8
C2
A    9
S1
A   10
C6
A   11
C5
A   12
N1
A   13
C3
A   14
N3
A   15
N2
A   16
C4
M  END
>  <InstanceId>
2IZL_IMI_B_300

>  <ChemCompId>
IMI

>  <PdbId>
2IZL

>  <ChainId>
B

>  <ResidueNumber>
300

>  <InsertionCode>


>  <Model>
1

>  <AltIds>


>  <MissingHeavyAtoms>
0

>  <ObservedFormula>
C10 N3 O2 S

>  <Name>
2-IMINOBIOTIN

>  <SystematicName>
5-[(3aS,4S,6aR)-2-imino-1,3,3a,4,6,6a-hexahydrothieno[3,4-d]imidazol-4-yl]pentanoic acid

>  <Synonyms>


>  <Type>
NON-POLYMER

>  <Formula>
C10 H17 N3 O2 S

>  <MolecularWeight>
243.326

>  <ModifiedDate>
2011-06-04

>  <Parent>


>  <OneLetterCode>


>  <SubcomponentList>


>  <AmbiguousFlag>
N

>  <InChI>
InChI=1S/C10H17N3O2S/c11-10-12-6-5-16-7(9(6)13-10)3-1-2-4-8(14)15/h6-7,9H,1-5H2,(H,14,15)(H3,11,12,13)/t6-,7-,9-/m0/s1

>  <InChIKey>
WWVANQJRLPIHNS-ZKWXMUAHSA-N

>  <SMILES>
C1[C@H]2[C@@H]([C@@H](S1)CCCCC(=O)O)NC(=N)N2

$$$$
