4I7M_2LP_A_202


 11 11  0  0  0  0  0  0  0  0999 V2000
    3.6516    8.5484    0.6557 C   0  0  0  0  0  0  0  0  0  0  0  0
    2.9228    8.8098    1.8009 C   0  0  0  0  0  0  0  0  0  0  0  0
    3.2254    7.4458   -0.0656 C   0  0  0  0  0  0  0  0  0  0  0  0
    1.8026    8.0369    2.1769 C   0  0  0  0  0  0  0  0  0  0  0  0
    3.3290    9.8723    2.5827 O   0  0  0  0  0  0  0  0  0  0  0  0
    2.0949    6.6699    0.2667 C   0  0  0  0  0  0  0  0  0  0  0  0
    1.3436    6.9356    1.3979 C   0  0  0  0  0  0  0  0  0  0  0  0
    4.0729   10.3827    2.3297 H   0  0  0  0  0  0  0  0  0  0  0  0
    4.8043    9.3560    0.2585 C   0  0  0  0  0  0  0  0  0  0  0  0
    5.0603    9.7795   -1.1544 C   0  0  0  0  0  0  0  0  0  0  0  0
    4.7979   11.2006   -1.5741 C   0  0  0  0  0  0  0  0  0  0  0  0
  1  2  2  0  0  0
  1  3  1  0  0  0
  1  9  1  0  0  0
  2  4  1  0  0  0
  2  5  1  0  0  0
  3  6  2  0  0  0
  9 10  1  0  0  0
  4  7  2  0  0  0
  6  7  1  0  0  0
 10 11  2  0  0  0
  5  8  1  0  0  0
M  END
> <minimizedAffinity>
-6.98645

$$$$
4I7M_2LP_A_202


 11 11  0  0  0  0  0  0  0  0999 V2000
    3.6173    8.3880    1.0274 C   0  0  0  0  0  0  0  0  0  0  0  0
    3.3659    7.1412    0.4858 C   0  0  0  0  0  0  0  0  0  0  0  0
    2.5683    8.9298    1.7510 C   0  0  0  0  0  0  0  0  0  0  0  0
    2.1489    6.4570    0.6963 C   0  0  0  0  0  0  0  0  0  0  0  0
    4.3610    6.5704   -0.2817 O   0  0  0  0  0  0  0  0  0  0  0  0
    1.3512    8.2623    2.0033 C   0  0  0  0  0  0  0  0  0  0  0  0
    1.0966    7.0043    1.4861 C   0  0  0  0  0  0  0  0  0  0  0  0
    5.1673    7.0277   -0.4189 H   0  0  0  0  0  0  0  0  0  0  0  0
    4.8823    9.0920    0.8206 C   0  0  0  0  0  0  0  0  0  0  0  0
    5.1530    9.9580   -0.3703 C   0  0  0  0  0  0  0  0  0  0  0  0
    6.5356   10.5032   -0.6065 C   0  0  0  0  0  0  0  0  0  0  0  0
  1  2  2  0  0  0
  1  3  1  0  0  0
  1  9  1  0  0  0
  2  4  1  0  0  0
  2  5  1  0  0  0
  3  6  2  0  0  0
  9 10  1  0  0  0
  4  7  2  0  0  0
  6  7  1  0  0  0
 10 11  2  0  0  0
  5  8  1  0  0  0
M  END
> <minimizedAffinity>
-6.82964

$$$$
4I7M_2LP_A_202


 11 11  0  0  0  0  0  0  0  0999 V2000
    4.1524    8.5729   -0.0641 C   0  0  0  0  0  0  0  0  0  0  0  0
    4.8496    9.5350    0.6426 C   0  0  0  0  0  0  0  0  0  0  0  0
    4.1976    8.7158   -1.4407 C   0  0  0  0  0  0  0  0  0  0  0  0
    5.5876   10.5553    0.0039 C   0  0  0  0  0  0  0  0  0  0  0  0
    4.8046    9.4673    2.0204 O   0  0  0  0  0  0  0  0  0  0  0  0
    4.9469    9.7059   -2.1106 C   0  0  0  0  0  0  0  0  0  0  0  0
    5.6676   10.6605   -1.4149 C   0  0  0  0  0  0  0  0  0  0  0  0
    4.3137    8.7886    2.4403 H   0  0  0  0  0  0  0  0  0  0  0  0
    3.3981    7.5081    0.5962 C   0  0  0  0  0  0  0  0  0  0  0  0
    1.9272    7.5901    0.8629 C   0  0  0  0  0  0  0  0  0  0  0  0
    1.4117    8.4528    1.9830 C   0  0  0  0  0  0  0  0  0  0  0  0
  1  2  2  0  0  0
  1  3  1  0  0  0
  1  9  1  0  0  0
  2  4  1  0  0  0
  2  5  1  0  0  0
  3  6  2  0  0  0
  9 10  1  0  0  0
  4  7  2  0  0  0
  6  7  1  0  0  0
 10 11  2  0  0  0
  5  8  1  0  0  0
M  END
> <minimizedAffinity>
-4.47366

$$$$
4I7M_2LP_A_202


 11 11  0  0  0  0  0  0  0  0999 V2000
    2.9344    8.9107    1.1977 C   0  0  0  0  0  0  0  0  0  0  0  0
    3.9524    9.6731    1.7393 C   0  0  0  0  0  0  0  0  0  0  0  0
    3.2020    8.3909   -0.0576 C   0  0  0  0  0  0  0  0  0  0  0  0
    5.1859    9.8653    1.0796 C   0  0  0  0  0  0  0  0  0  0  0  0
    3.7248   10.2522    2.9713 O   0  0  0  0  0  0  0  0  0  0  0  0
    4.4324    8.5406   -0.7317 C   0  0  0  0  0  0  0  0  0  0  0  0
    5.4674    9.2820   -0.1897 C   0  0  0  0  0  0  0  0  0  0  0  0
    2.9049   10.1221    3.4058 H   0  0  0  0  0  0  0  0  0  0  0  0
    1.6612    8.7004    1.8858 C   0  0  0  0  0  0  0  0  0  0  0  0
    0.9337    7.3920    1.8813 C   0  0  0  0  0  0  0  0  0  0  0  0
    1.6791    6.1167    1.5937 C   0  0  0  0  0  0  0  0  0  0  0  0
  1  2  2  0  0  0
  1  3  1  0  0  0
  1  9  1  0  0  0
  2  4  1  0  0  0
  2  5  1  0  0  0
  3  6  2  0  0  0
  9 10  1  0  0  0
  4  7  2  0  0  0
  6  7  1  0  0  0
 10 11  2  0  0  0
  5  8  1  0  0  0
M  END
> <minimizedAffinity>
-4.41639

$$$$
