3ZPU_M8B_B_1202


 54 56  0  0  0  0  0  0  0  0999 V2000
   13.6480   23.3265    5.0183 C   0  0  0  0  0  0  0  0  0  0  0  0
   12.3421   24.0731    4.7185 C   0  0  0  0  0  0  0  0  0  0  0  0
   11.7019   23.4175    3.4027 C   0  0  0  0  0  0  0  0  0  0  0  0
   12.7096   25.4388    4.4979 O   0  0  0  0  0  0  0  0  0  0  0  0
   11.3726   24.1618    5.7866 C   0  0  0  0  0  0  0  0  0  0  0  0
   10.8290   23.1893    6.3205 O   0  0  0  0  0  0  0  0  0  0  0  0
   10.7721   25.3931    6.0783 N   0  0  0  0  0  0  0  0  0  0  0  0
    9.5653   25.5868    6.9579 C   0  0  0  0  0  0  0  0  0  0  0  0
    8.6649   26.4871    6.2160 C   0  0  0  0  0  0  0  0  0  0  0  0
    9.0359   27.5640    5.7351 O   0  0  0  0  0  0  0  0  0  0  0  0
    7.3243   26.2023    5.9584 N   0  0  0  0  0  0  0  0  0  0  0  0
    6.4068   27.0490    5.1500 C   0  0  0  0  0  0  0  0  0  0  0  0
    5.4137   26.1753    4.6108 C   0  0  0  0  0  0  0  0  0  0  0  0
    5.4680   25.5470    3.3617 C   0  0  0  0  0  0  0  0  0  0  0  0
    6.4859   25.6508    2.4007 C   0  0  0  0  0  0  0  0  0  0  0  0
    7.7903   25.0633    2.6661 C   0  0  0  0  0  0  0  0  0  0  0  0
    8.9610   25.7643    2.3051 C   0  0  0  0  0  0  0  0  0  0  0  0
   10.2681   25.2403    2.5138 C   0  0  0  0  0  0  0  0  0  0  0  0
   10.3747   23.9833    3.1428 C   0  0  0  0  0  0  0  0  0  0  0  0
    9.2038   23.2842    3.4907 C   0  0  0  0  0  0  0  0  0  0  0  0
    7.9464   23.8002    3.2618 C   0  0  0  0  0  0  0  0  0  0  0  0
   13.0926   25.8058    5.3100 H   0  0  0  0  0  0  0  0  0  0  0  0
   11.1716   26.1976    5.6753 H   0  0  0  0  0  0  0  0  0  0  0  0
    6.9555   25.3743    6.3425 H   0  0  0  0  0  0  0  0  0  0  0  0
    9.9004   26.0870    8.3403 C   0  0  0  0  0  0  0  0  0  0  0  0
    9.2599   27.4753    8.6264 C   0  0  0  0  0  0  0  0  0  0  0  0
    9.2530   25.0779    9.3783 C   0  0  0  0  0  0  0  0  0  0  0  0
   11.3825   26.1534    8.5359 C   0  0  0  0  0  0  0  0  0  0  0  0
   14.0280   23.5826    6.5055 C   0  0  0  0  0  0  0  0  0  0  0  0
   15.4957   23.2811    6.8467 C   0  0  0  0  0  0  0  0  0  0  0  0
   15.7408   21.8751    7.0775 N   0  0  0  0  0  0  0  0  0  0  0  0
   15.4782   20.3031    5.3991 C   0  0  0  0  0  0  0  0  0  0  0  0
   14.3664   19.9355    5.8039 O   0  0  0  0  0  0  0  0  0  0  0  0
   16.1904   21.3045    5.9803 N   0  0  0  0  0  0  0  0  0  0  0  0
   17.0400   21.6020    5.5816 H   0  0  0  0  0  0  0  0  0  0  0  0
   16.2550   19.5773    4.2483 C   0  0  0  0  0  0  0  0  0  0  0  0
   18.2213   18.5483    5.3898 C   0  0  0  0  0  0  0  0  0  0  0  0
   18.9156   19.5728    5.1843 O   0  0  0  0  0  0  0  0  0  0  0  0
   17.0072   18.4706    4.8906 N   0  0  0  0  0  0  0  0  0  0  0  0
   16.5555   17.5978    4.9482 H   0  0  0  0  0  0  0  0  0  0  0  0
   18.3186   16.2170    5.4488 C   0  0  0  0  0  0  0  0  0  0  0  0
   18.6939   17.4564    6.0799 O   0  0  0  0  0  0  0  0  0  0  0  0
   15.4435   19.0575    3.0547 C   0  0  0  0  0  0  0  0  0  0  0  0
   16.4797   18.7569    2.0109 C   0  0  0  0  0  0  0  0  0  0  0  0
   14.5917   17.7729    3.3931 C   0  0  0  0  0  0  0  0  0  0  0  0
   14.5217   20.1962    2.4674 C   0  0  0  0  0  0  0  0  0  0  0  0
   16.7616   21.7637    8.1498 C   0  0  0  0  0  0  0  0  0  0  0  0
   16.7732   20.5032    8.8090 C   0  0  0  0  0  0  0  0  0  0  0  0
   15.5930   19.9754    9.3542 C   0  0  0  0  0  0  0  0  0  0  0  0
   15.6582   18.6979    9.9562 C   0  0  0  0  0  0  0  0  0  0  0  0
   16.8290   17.9992   10.0672 C   0  0  0  0  0  0  0  0  0  0  0  0
   16.8048   16.1923   11.0420 Br  0  0  0  0  0  0  0  0  0  0  0  0
   17.9883   18.5495    9.5442 C   0  0  0  0  0  0  0  0  0  0  0  0
   17.9438   19.7781    8.8690 C   0  0  0  0  0  0  0  0  0  0  0  0
 41 42  1  0  0  0
 42 37  1  0  0  0
 37 38  2  0  0  0
 37 39  1  0  0  0
 39 36  1  0  0  0
 36 43  1  0  0  0
 36 32  1  0  0  0
 43 44  1  0  0  0
 43 45  1  0  0  0
 43 46  1  0  0  0
 32 33  2  0  0  0
 32 34  1  0  0  0
 34 31  1  0  0  0
 31 47  1  0  0  0
 31 30  1  0  0  0
 47 48  1  0  0  0
 48 49  1  0  0  0
 48 54  2  0  0  0
 49 50  2  0  0  0
 50 51  1  0  0  0
 51 52  1  0  0  0
 51 53  2  0  0  0
 53 54  1  0  0  0
 30 29  1  0  0  0
 29  1  1  0  0  0
  1  2  1  0  0  0
  2  4  1  0  0  0
  2  5  1  0  0  0
  2  3  1  0  0  0
  3 19  1  0  0  0
  5  6  2  0  0  0
  5  7  1  0  0  0
  7  8  1  0  0  0
  8 25  1  0  0  0
  8  9  1  0  0  0
 25 26  1  0  0  0
 25 27  1  0  0  0
 25 28  1  0  0  0
  9 10  2  0  0  0
  9 11  1  0  0  0
 11 12  1  0  0  0
 12 13  1  0  0  0
 13 14  2  0  0  0
 14 15  1  0  0  0
 15 16  1  0  0  0
 16 17  1  0  0  0
 16 21  2  0  0  0
 17 18  2  0  0  0
 18 19  1  0  0  0
 19 20  2  0  0  0
 20 21  1  0  0  0
 39 40  1  0  0  0
 34 35  1  0  0  0
  4 22  1  0  0  0
  7 23  1  0  0  0
 11 24  1  0  0  0
M  END
> <minimizedAffinity>
-12.09107

$$$$
3ZPU_M8B_B_1202


 54 56  0  0  0  0  0  0  0  0999 V2000
   13.4243   23.7800    6.4844 C   0  0  0  0  0  0  0  0  0  0  0  0
   14.6342   22.8514    6.6468 C   0  0  0  0  0  0  0  0  0  0  0  0
   14.9786   22.7759    8.2110 C   0  0  0  0  0  0  0  0  0  0  0  0
   15.6984   23.4558    5.9045 O   0  0  0  0  0  0  0  0  0  0  0  0
   14.5359   21.5318    6.0659 C   0  0  0  0  0  0  0  0  0  0  0  0
   13.6969   20.6851    6.3907 O   0  0  0  0  0  0  0  0  0  0  0  0
   15.5926   21.0332    5.2934 N   0  0  0  0  0  0  0  0  0  0  0  0
   15.7547   19.5998    4.8613 C   0  0  0  0  0  0  0  0  0  0  0  0
   17.1557   19.2464    5.1510 C   0  0  0  0  0  0  0  0  0  0  0  0
   18.1143   19.9302    4.7743 O   0  0  0  0  0  0  0  0  0  0  0  0
   17.5349   18.1318    5.8984 N   0  0  0  0  0  0  0  0  0  0  0  0
   18.9315   17.7854    6.2748 C   0  0  0  0  0  0  0  0  0  0  0  0
   18.8526   17.0255    7.4817 C   0  0  0  0  0  0  0  0  0  0  0  0
   18.9369   17.5408    8.7799 C   0  0  0  0  0  0  0  0  0  0  0  0
   19.1194   18.8817    9.1528 C   0  0  0  0  0  0  0  0  0  0  0  0
   18.0536   19.8452    8.9232 C   0  0  0  0  0  0  0  0  0  0  0  0
   18.3670   21.1365    8.4472 C   0  0  0  0  0  0  0  0  0  0  0  0
   17.3783   22.1358    8.2224 C   0  0  0  0  0  0  0  0  0  0  0  0
   16.0326   21.7868    8.4558 C   0  0  0  0  0  0  0  0  0  0  0  0
   15.7272   20.5013    8.9406 C   0  0  0  0  0  0  0  0  0  0  0  0
   16.7014   19.5541    9.1712 C   0  0  0  0  0  0  0  0  0  0  0  0
   15.4602   23.4867    4.9647 H   0  0  0  0  0  0  0  0  0  0  0  0
   16.2860   21.6719    5.0099 H   0  0  0  0  0  0  0  0  0  0  0  0
   16.8209   17.5255    6.2012 H   0  0  0  0  0  0  0  0  0  0  0  0
   15.3636   19.3545    3.4259 C   0  0  0  0  0  0  0  0  0  0  0  0
   16.5956   19.0177    2.5380 C   0  0  0  0  0  0  0  0  0  0  0  0
   14.4351   18.0692    3.4015 C   0  0  0  0  0  0  0  0  0  0  0  0
   14.6324   20.5340    2.8661 C   0  0  0  0  0  0  0  0  0  0  0  0
   12.9157   23.6694    5.0177 C   0  0  0  0  0  0  0  0  0  0  0  0
   12.2408   24.9419    4.4821 C   0  0  0  0  0  0  0  0  0  0  0  0
   10.8072   24.9380    4.6691 N   0  0  0  0  0  0  0  0  0  0  0  0
    9.9060   25.1352    6.7917 C   0  0  0  0  0  0  0  0  0  0  0  0
    9.7388   23.9146    6.9238 O   0  0  0  0  0  0  0  0  0  0  0  0
   10.4789   25.6955    5.6937 N   0  0  0  0  0  0  0  0  0  0  0  0
   10.6477   26.6650    5.6652 H   0  0  0  0  0  0  0  0  0  0  0  0
    9.3653   26.1907    7.8155 C   0  0  0  0  0  0  0  0  0  0  0  0
    6.9588   26.8079    7.5780 C   0  0  0  0  0  0  0  0  0  0  0  0
    7.2587   27.9932    7.2975 O   0  0  0  0  0  0  0  0  0  0  0  0
    7.9029   25.9574    7.9168 N   0  0  0  0  0  0  0  0  0  0  0  0
    7.6130   25.0855    8.2703 H   0  0  0  0  0  0  0  0  0  0  0  0
    4.8144   27.0987    6.7032 C   0  0  0  0  0  0  0  0  0  0  0  0
    5.6601   26.3555    7.6020 O   0  0  0  0  0  0  0  0  0  0  0  0
   10.0043   26.2276    9.2096 C   0  0  0  0  0  0  0  0  0  0  0  0
    9.8126   27.6460    9.6625 C   0  0  0  0  0  0  0  0  0  0  0  0
    9.3437   25.2154   10.2242 C   0  0  0  0  0  0  0  0  0  0  0  0
   11.5611   25.9849    9.1173 C   0  0  0  0  0  0  0  0  0  0  0  0
   10.1882   25.4789    3.4326 C   0  0  0  0  0  0  0  0  0  0  0  0
    8.7727   25.3452    3.3880 C   0  0  0  0  0  0  0  0  0  0  0  0
    8.1835   24.0882    3.1843 C   0  0  0  0  0  0  0  0  0  0  0  0
    6.7718   24.0118    3.1959 C   0  0  0  0  0  0  0  0  0  0  0  0
    5.9795   25.1169    3.3442 C   0  0  0  0  0  0  0  0  0  0  0  0
    3.9416   24.8823    3.2554 Br  0  0  0  0  0  0  0  0  0  0  0  0
    6.5815   26.3528    3.5192 C   0  0  0  0  0  0  0  0  0  0  0  0
    7.9785   26.4528    3.5936 C   0  0  0  0  0  0  0  0  0  0  0  0
 41 42  1  0  0  0
 42 37  1  0  0  0
 37 38  2  0  0  0
 37 39  1  0  0  0
 39 36  1  0  0  0
 36 43  1  0  0  0
 36 32  1  0  0  0
 43 44  1  0  0  0
 43 45  1  0  0  0
 43 46  1  0  0  0
 32 33  2  0  0  0
 32 34  1  0  0  0
 34 31  1  0  0  0
 31 47  1  0  0  0
 31 30  1  0  0  0
 47 48  1  0  0  0
 48 49  1  0  0  0
 48 54  2  0  0  0
 49 50  2  0  0  0
 50 51  1  0  0  0
 51 52  1  0  0  0
 51 53  2  0  0  0
 53 54  1  0  0  0
 30 29  1  0  0  0
 29  1  1  0  0  0
  1  2  1  0  0  0
  2  4  1  0  0  0
  2  5  1  0  0  0
  2  3  1  0  0  0
  3 19  1  0  0  0
  5  6  2  0  0  0
  5  7  1  0  0  0
  7  8  1  0  0  0
  8 25  1  0  0  0
  8  9  1  0  0  0
 25 26  1  0  0  0
 25 27  1  0  0  0
 25 28  1  0  0  0
  9 10  2  0  0  0
  9 11  1  0  0  0
 11 12  1  0  0  0
 12 13  1  0  0  0
 13 14  2  0  0  0
 14 15  1  0  0  0
 15 16  1  0  0  0
 16 17  1  0  0  0
 16 21  2  0  0  0
 17 18  2  0  0  0
 18 19  1  0  0  0
 19 20  2  0  0  0
 20 21  1  0  0  0
 39 40  1  0  0  0
 34 35  1  0  0  0
  4 22  1  0  0  0
  7 23  1  0  0  0
 11 24  1  0  0  0
M  END
> <minimizedAffinity>
-11.41485

$$$$
3ZPU_M8B_B_1202


 54 56  0  0  0  0  0  0  0  0999 V2000
   13.0638   22.9264    4.0856 C   0  0  0  0  0  0  0  0  0  0  0  0
   14.2346   22.3189    4.8686 C   0  0  0  0  0  0  0  0  0  0  0  0
   14.0342   22.7029    6.4124 C   0  0  0  0  0  0  0  0  0  0  0  0
   15.4203   22.9131    4.3304 O   0  0  0  0  0  0  0  0  0  0  0  0
   14.4732   20.9029    4.7058 C   0  0  0  0  0  0  0  0  0  0  0  0
   13.6641   20.0182    5.0042 O   0  0  0  0  0  0  0  0  0  0  0  0
   15.7738   20.4413    4.4669 N   0  0  0  0  0  0  0  0  0  0  0  0
   16.2171   19.0045    4.5503 C   0  0  0  0  0  0  0  0  0  0  0  0
   17.4651   19.0116    5.3338 C   0  0  0  0  0  0  0  0  0  0  0  0
   18.4202   19.7518    5.0723 O   0  0  0  0  0  0  0  0  0  0  0  0
   17.6795   18.2129    6.4567 N   0  0  0  0  0  0  0  0  0  0  0  0
   18.8932   18.2472    7.3155 C   0  0  0  0  0  0  0  0  0  0  0  0
   18.4873   17.8110    8.6137 C   0  0  0  0  0  0  0  0  0  0  0  0
   18.0741   18.6394    9.6630 C   0  0  0  0  0  0  0  0  0  0  0  0
   17.9826   20.0401    9.6556 C   0  0  0  0  0  0  0  0  0  0  0  0
   16.9659   20.6918    8.8440 C   0  0  0  0  0  0  0  0  0  0  0  0
   17.2896   21.8594    8.1201 C   0  0  0  0  0  0  0  0  0  0  0  0
   16.3398   22.5612    7.3250 C   0  0  0  0  0  0  0  0  0  0  0  0
   15.0374   22.0285    7.2419 C   0  0  0  0  0  0  0  0  0  0  0  0
   14.7175   20.8700    7.9745 C   0  0  0  0  0  0  0  0  0  0  0  0
   15.6466   20.2164    8.7549 C   0  0  0  0  0  0  0  0  0  0  0  0
   15.5129   22.6626    3.3979 H   0  0  0  0  0  0  0  0  0  0  0  0
   16.4538   21.1108    4.2248 H   0  0  0  0  0  0  0  0  0  0  0  0
   16.9703   17.5750    6.7005 H   0  0  0  0  0  0  0  0  0  0  0  0
   16.3626   18.3391    3.2051 C   0  0  0  0  0  0  0  0  0  0  0  0
   17.2196   17.0435    3.2880 C   0  0  0  0  0  0  0  0  0  0  0  0
   14.9154   17.8843    2.7432 C   0  0  0  0  0  0  0  0  0  0  0  0
   16.9533   19.2843    2.2066 C   0  0  0  0  0  0  0  0  0  0  0  0
   12.5837   24.2029    4.8351 C   0  0  0  0  0  0  0  0  0  0  0  0
   11.5269   25.0233    4.0790 C   0  0  0  0  0  0  0  0  0  0  0  0
   10.4222   25.4267    4.9200 N   0  0  0  0  0  0  0  0  0  0  0  0
    8.4216   26.2706    4.1188 C   0  0  0  0  0  0  0  0  0  0  0  0
    8.6865   27.4357    4.4467 O   0  0  0  0  0  0  0  0  0  0  0  0
    9.2798   25.2316    4.2968 N   0  0  0  0  0  0  0  0  0  0  0  0
    9.0475   24.3360    3.9605 H   0  0  0  0  0  0  0  0  0  0  0  0
    7.0195   25.8303    3.5757 C   0  0  0  0  0  0  0  0  0  0  0  0
    5.1111   26.9689    4.7115 C   0  0  0  0  0  0  0  0  0  0  0  0
    4.7659   25.9000    5.2702 O   0  0  0  0  0  0  0  0  0  0  0  0
    6.0981   26.9630    3.8424 N   0  0  0  0  0  0  0  0  0  0  0  0
    6.2388   27.7858    3.3206 H   0  0  0  0  0  0  0  0  0  0  0  0
    3.4390   28.0463    5.9327 C   0  0  0  0  0  0  0  0  0  0  0  0
    4.4620   28.1626    4.9251 O   0  0  0  0  0  0  0  0  0  0  0  0
    6.9263   25.3920    2.1085 C   0  0  0  0  0  0  0  0  0  0  0  0
    7.6865   26.4494    1.3618 C   0  0  0  0  0  0  0  0  0  0  0  0
    7.5397   23.9620    1.8459 C   0  0  0  0  0  0  0  0  0  0  0  0
    5.4338   25.4582    1.5994 C   0  0  0  0  0  0  0  0  0  0  0  0
   10.4647   24.5979    6.1511 C   0  0  0  0  0  0  0  0  0  0  0  0
   10.0083   25.2714    7.3180 C   0  0  0  0  0  0  0  0  0  0  0  0
    9.2517   24.5888    8.2825 C   0  0  0  0  0  0  0  0  0  0  0  0
    8.8662   25.2992    9.4424 C   0  0  0  0  0  0  0  0  0  0  0  0
    9.1594   26.6232    9.6219 C   0  0  0  0  0  0  0  0  0  0  0  0
    8.4660   27.5615   11.3115 Br  0  0  0  0  0  0  0  0  0  0  0  0
    9.8864   27.2854    8.6456 C   0  0  0  0  0  0  0  0  0  0  0  0
   10.3538   26.5902    7.5207 C   0  0  0  0  0  0  0  0  0  0  0  0
 41 42  1  0  0  0
 42 37  1  0  0  0
 37 38  2  0  0  0
 37 39  1  0  0  0
 39 36  1  0  0  0
 36 43  1  0  0  0
 36 32  1  0  0  0
 43 44  1  0  0  0
 43 45  1  0  0  0
 43 46  1  0  0  0
 32 33  2  0  0  0
 32 34  1  0  0  0
 34 31  1  0  0  0
 31 47  1  0  0  0
 31 30  1  0  0  0
 47 48  1  0  0  0
 48 49  1  0  0  0
 48 54  2  0  0  0
 49 50  2  0  0  0
 50 51  1  0  0  0
 51 52  1  0  0  0
 51 53  2  0  0  0
 53 54  1  0  0  0
 30 29  1  0  0  0
 29  1  1  0  0  0
  1  2  1  0  0  0
  2  4  1  0  0  0
  2  5  1  0  0  0
  2  3  1  0  0  0
  3 19  1  0  0  0
  5  6  2  0  0  0
  5  7  1  0  0  0
  7  8  1  0  0  0
  8 25  1  0  0  0
  8  9  1  0  0  0
 25 26  1  0  0  0
 25 27  1  0  0  0
 25 28  1  0  0  0
  9 10  2  0  0  0
  9 11  1  0  0  0
 11 12  1  0  0  0
 12 13  1  0  0  0
 13 14  2  0  0  0
 14 15  1  0  0  0
 15 16  1  0  0  0
 16 17  1  0  0  0
 16 21  2  0  0  0
 17 18  2  0  0  0
 18 19  1  0  0  0
 19 20  2  0  0  0
 20 21  1  0  0  0
 39 40  1  0  0  0
 34 35  1  0  0  0
  4 22  1  0  0  0
  7 23  1  0  0  0
 11 24  1  0  0  0
M  END
> <minimizedAffinity>
-10.95242

$$$$
3ZPU_M8B_B_1202


 54 56  0  0  0  0  0  0  0  0999 V2000
   12.7030   23.4347    3.7891 C   0  0  0  0  0  0  0  0  0  0  0  0
   11.3733   24.1979    3.7461 C   0  0  0  0  0  0  0  0  0  0  0  0
   10.4854   23.5559    2.5754 C   0  0  0  0  0  0  0  0  0  0  0  0
   11.7089   25.5602    3.4622 O   0  0  0  0  0  0  0  0  0  0  0  0
   10.6269   24.2932    4.9799 C   0  0  0  0  0  0  0  0  0  0  0  0
   10.1832   23.3248    5.6057 O   0  0  0  0  0  0  0  0  0  0  0  0
   10.1085   25.5302    5.3836 N   0  0  0  0  0  0  0  0  0  0  0  0
    9.0945   25.7341    6.4780 C   0  0  0  0  0  0  0  0  0  0  0  0
    8.0802   26.6483    5.9238 C   0  0  0  0  0  0  0  0  0  0  0  0
    8.3658   27.7229    5.3834 O   0  0  0  0  0  0  0  0  0  0  0  0
    6.7117   26.3805    5.9265 N   0  0  0  0  0  0  0  0  0  0  0  0
    5.6672   27.2416    5.3102 C   0  0  0  0  0  0  0  0  0  0  0  0
    4.5786   26.3821    4.9689 C   0  0  0  0  0  0  0  0  0  0  0  0
    4.3854   25.7589    3.7310 C   0  0  0  0  0  0  0  0  0  0  0  0
    5.2022   25.8550    2.5935 C   0  0  0  0  0  0  0  0  0  0  0  0
    6.5259   25.2509    2.6034 C   0  0  0  0  0  0  0  0  0  0  0  0
    7.6147   25.9398    2.0269 C   0  0  0  0  0  0  0  0  0  0  0  0
    8.9309   25.3994    1.9808 C   0  0  0  0  0  0  0  0  0  0  0  0
    9.1402   24.1385    2.5751 C   0  0  0  0  0  0  0  0  0  0  0  0
    8.0487   23.4516    3.1388 C   0  0  0  0  0  0  0  0  0  0  0  0
    6.7773   23.9835    3.1555 C   0  0  0  0  0  0  0  0  0  0  0  0
   12.2445   25.9190    4.1870 H   0  0  0  0  0  0  0  0  0  0  0  0
   10.4336   26.3318    4.9135 H   0  0  0  0  0  0  0  0  0  0  0  0
    6.4128   25.5551    6.3722 H   0  0  0  0  0  0  0  0  0  0  0  0
    9.6937   26.2240    7.7721 C   0  0  0  0  0  0  0  0  0  0  0  0
    9.3087   27.7020    8.0673 C   0  0  0  0  0  0  0  0  0  0  0  0
    9.0632   25.3596    8.9425 C   0  0  0  0  0  0  0  0  0  0  0  0
   11.1824   26.0724    7.7585 C   0  0  0  0  0  0  0  0  0  0  0  0
   12.7891   22.5296    2.5260 C   0  0  0  0  0  0  0  0  0  0  0  0
   13.1116   21.0564    2.8214 C   0  0  0  0  0  0  0  0  0  0  0  0
   14.5276   20.8133    2.9825 N   0  0  0  0  0  0  0  0  0  0  0  0
   15.5156   21.3861    4.9956 C   0  0  0  0  0  0  0  0  0  0  0  0
   15.8721   22.5038    4.5972 O   0  0  0  0  0  0  0  0  0  0  0  0
   14.7996   20.5161    4.2351 N   0  0  0  0  0  0  0  0  0  0  0  0
   14.4856   19.6663    4.6203 H   0  0  0  0  0  0  0  0  0  0  0  0
   15.9524   20.7881    6.3762 C   0  0  0  0  0  0  0  0  0  0  0  0
   18.2394   19.8066    6.5626 C   0  0  0  0  0  0  0  0  0  0  0  0
   17.7681   18.6956    6.9050 O   0  0  0  0  0  0  0  0  0  0  0  0
   17.4359   20.8343    6.3964 N   0  0  0  0  0  0  0  0  0  0  0  0
   17.8572   21.7156    6.2741 H   0  0  0  0  0  0  0  0  0  0  0  0
   20.1788   20.6331    7.5645 C   0  0  0  0  0  0  0  0  0  0  0  0
   19.5879   20.0239    6.4005 O   0  0  0  0  0  0  0  0  0  0  0  0
   15.3748   21.4252    7.6466 C   0  0  0  0  0  0  0  0  0  0  0  0
   14.0269   21.9315    7.2216 C   0  0  0  0  0  0  0  0  0  0  0  0
   15.2451   20.4106    8.8482 C   0  0  0  0  0  0  0  0  0  0  0  0
   16.2217   22.6867    8.0737 C   0  0  0  0  0  0  0  0  0  0  0  0
   14.8925   19.6690    2.1096 C   0  0  0  0  0  0  0  0  0  0  0  0
   15.7942   18.7474    2.7104 C   0  0  0  0  0  0  0  0  0  0  0  0
   15.3092   17.6325    3.4107 C   0  0  0  0  0  0  0  0  0  0  0  0
   16.2544   16.7277    3.9462 C   0  0  0  0  0  0  0  0  0  0  0  0
   17.6031   16.9338    3.8481 C   0  0  0  0  0  0  0  0  0  0  0  0
   18.8690   15.5890    4.7452 Br  0  0  0  0  0  0  0  0  0  0  0  0
   18.0611   18.0544    3.1738 C   0  0  0  0  0  0  0  0  0  0  0  0
   17.1522   18.9295    2.5610 C   0  0  0  0  0  0  0  0  0  0  0  0
 41 42  1  0  0  0
 42 37  1  0  0  0
 37 38  2  0  0  0
 37 39  1  0  0  0
 39 36  1  0  0  0
 36 43  1  0  0  0
 36 32  1  0  0  0
 43 44  1  0  0  0
 43 45  1  0  0  0
 43 46  1  0  0  0
 32 33  2  0  0  0
 32 34  1  0  0  0
 34 31  1  0  0  0
 31 47  1  0  0  0
 31 30  1  0  0  0
 47 48  1  0  0  0
 48 49  1  0  0  0
 48 54  2  0  0  0
 49 50  2  0  0  0
 50 51  1  0  0  0
 51 52  1  0  0  0
 51 53  2  0  0  0
 53 54  1  0  0  0
 30 29  1  0  0  0
 29  1  1  0  0  0
  1  2  1  0  0  0
  2  4  1  0  0  0
  2  5  1  0  0  0
  2  3  1  0  0  0
  3 19  1  0  0  0
  5  6  2  0  0  0
  5  7  1  0  0  0
  7  8  1  0  0  0
  8 25  1  0  0  0
  8  9  1  0  0  0
 25 26  1  0  0  0
 25 27  1  0  0  0
 25 28  1  0  0  0
  9 10  2  0  0  0
  9 11  1  0  0  0
 11 12  1  0  0  0
 12 13  1  0  0  0
 13 14  2  0  0  0
 14 15  1  0  0  0
 15 16  1  0  0  0
 16 17  1  0  0  0
 16 21  2  0  0  0
 17 18  2  0  0  0
 18 19  1  0  0  0
 19 20  2  0  0  0
 20 21  1  0  0  0
 39 40  1  0  0  0
 34 35  1  0  0  0
  4 22  1  0  0  0
  7 23  1  0  0  0
 11 24  1  0  0  0
M  END
> <minimizedAffinity>
-10.90178

$$$$
3ZPU_M8B_B_1202


 54 56  0  0  0  0  0  0  0  0999 V2000
   12.4004   22.2479    3.3089 C   0  0  0  0  0  0  0  0  0  0  0  0
   13.4030   21.1926    3.7924 C   0  0  0  0  0  0  0  0  0  0  0  0
   13.8145   20.3007    2.5250 C   0  0  0  0  0  0  0  0  0  0  0  0
   12.7145   20.4162    4.7783 O   0  0  0  0  0  0  0  0  0  0  0  0
   14.5690   21.6667    4.5024 C   0  0  0  0  0  0  0  0  0  0  0  0
   15.4205   22.4229    4.0233 O   0  0  0  0  0  0  0  0  0  0  0  0
   14.9523   21.0476    5.6990 N   0  0  0  0  0  0  0  0  0  0  0  0
   16.2732   21.2411    6.3955 C   0  0  0  0  0  0  0  0  0  0  0  0
   16.7493   19.8901    6.7415 C   0  0  0  0  0  0  0  0  0  0  0  0
   16.0526   19.0639    7.3420 O   0  0  0  0  0  0  0  0  0  0  0  0
   18.0110   19.4027    6.4022 N   0  0  0  0  0  0  0  0  0  0  0  0
   18.4978   18.0224    6.6669 C   0  0  0  0  0  0  0  0  0  0  0  0
   19.4836   17.7395    5.6727 C   0  0  0  0  0  0  0  0  0  0  0  0
   19.2499   17.1114    4.4443 C   0  0  0  0  0  0  0  0  0  0  0  0
   18.0247   16.6351    3.9519 C   0  0  0  0  0  0  0  0  0  0  0  0
   16.9816   17.5787    3.5796 C   0  0  0  0  0  0  0  0  0  0  0  0
   15.6379   17.3059    3.9146 C   0  0  0  0  0  0  0  0  0  0  0  0
   14.5647   18.1723    3.5622 C   0  0  0  0  0  0  0  0  0  0  0  0
   14.8850   19.3654    2.8833 C   0  0  0  0  0  0  0  0  0  0  0  0
   16.2253   19.6270    2.5424 C   0  0  0  0  0  0  0  0  0  0  0  0
   17.2480   18.7651    2.8752 C   0  0  0  0  0  0  0  0  0  0  0  0
   12.4799   20.9826    5.5299 H   0  0  0  0  0  0  0  0  0  0  0  0
   14.3051   20.4359    6.1189 H   0  0  0  0  0  0  0  0  0  0  0  0
   18.6293   20.0220    5.9513 H   0  0  0  0  0  0  0  0  0  0  0  0
   16.1993   22.1682    7.5823 C   0  0  0  0  0  0  0  0  0  0  0  0
   15.9592   23.6437    7.1524 C   0  0  0  0  0  0  0  0  0  0  0  0
   14.9323   21.7435    8.4362 C   0  0  0  0  0  0  0  0  0  0  0  0
   17.4411   22.0689    8.4114 C   0  0  0  0  0  0  0  0  0  0  0  0
   11.4316   22.5763    4.4816 C   0  0  0  0  0  0  0  0  0  0  0  0
   11.3734   24.0648    4.8592 C   0  0  0  0  0  0  0  0  0  0  0  0
   10.0383   24.6131    4.7762 N   0  0  0  0  0  0  0  0  0  0  0  0
    9.5383   25.0409    6.9952 C   0  0  0  0  0  0  0  0  0  0  0  0
    9.5111   23.8419    7.3061 O   0  0  0  0  0  0  0  0  0  0  0  0
    9.8408   25.4812    5.7452 N   0  0  0  0  0  0  0  0  0  0  0  0
    9.9119   26.4465    5.5654 H   0  0  0  0  0  0  0  0  0  0  0  0
    9.1057   26.1894    7.9690 C   0  0  0  0  0  0  0  0  0  0  0  0
    6.7193   26.8660    7.6932 C   0  0  0  0  0  0  0  0  0  0  0  0
    7.0568   27.9672    7.1961 O   0  0  0  0  0  0  0  0  0  0  0  0
    7.6396   26.0464    8.1521 N   0  0  0  0  0  0  0  0  0  0  0  0
    7.3274   25.2658    8.6644 H   0  0  0  0  0  0  0  0  0  0  0  0
    4.5304   27.2420    6.9752 C   0  0  0  0  0  0  0  0  0  0  0  0
    5.4049   26.4862    7.8349 O   0  0  0  0  0  0  0  0  0  0  0  0
    9.8133   26.2804    9.3270 C   0  0  0  0  0  0  0  0  0  0  0  0
    9.5454   27.6844    9.7859 C   0  0  0  0  0  0  0  0  0  0  0  0
    9.2812   25.2302   10.3778 C   0  0  0  0  0  0  0  0  0  0  0  0
   11.3764   26.1482    9.1525 C   0  0  0  0  0  0  0  0  0  0  0  0
    9.9100   25.2954    3.4638 C   0  0  0  0  0  0  0  0  0  0  0  0
    8.6233   25.1710    2.8703 C   0  0  0  0  0  0  0  0  0  0  0  0
    7.7748   24.1125    3.2283 C   0  0  0  0  0  0  0  0  0  0  0  0
    6.4906   24.0682    2.6386 C   0  0  0  0  0  0  0  0  0  0  0  0
    6.0806   24.9814    1.7064 C   0  0  0  0  0  0  0  0  0  0  0  0
    4.2232   24.7545    0.8613 Br  0  0  0  0  0  0  0  0  0  0  0  0
    6.9435   26.0048    1.3482 C   0  0  0  0  0  0  0  0  0  0  0  0
    8.1934   26.1249    1.9732 C   0  0  0  0  0  0  0  0  0  0  0  0
 41 42  1  0  0  0
 42 37  1  0  0  0
 37 38  2  0  0  0
 37 39  1  0  0  0
 39 36  1  0  0  0
 36 43  1  0  0  0
 36 32  1  0  0  0
 43 44  1  0  0  0
 43 45  1  0  0  0
 43 46  1  0  0  0
 32 33  2  0  0  0
 32 34  1  0  0  0
 34 31  1  0  0  0
 31 47  1  0  0  0
 31 30  1  0  0  0
 47 48  1  0  0  0
 48 49  1  0  0  0
 48 54  2  0  0  0
 49 50  2  0  0  0
 50 51  1  0  0  0
 51 52  1  0  0  0
 51 53  2  0  0  0
 53 54  1  0  0  0
 30 29  1  0  0  0
 29  1  1  0  0  0
  1  2  1  0  0  0
  2  4  1  0  0  0
  2  5  1  0  0  0
  2  3  1  0  0  0
  3 19  1  0  0  0
  5  6  2  0  0  0
  5  7  1  0  0  0
  7  8  1  0  0  0
  8 25  1  0  0  0
  8  9  1  0  0  0
 25 26  1  0  0  0
 25 27  1  0  0  0
 25 28  1  0  0  0
  9 10  2  0  0  0
  9 11  1  0  0  0
 11 12  1  0  0  0
 12 13  1  0  0  0
 13 14  2  0  0  0
 14 15  1  0  0  0
 15 16  1  0  0  0
 16 17  1  0  0  0
 16 21  2  0  0  0
 17 18  2  0  0  0
 18 19  1  0  0  0
 19 20  2  0  0  0
 20 21  1  0  0  0
 39 40  1  0  0  0
 34 35  1  0  0  0
  4 22  1  0  0  0
  7 23  1  0  0  0
 11 24  1  0  0  0
M  END
> <minimizedAffinity>
-10.77873

$$$$
3ZPU_M8B_B_1202


 54 56  0  0  0  0  0  0  0  0999 V2000
   13.6639   23.4059    4.8403 C   0  0  0  0  0  0  0  0  0  0  0  0
   12.3451   24.1558    4.6142 C   0  0  0  0  0  0  0  0  0  0  0  0
   11.6569   23.5385    3.3041 C   0  0  0  0  0  0  0  0  0  0  0  0
   12.6997   25.5292    4.4223 O   0  0  0  0  0  0  0  0  0  0  0  0
   11.4172   24.2071    5.7209 C   0  0  0  0  0  0  0  0  0  0  0  0
   10.8975   23.2161    6.2447 O   0  0  0  0  0  0  0  0  0  0  0  0
   10.8244   25.4261    6.0736 N   0  0  0  0  0  0  0  0  0  0  0  0
    9.6518   25.5873    7.0044 C   0  0  0  0  0  0  0  0  0  0  0  0
    8.7207   26.5062    6.3259 C   0  0  0  0  0  0  0  0  0  0  0  0
    9.0696   27.5991    5.8651 O   0  0  0  0  0  0  0  0  0  0  0  0
    7.3721   26.2238    6.1112 N   0  0  0  0  0  0  0  0  0  0  0  0
    6.4216   27.0911    5.3653 C   0  0  0  0  0  0  0  0  0  0  0  0
    5.4112   26.2303    4.8376 C   0  0  0  0  0  0  0  0  0  0  0  0
    5.4194   25.6413    3.5684 C   0  0  0  0  0  0  0  0  0  0  0  0
    6.3993   25.7793    2.5728 C   0  0  0  0  0  0  0  0  0  0  0  0
    7.7148   25.1894    2.7695 C   0  0  0  0  0  0  0  0  0  0  0  0
    8.8685   25.9064    2.3860 C   0  0  0  0  0  0  0  0  0  0  0  0
   10.1843   25.3818    2.5280 C   0  0  0  0  0  0  0  0  0  0  0  0
   10.3189   24.1064    3.1130 C   0  0  0  0  0  0  0  0  0  0  0  0
    9.1645   23.3918    3.4836 C   0  0  0  0  0  0  0  0  0  0  0  0
    7.8976   23.9092    3.3192 C   0  0  0  0  0  0  0  0  0  0  0  0
   13.1124   25.8725    5.2302 H   0  0  0  0  0  0  0  0  0  0  0  0
   11.2056   26.2445    5.6809 H   0  0  0  0  0  0  0  0  0  0  0  0
    7.0210   25.3826    6.4831 H   0  0  0  0  0  0  0  0  0  0  0  0
   10.0382   26.0457    8.3879 C   0  0  0  0  0  0  0  0  0  0  0  0
   11.5751   25.9714    8.6160 C   0  0  0  0  0  0  0  0  0  0  0  0
    9.6463   27.5779    8.5051 C   0  0  0  0  0  0  0  0  0  0  0  0
    9.3233   25.2456    9.4310 C   0  0  0  0  0  0  0  0  0  0  0  0
   13.9553   23.3777    6.3687 C   0  0  0  0  0  0  0  0  0  0  0  0
   13.8601   21.9833    7.0075 C   0  0  0  0  0  0  0  0  0  0  0  0
   14.6035   20.9801    6.2787 N   0  0  0  0  0  0  0  0  0  0  0  0
   16.3301   20.6127    7.7756 C   0  0  0  0  0  0  0  0  0  0  0  0
   16.7555   21.7737    7.6971 O   0  0  0  0  0  0  0  0  0  0  0  0
   15.2253   20.1764    7.1147 N   0  0  0  0  0  0  0  0  0  0  0  0
   14.8914   19.2619    7.2610 H   0  0  0  0  0  0  0  0  0  0  0  0
   17.0825   19.4737    8.5444 C   0  0  0  0  0  0  0  0  0  0  0  0
   19.3106   19.2763    7.4374 C   0  0  0  0  0  0  0  0  0  0  0  0
   18.8875   18.3718    6.6780 O   0  0  0  0  0  0  0  0  0  0  0  0
   18.5314   19.7531    8.3835 N   0  0  0  0  0  0  0  0  0  0  0  0
   18.9476   20.3505    9.0462 H   0  0  0  0  0  0  0  0  0  0  0  0
   20.6264   21.2038    7.4825 C   0  0  0  0  0  0  0  0  0  0  0  0
   20.5930   19.7684    7.3648 O   0  0  0  0  0  0  0  0  0  0  0  0
   16.7349   19.2582   10.0229 C   0  0  0  0  0  0  0  0  0  0  0  0
   16.0071   17.9453   10.0400 C   0  0  0  0  0  0  0  0  0  0  0  0
   18.0034   19.2143   10.9607 C   0  0  0  0  0  0  0  0  0  0  0  0
   15.7129   20.3525   10.5219 C   0  0  0  0  0  0  0  0  0  0  0  0
   13.6354   20.2004    5.4667 C   0  0  0  0  0  0  0  0  0  0  0  0
   14.2146   19.5520    4.3408 C   0  0  0  0  0  0  0  0  0  0  0  0
   14.6253   18.2130    4.4252 C   0  0  0  0  0  0  0  0  0  0  0  0
   15.1510   17.6097    3.2597 C   0  0  0  0  0  0  0  0  0  0  0  0
   15.3166   18.2981    2.0893 C   0  0  0  0  0  0  0  0  0  0  0  0
   16.1731   17.3298    0.4941 Br  0  0  0  0  0  0  0  0  0  0  0  0
   14.9276   19.6270    2.0344 C   0  0  0  0  0  0  0  0  0  0  0  0
   14.3279   20.2331    3.1480 C   0  0  0  0  0  0  0  0  0  0  0  0
 41 42  1  0  0  0
 42 37  1  0  0  0
 37 38  2  0  0  0
 37 39  1  0  0  0
 39 36  1  0  0  0
 36 43  1  0  0  0
 36 32  1  0  0  0
 43 44  1  0  0  0
 43 45  1  0  0  0
 43 46  1  0  0  0
 32 33  2  0  0  0
 32 34  1  0  0  0
 34 31  1  0  0  0
 31 47  1  0  0  0
 31 30  1  0  0  0
 47 48  1  0  0  0
 48 49  1  0  0  0
 48 54  2  0  0  0
 49 50  2  0  0  0
 50 51  1  0  0  0
 51 52  1  0  0  0
 51 53  2  0  0  0
 53 54  1  0  0  0
 30 29  1  0  0  0
 29  1  1  0  0  0
  1  2  1  0  0  0
  2  4  1  0  0  0
  2  5  1  0  0  0
  2  3  1  0  0  0
  3 19  1  0  0  0
  5  6  2  0  0  0
  5  7  1  0  0  0
  7  8  1  0  0  0
  8 25  1  0  0  0
  8  9  1  0  0  0
 25 26  1  0  0  0
 25 27  1  0  0  0
 25 28  1  0  0  0
  9 10  2  0  0  0
  9 11  1  0  0  0
 11 12  1  0  0  0
 12 13  1  0  0  0
 13 14  2  0  0  0
 14 15  1  0  0  0
 15 16  1  0  0  0
 16 17  1  0  0  0
 16 21  2  0  0  0
 17 18  2  0  0  0
 18 19  1  0  0  0
 19 20  2  0  0  0
 20 21  1  0  0  0
 39 40  1  0  0  0
 34 35  1  0  0  0
  4 22  1  0  0  0
  7 23  1  0  0  0
 11 24  1  0  0  0
M  END
> <minimizedAffinity>
-10.59491

$$$$
3ZPU_M8B_B_1202


 54 56  0  0  0  0  0  0  0  0999 V2000
   13.4002   23.7204    5.2943 C   0  0  0  0  0  0  0  0  0  0  0  0
   14.5678   22.8640    5.8003 C   0  0  0  0  0  0  0  0  0  0  0  0
   14.6104   23.0006    7.3973 C   0  0  0  0  0  0  0  0  0  0  0  0
   15.7465   23.4068    5.1962 O   0  0  0  0  0  0  0  0  0  0  0  0
   14.5961   21.4786    5.3902 C   0  0  0  0  0  0  0  0  0  0  0  0
   13.7203   20.6506    5.6617 O   0  0  0  0  0  0  0  0  0  0  0  0
   15.7855   20.9238    4.9009 N   0  0  0  0  0  0  0  0  0  0  0  0
   16.0425   19.4539    4.6992 C   0  0  0  0  0  0  0  0  0  0  0  0
   17.3671   19.1907    5.2889 C   0  0  0  0  0  0  0  0  0  0  0  0
   18.3720   19.8549    5.0107 O   0  0  0  0  0  0  0  0  0  0  0  0
   17.6104   18.1947    6.2342 N   0  0  0  0  0  0  0  0  0  0  0  0
   18.9141   17.9493    6.9066 C   0  0  0  0  0  0  0  0  0  0  0  0
   18.6165   17.3468    8.1670 C   0  0  0  0  0  0  0  0  0  0  0  0
   18.4476   18.0259    9.3788 C   0  0  0  0  0  0  0  0  0  0  0  0
   18.5412   19.4090    9.5991 C   0  0  0  0  0  0  0  0  0  0  0  0
   17.5274   20.2966    9.0500 C   0  0  0  0  0  0  0  0  0  0  0  0
   17.9108   21.5272    8.4748 C   0  0  0  0  0  0  0  0  0  0  0  0
   16.9715   22.4536    7.9400 C   0  0  0  0  0  0  0  0  0  0  0  0
   15.6100   22.0892    7.9624 C   0  0  0  0  0  0  0  0  0  0  0  0
   15.2326   20.8658    8.5469 C   0  0  0  0  0  0  0  0  0  0  0  0
   16.1561   19.9912    9.0778 C   0  0  0  0  0  0  0  0  0  0  0  0
   15.6903   23.3092    4.2328 H   0  0  0  0  0  0  0  0  0  0  0  0
   16.5129   21.5458    4.6699 H   0  0  0  0  0  0  0  0  0  0  0  0
   16.8587   17.6066    6.4758 H   0  0  0  0  0  0  0  0  0  0  0  0
   15.9333   19.0140    3.2611 C   0  0  0  0  0  0  0  0  0  0  0  0
   17.3286   18.7426    2.6295 C   0  0  0  0  0  0  0  0  0  0  0  0
   15.1635   17.6277    3.2476 C   0  0  0  0  0  0  0  0  0  0  0  0
   15.1897   20.0288    2.4508 C   0  0  0  0  0  0  0  0  0  0  0  0
   12.5263   24.1276    6.5159 C   0  0  0  0  0  0  0  0  0  0  0  0
   11.9565   25.5529    6.4420 C   0  0  0  0  0  0  0  0  0  0  0  0
   10.5739   25.5833    6.0206 N   0  0  0  0  0  0  0  0  0  0  0  0
   10.1372   24.6883    3.9313 C   0  0  0  0  0  0  0  0  0  0  0  0
   10.3061   25.7657    3.3433 O   0  0  0  0  0  0  0  0  0  0  0  0
   10.3022   24.5359    5.2720 N   0  0  0  0  0  0  0  0  0  0  0  0
   10.2186   23.6445    5.6816 H   0  0  0  0  0  0  0  0  0  0  0  0
    9.5917   23.4014    3.2237 C   0  0  0  0  0  0  0  0  0  0  0  0
    7.4343   24.1035    2.1839 C   0  0  0  0  0  0  0  0  0  0  0  0
    6.7929   23.7499    3.2024 O   0  0  0  0  0  0  0  0  0  0  0  0
    8.7273   23.8744    2.1136 N   0  0  0  0  0  0  0  0  0  0  0  0
    9.1622   24.0311    1.2444 H   0  0  0  0  0  0  0  0  0  0  0  0
    7.1008   26.0961    1.0149 C   0  0  0  0  0  0  0  0  0  0  0  0
    6.8330   24.6826    1.0908 O   0  0  0  0  0  0  0  0  0  0  0  0
   10.6141   22.3777    2.7137 C   0  0  0  0  0  0  0  0  0  0  0  0
   10.9389   21.5509    3.9239 C   0  0  0  0  0  0  0  0  0  0  0  0
   10.0607   21.4751    1.5436 C   0  0  0  0  0  0  0  0  0  0  0  0
   11.9517   23.0933    2.2781 C   0  0  0  0  0  0  0  0  0  0  0  0
    9.7282   25.5551    7.2407 C   0  0  0  0  0  0  0  0  0  0  0  0
    8.4746   26.2105    7.0911 C   0  0  0  0  0  0  0  0  0  0  0  0
    8.1678   26.8957    5.9058 C   0  0  0  0  0  0  0  0  0  0  0  0
    6.8885   27.4879    5.7985 C   0  0  0  0  0  0  0  0  0  0  0  0
    5.9790   27.4573    6.8198 C   0  0  0  0  0  0  0  0  0  0  0  0
    4.1890   28.4313    6.5692 Br  0  0  0  0  0  0  0  0  0  0  0  0
    6.3114   26.7965    7.9916 C   0  0  0  0  0  0  0  0  0  0  0  0
    7.5403   26.1293    8.1011 C   0  0  0  0  0  0  0  0  0  0  0  0
 41 42  1  0  0  0
 42 37  1  0  0  0
 37 38  2  0  0  0
 37 39  1  0  0  0
 39 36  1  0  0  0
 36 43  1  0  0  0
 36 32  1  0  0  0
 43 44  1  0  0  0
 43 45  1  0  0  0
 43 46  1  0  0  0
 32 33  2  0  0  0
 32 34  1  0  0  0
 34 31  1  0  0  0
 31 47  1  0  0  0
 31 30  1  0  0  0
 47 48  1  0  0  0
 48 49  1  0  0  0
 48 54  2  0  0  0
 49 50  2  0  0  0
 50 51  1  0  0  0
 51 52  1  0  0  0
 51 53  2  0  0  0
 53 54  1  0  0  0
 30 29  1  0  0  0
 29  1  1  0  0  0
  1  2  1  0  0  0
  2  4  1  0  0  0
  2  5  1  0  0  0
  2  3  1  0  0  0
  3 19  1  0  0  0
  5  6  2  0  0  0
  5  7  1  0  0  0
  7  8  1  0  0  0
  8 25  1  0  0  0
  8  9  1  0  0  0
 25 26  1  0  0  0
 25 27  1  0  0  0
 25 28  1  0  0  0
  9 10  2  0  0  0
  9 11  1  0  0  0
 11 12  1  0  0  0
 12 13  1  0  0  0
 13 14  2  0  0  0
 14 15  1  0  0  0
 15 16  1  0  0  0
 16 17  1  0  0  0
 16 21  2  0  0  0
 17 18  2  0  0  0
 18 19  1  0  0  0
 19 20  2  0  0  0
 20 21  1  0  0  0
 39 40  1  0  0  0
 34 35  1  0  0  0
  4 22  1  0  0  0
  7 23  1  0  0  0
 11 24  1  0  0  0
M  END
> <minimizedAffinity>
-10.38667

$$$$
3ZPU_M8B_B_1202


 54 56  0  0  0  0  0  0  0  0999 V2000
   11.7822   22.5722    2.8155 C   0  0  0  0  0  0  0  0  0  0  0  0
   12.8021   21.6297    3.4669 C   0  0  0  0  0  0  0  0  0  0  0  0
   13.3503   20.6472    2.3244 C   0  0  0  0  0  0  0  0  0  0  0  0
   12.0867   20.9111    4.4771 O   0  0  0  0  0  0  0  0  0  0  0  0
   13.8872   22.2382    4.2021 C   0  0  0  0  0  0  0  0  0  0  0  0
   14.7296   22.9949    3.7078 O   0  0  0  0  0  0  0  0  0  0  0  0
   14.2158   21.7601    5.4770 N   0  0  0  0  0  0  0  0  0  0  0  0
   15.4712   22.0978    6.2369 C   0  0  0  0  0  0  0  0  0  0  0  0
   15.9921   20.8169    6.7462 C   0  0  0  0  0  0  0  0  0  0  0  0
   15.2989   20.0116    7.3782 O   0  0  0  0  0  0  0  0  0  0  0  0
   17.2991   20.3757    6.5414 N   0  0  0  0  0  0  0  0  0  0  0  0
   17.8381   19.0586    6.9735 C   0  0  0  0  0  0  0  0  0  0  0  0
   18.9065   18.7416    6.0800 C   0  0  0  0  0  0  0  0  0  0  0  0
   18.7952   17.9863    4.9072 C   0  0  0  0  0  0  0  0  0  0  0  0
   17.6356   17.3928    4.3844 C   0  0  0  0  0  0  0  0  0  0  0  0
   16.5734   18.2325    3.8519 C   0  0  0  0  0  0  0  0  0  0  0  0
   15.2255   17.9130    4.1224 C   0  0  0  0  0  0  0  0  0  0  0  0
   14.1359   18.6761    3.6153 C   0  0  0  0  0  0  0  0  0  0  0  0
   14.4404   19.8161    2.8440 C   0  0  0  0  0  0  0  0  0  0  0  0
   15.7859   20.1236    2.5685 C   0  0  0  0  0  0  0  0  0  0  0  0
   16.8264   19.3601    3.0524 C   0  0  0  0  0  0  0  0  0  0  0  0
   11.7689   21.5316    5.1516 H   0  0  0  0  0  0  0  0  0  0  0  0
   13.5735   21.1537    5.9117 H   0  0  0  0  0  0  0  0  0  0  0  0
   17.9144   20.9851    6.0732 H   0  0  0  0  0  0  0  0  0  0  0  0
   15.2631   23.1278    7.3183 C   0  0  0  0  0  0  0  0  0  0  0  0
   15.6745   22.5904    8.7189 C   0  0  0  0  0  0  0  0  0  0  0  0
   16.2335   24.3429    7.0073 C   0  0  0  0  0  0  0  0  0  0  0  0
   13.8408   23.5922    7.3423 C   0  0  0  0  0  0  0  0  0  0  0  0
   11.4429   23.7027    3.8297 C   0  0  0  0  0  0  0  0  0  0  0  0
   10.2333   24.5655    3.4375 C   0  0  0  0  0  0  0  0  0  0  0  0
    9.6355   25.2408    4.5675 N   0  0  0  0  0  0  0  0  0  0  0  0
    7.5715   26.2473    4.2782 C   0  0  0  0  0  0  0  0  0  0  0  0
    8.0569   27.3583    4.0227 O   0  0  0  0  0  0  0  0  0  0  0  0
    8.3245   25.1410    4.5169 N   0  0  0  0  0  0  0  0  0  0  0  0
    7.8901   24.2678    4.6516 H   0  0  0  0  0  0  0  0  0  0  0  0
    6.0366   26.0081    4.4814 C   0  0  0  0  0  0  0  0  0  0  0  0
    5.2180   27.5196    6.2908 C   0  0  0  0  0  0  0  0  0  0  0  0
    5.2458   26.5847    7.1267 O   0  0  0  0  0  0  0  0  0  0  0  0
    5.4891   27.2752    5.0274 N   0  0  0  0  0  0  0  0  0  0  0  0
    5.3127   27.9995    4.3844 H   0  0  0  0  0  0  0  0  0  0  0  0
    3.4620   28.9024    6.9638 C   0  0  0  0  0  0  0  0  0  0  0  0
    4.8587   28.8047    6.6246 O   0  0  0  0  0  0  0  0  0  0  0  0
    5.2184   25.5439    3.2697 C   0  0  0  0  0  0  0  0  0  0  0  0
    5.1575   24.0514    3.4195 C   0  0  0  0  0  0  0  0  0  0  0  0
    3.7695   26.1673    3.2211 C   0  0  0  0  0  0  0  0  0  0  0  0
    5.9941   25.8361    1.9266 C   0  0  0  0  0  0  0  0  0  0  0  0
   10.1365   24.5864    5.8025 C   0  0  0  0  0  0  0  0  0  0  0  0
    9.7749   25.2603    7.0019 C   0  0  0  0  0  0  0  0  0  0  0  0
    9.2491   24.5448    8.0883 C   0  0  0  0  0  0  0  0  0  0  0  0
    8.9518   25.2630    9.2692 C   0  0  0  0  0  0  0  0  0  0  0  0
    9.1095   26.6186    9.3616 C   0  0  0  0  0  0  0  0  0  0  0  0
    8.5581   27.5541   11.1042 Br  0  0  0  0  0  0  0  0  0  0  0  0
    9.6068   27.3100    8.2685 C   0  0  0  0  0  0  0  0  0  0  0  0
    9.9879   26.6178    7.1097 C   0  0  0  0  0  0  0  0  0  0  0  0
 41 42  1  0  0  0
 42 37  1  0  0  0
 37 38  2  0  0  0
 37 39  1  0  0  0
 39 36  1  0  0  0
 36 43  1  0  0  0
 36 32  1  0  0  0
 43 44  1  0  0  0
 43 45  1  0  0  0
 43 46  1  0  0  0
 32 33  2  0  0  0
 32 34  1  0  0  0
 34 31  1  0  0  0
 31 47  1  0  0  0
 31 30  1  0  0  0
 47 48  1  0  0  0
 48 49  1  0  0  0
 48 54  2  0  0  0
 49 50  2  0  0  0
 50 51  1  0  0  0
 51 52  1  0  0  0
 51 53  2  0  0  0
 53 54  1  0  0  0
 30 29  1  0  0  0
 29  1  1  0  0  0
  1  2  1  0  0  0
  2  4  1  0  0  0
  2  5  1  0  0  0
  2  3  1  0  0  0
  3 19  1  0  0  0
  5  6  2  0  0  0
  5  7  1  0  0  0
  7  8  1  0  0  0
  8 25  1  0  0  0
  8  9  1  0  0  0
 25 26  1  0  0  0
 25 27  1  0  0  0
 25 28  1  0  0  0
  9 10  2  0  0  0
  9 11  1  0  0  0
 11 12  1  0  0  0
 12 13  1  0  0  0
 13 14  2  0  0  0
 14 15  1  0  0  0
 15 16  1  0  0  0
 16 17  1  0  0  0
 16 21  2  0  0  0
 17 18  2  0  0  0
 18 19  1  0  0  0
 19 20  2  0  0  0
 20 21  1  0  0  0
 39 40  1  0  0  0
 34 35  1  0  0  0
  4 22  1  0  0  0
  7 23  1  0  0  0
 11 24  1  0  0  0
M  END
> <minimizedAffinity>
-10.27346

$$$$
3ZPU_M8B_B_1202


 54 56  0  0  0  0  0  0  0  0999 V2000
   13.4133   22.9607    4.4785 C   0  0  0  0  0  0  0  0  0  0  0  0
   14.5703   22.2762    5.2171 C   0  0  0  0  0  0  0  0  0  0  0  0
   14.4192   22.6204    6.7759 C   0  0  0  0  0  0  0  0  0  0  0  0
   15.7711   22.8325    4.6717 O   0  0  0  0  0  0  0  0  0  0  0  0
   14.7399   20.8567    5.0062 C   0  0  0  0  0  0  0  0  0  0  0  0
   13.8971   20.0008    5.2951 O   0  0  0  0  0  0  0  0  0  0  0  0
   16.0128   20.3440    4.7254 N   0  0  0  0  0  0  0  0  0  0  0  0
   16.3908   18.8867    4.7554 C   0  0  0  0  0  0  0  0  0  0  0  0
   17.6535   18.8123    5.5116 C   0  0  0  0  0  0  0  0  0  0  0  0
   18.6362   19.5161    5.2521 O   0  0  0  0  0  0  0  0  0  0  0  0
   17.8534   17.9699    6.6048 N   0  0  0  0  0  0  0  0  0  0  0  0
   19.0845   17.9220    7.4378 C   0  0  0  0  0  0  0  0  0  0  0  0
   18.6853   17.4642    8.7306 C   0  0  0  0  0  0  0  0  0  0  0  0
   18.3320   18.2772    9.8133 C   0  0  0  0  0  0  0  0  0  0  0  0
   18.3052   19.6802    9.8504 C   0  0  0  0  0  0  0  0  0  0  0  0
   17.3035   20.4026    9.0812 C   0  0  0  0  0  0  0  0  0  0  0  0
   17.6660   21.5764    8.3863 C   0  0  0  0  0  0  0  0  0  0  0  0
   16.7337   22.3453    7.6337 C   0  0  0  0  0  0  0  0  0  0  0  0
   15.4067   21.8753    7.5626 C   0  0  0  0  0  0  0  0  0  0  0  0
   15.0486   20.7102    8.2664 C   0  0  0  0  0  0  0  0  0  0  0  0
   15.9621   19.9908    9.0063 C   0  0  0  0  0  0  0  0  0  0  0  0
   15.8331   22.6074    3.7302 H   0  0  0  0  0  0  0  0  0  0  0  0
   16.7180   20.9892    4.4890 H   0  0  0  0  0  0  0  0  0  0  0  0
   17.1206   17.3576    6.8443 H   0  0  0  0  0  0  0  0  0  0  0  0
   16.4783   18.2578    3.3877 C   0  0  0  0  0  0  0  0  0  0  0  0
   17.3944   17.0007    3.3843 C   0  0  0  0  0  0  0  0  0  0  0  0
   15.0255   17.7485    3.0075 C   0  0  0  0  0  0  0  0  0  0  0  0
   16.9616   19.2501    2.3773 C   0  0  0  0  0  0  0  0  0  0  0  0
   12.6856   23.9060    5.4779 C   0  0  0  0  0  0  0  0  0  0  0  0
   12.0759   25.1615    4.8349 C   0  0  0  0  0  0  0  0  0  0  0  0
   10.6860   25.3523    5.1841 N   0  0  0  0  0  0  0  0  0  0  0  0
    8.9955   25.8697    3.6902 C   0  0  0  0  0  0  0  0  0  0  0  0
    8.8937   27.0402    4.0834 O   0  0  0  0  0  0  0  0  0  0  0  0
    9.9110   24.9939    4.1828 N   0  0  0  0  0  0  0  0  0  0  0  0
    9.9940   24.0942    3.7917 H   0  0  0  0  0  0  0  0  0  0  0  0
    8.0019   25.2185    2.6689 C   0  0  0  0  0  0  0  0  0  0  0  0
    9.4882   23.4351    1.7529 C   0  0  0  0  0  0  0  0  0  0  0  0
   10.0631   24.2578    1.0004 O   0  0  0  0  0  0  0  0  0  0  0  0
    8.4613   23.8199    2.4788 N   0  0  0  0  0  0  0  0  0  0  0  0
    7.9502   23.1153    2.9387 H   0  0  0  0  0  0  0  0  0  0  0  0
   10.3252   21.7466    3.1301 C   0  0  0  0  0  0  0  0  0  0  0  0
    9.8501   22.1098    1.8195 O   0  0  0  0  0  0  0  0  0  0  0  0
    6.5054   25.2546    3.0046 C   0  0  0  0  0  0  0  0  0  0  0  0
    5.8624   25.7792    1.7536 C   0  0  0  0  0  0  0  0  0  0  0  0
    5.9200   23.8412    3.3918 C   0  0  0  0  0  0  0  0  0  0  0  0
    6.2135   26.3076    4.1434 C   0  0  0  0  0  0  0  0  0  0  0  0
   10.3956   24.5023    6.3663 C   0  0  0  0  0  0  0  0  0  0  0  0
    9.9465   25.2279    7.5044 C   0  0  0  0  0  0  0  0  0  0  0  0
    9.2583   24.5745    8.5378 C   0  0  0  0  0  0  0  0  0  0  0  0
    8.8779   25.3399    9.6640 C   0  0  0  0  0  0  0  0  0  0  0  0
    9.1108   26.6852    9.7480 C   0  0  0  0  0  0  0  0  0  0  0  0
    8.4299   27.6976   11.3995 Br  0  0  0  0  0  0  0  0  0  0  0  0
    9.7700   27.3162    8.7052 C   0  0  0  0  0  0  0  0  0  0  0  0
   10.2326   26.5721    7.6099 C   0  0  0  0  0  0  0  0  0  0  0  0
 41 42  1  0  0  0
 42 37  1  0  0  0
 37 38  2  0  0  0
 37 39  1  0  0  0
 39 36  1  0  0  0
 36 43  1  0  0  0
 36 32  1  0  0  0
 43 44  1  0  0  0
 43 45  1  0  0  0
 43 46  1  0  0  0
 32 33  2  0  0  0
 32 34  1  0  0  0
 34 31  1  0  0  0
 31 47  1  0  0  0
 31 30  1  0  0  0
 47 48  1  0  0  0
 48 49  1  0  0  0
 48 54  2  0  0  0
 49 50  2  0  0  0
 50 51  1  0  0  0
 51 52  1  0  0  0
 51 53  2  0  0  0
 53 54  1  0  0  0
 30 29  1  0  0  0
 29  1  1  0  0  0
  1  2  1  0  0  0
  2  4  1  0  0  0
  2  5  1  0  0  0
  2  3  1  0  0  0
  3 19  1  0  0  0
  5  6  2  0  0  0
  5  7  1  0  0  0
  7  8  1  0  0  0
  8 25  1  0  0  0
  8  9  1  0  0  0
 25 26  1  0  0  0
 25 27  1  0  0  0
 25 28  1  0  0  0
  9 10  2  0  0  0
  9 11  1  0  0  0
 11 12  1  0  0  0
 12 13  1  0  0  0
 13 14  2  0  0  0
 14 15  1  0  0  0
 15 16  1  0  0  0
 16 17  1  0  0  0
 16 21  2  0  0  0
 17 18  2  0  0  0
 18 19  1  0  0  0
 19 20  2  0  0  0
 20 21  1  0  0  0
 39 40  1  0  0  0
 34 35  1  0  0  0
  4 22  1  0  0  0
  7 23  1  0  0  0
 11 24  1  0  0  0
M  END
> <minimizedAffinity>
-10.10157

$$$$
3ZPU_M8B_B_1202


 54 56  0  0  0  0  0  0  0  0999 V2000
   13.8520   22.3150    5.0744 C   0  0  0  0  0  0  0  0  0  0  0  0
   12.6598   23.1680    4.6231 C   0  0  0  0  0  0  0  0  0  0  0  0
   12.0068   22.4490    3.3473 C   0  0  0  0  0  0  0  0  0  0  0  0
   13.1976   24.4503    4.2837 O   0  0  0  0  0  0  0  0  0  0  0  0
   11.6600   23.4833    5.6178 C   0  0  0  0  0  0  0  0  0  0  0  0
   10.9801   22.6437    6.2171 O   0  0  0  0  0  0  0  0  0  0  0  0
   11.1982   24.7996    5.7446 N   0  0  0  0  0  0  0  0  0  0  0  0
    9.9842   25.2250    6.5274 C   0  0  0  0  0  0  0  0  0  0  0  0
    9.2328   26.1350    5.6448 C   0  0  0  0  0  0  0  0  0  0  0  0
    9.7514   27.1032    5.0773 O   0  0  0  0  0  0  0  0  0  0  0  0
    7.8810   25.9782    5.3404 N   0  0  0  0  0  0  0  0  0  0  0  0
    7.1092   26.8299    4.3964 C   0  0  0  0  0  0  0  0  0  0  0  0
    6.0445   26.0211    3.8938 C   0  0  0  0  0  0  0  0  0  0  0  0
    6.0805   25.2573    2.7219 C   0  0  0  0  0  0  0  0  0  0  0  0
    7.1464   25.1382    1.8164 C   0  0  0  0  0  0  0  0  0  0  0  0
    8.3577   24.4386    2.2169 C   0  0  0  0  0  0  0  0  0  0  0  0
    9.6191   24.9578    1.8541 C   0  0  0  0  0  0  0  0  0  0  0  0
   10.8433   24.3144    2.1919 C   0  0  0  0  0  0  0  0  0  0  0  0
   10.7700   23.1303    2.9531 C   0  0  0  0  0  0  0  0  0  0  0  0
    9.5092   22.6116    3.3028 C   0  0  0  0  0  0  0  0  0  0  0  0
    8.3344   23.2392    2.9486 C   0  0  0  0  0  0  0  0  0  0  0  0
   13.5841   24.8583    5.0743 H   0  0  0  0  0  0  0  0  0  0  0  0
   11.7090   25.5042    5.2843 H   0  0  0  0  0  0  0  0  0  0  0  0
    7.3987   25.2448    5.7862 H   0  0  0  0  0  0  0  0  0  0  0  0
   10.3130   25.8326    7.8677 C   0  0  0  0  0  0  0  0  0  0  0  0
    9.8318   27.3083    7.9698 C   0  0  0  0  0  0  0  0  0  0  0  0
    9.5017   25.0249    8.9650 C   0  0  0  0  0  0  0  0  0  0  0  0
   11.7817   25.7496    8.1420 C   0  0  0  0  0  0  0  0  0  0  0  0
   14.5435   21.7314    3.8083 C   0  0  0  0  0  0  0  0  0  0  0  0
   14.5416   20.1965    3.7343 C   0  0  0  0  0  0  0  0  0  0  0  0
   15.7856   19.6115    4.1821 N   0  0  0  0  0  0  0  0  0  0  0  0
   16.8930   20.0007    6.1769 C   0  0  0  0  0  0  0  0  0  0  0  0
   17.8511   20.5650    5.6304 O   0  0  0  0  0  0  0  0  0  0  0  0
   15.8098   19.5416    5.4959 N   0  0  0  0  0  0  0  0  0  0  0  0
   15.0457   19.1580    5.9840 H   0  0  0  0  0  0  0  0  0  0  0  0
   16.8683   19.6345    7.7000 C   0  0  0  0  0  0  0  0  0  0  0  0
   18.7854   18.2481    8.4946 C   0  0  0  0  0  0  0  0  0  0  0  0
   18.0228   17.2860    8.7523 O   0  0  0  0  0  0  0  0  0  0  0  0
   18.2799   19.3929    8.0904 N   0  0  0  0  0  0  0  0  0  0  0  0
   18.8944   20.1605    8.0423 H   0  0  0  0  0  0  0  0  0  0  0  0
   20.5031   17.5669    9.9206 C   0  0  0  0  0  0  0  0  0  0  0  0
   20.1484   18.1832    8.6678 O   0  0  0  0  0  0  0  0  0  0  0  0
   16.2035   20.6260    8.6634 C   0  0  0  0  0  0  0  0  0  0  0  0
   14.8068   20.7714    8.1325 C   0  0  0  0  0  0  0  0  0  0  0  0
   16.1908   20.1264   10.1602 C   0  0  0  0  0  0  0  0  0  0  0  0
   16.8816   22.0474    8.5581 C   0  0  0  0  0  0  0  0  0  0  0  0
   15.8747   18.2444    3.6099 C   0  0  0  0  0  0  0  0  0  0  0  0
   17.0774   17.5581    3.9353 C   0  0  0  0  0  0  0  0  0  0  0  0
   18.3094   18.0074    3.4362 C   0  0  0  0  0  0  0  0  0  0  0  0
   19.4747   17.3116    3.8319 C   0  0  0  0  0  0  0  0  0  0  0  0
   19.4296   16.2013    4.6297 C   0  0  0  0  0  0  0  0  0  0  0  0
   21.1868   15.2303    5.0601 Br  0  0  0  0  0  0  0  0  0  0  0  0
   18.2002   15.7593    5.0917 C   0  0  0  0  0  0  0  0  0  0  0  0
   17.0328   16.4735    4.7845 C   0  0  0  0  0  0  0  0  0  0  0  0
 41 42  1  0  0  0
 42 37  1  0  0  0
 37 38  2  0  0  0
 37 39  1  0  0  0
 39 36  1  0  0  0
 36 43  1  0  0  0
 36 32  1  0  0  0
 43 44  1  0  0  0
 43 45  1  0  0  0
 43 46  1  0  0  0
 32 33  2  0  0  0
 32 34  1  0  0  0
 34 31  1  0  0  0
 31 47  1  0  0  0
 31 30  1  0  0  0
 47 48  1  0  0  0
 48 49  1  0  0  0
 48 54  2  0  0  0
 49 50  2  0  0  0
 50 51  1  0  0  0
 51 52  1  0  0  0
 51 53  2  0  0  0
 53 54  1  0  0  0
 30 29  1  0  0  0
 29  1  1  0  0  0
  1  2  1  0  0  0
  2  4  1  0  0  0
  2  5  1  0  0  0
  2  3  1  0  0  0
  3 19  1  0  0  0
  5  6  2  0  0  0
  5  7  1  0  0  0
  7  8  1  0  0  0
  8 25  1  0  0  0
  8  9  1  0  0  0
 25 26  1  0  0  0
 25 27  1  0  0  0
 25 28  1  0  0  0
  9 10  2  0  0  0
  9 11  1  0  0  0
 11 12  1  0  0  0
 12 13  1  0  0  0
 13 14  2  0  0  0
 14 15  1  0  0  0
 15 16  1  0  0  0
 16 17  1  0  0  0
 16 21  2  0  0  0
 17 18  2  0  0  0
 18 19  1  0  0  0
 19 20  2  0  0  0
 20 21  1  0  0  0
 39 40  1  0  0  0
 34 35  1  0  0  0
  4 22  1  0  0  0
  7 23  1  0  0  0
 11 24  1  0  0  0
M  END
> <minimizedAffinity>
-9.85067

$$$$
