3ZPU_M8B_B_1202
  RCSB PDB12061711313D
Coordinates from PDB:3ZPU:B:1202 Model:1 without hydrogens
 49 51  0  0  0  0            999 V2000
   20.0070   18.0790    6.8370   C 0  0  0  0  0  0  0  0  0  0  0  0
   18.5960   17.9030    6.6060   O 0  0  0  0  0  0  0  0  0  0  0  0
   18.1050   18.8170    5.7030   C 0  0  0  0  0  0  0  0  0  0  0  0
   18.8460   19.5930    5.0530   O 0  0  0  0  0  0  0  0  0  0  0  0
   16.8070   18.8230    5.4920   N 0  0  0  0  0  0  0  0  0  0  0  0
   16.0590   19.8160    4.6810   C 0  0  0  0  0  0  0  0  0  0  0  0
   15.3130   19.1240    3.5330   C 0  0  0  0  0  0  0  0  0  0  0  0
   16.4070   18.6200    2.6370   C 0  0  0  0  0  0  0  0  0  0  0  0
   14.3870   17.9410    4.0160   C 0  0  0  0  0  0  0  0  0  0  0  0
   14.4830   20.1720    2.6940   C 0  0  0  0  0  0  0  0  0  0  0  0
   15.2160   20.6620    5.6950   C 0  0  0  0  0  0  0  0  0  0  0  0
   14.0930   20.3220    6.0930   O 0  0  0  0  0  0  0  0  0  0  0  0
   15.8820   21.7450    6.1760   N 0  0  0  0  0  0  0  0  0  0  0  0
   15.3710   22.4380    7.1710   N 0  0  0  0  0  0  0  0  0  0  0  0
   16.2530   22.3250    8.3600   C 0  0  0  0  0  0  0  0  0  0  0  0
   16.3360   21.0100    8.8960   C 0  0  0  0  0  0  0  0  0  0  0  0
   15.1730   20.3210    9.2720   C 0  0  0  0  0  0  0  0  0  0  0  0
   15.3160   19.0000    9.7550   C 0  0  0  0  0  0  0  0  0  0  0  0
   16.5380   18.4060    9.9130   C 0  0  0  0  0  0  0  0  0  0  0  0
   16.6140   16.5140   10.7070  Br 0  0  0  0  0  0  0  0  0  0  0  0
   17.6760   19.1130    9.5590   C 0  0  0  0  0  0  0  0  0  0  0  0
   17.5650   20.3950    9.0010   C 0  0  0  0  0  0  0  0  0  0  0  0
   15.2870   23.8370    6.8160   C 0  0  0  0  0  0  0  0  0  0  0  0
   13.8800   24.2530    6.3590   C 0  0  0  0  0  0  0  0  0  0  0  0
   13.4340   23.6310    5.0040   C 0  0  0  0  0  0  0  0  0  0  0  0
   12.1260   24.3050    4.5710   C 0  0  0  0  0  0  0  0  0  0  0  0
   11.6650   23.6250    3.1940   C 0  0  0  0  0  0  0  0  0  0  0  0
   12.4360   25.6910    4.3930   O 0  0  0  0  0  0  0  0  0  0  0  0
   11.0470   24.3300    5.5320   C 0  0  0  0  0  0  0  0  0  0  0  0
   10.5070   23.3240    6.0040   O 0  0  0  0  0  0  0  0  0  0  0  0
   10.3500   25.5230    5.7620   N 0  0  0  0  0  0  0  0  0  0  0  0
    9.0490   25.6410    6.5110   C 0  0  0  0  0  0  0  0  0  0  0  0
    9.2090   26.1480    7.9220   C 0  0  0  0  0  0  0  0  0  0  0  0
    9.9820   27.4970    7.9700   C 0  0  0  0  0  0  0  0  0  0  0  0
    7.7570   26.4490    8.4840   C 0  0  0  0  0  0  0  0  0  0  0  0
    9.8960   25.1300    8.7770   C 0  0  0  0  0  0  0  0  0  0  0  0
    8.1810   26.4950    5.6810   C 0  0  0  0  0  0  0  0  0  0  0  0
    8.5380   27.5950    5.2440   O 0  0  0  0  0  0  0  0  0  0  0  0
    6.8930   26.1370    5.2840   N 0  0  0  0  0  0  0  0  0  0  0  0
    6.0180   26.9370    4.3860   C 0  0  0  0  0  0  0  0  0  0  0  0
    5.1380   26.0130    3.7440   C 0  0  0  0  0  0  0  0  0  0  0  0
    5.3580   25.3990    2.5060   C 0  0  0  0  0  0  0  0  0  0  0  0
    6.4630   25.5680    1.6570   C 0  0  0  0  0  0  0  0  0  0  0  0
    7.7640   25.0530    2.0560   C 0  0  0  0  0  0  0  0  0  0  0  0
    8.9240   25.8220    1.8210   C 0  0  0  0  0  0  0  0  0  0  0  0
   10.2300   25.3710    2.1640   C 0  0  0  0  0  0  0  0  0  0  0  0
   10.3420   24.1170    2.7980   C 0  0  0  0  0  0  0  0  0  0  0  0
    9.1830   23.3500    3.0200   C 0  0  0  0  0  0  0  0  0  0  0  0
    7.9290   23.7960    2.6620   C 0  0  0  0  0  0  0  0  0  0  0  0
  1  2  1  0  0  0  0
  2  3  1  0  0  0  0
  3  4  2  0  0  0  0
  3  5  1  0  0  0  0
  5  6  1  0  0  0  0
  6  7  1  0  0  0  0
  6 11  1  0  0  0  0
  7  8  1  0  0  0  0
  7  9  1  0  0  0  0
  7 10  1  0  0  0  0
 11 12  2  0  0  0  0
 11 13  1  0  0  0  0
 13 14  1  0  0  0  0
 14 15  1  0  0  0  0
 14 23  1  0  0  0  0
 15 16  1  0  0  0  0
 16 17  1  0  0  0  0
 16 22  2  0  0  0  0
 17 18  2  0  0  0  0
 18 19  1  0  0  0  0
 19 20  1  0  0  0  0
 19 21  2  0  0  0  0
 21 22  1  0  0  0  0
 23 24  1  0  0  0  0
 24 25  1  0  0  0  0
 25 26  1  0  0  0  0
 26 28  1  0  0  0  0
 26 29  1  0  0  0  0
 26 27  1  0  0  0  0
 27 47  1  0  0  0  0
 29 30  2  0  0  0  0
 29 31  1  0  0  0  0
 31 32  1  0  0  0  0
 32 33  1  0  0  0  0
 32 37  1  0  0  0  0
 33 34  1  0  0  0  0
 33 35  1  0  0  0  0
 33 36  1  0  0  0  0
 37 38  2  0  0  0  0
 37 39  1  0  0  0  0
 39 40  1  0  0  0  0
 40 41  1  0  0  0  0
 41 42  2  0  0  0  0
 42 43  1  0  0  0  0
 43 44  1  0  0  0  0
 44 45  1  0  0  0  0
 44 49  2  0  0  0  0
 45 46  2  0  0  0  0
 46 47  1  0  0  0  0
 47 48  2  0  0  0  0
 48 49  1  0  0  0  0
A    1
C19
A    2
O5
A    3
C18
A    4
O4
A    5
N4
A    6
C13
A    7
C14
A    8
C16
A    9
C17
A   10
C15
A   11
C12
A   12
O3
A   13
N3
A   14
N2
A   15
C10
A   16
C11
A   17
C20
A   18
C21
A   19
C22
A   20
BR1
A   21
C23
A   22
C24
A   23
C9
A   24
C8
A   25
C7
A   26
C1
A   27
C25
A   28
O1
A   29
C2
A   30
O2
A   31
N1
A   32
C3
A   33
C4
A   34
C6
A   35
C35
A   36
C5
A   37
C34
A   38
O6
A   39
N5
A   40
C37
A   41
C36
A   42
C33
A   43
C32
A   44
C29
A   45
C28
A   46
C27
A   47
C26
A   48
C31
A   49
C30
M  END
>  <InstanceId>
3ZPU_M8B_B_1202

>  <ChemCompId>
M8B

>  <PdbId>
3ZPU

>  <ChainId>
B

>  <ResidueNumber>
1202

>  <InsertionCode>


>  <Model>
1

>  <AltIds>


>  <MissingHeavyAtoms>
0

>  <ObservedFormula>
C37 N5 O6 Br

>  <Name>
methyl N-[(2S)-1-[2-[(4-bromophenyl)methyl]-2-[3-[(3Z,8S,11R)-8-tert-butyl-11-oxidanyl-7,10-bis(oxidanylidene)-6,9-diazabicyclo[11.2.2]heptadeca-1(15),3,13,16-tetraen-11-yl]propyl]hydrazinyl]-3,3-dimethyl-1-oxidanylidene-butan-2-yl]carbamate

>  <SystematicName>
methyl N-[(2S)-1-[2-[(4-bromophenyl)methyl]-2-[3-[(3Z,8S,11R)-8-tert-butyl-11-oxidanyl-7,10-bis(oxidanylidene)-6,9-diazabicyclo[11.2.2]heptadeca-1(15),3,13,16-tetraen-11-yl]propyl]hydrazinyl]-3,3-dimethyl-1-oxidanylidene-butan-2-yl]carbamate

>  <Synonyms>


>  <Type>
non-polymer

>  <Formula>
C37 H52 Br N5 O6

>  <MolecularWeight>
742.743

>  <ModifiedDate>
2014-09-05

>  <Parent>


>  <OneLetterCode>


>  <SubcomponentList>


>  <AmbiguousFlag>
N

>  <InChI>
InChI=1S/C37H52BrN5O6/c1-35(2,3)29-31(44)39-21-9-8-11-25-12-14-26(15-13-25)23-37(48,33(46)40-29)20-10-22-43(24-27-16-18-28(38)19-17-27)42-32(45)30(36(4,5)6)41-34(47)49-7/h8-9,12-19,29-30,48H,10-11,20-24H2,1-7H3,(H,39,44)(H,40,46)(H,41,47)(H,42,45)/b9-8-/t29-,30-,37-/m1/s1

>  <InChIKey>
SFNMYSUIYNOTIA-HIOXXDBGSA-N

>  <SMILES>
CC(C)(C)[C@H]1C(=O)NC/C=C\Cc2ccc(cc2)C[C@@](C(=O)N1)(CCCN(Cc3ccc(cc3)Br)NC(=O)[C@H](C(C)(C)C)NC(=O)OC)O

$$$$
