1JVU_C2P_A_130


 27 28  0  0  0  0  0  0  0  0999 V2000
   37.6019    1.2004   24.7945 C   0  0  0  0  0  0  0  0  0  0  0  0
   37.5345    0.2509   23.5894 C   0  0  0  0  0  0  0  0  0  0  0  0
   38.6783    0.8034   22.7458 C   0  0  0  0  0  0  0  0  0  0  0  0
   39.7251    1.0897   23.8044 C   0  0  0  0  0  0  0  0  0  0  0  0
   38.9452    1.6489   24.8996 O   0  0  0  0  0  0  0  0  0  0  0  0
   39.1703   -0.0777   21.7686 O   0  0  0  0  0  0  0  0  0  0  0  0
   39.4810   -0.8919   22.1944 H   0  0  0  0  0  0  0  0  0  0  0  0
   36.7375    2.3820   24.6805 N   0  0  0  0  0  0  0  0  0  0  0  0
   35.5840    2.4456   25.4725 C   0  0  0  0  0  0  0  0  0  0  0  0
   34.8094    3.5657   25.4344 N   0  0  0  0  0  0  0  0  0  0  0  0
   35.1390    4.5782   24.6207 C   0  0  0  0  0  0  0  0  0  0  0  0
   36.2962    4.5159   23.7681 C   0  0  0  0  0  0  0  0  0  0  0  0
   37.0584    3.4089   23.8307 C   0  0  0  0  0  0  0  0  0  0  0  0
   35.2959    1.4677   26.1900 O   0  0  0  0  0  0  0  0  0  0  0  0
   34.3678    5.6577   24.6306 N   0  0  0  0  0  0  0  0  0  0  0  0
   33.5776    5.6929   25.2167 H   0  0  0  0  0  0  0  0  0  0  0  0
   34.5858    6.4237   24.0517 H   0  0  0  0  0  0  0  0  0  0  0  0
   40.7915    2.0570   23.3794 C   0  0  0  0  0  0  0  0  0  0  0  0
   40.4285    2.6608   22.1255 O   0  0  0  0  0  0  0  0  0  0  0  0
   40.3350    1.9712   21.4497 H   0  0  0  0  0  0  0  0  0  0  0  0
   37.6637   -1.0302   24.2063 O   0  0  0  0  0  0  0  0  0  0  0  0
   37.0142   -2.3696   23.5316 P   0  0  0  0  0  0  0  0  0  0  0  0
   36.8540   -3.2850   24.7124 O   0  0  0  0  0  0  0  0  0  0  0  0
   37.8331   -2.7929   22.3555 O   0  0  0  0  0  0  0  0  0  0  0  0
   35.5567   -1.9998   23.0159 O   0  0  0  0  0  0  0  0  0  0  0  0
   38.7280   -3.0230   22.6506 H   0  0  0  0  0  0  0  0  0  0  0  0
   35.0090   -1.7220   23.7667 H   0  0  0  0  0  0  0  0  0  0  0  0
  8  9  1  0  0  0
  8 13  1  0  0  0
  8  1  1  0  0  0
  9 10  1  0  0  0
  9 14  2  0  0  0
 10 11  2  0  0  0
 11 12  1  0  0  0
 11 15  1  0  0  0
 12 13  2  0  0  0
  1  2  1  0  0  0
  1  5  1  0  0  0
  2 21  1  0  0  0
  2  3  1  0  0  0
 21 22  1  0  0  0
  3  4  1  0  0  0
  3  6  1  0  0  0
  4  5  1  0  0  0
  4 18  1  0  0  0
 18 19  1  0  0  0
 22 23  2  0  0  0
 22 24  1  0  0  0
 22 25  1  0  0  0
 15 16  1  0  0  0
 15 17  1  0  0  0
  6  7  1  0  0  0
 19 20  1  0  0  0
 24 26  1  0  0  0
 25 27  1  0  0  0
M  END
> <minimizedAffinity>
-7.45200

$$$$
1JVU_C2P_A_130


 27 28  0  0  0  0  0  0  0  0999 V2000
   36.4319    5.2492   22.7843 C   0  0  0  0  0  0  0  0  0  0  0  0
   36.2920    6.6368   23.4272 C   0  0  0  0  0  0  0  0  0  0  0  0
   37.7564    6.9512   23.7128 C   0  0  0  0  0  0  0  0  0  0  0  0
   38.4281    6.4354   22.4553 C   0  0  0  0  0  0  0  0  0  0  0  0
   37.7184    5.1928   22.1859 O   0  0  0  0  0  0  0  0  0  0  0  0
   38.0389    8.3116   23.9192 O   0  0  0  0  0  0  0  0  0  0  0  0
   37.7726    8.8195   23.1369 H   0  0  0  0  0  0  0  0  0  0  0  0
   36.3235    4.1320   23.7312 N   0  0  0  0  0  0  0  0  0  0  0  0
   35.1902    4.0579   24.5512 C   0  0  0  0  0  0  0  0  0  0  0  0
   35.0373    2.9900   25.3831 N   0  0  0  0  0  0  0  0  0  0  0  0
   35.9822    2.0410   25.4322 C   0  0  0  0  0  0  0  0  0  0  0  0
   37.1735    2.1192   24.6293 C   0  0  0  0  0  0  0  0  0  0  0  0
   37.3002    3.1725   23.8018 C   0  0  0  0  0  0  0  0  0  0  0  0
   34.3521    4.9792   24.4985 O   0  0  0  0  0  0  0  0  0  0  0  0
   35.7827    1.0087   26.2414 N   0  0  0  0  0  0  0  0  0  0  0  0
   34.9650    0.9623   26.7877 H   0  0  0  0  0  0  0  0  0  0  0  0
   36.4524    0.2891   26.2956 H   0  0  0  0  0  0  0  0  0  0  0  0
   39.8992    6.1727   22.5986 C   0  0  0  0  0  0  0  0  0  0  0  0
   40.2970    6.3685   23.9668 O   0  0  0  0  0  0  0  0  0  0  0  0
   40.1086    7.2828   24.2305 H   0  0  0  0  0  0  0  0  0  0  0  0
   35.5937    7.3680   22.4191 O   0  0  0  0  0  0  0  0  0  0  0  0
   34.3785    8.3929   22.7983 P   0  0  0  0  0  0  0  0  0  0  0  0
   35.1085    9.5468   23.4258 O   0  0  0  0  0  0  0  0  0  0  0  0
   33.3211    7.6647   23.5629 O   0  0  0  0  0  0  0  0  0  0  0  0
   33.7391    8.9170   21.4407 O   0  0  0  0  0  0  0  0  0  0  0  0
   33.6930    7.3366   24.3965 H   0  0  0  0  0  0  0  0  0  0  0  0
   34.4116    9.3935   20.9293 H   0  0  0  0  0  0  0  0  0  0  0  0
  8  9  1  0  0  0
  8 13  1  0  0  0
  8  1  1  0  0  0
  9 10  1  0  0  0
  9 14  2  0  0  0
 10 11  2  0  0  0
 11 12  1  0  0  0
 11 15  1  0  0  0
 12 13  2  0  0  0
  1  2  1  0  0  0
  1  5  1  0  0  0
  2 21  1  0  0  0
  2  3  1  0  0  0
 21 22  1  0  0  0
  3  4  1  0  0  0
  3  6  1  0  0  0
  4  5  1  0  0  0
  4 18  1  0  0  0
 18 19  1  0  0  0
 22 23  2  0  0  0
 22 24  1  0  0  0
 22 25  1  0  0  0
 15 16  1  0  0  0
 15 17  1  0  0  0
  6  7  1  0  0  0
 19 20  1  0  0  0
 24 26  1  0  0  0
 25 27  1  0  0  0
M  END
> <minimizedAffinity>
-6.92412

$$$$
1JVU_C2P_A_130


 27 28  0  0  0  0  0  0  0  0999 V2000
   36.8973    4.1202   23.1226 C   0  0  0  0  0  0  0  0  0  0  0  0
   36.6490    3.3021   24.3983 C   0  0  0  0  0  0  0  0  0  0  0  0
   35.6450    4.2047   25.1070 C   0  0  0  0  0  0  0  0  0  0  0  0
   34.7683    4.6484   23.9524 C   0  0  0  0  0  0  0  0  0  0  0  0
   35.7254    4.8849   22.8808 O   0  0  0  0  0  0  0  0  0  0  0  0
   34.8877    3.5740   26.1079 O   0  0  0  0  0  0  0  0  0  0  0  0
   34.3989    2.8299   25.7229 H   0  0  0  0  0  0  0  0  0  0  0  0
   38.0326    5.0473   23.2120 N   0  0  0  0  0  0  0  0  0  0  0  0
   39.3206    4.5526   22.9700 C   0  0  0  0  0  0  0  0  0  0  0  0
   40.3775    5.4121   22.9763 N   0  0  0  0  0  0  0  0  0  0  0  0
   40.1808    6.7105   23.2434 C   0  0  0  0  0  0  0  0  0  0  0  0
   38.8720    7.2316   23.5360 C   0  0  0  0  0  0  0  0  0  0  0  0
   37.8378    6.3713   23.5095 C   0  0  0  0  0  0  0  0  0  0  0  0
   39.4632    3.3323   22.7591 O   0  0  0  0  0  0  0  0  0  0  0  0
   41.2354    7.5153   23.2190 N   0  0  0  0  0  0  0  0  0  0  0  0
   42.1278    7.1513   23.0180 H   0  0  0  0  0  0  0  0  0  0  0  0
   41.1255    8.4764   23.4019 H   0  0  0  0  0  0  0  0  0  0  0  0
   33.9699    5.8914   24.2192 C   0  0  0  0  0  0  0  0  0  0  0  0
   34.2448    6.3701   25.5472 O   0  0  0  0  0  0  0  0  0  0  0  0
   34.0009    5.6890   26.1934 H   0  0  0  0  0  0  0  0  0  0  0  0
   36.2236    2.0445   23.8729 O   0  0  0  0  0  0  0  0  0  0  0  0
   36.6371    0.6370   24.5933 P   0  0  0  0  0  0  0  0  0  0  0  0
   38.1368    0.6504   24.4991 O   0  0  0  0  0  0  0  0  0  0  0  0
   35.8545   -0.4872   23.9963 O   0  0  0  0  0  0  0  0  0  0  0  0
   36.2568    0.7454   26.1329 O   0  0  0  0  0  0  0  0  0  0  0  0
   36.0734   -0.5694   23.0549 H   0  0  0  0  0  0  0  0  0  0  0  0
   36.7559    1.4714   26.5389 H   0  0  0  0  0  0  0  0  0  0  0  0
  8  9  1  0  0  0
  8 13  1  0  0  0
  8  1  1  0  0  0
  9 10  1  0  0  0
  9 14  2  0  0  0
 10 11  2  0  0  0
 11 12  1  0  0  0
 11 15  1  0  0  0
 12 13  2  0  0  0
  1  2  1  0  0  0
  1  5  1  0  0  0
  2 21  1  0  0  0
  2  3  1  0  0  0
 21 22  1  0  0  0
  3  4  1  0  0  0
  3  6  1  0  0  0
  4  5  1  0  0  0
  4 18  1  0  0  0
 18 19  1  0  0  0
 22 23  2  0  0  0
 22 24  1  0  0  0
 22 25  1  0  0  0
 15 16  1  0  0  0
 15 17  1  0  0  0
  6  7  1  0  0  0
 19 20  1  0  0  0
 24 26  1  0  0  0
 25 27  1  0  0  0
M  END
> <minimizedAffinity>
-6.60351

$$$$
1JVU_C2P_A_130


 27 28  0  0  0  0  0  0  0  0999 V2000
   37.7424    0.9483   23.0561 C   0  0  0  0  0  0  0  0  0  0  0  0
   37.3905    0.0557   24.2551 C   0  0  0  0  0  0  0  0  0  0  0  0
   36.9477    1.1143   25.2593 C   0  0  0  0  0  0  0  0  0  0  0  0
   36.1516    2.0554   24.3767 C   0  0  0  0  0  0  0  0  0  0  0  0
   36.9466    2.1199   23.1585 O   0  0  0  0  0  0  0  0  0  0  0  0
   36.1667    0.6303   26.3218 O   0  0  0  0  0  0  0  0  0  0  0  0
   35.3704    0.2030   25.9694 H   0  0  0  0  0  0  0  0  0  0  0  0
   39.1509    1.3605   23.0039 N   0  0  0  0  0  0  0  0  0  0  0  0
   40.0468    0.5868   22.2550 C   0  0  0  0  0  0  0  0  0  0  0  0
   41.3413    0.9940   22.1350 N   0  0  0  0  0  0  0  0  0  0  0  0
   41.7512    2.1082   22.7566 C   0  0  0  0  0  0  0  0  0  0  0  0
   40.8576    2.8946   23.5647 C   0  0  0  0  0  0  0  0  0  0  0  0
   39.5790    2.4862   23.6590 C   0  0  0  0  0  0  0  0  0  0  0  0
   39.6318   -0.4604   21.7210 O   0  0  0  0  0  0  0  0  0  0  0  0
   43.0151    2.4786   22.5959 N   0  0  0  0  0  0  0  0  0  0  0  0
   43.6205    1.9353   22.0414 H   0  0  0  0  0  0  0  0  0  0  0  0
   43.3474    3.2968   23.0311 H   0  0  0  0  0  0  0  0  0  0  0  0
   35.9615    3.4313   24.9463 C   0  0  0  0  0  0  0  0  0  0  0  0
   35.0569    3.3744   26.0629 O   0  0  0  0  0  0  0  0  0  0  0  0
   34.1996    3.0299   25.7673 H   0  0  0  0  0  0  0  0  0  0  0  0
   36.4269   -0.8368   23.6951 O   0  0  0  0  0  0  0  0  0  0  0  0
   36.7811   -2.4082   23.4191 P   0  0  0  0  0  0  0  0  0  0  0  0
   36.9743   -2.9481   24.8080 O   0  0  0  0  0  0  0  0  0  0  0  0
   37.8795   -2.5108   22.4111 O   0  0  0  0  0  0  0  0  0  0  0  0
   35.4852   -3.1029   22.8152 O   0  0  0  0  0  0  0  0  0  0  0  0
   38.6807   -2.0914   22.7621 H   0  0  0  0  0  0  0  0  0  0  0  0
   34.7595   -3.0464   23.4564 H   0  0  0  0  0  0  0  0  0  0  0  0
  8  9  1  0  0  0
  8 13  1  0  0  0
  8  1  1  0  0  0
  9 10  1  0  0  0
  9 14  2  0  0  0
 10 11  2  0  0  0
 11 12  1  0  0  0
 11 15  1  0  0  0
 12 13  2  0  0  0
  1  2  1  0  0  0
  1  5  1  0  0  0
  2 21  1  0  0  0
  2  3  1  0  0  0
 21 22  1  0  0  0
  3  4  1  0  0  0
  3  6  1  0  0  0
  4  5  1  0  0  0
  4 18  1  0  0  0
 18 19  1  0  0  0
 22 23  2  0  0  0
 22 24  1  0  0  0
 22 25  1  0  0  0
 15 16  1  0  0  0
 15 17  1  0  0  0
  6  7  1  0  0  0
 19 20  1  0  0  0
 24 26  1  0  0  0
 25 27  1  0  0  0
M  END
> <minimizedAffinity>
-6.44092

$$$$
1JVU_C2P_A_130


 27 28  0  0  0  0  0  0  0  0999 V2000
   37.6551    3.5788   23.4846 C   0  0  0  0  0  0  0  0  0  0  0  0
   37.5106    2.4803   22.4212 C   0  0  0  0  0  0  0  0  0  0  0  0
   38.0082    3.2292   21.1898 C   0  0  0  0  0  0  0  0  0  0  0  0
   39.1852    3.9979   21.7574 C   0  0  0  0  0  0  0  0  0  0  0  0
   38.6959    4.4436   23.0544 O   0  0  0  0  0  0  0  0  0  0  0  0
   38.4040    2.4094   20.1200 O   0  0  0  0  0  0  0  0  0  0  0  0
   39.1122    1.8149   20.4131 H   0  0  0  0  0  0  0  0  0  0  0  0
   36.4464    4.3886   23.6833 N   0  0  0  0  0  0  0  0  0  0  0  0
   35.5558    4.0225   24.7007 C   0  0  0  0  0  0  0  0  0  0  0  0
   34.4674    4.8037   24.9477 N   0  0  0  0  0  0  0  0  0  0  0  0
   34.2427    5.8920   24.1988 C   0  0  0  0  0  0  0  0  0  0  0  0
   35.1220    6.2626   23.1220 C   0  0  0  0  0  0  0  0  0  0  0  0
   36.2005    5.4886   22.9028 C   0  0  0  0  0  0  0  0  0  0  0  0
   35.7845    2.9840   25.3512 O   0  0  0  0  0  0  0  0  0  0  0  0
   33.1820    6.6350   24.4873 N   0  0  0  0  0  0  0  0  0  0  0  0
   32.5849    6.3749   25.2257 H   0  0  0  0  0  0  0  0  0  0  0  0
   32.9919    7.4463   23.9630 H   0  0  0  0  0  0  0  0  0  0  0  0
   39.6155    5.1757   20.9319 C   0  0  0  0  0  0  0  0  0  0  0  0
   40.3223    4.7195   19.7654 O   0  0  0  0  0  0  0  0  0  0  0  0
   41.1060    4.2172   20.0381 H   0  0  0  0  0  0  0  0  0  0  0  0
   38.2947    1.4216   22.9717 O   0  0  0  0  0  0  0  0  0  0  0  0
   37.6627    0.3629   24.0443 P   0  0  0  0  0  0  0  0  0  0  0  0
   38.5262   -0.8517   23.8516 O   0  0  0  0  0  0  0  0  0  0  0  0
   36.1830    0.2731   23.8563 O   0  0  0  0  0  0  0  0  0  0  0  0
   37.9456    0.9199   25.5060 O   0  0  0  0  0  0  0  0  0  0  0  0
   35.9899   -0.0656   22.9681 H   0  0  0  0  0  0  0  0  0  0  0  0
   38.9030    0.9854   25.6473 H   0  0  0  0  0  0  0  0  0  0  0  0
  8  9  1  0  0  0
  8 13  1  0  0  0
  8  1  1  0  0  0
  9 10  1  0  0  0
  9 14  2  0  0  0
 10 11  2  0  0  0
 11 12  1  0  0  0
 11 15  1  0  0  0
 12 13  2  0  0  0
  1  2  1  0  0  0
  1  5  1  0  0  0
  2 21  1  0  0  0
  2  3  1  0  0  0
 21 22  1  0  0  0
  3  4  1  0  0  0
  3  6  1  0  0  0
  4  5  1  0  0  0
  4 18  1  0  0  0
 18 19  1  0  0  0
 22 23  2  0  0  0
 22 24  1  0  0  0
 22 25  1  0  0  0
 15 16  1  0  0  0
 15 17  1  0  0  0
  6  7  1  0  0  0
 19 20  1  0  0  0
 24 26  1  0  0  0
 25 27  1  0  0  0
M  END
> <minimizedAffinity>
-6.31870

$$$$
1JVU_C2P_A_130


 27 28  0  0  0  0  0  0  0  0999 V2000
   38.0505    2.3998   22.5655 C   0  0  0  0  0  0  0  0  0  0  0  0
   38.1671    1.2662   23.5948 C   0  0  0  0  0  0  0  0  0  0  0  0
   37.3763    1.8685   24.7510 C   0  0  0  0  0  0  0  0  0  0  0  0
   36.2146    2.5130   24.0206 C   0  0  0  0  0  0  0  0  0  0  0  0
   36.8447    3.0961   22.8444 O   0  0  0  0  0  0  0  0  0  0  0  0
   36.9260    0.9409   25.7049 O   0  0  0  0  0  0  0  0  0  0  0  0
   36.3636    0.2794   25.2724 H   0  0  0  0  0  0  0  0  0  0  0  0
   39.1531    3.3687   22.6078 N   0  0  0  0  0  0  0  0  0  0  0  0
   39.1850    4.3879   21.6473 C   0  0  0  0  0  0  0  0  0  0  0  0
   40.1587    5.3383   21.7150 N   0  0  0  0  0  0  0  0  0  0  0  0
   41.0906    5.2724   22.6758 C   0  0  0  0  0  0  0  0  0  0  0  0
   41.1006    4.2106   23.6467 C   0  0  0  0  0  0  0  0  0  0  0  0
   40.1221    3.2899   23.5744 C   0  0  0  0  0  0  0  0  0  0  0  0
   38.3189    4.3927   20.7508 O   0  0  0  0  0  0  0  0  0  0  0  0
   42.0080    6.2299   22.7165 N   0  0  0  0  0  0  0  0  0  0  0  0
   41.9946    6.9532   22.0486 H   0  0  0  0  0  0  0  0  0  0  0  0
   42.7021    6.2173   23.4145 H   0  0  0  0  0  0  0  0  0  0  0  0
   35.4975    3.5732   24.8050 C   0  0  0  0  0  0  0  0  0  0  0  0
   34.8498    2.9806   25.9442 O   0  0  0  0  0  0  0  0  0  0  0  0
   34.2089    2.3177   25.6431 H   0  0  0  0  0  0  0  0  0  0  0  0
   37.6364    0.1512   22.8780 O   0  0  0  0  0  0  0  0  0  0  0  0
   37.7880   -1.3747   23.4433 P   0  0  0  0  0  0  0  0  0  0  0  0
   38.9323   -1.2526   24.4096 O   0  0  0  0  0  0  0  0  0  0  0  0
   37.8663   -2.3335   22.2998 O   0  0  0  0  0  0  0  0  0  0  0  0
   36.4859   -1.7146   24.2893 O   0  0  0  0  0  0  0  0  0  0  0  0
   38.6562   -2.1417   21.7705 H   0  0  0  0  0  0  0  0  0  0  0  0
   36.4175   -1.1014   25.0379 H   0  0  0  0  0  0  0  0  0  0  0  0
  8  9  1  0  0  0
  8 13  1  0  0  0
  8  1  1  0  0  0
  9 10  1  0  0  0
  9 14  2  0  0  0
 10 11  2  0  0  0
 11 12  1  0  0  0
 11 15  1  0  0  0
 12 13  2  0  0  0
  1  2  1  0  0  0
  1  5  1  0  0  0
  2 21  1  0  0  0
  2  3  1  0  0  0
 21 22  1  0  0  0
  3  4  1  0  0  0
  3  6  1  0  0  0
  4  5  1  0  0  0
  4 18  1  0  0  0
 18 19  1  0  0  0
 22 23  2  0  0  0
 22 24  1  0  0  0
 22 25  1  0  0  0
 15 16  1  0  0  0
 15 17  1  0  0  0
  6  7  1  0  0  0
 19 20  1  0  0  0
 24 26  1  0  0  0
 25 27  1  0  0  0
M  END
> <minimizedAffinity>
-5.78488

$$$$
1JVU_C2P_A_130


 27 28  0  0  0  0  0  0  0  0999 V2000
   38.3006    1.1830   23.8072 C   0  0  0  0  0  0  0  0  0  0  0  0
   37.8555    2.2006   22.7467 C   0  0  0  0  0  0  0  0  0  0  0  0
   36.4667    2.5480   23.2718 C   0  0  0  0  0  0  0  0  0  0  0  0
   36.7172    2.6238   24.7651 C   0  0  0  0  0  0  0  0  0  0  0  0
   37.6137    1.5024   25.0084 O   0  0  0  0  0  0  0  0  0  0  0  0
   35.9352    3.7530   22.7831 O   0  0  0  0  0  0  0  0  0  0  0  0
   36.5306    4.4845   23.0098 H   0  0  0  0  0  0  0  0  0  0  0  0
   37.9959   -0.2132   23.4689 N   0  0  0  0  0  0  0  0  0  0  0  0
   38.9582   -0.9586   22.7758 C   0  0  0  0  0  0  0  0  0  0  0  0
   38.7235   -2.2755   22.5178 N   0  0  0  0  0  0  0  0  0  0  0  0
   37.5672   -2.8350   22.8996 C   0  0  0  0  0  0  0  0  0  0  0  0
   36.5481   -2.0768   23.5754 C   0  0  0  0  0  0  0  0  0  0  0  0
   36.8037   -0.7818   23.8361 C   0  0  0  0  0  0  0  0  0  0  0  0
   40.0055   -0.3905   22.4093 O   0  0  0  0  0  0  0  0  0  0  0  0
   37.3891   -4.1251   22.6460 N   0  0  0  0  0  0  0  0  0  0  0  0
   38.0910   -4.6372   22.1831 H   0  0  0  0  0  0  0  0  0  0  0  0
   36.5550   -4.5702   22.9206 H   0  0  0  0  0  0  0  0  0  0  0  0
   35.4833    2.4950   25.6103 C   0  0  0  0  0  0  0  0  0  0  0  0
   34.7010    3.6980   25.5149 O   0  0  0  0  0  0  0  0  0  0  0  0
   35.2260    4.4509   25.8288 H   0  0  0  0  0  0  0  0  0  0  0  0
   38.8988    3.1735   22.8047 O   0  0  0  0  0  0  0  0  0  0  0  0
   38.8936    4.4865   21.8316 P   0  0  0  0  0  0  0  0  0  0  0  0
   40.3165    4.5429   21.3519 O   0  0  0  0  0  0  0  0  0  0  0  0
   38.2949    5.6500   22.5532 O   0  0  0  0  0  0  0  0  0  0  0  0
   37.9804    4.1586   20.5725 O   0  0  0  0  0  0  0  0  0  0  0  0
   38.8393    5.8658   23.3265 H   0  0  0  0  0  0  0  0  0  0  0  0
   38.3536    3.4043   20.0901 H   0  0  0  0  0  0  0  0  0  0  0  0
  8  9  1  0  0  0
  8 13  1  0  0  0
  8  1  1  0  0  0
  9 10  1  0  0  0
  9 14  2  0  0  0
 10 11  2  0  0  0
 11 12  1  0  0  0
 11 15  1  0  0  0
 12 13  2  0  0  0
  1  2  1  0  0  0
  1  5  1  0  0  0
  2 21  1  0  0  0
  2  3  1  0  0  0
 21 22  1  0  0  0
  3  4  1  0  0  0
  3  6  1  0  0  0
  4  5  1  0  0  0
  4 18  1  0  0  0
 18 19  1  0  0  0
 22 23  2  0  0  0
 22 24  1  0  0  0
 22 25  1  0  0  0
 15 16  1  0  0  0
 15 17  1  0  0  0
  6  7  1  0  0  0
 19 20  1  0  0  0
 24 26  1  0  0  0
 25 27  1  0  0  0
M  END
> <minimizedAffinity>
-5.46995

$$$$
1JVU_C2P_A_130


 27 28  0  0  0  0  0  0  0  0999 V2000
   37.9975   -0.0126   22.7879 C   0  0  0  0  0  0  0  0  0  0  0  0
   39.4956   -0.1501   23.0959 C   0  0  0  0  0  0  0  0  0  0  0  0
   39.4671   -1.3379   24.0517 C   0  0  0  0  0  0  0  0  0  0  0  0
   38.4408   -2.2358   23.3890 C   0  0  0  0  0  0  0  0  0  0  0  0
   37.4178   -1.2993   22.9455 O   0  0  0  0  0  0  0  0  0  0  0  0
   40.6964   -1.9993   24.2085 O   0  0  0  0  0  0  0  0  0  0  0  0
   41.0039   -2.3188   23.3458 H   0  0  0  0  0  0  0  0  0  0  0  0
   37.2829    0.9174   23.6715 N   0  0  0  0  0  0  0  0  0  0  0  0
   37.2851    2.2807   23.3498 C   0  0  0  0  0  0  0  0  0  0  0  0
   36.5670    3.1483   24.1163 N   0  0  0  0  0  0  0  0  0  0  0  0
   35.8941    2.6969   25.1837 C   0  0  0  0  0  0  0  0  0  0  0  0
   35.9127    1.3073   25.5560 C   0  0  0  0  0  0  0  0  0  0  0  0
   36.6139    0.4624   24.7783 C   0  0  0  0  0  0  0  0  0  0  0  0
   37.9517    2.6629   22.3682 O   0  0  0  0  0  0  0  0  0  0  0  0
   35.1919    3.5734   25.8901 N   0  0  0  0  0  0  0  0  0  0  0  0
   35.1841    4.5226   25.6291 H   0  0  0  0  0  0  0  0  0  0  0  0
   34.6786    3.2745   26.6752 H   0  0  0  0  0  0  0  0  0  0  0  0
   37.8401   -3.2697   24.2966 C   0  0  0  0  0  0  0  0  0  0  0  0
   36.4563   -2.9606   24.5370 O   0  0  0  0  0  0  0  0  0  0  0  0
   36.3880   -2.0887   24.9567 H   0  0  0  0  0  0  0  0  0  0  0  0
   40.0594   -0.3024   21.7930 O   0  0  0  0  0  0  0  0  0  0  0  0
   40.6195    0.9822   20.9522 P   0  0  0  0  0  0  0  0  0  0  0  0
   41.7192    0.3771   20.1259 O   0  0  0  0  0  0  0  0  0  0  0  0
   40.9128    2.1109   21.8865 O   0  0  0  0  0  0  0  0  0  0  0  0
   39.4755    1.4486   19.9520 O   0  0  0  0  0  0  0  0  0  0  0  0
   41.6101    1.8449   22.5061 H   0  0  0  0  0  0  0  0  0  0  0  0
   39.2707    0.7277   19.3361 H   0  0  0  0  0  0  0  0  0  0  0  0
  8  9  1  0  0  0
  8 13  1  0  0  0
  8  1  1  0  0  0
  9 10  1  0  0  0
  9 14  2  0  0  0
 10 11  2  0  0  0
 11 12  1  0  0  0
 11 15  1  0  0  0
 12 13  2  0  0  0
  1  2  1  0  0  0
  1  5  1  0  0  0
  2 21  1  0  0  0
  2  3  1  0  0  0
 21 22  1  0  0  0
  3  4  1  0  0  0
  3  6  1  0  0  0
  4  5  1  0  0  0
  4 18  1  0  0  0
 18 19  1  0  0  0
 22 23  2  0  0  0
 22 24  1  0  0  0
 22 25  1  0  0  0
 15 16  1  0  0  0
 15 17  1  0  0  0
  6  7  1  0  0  0
 19 20  1  0  0  0
 24 26  1  0  0  0
 25 27  1  0  0  0
M  END
> <minimizedAffinity>
-5.45259

$$$$
1JVU_C2P_A_130


 27 28  0  0  0  0  0  0  0  0999 V2000
   38.1962    0.4116   24.0284 C   0  0  0  0  0  0  0  0  0  0  0  0
   37.9540    1.5137   22.9868 C   0  0  0  0  0  0  0  0  0  0  0  0
   36.5396    1.9384   23.3666 C   0  0  0  0  0  0  0  0  0  0  0  0
   36.6130    1.9173   24.8808 C   0  0  0  0  0  0  0  0  0  0  0  0
   37.3935    0.7198   25.1585 O   0  0  0  0  0  0  0  0  0  0  0  0
   36.1559    3.2040   22.8932 O   0  0  0  0  0  0  0  0  0  0  0  0
   36.7691    3.8753   23.2314 H   0  0  0  0  0  0  0  0  0  0  0  0
   37.8382   -0.9378   23.5731 N   0  0  0  0  0  0  0  0  0  0  0  0
   38.8316   -1.7304   22.9840 C   0  0  0  0  0  0  0  0  0  0  0  0
   38.5369   -3.0104   22.6225 N   0  0  0  0  0  0  0  0  0  0  0  0
   37.2976   -3.4870   22.8038 C   0  0  0  0  0  0  0  0  0  0  0  0
   36.2517   -2.6762   23.3684 C   0  0  0  0  0  0  0  0  0  0  0  0
   36.5649   -1.4199   23.7344 C   0  0  0  0  0  0  0  0  0  0  0  0
   39.9619   -1.2368   22.8027 O   0  0  0  0  0  0  0  0  0  0  0  0
   37.0602   -4.7452   22.4562 N   0  0  0  0  0  0  0  0  0  0  0  0
   37.7810   -5.2937   22.0705 H   0  0  0  0  0  0  0  0  0  0  0  0
   36.1631   -5.1303   22.5839 H   0  0  0  0  0  0  0  0  0  0  0  0
   35.2803    1.8394   25.5673 C   0  0  0  0  0  0  0  0  0  0  0  0
   34.7221    3.1586   25.6964 O   0  0  0  0  0  0  0  0  0  0  0  0
   35.3201    3.7127   26.2219 H   0  0  0  0  0  0  0  0  0  0  0  0
   39.0479    2.4000   23.2245 O   0  0  0  0  0  0  0  0  0  0  0  0
   40.3508    2.4281   22.2382 P   0  0  0  0  0  0  0  0  0  0  0  0
   41.4741    2.0739   23.1712 O   0  0  0  0  0  0  0  0  0  0  0  0
   40.3814    3.7125   21.4752 O   0  0  0  0  0  0  0  0  0  0  0  0
   40.2028    1.2350   21.1983 O   0  0  0  0  0  0  0  0  0  0  0  0
   40.4715    4.4541   22.0940 H   0  0  0  0  0  0  0  0  0  0  0  0
   40.1810    0.3909   21.6756 H   0  0  0  0  0  0  0  0  0  0  0  0
  8  9  1  0  0  0
  8 13  1  0  0  0
  8  1  1  0  0  0
  9 10  1  0  0  0
  9 14  2  0  0  0
 10 11  2  0  0  0
 11 12  1  0  0  0
 11 15  1  0  0  0
 12 13  2  0  0  0
  1  2  1  0  0  0
  1  5  1  0  0  0
  2 21  1  0  0  0
  2  3  1  0  0  0
 21 22  1  0  0  0
  3  4  1  0  0  0
  3  6  1  0  0  0
  4  5  1  0  0  0
  4 18  1  0  0  0
 18 19  1  0  0  0
 22 23  2  0  0  0
 22 24  1  0  0  0
 22 25  1  0  0  0
 15 16  1  0  0  0
 15 17  1  0  0  0
  6  7  1  0  0  0
 19 20  1  0  0  0
 24 26  1  0  0  0
 25 27  1  0  0  0
M  END
> <minimizedAffinity>
-5.41532

$$$$
1JVU_C2P_A_130


 27 28  0  0  0  0  0  0  0  0999 V2000
   37.3066    2.6790   22.3040 C   0  0  0  0  0  0  0  0  0  0  0  0
   37.3914    3.8699   23.2698 C   0  0  0  0  0  0  0  0  0  0  0  0
   38.6783    4.5244   22.7793 C   0  0  0  0  0  0  0  0  0  0  0  0
   38.5303    4.3954   21.2760 C   0  0  0  0  0  0  0  0  0  0  0  0
   37.9759    3.0591   21.1106 O   0  0  0  0  0  0  0  0  0  0  0  0
   38.8411    5.8663   23.1614 O   0  0  0  0  0  0  0  0  0  0  0  0
   38.0954    6.3900   22.8287 H   0  0  0  0  0  0  0  0  0  0  0  0
   37.9361    1.4503   22.8046 N   0  0  0  0  0  0  0  0  0  0  0  0
   37.3432    0.7886   23.8875 C   0  0  0  0  0  0  0  0  0  0  0  0
   37.8708   -0.3912   24.3184 N   0  0  0  0  0  0  0  0  0  0  0  0
   38.9648   -0.8895   23.7261 C   0  0  0  0  0  0  0  0  0  0  0  0
   39.6137   -0.2047   22.6397 C   0  0  0  0  0  0  0  0  0  0  0  0
   39.0695    0.9509   22.2169 C   0  0  0  0  0  0  0  0  0  0  0  0
   36.3469    1.3040   24.4312 O   0  0  0  0  0  0  0  0  0  0  0  0
   39.4327   -2.0509   24.1646 N   0  0  0  0  0  0  0  0  0  0  0  0
   38.9833   -2.5135   24.9084 H   0  0  0  0  0  0  0  0  0  0  0  0
   40.2295   -2.4502   23.7463 H   0  0  0  0  0  0  0  0  0  0  0  0
   39.8157    4.5227   20.5110 C   0  0  0  0  0  0  0  0  0  0  0  0
   40.1477    5.9123   20.3461 O   0  0  0  0  0  0  0  0  0  0  0  0
   39.4390    6.3582   19.8563 H   0  0  0  0  0  0  0  0  0  0  0  0
   36.1391    4.5217   23.0567 O   0  0  0  0  0  0  0  0  0  0  0  0
   35.2832    5.1486   24.2999 P   0  0  0  0  0  0  0  0  0  0  0  0
   36.1093    6.3392   24.6973 O   0  0  0  0  0  0  0  0  0  0  0  0
   34.9770    4.0775   25.2958 O   0  0  0  0  0  0  0  0  0  0  0  0
   33.9083    5.6965   23.7199 O   0  0  0  0  0  0  0  0  0  0  0  0
   35.8054    3.7299   25.6617 H   0  0  0  0  0  0  0  0  0  0  0  0
   34.0866    6.3943   23.0702 H   0  0  0  0  0  0  0  0  0  0  0  0
  8  9  1  0  0  0
  8 13  1  0  0  0
  8  1  1  0  0  0
  9 10  1  0  0  0
  9 14  2  0  0  0
 10 11  2  0  0  0
 11 12  1  0  0  0
 11 15  1  0  0  0
 12 13  2  0  0  0
  1  2  1  0  0  0
  1  5  1  0  0  0
  2 21  1  0  0  0
  2  3  1  0  0  0
 21 22  1  0  0  0
  3  4  1  0  0  0
  3  6  1  0  0  0
  4  5  1  0  0  0
  4 18  1  0  0  0
 18 19  1  0  0  0
 22 23  2  0  0  0
 22 24  1  0  0  0
 22 25  1  0  0  0
 15 16  1  0  0  0
 15 17  1  0  0  0
  6  7  1  0  0  0
 19 20  1  0  0  0
 24 26  1  0  0  0
 25 27  1  0  0  0
M  END
> <minimizedAffinity>
-5.33732

$$$$
