1LZQ_0ZQ_A_201


 57 59  0  0  0  0  0  0  0  0999 V2000
  -23.5510   38.7426   27.1015 C   0  0  0  0  0  0  0  0  0  0  0  0
  -23.1940   39.3799   28.4418 C   0  0  0  0  0  0  0  0  0  0  0  0
  -23.3226   40.5880   28.6128 O   0  0  0  0  0  0  0  0  0  0  0  0
  -22.7290   38.5584   29.3766 N   0  0  0  0  0  0  0  0  0  0  0  0
  -22.6570   37.5986   29.1695 H   0  0  0  0  0  0  0  0  0  0  0  0
  -22.3218   39.0223   30.6955 C   0  0  0  0  0  0  0  0  0  0  0  0
  -20.8208   39.2991   30.6773 C   0  0  0  0  0  0  0  0  0  0  0  0
  -20.0940   38.7994   29.8121 O   0  0  0  0  0  0  0  0  0  0  0  0
  -20.3574   40.1070   31.6221 N   0  0  0  0  0  0  0  0  0  0  0  0
  -20.9760   40.5031   32.2776 H   0  0  0  0  0  0  0  0  0  0  0  0
  -18.9375   40.4077   31.6898 C   0  0  0  0  0  0  0  0  0  0  0  0
  -18.4163   40.3094   33.1254 C   0  0  0  0  0  0  0  0  0  0  0  0
  -17.4582   40.9847   33.5063 O   0  0  0  0  0  0  0  0  0  0  0  0
  -19.0712   39.4815   33.9290 N   0  0  0  0  0  0  0  0  0  0  0  0
  -19.8318   38.9599   33.5845 H   0  0  0  0  0  0  0  0  0  0  0  0
  -18.7965   39.3886   34.8698 H   0  0  0  0  0  0  0  0  0  0  0  0
  -18.6588   41.7965   31.0862 C   0  0  0  0  0  0  0  0  0  0  0  0
  -18.1979   41.7661   29.6528 C   0  0  0  0  0  0  0  0  0  0  0  0
  -17.3119   40.7848   29.2110 C   0  0  0  0  0  0  0  0  0  0  0  0
  -18.6477   42.7168   28.7405 C   0  0  0  0  0  0  0  0  0  0  0  0
  -16.8833   40.7520   27.8822 C   0  0  0  0  0  0  0  0  0  0  0  0
  -18.2189   42.6901   27.4056 C   0  0  0  0  0  0  0  0  0  0  0  0
  -17.3389   41.7063   26.9798 C   0  0  0  0  0  0  0  0  0  0  0  0
  -22.6608   37.9661   31.7582 C   0  0  0  0  0  0  0  0  0  0  0  0
  -23.2849   38.5120   33.0453 C   0  0  0  0  0  0  0  0  0  0  0  0
  -22.2576   38.7504   34.1461 C   0  0  0  0  0  0  0  0  0  0  0  0
  -21.9633   39.9264   34.4593 O   0  0  0  0  0  0  0  0  0  0  0  0
  -21.7473   37.7562   34.7032 O   0  0  0  0  0  0  0  0  0  0  0  0
  -21.9954   36.8923   34.4386 H   0  0  0  0  0  0  0  0  0  0  0  0
  -24.8607   38.0946   27.0436 N   0  0  0  0  0  0  0  0  0  0  0  0
  -25.4829   38.6889   26.4958 H   0  0  0  0  0  0  0  0  0  0  0  0
  -24.8687   36.7580   26.4461 C   0  0  0  0  0  0  0  0  0  0  0  0
  -24.9920   36.8138   24.9338 C   0  0  0  0  0  0  0  0  0  0  0  0
  -26.3340   36.3154   24.3933 C   0  0  0  0  0  0  0  0  0  0  0  0
  -28.5785   37.0297   26.0662 O   0  0  0  0  0  0  0  0  0  0  0  0
  -28.2956   37.6945   25.0806 C   0  0  0  0  0  0  0  0  0  0  0  0
  -27.2615   37.4389   24.2154 N   0  0  0  0  0  0  0  0  0  0  0  0
  -27.1363   38.0349   23.4419 H   0  0  0  0  0  0  0  0  0  0  0  0
  -28.9613   38.8340   24.6316 O   0  0  0  0  0  0  0  0  0  0  0  0
  -30.1738   38.8292   23.7233 C   0  0  0  0  0  0  0  0  0  0  0  0
  -31.0169   40.0257   24.1362 C   0  0  0  0  0  0  0  0  0  0  0  0
  -30.9584   37.5345   23.9286 C   0  0  0  0  0  0  0  0  0  0  0  0
  -29.7144   38.9669   22.2709 C   0  0  0  0  0  0  0  0  0  0  0  0
  -26.0983   35.5927   23.0582 C   0  0  0  0  0  0  0  0  0  0  0  0
  -25.9987   36.5133   21.8698 C   0  0  0  0  0  0  0  0  0  0  0  0
  -27.1059   36.7371   21.0568 C   0  0  0  0  0  0  0  0  0  0  0  0
  -24.8025   37.1809   21.5750 C   0  0  0  0  0  0  0  0  0  0  0  0
  -27.0299   37.6109   19.9664 C   0  0  0  0  0  0  0  0  0  0  0  0
  -24.7166   38.0557   20.4874 C   0  0  0  0  0  0  0  0  0  0  0  0
  -25.8355   38.2694   19.6822 C   0  0  0  0  0  0  0  0  0  0  0  0
  -23.4257   39.8159   26.0176 C   0  0  0  0  0  0  0  0  0  0  0  0
  -22.4110   39.4784   24.9549 C   0  0  0  0  0  0  0  0  0  0  0  0
  -22.7435   39.5571   23.6044 C   0  0  0  0  0  0  0  0  0  0  0  0
  -21.1139   39.1105   25.3039 C   0  0  0  0  0  0  0  0  0  0  0  0
  -21.8078   39.2759   22.6077 C   0  0  0  0  0  0  0  0  0  0  0  0
  -20.1642   38.8299   24.3183 C   0  0  0  0  0  0  0  0  0  0  0  0
  -20.5157   38.9136   22.9620 C   0  0  0  0  0  0  0  0  0  0  0  0
 35 36  2  0  0  0
 36 39  1  0  0  0
 39 40  1  0  0  0
 40 41  1  0  0  0
 40 42  1  0  0  0
 40 43  1  0  0  0
 37 34  1  0  0  0
 34 33  1  0  0  0
 34 44  1  0  0  0
 33 32  1  0  0  0
 44 45  1  0  0  0
 45 46  2  0  0  0
 45 47  1  0  0  0
 46 48  1  0  0  0
 47 49  2  0  0  0
 48 50  2  0  0  0
 49 50  1  0  0  0
 30  1  1  0  0  0
  1  2  1  0  0  0
  1 51  1  0  0  0
  2  3  2  0  0  0
 51 52  1  0  0  0
 52 53  2  0  0  0
 52 54  1  0  0  0
 53 55  1  0  0  0
 54 56  2  0  0  0
 55 57  2  0  0  0
 56 57  1  0  0  0
  4  6  1  0  0  0
  6  7  1  0  0  0
  6 24  1  0  0  0
  7  8  2  0  0  0
 24 25  1  0  0  0
 25 26  1  0  0  0
 26 27  2  0  0  0
 26 28  1  0  0  0
  9 11  1  0  0  0
 11 12  1  0  0  0
 11 17  1  0  0  0
 12 13  2  0  0  0
 17 18  1  0  0  0
 18 19  2  0  0  0
 18 20  1  0  0  0
 19 21  1  0  0  0
 20 22  2  0  0  0
 21 23  2  0  0  0
 22 23  1  0  0  0
 36 37  1  0  0  0
 32 30  1  0  0  0
  2  4  1  0  0  0
  7  9  1  0  0  0
 12 14  1  0  0  0
 37 38  1  0  0  0
 30 31  1  0  0  0
  4  5  1  0  0  0
 28 29  1  0  0  0
  9 10  1  0  0  0
 14 15  1  0  0  0
 14 16  1  0  0  0
M  END
> <minimizedAffinity>
-9.50766

$$$$
1LZQ_0ZQ_A_201


 57 59  0  0  0  0  0  0  0  0999 V2000
  -24.2111   36.5718   27.4281 C   0  0  0  0  0  0  0  0  0  0  0  0
  -25.5820   36.1604   26.8975 C   0  0  0  0  0  0  0  0  0  0  0  0
  -25.9457   34.9898   26.9485 O   0  0  0  0  0  0  0  0  0  0  0  0
  -26.3235   37.1305   26.3740 N   0  0  0  0  0  0  0  0  0  0  0  0
  -25.9680   38.0485   26.3712 H   0  0  0  0  0  0  0  0  0  0  0  0
  -27.6416   36.8887   25.8042 C   0  0  0  0  0  0  0  0  0  0  0  0
  -27.4762   36.1485   24.4796 C   0  0  0  0  0  0  0  0  0  0  0  0
  -27.9629   35.0248   24.3157 O   0  0  0  0  0  0  0  0  0  0  0  0
  -26.8025   36.7823   23.5286 N   0  0  0  0  0  0  0  0  0  0  0  0
  -26.4523   37.6875   23.6937 H   0  0  0  0  0  0  0  0  0  0  0  0
  -26.5813   36.1414   22.2436 C   0  0  0  0  0  0  0  0  0  0  0  0
  -25.2531   35.3814   22.2227 C   0  0  0  0  0  0  0  0  0  0  0  0
  -24.2182   35.9120   21.8146 O   0  0  0  0  0  0  0  0  0  0  0  0
  -25.2828   34.1406   22.6912 N   0  0  0  0  0  0  0  0  0  0  0  0
  -26.1312   33.7541   23.0077 H   0  0  0  0  0  0  0  0  0  0  0  0
  -24.4566   33.6062   22.7224 H   0  0  0  0  0  0  0  0  0  0  0  0
  -26.6490   37.1828   21.1115 C   0  0  0  0  0  0  0  0  0  0  0  0
  -28.0480   37.5449   20.6877 C   0  0  0  0  0  0  0  0  0  0  0  0
  -28.2954   38.7203   19.9804 C   0  0  0  0  0  0  0  0  0  0  0  0
  -29.1217   36.7129   20.9931 C   0  0  0  0  0  0  0  0  0  0  0  0
  -29.5911   39.0589   19.5839 C   0  0  0  0  0  0  0  0  0  0  0  0
  -30.4251   37.0490   20.5996 C   0  0  0  0  0  0  0  0  0  0  0  0
  -30.6558   38.2207   19.8944 C   0  0  0  0  0  0  0  0  0  0  0  0
  -28.3792   38.2188   25.5883 C   0  0  0  0  0  0  0  0  0  0  0  0
  -29.5052   38.1801   24.5515 C   0  0  0  0  0  0  0  0  0  0  0  0
  -29.9789   39.5694   24.1404 C   0  0  0  0  0  0  0  0  0  0  0  0
  -30.4438   39.7381   22.9902 O   0  0  0  0  0  0  0  0  0  0  0  0
  -29.8904   40.4945   24.9745 O   0  0  0  0  0  0  0  0  0  0  0  0
  -29.5361   40.3258   25.8253 H   0  0  0  0  0  0  0  0  0  0  0  0
  -23.0963   36.3826   26.5005 N   0  0  0  0  0  0  0  0  0  0  0  0
  -23.2824   35.5442   25.9503 H   0  0  0  0  0  0  0  0  0  0  0  0
  -22.8629   37.4909   25.5728 C   0  0  0  0  0  0  0  0  0  0  0  0
  -21.4312   37.5155   25.0677 C   0  0  0  0  0  0  0  0  0  0  0  0
  -20.8414   38.9195   24.9172 C   0  0  0  0  0  0  0  0  0  0  0  0
  -20.8714   40.6597   27.2231 O   0  0  0  0  0  0  0  0  0  0  0  0
  -19.8903   39.9779   26.9660 C   0  0  0  0  0  0  0  0  0  0  0  0
  -19.7668   39.1290   25.8947 N   0  0  0  0  0  0  0  0  0  0  0  0
  -18.9209   38.6395   25.7768 H   0  0  0  0  0  0  0  0  0  0  0  0
  -18.7036   39.9264   27.6955 O   0  0  0  0  0  0  0  0  0  0  0  0
  -17.9330   41.1354   28.1852 C   0  0  0  0  0  0  0  0  0  0  0  0
  -17.8360   42.0840   27.0004 C   0  0  0  0  0  0  0  0  0  0  0  0
  -16.5371   40.7029   28.6308 C   0  0  0  0  0  0  0  0  0  0  0  0
  -18.6988   41.7866   29.3380 C   0  0  0  0  0  0  0  0  0  0  0  0
  -20.3100   39.0879   23.4856 C   0  0  0  0  0  0  0  0  0  0  0  0
  -21.3813   39.0744   22.4264 C   0  0  0  0  0  0  0  0  0  0  0  0
  -21.2504   38.2650   21.3018 C   0  0  0  0  0  0  0  0  0  0  0  0
  -22.5384   39.8526   22.5633 C   0  0  0  0  0  0  0  0  0  0  0  0
  -22.2525   38.2262   20.3258 C   0  0  0  0  0  0  0  0  0  0  0  0
  -23.5452   39.8209   21.5933 C   0  0  0  0  0  0  0  0  0  0  0  0
  -23.3990   39.0042   20.4719 C   0  0  0  0  0  0  0  0  0  0  0  0
  -24.2976   38.0298   27.8857 C   0  0  0  0  0  0  0  0  0  0  0  0
  -23.5931   38.2899   29.1930 C   0  0  0  0  0  0  0  0  0  0  0  0
  -23.5023   37.2931   30.1619 C   0  0  0  0  0  0  0  0  0  0  0  0
  -22.9946   39.5223   29.4433 C   0  0  0  0  0  0  0  0  0  0  0  0
  -22.8289   37.5082   31.3654 C   0  0  0  0  0  0  0  0  0  0  0  0
  -22.3132   39.7523   30.6412 C   0  0  0  0  0  0  0  0  0  0  0  0
  -22.2312   38.7372   31.6071 C   0  0  0  0  0  0  0  0  0  0  0  0
 35 36  2  0  0  0
 36 39  1  0  0  0
 39 40  1  0  0  0
 40 41  1  0  0  0
 40 42  1  0  0  0
 40 43  1  0  0  0
 37 34  1  0  0  0
 34 33  1  0  0  0
 34 44  1  0  0  0
 33 32  1  0  0  0
 44 45  1  0  0  0
 45 46  2  0  0  0
 45 47  1  0  0  0
 46 48  1  0  0  0
 47 49  2  0  0  0
 48 50  2  0  0  0
 49 50  1  0  0  0
 30  1  1  0  0  0
  1  2  1  0  0  0
  1 51  1  0  0  0
  2  3  2  0  0  0
 51 52  1  0  0  0
 52 53  2  0  0  0
 52 54  1  0  0  0
 53 55  1  0  0  0
 54 56  2  0  0  0
 55 57  2  0  0  0
 56 57  1  0  0  0
  4  6  1  0  0  0
  6  7  1  0  0  0
  6 24  1  0  0  0
  7  8  2  0  0  0
 24 25  1  0  0  0
 25 26  1  0  0  0
 26 27  2  0  0  0
 26 28  1  0  0  0
  9 11  1  0  0  0
 11 12  1  0  0  0
 11 17  1  0  0  0
 12 13  2  0  0  0
 17 18  1  0  0  0
 18 19  2  0  0  0
 18 20  1  0  0  0
 19 21  1  0  0  0
 20 22  2  0  0  0
 21 23  2  0  0  0
 22 23  1  0  0  0
 36 37  1  0  0  0
 32 30  1  0  0  0
  2  4  1  0  0  0
  7  9  1  0  0  0
 12 14  1  0  0  0
 37 38  1  0  0  0
 30 31  1  0  0  0
  4  5  1  0  0  0
 28 29  1  0  0  0
  9 10  1  0  0  0
 14 15  1  0  0  0
 14 16  1  0  0  0
M  END
> <minimizedAffinity>
-9.40640

$$$$
1LZQ_0ZQ_A_201


 57 59  0  0  0  0  0  0  0  0999 V2000
  -26.3113   36.4769   22.9163 C   0  0  0  0  0  0  0  0  0  0  0  0
  -24.8076   36.7271   22.9967 C   0  0  0  0  0  0  0  0  0  0  0  0
  -24.0148   35.9303   22.5049 O   0  0  0  0  0  0  0  0  0  0  0  0
  -24.4297   37.8286   23.6361 N   0  0  0  0  0  0  0  0  0  0  0  0
  -25.1227   38.4246   24.0017 H   0  0  0  0  0  0  0  0  0  0  0  0
  -23.0304   38.1886   23.8172 C   0  0  0  0  0  0  0  0  0  0  0  0
  -22.8302   38.6776   25.2492 C   0  0  0  0  0  0  0  0  0  0  0  0
  -23.0925   39.8431   25.5641 O   0  0  0  0  0  0  0  0  0  0  0  0
  -22.3797   37.7847   26.1210 N   0  0  0  0  0  0  0  0  0  0  0  0
  -22.2065   36.8595   25.8326 H   0  0  0  0  0  0  0  0  0  0  0  0
  -22.1418   38.1716   27.5011 C   0  0  0  0  0  0  0  0  0  0  0  0
  -20.6565   38.0753   27.8574 C   0  0  0  0  0  0  0  0  0  0  0  0
  -19.9077   39.0482   27.7491 O   0  0  0  0  0  0  0  0  0  0  0  0
  -20.2396   36.8998   28.3096 N   0  0  0  0  0  0  0  0  0  0  0  0
  -20.8708   36.1476   28.3805 H   0  0  0  0  0  0  0  0  0  0  0  0
  -19.2989   36.7797   28.5742 H   0  0  0  0  0  0  0  0  0  0  0  0
  -23.0022   37.3160   28.4489 C   0  0  0  0  0  0  0  0  0  0  0  0
  -23.0479   37.8208   29.8670 C   0  0  0  0  0  0  0  0  0  0  0  0
  -22.7580   39.1529   30.1577 C   0  0  0  0  0  0  0  0  0  0  0  0
  -23.3812   36.9676   30.9155 C   0  0  0  0  0  0  0  0  0  0  0  0
  -22.8010   39.6255   31.4713 C   0  0  0  0  0  0  0  0  0  0  0  0
  -23.4236   37.4361   32.2366 C   0  0  0  0  0  0  0  0  0  0  0  0
  -23.1350   38.7646   32.5105 C   0  0  0  0  0  0  0  0  0  0  0  0
  -22.6288   39.2813   22.8148 C   0  0  0  0  0  0  0  0  0  0  0  0
  -21.6486   38.8391   21.7250 C   0  0  0  0  0  0  0  0  0  0  0  0
  -22.3442   38.2080   20.5243 C   0  0  0  0  0  0  0  0  0  0  0  0
  -22.7911   38.9504   19.6205 O   0  0  0  0  0  0  0  0  0  0  0  0
  -22.4386   36.9636   20.4832 O   0  0  0  0  0  0  0  0  0  0  0  0
  -22.0904   36.4441   21.1809 H   0  0  0  0  0  0  0  0  0  0  0  0
  -26.8072   36.0473   21.6093 N   0  0  0  0  0  0  0  0  0  0  0  0
  -27.7206   35.6140   21.7451 H   0  0  0  0  0  0  0  0  0  0  0  0
  -26.9548   37.1141   20.6175 C   0  0  0  0  0  0  0  0  0  0  0  0
  -28.2273   36.9596   19.8038 C   0  0  0  0  0  0  0  0  0  0  0  0
  -29.5108   37.2642   20.5794 C   0  0  0  0  0  0  0  0  0  0  0  0
  -31.7106   35.4000   20.7585 O   0  0  0  0  0  0  0  0  0  0  0  0
  -30.8192   35.3987   21.5944 C   0  0  0  0  0  0  0  0  0  0  0  0
  -29.7384   36.2443   21.6100 N   0  0  0  0  0  0  0  0  0  0  0  0
  -29.0876   36.1633   22.3443 H   0  0  0  0  0  0  0  0  0  0  0  0
  -30.7195   34.5517   22.6971 O   0  0  0  0  0  0  0  0  0  0  0  0
  -31.4231   34.7656   24.0218 C   0  0  0  0  0  0  0  0  0  0  0  0
  -30.3790   35.3376   24.9682 C   0  0  0  0  0  0  0  0  0  0  0  0
  -31.9352   33.4259   24.5481 C   0  0  0  0  0  0  0  0  0  0  0  0
  -32.5742   35.7535   23.8258 C   0  0  0  0  0  0  0  0  0  0  0  0
  -29.3923   38.6578   21.2152 C   0  0  0  0  0  0  0  0  0  0  0  0
  -30.5541   39.0315   22.0984 C   0  0  0  0  0  0  0  0  0  0  0  0
  -30.3403   39.4187   23.4180 C   0  0  0  0  0  0  0  0  0  0  0  0
  -31.8654   39.0227   21.6047 C   0  0  0  0  0  0  0  0  0  0  0  0
  -31.4109   39.7928   24.2379 C   0  0  0  0  0  0  0  0  0  0  0  0
  -32.9417   39.3946   22.4163 C   0  0  0  0  0  0  0  0  0  0  0  0
  -32.7108   39.7802   23.7368 C   0  0  0  0  0  0  0  0  0  0  0  0
  -26.6817   35.4617   24.0001 C   0  0  0  0  0  0  0  0  0  0  0  0
  -26.7010   36.0484   25.3888 C   0  0  0  0  0  0  0  0  0  0  0  0
  -27.5294   37.1262   25.6934 C   0  0  0  0  0  0  0  0  0  0  0  0
  -25.9127   35.5043   26.3999 C   0  0  0  0  0  0  0  0  0  0  0  0
  -27.5806   37.6628   26.9808 C   0  0  0  0  0  0  0  0  0  0  0  0
  -25.9554   36.0271   27.6948 C   0  0  0  0  0  0  0  0  0  0  0  0
  -26.7954   37.1135   27.9849 C   0  0  0  0  0  0  0  0  0  0  0  0
 35 36  2  0  0  0
 36 39  1  0  0  0
 39 40  1  0  0  0
 40 41  1  0  0  0
 40 42  1  0  0  0
 40 43  1  0  0  0
 37 34  1  0  0  0
 34 33  1  0  0  0
 34 44  1  0  0  0
 33 32  1  0  0  0
 44 45  1  0  0  0
 45 46  2  0  0  0
 45 47  1  0  0  0
 46 48  1  0  0  0
 47 49  2  0  0  0
 48 50  2  0  0  0
 49 50  1  0  0  0
 30  1  1  0  0  0
  1  2  1  0  0  0
  1 51  1  0  0  0
  2  3  2  0  0  0
 51 52  1  0  0  0
 52 53  2  0  0  0
 52 54  1  0  0  0
 53 55  1  0  0  0
 54 56  2  0  0  0
 55 57  2  0  0  0
 56 57  1  0  0  0
  4  6  1  0  0  0
  6  7  1  0  0  0
  6 24  1  0  0  0
  7  8  2  0  0  0
 24 25  1  0  0  0
 25 26  1  0  0  0
 26 27  2  0  0  0
 26 28  1  0  0  0
  9 11  1  0  0  0
 11 12  1  0  0  0
 11 17  1  0  0  0
 12 13  2  0  0  0
 17 18  1  0  0  0
 18 19  2  0  0  0
 18 20  1  0  0  0
 19 21  1  0  0  0
 20 22  2  0  0  0
 21 23  2  0  0  0
 22 23  1  0  0  0
 36 37  1  0  0  0
 32 30  1  0  0  0
  2  4  1  0  0  0
  7  9  1  0  0  0
 12 14  1  0  0  0
 37 38  1  0  0  0
 30 31  1  0  0  0
  4  5  1  0  0  0
 28 29  1  0  0  0
  9 10  1  0  0  0
 14 15  1  0  0  0
 14 16  1  0  0  0
M  END
> <minimizedAffinity>
-9.26076

$$$$
1LZQ_0ZQ_A_201


 57 59  0  0  0  0  0  0  0  0999 V2000
  -23.5805   38.6125   27.2141 C   0  0  0  0  0  0  0  0  0  0  0  0
  -23.2111   39.3815   28.4799 C   0  0  0  0  0  0  0  0  0  0  0  0
  -23.3162   40.6032   28.5214 O   0  0  0  0  0  0  0  0  0  0  0  0
  -22.7623   38.6550   29.4975 N   0  0  0  0  0  0  0  0  0  0  0  0
  -22.7090   37.6774   29.3937 H   0  0  0  0  0  0  0  0  0  0  0  0
  -22.3460   39.2482   30.7606 C   0  0  0  0  0  0  0  0  0  0  0  0
  -20.8305   39.4289   30.7428 C   0  0  0  0  0  0  0  0  0  0  0  0
  -20.1224   38.7729   29.9718 O   0  0  0  0  0  0  0  0  0  0  0  0
  -20.3328   40.3288   31.5811 N   0  0  0  0  0  0  0  0  0  0  0  0
  -20.9360   40.8472   32.1613 H   0  0  0  0  0  0  0  0  0  0  0  0
  -18.8981   40.5497   31.6432 C   0  0  0  0  0  0  0  0  0  0  0  0
  -18.3845   40.4656   33.0824 C   0  0  0  0  0  0  0  0  0  0  0  0
  -17.4406   41.1587   33.4669 O   0  0  0  0  0  0  0  0  0  0  0  0
  -19.0300   39.6293   33.8849 N   0  0  0  0  0  0  0  0  0  0  0  0
  -19.7793   39.0934   33.5375 H   0  0  0  0  0  0  0  0  0  0  0  0
  -18.7598   39.5446   34.8278 H   0  0  0  0  0  0  0  0  0  0  0  0
  -18.5399   41.9012   30.9983 C   0  0  0  0  0  0  0  0  0  0  0  0
  -18.1052   41.8036   29.5598 C   0  0  0  0  0  0  0  0  0  0  0  0
  -18.4835   42.7755   28.6348 C   0  0  0  0  0  0  0  0  0  0  0  0
  -17.3168   40.7416   29.1252 C   0  0  0  0  0  0  0  0  0  0  0  0
  -18.0811   42.6897   27.3001 C   0  0  0  0  0  0  0  0  0  0  0  0
  -16.9118   40.6492   27.7858 C   0  0  0  0  0  0  0  0  0  0  0  0
  -17.2938   41.6249   26.8772 C   0  0  0  0  0  0  0  0  0  0  0  0
  -22.7667   38.3499   31.9337 C   0  0  0  0  0  0  0  0  0  0  0  0
  -23.3924   39.0814   33.1243 C   0  0  0  0  0  0  0  0  0  0  0  0
  -22.3595   39.5338   34.1500 C   0  0  0  0  0  0  0  0  0  0  0  0
  -21.9571   38.7169   35.0094 O   0  0  0  0  0  0  0  0  0  0  0  0
  -21.9453   40.7103   34.0917 O   0  0  0  0  0  0  0  0  0  0  0  0
  -22.2725   41.2901   33.4324 H   0  0  0  0  0  0  0  0  0  0  0  0
  -24.8516   37.8911   27.2663 N   0  0  0  0  0  0  0  0  0  0  0  0
  -25.4702   38.2901   26.5601 H   0  0  0  0  0  0  0  0  0  0  0  0
  -24.7603   36.4498   27.0262 C   0  0  0  0  0  0  0  0  0  0  0  0
  -25.9646   35.9243   26.2654 C   0  0  0  0  0  0  0  0  0  0  0  0
  -26.6684   36.9721   25.4004 C   0  0  0  0  0  0  0  0  0  0  0  0
  -25.6631   35.3706   23.2162 O   0  0  0  0  0  0  0  0  0  0  0  0
  -25.3785   36.5556   23.3064 C   0  0  0  0  0  0  0  0  0  0  0  0
  -25.7916   37.4019   24.3047 N   0  0  0  0  0  0  0  0  0  0  0  0
  -25.4865   38.3377   24.2850 H   0  0  0  0  0  0  0  0  0  0  0  0
  -24.5787   37.2842   22.4274 O   0  0  0  0  0  0  0  0  0  0  0  0
  -24.9488   37.6271   20.9988 C   0  0  0  0  0  0  0  0  0  0  0  0
  -24.2510   36.5988   20.1222 C   0  0  0  0  0  0  0  0  0  0  0  0
  -24.4475   39.0314   20.6663 C   0  0  0  0  0  0  0  0  0  0  0  0
  -26.4670   37.5347   20.8369 C   0  0  0  0  0  0  0  0  0  0  0  0
  -27.9699   36.3717   24.8472 C   0  0  0  0  0  0  0  0  0  0  0  0
  -28.8774   37.3756   24.1849 C   0  0  0  0  0  0  0  0  0  0  0  0
  -29.1458   38.5955   24.7985 C   0  0  0  0  0  0  0  0  0  0  0  0
  -29.4462   37.1143   22.9313 C   0  0  0  0  0  0  0  0  0  0  0  0
  -29.9663   39.5447   24.1787 C   0  0  0  0  0  0  0  0  0  0  0  0
  -30.2676   38.0562   22.3041 C   0  0  0  0  0  0  0  0  0  0  0  0
  -30.5269   39.2745   22.9322 C   0  0  0  0  0  0  0  0  0  0  0  0
  -23.5588   39.5938   26.0397 C   0  0  0  0  0  0  0  0  0  0  0  0
  -22.3851   39.3947   25.1146 C   0  0  0  0  0  0  0  0  0  0  0  0
  -21.1269   39.0772   25.6213 C   0  0  0  0  0  0  0  0  0  0  0  0
  -22.5444   39.4955   23.7347 C   0  0  0  0  0  0  0  0  0  0  0  0
  -20.0365   38.8614   24.7772 C   0  0  0  0  0  0  0  0  0  0  0  0
  -21.4640   39.2783   22.8759 C   0  0  0  0  0  0  0  0  0  0  0  0
  -20.2027   38.9595   23.4027 C   0  0  0  0  0  0  0  0  0  0  0  0
 35 36  2  0  0  0
 36 39  1  0  0  0
 39 40  1  0  0  0
 40 41  1  0  0  0
 40 42  1  0  0  0
 40 43  1  0  0  0
 37 34  1  0  0  0
 34 33  1  0  0  0
 34 44  1  0  0  0
 33 32  1  0  0  0
 44 45  1  0  0  0
 45 46  2  0  0  0
 45 47  1  0  0  0
 46 48  1  0  0  0
 47 49  2  0  0  0
 48 50  2  0  0  0
 49 50  1  0  0  0
 30  1  1  0  0  0
  1  2  1  0  0  0
  1 51  1  0  0  0
  2  3  2  0  0  0
 51 52  1  0  0  0
 52 53  2  0  0  0
 52 54  1  0  0  0
 53 55  1  0  0  0
 54 56  2  0  0  0
 55 57  2  0  0  0
 56 57  1  0  0  0
  4  6  1  0  0  0
  6  7  1  0  0  0
  6 24  1  0  0  0
  7  8  2  0  0  0
 24 25  1  0  0  0
 25 26  1  0  0  0
 26 27  2  0  0  0
 26 28  1  0  0  0
  9 11  1  0  0  0
 11 12  1  0  0  0
 11 17  1  0  0  0
 12 13  2  0  0  0
 17 18  1  0  0  0
 18 19  2  0  0  0
 18 20  1  0  0  0
 19 21  1  0  0  0
 20 22  2  0  0  0
 21 23  2  0  0  0
 22 23  1  0  0  0
 36 37  1  0  0  0
 32 30  1  0  0  0
  2  4  1  0  0  0
  7  9  1  0  0  0
 12 14  1  0  0  0
 37 38  1  0  0  0
 30 31  1  0  0  0
  4  5  1  0  0  0
 28 29  1  0  0  0
  9 10  1  0  0  0
 14 15  1  0  0  0
 14 16  1  0  0  0
M  END
> <minimizedAffinity>
-9.24027

$$$$
1LZQ_0ZQ_A_201


 57 59  0  0  0  0  0  0  0  0999 V2000
  -22.4193   38.1211   26.4777 C   0  0  0  0  0  0  0  0  0  0  0  0
  -21.2158   38.0677   27.4152 C   0  0  0  0  0  0  0  0  0  0  0  0
  -21.1327   37.1971   28.2757 O   0  0  0  0  0  0  0  0  0  0  0  0
  -20.3007   39.0163   27.2494 N   0  0  0  0  0  0  0  0  0  0  0  0
  -20.4318   39.6804   26.5345 H   0  0  0  0  0  0  0  0  0  0  0  0
  -19.1112   39.1123   28.0839 C   0  0  0  0  0  0  0  0  0  0  0  0
  -19.4348   39.9706   29.3040 C   0  0  0  0  0  0  0  0  0  0  0  0
  -20.2804   40.8690   29.2414 O   0  0  0  0  0  0  0  0  0  0  0  0
  -18.7740   39.6860   30.4187 N   0  0  0  0  0  0  0  0  0  0  0  0
  -18.1257   38.9452   30.4308 H   0  0  0  0  0  0  0  0  0  0  0  0
  -19.0065   40.4672   31.6215 C   0  0  0  0  0  0  0  0  0  0  0  0
  -17.9024   41.5058   31.8319 C   0  0  0  0  0  0  0  0  0  0  0  0
  -16.9526   41.2867   32.5862 O   0  0  0  0  0  0  0  0  0  0  0  0
  -18.0189   42.6308   31.1383 N   0  0  0  0  0  0  0  0  0  0  0  0
  -18.7940   42.7661   30.5466 H   0  0  0  0  0  0  0  0  0  0  0  0
  -17.3304   43.3302   31.2154 H   0  0  0  0  0  0  0  0  0  0  0  0
  -19.1412   39.5374   32.8414 C   0  0  0  0  0  0  0  0  0  0  0  0
  -20.5632   39.2206   33.2230 C   0  0  0  0  0  0  0  0  0  0  0  0
  -21.6012   39.3977   32.3096 C   0  0  0  0  0  0  0  0  0  0  0  0
  -20.8693   38.7442   34.4948 C   0  0  0  0  0  0  0  0  0  0  0  0
  -22.9211   39.1035   32.6588 C   0  0  0  0  0  0  0  0  0  0  0  0
  -22.1930   38.4493   34.8517 C   0  0  0  0  0  0  0  0  0  0  0  0
  -23.2152   38.6283   33.9317 C   0  0  0  0  0  0  0  0  0  0  0  0
  -17.9509   39.7270   27.2866 C   0  0  0  0  0  0  0  0  0  0  0  0
  -17.2567   40.9162   27.9559 C   0  0  0  0  0  0  0  0  0  0  0  0
  -17.6882   42.2574   27.3739 C   0  0  0  0  0  0  0  0  0  0  0  0
  -17.2633   42.5961   26.2459 O   0  0  0  0  0  0  0  0  0  0  0  0
  -18.4600   42.9722   28.0464 O   0  0  0  0  0  0  0  0  0  0  0  0
  -18.7549   42.6814   28.8870 H   0  0  0  0  0  0  0  0  0  0  0  0
  -23.7166   37.8768   27.1071 N   0  0  0  0  0  0  0  0  0  0  0  0
  -24.2887   38.7126   26.9857 H   0  0  0  0  0  0  0  0  0  0  0  0
  -24.4628   36.7357   26.5738 C   0  0  0  0  0  0  0  0  0  0  0  0
  -24.9065   36.9683   25.1405 C   0  0  0  0  0  0  0  0  0  0  0  0
  -26.2800   36.3834   24.8045 C   0  0  0  0  0  0  0  0  0  0  0  0
  -28.5808   37.2648   26.3132 O   0  0  0  0  0  0  0  0  0  0  0  0
  -28.2819   37.8012   25.2566 C   0  0  0  0  0  0  0  0  0  0  0  0
  -27.2205   37.4557   24.4583 N   0  0  0  0  0  0  0  0  0  0  0  0
  -27.0840   37.9485   23.6170 H   0  0  0  0  0  0  0  0  0  0  0  0
  -28.9536   38.8594   24.6463 O   0  0  0  0  0  0  0  0  0  0  0  0
  -30.1777   38.7171   23.7650 C   0  0  0  0  0  0  0  0  0  0  0  0
  -29.6997   38.9363   22.3379 C   0  0  0  0  0  0  0  0  0  0  0  0
  -31.2059   39.7806   24.1465 C   0  0  0  0  0  0  0  0  0  0  0  0
  -30.7563   37.3110   23.9314 C   0  0  0  0  0  0  0  0  0  0  0  0
  -26.1314   35.3970   23.6360 C   0  0  0  0  0  0  0  0  0  0  0  0
  -26.0576   36.0540   22.2822 C   0  0  0  0  0  0  0  0  0  0  0  0
  -27.2214   36.4098   21.6071 C   0  0  0  0  0  0  0  0  0  0  0  0
  -24.8215   36.3430   21.6892 C   0  0  0  0  0  0  0  0  0  0  0  0
  -27.1620   37.0442   20.3611 C   0  0  0  0  0  0  0  0  0  0  0  0
  -24.7518   36.9763   20.4444 C   0  0  0  0  0  0  0  0  0  0  0  0
  -25.9276   37.3268   19.7804 C   0  0  0  0  0  0  0  0  0  0  0  0
  -22.4058   39.4757   25.7654 C   0  0  0  0  0  0  0  0  0  0  0  0
  -22.2197   39.3658   24.2733 C   0  0  0  0  0  0  0  0  0  0  0  0
  -23.2341   39.7525   23.4003 C   0  0  0  0  0  0  0  0  0  0  0  0
  -21.0189   38.9036   23.7403 C   0  0  0  0  0  0  0  0  0  0  0  0
  -23.0675   39.6842   22.0163 C   0  0  0  0  0  0  0  0  0  0  0  0
  -20.8346   38.8331   22.3571 C   0  0  0  0  0  0  0  0  0  0  0  0
  -21.8670   39.2263   21.4914 C   0  0  0  0  0  0  0  0  0  0  0  0
 35 36  2  0  0  0
 36 39  1  0  0  0
 39 40  1  0  0  0
 40 41  1  0  0  0
 40 42  1  0  0  0
 40 43  1  0  0  0
 37 34  1  0  0  0
 34 33  1  0  0  0
 34 44  1  0  0  0
 33 32  1  0  0  0
 44 45  1  0  0  0
 45 46  2  0  0  0
 45 47  1  0  0  0
 46 48  1  0  0  0
 47 49  2  0  0  0
 48 50  2  0  0  0
 49 50  1  0  0  0
 30  1  1  0  0  0
  1  2  1  0  0  0
  1 51  1  0  0  0
  2  3  2  0  0  0
 51 52  1  0  0  0
 52 53  2  0  0  0
 52 54  1  0  0  0
 53 55  1  0  0  0
 54 56  2  0  0  0
 55 57  2  0  0  0
 56 57  1  0  0  0
  4  6  1  0  0  0
  6  7  1  0  0  0
  6 24  1  0  0  0
  7  8  2  0  0  0
 24 25  1  0  0  0
 25 26  1  0  0  0
 26 27  2  0  0  0
 26 28  1  0  0  0
  9 11  1  0  0  0
 11 12  1  0  0  0
 11 17  1  0  0  0
 12 13  2  0  0  0
 17 18  1  0  0  0
 18 19  2  0  0  0
 18 20  1  0  0  0
 19 21  1  0  0  0
 20 22  2  0  0  0
 21 23  2  0  0  0
 22 23  1  0  0  0
 36 37  1  0  0  0
 32 30  1  0  0  0
  2  4  1  0  0  0
  7  9  1  0  0  0
 12 14  1  0  0  0
 37 38  1  0  0  0
 30 31  1  0  0  0
  4  5  1  0  0  0
 28 29  1  0  0  0
  9 10  1  0  0  0
 14 15  1  0  0  0
 14 16  1  0  0  0
M  END
> <minimizedAffinity>
-9.22192

$$$$
1LZQ_0ZQ_A_201


 57 59  0  0  0  0  0  0  0  0999 V2000
  -23.9566   37.5123   26.2151 C   0  0  0  0  0  0  0  0  0  0  0  0
  -25.2077   36.7404   25.8039 C   0  0  0  0  0  0  0  0  0  0  0  0
  -25.4379   35.6296   26.2713 O   0  0  0  0  0  0  0  0  0  0  0  0
  -25.9966   37.3331   24.9145 N   0  0  0  0  0  0  0  0  0  0  0  0
  -25.7507   38.2281   24.5861 H   0  0  0  0  0  0  0  0  0  0  0  0
  -27.2110   36.7106   24.4061 C   0  0  0  0  0  0  0  0  0  0  0  0
  -26.9990   36.3453   22.9393 C   0  0  0  0  0  0  0  0  0  0  0  0
  -27.0886   35.1736   22.5580 O   0  0  0  0  0  0  0  0  0  0  0  0
  -26.7326   37.3485   22.1130 N   0  0  0  0  0  0  0  0  0  0  0  0
  -26.6943   38.2708   22.4552 H   0  0  0  0  0  0  0  0  0  0  0  0
  -26.4972   37.0867   20.7034 C   0  0  0  0  0  0  0  0  0  0  0  0
  -25.0128   37.2162   20.3542 C   0  0  0  0  0  0  0  0  0  0  0  0
  -24.2075   36.3288   20.6428 O   0  0  0  0  0  0  0  0  0  0  0  0
  -24.6593   38.3183   19.7058 N   0  0  0  0  0  0  0  0  0  0  0  0
  -25.3344   39.0031   19.4946 H   0  0  0  0  0  0  0  0  0  0  0  0
  -23.7220   38.4514   19.4359 H   0  0  0  0  0  0  0  0  0  0  0  0
  -27.3603   38.0227   19.8376 C   0  0  0  0  0  0  0  0  0  0  0  0
  -28.8291   37.9913   20.1687 C   0  0  0  0  0  0  0  0  0  0  0  0
  -29.4938   39.1504   20.5659 C   0  0  0  0  0  0  0  0  0  0  0  0
  -29.5522   36.8046   20.0842 C   0  0  0  0  0  0  0  0  0  0  0  0
  -30.8562   39.1259   20.8722 C   0  0  0  0  0  0  0  0  0  0  0  0
  -30.9199   36.7737   20.3928 C   0  0  0  0  0  0  0  0  0  0  0  0
  -31.5685   37.9354   20.7844 C   0  0  0  0  0  0  0  0  0  0  0  0
  -28.4019   37.6696   24.5547 C   0  0  0  0  0  0  0  0  0  0  0  0
  -29.7159   37.1785   23.9414 C   0  0  0  0  0  0  0  0  0  0  0  0
  -30.0108   35.7184   24.2654 C   0  0  0  0  0  0  0  0  0  0  0  0
  -30.2224   35.3899   25.4549 O   0  0  0  0  0  0  0  0  0  0  0  0
  -30.0362   34.8981   23.3244 O   0  0  0  0  0  0  0  0  0  0  0  0
  -29.8721   35.1854   22.4478 H   0  0  0  0  0  0  0  0  0  0  0  0
  -23.6578   37.5068   27.6467 N   0  0  0  0  0  0  0  0  0  0  0  0
  -22.6744   37.2622   27.7629 H   0  0  0  0  0  0  0  0  0  0  0  0
  -23.8936   38.7761   28.3372 C   0  0  0  0  0  0  0  0  0  0  0  0
  -22.9198   39.8528   27.8926 C   0  0  0  0  0  0  0  0  0  0  0  0
  -21.6093   39.8806   28.6821 C   0  0  0  0  0  0  0  0  0  0  0  0
  -20.2092   40.1928   31.1899 O   0  0  0  0  0  0  0  0  0  0  0  0
  -21.0077   39.2820   31.0277 C   0  0  0  0  0  0  0  0  0  0  0  0
  -21.7162   39.0368   29.8782 N   0  0  0  0  0  0  0  0  0  0  0  0
  -22.3224   38.2614   29.8550 H   0  0  0  0  0  0  0  0  0  0  0  0
  -21.3558   38.3097   31.9641 O   0  0  0  0  0  0  0  0  0  0  0  0
  -22.5181   38.4126   32.9305 C   0  0  0  0  0  0  0  0  0  0  0  0
  -23.5502   37.3992   32.4608 C   0  0  0  0  0  0  0  0  0  0  0  0
  -23.1012   39.8236   32.8768 C   0  0  0  0  0  0  0  0  0  0  0  0
  -22.0309   38.0744   34.3404 C   0  0  0  0  0  0  0  0  0  0  0  0
  -20.4690   39.3916   27.7760 C   0  0  0  0  0  0  0  0  0  0  0  0
  -19.2530   40.2810   27.7837 C   0  0  0  0  0  0  0  0  0  0  0  0
  -19.3921   41.6654   27.7522 C   0  0  0  0  0  0  0  0  0  0  0  0
  -17.9636   39.7365   27.8491 C   0  0  0  0  0  0  0  0  0  0  0  0
  -18.2692   42.4999   27.7856 C   0  0  0  0  0  0  0  0  0  0  0  0
  -16.8354   40.5620   27.8826 C   0  0  0  0  0  0  0  0  0  0  0  0
  -16.9917   41.9479   27.8504 C   0  0  0  0  0  0  0  0  0  0  0  0
  -22.7757   36.9648   25.4100 C   0  0  0  0  0  0  0  0  0  0  0  0
  -22.2703   37.9229   24.3613 C   0  0  0  0  0  0  0  0  0  0  0  0
  -23.1385   38.4641   23.4157 C   0  0  0  0  0  0  0  0  0  0  0  0
  -20.9319   38.3072   24.3375 C   0  0  0  0  0  0  0  0  0  0  0  0
  -22.6927   39.3744   22.4563 C   0  0  0  0  0  0  0  0  0  0  0  0
  -20.4706   39.2207   23.3862 C   0  0  0  0  0  0  0  0  0  0  0  0
  -21.3585   39.7563   22.4403 C   0  0  0  0  0  0  0  0  0  0  0  0
 35 36  2  0  0  0
 36 39  1  0  0  0
 39 40  1  0  0  0
 40 41  1  0  0  0
 40 42  1  0  0  0
 40 43  1  0  0  0
 37 34  1  0  0  0
 34 33  1  0  0  0
 34 44  1  0  0  0
 33 32  1  0  0  0
 44 45  1  0  0  0
 45 46  2  0  0  0
 45 47  1  0  0  0
 46 48  1  0  0  0
 47 49  2  0  0  0
 48 50  2  0  0  0
 49 50  1  0  0  0
 30  1  1  0  0  0
  1  2  1  0  0  0
  1 51  1  0  0  0
  2  3  2  0  0  0
 51 52  1  0  0  0
 52 53  2  0  0  0
 52 54  1  0  0  0
 53 55  1  0  0  0
 54 56  2  0  0  0
 55 57  2  0  0  0
 56 57  1  0  0  0
  4  6  1  0  0  0
  6  7  1  0  0  0
  6 24  1  0  0  0
  7  8  2  0  0  0
 24 25  1  0  0  0
 25 26  1  0  0  0
 26 27  2  0  0  0
 26 28  1  0  0  0
  9 11  1  0  0  0
 11 12  1  0  0  0
 11 17  1  0  0  0
 12 13  2  0  0  0
 17 18  1  0  0  0
 18 19  2  0  0  0
 18 20  1  0  0  0
 19 21  1  0  0  0
 20 22  2  0  0  0
 21 23  2  0  0  0
 22 23  1  0  0  0
 36 37  1  0  0  0
 32 30  1  0  0  0
  2  4  1  0  0  0
  7  9  1  0  0  0
 12 14  1  0  0  0
 37 38  1  0  0  0
 30 31  1  0  0  0
  4  5  1  0  0  0
 28 29  1  0  0  0
  9 10  1  0  0  0
 14 15  1  0  0  0
 14 16  1  0  0  0
M  END
> <minimizedAffinity>
-9.19127

$$$$
1LZQ_0ZQ_A_201


 57 59  0  0  0  0  0  0  0  0999 V2000
  -24.7788   37.8881   26.0055 C   0  0  0  0  0  0  0  0  0  0  0  0
  -25.7502   36.8730   25.4087 C   0  0  0  0  0  0  0  0  0  0  0  0
  -25.8199   35.7348   25.8612 O   0  0  0  0  0  0  0  0  0  0  0  0
  -26.4797   37.2933   24.3812 N   0  0  0  0  0  0  0  0  0  0  0  0
  -26.3736   38.2228   24.0744 H   0  0  0  0  0  0  0  0  0  0  0  0
  -27.4302   36.4328   23.6908 C   0  0  0  0  0  0  0  0  0  0  0  0
  -27.1568   36.5027   22.1907 C   0  0  0  0  0  0  0  0  0  0  0  0
  -27.8127   35.8235   21.3940 O   0  0  0  0  0  0  0  0  0  0  0  0
  -26.1989   37.3347   21.8028 N   0  0  0  0  0  0  0  0  0  0  0  0
  -25.7173   37.8757   22.4696 H   0  0  0  0  0  0  0  0  0  0  0  0
  -25.8603   37.4478   20.3944 C   0  0  0  0  0  0  0  0  0  0  0  0
  -24.3441   37.4560   20.1861 C   0  0  0  0  0  0  0  0  0  0  0  0
  -23.6846   36.4163   20.2422 O   0  0  0  0  0  0  0  0  0  0  0  0
  -23.7978   38.6349   19.9182 N   0  0  0  0  0  0  0  0  0  0  0  0
  -24.3609   39.4417   19.8827 H   0  0  0  0  0  0  0  0  0  0  0  0
  -22.8294   38.7030   19.7549 H   0  0  0  0  0  0  0  0  0  0  0  0
  -26.5160   38.7026   19.7891 C   0  0  0  0  0  0  0  0  0  0  0  0
  -27.5694   38.4108   18.7532 C   0  0  0  0  0  0  0  0  0  0  0  0
  -28.9027   38.2408   19.1226 C   0  0  0  0  0  0  0  0  0  0  0  0
  -27.2329   38.3057   17.4063 C   0  0  0  0  0  0  0  0  0  0  0  0
  -29.8830   37.9718   18.1649 C   0  0  0  0  0  0  0  0  0  0  0  0
  -28.2126   38.0336   16.4406 C   0  0  0  0  0  0  0  0  0  0  0  0
  -29.5357   37.8690   16.8227 C   0  0  0  0  0  0  0  0  0  0  0  0
  -28.8686   36.8772   23.9964 C   0  0  0  0  0  0  0  0  0  0  0  0
  -29.3418   38.1220   23.2409 C   0  0  0  0  0  0  0  0  0  0  0  0
  -30.1086   39.0964   24.1275 C   0  0  0  0  0  0  0  0  0  0  0  0
  -31.3487   39.1992   23.9882 O   0  0  0  0  0  0  0  0  0  0  0  0
  -29.4676   39.7576   24.9708 O   0  0  0  0  0  0  0  0  0  0  0  0
  -28.5395   39.6507   25.0427 H   0  0  0  0  0  0  0  0  0  0  0  0
  -24.9781   38.1898   27.4225 N   0  0  0  0  0  0  0  0  0  0  0  0
  -25.6722   37.5386   27.7893 H   0  0  0  0  0  0  0  0  0  0  0  0
  -23.7783   38.0898   28.2555 C   0  0  0  0  0  0  0  0  0  0  0  0
  -23.8619   36.9313   29.2334 C   0  0  0  0  0  0  0  0  0  0  0  0
  -22.9334   37.0606   30.4427 C   0  0  0  0  0  0  0  0  0  0  0  0
  -20.5349   36.9761   28.8344 O   0  0  0  0  0  0  0  0  0  0  0  0
  -20.8535   37.9943   29.4304 C   0  0  0  0  0  0  0  0  0  0  0  0
  -21.9616   38.1392   30.2270 N   0  0  0  0  0  0  0  0  0  0  0  0
  -22.1112   39.0041   30.6729 H   0  0  0  0  0  0  0  0  0  0  0  0
  -20.1618   39.2046   29.4303 O   0  0  0  0  0  0  0  0  0  0  0  0
  -19.7259   39.9547   28.1883 C   0  0  0  0  0  0  0  0  0  0  0  0
  -20.9834   40.1697   27.3604 C   0  0  0  0  0  0  0  0  0  0  0  0
  -18.7196   39.1088   27.4098 C   0  0  0  0  0  0  0  0  0  0  0  0
  -19.1133   41.2946   28.5993 C   0  0  0  0  0  0  0  0  0  0  0  0
  -23.7789   37.3377   31.6952 C   0  0  0  0  0  0  0  0  0  0  0  0
  -23.0844   38.1824   32.7315 C   0  0  0  0  0  0  0  0  0  0  0  0
  -22.2750   37.5903   33.6965 C   0  0  0  0  0  0  0  0  0  0  0  0
  -23.2169   39.5773   32.7294 C   0  0  0  0  0  0  0  0  0  0  0  0
  -21.6051   38.3692   34.6467 C   0  0  0  0  0  0  0  0  0  0  0  0
  -22.5518   40.3641   33.6749 C   0  0  0  0  0  0  0  0  0  0  0  0
  -21.7440   39.7553   34.6356 C   0  0  0  0  0  0  0  0  0  0  0  0
  -23.3548   37.3888   25.7498 C   0  0  0  0  0  0  0  0  0  0  0  0
  -22.6332   38.1612   24.6748 C   0  0  0  0  0  0  0  0  0  0  0  0
  -23.3323   39.0080   23.8175 C   0  0  0  0  0  0  0  0  0  0  0  0
  -21.2505   38.0648   24.5386 C   0  0  0  0  0  0  0  0  0  0  0  0
  -22.6761   39.7521   22.8358 C   0  0  0  0  0  0  0  0  0  0  0  0
  -20.5781   38.8061   23.5638 C   0  0  0  0  0  0  0  0  0  0  0  0
  -21.2975   39.6545   22.7078 C   0  0  0  0  0  0  0  0  0  0  0  0
 35 36  2  0  0  0
 36 39  1  0  0  0
 39 40  1  0  0  0
 40 41  1  0  0  0
 40 42  1  0  0  0
 40 43  1  0  0  0
 37 34  1  0  0  0
 34 33  1  0  0  0
 34 44  1  0  0  0
 33 32  1  0  0  0
 44 45  1  0  0  0
 45 46  2  0  0  0
 45 47  1  0  0  0
 46 48  1  0  0  0
 47 49  2  0  0  0
 48 50  2  0  0  0
 49 50  1  0  0  0
 30  1  1  0  0  0
  1  2  1  0  0  0
  1 51  1  0  0  0
  2  3  2  0  0  0
 51 52  1  0  0  0
 52 53  2  0  0  0
 52 54  1  0  0  0
 53 55  1  0  0  0
 54 56  2  0  0  0
 55 57  2  0  0  0
 56 57  1  0  0  0
  4  6  1  0  0  0
  6  7  1  0  0  0
  6 24  1  0  0  0
  7  8  2  0  0  0
 24 25  1  0  0  0
 25 26  1  0  0  0
 26 27  2  0  0  0
 26 28  1  0  0  0
  9 11  1  0  0  0
 11 12  1  0  0  0
 11 17  1  0  0  0
 12 13  2  0  0  0
 17 18  1  0  0  0
 18 19  2  0  0  0
 18 20  1  0  0  0
 19 21  1  0  0  0
 20 22  2  0  0  0
 21 23  2  0  0  0
 22 23  1  0  0  0
 36 37  1  0  0  0
 32 30  1  0  0  0
  2  4  1  0  0  0
  7  9  1  0  0  0
 12 14  1  0  0  0
 37 38  1  0  0  0
 30 31  1  0  0  0
  4  5  1  0  0  0
 28 29  1  0  0  0
  9 10  1  0  0  0
 14 15  1  0  0  0
 14 16  1  0  0  0
M  END
> <minimizedAffinity>
-9.03932

$$$$
1LZQ_0ZQ_A_201


 57 59  0  0  0  0  0  0  0  0999 V2000
  -26.6077   37.4996   25.6965 C   0  0  0  0  0  0  0  0  0  0  0  0
  -25.5597   36.9327   26.6507 C   0  0  0  0  0  0  0  0  0  0  0  0
  -25.7591   35.8755   27.2406 O   0  0  0  0  0  0  0  0  0  0  0  0
  -24.4562   37.6557   26.8065 N   0  0  0  0  0  0  0  0  0  0  0  0
  -24.3630   38.4926   26.2964 H   0  0  0  0  0  0  0  0  0  0  0  0
  -23.3790   37.2587   27.7024 C   0  0  0  0  0  0  0  0  0  0  0  0
  -22.8974   38.4887   28.4673 C   0  0  0  0  0  0  0  0  0  0  0  0
  -23.6662   39.4239   28.7134 O   0  0  0  0  0  0  0  0  0  0  0  0
  -21.6292   38.4832   28.8568 N   0  0  0  0  0  0  0  0  0  0  0  0
  -21.0576   37.7061   28.6604 H   0  0  0  0  0  0  0  0  0  0  0  0
  -21.0834   39.6235   29.5729 C   0  0  0  0  0  0  0  0  0  0  0  0
  -20.2105   40.4875   28.6599 C   0  0  0  0  0  0  0  0  0  0  0  0
  -20.5536   40.7478   27.5051 O   0  0  0  0  0  0  0  0  0  0  0  0
  -19.0892   40.9537   29.1942 N   0  0  0  0  0  0  0  0  0  0  0  0
  -18.8520   40.7216   30.1211 H   0  0  0  0  0  0  0  0  0  0  0  0
  -18.4944   41.5317   28.6639 H   0  0  0  0  0  0  0  0  0  0  0  0
  -20.3010   39.1487   30.8111 C   0  0  0  0  0  0  0  0  0  0  0  0
  -21.0978   39.1637   32.0890 C   0  0  0  0  0  0  0  0  0  0  0  0
  -20.4843   38.9021   33.3130 C   0  0  0  0  0  0  0  0  0  0  0  0
  -22.4623   39.4398   32.0734 C   0  0  0  0  0  0  0  0  0  0  0  0
  -21.2192   38.9169   34.5006 C   0  0  0  0  0  0  0  0  0  0  0  0
  -23.2056   39.4537   33.2624 C   0  0  0  0  0  0  0  0  0  0  0  0
  -22.5812   39.1938   34.4732 C   0  0  0  0  0  0  0  0  0  0  0  0
  -22.2244   36.6370   26.9022 C   0  0  0  0  0  0  0  0  0  0  0  0
  -22.1337   37.0764   25.4384 C   0  0  0  0  0  0  0  0  0  0  0  0
  -21.5732   38.4848   25.2770 C   0  0  0  0  0  0  0  0  0  0  0  0
  -22.3671   39.4477   25.1760 O   0  0  0  0  0  0  0  0  0  0  0  0
  -20.3330   38.6282   25.2570 O   0  0  0  0  0  0  0  0  0  0  0  0
  -19.7736   37.8807   25.3357 H   0  0  0  0  0  0  0  0  0  0  0  0
  -26.2234   37.5257   24.2857 N   0  0  0  0  0  0  0  0  0  0  0  0
  -25.4598   38.1935   24.1789 H   0  0  0  0  0  0  0  0  0  0  0  0
  -25.7828   36.2422   23.7361 C   0  0  0  0  0  0  0  0  0  0  0  0
  -24.7284   36.4190   22.6580 C   0  0  0  0  0  0  0  0  0  0  0  0
  -25.2910   36.5202   21.2386 C   0  0  0  0  0  0  0  0  0  0  0  0
  -28.0860   35.8346   20.9846 O   0  0  0  0  0  0  0  0  0  0  0  0
  -27.7345   37.0000   21.0929 C   0  0  0  0  0  0  0  0  0  0  0  0
  -26.4382   37.4353   21.2083 N   0  0  0  0  0  0  0  0  0  0  0  0
  -26.2704   38.4031   21.2737 H   0  0  0  0  0  0  0  0  0  0  0  0
  -28.5677   38.1174   21.1148 O   0  0  0  0  0  0  0  0  0  0  0  0
  -29.4513   38.5635   19.9677 C   0  0  0  0  0  0  0  0  0  0  0  0
  -30.1550   39.8257   20.4414 C   0  0  0  0  0  0  0  0  0  0  0  0
  -30.4751   37.4722   19.6598 C   0  0  0  0  0  0  0  0  0  0  0  0
  -28.5790   38.8567   18.7459 C   0  0  0  0  0  0  0  0  0  0  0  0
  -24.1826   37.0119   20.2951 C   0  0  0  0  0  0  0  0  0  0  0  0
  -23.2557   38.0269   20.9117 C   0  0  0  0  0  0  0  0  0  0  0  0
  -21.9075   37.7323   21.0919 C   0  0  0  0  0  0  0  0  0  0  0  0
  -23.7236   39.2921   21.2905 C   0  0  0  0  0  0  0  0  0  0  0  0
  -21.0338   38.6784   21.6395 C   0  0  0  0  0  0  0  0  0  0  0  0
  -22.8585   40.2441   21.8389 C   0  0  0  0  0  0  0  0  0  0  0  0
  -21.5097   39.9334   22.0130 C   0  0  0  0  0  0  0  0  0  0  0  0
  -27.9044   36.7108   25.8934 C   0  0  0  0  0  0  0  0  0  0  0  0
  -29.0332   37.1847   25.0134 C   0  0  0  0  0  0  0  0  0  0  0  0
  -29.8950   36.2717   24.4098 C   0  0  0  0  0  0  0  0  0  0  0  0
  -29.2526   38.5452   24.8121 C   0  0  0  0  0  0  0  0  0  0  0  0
  -30.9620   36.6946   23.6157 C   0  0  0  0  0  0  0  0  0  0  0  0
  -30.3187   38.9851   24.0235 C   0  0  0  0  0  0  0  0  0  0  0  0
  -31.1776   38.0520   23.4222 C   0  0  0  0  0  0  0  0  0  0  0  0
 35 36  2  0  0  0
 36 39  1  0  0  0
 39 40  1  0  0  0
 40 41  1  0  0  0
 40 42  1  0  0  0
 40 43  1  0  0  0
 37 34  1  0  0  0
 34 33  1  0  0  0
 34 44  1  0  0  0
 33 32  1  0  0  0
 44 45  1  0  0  0
 45 46  2  0  0  0
 45 47  1  0  0  0
 46 48  1  0  0  0
 47 49  2  0  0  0
 48 50  2  0  0  0
 49 50  1  0  0  0
 30  1  1  0  0  0
  1  2  1  0  0  0
  1 51  1  0  0  0
  2  3  2  0  0  0
 51 52  1  0  0  0
 52 53  2  0  0  0
 52 54  1  0  0  0
 53 55  1  0  0  0
 54 56  2  0  0  0
 55 57  2  0  0  0
 56 57  1  0  0  0
  4  6  1  0  0  0
  6  7  1  0  0  0
  6 24  1  0  0  0
  7  8  2  0  0  0
 24 25  1  0  0  0
 25 26  1  0  0  0
 26 27  2  0  0  0
 26 28  1  0  0  0
  9 11  1  0  0  0
 11 12  1  0  0  0
 11 17  1  0  0  0
 12 13  2  0  0  0
 17 18  1  0  0  0
 18 19  2  0  0  0
 18 20  1  0  0  0
 19 21  1  0  0  0
 20 22  2  0  0  0
 21 23  2  0  0  0
 22 23  1  0  0  0
 36 37  1  0  0  0
 32 30  1  0  0  0
  2  4  1  0  0  0
  7  9  1  0  0  0
 12 14  1  0  0  0
 37 38  1  0  0  0
 30 31  1  0  0  0
  4  5  1  0  0  0
 28 29  1  0  0  0
  9 10  1  0  0  0
 14 15  1  0  0  0
 14 16  1  0  0  0
M  END
> <minimizedAffinity>
-8.84070

$$$$
1LZQ_0ZQ_A_201


 57 59  0  0  0  0  0  0  0  0999 V2000
  -26.3571   36.5915   22.9042 C   0  0  0  0  0  0  0  0  0  0  0  0
  -24.8514   36.8347   22.9653 C   0  0  0  0  0  0  0  0  0  0  0  0
  -24.0717   36.0649   22.4133 O   0  0  0  0  0  0  0  0  0  0  0  0
  -24.4567   37.8987   23.6558 N   0  0  0  0  0  0  0  0  0  0  0  0
  -25.1400   38.4748   24.0687 H   0  0  0  0  0  0  0  0  0  0  0  0
  -23.0528   38.2461   23.8259 C   0  0  0  0  0  0  0  0  0  0  0  0
  -22.8355   38.7265   25.2583 C   0  0  0  0  0  0  0  0  0  0  0  0
  -23.0412   39.9040   25.5706 O   0  0  0  0  0  0  0  0  0  0  0  0
  -22.4339   37.8136   26.1332 N   0  0  0  0  0  0  0  0  0  0  0  0
  -22.3054   36.8805   25.8466 H   0  0  0  0  0  0  0  0  0  0  0  0
  -22.1837   38.1901   27.5140 C   0  0  0  0  0  0  0  0  0  0  0  0
  -20.6940   38.1013   27.8533 C   0  0  0  0  0  0  0  0  0  0  0  0
  -19.9599   39.0884   27.7761 O   0  0  0  0  0  0  0  0  0  0  0  0
  -20.2565   36.9154   28.2560 N   0  0  0  0  0  0  0  0  0  0  0  0
  -20.8764   36.1521   28.3034 H   0  0  0  0  0  0  0  0  0  0  0  0
  -19.3118   36.7987   28.5075 H   0  0  0  0  0  0  0  0  0  0  0  0
  -23.0276   37.3200   28.4635 C   0  0  0  0  0  0  0  0  0  0  0  0
  -23.0591   37.8104   29.8871 C   0  0  0  0  0  0  0  0  0  0  0  0
  -22.7592   39.1377   30.1891 C   0  0  0  0  0  0  0  0  0  0  0  0
  -23.3889   36.9483   30.9294 C   0  0  0  0  0  0  0  0  0  0  0  0
  -22.7890   39.5970   31.5077 C   0  0  0  0  0  0  0  0  0  0  0  0
  -23.4182   37.4034   32.2555 C   0  0  0  0  0  0  0  0  0  0  0  0
  -23.1197   38.7274   32.5407 C   0  0  0  0  0  0  0  0  0  0  0  0
  -22.6513   39.3403   22.8251 C   0  0  0  0  0  0  0  0  0  0  0  0
  -21.6294   38.9144   21.7674 C   0  0  0  0  0  0  0  0  0  0  0  0
  -22.2721   38.2353   20.5634 C   0  0  0  0  0  0  0  0  0  0  0  0
  -22.8736   38.9368   19.7185 O   0  0  0  0  0  0  0  0  0  0  0  0
  -22.1696   36.9952   20.4603 O   0  0  0  0  0  0  0  0  0  0  0  0
  -21.7107   36.5070   21.1153 H   0  0  0  0  0  0  0  0  0  0  0  0
  -26.8774   36.2019   21.5941 N   0  0  0  0  0  0  0  0  0  0  0  0
  -27.6209   35.5190   21.7401 H   0  0  0  0  0  0  0  0  0  0  0  0
  -27.4203   37.2972   20.7885 C   0  0  0  0  0  0  0  0  0  0  0  0
  -28.9188   37.1621   20.5842 C   0  0  0  0  0  0  0  0  0  0  0  0
  -29.7142   36.9618   21.8759 C   0  0  0  0  0  0  0  0  0  0  0  0
  -30.0036   39.0178   23.8849 O   0  0  0  0  0  0  0  0  0  0  0  0
  -30.8149   38.9106   22.9773 C   0  0  0  0  0  0  0  0  0  0  0  0
  -30.7782   37.9673   21.9812 N   0  0  0  0  0  0  0  0  0  0  0  0
  -31.4966   37.9650   21.3080 H   0  0  0  0  0  0  0  0  0  0  0  0
  -31.9374   39.7112   22.7714 O   0  0  0  0  0  0  0  0  0  0  0  0
  -33.1160   39.8129   23.7179 C   0  0  0  0  0  0  0  0  0  0  0  0
  -33.3728   38.4031   24.2273 C   0  0  0  0  0  0  0  0  0  0  0  0
  -34.3361   40.3300   22.9577 C   0  0  0  0  0  0  0  0  0  0  0  0
  -32.7537   40.7476   24.8732 C   0  0  0  0  0  0  0  0  0  0  0  0
  -30.3075   35.5446   21.8834 C   0  0  0  0  0  0  0  0  0  0  0  0
  -31.1179   35.2237   23.1122 C   0  0  0  0  0  0  0  0  0  0  0  0
  -32.4817   34.9662   23.0096 C   0  0  0  0  0  0  0  0  0  0  0  0
  -30.5136   35.1522   24.3743 C   0  0  0  0  0  0  0  0  0  0  0  0
  -33.2373   34.6415   24.1419 C   0  0  0  0  0  0  0  0  0  0  0  0
  -31.2602   34.8289   25.5117 C   0  0  0  0  0  0  0  0  0  0  0  0
  -32.6263   34.5733   25.3921 C   0  0  0  0  0  0  0  0  0  0  0  0
  -26.7121   35.5461   23.9642 C   0  0  0  0  0  0  0  0  0  0  0  0
  -26.7871   36.1104   25.3603 C   0  0  0  0  0  0  0  0  0  0  0  0
  -27.7296   37.0839   25.6835 C   0  0  0  0  0  0  0  0  0  0  0  0
  -25.9348   35.6468   26.3595 C   0  0  0  0  0  0  0  0  0  0  0  0
  -27.8313   37.5959   26.9779 C   0  0  0  0  0  0  0  0  0  0  0  0
  -26.0266   36.1460   27.6612 C   0  0  0  0  0  0  0  0  0  0  0  0
  -26.9816   37.1270   27.9701 C   0  0  0  0  0  0  0  0  0  0  0  0
 35 36  2  0  0  0
 36 39  1  0  0  0
 39 40  1  0  0  0
 40 41  1  0  0  0
 40 42  1  0  0  0
 40 43  1  0  0  0
 37 34  1  0  0  0
 34 33  1  0  0  0
 34 44  1  0  0  0
 33 32  1  0  0  0
 44 45  1  0  0  0
 45 46  2  0  0  0
 45 47  1  0  0  0
 46 48  1  0  0  0
 47 49  2  0  0  0
 48 50  2  0  0  0
 49 50  1  0  0  0
 30  1  1  0  0  0
  1  2  1  0  0  0
  1 51  1  0  0  0
  2  3  2  0  0  0
 51 52  1  0  0  0
 52 53  2  0  0  0
 52 54  1  0  0  0
 53 55  1  0  0  0
 54 56  2  0  0  0
 55 57  2  0  0  0
 56 57  1  0  0  0
  4  6  1  0  0  0
  6  7  1  0  0  0
  6 24  1  0  0  0
  7  8  2  0  0  0
 24 25  1  0  0  0
 25 26  1  0  0  0
 26 27  2  0  0  0
 26 28  1  0  0  0
  9 11  1  0  0  0
 11 12  1  0  0  0
 11 17  1  0  0  0
 12 13  2  0  0  0
 17 18  1  0  0  0
 18 19  2  0  0  0
 18 20  1  0  0  0
 19 21  1  0  0  0
 20 22  2  0  0  0
 21 23  2  0  0  0
 22 23  1  0  0  0
 36 37  1  0  0  0
 32 30  1  0  0  0
  2  4  1  0  0  0
  7  9  1  0  0  0
 12 14  1  0  0  0
 37 38  1  0  0  0
 30 31  1  0  0  0
  4  5  1  0  0  0
 28 29  1  0  0  0
  9 10  1  0  0  0
 14 15  1  0  0  0
 14 16  1  0  0  0
M  END
> <minimizedAffinity>
-8.75570

$$$$
1LZQ_0ZQ_A_201


 57 59  0  0  0  0  0  0  0  0999 V2000
  -24.4159   37.9841   26.1145 C   0  0  0  0  0  0  0  0  0  0  0  0
  -25.5862   37.0933   25.7058 C   0  0  0  0  0  0  0  0  0  0  0  0
  -25.7558   36.0014   26.2390 O   0  0  0  0  0  0  0  0  0  0  0  0
  -26.3739   37.5640   24.7452 N   0  0  0  0  0  0  0  0  0  0  0  0
  -26.1793   38.4515   24.3662 H   0  0  0  0  0  0  0  0  0  0  0  0
  -27.5140   36.8182   24.2309 C   0  0  0  0  0  0  0  0  0  0  0  0
  -27.2869   36.5337   22.7485 C   0  0  0  0  0  0  0  0  0  0  0  0
  -27.2950   35.3764   22.3162 O   0  0  0  0  0  0  0  0  0  0  0  0
  -27.0989   37.5887   21.9664 N   0  0  0  0  0  0  0  0  0  0  0  0
  -27.1244   38.4955   22.3488 H   0  0  0  0  0  0  0  0  0  0  0  0
  -26.8554   37.4065   20.5456 C   0  0  0  0  0  0  0  0  0  0  0  0
  -25.3850   37.6498   20.1979 C   0  0  0  0  0  0  0  0  0  0  0  0
  -24.8681   38.7593   20.3423 O   0  0  0  0  0  0  0  0  0  0  0  0
  -24.7059   36.5966   19.7624 N   0  0  0  0  0  0  0  0  0  0  0  0
  -25.1572   35.7274   19.6611 H   0  0  0  0  0  0  0  0  0  0  0  0
  -23.7507   36.6841   19.5407 H   0  0  0  0  0  0  0  0  0  0  0  0
  -27.7840   38.3209   19.7256 C   0  0  0  0  0  0  0  0  0  0  0  0
  -29.2444   38.1848   20.0671 C   0  0  0  0  0  0  0  0  0  0  0  0
  -29.9676   39.2758   20.5464 C   0  0  0  0  0  0  0  0  0  0  0  0
  -29.9012   36.9673   19.9105 C   0  0  0  0  0  0  0  0  0  0  0  0
  -31.3226   39.1543   20.8626 C   0  0  0  0  0  0  0  0  0  0  0  0
  -31.2610   36.8389   20.2286 C   0  0  0  0  0  0  0  0  0  0  0  0
  -31.9684   37.9338   20.7023 C   0  0  0  0  0  0  0  0  0  0  0  0
  -28.8084   37.6207   24.4321 C   0  0  0  0  0  0  0  0  0  0  0  0
  -30.0595   37.0130   23.7922 C   0  0  0  0  0  0  0  0  0  0  0  0
  -30.2488   35.5419   24.1438 C   0  0  0  0  0  0  0  0  0  0  0  0
  -30.4408   35.2218   25.3389 O   0  0  0  0  0  0  0  0  0  0  0  0
  -30.2105   34.7039   23.2189 O   0  0  0  0  0  0  0  0  0  0  0  0
  -30.0642   34.9855   22.3373 H   0  0  0  0  0  0  0  0  0  0  0  0
  -24.4463   38.4666   27.4947 N   0  0  0  0  0  0  0  0  0  0  0  0
  -25.2879   38.0995   27.9389 H   0  0  0  0  0  0  0  0  0  0  0  0
  -23.2964   38.0814   28.3148 C   0  0  0  0  0  0  0  0  0  0  0  0
  -22.4161   39.2718   28.6518 C   0  0  0  0  0  0  0  0  0  0  0  0
  -21.0270   38.8990   29.1744 C   0  0  0  0  0  0  0  0  0  0  0  0
  -19.2717   40.5010   27.5317 O   0  0  0  0  0  0  0  0  0  0  0  0
  -19.4838   40.7998   28.6975 C   0  0  0  0  0  0  0  0  0  0  0  0
  -20.2883   40.1054   29.5657 N   0  0  0  0  0  0  0  0  0  0  0  0
  -20.3737   40.4305   30.4911 H   0  0  0  0  0  0  0  0  0  0  0  0
  -18.9533   41.8923   29.3819 O   0  0  0  0  0  0  0  0  0  0  0  0
  -17.6322   41.8932   30.1236 C   0  0  0  0  0  0  0  0  0  0  0  0
  -17.9685   41.6563   31.5877 C   0  0  0  0  0  0  0  0  0  0  0  0
  -16.9526   43.2506   29.9510 C   0  0  0  0  0  0  0  0  0  0  0  0
  -16.7509   40.7665   29.5820 C   0  0  0  0  0  0  0  0  0  0  0  0
  -21.1815   37.9480   30.3712 C   0  0  0  0  0  0  0  0  0  0  0  0
  -21.5390   38.6374   31.6622 C   0  0  0  0  0  0  0  0  0  0  0  0
  -20.5442   39.0076   32.5624 C   0  0  0  0  0  0  0  0  0  0  0  0
  -22.8714   38.9424   31.9701 C   0  0  0  0  0  0  0  0  0  0  0  0
  -20.8646   39.6718   33.7518 C   0  0  0  0  0  0  0  0  0  0  0  0
  -23.2016   39.6055   33.1562 C   0  0  0  0  0  0  0  0  0  0  0  0
  -22.1928   39.9700   34.0481 C   0  0  0  0  0  0  0  0  0  0  0  0
  -23.1188   37.2221   25.8322 C   0  0  0  0  0  0  0  0  0  0  0  0
  -22.2739   37.8560   24.7564 C   0  0  0  0  0  0  0  0  0  0  0  0
  -22.7380   37.9402   23.4456 C   0  0  0  0  0  0  0  0  0  0  0  0
  -21.0263   38.3956   25.0600 C   0  0  0  0  0  0  0  0  0  0  0  0
  -21.9808   38.5495   22.4440 C   0  0  0  0  0  0  0  0  0  0  0  0
  -20.2577   39.0125   24.0697 C   0  0  0  0  0  0  0  0  0  0  0  0
  -20.7400   39.0887   22.7538 C   0  0  0  0  0  0  0  0  0  0  0  0
 35 36  2  0  0  0
 36 39  1  0  0  0
 39 40  1  0  0  0
 40 41  1  0  0  0
 40 42  1  0  0  0
 40 43  1  0  0  0
 37 34  1  0  0  0
 34 33  1  0  0  0
 34 44  1  0  0  0
 33 32  1  0  0  0
 44 45  1  0  0  0
 45 46  2  0  0  0
 45 47  1  0  0  0
 46 48  1  0  0  0
 47 49  2  0  0  0
 48 50  2  0  0  0
 49 50  1  0  0  0
 30  1  1  0  0  0
  1  2  1  0  0  0
  1 51  1  0  0  0
  2  3  2  0  0  0
 51 52  1  0  0  0
 52 53  2  0  0  0
 52 54  1  0  0  0
 53 55  1  0  0  0
 54 56  2  0  0  0
 55 57  2  0  0  0
 56 57  1  0  0  0
  4  6  1  0  0  0
  6  7  1  0  0  0
  6 24  1  0  0  0
  7  8  2  0  0  0
 24 25  1  0  0  0
 25 26  1  0  0  0
 26 27  2  0  0  0
 26 28  1  0  0  0
  9 11  1  0  0  0
 11 12  1  0  0  0
 11 17  1  0  0  0
 12 13  2  0  0  0
 17 18  1  0  0  0
 18 19  2  0  0  0
 18 20  1  0  0  0
 19 21  1  0  0  0
 20 22  2  0  0  0
 21 23  2  0  0  0
 22 23  1  0  0  0
 36 37  1  0  0  0
 32 30  1  0  0  0
  2  4  1  0  0  0
  7  9  1  0  0  0
 12 14  1  0  0  0
 37 38  1  0  0  0
 30 31  1  0  0  0
  4  5  1  0  0  0
 28 29  1  0  0  0
  9 10  1  0  0  0
 14 15  1  0  0  0
 14 16  1  0  0  0
M  END
> <minimizedAffinity>
-8.74046

$$$$
