3CF8_QUE_A_164
  RCSB PDB12061708103D
Coordinates from PDB:3CF8:A:164 Model:1 without hydrogens
 22 24  0  0  0  0            999 V2000
   11.9150   18.6260  -12.2090   C 0  0  0  0  0  0  0  0  0  0  0  0
   12.2600   17.5760  -11.3630   C 0  0  0  0  0  0  0  0  0  0  0  0
   13.4690   16.8820  -11.5480   C 0  0  0  0  0  0  0  0  0  0  0  0
   14.3410   17.2470  -12.5850   C 0  0  0  0  0  0  0  0  0  0  0  0
   13.9840   18.3070  -13.4220   C 0  0  0  0  0  0  0  0  0  0  0  0
   12.7780   18.9930  -13.2360   C 0  0  0  0  0  0  0  0  0  0  0  0
   13.8270   15.8340  -10.6990   C 0  0  0  0  0  0  0  0  0  0  0  0
   15.0340   15.1760  -10.8970   C 0  0  0  0  0  0  0  0  0  0  0  0
   15.8720   15.5550  -11.9550   C 0  0  0  0  0  0  0  0  0  0  0  0
   17.0790   14.8720  -12.0900   C 0  0  0  0  0  0  0  0  0  0  0  0
   17.1210   13.5200  -12.4430   C 0  0  0  0  0  0  0  0  0  0  0  0
   18.3550   12.8710  -12.5400   C 0  0  0  0  0  0  0  0  0  0  0  0
   19.5420   13.5680  -12.2800   C 0  0  0  0  0  0  0  0  0  0  0  0
   19.5040   14.9130  -11.9180   C 0  0  0  0  0  0  0  0  0  0  0  0
   18.2670   15.5630  -11.8190   C 0  0  0  0  0  0  0  0  0  0  0  0
   15.5440   16.5960  -12.8100   O 0  0  0  0  0  0  0  0  0  0  0  0
   13.1060   15.4930   -9.7600   O 0  0  0  0  0  0  0  0  0  0  0  0
   20.6650   15.5810  -11.6680   O 0  0  0  0  0  0  0  0  0  0  0  0
   20.7420   12.9420  -12.3770   O 0  0  0  0  0  0  0  0  0  0  0  0
   15.3890   14.1490  -10.0570   O 0  0  0  0  0  0  0  0  0  0  0  0
   12.4330   20.0320  -14.0540   O 0  0  0  0  0  0  0  0  0  0  0  0
   11.3970   17.2500  -10.3580   O 0  0  0  0  0  0  0  0  0  0  0  0
  1  2  2  0  0  0  0
  1  6  1  0  0  0  0
  2  3  1  0  0  0  0
  2 22  1  0  0  0  0
  3  4  2  0  0  0  0
  3  7  1  0  0  0  0
  4  5  1  0  0  0  0
  4 16  1  0  0  0  0
  5  6  2  0  0  0  0
  6 21  1  0  0  0  0
  7  8  1  0  0  0  0
  7 17  2  0  0  0  0
  8  9  2  0  0  0  0
  8 20  1  0  0  0  0
  9 10  1  0  0  0  0
  9 16  1  0  0  0  0
 10 11  2  0  0  0  0
 10 15  1  0  0  0  0
 11 12  1  0  0  0  0
 12 13  2  0  0  0  0
 13 14  1  0  0  0  0
 13 19  1  0  0  0  0
 14 15  2  0  0  0  0
 14 18  1  0  0  0  0
A    1
C1
A    2
C2
A    3
C3
A    4
C4
A    5
C5
A    6
C6
A    7
C9
A    8
C10
A    9
C11
A   10
C14
A   11
C15
A   12
C16
A   13
C17
A   14
C18
A   15
C19
A   16
O12
A   17
O13
A   18
O23
A   19
O24
A   20
O27
A   21
O29
A   22
O30
M  END
>  <InstanceId>
3CF8_QUE_A_164

>  <ChemCompId>
QUE

>  <PdbId>
3CF8

>  <ChainId>
A

>  <ResidueNumber>
164

>  <InsertionCode>


>  <Model>
1

>  <AltIds>


>  <MissingHeavyAtoms>
0

>  <ObservedFormula>
C15 O7

>  <Name>
3,5,7,3',4'-PENTAHYDROXYFLAVONE

>  <SystematicName>
2-(3,4-dihydroxyphenyl)-3,5,7-trihydroxy-chromen-4-one

>  <Synonyms>
QUERCETIN

>  <Type>
NON-POLYMER

>  <Formula>
C15 H10 O7

>  <MolecularWeight>
302.236

>  <ModifiedDate>
2012-01-10

>  <Parent>


>  <OneLetterCode>


>  <SubcomponentList>


>  <AmbiguousFlag>
N

>  <InChI>
InChI=1S/C15H10O7/c16-7-4-10(19)12-11(5-7)22-15(14(21)13(12)20)6-1-2-8(17)9(18)3-6/h1-5,16-19,21H

>  <InChIKey>
REFJWTPEDVJJIY-UHFFFAOYSA-N

>  <SMILES>
c1cc(c(cc1C2=C(C(=O)c3c(cc(cc3O2)O)O)O)O)O

$$$$
