5XMX_89L_A_900


 33 35  0  0  0  0  0  0  0  0999 V2000
    3.3895   -3.1124   48.9968 C   0  0  0  0  0  0  0  0  0  0  0  0
    2.2531   -5.2735   47.6770 C   0  0  0  0  0  0  0  0  0  0  0  0
    1.7619   -3.9568   47.4908 C   0  0  0  0  0  0  0  0  0  0  0  0
    2.3041   -2.9005   48.1885 C   0  0  0  0  0  0  0  0  0  0  0  0
    3.9015   -4.4120   49.1732 C   0  0  0  0  0  0  0  0  0  0  0  0
    3.3439   -5.5082   48.4890 C   0  0  0  0  0  0  0  0  0  0  0  0
    3.9176   -1.8464   49.6950 C   0  0  0  0  0  0  0  0  0  0  0  0
    6.0871   -1.4822   48.3938 C   0  0  0  0  0  0  0  0  0  0  0  0
    7.3748   -1.7547   50.6949 O   0  0  0  0  0  0  0  0  0  0  0  0
    6.1266   -1.8341   50.7460 C   0  0  0  0  0  0  0  0  0  0  0  0
    5.3654   -1.7216   49.6720 N   0  0  0  0  0  0  0  0  0  0  0  0
    5.1221   -3.3520   52.4589 C   0  0  0  0  0  0  0  0  0  0  0  0
    4.6629   -3.5297   53.7663 C   0  0  0  0  0  0  0  0  0  0  0  0
    4.7225   -2.4430   54.6824 C   0  0  0  0  0  0  0  0  0  0  0  0
    5.5964   -1.0321   52.9825 C   0  0  0  0  0  0  0  0  0  0  0  0
    5.5703   -2.1014   52.0844 C   0  0  0  0  0  0  0  0  0  0  0  0
    5.1834   -1.1847   54.2781 C   0  0  0  0  0  0  0  0  0  0  0  0
    4.2462   -2.5941   56.0662 C   0  0  0  0  0  0  0  0  0  0  0  0
    3.4723   -3.6568   56.5374 C   0  0  0  0  0  0  0  0  0  0  0  0
    3.9506   -2.3449   58.2450 C   0  0  0  0  0  0  0  0  0  0  0  0
    3.2645   -3.4536   57.8536 C   0  0  0  0  0  0  0  0  0  0  0  0
    4.5996   -1.8015   57.1390 O   0  0  0  0  0  0  0  0  0  0  0  0
    1.8320   -1.5847   48.0898 O   0  0  0  0  0  0  0  0  0  0  0  0
    0.4453   -1.3339   48.0637 C   0  0  0  0  0  0  0  0  0  0  0  0
   -0.9181    0.6287   48.3583 C   0  0  0  0  0  0  0  0  0  0  0  0
    0.1768    0.1186   47.8305 C   0  0  0  0  0  0  0  0  0  0  0  0
   -1.8361   -0.2260   49.1838 C   0  0  0  0  0  0  0  0  0  0  0  0
   -1.3021    2.0574   48.1822 C   0  0  0  0  0  0  0  0  0  0  0  0
   -0.1259    2.9601   47.9339 C   0  0  0  0  0  0  0  0  0  0  0  0
   -0.0703    3.5189   46.5581 C   0  0  0  0  0  0  0  0  0  0  0  0
    0.7369    2.8873   45.8173 O   0  0  0  0  0  0  0  0  0  0  0  0
   -0.7952    4.4756   46.1581 O   0  0  0  0  0  0  0  0  0  0  0  0
    1.2479    2.1864   46.1718 H   0  0  0  0  0  0  0  0  0  0  0  0
 32 30  2  0  0  0
 31 30  1  0  0  0
 30 29  1  0  0  0
  2  3  2  0  0  0
  2  6  1  0  0  0
  3  4  1  0  0  0
 26 24  1  0  0  0
 26 25  2  0  0  0
 29 28  1  0  0  0
 24 23  1  0  0  0
  8 11  1  0  0  0
  6  5  2  0  0  0
  4 23  1  0  0  0
  4  1  2  0  0  0
 28 25  1  0  0  0
 25 27  1  0  0  0
  5  1  1  0  0  0
  1  7  1  0  0  0
 11  7  1  0  0  0
 11 10  1  0  0  0
  9 10  2  0  0  0
 10 16  1  0  0  0
 16 12  2  0  0  0
 16 15  1  0  0  0
 12 13  1  0  0  0
 15 17  2  0  0  0
 13 14  2  0  0  0
 17 14  1  0  0  0
 14 18  1  0  0  0
 18 19  2  0  0  0
 18 22  1  0  0  0
 19 21  1  0  0  0
 22 20  1  0  0  0
 21 20  2  0  0  0
 31 33  1  0  0  0
M  END
> <minimizedAffinity>
-10.89379

$$$$
5XMX_89L_A_900


 33 35  0  0  0  0  0  0  0  0999 V2000
    3.7684   -3.6879   50.1599 C   0  0  0  0  0  0  0  0  0  0  0  0
    3.9354   -3.5555   52.9272 C   0  0  0  0  0  0  0  0  0  0  0  0
    4.5472   -2.5755   52.1057 C   0  0  0  0  0  0  0  0  0  0  0  0
    4.4971   -2.6797   50.7335 C   0  0  0  0  0  0  0  0  0  0  0  0
    3.1371   -4.6552   50.9648 C   0  0  0  0  0  0  0  0  0  0  0  0
    3.1992   -4.5804   52.3688 C   0  0  0  0  0  0  0  0  0  0  0  0
    3.7684   -3.6745   48.6208 C   0  0  0  0  0  0  0  0  0  0  0  0
    2.8411   -5.9154   47.8138 C   0  0  0  0  0  0  0  0  0  0  0  0
    0.6546   -4.6110   47.0754 O   0  0  0  0  0  0  0  0  0  0  0  0
    1.5524   -3.9259   47.6154 C   0  0  0  0  0  0  0  0  0  0  0  0
    2.6936   -4.4505   48.0251 N   0  0  0  0  0  0  0  0  0  0  0  0
    2.1040   -1.5221   47.2100 C   0  0  0  0  0  0  0  0  0  0  0  0
    1.7216   -0.1820   47.3082 C   0  0  0  0  0  0  0  0  0  0  0  0
    0.4604    0.1454   47.8790 C   0  0  0  0  0  0  0  0  0  0  0  0
    0.0375   -2.1520   48.3116 C   0  0  0  0  0  0  0  0  0  0  0  0
    1.2605   -2.4854   47.7250 C   0  0  0  0  0  0  0  0  0  0  0  0
   -0.3781   -0.8508   48.3925 C   0  0  0  0  0  0  0  0  0  0  0  0
    0.0261    1.5460   47.9996 C   0  0  0  0  0  0  0  0  0  0  0  0
   -1.2461    1.9604   48.3998 C   0  0  0  0  0  0  0  0  0  0  0  0
    0.0043    3.7556   48.1177 C   0  0  0  0  0  0  0  0  0  0  0  0
   -1.2468    3.3082   48.4137 C   0  0  0  0  0  0  0  0  0  0  0  0
    0.8309    2.6602   47.8793 O   0  0  0  0  0  0  0  0  0  0  0  0
    5.1237   -1.7750   49.8657 O   0  0  0  0  0  0  0  0  0  0  0  0
    6.5091   -1.5397   49.9738 C   0  0  0  0  0  0  0  0  0  0  0  0
    6.8184   -1.1079   47.6253 C   0  0  0  0  0  0  0  0  0  0  0  0
    7.1933   -1.8147   48.6729 C   0  0  0  0  0  0  0  0  0  0  0  0
    5.7609   -0.0502   47.7583 C   0  0  0  0  0  0  0  0  0  0  0  0
    7.4134   -1.3016   46.2733 C   0  0  0  0  0  0  0  0  0  0  0  0
    8.9141   -1.3904   46.2943 C   0  0  0  0  0  0  0  0  0  0  0  0
    9.5897   -0.4596   45.3535 C   0  0  0  0  0  0  0  0  0  0  0  0
    9.2104   -0.6278   44.1588 O   0  0  0  0  0  0  0  0  0  0  0  0
   10.4023    0.4396   45.7164 O   0  0  0  0  0  0  0  0  0  0  0  0
    8.6054   -1.3126   43.9514 H   0  0  0  0  0  0  0  0  0  0  0  0
 32 30  2  0  0  0
 31 30  1  0  0  0
 30 29  1  0  0  0
  2  3  2  0  0  0
  2  6  1  0  0  0
  3  4  1  0  0  0
 26 24  1  0  0  0
 26 25  2  0  0  0
 29 28  1  0  0  0
 24 23  1  0  0  0
  8 11  1  0  0  0
  6  5  2  0  0  0
  4 23  1  0  0  0
  4  1  2  0  0  0
 28 25  1  0  0  0
 25 27  1  0  0  0
  5  1  1  0  0  0
  1  7  1  0  0  0
 11  7  1  0  0  0
 11 10  1  0  0  0
  9 10  2  0  0  0
 10 16  1  0  0  0
 16 12  2  0  0  0
 16 15  1  0  0  0
 12 13  1  0  0  0
 15 17  2  0  0  0
 13 14  2  0  0  0
 17 14  1  0  0  0
 14 18  1  0  0  0
 18 19  2  0  0  0
 18 22  1  0  0  0
 19 21  1  0  0  0
 22 20  1  0  0  0
 21 20  2  0  0  0
 31 33  1  0  0  0
M  END
> <minimizedAffinity>
-9.86682

$$$$
5XMX_89L_A_900


 33 35  0  0  0  0  0  0  0  0999 V2000
    4.4482   -2.3698   49.0812 C   0  0  0  0  0  0  0  0  0  0  0  0
    6.9904   -1.4624   48.4353 C   0  0  0  0  0  0  0  0  0  0  0  0
    6.6332   -1.7579   49.7750 C   0  0  0  0  0  0  0  0  0  0  0  0
    5.3541   -2.1614   50.0873 C   0  0  0  0  0  0  0  0  0  0  0  0
    4.7970   -2.1015   47.7438 C   0  0  0  0  0  0  0  0  0  0  0  0
    6.0915   -1.6630   47.4078 C   0  0  0  0  0  0  0  0  0  0  0  0
    3.0660   -2.8480   49.5607 C   0  0  0  0  0  0  0  0  0  0  0  0
    2.8813   -5.2003   48.5783 C   0  0  0  0  0  0  0  0  0  0  0  0
    0.9141   -4.2829   47.0565 O   0  0  0  0  0  0  0  0  0  0  0  0
    1.4306   -3.4623   47.8483 C   0  0  0  0  0  0  0  0  0  0  0  0
    2.4222   -3.7878   48.6583 N   0  0  0  0  0  0  0  0  0  0  0  0
   -0.2528   -1.7265   48.4809 C   0  0  0  0  0  0  0  0  0  0  0  0
   -0.6736   -0.3964   48.4071 C   0  0  0  0  0  0  0  0  0  0  0  0
    0.0999    0.5421   47.6691 C   0  0  0  0  0  0  0  0  0  0  0  0
    1.6151   -1.1748   47.0360 C   0  0  0  0  0  0  0  0  0  0  0  0
    0.8790   -2.0971   47.7833 C   0  0  0  0  0  0  0  0  0  0  0  0
    1.2454    0.1412   46.9717 C   0  0  0  0  0  0  0  0  0  0  0  0
   -0.3142    1.9503   47.5689 C   0  0  0  0  0  0  0  0  0  0  0  0
   -0.8539    2.7047   48.6129 C   0  0  0  0  0  0  0  0  0  0  0  0
   -0.6179    4.0249   46.8616 C   0  0  0  0  0  0  0  0  0  0  0  0
   -1.0764    3.9475   48.1410 C   0  0  0  0  0  0  0  0  0  0  0  0
   -0.1079    2.7837   46.4887 O   0  0  0  0  0  0  0  0  0  0  0  0
    4.9220   -2.4191   51.3953 O   0  0  0  0  0  0  0  0  0  0  0  0
    4.9329   -1.3885   52.3567 C   0  0  0  0  0  0  0  0  0  0  0  0
    5.2808   -1.4336   54.7387 C   0  0  0  0  0  0  0  0  0  0  0  0
    4.6172   -1.9307   53.7140 C   0  0  0  0  0  0  0  0  0  0  0  0
    6.2933   -0.3436   54.5348 C   0  0  0  0  0  0  0  0  0  0  0  0
    5.0670   -1.9038   56.1361 C   0  0  0  0  0  0  0  0  0  0  0  0
    4.0713   -3.0257   56.2373 C   0  0  0  0  0  0  0  0  0  0  0  0
    3.4348   -3.1526   57.5741 C   0  0  0  0  0  0  0  0  0  0  0  0
    3.0179   -2.0421   58.0129 O   0  0  0  0  0  0  0  0  0  0  0  0
    3.2723   -4.2547   58.1735 O   0  0  0  0  0  0  0  0  0  0  0  0
    3.1691   -1.2580   57.5227 H   0  0  0  0  0  0  0  0  0  0  0  0
 32 30  2  0  0  0
 31 30  1  0  0  0
 30 29  1  0  0  0
  2  3  2  0  0  0
  2  6  1  0  0  0
  3  4  1  0  0  0
 26 24  1  0  0  0
 26 25  2  0  0  0
 29 28  1  0  0  0
 24 23  1  0  0  0
  8 11  1  0  0  0
  6  5  2  0  0  0
  4 23  1  0  0  0
  4  1  2  0  0  0
 28 25  1  0  0  0
 25 27  1  0  0  0
  5  1  1  0  0  0
  1  7  1  0  0  0
 11  7  1  0  0  0
 11 10  1  0  0  0
  9 10  2  0  0  0
 10 16  1  0  0  0
 16 12  2  0  0  0
 16 15  1  0  0  0
 12 13  1  0  0  0
 15 17  2  0  0  0
 13 14  2  0  0  0
 17 14  1  0  0  0
 14 18  1  0  0  0
 18 19  2  0  0  0
 18 22  1  0  0  0
 19 21  1  0  0  0
 22 20  1  0  0  0
 21 20  2  0  0  0
 31 33  1  0  0  0
M  END
> <minimizedAffinity>
-9.62349

$$$$
5XMX_89L_A_900


 33 35  0  0  0  0  0  0  0  0999 V2000
    3.1626   -2.9143   48.8076 C   0  0  0  0  0  0  0  0  0  0  0  0
    1.8729   -4.9613   47.4475 C   0  0  0  0  0  0  0  0  0  0  0  0
    1.6242   -3.6008   47.1366 C   0  0  0  0  0  0  0  0  0  0  0  0
    2.2350   -2.5947   47.8517 C   0  0  0  0  0  0  0  0  0  0  0  0
    3.4356   -4.2618   49.1108 C   0  0  0  0  0  0  0  0  0  0  0  0
    2.8017   -5.3040   48.4089 C   0  0  0  0  0  0  0  0  0  0  0  0
    3.7928   -1.6993   49.5116 C   0  0  0  0  0  0  0  0  0  0  0  0
    5.9322   -1.4812   48.1304 C   0  0  0  0  0  0  0  0  0  0  0  0
    7.2829   -1.8041   50.3885 O   0  0  0  0  0  0  0  0  0  0  0  0
    6.0348   -1.8077   50.4843 C   0  0  0  0  0  0  0  0  0  0  0  0
    5.2437   -1.6620   49.4363 N   0  0  0  0  0  0  0  0  0  0  0  0
    5.2054   -3.2837   52.3230 C   0  0  0  0  0  0  0  0  0  0  0  0
    4.7689   -3.4047   53.6445 C   0  0  0  0  0  0  0  0  0  0  0  0
    4.7074   -2.2475   54.4696 C   0  0  0  0  0  0  0  0  0  0  0  0
    5.4190   -0.8908   52.6537 C   0  0  0  0  0  0  0  0  0  0  0  0
    5.5118   -2.0257   51.8449 C   0  0  0  0  0  0  0  0  0  0  0  0
    5.0256   -0.9827   53.9612 C   0  0  0  0  0  0  0  0  0  0  0  0
    4.2511   -2.3378   55.8654 C   0  0  0  0  0  0  0  0  0  0  0  0
    5.0110   -2.8312   56.9282 C   0  0  0  0  0  0  0  0  0  0  0  0
    3.0912   -2.1040   57.7354 C   0  0  0  0  0  0  0  0  0  0  0  0
    4.2628   -2.7245   58.0443 C   0  0  0  0  0  0  0  0  0  0  0  0
    3.0734   -1.8262   56.3707 O   0  0  0  0  0  0  0  0  0  0  0  0
    1.9939   -1.2321   47.6301 O   0  0  0  0  0  0  0  0  0  0  0  0
    0.7100   -0.7977   47.2435 C   0  0  0  0  0  0  0  0  0  0  0  0
   -1.1656   -0.3518   48.6860 C   0  0  0  0  0  0  0  0  0  0  0  0
   -0.3189   -1.2526   48.2287 C   0  0  0  0  0  0  0  0  0  0  0  0
   -1.1020    1.0686   48.2030 C   0  0  0  0  0  0  0  0  0  0  0  0
   -2.2237   -0.6794   49.6823 C   0  0  0  0  0  0  0  0  0  0  0  0
   -1.6928   -1.3848   50.8991 C   0  0  0  0  0  0  0  0  0  0  0  0
   -2.7420   -1.7942   51.8686 C   0  0  0  0  0  0  0  0  0  0  0  0
   -3.8446   -2.0458   51.3025 O   0  0  0  0  0  0  0  0  0  0  0  0
   -2.5364   -1.9360   53.1088 O   0  0  0  0  0  0  0  0  0  0  0  0
   -3.9361   -1.9207   50.3784 H   0  0  0  0  0  0  0  0  0  0  0  0
 32 30  2  0  0  0
 31 30  1  0  0  0
 30 29  1  0  0  0
  2  3  2  0  0  0
  2  6  1  0  0  0
  3  4  1  0  0  0
 26 24  1  0  0  0
 26 25  2  0  0  0
 29 28  1  0  0  0
 24 23  1  0  0  0
  8 11  1  0  0  0
  6  5  2  0  0  0
  4 23  1  0  0  0
  4  1  2  0  0  0
 28 25  1  0  0  0
 25 27  1  0  0  0
  5  1  1  0  0  0
  1  7  1  0  0  0
 11  7  1  0  0  0
 11 10  1  0  0  0
  9 10  2  0  0  0
 10 16  1  0  0  0
 16 12  2  0  0  0
 16 15  1  0  0  0
 12 13  1  0  0  0
 15 17  2  0  0  0
 13 14  2  0  0  0
 17 14  1  0  0  0
 14 18  1  0  0  0
 18 19  2  0  0  0
 18 22  1  0  0  0
 19 21  1  0  0  0
 22 20  1  0  0  0
 21 20  2  0  0  0
 31 33  1  0  0  0
M  END
> <minimizedAffinity>
-9.55444

$$$$
5XMX_89L_A_900


 33 35  0  0  0  0  0  0  0  0999 V2000
    5.1843   -1.4804   49.0143 C   0  0  0  0  0  0  0  0  0  0  0  0
    6.8318   -0.2346   47.1603 C   0  0  0  0  0  0  0  0  0  0  0  0
    5.5380    0.2677   47.4493 C   0  0  0  0  0  0  0  0  0  0  0  0
    4.7129   -0.3878   48.3358 C   0  0  0  0  0  0  0  0  0  0  0  0
    6.4758   -1.9764   48.7531 C   0  0  0  0  0  0  0  0  0  0  0  0
    7.3241   -1.3355   47.8310 C   0  0  0  0  0  0  0  0  0  0  0  0
    4.1750   -2.1018   49.9961 C   0  0  0  0  0  0  0  0  0  0  0  0
    3.7134   -3.9307   48.2714 C   0  0  0  0  0  0  0  0  0  0  0  0
    3.2079   -5.5560   50.3038 O   0  0  0  0  0  0  0  0  0  0  0  0
    3.5442   -4.3871   50.5997 C   0  0  0  0  0  0  0  0  0  0  0  0
    3.8186   -3.4757   49.6834 N   0  0  0  0  0  0  0  0  0  0  0  0
    2.4217   -3.9854   52.7965 C   0  0  0  0  0  0  0  0  0  0  0  0
    2.5438   -3.7582   54.1695 C   0  0  0  0  0  0  0  0  0  0  0  0
    3.8382   -3.6989   54.7564 C   0  0  0  0  0  0  0  0  0  0  0  0
    4.8406   -4.0000   52.6235 C   0  0  0  0  0  0  0  0  0  0  0  0
    3.5734   -4.0903   52.0431 C   0  0  0  0  0  0  0  0  0  0  0  0
    4.9911   -3.8103   53.9703 C   0  0  0  0  0  0  0  0  0  0  0  0
    4.0041   -3.4598   56.1986 C   0  0  0  0  0  0  0  0  0  0  0  0
    3.2205   -4.0327   57.2026 C   0  0  0  0  0  0  0  0  0  0  0  0
    4.8030   -2.8348   58.1652 C   0  0  0  0  0  0  0  0  0  0  0  0
    3.6959   -3.5955   58.3857 C   0  0  0  0  0  0  0  0  0  0  0  0
    5.0322   -2.7577   56.7936 O   0  0  0  0  0  0  0  0  0  0  0  0
    3.4058    0.0259   48.6265 O   0  0  0  0  0  0  0  0  0  0  0  0
    2.3469   -0.3294   47.7668 C   0  0  0  0  0  0  0  0  0  0  0  0
    0.1326    0.6085   47.8871 C   0  0  0  0  0  0  0  0  0  0  0  0
    1.4011    0.8160   47.5947 C   0  0  0  0  0  0  0  0  0  0  0  0
   -0.3229   -0.7274   48.3995 C   0  0  0  0  0  0  0  0  0  0  0  0
   -0.9068    1.6658   47.7409 C   0  0  0  0  0  0  0  0  0  0  0  0
   -0.3418    3.0587   47.7664 C   0  0  0  0  0  0  0  0  0  0  0  0
   -0.4796    3.7924   46.4815 C   0  0  0  0  0  0  0  0  0  0  0  0
   -0.1298    3.0902   45.4895 O   0  0  0  0  0  0  0  0  0  0  0  0
   -0.9530    4.9618   46.3870 O   0  0  0  0  0  0  0  0  0  0  0  0
    0.2147    2.2291   45.6233 H   0  0  0  0  0  0  0  0  0  0  0  0
 32 30  2  0  0  0
 31 30  1  0  0  0
 30 29  1  0  0  0
  2  3  2  0  0  0
  2  6  1  0  0  0
  3  4  1  0  0  0
 26 24  1  0  0  0
 26 25  2  0  0  0
 29 28  1  0  0  0
 24 23  1  0  0  0
  8 11  1  0  0  0
  6  5  2  0  0  0
  4 23  1  0  0  0
  4  1  2  0  0  0
 28 25  1  0  0  0
 25 27  1  0  0  0
  5  1  1  0  0  0
  1  7  1  0  0  0
 11  7  1  0  0  0
 11 10  1  0  0  0
  9 10  2  0  0  0
 10 16  1  0  0  0
 16 12  2  0  0  0
 16 15  1  0  0  0
 12 13  1  0  0  0
 15 17  2  0  0  0
 13 14  2  0  0  0
 17 14  1  0  0  0
 14 18  1  0  0  0
 18 19  2  0  0  0
 18 22  1  0  0  0
 19 21  1  0  0  0
 22 20  1  0  0  0
 21 20  2  0  0  0
 31 33  1  0  0  0
M  END
> <minimizedAffinity>
-9.33242

$$$$
5XMX_89L_A_900


 33 35  0  0  0  0  0  0  0  0999 V2000
    5.5455   -1.4149   48.9608 C   0  0  0  0  0  0  0  0  0  0  0  0
    7.2623   -0.4120   47.0241 C   0  0  0  0  0  0  0  0  0  0  0  0
    5.9504    0.1017   47.1813 C   0  0  0  0  0  0  0  0  0  0  0  0
    5.0929   -0.4377   48.1142 C   0  0  0  0  0  0  0  0  0  0  0  0
    6.8538   -1.9185   48.8300 C   0  0  0  0  0  0  0  0  0  0  0  0
    7.7362   -1.3981   47.8650 C   0  0  0  0  0  0  0  0  0  0  0  0
    4.4992   -1.9106   49.9749 C   0  0  0  0  0  0  0  0  0  0  0  0
    3.8455   -3.7967   48.3786 C   0  0  0  0  0  0  0  0  0  0  0  0
    3.4292   -5.3048   50.5186 O   0  0  0  0  0  0  0  0  0  0  0  0
    3.8294   -4.1381   50.7325 C   0  0  0  0  0  0  0  0  0  0  0  0
    4.0701   -3.2818   49.7557 N   0  0  0  0  0  0  0  0  0  0  0  0
    5.1171   -3.1810   52.6490 C   0  0  0  0  0  0  0  0  0  0  0  0
    5.1476   -2.8200   53.9982 C   0  0  0  0  0  0  0  0  0  0  0  0
    3.9918   -3.0219   54.8026 C   0  0  0  0  0  0  0  0  0  0  0  0
    2.8554   -3.9991   52.9593 C   0  0  0  0  0  0  0  0  0  0  0  0
    3.9747   -3.7767   52.1540 C   0  0  0  0  0  0  0  0  0  0  0  0
    2.8444   -3.6264   54.2759 C   0  0  0  0  0  0  0  0  0  0  0  0
    3.9890   -2.6548   56.2274 C   0  0  0  0  0  0  0  0  0  0  0  0
    5.1208   -2.5950   57.0432 C   0  0  0  0  0  0  0  0  0  0  0  0
    3.3847   -1.9219   58.2260 C   0  0  0  0  0  0  0  0  0  0  0  0
    4.7175   -2.1962   58.2660 C   0  0  0  0  0  0  0  0  0  0  0  0
    2.9093   -2.1783   56.9422 O   0  0  0  0  0  0  0  0  0  0  0  0
    3.7687   -0.0118   48.2851 O   0  0  0  0  0  0  0  0  0  0  0  0
    2.7762   -0.4117   47.3678 C   0  0  0  0  0  0  0  0  0  0  0  0
    0.4921    0.3398   47.4917 C   0  0  0  0  0  0  0  0  0  0  0  0
    1.4301   -0.4215   48.0190 C   0  0  0  0  0  0  0  0  0  0  0  0
    0.7750    1.1588   46.2654 C   0  0  0  0  0  0  0  0  0  0  0  0
   -0.8823    0.4275   48.0600 C   0  0  0  0  0  0  0  0  0  0  0  0
   -1.4550    1.8167   48.0122 C   0  0  0  0  0  0  0  0  0  0  0  0
   -0.7354    2.7987   48.8642 C   0  0  0  0  0  0  0  0  0  0  0  0
   -0.8034    2.5067   50.0928 O   0  0  0  0  0  0  0  0  0  0  0  0
   -0.0774    3.7775   48.4064 O   0  0  0  0  0  0  0  0  0  0  0  0
   -1.3079    1.7679   50.3716 H   0  0  0  0  0  0  0  0  0  0  0  0
 32 30  2  0  0  0
 31 30  1  0  0  0
 30 29  1  0  0  0
  2  3  2  0  0  0
  2  6  1  0  0  0
  3  4  1  0  0  0
 26 24  1  0  0  0
 26 25  2  0  0  0
 29 28  1  0  0  0
 24 23  1  0  0  0
  8 11  1  0  0  0
  6  5  2  0  0  0
  4 23  1  0  0  0
  4  1  2  0  0  0
 28 25  1  0  0  0
 25 27  1  0  0  0
  5  1  1  0  0  0
  1  7  1  0  0  0
 11  7  1  0  0  0
 11 10  1  0  0  0
  9 10  2  0  0  0
 10 16  1  0  0  0
 16 12  2  0  0  0
 16 15  1  0  0  0
 12 13  1  0  0  0
 15 17  2  0  0  0
 13 14  2  0  0  0
 17 14  1  0  0  0
 14 18  1  0  0  0
 18 19  2  0  0  0
 18 22  1  0  0  0
 19 21  1  0  0  0
 22 20  1  0  0  0
 21 20  2  0  0  0
 31 33  1  0  0  0
M  END
> <minimizedAffinity>
-9.26693

$$$$
5XMX_89L_A_900


 33 35  0  0  0  0  0  0  0  0999 V2000
    5.6264   -1.4313   48.9418 C   0  0  0  0  0  0  0  0  0  0  0  0
    7.3116   -0.4564   46.9636 C   0  0  0  0  0  0  0  0  0  0  0  0
    5.9868    0.0278   47.1056 C   0  0  0  0  0  0  0  0  0  0  0  0
    5.1460   -0.4989   48.0607 C   0  0  0  0  0  0  0  0  0  0  0  0
    6.9472   -1.9045   48.8259 C   0  0  0  0  0  0  0  0  0  0  0  0
    7.8134   -1.3974   47.8393 C   0  0  0  0  0  0  0  0  0  0  0  0
    4.5958   -1.9163   49.9770 C   0  0  0  0  0  0  0  0  0  0  0  0
    3.9496   -3.8217   48.4008 C   0  0  0  0  0  0  0  0  0  0  0  0
    3.4809   -5.2898   50.5578 O   0  0  0  0  0  0  0  0  0  0  0  0
    3.8897   -4.1239   50.7594 C   0  0  0  0  0  0  0  0  0  0  0  0
    4.1560   -3.2864   49.7730 N   0  0  0  0  0  0  0  0  0  0  0  0
    5.0762   -2.9942   52.6470 C   0  0  0  0  0  0  0  0  0  0  0  0
    5.0859   -2.6269   53.9949 C   0  0  0  0  0  0  0  0  0  0  0  0
    3.9850   -2.9797   54.8239 C   0  0  0  0  0  0  0  0  0  0  0  0
    2.9526   -4.1087   53.0062 C   0  0  0  0  0  0  0  0  0  0  0  0
    4.0146   -3.7405   52.1771 C   0  0  0  0  0  0  0  0  0  0  0  0
    2.9190   -3.7357   54.3224 C   0  0  0  0  0  0  0  0  0  0  0  0
    3.9624   -2.6107   56.2479 C   0  0  0  0  0  0  0  0  0  0  0  0
    5.0751   -2.5985   57.0918 C   0  0  0  0  0  0  0  0  0  0  0  0
    3.3406   -1.8495   58.2305 C   0  0  0  0  0  0  0  0  0  0  0  0
    4.6589   -2.1808   58.3039 C   0  0  0  0  0  0  0  0  0  0  0  0
    2.8867   -2.0870   56.9353 O   0  0  0  0  0  0  0  0  0  0  0  0
    3.8113   -0.1021   48.2197 O   0  0  0  0  0  0  0  0  0  0  0  0
    2.8403   -0.5038   47.2804 C   0  0  0  0  0  0  0  0  0  0  0  0
    0.8591   -1.8451   47.5502 C   0  0  0  0  0  0  0  0  0  0  0  0
    1.5390   -0.7922   47.9583 C   0  0  0  0  0  0  0  0  0  0  0  0
    1.4002   -2.7272   46.4622 C   0  0  0  0  0  0  0  0  0  0  0  0
   -0.4569   -2.2255   48.1359 C   0  0  0  0  0  0  0  0  0  0  0  0
   -1.5680   -1.2873   47.7545 C   0  0  0  0  0  0  0  0  0  0  0  0
   -1.8629   -0.2497   48.7765 C   0  0  0  0  0  0  0  0  0  0  0  0
   -2.1060    0.8777   48.2574 O   0  0  0  0  0  0  0  0  0  0  0  0
   -1.9262   -0.4838   50.0181 O   0  0  0  0  0  0  0  0  0  0  0  0
   -2.0422    0.9897   47.3294 H   0  0  0  0  0  0  0  0  0  0  0  0
 32 30  2  0  0  0
 31 30  1  0  0  0
 30 29  1  0  0  0
  2  3  2  0  0  0
  2  6  1  0  0  0
  3  4  1  0  0  0
 26 24  1  0  0  0
 26 25  2  0  0  0
 29 28  1  0  0  0
 24 23  1  0  0  0
  8 11  1  0  0  0
  6  5  2  0  0  0
  4 23  1  0  0  0
  4  1  2  0  0  0
 28 25  1  0  0  0
 25 27  1  0  0  0
  5  1  1  0  0  0
  1  7  1  0  0  0
 11  7  1  0  0  0
 11 10  1  0  0  0
  9 10  2  0  0  0
 10 16  1  0  0  0
 16 12  2  0  0  0
 16 15  1  0  0  0
 12 13  1  0  0  0
 15 17  2  0  0  0
 13 14  2  0  0  0
 17 14  1  0  0  0
 14 18  1  0  0  0
 18 19  2  0  0  0
 18 22  1  0  0  0
 19 21  1  0  0  0
 22 20  1  0  0  0
 21 20  2  0  0  0
 31 33  1  0  0  0
M  END
> <minimizedAffinity>
-9.16776

$$$$
5XMX_89L_A_900


 33 35  0  0  0  0  0  0  0  0999 V2000
    1.9402   -1.5527   48.4537 C   0  0  0  0  0  0  0  0  0  0  0  0
    0.0836   -0.1202   46.9690 C   0  0  0  0  0  0  0  0  0  0  0  0
    1.4660    0.1895   46.9143 C   0  0  0  0  0  0  0  0  0  0  0  0
    2.3703   -0.4980   47.6927 C   0  0  0  0  0  0  0  0  0  0  0  0
    0.5729   -1.8852   48.4997 C   0  0  0  0  0  0  0  0  0  0  0  0
   -0.3700   -1.1771   47.7315 C   0  0  0  0  0  0  0  0  0  0  0  0
    3.0533   -2.2548   49.2520 C   0  0  0  0  0  0  0  0  0  0  0  0
    2.8643   -4.2566   47.6742 C   0  0  0  0  0  0  0  0  0  0  0  0
    3.4275   -5.7999   49.7547 O   0  0  0  0  0  0  0  0  0  0  0  0
    3.4008   -4.5672   49.9706 C   0  0  0  0  0  0  0  0  0  0  0  0
    3.1280   -3.6880   49.0230 N   0  0  0  0  0  0  0  0  0  0  0  0
    4.8049   -3.5033   51.7437 C   0  0  0  0  0  0  0  0  0  0  0  0
    4.9402   -3.1145   53.0787 C   0  0  0  0  0  0  0  0  0  0  0  0
    3.8774   -3.3636   53.9908 C   0  0  0  0  0  0  0  0  0  0  0  0
    2.6316   -4.4378   52.2767 C   0  0  0  0  0  0  0  0  0  0  0  0
    3.6569   -4.1703   51.3668 C   0  0  0  0  0  0  0  0  0  0  0  0
    2.7220   -4.0404   53.5830 C   0  0  0  0  0  0  0  0  0  0  0  0
    3.9862   -2.9691   55.4041 C   0  0  0  0  0  0  0  0  0  0  0  0
    3.3869   -3.6389   56.4730 C   0  0  0  0  0  0  0  0  0  0  0  0
    4.6096   -1.9950   57.2907 C   0  0  0  0  0  0  0  0  0  0  0  0
    3.7409   -2.9955   57.6032 C   0  0  0  0  0  0  0  0  0  0  0  0
    4.8001   -1.9770   55.9111 O   0  0  0  0  0  0  0  0  0  0  0  0
    3.7410   -0.2081   47.7247 O   0  0  0  0  0  0  0  0  0  0  0  0
    4.5305   -0.4090   46.5746 C   0  0  0  0  0  0  0  0  0  0  0  0
    6.8862   -0.6389   47.0164 C   0  0  0  0  0  0  0  0  0  0  0  0
    5.7246   -1.2501   46.8956 C   0  0  0  0  0  0  0  0  0  0  0  0
    6.9832    0.8515   46.8615 C   0  0  0  0  0  0  0  0  0  0  0  0
    8.1489   -1.3701   47.3176 C   0  0  0  0  0  0  0  0  0  0  0  0
    9.3769   -0.6609   46.8185 C   0  0  0  0  0  0  0  0  0  0  0  0
    9.8497   -1.1295   45.4899 C   0  0  0  0  0  0  0  0  0  0  0  0
   10.6857   -2.0737   45.5852 O   0  0  0  0  0  0  0  0  0  0  0  0
    9.4166   -0.6781   44.3903 O   0  0  0  0  0  0  0  0  0  0  0  0
   10.9694   -2.3648   46.4295 H   0  0  0  0  0  0  0  0  0  0  0  0
 32 30  2  0  0  0
 31 30  1  0  0  0
 30 29  1  0  0  0
  2  3  2  0  0  0
  2  6  1  0  0  0
  3  4  1  0  0  0
 26 24  1  0  0  0
 26 25  2  0  0  0
 29 28  1  0  0  0
 24 23  1  0  0  0
  8 11  1  0  0  0
  6  5  2  0  0  0
  4 23  1  0  0  0
  4  1  2  0  0  0
 28 25  1  0  0  0
 25 27  1  0  0  0
  5  1  1  0  0  0
  1  7  1  0  0  0
 11  7  1  0  0  0
 11 10  1  0  0  0
  9 10  2  0  0  0
 10 16  1  0  0  0
 16 12  2  0  0  0
 16 15  1  0  0  0
 12 13  1  0  0  0
 15 17  2  0  0  0
 13 14  2  0  0  0
 17 14  1  0  0  0
 14 18  1  0  0  0
 18 19  2  0  0  0
 18 22  1  0  0  0
 19 21  1  0  0  0
 22 20  1  0  0  0
 21 20  2  0  0  0
 31 33  1  0  0  0
M  END
> <minimizedAffinity>
-8.86635

$$$$
5XMX_89L_A_900


 33 35  0  0  0  0  0  0  0  0999 V2000
    3.1891   -3.5763   51.4690 C   0  0  0  0  0  0  0  0  0  0  0  0
    5.3911   -3.5766   53.1586 C   0  0  0  0  0  0  0  0  0  0  0  0
    5.3322   -2.7244   52.0272 C   0  0  0  0  0  0  0  0  0  0  0  0
    4.2548   -2.7691   51.1707 C   0  0  0  0  0  0  0  0  0  0  0  0
    3.2251   -4.4113   52.6021 C   0  0  0  0  0  0  0  0  0  0  0  0
    4.3292   -4.3990   53.4749 C   0  0  0  0  0  0  0  0  0  0  0  0
    2.0385   -3.5114   50.4488 C   0  0  0  0  0  0  0  0  0  0  0  0
    2.9787   -5.5399   49.2102 C   0  0  0  0  0  0  0  0  0  0  0  0
    2.3089   -4.3238   46.9519 O   0  0  0  0  0  0  0  0  0  0  0  0
    2.0310   -3.7173   48.0111 C   0  0  0  0  0  0  0  0  0  0  0  0
    2.3151   -4.2089   49.2041 N   0  0  0  0  0  0  0  0  0  0  0  0
    0.0745   -2.1671   48.1377 C   0  0  0  0  0  0  0  0  0  0  0  0
   -0.4271   -0.8717   47.9892 C   0  0  0  0  0  0  0  0  0  0  0  0
    0.4472    0.1746   47.5839 C   0  0  0  0  0  0  0  0  0  0  0  0
    2.2436   -1.3696   47.4031 C   0  0  0  0  0  0  0  0  0  0  0  0
    1.4000   -2.3977   47.8300 C   0  0  0  0  0  0  0  0  0  0  0  0
    1.7886   -0.0850   47.2795 C   0  0  0  0  0  0  0  0  0  0  0  0
   -0.0471    1.5502   47.4160 C   0  0  0  0  0  0  0  0  0  0  0  0
   -0.7307    2.2820   48.3893 C   0  0  0  0  0  0  0  0  0  0  0  0
   -0.4184    3.5889   46.6399 C   0  0  0  0  0  0  0  0  0  0  0  0
   -0.9890    3.4999   47.8727 C   0  0  0  0  0  0  0  0  0  0  0  0
    0.2047    2.3794   46.3422 O   0  0  0  0  0  0  0  0  0  0  0  0
    4.1581   -1.9922   50.0083 O   0  0  0  0  0  0  0  0  0  0  0  0
    4.9970   -0.8725   49.8376 C   0  0  0  0  0  0  0  0  0  0  0  0
    6.5825   -1.2106   48.0573 C   0  0  0  0  0  0  0  0  0  0  0  0
    5.4043   -0.7328   48.4055 C   0  0  0  0  0  0  0  0  0  0  0  0
    7.4582   -1.8918   49.0691 C   0  0  0  0  0  0  0  0  0  0  0  0
    7.1058   -1.1165   46.6656 C   0  0  0  0  0  0  0  0  0  0  0  0
    8.5748   -1.4196   46.5640 C   0  0  0  0  0  0  0  0  0  0  0  0
    9.3012   -0.5759   45.5798 C   0  0  0  0  0  0  0  0  0  0  0  0
    8.9131   -0.7823   44.3939 O   0  0  0  0  0  0  0  0  0  0  0  0
   10.1626    0.2937   45.8997 O   0  0  0  0  0  0  0  0  0  0  0  0
    8.2709   -1.4418   44.2192 H   0  0  0  0  0  0  0  0  0  0  0  0
 32 30  2  0  0  0
 31 30  1  0  0  0
 30 29  1  0  0  0
  2  3  2  0  0  0
  2  6  1  0  0  0
  3  4  1  0  0  0
 26 24  1  0  0  0
 26 25  2  0  0  0
 29 28  1  0  0  0
 24 23  1  0  0  0
  8 11  1  0  0  0
  6  5  2  0  0  0
  4 23  1  0  0  0
  4  1  2  0  0  0
 28 25  1  0  0  0
 25 27  1  0  0  0
  5  1  1  0  0  0
  1  7  1  0  0  0
 11  7  1  0  0  0
 11 10  1  0  0  0
  9 10  2  0  0  0
 10 16  1  0  0  0
 16 12  2  0  0  0
 16 15  1  0  0  0
 12 13  1  0  0  0
 15 17  2  0  0  0
 13 14  2  0  0  0
 17 14  1  0  0  0
 14 18  1  0  0  0
 18 19  2  0  0  0
 18 22  1  0  0  0
 19 21  1  0  0  0
 22 20  1  0  0  0
 21 20  2  0  0  0
 31 33  1  0  0  0
M  END
> <minimizedAffinity>
-8.82188

$$$$
5XMX_89L_A_900


 33 35  0  0  0  0  0  0  0  0999 V2000
    1.4854   -1.6989   48.4372 C   0  0  0  0  0  0  0  0  0  0  0  0
   -0.4029   -0.3595   46.9063 C   0  0  0  0  0  0  0  0  0  0  0  0
    0.9623    0.0222   46.8898 C   0  0  0  0  0  0  0  0  0  0  0  0
    1.8800   -0.6203   47.6908 C   0  0  0  0  0  0  0  0  0  0  0  0
    0.1366   -2.1025   48.4453 C   0  0  0  0  0  0  0  0  0  0  0  0
   -0.8211   -1.4416   47.6536 C   0  0  0  0  0  0  0  0  0  0  0  0
    2.6116   -2.3450   49.2637 C   0  0  0  0  0  0  0  0  0  0  0  0
    2.5179   -4.3233   47.6480 C   0  0  0  0  0  0  0  0  0  0  0  0
    3.3259   -5.8515   49.6578 O   0  0  0  0  0  0  0  0  0  0  0  0
    3.2012   -4.6308   49.9056 C   0  0  0  0  0  0  0  0  0  0  0  0
    2.8013   -3.7607   48.9954 N   0  0  0  0  0  0  0  0  0  0  0  0
    4.6814   -3.6347   51.6559 C   0  0  0  0  0  0  0  0  0  0  0  0
    4.8532   -3.2467   52.9870 C   0  0  0  0  0  0  0  0  0  0  0  0
    3.7894   -3.4333   53.9128 C   0  0  0  0  0  0  0  0  0  0  0  0
    2.4674   -4.4480   52.2195 C   0  0  0  0  0  0  0  0  0  0  0  0
    3.4948   -4.2409   51.2963 C   0  0  0  0  0  0  0  0  0  0  0  0
    2.5945   -4.0491   53.5223 C   0  0  0  0  0  0  0  0  0  0  0  0
    3.9360   -3.0378   55.3223 C   0  0  0  0  0  0  0  0  0  0  0  0
    3.3757   -3.7138   56.4083 C   0  0  0  0  0  0  0  0  0  0  0  0
    4.6050   -2.0575   57.1899 C   0  0  0  0  0  0  0  0  0  0  0  0
    3.7564   -3.0668   57.5277 C   0  0  0  0  0  0  0  0  0  0  0  0
    4.7544   -2.0374   55.8053 O   0  0  0  0  0  0  0  0  0  0  0  0
    3.2323   -0.2593   47.7607 O   0  0  0  0  0  0  0  0  0  0  0  0
    4.1311   -0.6995   46.7683 C   0  0  0  0  0  0  0  0  0  0  0  0
    6.3865   -0.7502   47.6096 C   0  0  0  0  0  0  0  0  0  0  0  0
    5.2803   -1.4309   47.3853 C   0  0  0  0  0  0  0  0  0  0  0  0
    6.4624    0.7122   47.2772 C   0  0  0  0  0  0  0  0  0  0  0  0
    7.6032   -1.3715   48.2038 C   0  0  0  0  0  0  0  0  0  0  0  0
    7.3006   -2.2606   49.3777 C   0  0  0  0  0  0  0  0  0  0  0  0
    7.7776   -1.7281   50.6804 C   0  0  0  0  0  0  0  0  0  0  0  0
    9.0029   -1.9716   50.8772 O   0  0  0  0  0  0  0  0  0  0  0  0
    7.0559   -1.0536   51.4708 O   0  0  0  0  0  0  0  0  0  0  0  0
    9.4858   -2.4781   50.2541 H   0  0  0  0  0  0  0  0  0  0  0  0
 32 30  2  0  0  0
 31 30  1  0  0  0
 30 29  1  0  0  0
  2  3  2  0  0  0
  2  6  1  0  0  0
  3  4  1  0  0  0
 26 24  1  0  0  0
 26 25  2  0  0  0
 29 28  1  0  0  0
 24 23  1  0  0  0
  8 11  1  0  0  0
  6  5  2  0  0  0
  4 23  1  0  0  0
  4  1  2  0  0  0
 28 25  1  0  0  0
 25 27  1  0  0  0
  5  1  1  0  0  0
  1  7  1  0  0  0
 11  7  1  0  0  0
 11 10  1  0  0  0
  9 10  2  0  0  0
 10 16  1  0  0  0
 16 12  2  0  0  0
 16 15  1  0  0  0
 12 13  1  0  0  0
 15 17  2  0  0  0
 13 14  2  0  0  0
 17 14  1  0  0  0
 14 18  1  0  0  0
 18 19  2  0  0  0
 18 22  1  0  0  0
 19 21  1  0  0  0
 22 20  1  0  0  0
 21 20  2  0  0  0
 31 33  1  0  0  0
M  END
> <minimizedAffinity>
-8.31340

$$$$
