5XMX_89L_A_900
  RCSB PDB05261800283D
Coordinates from PDB:5XMX:A:900 Model:1 without hydrogens
 32 34  0  0  0  0            999 V2000
    4.6160   -3.0610   51.8430   C 0  0  0  0  0  0  0  0  0  0  0  0
    4.2430   -3.2940   53.1690   C 0  0  0  0  0  0  0  0  0  0  0  0
    4.7810   -2.4760   54.2010   C 0  0  0  0  0  0  0  0  0  0  0  0
    4.4090   -2.6920   55.6080   C 0  0  0  0  0  0  0  0  0  0  0  0
    3.5450   -3.6890   56.0660   C 0  0  0  0  0  0  0  0  0  0  0  0
    4.3360   -2.6070   57.8180   C 0  0  0  0  0  0  0  0  0  0  0  0
    5.9570   -1.1840   52.5910   C 0  0  0  0  0  0  0  0  0  0  0  0
    5.7960   -1.2460   47.8880   C 0  0  0  0  0  0  0  0  0  0  0  0
    3.0210   -2.7270   48.6660   C 0  0  0  0  0  0  0  0  0  0  0  0
    1.6250   -4.8190   47.4920   C 0  0  0  0  0  0  0  0  0  0  0  0
    1.1030   -3.5010   47.5030   C 0  0  0  0  0  0  0  0  0  0  0  0
    1.7840   -2.4820   48.1310   C 0  0  0  0  0  0  0  0  0  0  0  0
    0.0350   -0.8470   47.6920   C 0  0  0  0  0  0  0  0  0  0  0  0
   -0.8730    1.2840   48.3490   C 0  0  0  0  0  0  0  0  0  0  0  0
   -1.0970    2.7540   48.2570   C 0  0  0  0  0  0  0  0  0  0  0  0
    7.1960   -1.7320   50.0860   O 0  0  0  0  0  0  0  0  0  0  0  0
    5.9510   -1.7140   50.2150   C 0  0  0  0  0  0  0  0  0  0  0  0
    5.4580   -2.0010   51.5740   C 0  0  0  0  0  0  0  0  0  0  0  0
    3.4790   -3.5820   57.4080   C 0  0  0  0  0  0  0  0  0  0  0  0
    4.9540   -2.0500   56.7010   O 0  0  0  0  0  0  0  0  0  0  0  0
    5.6350   -1.4080   53.9020   C 0  0  0  0  0  0  0  0  0  0  0  0
    5.1370   -1.4890   49.1990   N 0  0  0  0  0  0  0  0  0  0  0  0
    3.6880   -1.4990   49.3110   C 0  0  0  0  0  0  0  0  0  0  0  0
    3.5610   -4.0270   48.6420   C 0  0  0  0  0  0  0  0  0  0  0  0
    2.8680   -5.0870   48.0280   C 0  0  0  0  0  0  0  0  0  0  0  0
    1.3000   -1.1700   48.2230   O 0  0  0  0  0  0  0  0  0  0  0  0
   -0.0970    0.6310   47.5070   C 0  0  0  0  0  0  0  0  0  0  0  0
   -1.5690    0.5580   49.4640   C 0  0  0  0  0  0  0  0  0  0  0  0
    0.0610    3.4920   47.6450   C 0  0  0  0  0  0  0  0  0  0  0  0
   -0.1450    3.8710   46.2230   C 0  0  0  0  0  0  0  0  0  0  0  0
    0.7770    4.6200   45.7890   O 0  0  0  0  0  0  0  0  0  0  0  0
   -1.0990    3.4410   45.5120   O 0  0  0  0  0  0  0  0  0  0  0  0
 32 30  2  0  0  0  0
 31 30  1  0  0  0  0
 30 29  1  0  0  0  0
 10 11  2  0  0  0  0
 10 25  1  0  0  0  0
 11 12  1  0  0  0  0
 27 13  1  0  0  0  0
 27 14  2  0  0  0  0
 29 15  1  0  0  0  0
 13 26  1  0  0  0  0
  8 22  1  0  0  0  0
 25 24  2  0  0  0  0
 12 26  1  0  0  0  0
 12  9  2  0  0  0  0
 15 14  1  0  0  0  0
 14 28  1  0  0  0  0
 24  9  1  0  0  0  0
  9 23  1  0  0  0  0
 22 23  1  0  0  0  0
 22 17  1  0  0  0  0
 16 17  2  0  0  0  0
 17 18  1  0  0  0  0
 18  1  2  0  0  0  0
 18  7  1  0  0  0  0
  1  2  1  0  0  0  0
  7 21  2  0  0  0  0
  2  3  2  0  0  0  0
 21  3  1  0  0  0  0
  3  4  1  0  0  0  0
  4  5  2  0  0  0  0
  4 20  1  0  0  0  0
  5 19  1  0  0  0  0
 20  6  1  0  0  0  0
 19  6  2  0  0  0  0
A    1
C4
A    2
C5
A    3
C6
A    4
C7
A    5
C8
A    6
C10
A    7
C13
A    8
C15
A    9
C17
A   10
C20
A   11
C21
A   12
C22
A   13
C24
A   14
C26
A   15
C28
A   16
O1
A   17
C2
A   18
C3
A   19
C9
A   20
O11
A   21
C12
A   22
N14
A   23
C16
A   24
C18
A   25
C19
A   26
O23
A   27
C25
A   28
C27
A   29
C29
A   30
C30
A   31
O32
A   32
O31
M  END
>  <InstanceId>
5XMX_89L_A_900

>  <ChemCompId>
89L

>  <PdbId>
5XMX

>  <ChainId>
A

>  <ResidueNumber>
900

>  <InsertionCode>


>  <Model>
1

>  <AltIds>


>  <MissingHeavyAtoms>
0

>  <ObservedFormula>
C26 N O5

>  <Name>
(E)-6-[2-[[[4-(furan-2-yl)phenyl]carbonyl-methyl-amino]methyl]phenoxy]-4-methyl-hex-4-enoic acid

>  <SystematicName>
(~{E})-6-[2-[[[4-(furan-2-yl)phenyl]carbonyl-methyl-amino]methyl]phenoxy]-4-methyl-hex-4-enoic acid

>  <Synonyms>


>  <Type>
NON-POLYMER

>  <Formula>
C26 H27 N O5

>  <MolecularWeight>
433.496

>  <ModifiedDate>
2018-05-18

>  <Parent>


>  <OneLetterCode>


>  <SubcomponentList>


>  <AmbiguousFlag>
N

>  <InChI>
InChI=1S/C26H27NO5/c1-19(9-14-25(28)29)15-17-32-24-7-4-3-6-22(24)18-27(2)26(30)21-12-10-20(11-13-21)23-8-5-16-31-23/h3-8,10-13,15-16H,9,14,17-18H2,1-2H3,(H,28,29)/b19-15+

>  <InChIKey>
WZFMWAHUFRLQRH-XDJHFCHBSA-N

>  <SMILES>
C/C(=C\COc1ccccc1CN(C)C(=O)c2ccc(cc2)c3ccco3)/CCC(=O)O

$$$$
