1FKW_PUR_A_353


 22 24  0  0  0  0  0  0  0  0999 V2000
    5.9569   18.5041   38.0434 C   0  0  0  0  0  0  0  0  0  0  0  0
    6.4146   17.4310   37.0617 C   0  0  0  0  0  0  0  0  0  0  0  0
    6.5925   16.1902   37.7494 O   0  0  0  0  0  0  0  0  0  0  0  0
    7.7138   17.8805   36.3273 C   0  0  0  0  0  0  0  0  0  0  0  0
    8.6529   16.8049   36.2200 O   0  0  0  0  0  0  0  0  0  0  0  0
    8.0994   18.8985   37.5034 C   0  0  0  0  0  0  0  0  0  0  0  0
    6.9732   19.4766   38.0512 O   0  0  0  0  0  0  0  0  0  0  0  0
    7.2716   16.2945   38.4341 H   0  0  0  0  0  0  0  0  0  0  0  0
    8.7809   16.3993   37.0918 H   0  0  0  0  0  0  0  0  0  0  0  0
    1.4384   20.7049   39.2361 N   0  0  0  0  0  0  0  0  0  0  0  0
    2.4419   20.3578   40.0397 C   0  0  0  0  0  0  0  0  0  0  0  0
    3.5754   19.8190   39.5847 N   0  0  0  0  0  0  0  0  0  0  0  0
    3.7308   19.5982   38.2528 C   0  0  0  0  0  0  0  0  0  0  0  0
    2.7483   19.9227   37.3799 C   0  0  0  0  0  0  0  0  0  0  0  0
    1.5318   20.5063   37.8648 C   0  0  0  0  0  0  0  0  0  0  0  0
    3.1738   19.6017   36.1450 N   0  0  0  0  0  0  0  0  0  0  0  0
    4.3955   19.0822   36.2507 C   0  0  0  0  0  0  0  0  0  0  0  0
    4.7525   19.0719   37.5292 N   0  0  0  0  0  0  0  0  0  0  0  0
    2.6700   19.7287   35.3087 H   0  0  0  0  0  0  0  0  0  0  0  0
    9.0844   20.0088   37.0410 C   0  0  0  0  0  0  0  0  0  0  0  0
    8.9916   20.2958   35.6261 O   0  0  0  0  0  0  0  0  0  0  0  0
    9.2213   19.5013   35.1192 H   0  0  0  0  0  0  0  0  0  0  0  0
 10 11  1  0  0  0
 10 15  2  0  0  0
 11 12  2  0  0  0
 12 13  1  0  0  0
 13 14  2  0  0  0
 13 18  1  0  0  0
 14 15  1  0  0  0
 14 16  1  0  0  0
 16 17  2  0  0  0
 17 18  1  0  0  0
 18  1  1  0  0  0
  1  2  1  0  0  0
  1  7  1  0  0  0
  2  3  1  0  0  0
  2  4  1  0  0  0
  4  5  1  0  0  0
  4  6  1  0  0  0
  6  7  1  0  0  0
  6 20  1  0  0  0
 20 21  1  0  0  0
 16 19  1  0  0  0
  3  8  1  0  0  0
  5  9  1  0  0  0
 21 22  1  0  0  0
M  CHG 1  16   1
M  END
> <minimizedAffinity>
-8.70966

$$$$
1FKW_PUR_A_353


 22 24  0  0  0  0  0  0  0  0999 V2000
    7.2553   16.8099   38.4422 C   0  0  0  0  0  0  0  0  0  0  0  0
    7.3968   17.0836   36.9489 C   0  0  0  0  0  0  0  0  0  0  0  0
    8.7568   17.3998   36.6416 O   0  0  0  0  0  0  0  0  0  0  0  0
    6.4219   18.2161   36.5062 C   0  0  0  0  0  0  0  0  0  0  0  0
    7.0554   19.1279   35.6020 O   0  0  0  0  0  0  0  0  0  0  0  0
    6.3367   18.8078   37.9931 C   0  0  0  0  0  0  0  0  0  0  0  0
    6.3858   17.8003   38.9338 O   0  0  0  0  0  0  0  0  0  0  0  0
    9.0220   18.1952   37.1294 H   0  0  0  0  0  0  0  0  0  0  0  0
    7.8996   19.4222   35.9782 H   0  0  0  0  0  0  0  0  0  0  0  0
    5.4035   13.3303   41.7809 N   0  0  0  0  0  0  0  0  0  0  0  0
    5.8400   14.5671   42.0120 C   0  0  0  0  0  0  0  0  0  0  0  0
    6.2674   15.3736   41.0378 N   0  0  0  0  0  0  0  0  0  0  0  0
    6.2748   14.9338   39.7519 C   0  0  0  0  0  0  0  0  0  0  0  0
    5.8493   13.6855   39.4467 C   0  0  0  0  0  0  0  0  0  0  0  0
    5.3848   12.8186   40.4900 C   0  0  0  0  0  0  0  0  0  0  0  0
    5.9624   13.5272   38.1158 N   0  0  0  0  0  0  0  0  0  0  0  0
    6.4547   14.6546   37.6058 C   0  0  0  0  0  0  0  0  0  0  0  0
    6.6517   15.5247   38.5887 N   0  0  0  0  0  0  0  0  0  0  0  0
    5.7230   12.7188   37.6074 H   0  0  0  0  0  0  0  0  0  0  0  0
    5.0688   19.6772   38.2243 C   0  0  0  0  0  0  0  0  0  0  0  0
    4.2638   19.2214   39.3366 O   0  0  0  0  0  0  0  0  0  0  0  0
    3.9471   18.3219   39.1594 H   0  0  0  0  0  0  0  0  0  0  0  0
 10 11  1  0  0  0
 10 15  2  0  0  0
 11 12  2  0  0  0
 12 13  1  0  0  0
 13 14  2  0  0  0
 13 18  1  0  0  0
 14 15  1  0  0  0
 14 16  1  0  0  0
 16 17  2  0  0  0
 17 18  1  0  0  0
 18  1  1  0  0  0
  1  2  1  0  0  0
  1  7  1  0  0  0
  2  3  1  0  0  0
  2  4  1  0  0  0
  4  5  1  0  0  0
  4  6  1  0  0  0
  6  7  1  0  0  0
  6 20  1  0  0  0
 20 21  1  0  0  0
 16 19  1  0  0  0
  3  8  1  0  0  0
  5  9  1  0  0  0
 21 22  1  0  0  0
M  CHG 1  16   1
M  END
> <minimizedAffinity>
-7.47782

$$$$
1FKW_PUR_A_353


 22 24  0  0  0  0  0  0  0  0999 V2000
    6.3862   18.3660   38.2972 C   0  0  0  0  0  0  0  0  0  0  0  0
    5.8076   18.2252   36.8935 C   0  0  0  0  0  0  0  0  0  0  0  0
    6.6005   18.9708   35.9664 O   0  0  0  0  0  0  0  0  0  0  0  0
    4.3140   18.6699   36.8711 C   0  0  0  0  0  0  0  0  0  0  0  0
    4.0193   19.4547   35.7102 O   0  0  0  0  0  0  0  0  0  0  0  0
    4.5013   19.5785   38.1778 C   0  0  0  0  0  0  0  0  0  0  0  0
    5.3918   19.0040   39.0606 O   0  0  0  0  0  0  0  0  0  0  0  0
    6.5905   19.9087   36.2135 H   0  0  0  0  0  0  0  0  0  0  0  0
    4.6721   20.1674   35.6275 H   0  0  0  0  0  0  0  0  0  0  0  0
    8.2335   13.6571   37.2497 N   0  0  0  0  0  0  0  0  0  0  0  0
    8.2780   14.7615   36.5069 C   0  0  0  0  0  0  0  0  0  0  0  0
    7.7804   15.9288   36.9216 N   0  0  0  0  0  0  0  0  0  0  0  0
    7.1920   16.0158   38.1436 C   0  0  0  0  0  0  0  0  0  0  0  0
    7.1080   14.9305   38.9483 C   0  0  0  0  0  0  0  0  0  0  0  0
    7.6462   13.6766   38.5080 C   0  0  0  0  0  0  0  0  0  0  0  0
    6.4894   15.3068   40.0818 N   0  0  0  0  0  0  0  0  0  0  0  0
    6.1900   16.6004   39.9795 C   0  0  0  0  0  0  0  0  0  0  0  0
    6.6109   17.0506   38.8038 N   0  0  0  0  0  0  0  0  0  0  0  0
    6.2924   14.7270   40.8527 H   0  0  0  0  0  0  0  0  0  0  0  0
    3.1593   19.8715   38.9058 C   0  0  0  0  0  0  0  0  0  0  0  0
    3.3403   20.4847   40.2036 O   0  0  0  0  0  0  0  0  0  0  0  0
    3.8354   19.8818   40.7799 H   0  0  0  0  0  0  0  0  0  0  0  0
 10 11  1  0  0  0
 10 15  2  0  0  0
 11 12  2  0  0  0
 12 13  1  0  0  0
 13 14  2  0  0  0
 13 18  1  0  0  0
 14 15  1  0  0  0
 14 16  1  0  0  0
 16 17  2  0  0  0
 17 18  1  0  0  0
 18  1  1  0  0  0
  1  2  1  0  0  0
  1  7  1  0  0  0
  2  3  1  0  0  0
  2  4  1  0  0  0
  4  5  1  0  0  0
  4  6  1  0  0  0
  6  7  1  0  0  0
  6 20  1  0  0  0
 20 21  1  0  0  0
 16 19  1  0  0  0
  3  8  1  0  0  0
  5  9  1  0  0  0
 21 22  1  0  0  0
M  CHG 1  16   1
M  END
> <minimizedAffinity>
-7.38076

$$$$
1FKW_PUR_A_353


 22 24  0  0  0  0  0  0  0  0999 V2000
    6.4249   18.6683   38.0627 C   0  0  0  0  0  0  0  0  0  0  0  0
    6.1253   17.4520   38.9322 C   0  0  0  0  0  0  0  0  0  0  0  0
    6.5764   17.6893   40.2680 O   0  0  0  0  0  0  0  0  0  0  0  0
    6.7682   16.1710   38.3199 C   0  0  0  0  0  0  0  0  0  0  0  0
    7.3721   15.3550   39.3297 O   0  0  0  0  0  0  0  0  0  0  0  0
    7.8547   17.0283   37.5120 C   0  0  0  0  0  0  0  0  0  0  0  0
    7.3218   18.2231   37.0749 O   0  0  0  0  0  0  0  0  0  0  0  0
    7.5347   17.8393   40.2638 H   0  0  0  0  0  0  0  0  0  0  0  0
    7.9587   15.8998   39.8775 H   0  0  0  0  0  0  0  0  0  0  0  0
    1.6884   20.5658   38.8682 N   0  0  0  0  0  0  0  0  0  0  0  0
    2.6824   20.3909   39.7370 C   0  0  0  0  0  0  0  0  0  0  0  0
    3.8761   19.9125   39.3787 N   0  0  0  0  0  0  0  0  0  0  0  0
    4.1068   19.5753   38.0826 C   0  0  0  0  0  0  0  0  0  0  0  0
    3.1387   19.7228   37.1480 C   0  0  0  0  0  0  0  0  0  0  0  0
    1.8572   20.2411   37.5285 C   0  0  0  0  0  0  0  0  0  0  0  0
    3.6426   19.3199   35.9678 N   0  0  0  0  0  0  0  0  0  0  0  0
    4.8984   18.9243   36.1679 C   0  0  0  0  0  0  0  0  0  0  0  0
    5.1997   19.0728   37.4521 N   0  0  0  0  0  0  0  0  0  0  0  0
    3.1662   19.3179   35.1062 H   0  0  0  0  0  0  0  0  0  0  0  0
    8.4592   16.2539   36.3072 C   0  0  0  0  0  0  0  0  0  0  0  0
    8.3209   14.8189   36.4285 O   0  0  0  0  0  0  0  0  0  0  0  0
    8.7995   14.5132   37.2149 H   0  0  0  0  0  0  0  0  0  0  0  0
 10 11  1  0  0  0
 10 15  2  0  0  0
 11 12  2  0  0  0
 12 13  1  0  0  0
 13 14  2  0  0  0
 13 18  1  0  0  0
 14 15  1  0  0  0
 14 16  1  0  0  0
 16 17  2  0  0  0
 17 18  1  0  0  0
 18  1  1  0  0  0
  1  2  1  0  0  0
  1  7  1  0  0  0
  2  3  1  0  0  0
  2  4  1  0  0  0
  4  5  1  0  0  0
  4  6  1  0  0  0
  6  7  1  0  0  0
  6 20  1  0  0  0
 20 21  1  0  0  0
 16 19  1  0  0  0
  3  8  1  0  0  0
  5  9  1  0  0  0
 21 22  1  0  0  0
M  CHG 1  16   1
M  END
> <minimizedAffinity>
-6.81003

$$$$
1FKW_PUR_A_353


 22 24  0  0  0  0  0  0  0  0999 V2000
    6.4101   18.4259   36.5186 C   0  0  0  0  0  0  0  0  0  0  0  0
    7.7758   18.9764   36.9145 C   0  0  0  0  0  0  0  0  0  0  0  0
    8.2984   19.7820   35.8552 O   0  0  0  0  0  0  0  0  0  0  0  0
    8.7438   17.8153   37.2941 C   0  0  0  0  0  0  0  0  0  0  0  0
   10.0524   18.0271   36.7528 O   0  0  0  0  0  0  0  0  0  0  0  0
    7.9044   16.7533   36.4364 C   0  0  0  0  0  0  0  0  0  0  0  0
    6.5535   17.0270   36.4888 O   0  0  0  0  0  0  0  0  0  0  0  0
    8.4016   19.2399   35.0575 H   0  0  0  0  0  0  0  0  0  0  0  0
    9.9825   18.2242   35.8057 H   0  0  0  0  0  0  0  0  0  0  0  0
    1.7477   20.4027   37.5373 N   0  0  0  0  0  0  0  0  0  0  0  0
    2.2894   20.0906   36.3614 C   0  0  0  0  0  0  0  0  0  0  0  0
    3.5063   19.5534   36.2491 N   0  0  0  0  0  0  0  0  0  0  0  0
    4.2444   19.3145   37.3650 C   0  0  0  0  0  0  0  0  0  0  0  0
    3.7568   19.6125   38.5921 C   0  0  0  0  0  0  0  0  0  0  0  0
    2.4481   20.1847   38.7166 C   0  0  0  0  0  0  0  0  0  0  0  0
    4.6892   19.2693   39.4988 N   0  0  0  0  0  0  0  0  0  0  0  0
    5.7382   18.7731   38.8454 C   0  0  0  0  0  0  0  0  0  0  0  0
    5.4855   18.7924   37.5424 N   0  0  0  0  0  0  0  0  0  0  0  0
    4.6099   19.3677   40.4751 H   0  0  0  0  0  0  0  0  0  0  0  0
    8.1576   15.2850   36.8801 C   0  0  0  0  0  0  0  0  0  0  0  0
    6.9532   14.6049   37.3042 O   0  0  0  0  0  0  0  0  0  0  0  0
    6.5790   15.0603   38.0746 H   0  0  0  0  0  0  0  0  0  0  0  0
 10 11  1  0  0  0
 10 15  2  0  0  0
 11 12  2  0  0  0
 12 13  1  0  0  0
 13 14  2  0  0  0
 13 18  1  0  0  0
 14 15  1  0  0  0
 14 16  1  0  0  0
 16 17  2  0  0  0
 17 18  1  0  0  0
 18  1  1  0  0  0
  1  2  1  0  0  0
  1  7  1  0  0  0
  2  3  1  0  0  0
  2  4  1  0  0  0
  4  5  1  0  0  0
  4  6  1  0  0  0
  6  7  1  0  0  0
  6 20  1  0  0  0
 20 21  1  0  0  0
 16 19  1  0  0  0
  3  8  1  0  0  0
  5  9  1  0  0  0
 21 22  1  0  0  0
M  CHG 1  16   1
M  END
> <minimizedAffinity>
-6.13602

$$$$
1FKW_PUR_A_353


 22 24  0  0  0  0  0  0  0  0999 V2000
    4.2109   20.1496   38.3505 C   0  0  0  0  0  0  0  0  0  0  0  0
    2.9481   19.6777   37.6381 C   0  0  0  0  0  0  0  0  0  0  0  0
    2.7407   20.4542   36.4557 O   0  0  0  0  0  0  0  0  0  0  0  0
    1.7225   19.7418   38.5987 C   0  0  0  0  0  0  0  0  0  0  0  0
    0.5646   20.2613   37.9354 O   0  0  0  0  0  0  0  0  0  0  0  0
    2.4282   20.8433   39.5244 C   0  0  0  0  0  0  0  0  0  0  0  0
    3.7886   20.6302   39.6032 O   0  0  0  0  0  0  0  0  0  0  0  0
    2.6307   21.3873   36.6968 H   0  0  0  0  0  0  0  0  0  0  0  0
    0.7932   21.0913   37.4884 H   0  0  0  0  0  0  0  0  0  0  0  0
    7.9905   17.2815   36.3081 N   0  0  0  0  0  0  0  0  0  0  0  0
    7.4713   18.4253   35.8659 C   0  0  0  0  0  0  0  0  0  0  0  0
    6.5078   19.0788   36.5193 N   0  0  0  0  0  0  0  0  0  0  0  0
    6.0150   18.5712   37.6795 C   0  0  0  0  0  0  0  0  0  0  0  0
    6.4938   17.4095   38.1833 C   0  0  0  0  0  0  0  0  0  0  0  0
    7.5322   16.7079   37.4869 C   0  0  0  0  0  0  0  0  0  0  0  0
    5.8338   17.1553   39.3274 N   0  0  0  0  0  0  0  0  0  0  0  0
    4.9576   18.1383   39.5264 C   0  0  0  0  0  0  0  0  0  0  0  0
    5.0534   19.0117   38.5314 N   0  0  0  0  0  0  0  0  0  0  0  0
    5.9741   16.3781   39.9153 H   0  0  0  0  0  0  0  0  0  0  0  0
    1.8250   20.9038   40.9559 C   0  0  0  0  0  0  0  0  0  0  0  0
    0.3787   20.9410   40.9608 O   0  0  0  0  0  0  0  0  0  0  0  0
    0.0743   21.7408   40.5042 H   0  0  0  0  0  0  0  0  0  0  0  0
 10 11  1  0  0  0
 10 15  2  0  0  0
 11 12  2  0  0  0
 12 13  1  0  0  0
 13 14  2  0  0  0
 13 18  1  0  0  0
 14 15  1  0  0  0
 14 16  1  0  0  0
 16 17  2  0  0  0
 17 18  1  0  0  0
 18  1  1  0  0  0
  1  2  1  0  0  0
  1  7  1  0  0  0
  2  3  1  0  0  0
  2  4  1  0  0  0
  4  5  1  0  0  0
  4  6  1  0  0  0
  6  7  1  0  0  0
  6 20  1  0  0  0
 20 21  1  0  0  0
 16 19  1  0  0  0
  3  8  1  0  0  0
  5  9  1  0  0  0
 21 22  1  0  0  0
M  CHG 1  16   1
M  END
> <minimizedAffinity>
-6.12756

$$$$
1FKW_PUR_A_353


 22 24  0  0  0  0  0  0  0  0999 V2000
    6.6972   14.6146   38.4317 C   0  0  0  0  0  0  0  0  0  0  0  0
    7.7565   13.6262   38.9069 C   0  0  0  0  0  0  0  0  0  0  0  0
    7.4041   12.3036   38.4940 O   0  0  0  0  0  0  0  0  0  0  0  0
    7.9411   13.7237   40.4514 C   0  0  0  0  0  0  0  0  0  0  0  0
    8.0588   12.4270   41.0471 O   0  0  0  0  0  0  0  0  0  0  0  0
    6.4766   14.3439   40.6487 C   0  0  0  0  0  0  0  0  0  0  0  0
    6.1400   15.1708   39.5973 O   0  0  0  0  0  0  0  0  0  0  0  0
    6.5520   12.0583   38.8873 H   0  0  0  0  0  0  0  0  0  0  0  0
    7.3282   11.8649   40.7450 H   0  0  0  0  0  0  0  0  0  0  0  0
    7.3450   19.7006   37.8015 N   0  0  0  0  0  0  0  0  0  0  0  0
    6.6605   19.0508   38.7410 C   0  0  0  0  0  0  0  0  0  0  0  0
    6.6036   17.7183   38.7986 N   0  0  0  0  0  0  0  0  0  0  0  0
    7.2550   16.9739   37.8667 C   0  0  0  0  0  0  0  0  0  0  0  0
    7.9656   17.5698   36.8806 C   0  0  0  0  0  0  0  0  0  0  0  0
    8.0330   19.0007   36.8189 C   0  0  0  0  0  0  0  0  0  0  0  0
    8.5003   16.6005   36.1166 N   0  0  0  0  0  0  0  0  0  0  0  0
    8.1233   15.4251   36.6163 C   0  0  0  0  0  0  0  0  0  0  0  0
    7.3630   15.6325   37.6845 N   0  0  0  0  0  0  0  0  0  0  0  0
    9.0709   16.7363   35.3259 H   0  0  0  0  0  0  0  0  0  0  0  0
    6.3243   15.1154   41.9897 C   0  0  0  0  0  0  0  0  0  0  0  0
    6.9747   14.4555   43.1008 O   0  0  0  0  0  0  0  0  0  0  0  0
    6.5705   13.5850   43.2413 H   0  0  0  0  0  0  0  0  0  0  0  0
 10 11  1  0  0  0
 10 15  2  0  0  0
 11 12  2  0  0  0
 12 13  1  0  0  0
 13 14  2  0  0  0
 13 18  1  0  0  0
 14 15  1  0  0  0
 14 16  1  0  0  0
 16 17  2  0  0  0
 17 18  1  0  0  0
 18  1  1  0  0  0
  1  2  1  0  0  0
  1  7  1  0  0  0
  2  3  1  0  0  0
  2  4  1  0  0  0
  4  5  1  0  0  0
  4  6  1  0  0  0
  6  7  1  0  0  0
  6 20  1  0  0  0
 20 21  1  0  0  0
 16 19  1  0  0  0
  3  8  1  0  0  0
  5  9  1  0  0  0
 21 22  1  0  0  0
M  CHG 1  16   1
M  END
> <minimizedAffinity>
-5.89707

$$$$
1FKW_PUR_A_353


 22 24  0  0  0  0  0  0  0  0999 V2000
    7.1718   16.3392   36.7671 C   0  0  0  0  0  0  0  0  0  0  0  0
    6.4229   17.3301   37.6515 C   0  0  0  0  0  0  0  0  0  0  0  0
    5.2331   17.7661   36.9895 O   0  0  0  0  0  0  0  0  0  0  0  0
    7.3461   18.5255   38.0360 C   0  0  0  0  0  0  0  0  0  0  0  0
    6.6472   19.7727   37.9570 O   0  0  0  0  0  0  0  0  0  0  0  0
    8.2901   18.2851   36.7634 C   0  0  0  0  0  0  0  0  0  0  0  0
    8.4102   16.9408   36.4791 O   0  0  0  0  0  0  0  0  0  0  0  0
    5.4687   18.2080   36.1588 H   0  0  0  0  0  0  0  0  0  0  0  0
    6.2054   19.8418   37.0962 H   0  0  0  0  0  0  0  0  0  0  0  0
    6.6558   14.1128   41.3996 N   0  0  0  0  0  0  0  0  0  0  0  0
    6.2283   15.3051   40.9881 C   0  0  0  0  0  0  0  0  0  0  0  0
    6.4087   15.7432   39.7401 N   0  0  0  0  0  0  0  0  0  0  0  0
    7.0598   14.9626   38.8381 C   0  0  0  0  0  0  0  0  0  0  0  0
    7.5252   13.7413   39.1907 C   0  0  0  0  0  0  0  0  0  0  0  0
    7.3285   13.2656   40.5289 C   0  0  0  0  0  0  0  0  0  0  0  0
    8.1141   13.1986   38.1101 N   0  0  0  0  0  0  0  0  0  0  0  0
    8.0209   14.0699   37.1072 C   0  0  0  0  0  0  0  0  0  0  0  0
    7.3806   15.1523   37.5322 N   0  0  0  0  0  0  0  0  0  0  0  0
    8.5399   12.3120   38.0678 H   0  0  0  0  0  0  0  0  0  0  0  0
    9.7027   18.9114   36.9338 C   0  0  0  0  0  0  0  0  0  0  0  0
    9.6729   20.3524   37.0589 O   0  0  0  0  0  0  0  0  0  0  0  0
    9.3002   20.7395   36.2513 H   0  0  0  0  0  0  0  0  0  0  0  0
 10 11  1  0  0  0
 10 15  2  0  0  0
 11 12  2  0  0  0
 12 13  1  0  0  0
 13 14  2  0  0  0
 13 18  1  0  0  0
 14 15  1  0  0  0
 14 16  1  0  0  0
 16 17  2  0  0  0
 17 18  1  0  0  0
 18  1  1  0  0  0
  1  2  1  0  0  0
  1  7  1  0  0  0
  2  3  1  0  0  0
  2  4  1  0  0  0
  4  5  1  0  0  0
  4  6  1  0  0  0
  6  7  1  0  0  0
  6 20  1  0  0  0
 20 21  1  0  0  0
 16 19  1  0  0  0
  3  8  1  0  0  0
  5  9  1  0  0  0
 21 22  1  0  0  0
M  CHG 1  16   1
M  END
> <minimizedAffinity>
-5.79877

$$$$
