2R38_G4G_B_2501


 50 54  0  0  0  0  0  0  0  0999 V2000
   12.3152  -20.1334  -14.4383 C   0  0  0  0  0  0  0  0  0  0  0  0
   13.0502  -18.9034  -14.0177 N   0  0  0  0  0  0  0  0  0  0  0  0
   11.9671  -19.9201  -15.9262 C   0  0  0  0  0  0  0  0  0  0  0  0
   11.9537  -18.3480  -16.1242 C   0  0  0  0  0  0  0  0  0  0  0  0
   12.7605  -17.7805  -14.9258 C   0  0  0  0  0  0  0  0  0  0  0  0
   14.0524  -19.0928  -14.0303 H   0  0  0  0  0  0  0  0  0  0  0  0
   13.0397  -20.4724  -16.8293 N   0  0  0  0  0  0  0  0  0  0  0  0
   14.0208  -21.6378  -16.0965 S   0  0  0  0  0  0  0  0  0  0  0  0
   14.9819  -20.9064  -15.2835 O   0  0  0  0  0  0  0  0  0  0  0  0
   13.1352  -22.5831  -15.3667 O   0  0  0  0  0  0  0  0  0  0  0  0
   16.8487  -23.1833  -18.6393 C   0  0  0  0  0  0  0  0  0  0  0  0
   14.6934  -24.3508  -19.0597 C   0  0  0  0  0  0  0  0  0  0  0  0
   16.0694  -24.1635  -19.3522 C   0  0  0  0  0  0  0  0  0  0  0  0
   16.2110  -22.4155  -17.6209 C   0  0  0  0  0  0  0  0  0  0  0  0
   14.0675  -23.5532  -18.0558 C   0  0  0  0  0  0  0  0  0  0  0  0
   14.8290  -22.5797  -17.3279 C   0  0  0  0  0  0  0  0  0  0  0  0
   16.0322  -25.6511  -21.2683 N   0  0  0  0  0  0  0  0  0  0  0  0
   17.9667  -24.8453  -20.4973 O   0  0  0  0  0  0  0  0  0  0  0  0
   16.7542  -24.9192  -20.4108 C   0  0  0  0  0  0  0  0  0  0  0  0
   16.4820  -26.1606  -21.9806 H   0  0  0  0  0  0  0  0  0  0  0  0
   15.0515  -25.6798  -21.1866 H   0  0  0  0  0  0  0  0  0  0  0  0
   13.2997  -20.1658  -18.2476 C   0  0  0  0  0  0  0  0  0  0  0  0
   12.4555  -21.0290  -19.1885 C   0  0  0  0  0  0  0  0  0  0  0  0
   11.1972  -21.5638  -18.7597 C   0  0  0  0  0  0  0  0  0  0  0  0
   12.9095  -21.3038  -20.5193 C   0  0  0  0  0  0  0  0  0  0  0  0
   10.4415  -22.3591  -19.6766 C   0  0  0  0  0  0  0  0  0  0  0  0
   12.1669  -22.1268  -21.4185 C   0  0  0  0  0  0  0  0  0  0  0  0
   10.9153  -22.6574  -20.9879 C   0  0  0  0  0  0  0  0  0  0  0  0
   10.5320  -17.8437  -16.1429 N   0  0  0  0  0  0  0  0  0  0  0  0
    9.5865  -18.2801  -14.7772 S   0  0  0  0  0  0  0  0  0  0  0  0
    8.8685  -19.5055  -15.0485 O   0  0  0  0  0  0  0  0  0  0  0  0
   10.3376  -17.9316  -13.5836 O   0  0  0  0  0  0  0  0  0  0  0  0
    7.7596  -14.6102  -14.6251 C   0  0  0  0  0  0  0  0  0  0  0  0
    6.1239  -16.1974  -15.5463 C   0  0  0  0  0  0  0  0  0  0  0  0
    6.4826  -14.8918  -15.1368 C   0  0  0  0  0  0  0  0  0  0  0  0
    8.7241  -15.6358  -14.4889 C   0  0  0  0  0  0  0  0  0  0  0  0
    7.1000  -17.2261  -15.4117 C   0  0  0  0  0  0  0  0  0  0  0  0
    8.3926  -16.9512  -14.9078 C   0  0  0  0  0  0  0  0  0  0  0  0
    4.7927  -13.6913  -16.2597 O   0  0  0  0  0  0  0  0  0  0  0  0
    5.3973  -12.8429  -14.2832 N   0  0  0  0  0  0  0  0  0  0  0  0
    5.4944  -13.7552  -15.2650 C   0  0  0  0  0  0  0  0  0  0  0  0
    4.7551  -12.1009  -14.3625 H   0  0  0  0  0  0  0  0  0  0  0  0
    5.9684  -12.9165  -13.4847 H   0  0  0  0  0  0  0  0  0  0  0  0
    9.8764  -17.0583  -17.2241 C   0  0  0  0  0  0  0  0  0  0  0  0
    9.5046  -17.8538  -18.4688 C   0  0  0  0  0  0  0  0  0  0  0  0
    8.2356  -18.4616  -18.5534 C   0  0  0  0  0  0  0  0  0  0  0  0
    7.9450  -19.1960  -19.7372 C   0  0  0  0  0  0  0  0  0  0  0  0
    8.9028  -19.2935  -20.7902 C   0  0  0  0  0  0  0  0  0  0  0  0
   10.4715  -17.9686  -19.5054 C   0  0  0  0  0  0  0  0  0  0  0  0
   10.1791  -18.6789  -20.6982 C   0  0  0  0  0  0  0  0  0  0  0  0
 11 13  2  0  0  0
 11 14  1  0  0  0
 39 41  2  0  0  0
 17 19  1  0  0  0
 33 36  2  0  0  0
 33 35  1  0  0  0
 18 19  2  0  0  0
 40 41  1  0  0  0
 12 15  2  0  0  0
 12 13  1  0  0  0
 13 19  1  0  0  0
 34 35  2  0  0  0
 34 37  1  0  0  0
 35 41  1  0  0  0
 22  7  1  0  0  0
 22 23  1  0  0  0
  8  7  1  0  0  0
  8  9  2  0  0  0
  8 16  1  0  0  0
  8 10  2  0  0  0
 30 32  2  0  0  0
 30 38  1  0  0  0
 30 29  1  0  0  0
 30 31  2  0  0  0
 23 25  1  0  0  0
 23 24  2  0  0  0
 24 26  1  0  0  0
 25 27  2  0  0  0
 14 16  2  0  0  0
 36 38  1  0  0  0
 15 16  1  0  0  0
 37 38  2  0  0  0
  1  2  1  0  0  0
  1  3  1  0  0  0
  2  5  1  0  0  0
  3  4  1  0  0  0
  3  7  1  0  0  0
  4 29  1  0  0  0
  4  5  1  0  0  0
 26 28  2  0  0  0
 27 28  1  0  0  0
 29 44  1  0  0  0
 44 45  1  0  0  0
 45 49  1  0  0  0
 45 46  2  0  0  0
 46 47  1  0  0  0
 47 48  2  0  0  0
 48 50  1  0  0  0
 49 50  2  0  0  0
 17 20  1  0  0  0
 17 21  1  0  0  0
 40 42  1  0  0  0
 40 43  1  0  0  0
  2  6  1  0  0  0
M  END
> <minimizedAffinity>
-10.79721

$$$$
2R38_G4G_B_2501


 50 54  0  0  0  0  0  0  0  0999 V2000
   11.8634  -21.0941  -15.3077 C   0  0  0  0  0  0  0  0  0  0  0  0
   12.7961  -20.1306  -14.6507 N   0  0  0  0  0  0  0  0  0  0  0  0
   11.5541  -20.4921  -16.6943 C   0  0  0  0  0  0  0  0  0  0  0  0
   11.8060  -18.9360  -16.5325 C   0  0  0  0  0  0  0  0  0  0  0  0
   12.6988  -18.7979  -15.2703 C   0  0  0  0  0  0  0  0  0  0  0  0
   13.7519  -20.4738  -14.7457 H   0  0  0  0  0  0  0  0  0  0  0  0
   12.5168  -20.9915  -17.7406 N   0  0  0  0  0  0  0  0  0  0  0  0
   11.9180  -22.2706  -18.6695 S   0  0  0  0  0  0  0  0  0  0  0  0
   11.0652  -23.0508  -17.7843 O   0  0  0  0  0  0  0  0  0  0  0  0
   11.2563  -21.6907  -19.8680 O   0  0  0  0  0  0  0  0  0  0  0  0
   14.6937  -25.2511  -19.1835 C   0  0  0  0  0  0  0  0  0  0  0  0
   15.0954  -23.4995  -20.9027 C   0  0  0  0  0  0  0  0  0  0  0  0
   15.4376  -24.7415  -20.3075 C   0  0  0  0  0  0  0  0  0  0  0  0
   13.5944  -24.4876  -18.6915 C   0  0  0  0  0  0  0  0  0  0  0  0
   14.0091  -22.7377  -20.3780 C   0  0  0  0  0  0  0  0  0  0  0  0
   13.2498  -23.2332  -19.2666 C   0  0  0  0  0  0  0  0  0  0  0  0
   17.5543  -25.8589  -19.9116 N   0  0  0  0  0  0  0  0  0  0  0  0
   16.5991  -25.9237  -21.9289 O   0  0  0  0  0  0  0  0  0  0  0  0
   16.5782  -25.5439  -20.7720 C   0  0  0  0  0  0  0  0  0  0  0  0
   18.3222  -26.3959  -20.2135 H   0  0  0  0  0  0  0  0  0  0  0  0
   17.5042  -25.5535  -18.9770 H   0  0  0  0  0  0  0  0  0  0  0  0
   13.8593  -20.4836  -18.0766 C   0  0  0  0  0  0  0  0  0  0  0  0
   14.9100  -20.9050  -17.0464 C   0  0  0  0  0  0  0  0  0  0  0  0
   15.6359  -19.9226  -16.2972 C   0  0  0  0  0  0  0  0  0  0  0  0
   15.1729  -22.2931  -16.8087 C   0  0  0  0  0  0  0  0  0  0  0  0
   16.6027  -20.3651  -15.3415 C   0  0  0  0  0  0  0  0  0  0  0  0
   16.1637  -22.7283  -15.8779 C   0  0  0  0  0  0  0  0  0  0  0  0
   16.8842  -21.7475  -15.1346 C   0  0  0  0  0  0  0  0  0  0  0  0
   10.4899  -18.2147  -16.3803 N   0  0  0  0  0  0  0  0  0  0  0  0
    9.6005  -18.6128  -14.9660 S   0  0  0  0  0  0  0  0  0  0  0  0
    8.8028  -19.7951  -15.2044 O   0  0  0  0  0  0  0  0  0  0  0  0
   10.4354  -18.3170  -13.8148 O   0  0  0  0  0  0  0  0  0  0  0  0
    7.9884  -14.8507  -14.6898 C   0  0  0  0  0  0  0  0  0  0  0  0
    6.2171  -16.3400  -15.5190 C   0  0  0  0  0  0  0  0  0  0  0  0
    6.6700  -15.0588  -15.1259 C   0  0  0  0  0  0  0  0  0  0  0  0
    8.9020  -15.9280  -14.6156 C   0  0  0  0  0  0  0  0  0  0  0  0
    7.1420  -17.4210  -15.4471 C   0  0  0  0  0  0  0  0  0  0  0  0
    8.4752  -17.2203  -15.0197 C   0  0  0  0  0  0  0  0  0  0  0  0
    5.0353  -13.7223  -16.1744 O   0  0  0  0  0  0  0  0  0  0  0  0
    5.6946  -13.0024  -14.1647 N   0  0  0  0  0  0  0  0  0  0  0  0
    5.7394  -13.8695  -15.1902 C   0  0  0  0  0  0  0  0  0  0  0  0
    5.0900  -12.2263  -14.2023 H   0  0  0  0  0  0  0  0  0  0  0  0
    6.2664  -13.1431  -13.3758 H   0  0  0  0  0  0  0  0  0  0  0  0
    9.8860  -17.2459  -17.3354 C   0  0  0  0  0  0  0  0  0  0  0  0
    9.4051  -17.8461  -18.6503 C   0  0  0  0  0  0  0  0  0  0  0  0
   10.3450  -18.1972  -19.6404 C   0  0  0  0  0  0  0  0  0  0  0  0
    9.8382  -18.7489  -20.8503 C   0  0  0  0  0  0  0  0  0  0  0  0
    8.4368  -18.9441  -21.0337 C   0  0  0  0  0  0  0  0  0  0  0  0
    8.0057  -18.0161  -18.8382 C   0  0  0  0  0  0  0  0  0  0  0  0
    7.4958  -18.5880  -20.0323 C   0  0  0  0  0  0  0  0  0  0  0  0
 11 13  2  0  0  0
 11 14  1  0  0  0
 39 41  2  0  0  0
 17 19  1  0  0  0
 33 36  2  0  0  0
 33 35  1  0  0  0
 18 19  2  0  0  0
 40 41  1  0  0  0
 12 15  2  0  0  0
 12 13  1  0  0  0
 13 19  1  0  0  0
 34 35  2  0  0  0
 34 37  1  0  0  0
 35 41  1  0  0  0
 22  7  1  0  0  0
 22 23  1  0  0  0
  8  7  1  0  0  0
  8  9  2  0  0  0
  8 16  1  0  0  0
  8 10  2  0  0  0
 30 32  2  0  0  0
 30 38  1  0  0  0
 30 29  1  0  0  0
 30 31  2  0  0  0
 23 25  1  0  0  0
 23 24  2  0  0  0
 24 26  1  0  0  0
 25 27  2  0  0  0
 14 16  2  0  0  0
 36 38  1  0  0  0
 15 16  1  0  0  0
 37 38  2  0  0  0
  1  2  1  0  0  0
  1  3  1  0  0  0
  2  5  1  0  0  0
  3  4  1  0  0  0
  3  7  1  0  0  0
  4 29  1  0  0  0
  4  5  1  0  0  0
 26 28  2  0  0  0
 27 28  1  0  0  0
 29 44  1  0  0  0
 44 45  1  0  0  0
 45 49  1  0  0  0
 45 46  2  0  0  0
 46 47  1  0  0  0
 47 48  2  0  0  0
 48 50  1  0  0  0
 49 50  2  0  0  0
 17 20  1  0  0  0
 17 21  1  0  0  0
 40 42  1  0  0  0
 40 43  1  0  0  0
  2  6  1  0  0  0
M  END
> <minimizedAffinity>
-10.50011

$$$$
2R38_G4G_B_2501


 50 54  0  0  0  0  0  0  0  0999 V2000
   11.5569  -22.7842  -17.1378 C   0  0  0  0  0  0  0  0  0  0  0  0
   10.3289  -22.4323  -16.3645 N   0  0  0  0  0  0  0  0  0  0  0  0
   12.3018  -21.4518  -17.3622 C   0  0  0  0  0  0  0  0  0  0  0  0
   11.1825  -20.3340  -17.2683 C   0  0  0  0  0  0  0  0  0  0  0  0
    9.9998  -21.0051  -16.5199 C   0  0  0  0  0  0  0  0  0  0  0  0
   10.4874  -22.6327  -15.3770 H   0  0  0  0  0  0  0  0  0  0  0  0
   13.2937  -21.1808  -16.2605 N   0  0  0  0  0  0  0  0  0  0  0  0
   14.8105  -20.6774  -16.8111 S   0  0  0  0  0  0  0  0  0  0  0  0
   14.5579  -19.6899  -17.8506 O   0  0  0  0  0  0  0  0  0  0  0  0
   15.5858  -20.2021  -15.6349 O   0  0  0  0  0  0  0  0  0  0  0  0
   16.1781  -23.6741  -19.2609 C   0  0  0  0  0  0  0  0  0  0  0  0
   17.4082  -23.8016  -17.1031 C   0  0  0  0  0  0  0  0  0  0  0  0
   17.1636  -24.2937  -18.4115 C   0  0  0  0  0  0  0  0  0  0  0  0
   15.4643  -22.5441  -18.7640 C   0  0  0  0  0  0  0  0  0  0  0  0
   16.6636  -22.6868  -16.6147 C   0  0  0  0  0  0  0  0  0  0  0  0
   15.6860  -22.0498  -17.4490 C   0  0  0  0  0  0  0  0  0  0  0  0
   18.7416  -26.1214  -18.1768 N   0  0  0  0  0  0  0  0  0  0  0  0
   17.6094  -25.8399  -20.0808 O   0  0  0  0  0  0  0  0  0  0  0  0
   17.8625  -25.4701  -18.9484 C   0  0  0  0  0  0  0  0  0  0  0  0
   19.2145  -26.9104  -18.5276 H   0  0  0  0  0  0  0  0  0  0  0  0
   18.9150  -25.8115  -17.2586 H   0  0  0  0  0  0  0  0  0  0  0  0
   13.0941  -21.2515  -14.8016 C   0  0  0  0  0  0  0  0  0  0  0  0
   12.6428  -19.9113  -14.2156 C   0  0  0  0  0  0  0  0  0  0  0  0
   12.2572  -19.8069  -12.8394 C   0  0  0  0  0  0  0  0  0  0  0  0
   12.6120  -18.7375  -15.0362 C   0  0  0  0  0  0  0  0  0  0  0  0
   11.8492  -18.5325  -12.3361 C   0  0  0  0  0  0  0  0  0  0  0  0
   12.1710  -17.4751  -14.5369 C   0  0  0  0  0  0  0  0  0  0  0  0
   11.7877  -17.3754  -13.1670 C   0  0  0  0  0  0  0  0  0  0  0  0
   10.7941  -19.8771  -18.6525 N   0  0  0  0  0  0  0  0  0  0  0  0
   10.9265  -18.1866  -18.9254 S   0  0  0  0  0  0  0  0  0  0  0  0
   12.0186  -17.6477  -18.1459 O   0  0  0  0  0  0  0  0  0  0  0  0
   10.6171  -17.9336  -20.3219 O   0  0  0  0  0  0  0  0  0  0  0  0
    6.9889  -17.4768  -18.0194 C   0  0  0  0  0  0  0  0  0  0  0  0
    8.3163  -16.8049  -16.0624 C   0  0  0  0  0  0  0  0  0  0  0  0
    7.0717  -16.9596  -16.7165 C   0  0  0  0  0  0  0  0  0  0  0  0
    8.1585  -17.8448  -18.7248 C   0  0  0  0  0  0  0  0  0  0  0  0
    9.4911  -17.1812  -16.7748 C   0  0  0  0  0  0  0  0  0  0  0  0
    9.4181  -17.7133  -18.0832 C   0  0  0  0  0  0  0  0  0  0  0  0
    4.9406  -17.4468  -15.8339 O   0  0  0  0  0  0  0  0  0  0  0  0
    5.6055  -15.3293  -15.5779 N   0  0  0  0  0  0  0  0  0  0  0  0
    5.7884  -16.5887  -16.0091 C   0  0  0  0  0  0  0  0  0  0  0  0
    4.7713  -15.0832  -15.1166 H   0  0  0  0  0  0  0  0  0  0  0  0
    6.3057  -14.6526  -15.7231 H   0  0  0  0  0  0  0  0  0  0  0  0
   10.2814  -20.7256  -19.7629 C   0  0  0  0  0  0  0  0  0  0  0  0
   11.3446  -21.5017  -20.5295 C   0  0  0  0  0  0  0  0  0  0  0  0
   12.6659  -21.0129  -20.5755 C   0  0  0  0  0  0  0  0  0  0  0  0
   13.6155  -21.7767  -21.3104 C   0  0  0  0  0  0  0  0  0  0  0  0
   13.2343  -22.9899  -21.9572 C   0  0  0  0  0  0  0  0  0  0  0  0
   10.9544  -22.6977  -21.1929 C   0  0  0  0  0  0  0  0  0  0  0  0
   11.9016  -23.4762  -21.9069 C   0  0  0  0  0  0  0  0  0  0  0  0
 11 13  2  0  0  0
 11 14  1  0  0  0
 39 41  2  0  0  0
 17 19  1  0  0  0
 33 36  2  0  0  0
 33 35  1  0  0  0
 18 19  2  0  0  0
 40 41  1  0  0  0
 12 15  2  0  0  0
 12 13  1  0  0  0
 13 19  1  0  0  0
 34 35  2  0  0  0
 34 37  1  0  0  0
 35 41  1  0  0  0
 22  7  1  0  0  0
 22 23  1  0  0  0
  8  7  1  0  0  0
  8  9  2  0  0  0
  8 16  1  0  0  0
  8 10  2  0  0  0
 30 32  2  0  0  0
 30 38  1  0  0  0
 30 29  1  0  0  0
 30 31  2  0  0  0
 23 25  1  0  0  0
 23 24  2  0  0  0
 24 26  1  0  0  0
 25 27  2  0  0  0
 14 16  2  0  0  0
 36 38  1  0  0  0
 15 16  1  0  0  0
 37 38  2  0  0  0
  1  2  1  0  0  0
  1  3  1  0  0  0
  2  5  1  0  0  0
  3  4  1  0  0  0
  3  7  1  0  0  0
  4 29  1  0  0  0
  4  5  1  0  0  0
 26 28  2  0  0  0
 27 28  1  0  0  0
 29 44  1  0  0  0
 44 45  1  0  0  0
 45 49  1  0  0  0
 45 46  2  0  0  0
 46 47  1  0  0  0
 47 48  2  0  0  0
 48 50  1  0  0  0
 49 50  2  0  0  0
 17 20  1  0  0  0
 17 21  1  0  0  0
 40 42  1  0  0  0
 40 43  1  0  0  0
  2  6  1  0  0  0
M  END
> <minimizedAffinity>
-10.27739

$$$$
2R38_G4G_B_2501


 50 54  0  0  0  0  0  0  0  0999 V2000
   11.5947  -20.5163  -20.0871 C   0  0  0  0  0  0  0  0  0  0  0  0
   10.4216  -21.4331  -20.2023 N   0  0  0  0  0  0  0  0  0  0  0  0
   11.9033  -20.4254  -18.5781 C   0  0  0  0  0  0  0  0  0  0  0  0
   10.5362  -20.7744  -17.8569 C   0  0  0  0  0  0  0  0  0  0  0  0
    9.6897  -21.5146  -18.9268 C   0  0  0  0  0  0  0  0  0  0  0  0
   10.7497  -22.3642  -20.4590 H   0  0  0  0  0  0  0  0  0  0  0  0
   12.9069  -21.4673  -18.1557 N   0  0  0  0  0  0  0  0  0  0  0  0
   14.3500  -20.8256  -17.5530 S   0  0  0  0  0  0  0  0  0  0  0  0
   15.2886  -20.8215  -18.6659 O   0  0  0  0  0  0  0  0  0  0  0  0
   14.0425  -19.4997  -16.9548 O   0  0  0  0  0  0  0  0  0  0  0  0
   14.5955  -23.0300  -14.0988 C   0  0  0  0  0  0  0  0  0  0  0  0
   16.8103  -23.0919  -15.2284 C   0  0  0  0  0  0  0  0  0  0  0  0
   15.9678  -23.4669  -14.1498 C   0  0  0  0  0  0  0  0  0  0  0  0
   14.0969  -22.2250  -15.1649 C   0  0  0  0  0  0  0  0  0  0  0  0
   16.2996  -22.2631  -16.2714 C   0  0  0  0  0  0  0  0  0  0  0  0
   14.9335  -21.8269  -16.2440 C   0  0  0  0  0  0  0  0  0  0  0  0
   15.7943  -25.3892  -12.6800 N   0  0  0  0  0  0  0  0  0  0  0  0
   17.4605  -23.9229  -12.4353 O   0  0  0  0  0  0  0  0  0  0  0  0
   16.4532  -24.2752  -13.0221 C   0  0  0  0  0  0  0  0  0  0  0  0
   16.1119  -25.9371  -11.9262 H   0  0  0  0  0  0  0  0  0  0  0  0
   14.9922  -25.6606  -13.1822 H   0  0  0  0  0  0  0  0  0  0  0  0
   12.7694  -22.9350  -18.1576 C   0  0  0  0  0  0  0  0  0  0  0  0
   13.6998  -23.6003  -19.1750 C   0  0  0  0  0  0  0  0  0  0  0  0
   13.6579  -23.2279  -20.5580 C   0  0  0  0  0  0  0  0  0  0  0  0
   14.6364  -24.5987  -18.7528 C   0  0  0  0  0  0  0  0  0  0  0  0
   14.5510  -23.8727  -21.4694 C   0  0  0  0  0  0  0  0  0  0  0  0
   15.5017  -25.2635  -19.6729 C   0  0  0  0  0  0  0  0  0  0  0  0
   15.4567  -24.8904  -21.0485 C   0  0  0  0  0  0  0  0  0  0  0  0
    9.8688  -19.5088  -17.3789 N   0  0  0  0  0  0  0  0  0  0  0  0
    9.9341  -18.1910  -18.4784 S   0  0  0  0  0  0  0  0  0  0  0  0
   11.0982  -17.3789  -18.2027 O   0  0  0  0  0  0  0  0  0  0  0  0
    9.4592  -18.6610  -19.7683 O   0  0  0  0  0  0  0  0  0  0  0  0
    6.1147  -16.9674  -17.6156 C   0  0  0  0  0  0  0  0  0  0  0  0
    7.6470  -15.4461  -16.4405 C   0  0  0  0  0  0  0  0  0  0  0  0
    6.3380  -15.8634  -16.7770 C   0  0  0  0  0  0  0  0  0  0  0  0
    7.2015  -17.6878  -18.1640 C   0  0  0  0  0  0  0  0  0  0  0  0
    8.7383  -16.1774  -16.9913 C   0  0  0  0  0  0  0  0  0  0  0  0
    8.5245  -17.2974  -17.8281 C   0  0  0  0  0  0  0  0  0  0  0  0
    5.1513  -13.9167  -16.1770 O   0  0  0  0  0  0  0  0  0  0  0  0
    4.0786  -15.8354  -15.7778 N   0  0  0  0  0  0  0  0  0  0  0  0
    5.1385  -15.1350  -16.2153 C   0  0  0  0  0  0  0  0  0  0  0  0
    3.2952  -15.3652  -15.4112 H   0  0  0  0  0  0  0  0  0  0  0  0
    4.0853  -16.8188  -15.8240 H   0  0  0  0  0  0  0  0  0  0  0  0
    9.2113  -19.2875  -16.0619 C   0  0  0  0  0  0  0  0  0  0  0  0
   10.1552  -18.9510  -14.9147 C   0  0  0  0  0  0  0  0  0  0  0  0
    9.9476  -17.7762  -14.1640 C   0  0  0  0  0  0  0  0  0  0  0  0
   10.8633  -17.5103  -13.1076 C   0  0  0  0  0  0  0  0  0  0  0  0
   11.9335  -18.4103  -12.8244 C   0  0  0  0  0  0  0  0  0  0  0  0
   11.2348  -19.8386  -14.6517 C   0  0  0  0  0  0  0  0  0  0  0  0
   12.1368  -19.5918  -13.5847 C   0  0  0  0  0  0  0  0  0  0  0  0
 11 13  2  0  0  0
 11 14  1  0  0  0
 39 41  2  0  0  0
 17 19  1  0  0  0
 33 36  2  0  0  0
 33 35  1  0  0  0
 18 19  2  0  0  0
 40 41  1  0  0  0
 12 15  2  0  0  0
 12 13  1  0  0  0
 13 19  1  0  0  0
 34 35  2  0  0  0
 34 37  1  0  0  0
 35 41  1  0  0  0
 22  7  1  0  0  0
 22 23  1  0  0  0
  8  7  1  0  0  0
  8  9  2  0  0  0
  8 16  1  0  0  0
  8 10  2  0  0  0
 30 32  2  0  0  0
 30 38  1  0  0  0
 30 29  1  0  0  0
 30 31  2  0  0  0
 23 25  1  0  0  0
 23 24  2  0  0  0
 24 26  1  0  0  0
 25 27  2  0  0  0
 14 16  2  0  0  0
 36 38  1  0  0  0
 15 16  1  0  0  0
 37 38  2  0  0  0
  1  2  1  0  0  0
  1  3  1  0  0  0
  2  5  1  0  0  0
  3  4  1  0  0  0
  3  7  1  0  0  0
  4 29  1  0  0  0
  4  5  1  0  0  0
 26 28  2  0  0  0
 27 28  1  0  0  0
 29 44  1  0  0  0
 44 45  1  0  0  0
 45 49  1  0  0  0
 45 46  2  0  0  0
 46 47  1  0  0  0
 47 48  2  0  0  0
 48 50  1  0  0  0
 49 50  2  0  0  0
 17 20  1  0  0  0
 17 21  1  0  0  0
 40 42  1  0  0  0
 40 43  1  0  0  0
  2  6  1  0  0  0
M  END
> <minimizedAffinity>
-9.93476

$$$$
2R38_G4G_B_2501


 50 54  0  0  0  0  0  0  0  0999 V2000
   11.0654  -19.6640  -19.6231 C   0  0  0  0  0  0  0  0  0  0  0  0
    9.8790  -20.5708  -19.6311 N   0  0  0  0  0  0  0  0  0  0  0  0
   11.4482  -19.4950  -18.1379 C   0  0  0  0  0  0  0  0  0  0  0  0
   10.1143  -19.7867  -17.3337 C   0  0  0  0  0  0  0  0  0  0  0  0
    9.2093  -20.5733  -18.3193 C   0  0  0  0  0  0  0  0  0  0  0  0
   10.1848  -21.5185  -19.8516 H   0  0  0  0  0  0  0  0  0  0  0  0
   12.4606  -20.5250  -17.7076 N   0  0  0  0  0  0  0  0  0  0  0  0
   13.8881  -19.8664  -17.0864 S   0  0  0  0  0  0  0  0  0  0  0  0
   14.7039  -19.5067  -18.2374 O   0  0  0  0  0  0  0  0  0  0  0  0
   13.5154  -18.7506  -16.1773 O   0  0  0  0  0  0  0  0  0  0  0  0
   14.6742  -22.8112  -14.3366 C   0  0  0  0  0  0  0  0  0  0  0  0
   16.8064  -22.1968  -15.4598 C   0  0  0  0  0  0  0  0  0  0  0  0
   16.0949  -22.9769  -14.5115 C   0  0  0  0  0  0  0  0  0  0  0  0
   13.9946  -21.8567  -15.1492 C   0  0  0  0  0  0  0  0  0  0  0  0
   16.1122  -21.2277  -16.2438 C   0  0  0  0  0  0  0  0  0  0  0  0
   14.6964  -21.0556  -16.0918 C   0  0  0  0  0  0  0  0  0  0  0  0
   16.0353  -24.8789  -13.0067 N   0  0  0  0  0  0  0  0  0  0  0  0
   17.9775  -23.9095  -13.5306 O   0  0  0  0  0  0  0  0  0  0  0  0
   16.7653  -23.9527  -13.6403 C   0  0  0  0  0  0  0  0  0  0  0  0
   16.4754  -25.5366  -12.4211 H   0  0  0  0  0  0  0  0  0  0  0  0
   15.0584  -24.9023  -13.1263 H   0  0  0  0  0  0  0  0  0  0  0  0
   12.3425  -21.9944  -17.7160 C   0  0  0  0  0  0  0  0  0  0  0  0
   13.1738  -22.6335  -18.8312 C   0  0  0  0  0  0  0  0  0  0  0  0
   13.0687  -22.1666  -20.1818 C   0  0  0  0  0  0  0  0  0  0  0  0
   14.0800  -23.7027  -18.5347 C   0  0  0  0  0  0  0  0  0  0  0  0
   13.8703  -22.7907  -21.1878 C   0  0  0  0  0  0  0  0  0  0  0  0
   14.8523  -24.3448  -19.5490 C   0  0  0  0  0  0  0  0  0  0  0  0
   14.7446  -23.8775  -20.8920 C   0  0  0  0  0  0  0  0  0  0  0  0
    9.4837  -18.4886  -16.8945 N   0  0  0  0  0  0  0  0  0  0  0  0
    9.1390  -18.3777  -15.2157 S   0  0  0  0  0  0  0  0  0  0  0  0
    8.3673  -19.5262  -14.7961 O   0  0  0  0  0  0  0  0  0  0  0  0
   10.2949  -17.7915  -14.5597 O   0  0  0  0  0  0  0  0  0  0  0  0
    5.7321  -16.1235  -15.5902 C   0  0  0  0  0  0  0  0  0  0  0  0
    7.6052  -14.5617  -15.2812 C   0  0  0  0  0  0  0  0  0  0  0  0
    6.2270  -14.8144  -15.4753 C   0  0  0  0  0  0  0  0  0  0  0  0
    6.6073  -17.2331  -15.5309 C   0  0  0  0  0  0  0  0  0  0  0  0
    8.4822  -15.6824  -15.2173 C   0  0  0  0  0  0  0  0  0  0  0  0
    7.9928  -17.0053  -15.3210 C   0  0  0  0  0  0  0  0  0  0  0  0
    4.4920  -13.5874  -16.4961 O   0  0  0  0  0  0  0  0  0  0  0  0
    5.2080  -12.7644  -14.5463 N   0  0  0  0  0  0  0  0  0  0  0  0
    5.2445  -13.6676  -15.5404 C   0  0  0  0  0  0  0  0  0  0  0  0
    4.5696  -12.0158  -14.5845 H   0  0  0  0  0  0  0  0  0  0  0  0
    5.8195  -12.8511  -13.7797 H   0  0  0  0  0  0  0  0  0  0  0  0
    9.1047  -17.3404  -17.7626 C   0  0  0  0  0  0  0  0  0  0  0  0
    8.1763  -17.6823  -18.9209 C   0  0  0  0  0  0  0  0  0  0  0  0
    8.6353  -17.5407  -20.2462 C   0  0  0  0  0  0  0  0  0  0  0  0
    7.7232  -17.8700  -21.2878 C   0  0  0  0  0  0  0  0  0  0  0  0
    6.4079  -18.3343  -20.9877 C   0  0  0  0  0  0  0  0  0  0  0  0
    6.8582  -18.1215  -18.6172 C   0  0  0  0  0  0  0  0  0  0  0  0
    5.9523  -18.4744  -19.6506 C   0  0  0  0  0  0  0  0  0  0  0  0
 11 13  2  0  0  0
 11 14  1  0  0  0
 39 41  2  0  0  0
 17 19  1  0  0  0
 33 36  2  0  0  0
 33 35  1  0  0  0
 18 19  2  0  0  0
 40 41  1  0  0  0
 12 15  2  0  0  0
 12 13  1  0  0  0
 13 19  1  0  0  0
 34 35  2  0  0  0
 34 37  1  0  0  0
 35 41  1  0  0  0
 22  7  1  0  0  0
 22 23  1  0  0  0
  8  7  1  0  0  0
  8  9  2  0  0  0
  8 16  1  0  0  0
  8 10  2  0  0  0
 30 32  2  0  0  0
 30 38  1  0  0  0
 30 29  1  0  0  0
 30 31  2  0  0  0
 23 25  1  0  0  0
 23 24  2  0  0  0
 24 26  1  0  0  0
 25 27  2  0  0  0
 14 16  2  0  0  0
 36 38  1  0  0  0
 15 16  1  0  0  0
 37 38  2  0  0  0
  1  2  1  0  0  0
  1  3  1  0  0  0
  2  5  1  0  0  0
  3  4  1  0  0  0
  3  7  1  0  0  0
  4 29  1  0  0  0
  4  5  1  0  0  0
 26 28  2  0  0  0
 27 28  1  0  0  0
 29 44  1  0  0  0
 44 45  1  0  0  0
 45 49  1  0  0  0
 45 46  2  0  0  0
 46 47  1  0  0  0
 47 48  2  0  0  0
 48 50  1  0  0  0
 49 50  2  0  0  0
 17 20  1  0  0  0
 17 21  1  0  0  0
 40 42  1  0  0  0
 40 43  1  0  0  0
  2  6  1  0  0  0
M  END
> <minimizedAffinity>
-9.79857

$$$$
2R38_G4G_B_2501


 50 54  0  0  0  0  0  0  0  0999 V2000
   12.6617  -18.5369  -15.1564 C   0  0  0  0  0  0  0  0  0  0  0  0
   12.7252  -19.4163  -13.9512 N   0  0  0  0  0  0  0  0  0  0  0  0
   11.9345  -19.3651  -16.2363 C   0  0  0  0  0  0  0  0  0  0  0  0
   12.1722  -20.8767  -15.8246 C   0  0  0  0  0  0  0  0  0  0  0  0
   12.5647  -20.8323  -14.3236 C   0  0  0  0  0  0  0  0  0  0  0  0
   11.9793  -19.1540  -13.3069 H   0  0  0  0  0  0  0  0  0  0  0  0
   10.4469  -19.1256  -16.2077 N   0  0  0  0  0  0  0  0  0  0  0  0
    9.9750  -17.8597  -15.1917 S   0  0  0  0  0  0  0  0  0  0  0  0
    9.7209  -18.4577  -13.8889 O   0  0  0  0  0  0  0  0  0  0  0  0
   11.0381  -16.8213  -15.2363 O   0  0  0  0  0  0  0  0  0  0  0  0
    7.3903  -15.5355  -17.3757 C   0  0  0  0  0  0  0  0  0  0  0  0
    6.0605  -16.8938  -15.7720 C   0  0  0  0  0  0  0  0  0  0  0  0
    6.1245  -15.9286  -16.8103 C   0  0  0  0  0  0  0  0  0  0  0  0
    8.5779  -16.1498  -16.8800 C   0  0  0  0  0  0  0  0  0  0  0  0
    7.2627  -17.4765  -15.2712 C   0  0  0  0  0  0  0  0  0  0  0  0
    8.5315  -17.1062  -15.8283 C   0  0  0  0  0  0  0  0  0  0  0  0
    4.3244  -14.3173  -16.5885 N   0  0  0  0  0  0  0  0  0  0  0  0
    4.5136  -15.5571  -18.4361 O   0  0  0  0  0  0  0  0  0  0  0  0
    4.9244  -15.2570  -17.3295 C   0  0  0  0  0  0  0  0  0  0  0  0
    3.5201  -13.8620  -16.9279 H   0  0  0  0  0  0  0  0  0  0  0  0
    4.6873  -14.0815  -15.7043 H   0  0  0  0  0  0  0  0  0  0  0  0
    9.3877  -19.8082  -16.9728 C   0  0  0  0  0  0  0  0  0  0  0  0
    9.2621  -19.2623  -18.3973 C   0  0  0  0  0  0  0  0  0  0  0  0
   10.4268  -18.8850  -19.1419 C   0  0  0  0  0  0  0  0  0  0  0  0
    7.9739  -19.1330  -19.0107 C   0  0  0  0  0  0  0  0  0  0  0  0
   10.2594  -18.3864  -20.4713 C   0  0  0  0  0  0  0  0  0  0  0  0
    7.8105  -18.6024  -20.3257 C   0  0  0  0  0  0  0  0  0  0  0  0
    8.9720  -18.2277  -21.0632 C   0  0  0  0  0  0  0  0  0  0  0  0
   13.2600  -21.4780  -16.6796 N   0  0  0  0  0  0  0  0  0  0  0  0
   14.7669  -20.6559  -16.6256 S   0  0  0  0  0  0  0  0  0  0  0  0
   14.8652  -19.7375  -17.7382 O   0  0  0  0  0  0  0  0  0  0  0  0
   15.0904  -20.4065  -15.2316 O   0  0  0  0  0  0  0  0  0  0  0  0
   17.2621  -23.9028  -16.3811 C   0  0  0  0  0  0  0  0  0  0  0  0
   16.7462  -23.5617  -18.7604 C   0  0  0  0  0  0  0  0  0  0  0  0
   17.3995  -24.2750  -17.7282 C   0  0  0  0  0  0  0  0  0  0  0  0
   16.4736  -22.7859  -16.0184 C   0  0  0  0  0  0  0  0  0  0  0  0
   15.9494  -22.4405  -18.3899 C   0  0  0  0  0  0  0  0  0  0  0  0
   15.7956  -22.0638  -17.0354 C   0  0  0  0  0  0  0  0  0  0  0  0
   19.0170  -25.9105  -17.2119 O   0  0  0  0  0  0  0  0  0  0  0  0
   18.1429  -26.0633  -19.2623 N   0  0  0  0  0  0  0  0  0  0  0  0
   18.2501  -25.4806  -18.0563 C   0  0  0  0  0  0  0  0  0  0  0  0
   18.6949  -26.8488  -19.4803 H   0  0  0  0  0  0  0  0  0  0  0  0
   17.5123  -25.7047  -19.9279 H   0  0  0  0  0  0  0  0  0  0  0  0
   13.1421  -22.6621  -17.5738 C   0  0  0  0  0  0  0  0  0  0  0  0
   12.3543  -22.4297  -18.8567 C   0  0  0  0  0  0  0  0  0  0  0  0
   10.9747  -22.7172  -18.8883 C   0  0  0  0  0  0  0  0  0  0  0  0
   10.2911  -22.4854  -20.1148 C   0  0  0  0  0  0  0  0  0  0  0  0
   10.9836  -21.9717  -21.2515 C   0  0  0  0  0  0  0  0  0  0  0  0
   13.0537  -21.9405  -19.9943 C   0  0  0  0  0  0  0  0  0  0  0  0
   12.3732  -21.6844  -21.2126 C   0  0  0  0  0  0  0  0  0  0  0  0
 11 13  2  0  0  0
 11 14  1  0  0  0
 39 41  2  0  0  0
 17 19  1  0  0  0
 33 36  2  0  0  0
 33 35  1  0  0  0
 18 19  2  0  0  0
 40 41  1  0  0  0
 12 15  2  0  0  0
 12 13  1  0  0  0
 13 19  1  0  0  0
 34 35  2  0  0  0
 34 37  1  0  0  0
 35 41  1  0  0  0
 22  7  1  0  0  0
 22 23  1  0  0  0
  8  7  1  0  0  0
  8  9  2  0  0  0
  8 16  1  0  0  0
  8 10  2  0  0  0
 30 32  2  0  0  0
 30 38  1  0  0  0
 30 29  1  0  0  0
 30 31  2  0  0  0
 23 25  1  0  0  0
 23 24  2  0  0  0
 24 26  1  0  0  0
 25 27  2  0  0  0
 14 16  2  0  0  0
 36 38  1  0  0  0
 15 16  1  0  0  0
 37 38  2  0  0  0
  1  2  1  0  0  0
  1  3  1  0  0  0
  2  5  1  0  0  0
  3  4  1  0  0  0
  3  7  1  0  0  0
  4 29  1  0  0  0
  4  5  1  0  0  0
 26 28  2  0  0  0
 27 28  1  0  0  0
 29 44  1  0  0  0
 44 45  1  0  0  0
 45 49  1  0  0  0
 45 46  2  0  0  0
 46 47  1  0  0  0
 47 48  2  0  0  0
 48 50  1  0  0  0
 49 50  2  0  0  0
 17 20  1  0  0  0
 17 21  1  0  0  0
 40 42  1  0  0  0
 40 43  1  0  0  0
  2  6  1  0  0  0
M  END
> <minimizedAffinity>
-9.76770

$$$$
2R38_G4G_B_2501


 50 54  0  0  0  0  0  0  0  0999 V2000
    9.8501  -20.3531  -15.9253 C   0  0  0  0  0  0  0  0  0  0  0  0
   10.6218  -19.7636  -14.7909 N   0  0  0  0  0  0  0  0  0  0  0  0
    9.9390  -19.3205  -17.0684 C   0  0  0  0  0  0  0  0  0  0  0  0
   10.2092  -17.9341  -16.3501 C   0  0  0  0  0  0  0  0  0  0  0  0
   10.7483  -18.3040  -14.9424 C   0  0  0  0  0  0  0  0  0  0  0  0
   11.5532  -20.1789  -14.7694 H   0  0  0  0  0  0  0  0  0  0  0  0
   11.1174  -19.5920  -17.9676 N   0  0  0  0  0  0  0  0  0  0  0  0
   10.7369  -20.4986  -19.3427 S   0  0  0  0  0  0  0  0  0  0  0  0
    9.3901  -21.0097  -19.1321 O   0  0  0  0  0  0  0  0  0  0  0  0
   10.9238  -19.6233  -20.5298 O   0  0  0  0  0  0  0  0  0  0  0  0
   12.8283  -23.9902  -18.8072 C   0  0  0  0  0  0  0  0  0  0  0  0
   13.8033  -22.7814  -20.7497 C   0  0  0  0  0  0  0  0  0  0  0  0
   13.7918  -23.8986  -19.8748 C   0  0  0  0  0  0  0  0  0  0  0  0
   11.8747  -22.9405  -18.6584 C   0  0  0  0  0  0  0  0  0  0  0  0
   12.8580  -21.7284  -20.5668 C   0  0  0  0  0  0  0  0  0  0  0  0
   11.8841  -21.8064  -19.5166 C   0  0  0  0  0  0  0  0  0  0  0  0
   15.5922  -25.0316  -21.0412 N   0  0  0  0  0  0  0  0  0  0  0  0
   14.8351  -25.8157  -19.0923 O   0  0  0  0  0  0  0  0  0  0  0  0
   14.7738  -24.9871  -19.9828 C   0  0  0  0  0  0  0  0  0  0  0  0
   16.2531  -25.7568  -21.1223 H   0  0  0  0  0  0  0  0  0  0  0  0
   15.5332  -24.3392  -21.7386 H   0  0  0  0  0  0  0  0  0  0  0  0
   12.5117  -19.1350  -17.8245 C   0  0  0  0  0  0  0  0  0  0  0  0
   13.4209  -20.2268  -17.2549 C   0  0  0  0  0  0  0  0  0  0  0  0
   13.0406  -20.9581  -16.0827 C   0  0  0  0  0  0  0  0  0  0  0  0
   14.6628  -20.5405  -17.8965 C   0  0  0  0  0  0  0  0  0  0  0  0
   13.9199  -21.9730  -15.5920 C   0  0  0  0  0  0  0  0  0  0  0  0
   15.5525  -21.5311  -17.3822 C   0  0  0  0  0  0  0  0  0  0  0  0
   15.1706  -22.2565  -16.2154 C   0  0  0  0  0  0  0  0  0  0  0  0
    8.9322  -17.1343  -16.2783 N   0  0  0  0  0  0  0  0  0  0  0  0
    8.0817  -17.2520  -14.7908 S   0  0  0  0  0  0  0  0  0  0  0  0
    7.3031  -18.4701  -14.7657 O   0  0  0  0  0  0  0  0  0  0  0  0
    8.9352  -16.7168  -13.7443 O   0  0  0  0  0  0  0  0  0  0  0  0
    6.3118  -13.5564  -14.9883 C   0  0  0  0  0  0  0  0  0  0  0  0
    4.7397  -15.1677  -15.9761 C   0  0  0  0  0  0  0  0  0  0  0  0
    5.0819  -13.8475  -15.6004 C   0  0  0  0  0  0  0  0  0  0  0  0
    7.2422  -14.5859  -14.7138 C   0  0  0  0  0  0  0  0  0  0  0  0
    5.6817  -16.2004  -15.7020 C   0  0  0  0  0  0  0  0  0  0  0  0
    6.9277  -15.9165  -15.0958 C   0  0  0  0  0  0  0  0  0  0  0  0
    3.3470  -12.8001  -16.8049 O   0  0  0  0  0  0  0  0  0  0  0  0
    4.1511  -11.6168  -15.0888 N   0  0  0  0  0  0  0  0  0  0  0  0
    4.1292  -12.7066  -15.8747 C   0  0  0  0  0  0  0  0  0  0  0  0
    3.5324  -10.8713  -15.2637 H   0  0  0  0  0  0  0  0  0  0  0  0
    4.7859  -11.5640  -14.3382 H   0  0  0  0  0  0  0  0  0  0  0  0
    8.3341  -16.3063  -17.3611 C   0  0  0  0  0  0  0  0  0  0  0  0
    7.8723  -17.0803  -18.5890 C   0  0  0  0  0  0  0  0  0  0  0  0
    8.6828  -17.1048  -19.7421 C   0  0  0  0  0  0  0  0  0  0  0  0
    8.1987  -17.8395  -20.8605 C   0  0  0  0  0  0  0  0  0  0  0  0
    6.9503  -18.5274  -20.7981 C   0  0  0  0  0  0  0  0  0  0  0  0
    6.6160  -17.7442  -18.5304 C   0  0  0  0  0  0  0  0  0  0  0  0
    6.1390  -18.4984  -19.6335 C   0  0  0  0  0  0  0  0  0  0  0  0
 11 13  2  0  0  0
 11 14  1  0  0  0
 39 41  2  0  0  0
 17 19  1  0  0  0
 33 36  2  0  0  0
 33 35  1  0  0  0
 18 19  2  0  0  0
 40 41  1  0  0  0
 12 15  2  0  0  0
 12 13  1  0  0  0
 13 19  1  0  0  0
 34 35  2  0  0  0
 34 37  1  0  0  0
 35 41  1  0  0  0
 22  7  1  0  0  0
 22 23  1  0  0  0
  8  7  1  0  0  0
  8  9  2  0  0  0
  8 16  1  0  0  0
  8 10  2  0  0  0
 30 32  2  0  0  0
 30 38  1  0  0  0
 30 29  1  0  0  0
 30 31  2  0  0  0
 23 25  1  0  0  0
 23 24  2  0  0  0
 24 26  1  0  0  0
 25 27  2  0  0  0
 14 16  2  0  0  0
 36 38  1  0  0  0
 15 16  1  0  0  0
 37 38  2  0  0  0
  1  2  1  0  0  0
  1  3  1  0  0  0
  2  5  1  0  0  0
  3  4  1  0  0  0
  3  7  1  0  0  0
  4 29  1  0  0  0
  4  5  1  0  0  0
 26 28  2  0  0  0
 27 28  1  0  0  0
 29 44  1  0  0  0
 44 45  1  0  0  0
 45 49  1  0  0  0
 45 46  2  0  0  0
 46 47  1  0  0  0
 47 48  2  0  0  0
 48 50  1  0  0  0
 49 50  2  0  0  0
 17 20  1  0  0  0
 17 21  1  0  0  0
 40 42  1  0  0  0
 40 43  1  0  0  0
  2  6  1  0  0  0
M  END
> <minimizedAffinity>
-9.76016

$$$$
2R38_G4G_B_2501


 50 54  0  0  0  0  0  0  0  0999 V2000
   10.0876  -21.0898  -16.3817 C   0  0  0  0  0  0  0  0  0  0  0  0
    9.6932  -21.4280  -17.7817 N   0  0  0  0  0  0  0  0  0  0  0  0
   11.3726  -20.2446  -16.5055 C   0  0  0  0  0  0  0  0  0  0  0  0
   12.0048  -20.6590  -17.8981 C   0  0  0  0  0  0  0  0  0  0  0  0
   10.8414  -21.3061  -18.6962 C   0  0  0  0  0  0  0  0  0  0  0  0
    8.9565  -20.7907  -18.0841 H   0  0  0  0  0  0  0  0  0  0  0  0
   11.0604  -18.7722  -16.5798 N   0  0  0  0  0  0  0  0  0  0  0  0
   10.6160  -18.0892  -15.0988 S   0  0  0  0  0  0  0  0  0  0  0  0
   10.5421  -19.1906  -14.1496 O   0  0  0  0  0  0  0  0  0  0  0  0
   11.5971  -17.0186  -14.7799 O   0  0  0  0  0  0  0  0  0  0  0  0
    6.5842  -17.3420  -15.2931 C   0  0  0  0  0  0  0  0  0  0  0  0
    7.7972  -15.1995  -15.6440 C   0  0  0  0  0  0  0  0  0  0  0  0
    6.5805  -15.9221  -15.5385 C   0  0  0  0  0  0  0  0  0  0  0  0
    7.8381  -18.0039  -15.1421 C   0  0  0  0  0  0  0  0  0  0  0  0
    9.0419  -15.8853  -15.5171 C   0  0  0  0  0  0  0  0  0  0  0  0
    9.0662  -17.2966  -15.2620 C   0  0  0  0  0  0  0  0  0  0  0  0
    5.2130  -13.9740  -16.0086 N   0  0  0  0  0  0  0  0  0  0  0  0
    4.2629  -15.9536  -15.6028 O   0  0  0  0  0  0  0  0  0  0  0  0
    5.2705  -15.2783  -15.7121 C   0  0  0  0  0  0  0  0  0  0  0  0
    4.3403  -13.5341  -16.1268 H   0  0  0  0  0  0  0  0  0  0  0  0
    6.0435  -13.4548  -16.1083 H   0  0  0  0  0  0  0  0  0  0  0  0
   11.1404  -17.8698  -17.7428 C   0  0  0  0  0  0  0  0  0  0  0  0
   10.0131  -18.1218  -18.7472 C   0  0  0  0  0  0  0  0  0  0  0  0
    8.6505  -18.2062  -18.3121 C   0  0  0  0  0  0  0  0  0  0  0  0
   10.3068  -18.2648  -20.1421 C   0  0  0  0  0  0  0  0  0  0  0  0
    7.6317  -18.4364  -19.2883 C   0  0  0  0  0  0  0  0  0  0  0  0
    9.2891  -18.5288  -21.1075 C   0  0  0  0  0  0  0  0  0  0  0  0
    7.9343  -18.6124  -20.6705 C   0  0  0  0  0  0  0  0  0  0  0  0
   13.1477  -21.6189  -17.6793 N   0  0  0  0  0  0  0  0  0  0  0  0
   14.6590  -20.8835  -17.3260 S   0  0  0  0  0  0  0  0  0  0  0  0
   15.6035  -21.1704  -18.3825 O   0  0  0  0  0  0  0  0  0  0  0  0
   14.3959  -19.6057  -16.6872 O   0  0  0  0  0  0  0  0  0  0  0  0
   14.5273  -23.1059  -13.8804 C   0  0  0  0  0  0  0  0  0  0  0  0
   16.8021  -23.3109  -14.7895 C   0  0  0  0  0  0  0  0  0  0  0  0
   15.8331  -23.6169  -13.8054 C   0  0  0  0  0  0  0  0  0  0  0  0
   14.1471  -22.2514  -14.9415 C   0  0  0  0  0  0  0  0  0  0  0  0
   16.4134  -22.4538  -15.8588 C   0  0  0  0  0  0  0  0  0  0  0  0
   15.0978  -21.9425  -15.9496 C   0  0  0  0  0  0  0  0  0  0  0  0
   15.6601  -25.6301  -12.5909 O   0  0  0  0  0  0  0  0  0  0  0  0
   17.0614  -24.1223  -11.7221 N   0  0  0  0  0  0  0  0  0  0  0  0
   16.1812  -24.5298  -12.6521 C   0  0  0  0  0  0  0  0  0  0  0  0
   17.2911  -24.7136  -10.9692 H   0  0  0  0  0  0  0  0  0  0  0  0
   17.4765  -23.2325  -11.7937 H   0  0  0  0  0  0  0  0  0  0  0  0
   13.0996  -23.1034  -17.7781 C   0  0  0  0  0  0  0  0  0  0  0  0
   13.8285  -23.6972  -18.9766 C   0  0  0  0  0  0  0  0  0  0  0  0
   14.8009  -24.6975  -18.7745 C   0  0  0  0  0  0  0  0  0  0  0  0
   15.4529  -25.2120  -19.9300 C   0  0  0  0  0  0  0  0  0  0  0  0
   15.1171  -24.7349  -21.2320 C   0  0  0  0  0  0  0  0  0  0  0  0
   13.5076  -23.2012  -20.2702 C   0  0  0  0  0  0  0  0  0  0  0  0
   14.1367  -23.7271  -21.4281 C   0  0  0  0  0  0  0  0  0  0  0  0
 11 13  2  0  0  0
 11 14  1  0  0  0
 39 41  2  0  0  0
 17 19  1  0  0  0
 33 36  2  0  0  0
 33 35  1  0  0  0
 18 19  2  0  0  0
 40 41  1  0  0  0
 12 15  2  0  0  0
 12 13  1  0  0  0
 13 19  1  0  0  0
 34 35  2  0  0  0
 34 37  1  0  0  0
 35 41  1  0  0  0
 22  7  1  0  0  0
 22 23  1  0  0  0
  8  7  1  0  0  0
  8  9  2  0  0  0
  8 16  1  0  0  0
  8 10  2  0  0  0
 30 32  2  0  0  0
 30 38  1  0  0  0
 30 29  1  0  0  0
 30 31  2  0  0  0
 23 25  1  0  0  0
 23 24  2  0  0  0
 24 26  1  0  0  0
 25 27  2  0  0  0
 14 16  2  0  0  0
 36 38  1  0  0  0
 15 16  1  0  0  0
 37 38  2  0  0  0
  1  2  1  0  0  0
  1  3  1  0  0  0
  2  5  1  0  0  0
  3  4  1  0  0  0
  3  7  1  0  0  0
  4 29  1  0  0  0
  4  5  1  0  0  0
 26 28  2  0  0  0
 27 28  1  0  0  0
 29 44  1  0  0  0
 44 45  1  0  0  0
 45 49  1  0  0  0
 45 46  2  0  0  0
 46 47  1  0  0  0
 47 48  2  0  0  0
 48 50  1  0  0  0
 49 50  2  0  0  0
 17 20  1  0  0  0
 17 21  1  0  0  0
 40 42  1  0  0  0
 40 43  1  0  0  0
  2  6  1  0  0  0
M  END
> <minimizedAffinity>
-9.68613

$$$$
2R38_G4G_B_2501


 50 54  0  0  0  0  0  0  0  0999 V2000
   10.6331  -18.3835  -19.7566 C   0  0  0  0  0  0  0  0  0  0  0  0
    9.6149  -19.2848  -20.3739 N   0  0  0  0  0  0  0  0  0  0  0  0
   10.6095  -18.7034  -18.2474 C   0  0  0  0  0  0  0  0  0  0  0  0
    9.1678  -19.3024  -17.9764 C   0  0  0  0  0  0  0  0  0  0  0  0
    8.6467  -19.7528  -19.3674 C   0  0  0  0  0  0  0  0  0  0  0  0
   10.0871  -20.0911  -20.7829 H   0  0  0  0  0  0  0  0  0  0  0  0
   11.6092  -19.7743  -17.8939 N   0  0  0  0  0  0  0  0  0  0  0  0
   13.1018  -19.1751  -17.3737 S   0  0  0  0  0  0  0  0  0  0  0  0
   13.8448  -18.8345  -18.5785 O   0  0  0  0  0  0  0  0  0  0  0  0
   12.8382  -18.0553  -16.4318 O   0  0  0  0  0  0  0  0  0  0  0  0
   13.9630  -22.2075  -14.7440 C   0  0  0  0  0  0  0  0  0  0  0  0
   16.0529  -21.5911  -15.9429 C   0  0  0  0  0  0  0  0  0  0  0  0
   15.3720  -22.3878  -14.9862 C   0  0  0  0  0  0  0  0  0  0  0  0
   13.2629  -21.2209  -15.4990 C   0  0  0  0  0  0  0  0  0  0  0  0
   15.3398  -20.5906  -16.6683 C   0  0  0  0  0  0  0  0  0  0  0  0
   13.9347  -20.4032  -16.4491 C   0  0  0  0  0  0  0  0  0  0  0  0
   15.3570  -24.1690  -13.3390 N   0  0  0  0  0  0  0  0  0  0  0  0
   17.2705  -23.5234  -14.2919 O   0  0  0  0  0  0  0  0  0  0  0  0
   16.0651  -23.3971  -14.1728 C   0  0  0  0  0  0  0  0  0  0  0  0
   15.8124  -24.8477  -12.7902 H   0  0  0  0  0  0  0  0  0  0  0  0
   14.3809  -24.0578  -13.2746 H   0  0  0  0  0  0  0  0  0  0  0  0
   11.4337  -21.2380  -17.8990 C   0  0  0  0  0  0  0  0  0  0  0  0
   12.0216  -21.8851  -19.1554 C   0  0  0  0  0  0  0  0  0  0  0  0
   13.3813  -22.3366  -19.1784 C   0  0  0  0  0  0  0  0  0  0  0  0
   11.2124  -22.0591  -20.3248 C   0  0  0  0  0  0  0  0  0  0  0  0
   13.8835  -22.9407  -20.3729 C   0  0  0  0  0  0  0  0  0  0  0  0
   11.7293  -22.6317  -21.5258 C   0  0  0  0  0  0  0  0  0  0  0  0
   13.0830  -23.0795  -21.5447 C   0  0  0  0  0  0  0  0  0  0  0  0
    8.2837  -18.2527  -17.3501 N   0  0  0  0  0  0  0  0  0  0  0  0
    7.5951  -17.1290  -18.4514 S   0  0  0  0  0  0  0  0  0  0  0  0
    8.3286  -15.8838  -18.4050 O   0  0  0  0  0  0  0  0  0  0  0  0
    7.1585  -17.8642  -19.6257 O   0  0  0  0  0  0  0  0  0  0  0  0
    3.7550  -17.4399  -17.0420 C   0  0  0  0  0  0  0  0  0  0  0  0
    4.8035  -15.5446  -15.8793 C   0  0  0  0  0  0  0  0  0  0  0  0
    3.6921  -16.3874  -16.1145 C   0  0  0  0  0  0  0  0  0  0  0  0
    4.9357  -17.6776  -17.7839 C   0  0  0  0  0  0  0  0  0  0  0  0
    5.9918  -15.7906  -16.6254 C   0  0  0  0  0  0  0  0  0  0  0  0
    6.0694  -16.8546  -17.5539 C   0  0  0  0  0  0  0  0  0  0  0  0
    2.0795  -15.0534  -15.0291 O   0  0  0  0  0  0  0  0  0  0  0  0
    1.6422  -17.2444  -15.0339 N   0  0  0  0  0  0  0  0  0  0  0  0
    2.4063  -16.1842  -15.3462 C   0  0  0  0  0  0  0  0  0  0  0  0
    0.8040  -17.1168  -14.5336 H   0  0  0  0  0  0  0  0  0  0  0  0
    1.9206  -18.1489  -15.3054 H   0  0  0  0  0  0  0  0  0  0  0  0
    7.9918  -18.0787  -15.9009 C   0  0  0  0  0  0  0  0  0  0  0  0
    9.2157  -17.9274  -15.0068 C   0  0  0  0  0  0  0  0  0  0  0  0
    9.6175  -16.6428  -14.5881 C   0  0  0  0  0  0  0  0  0  0  0  0
   10.7706  -16.5615  -13.7581 C   0  0  0  0  0  0  0  0  0  0  0  0
   11.4722  -17.7398  -13.3645 C   0  0  0  0  0  0  0  0  0  0  0  0
    9.9260  -19.1027  -14.6370 C   0  0  0  0  0  0  0  0  0  0  0  0
   11.0619  -19.0305  -13.7900 C   0  0  0  0  0  0  0  0  0  0  0  0
 11 13  2  0  0  0
 11 14  1  0  0  0
 39 41  2  0  0  0
 17 19  1  0  0  0
 33 36  2  0  0  0
 33 35  1  0  0  0
 18 19  2  0  0  0
 40 41  1  0  0  0
 12 15  2  0  0  0
 12 13  1  0  0  0
 13 19  1  0  0  0
 34 35  2  0  0  0
 34 37  1  0  0  0
 35 41  1  0  0  0
 22  7  1  0  0  0
 22 23  1  0  0  0
  8  7  1  0  0  0
  8  9  2  0  0  0
  8 16  1  0  0  0
  8 10  2  0  0  0
 30 32  2  0  0  0
 30 38  1  0  0  0
 30 29  1  0  0  0
 30 31  2  0  0  0
 23 25  1  0  0  0
 23 24  2  0  0  0
 24 26  1  0  0  0
 25 27  2  0  0  0
 14 16  2  0  0  0
 36 38  1  0  0  0
 15 16  1  0  0  0
 37 38  2  0  0  0
  1  2  1  0  0  0
  1  3  1  0  0  0
  2  5  1  0  0  0
  3  4  1  0  0  0
  3  7  1  0  0  0
  4 29  1  0  0  0
  4  5  1  0  0  0
 26 28  2  0  0  0
 27 28  1  0  0  0
 29 44  1  0  0  0
 44 45  1  0  0  0
 45 49  1  0  0  0
 45 46  2  0  0  0
 46 47  1  0  0  0
 47 48  2  0  0  0
 48 50  1  0  0  0
 49 50  2  0  0  0
 17 20  1  0  0  0
 17 21  1  0  0  0
 40 42  1  0  0  0
 40 43  1  0  0  0
  2  6  1  0  0  0
M  END
> <minimizedAffinity>
-9.46982

$$$$
2R38_G4G_B_2501


 50 54  0  0  0  0  0  0  0  0999 V2000
   11.7795  -22.9304  -17.3977 C   0  0  0  0  0  0  0  0  0  0  0  0
   10.5043  -22.9213  -16.6207 N   0  0  0  0  0  0  0  0  0  0  0  0
   12.2532  -21.4624  -17.4344 C   0  0  0  0  0  0  0  0  0  0  0  0
   10.9386  -20.6009  -17.2331 C   0  0  0  0  0  0  0  0  0  0  0  0
    9.9058  -21.5756  -16.6066 C   0  0  0  0  0  0  0  0  0  0  0  0
   10.6957  -23.2116  -15.6618 H   0  0  0  0  0  0  0  0  0  0  0  0
   13.1707  -21.1489  -16.2807 N   0  0  0  0  0  0  0  0  0  0  0  0
   14.6994  -20.6000  -16.7490 S   0  0  0  0  0  0  0  0  0  0  0  0
   14.4727  -19.6029  -17.7854 O   0  0  0  0  0  0  0  0  0  0  0  0
   15.4043  -20.1242  -15.5296 O   0  0  0  0  0  0  0  0  0  0  0  0
   16.2390  -23.5425  -19.1621 C   0  0  0  0  0  0  0  0  0  0  0  0
   17.4085  -23.6340  -16.9692 C   0  0  0  0  0  0  0  0  0  0  0  0
   17.2194  -24.1307  -18.2850 C   0  0  0  0  0  0  0  0  0  0  0  0
   15.4730  -22.4385  -18.6847 C   0  0  0  0  0  0  0  0  0  0  0  0
   16.6126  -22.5462  -16.5012 C   0  0  0  0  0  0  0  0  0  0  0  0
   15.6391  -21.9404  -17.3630 C   0  0  0  0  0  0  0  0  0  0  0  0
   17.8003  -25.6622  -20.0746 N   0  0  0  0  0  0  0  0  0  0  0  0
   18.7573  -25.8520  -18.0660 O   0  0  0  0  0  0  0  0  0  0  0  0
   17.9732  -25.2815  -18.8029 C   0  0  0  0  0  0  0  0  0  0  0  0
   18.3007  -26.4318  -20.4304 H   0  0  0  0  0  0  0  0  0  0  0  0
   17.1727  -25.1727  -20.6540 H   0  0  0  0  0  0  0  0  0  0  0  0
   12.8901  -21.2135  -14.8349 C   0  0  0  0  0  0  0  0  0  0  0  0
   12.4788  -19.8532  -14.2658 C   0  0  0  0  0  0  0  0  0  0  0  0
   12.2575  -19.6845  -12.8602 C   0  0  0  0  0  0  0  0  0  0  0  0
   12.3216  -18.7244  -15.1339 C   0  0  0  0  0  0  0  0  0  0  0  0
   11.8811  -18.3934  -12.3751 C   0  0  0  0  0  0  0  0  0  0  0  0
   11.9123  -17.4461  -14.6482 C   0  0  0  0  0  0  0  0  0  0  0  0
   11.6926  -17.2824  -13.2488 C   0  0  0  0  0  0  0  0  0  0  0  0
   10.4731  -20.0545  -18.5600 N   0  0  0  0  0  0  0  0  0  0  0  0
   10.3056  -18.3465  -18.6259 S   0  0  0  0  0  0  0  0  0  0  0  0
   10.0163  -17.8304  -17.3065 O   0  0  0  0  0  0  0  0  0  0  0  0
   11.2654  -17.8400  -19.5914 O   0  0  0  0  0  0  0  0  0  0  0  0
    7.5134  -18.1141  -21.6223 C   0  0  0  0  0  0  0  0  0  0  0  0
    6.2922  -18.4682  -19.5184 C   0  0  0  0  0  0  0  0  0  0  0  0
    6.3087  -18.2803  -20.9204 C   0  0  0  0  0  0  0  0  0  0  0  0
    8.7520  -18.1136  -20.9391 C   0  0  0  0  0  0  0  0  0  0  0  0
    7.5421  -18.4717  -18.8352 C   0  0  0  0  0  0  0  0  0  0  0  0
    8.7619  -18.3160  -19.5340 C   0  0  0  0  0  0  0  0  0  0  0  0
    5.0544  -18.0921  -22.9076 O   0  0  0  0  0  0  0  0  0  0  0  0
    3.8512  -18.4890  -21.0673 N   0  0  0  0  0  0  0  0  0  0  0  0
    5.0158  -18.2780  -21.7035 C   0  0  0  0  0  0  0  0  0  0  0  0
    3.0067  -18.4883  -21.5734 H   0  0  0  0  0  0  0  0  0  0  0  0
    3.8424  -18.6441  -20.0952 H   0  0  0  0  0  0  0  0  0  0  0  0
   10.1157  -20.8386  -19.7736 C   0  0  0  0  0  0  0  0  0  0  0  0
   11.2865  -21.5107  -20.4792 C   0  0  0  0  0  0  0  0  0  0  0  0
   12.5485  -20.8828  -20.4864 C   0  0  0  0  0  0  0  0  0  0  0  0
   13.6039  -21.5543  -21.1649 C   0  0  0  0  0  0  0  0  0  0  0  0
   13.3820  -22.8147  -21.7954 C   0  0  0  0  0  0  0  0  0  0  0  0
   11.0545  -22.7553  -21.1271 C   0  0  0  0  0  0  0  0  0  0  0  0
   12.1082  -23.4413  -21.7844 C   0  0  0  0  0  0  0  0  0  0  0  0
 11 13  2  0  0  0
 11 14  1  0  0  0
 39 41  2  0  0  0
 17 19  1  0  0  0
 33 36  2  0  0  0
 33 35  1  0  0  0
 18 19  2  0  0  0
 40 41  1  0  0  0
 12 15  2  0  0  0
 12 13  1  0  0  0
 13 19  1  0  0  0
 34 35  2  0  0  0
 34 37  1  0  0  0
 35 41  1  0  0  0
 22  7  1  0  0  0
 22 23  1  0  0  0
  8  7  1  0  0  0
  8  9  2  0  0  0
  8 16  1  0  0  0
  8 10  2  0  0  0
 30 32  2  0  0  0
 30 38  1  0  0  0
 30 29  1  0  0  0
 30 31  2  0  0  0
 23 25  1  0  0  0
 23 24  2  0  0  0
 24 26  1  0  0  0
 25 27  2  0  0  0
 14 16  2  0  0  0
 36 38  1  0  0  0
 15 16  1  0  0  0
 37 38  2  0  0  0
  1  2  1  0  0  0
  1  3  1  0  0  0
  2  5  1  0  0  0
  3  4  1  0  0  0
  3  7  1  0  0  0
  4 29  1  0  0  0
  4  5  1  0  0  0
 26 28  2  0  0  0
 27 28  1  0  0  0
 29 44  1  0  0  0
 44 45  1  0  0  0
 45 49  1  0  0  0
 45 46  2  0  0  0
 46 47  1  0  0  0
 47 48  2  0  0  0
 48 50  1  0  0  0
 49 50  2  0  0  0
 17 20  1  0  0  0
 17 21  1  0  0  0
 40 42  1  0  0  0
 40 43  1  0  0  0
  2  6  1  0  0  0
M  END
> <minimizedAffinity>
-9.37971

$$$$
