2R38_G4G_B_2501
  RCSB PDB12061706523D
Coordinates from PDB:2R38:B:2501 Model:1 without hydrogens
 45 49  0  0  0  0            999 V2000
    9.0910  -15.6380  -14.4700   C 0  0  0  0  0  0  0  0  0  0  0  0
   17.0880  -24.4640  -22.0150   O 0  0  0  0  0  0  0  0  0  0  0  0
    5.5910  -14.9370  -15.3750   N 0  0  0  0  0  0  0  0  0  0  0  0
   14.4900  -23.7450  -21.2580   C 0  0  0  0  0  0  0  0  0  0  0  0
    7.3040  -13.5910  -14.8850   O 0  0  0  0  0  0  0  0  0  0  0  0
   17.4820  -25.6230  -20.1460   N 0  0  0  0  0  0  0  0  0  0  0  0
    7.5230  -17.0750  -15.7590   C 0  0  0  0  0  0  0  0  0  0  0  0
    7.8340  -15.8330  -15.1470   C 0  0  0  0  0  0  0  0  0  0  0  0
   15.1830  -24.2720  -18.9590   C 0  0  0  0  0  0  0  0  0  0  0  0
   15.4290  -24.2640  -20.3520   C 0  0  0  0  0  0  0  0  0  0  0  0
   13.4650  -18.7130  -15.2480   C 0  0  0  0  0  0  0  0  0  0  0  0
   16.7330  -24.7990  -20.8980   C 0  0  0  0  0  0  0  0  0  0  0  0
   10.8400  -19.3140  -14.9990   S 0  0  0  0  0  0  0  0  0  0  0  0
    6.8880  -14.7080  -15.1350   C 0  0  0  0  0  0  0  0  0  0  0  0
   11.4550  -22.5440  -18.7730   S 0  0  0  0  0  0  0  0  0  0  0  0
   10.2440  -20.5080  -15.5810   O 0  0  0  0  0  0  0  0  0  0  0  0
   11.4530  -22.7950  -17.3490   O 0  0  0  0  0  0  0  0  0  0  0  0
   14.3370  -19.9700  -15.1960   C 0  0  0  0  0  0  0  0  0  0  0  0
   13.7750  -21.2360  -14.8290   C 0  0  0  0  0  0  0  0  0  0  0  0
   15.7290  -19.8980  -15.5270   C 0  0  0  0  0  0  0  0  0  0  0  0
   10.0240  -16.7160  -14.4420   C 0  0  0  0  0  0  0  0  0  0  0  0
   13.2560  -23.2270  -20.8000   C 0  0  0  0  0  0  0  0  0  0  0  0
    8.4590  -18.1500  -15.6960   C 0  0  0  0  0  0  0  0  0  0  0  0
   13.9410  -23.7450  -18.5020   C 0  0  0  0  0  0  0  0  0  0  0  0
   12.5480  -17.7440  -18.1340   C 0  0  0  0  0  0  0  0  0  0  0  0
   13.9080  -18.1870  -18.5630   N 0  0  0  0  0  0  0  0  0  0  0  0
   11.9170  -18.9640  -17.4310   C 0  0  0  0  0  0  0  0  0  0  0  0
   12.6710  -20.2210  -18.0330   C 0  0  0  0  0  0  0  0  0  0  0  0
   13.9840  -19.6560  -18.6380   C 0  0  0  0  0  0  0  0  0  0  0  0
    9.7200  -17.9720  -15.0360   C 0  0  0  0  0  0  0  0  0  0  0  0
   12.9930  -23.2100  -19.4050   C 0  0  0  0  0  0  0  0  0  0  0  0
   12.1900  -18.9500  -15.9490   N 0  0  0  0  0  0  0  0  0  0  0  0
   14.6280  -22.3830  -14.8010   C 0  0  0  0  0  0  0  0  0  0  0  0
   16.5830  -21.0400  -15.4640   C 0  0  0  0  0  0  0  0  0  0  0  0
   16.0200  -22.2980  -15.0980   C 0  0  0  0  0  0  0  0  0  0  0  0
   11.8070  -20.8900  -19.0730   N 0  0  0  0  0  0  0  0  0  0  0  0
   11.2780  -20.2790  -20.3230   C 0  0  0  0  0  0  0  0  0  0  0  0
    9.9940  -19.4760  -20.1590   C 0  0  0  0  0  0  0  0  0  0  0  0
    9.0510  -19.8620  -19.1850   C 0  0  0  0  0  0  0  0  0  0  0  0
    7.8680  -19.0780  -19.0800   C 0  0  0  0  0  0  0  0  0  0  0  0
    7.6650  -17.9450  -19.9230   C 0  0  0  0  0  0  0  0  0  0  0  0
    9.7850  -18.3620  -21.0180   C 0  0  0  0  0  0  0  0  0  0  0  0
    8.6190  -17.5620  -20.9020   C 0  0  0  0  0  0  0  0  0  0  0  0
   10.4790  -22.9790  -19.7570   O 0  0  0  0  0  0  0  0  0  0  0  0
   11.2960  -19.4340  -13.5890   O 0  0  0  0  0  0  0  0  0  0  0  0
  1  8  2  0  0  0  0
  1 21  1  0  0  0  0
  2 12  2  0  0  0  0
  3 14  1  0  0  0  0
  4 22  2  0  0  0  0
  4 10  1  0  0  0  0
  5 14  2  0  0  0  0
  6 12  1  0  0  0  0
  7 23  2  0  0  0  0
  7  8  1  0  0  0  0
  8 14  1  0  0  0  0
  9 10  2  0  0  0  0
  9 24  1  0  0  0  0
 10 12  1  0  0  0  0
 11 32  1  0  0  0  0
 11 18  1  0  0  0  0
 13 32  1  0  0  0  0
 13 16  2  0  0  0  0
 13 30  1  0  0  0  0
 13 45  2  0  0  0  0
 15 44  2  0  0  0  0
 15 31  1  0  0  0  0
 15 36  1  0  0  0  0
 15 17  2  0  0  0  0
 18 20  1  0  0  0  0
 18 19  2  0  0  0  0
 19 33  1  0  0  0  0
 20 34  2  0  0  0  0
 21 30  2  0  0  0  0
 22 31  1  0  0  0  0
 23 30  1  0  0  0  0
 24 31  2  0  0  0  0
 25 26  1  0  0  0  0
 25 27  1  0  0  0  0
 26 29  1  0  0  0  0
 27 28  1  0  0  0  0
 27 32  1  0  0  0  0
 28 36  1  0  0  0  0
 28 29  1  0  0  0  0
 33 35  2  0  0  0  0
 34 35  1  0  0  0  0
 36 37  1  0  0  0  0
 37 38  1  0  0  0  0
 38 42  1  0  0  0  0
 38 39  2  0  0  0  0
 39 40  1  0  0  0  0
 40 41  2  0  0  0  0
 41 43  1  0  0  0  0
 42 43  2  0  0  0  0
A    1
C1
A    2
O2
A    3
N2
A    4
C2
A    5
O1
A    6
N1
A    7
C3
A    8
C4
A    9
C5
A   10
C6
A   11
C7
A   12
C8
A   13
S8
A   14
C9
A   15
S9
A   16
O10
A   17
O11
A   18
C12
A   19
C13
A   20
C14
A   21
C17
A   22
C18
A   23
C19
A   24
C20
A   25
C21
A   26
N22
A   27
C23
A   28
C24
A   29
C25
A   30
C26
A   31
C27
A   32
N28
A   33
C29
A   34
C30
A   35
C31
A   36
N32
A   37
C33
A   38
C34
A   39
C35
A   40
C36
A   41
C37
A   42
C38
A   43
C39
A   44
O40
A   45
O41
M  END
>  <InstanceId>
2R38_G4G_B_2501

>  <ChemCompId>
G4G

>  <PdbId>
2R38

>  <ChainId>
B

>  <ResidueNumber>
2501

>  <InsertionCode>


>  <Model>
1

>  <AltIds>


>  <MissingHeavyAtoms>
0

>  <ObservedFormula>
C32 N5 O6 S2

>  <Name>
4,4'-{(3S,4S)-PYRROLIDINE-3,4-DIYLBIS[(BENZYLIMINO)SULFONYL]}DIBENZAMIDE

>  <SystematicName>
4-[[(3S,4S)-4-[(4-aminocarbonylphenyl)sulfonyl-(phenylmethyl)amino]pyrrolidin-3-yl]-(phenylmethyl)sulfamoyl]benzamide

>  <Synonyms>


>  <Type>
NON-POLYMER

>  <Formula>
C32 H33 N5 O6 S2

>  <MolecularWeight>
647.764

>  <ModifiedDate>
2011-06-04

>  <Parent>


>  <OneLetterCode>


>  <SubcomponentList>


>  <AmbiguousFlag>


>  <InChI>
InChI=1S/C32H33N5O6S2/c33-31(38)25-11-15-27(16-12-25)44(40,41)36(21-23-7-3-1-4-8-23)29-19-35-20-30(29)37(22-24-9-5-2-6-10-24)45(42,43)28-17-13-26(14-18-28)32(34)39/h1-18,29-30,35H,19-22H2,(H2,33,38)(H2,34,39)/t29-,30-/m0/s1

>  <InChIKey>
SSQKDDJMCKLBOH-KYJUHHDHSA-N

>  <SMILES>
c1ccc(cc1)CN([C@H]2CNC[C@@H]2N(Cc3ccccc3)S(=O)(=O)c4ccc(cc4)C(=O)N)S(=O)(=O)c5ccc(cc5)C(=O)N

$$$$
