6B7A_CWM_A_201


 13 14  0  0  0  0  0  0  0  0999 V2000
  -35.8973  -34.3646   53.4485 C   0  0  0  0  0  0  0  0  0  0  0  0
  -35.4730  -33.4565   54.4082 C   0  0  0  0  0  0  0  0  0  0  0  0
  -34.9787  -33.8903   55.6283 C   0  0  0  0  0  0  0  0  0  0  0  0
  -34.2383  -38.3752   57.5802 C   0  0  0  0  0  0  0  0  0  0  0  0
  -35.8373  -35.7330   53.6980 C   0  0  0  0  0  0  0  0  0  0  0  0
  -35.3427  -36.1462   54.9445 C   0  0  0  0  0  0  0  0  0  0  0  0
  -34.9161  -35.2584   55.8853 C   0  0  0  0  0  0  0  0  0  0  0  0
  -34.6005  -37.2306   56.6984 C   0  0  0  0  0  0  0  0  0  0  0  0
  -35.1419  -37.4040   55.4669 N   0  0  0  0  0  0  0  0  0  0  0  0
  -34.4420  -35.9480   57.0053 N   0  0  0  0  0  0  0  0  0  0  0  0
  -36.2303  -36.6181   52.7446 O   0  0  0  0  0  0  0  0  0  0  0  0
  -35.3506  -38.2620   55.0315 H   0  0  0  0  0  0  0  0  0  0  0  0
  -36.1891  -37.5386   52.9145 H   0  0  0  0  0  0  0  0  0  0  0  0
 10  7  1  0  0  0
 10  8  2  0  0  0
  3  7  2  0  0  0
  3  2  1  0  0  0
  7  6  1  0  0  0
  4  8  1  0  0  0
  8  9  1  0  0  0
  2  1  2  0  0  0
  6  9  1  0  0  0
  6  5  2  0  0  0
  1  5  1  0  0  0
  5 11  1  0  0  0
  9 12  1  0  0  0
 11 13  1  0  0  0
M  END
> <minimizedAffinity>
-5.51057

$$$$
6B7A_CWM_A_201


 13 14  0  0  0  0  0  0  0  0999 V2000
  -34.5918  -40.2333   56.1917 C   0  0  0  0  0  0  0  0  0  0  0  0
  -33.9935  -39.8260   57.3756 C   0  0  0  0  0  0  0  0  0  0  0  0
  -33.9185  -38.4828   57.7090 C   0  0  0  0  0  0  0  0  0  0  0  0
  -35.4774  -34.3494   55.4824 C   0  0  0  0  0  0  0  0  0  0  0  0
  -35.1258  -39.2949   55.3128 C   0  0  0  0  0  0  0  0  0  0  0  0
  -35.0281  -37.9409   55.6683 C   0  0  0  0  0  0  0  0  0  0  0  0
  -34.4502  -37.5376   56.8340 C   0  0  0  0  0  0  0  0  0  0  0  0
  -35.1519  -35.7592   55.8363 C   0  0  0  0  0  0  0  0  0  0  0  0
  -35.4732  -36.8037   55.0327 N   0  0  0  0  0  0  0  0  0  0  0  0
  -34.5281  -36.1459   56.9434 N   0  0  0  0  0  0  0  0  0  0  0  0
  -35.7333  -39.7013   54.1672 O   0  0  0  0  0  0  0  0  0  0  0  0
  -35.9347  -36.7576   54.1643 H   0  0  0  0  0  0  0  0  0  0  0  0
  -36.0920  -39.0681   53.5770 H   0  0  0  0  0  0  0  0  0  0  0  0
 10  7  1  0  0  0
 10  8  2  0  0  0
  3  7  2  0  0  0
  3  2  1  0  0  0
  7  6  1  0  0  0
  4  8  1  0  0  0
  8  9  1  0  0  0
  2  1  2  0  0  0
  6  9  1  0  0  0
  6  5  2  0  0  0
  1  5  1  0  0  0
  5 11  1  0  0  0
  9 12  1  0  0  0
 11 13  1  0  0  0
M  END
> <minimizedAffinity>
-5.16449

$$$$
6B7A_CWM_A_201


 13 14  0  0  0  0  0  0  0  0999 V2000
  -34.5982  -38.1335   55.3418 C   0  0  0  0  0  0  0  0  0  0  0  0
  -34.9717  -39.2112   54.5514 C   0  0  0  0  0  0  0  0  0  0  0  0
  -35.3793  -40.4056   55.1243 C   0  0  0  0  0  0  0  0  0  0  0  0
  -35.9287  -41.9007   59.8078 C   0  0  0  0  0  0  0  0  0  0  0  0
  -34.6229  -38.2358   56.7301 C   0  0  0  0  0  0  0  0  0  0  0  0
  -35.0294  -39.4587   57.2853 C   0  0  0  0  0  0  0  0  0  0  0  0
  -35.4060  -40.5156   56.5132 C   0  0  0  0  0  0  0  0  0  0  0  0
  -35.6406  -41.1276   58.5676 C   0  0  0  0  0  0  0  0  0  0  0  0
  -35.1782  -39.8527   58.5960 N   0  0  0  0  0  0  0  0  0  0  0  0
  -35.7966  -41.5817   57.3292 N   0  0  0  0  0  0  0  0  0  0  0  0
  -34.2806  -37.1688   57.4989 O   0  0  0  0  0  0  0  0  0  0  0  0
  -34.9865  -39.3142   59.3976 H   0  0  0  0  0  0  0  0  0  0  0  0
  -34.2978  -37.2397   58.4330 H   0  0  0  0  0  0  0  0  0  0  0  0
 10  7  1  0  0  0
 10  8  2  0  0  0
  3  7  2  0  0  0
  3  2  1  0  0  0
  7  6  1  0  0  0
  4  8  1  0  0  0
  8  9  1  0  0  0
  2  1  2  0  0  0
  6  9  1  0  0  0
  6  5  2  0  0  0
  1  5  1  0  0  0
  5 11  1  0  0  0
  9 12  1  0  0  0
 11 13  1  0  0  0
M  END
> <minimizedAffinity>
-5.02630

$$$$
6B7A_CWM_A_201


 13 14  0  0  0  0  0  0  0  0999 V2000
  -33.3132  -39.2704   56.6741 C   0  0  0  0  0  0  0  0  0  0  0  0
  -33.1218  -39.8759   55.4403 C   0  0  0  0  0  0  0  0  0  0  0  0
  -34.1149  -40.6561   54.8693 C   0  0  0  0  0  0  0  0  0  0  0  0
  -38.6852  -41.8987   56.2980 C   0  0  0  0  0  0  0  0  0  0  0  0
  -34.5102  -39.4406   57.3643 C   0  0  0  0  0  0  0  0  0  0  0  0
  -35.4958  -40.2433   56.7698 C   0  0  0  0  0  0  0  0  0  0  0  0
  -35.3156  -40.8314   55.5546 C   0  0  0  0  0  0  0  0  0  0  0  0
  -37.3056  -41.3444   56.2081 C   0  0  0  0  0  0  0  0  0  0  0  0
  -36.7659  -40.5740   57.1854 N   0  0  0  0  0  0  0  0  0  0  0  0
  -36.4690  -41.5345   55.1940 N   0  0  0  0  0  0  0  0  0  0  0  0
  -34.7017  -38.8243   58.5602 O   0  0  0  0  0  0  0  0  0  0  0  0
  -37.1982  -40.3040   58.0277 H   0  0  0  0  0  0  0  0  0  0  0  0
  -35.5080  -38.9401   59.0232 H   0  0  0  0  0  0  0  0  0  0  0  0
 10  7  1  0  0  0
 10  8  2  0  0  0
  3  7  2  0  0  0
  3  2  1  0  0  0
  7  6  1  0  0  0
  4  8  1  0  0  0
  8  9  1  0  0  0
  2  1  2  0  0  0
  6  9  1  0  0  0
  6  5  2  0  0  0
  1  5  1  0  0  0
  5 11  1  0  0  0
  9 12  1  0  0  0
 11 13  1  0  0  0
M  END
> <minimizedAffinity>
-4.95424

$$$$
6B7A_CWM_A_201


 13 14  0  0  0  0  0  0  0  0999 V2000
  -33.4985  -39.5322   56.9113 C   0  0  0  0  0  0  0  0  0  0  0  0
  -33.1620  -40.1729   55.7273 C   0  0  0  0  0  0  0  0  0  0  0  0
  -33.5338  -39.6431   54.5017 C   0  0  0  0  0  0  0  0  0  0  0  0
  -35.9932  -35.5577   53.1847 C   0  0  0  0  0  0  0  0  0  0  0  0
  -34.2222  -38.3431   56.8881 C   0  0  0  0  0  0  0  0  0  0  0  0
  -34.5954  -37.8328   55.6353 C   0  0  0  0  0  0  0  0  0  0  0  0
  -34.2588  -38.4534   54.4705 C   0  0  0  0  0  0  0  0  0  0  0  0
  -35.3279  -36.6585   53.9360 C   0  0  0  0  0  0  0  0  0  0  0  0
  -35.2793  -36.6886   55.2912 N   0  0  0  0  0  0  0  0  0  0  0  0
  -34.7250  -37.7059   53.3848 N   0  0  0  0  0  0  0  0  0  0  0  0
  -34.5265  -37.7069   58.0497 O   0  0  0  0  0  0  0  0  0  0  0  0
  -35.6591  -36.0222   55.9084 H   0  0  0  0  0  0  0  0  0  0  0  0
  -35.0137  -36.9067   58.0319 H   0  0  0  0  0  0  0  0  0  0  0  0
 10  7  1  0  0  0
 10  8  2  0  0  0
  3  7  2  0  0  0
  3  2  1  0  0  0
  7  6  1  0  0  0
  4  8  1  0  0  0
  8  9  1  0  0  0
  2  1  2  0  0  0
  6  9  1  0  0  0
  6  5  2  0  0  0
  1  5  1  0  0  0
  5 11  1  0  0  0
  9 12  1  0  0  0
 11 13  1  0  0  0
M  END
> <minimizedAffinity>
-4.92693

$$$$
6B7A_CWM_A_201


 13 14  0  0  0  0  0  0  0  0999 V2000
  -35.0028  -38.0408   57.9155 C   0  0  0  0  0  0  0  0  0  0  0  0
  -34.0178  -39.0175   57.9548 C   0  0  0  0  0  0  0  0  0  0  0  0
  -33.4424  -39.4944   56.7876 C   0  0  0  0  0  0  0  0  0  0  0  0
  -34.0866  -38.4063   52.0050 C   0  0  0  0  0  0  0  0  0  0  0  0
  -35.4346  -37.5242   56.6969 C   0  0  0  0  0  0  0  0  0  0  0  0
  -34.8437  -38.0308   55.5293 C   0  0  0  0  0  0  0  0  0  0  0  0
  -33.8698  -38.9824   55.5641 C   0  0  0  0  0  0  0  0  0  0  0  0
  -34.1735  -38.4746   53.4904 C   0  0  0  0  0  0  0  0  0  0  0  0
  -35.0369  -37.7101   54.2045 N   0  0  0  0  0  0  0  0  0  0  0  0
  -33.4405  -39.2671   54.2643 N   0  0  0  0  0  0  0  0  0  0  0  0
  -36.3811  -36.5497   56.6661 O   0  0  0  0  0  0  0  0  0  0  0  0
  -35.6769  -37.0538   53.8455 H   0  0  0  0  0  0  0  0  0  0  0  0
  -36.6703  -36.2033   55.8449 H   0  0  0  0  0  0  0  0  0  0  0  0
 10  7  1  0  0  0
 10  8  2  0  0  0
  3  7  2  0  0  0
  3  2  1  0  0  0
  7  6  1  0  0  0
  4  8  1  0  0  0
  8  9  1  0  0  0
  2  1  2  0  0  0
  6  9  1  0  0  0
  6  5  2  0  0  0
  1  5  1  0  0  0
  5 11  1  0  0  0
  9 12  1  0  0  0
 11 13  1  0  0  0
M  END
> <minimizedAffinity>
-4.84252

$$$$
6B7A_CWM_A_201


 13 14  0  0  0  0  0  0  0  0999 V2000
  -35.0472  -32.6085   54.4869 C   0  0  0  0  0  0  0  0  0  0  0  0
  -35.7027  -33.3806   53.5385 C   0  0  0  0  0  0  0  0  0  0  0  0
  -35.8806  -34.7419   53.7294 C   0  0  0  0  0  0  0  0  0  0  0  0
  -34.6536  -37.8367   57.3885 C   0  0  0  0  0  0  0  0  0  0  0  0
  -34.5511  -33.1916   55.6498 C   0  0  0  0  0  0  0  0  0  0  0  0
  -34.7350  -34.5730   55.8146 C   0  0  0  0  0  0  0  0  0  0  0  0
  -35.3864  -35.3327   54.8906 C   0  0  0  0  0  0  0  0  0  0  0  0
  -34.8417  -36.6488   56.5098 C   0  0  0  0  0  0  0  0  0  0  0  0
  -34.3867  -35.4158   56.8459 N   0  0  0  0  0  0  0  0  0  0  0  0
  -35.4558  -36.6576   55.3320 N   0  0  0  0  0  0  0  0  0  0  0  0
  -33.9327  -32.4260   56.5867 O   0  0  0  0  0  0  0  0  0  0  0  0
  -33.9020  -35.1714   57.6672 H   0  0  0  0  0  0  0  0  0  0  0  0
  -33.5995  -32.8204   57.3687 H   0  0  0  0  0  0  0  0  0  0  0  0
 10  7  1  0  0  0
 10  8  2  0  0  0
  3  7  2  0  0  0
  3  2  1  0  0  0
  7  6  1  0  0  0
  4  8  1  0  0  0
  8  9  1  0  0  0
  2  1  2  0  0  0
  6  9  1  0  0  0
  6  5  2  0  0  0
  1  5  1  0  0  0
  5 11  1  0  0  0
  9 12  1  0  0  0
 11 13  1  0  0  0
M  END
> <minimizedAffinity>
-4.74078

$$$$
6B7A_CWM_A_201


 13 14  0  0  0  0  0  0  0  0999 V2000
  -35.8964  -40.0443   57.6252 C   0  0  0  0  0  0  0  0  0  0  0  0
  -34.8829  -39.1648   57.9787 C   0  0  0  0  0  0  0  0  0  0  0  0
  -33.7314  -39.0626   57.2141 C   0  0  0  0  0  0  0  0  0  0  0  0
  -32.2191  -41.2785   53.0577 C   0  0  0  0  0  0  0  0  0  0  0  0
  -35.7712  -40.8456   56.4936 C   0  0  0  0  0  0  0  0  0  0  0  0
  -34.5916  -40.7308   55.7422 C   0  0  0  0  0  0  0  0  0  0  0  0
  -33.5987  -39.8618   56.0803 C   0  0  0  0  0  0  0  0  0  0  0  0
  -32.9782  -40.8434   54.2632 C   0  0  0  0  0  0  0  0  0  0  0  0
  -34.1920  -41.3573   54.5833 N   0  0  0  0  0  0  0  0  0  0  0  0
  -32.5682  -39.9318   55.1379 N   0  0  0  0  0  0  0  0  0  0  0  0
  -36.7779  -41.6864   56.1382 O   0  0  0  0  0  0  0  0  0  0  0  0
  -34.6901  -42.0444   54.0842 H   0  0  0  0  0  0  0  0  0  0  0  0
  -36.6916  -42.2248   55.3762 H   0  0  0  0  0  0  0  0  0  0  0  0
 10  7  1  0  0  0
 10  8  2  0  0  0
  3  7  2  0  0  0
  3  2  1  0  0  0
  7  6  1  0  0  0
  4  8  1  0  0  0
  8  9  1  0  0  0
  2  1  2  0  0  0
  6  9  1  0  0  0
  6  5  2  0  0  0
  1  5  1  0  0  0
  5 11  1  0  0  0
  9 12  1  0  0  0
 11 13  1  0  0  0
M  END
> <minimizedAffinity>
-4.73935

$$$$
6B7A_CWM_A_201


 13 14  0  0  0  0  0  0  0  0999 V2000
  -34.4341  -37.4735   57.0250 C   0  0  0  0  0  0  0  0  0  0  0  0
  -33.9182  -38.5416   57.7450 C   0  0  0  0  0  0  0  0  0  0  0  0
  -33.9645  -39.8303   57.2368 C   0  0  0  0  0  0  0  0  0  0  0  0
  -35.6642  -41.7407   53.0019 C   0  0  0  0  0  0  0  0  0  0  0  0
  -35.0134  -37.6798   55.7759 C   0  0  0  0  0  0  0  0  0  0  0  0
  -35.0573  -38.9948   55.2882 C   0  0  0  0  0  0  0  0  0  0  0  0
  -34.5433  -40.0446   55.9874 C   0  0  0  0  0  0  0  0  0  0  0  0
  -35.2884  -40.8385   54.1260 C   0  0  0  0  0  0  0  0  0  0  0  0
  -35.5339  -39.5047   54.1015 N   0  0  0  0  0  0  0  0  0  0  0  0
  -34.6895  -41.2221   55.2478 N   0  0  0  0  0  0  0  0  0  0  0  0
  -35.4938  -36.6265   55.0644 O   0  0  0  0  0  0  0  0  0  0  0  0
  -35.9682  -38.9997   53.3765 H   0  0  0  0  0  0  0  0  0  0  0  0
  -35.8834  -36.7675   54.2239 H   0  0  0  0  0  0  0  0  0  0  0  0
 10  7  1  0  0  0
 10  8  2  0  0  0
  3  7  2  0  0  0
  3  2  1  0  0  0
  7  6  1  0  0  0
  4  8  1  0  0  0
  8  9  1  0  0  0
  2  1  2  0  0  0
  6  9  1  0  0  0
  6  5  2  0  0  0
  1  5  1  0  0  0
  5 11  1  0  0  0
  9 12  1  0  0  0
 11 13  1  0  0  0
M  END
> <minimizedAffinity>
-4.72815

$$$$
6B7A_CWM_A_201


 13 14  0  0  0  0  0  0  0  0999 V2000
  -35.6757  -37.4460   57.9846 C   0  0  0  0  0  0  0  0  0  0  0  0
  -35.5230  -36.5517   56.9346 C   0  0  0  0  0  0  0  0  0  0  0  0
  -34.9468  -36.9507   55.7388 C   0  0  0  0  0  0  0  0  0  0  0  0
  -33.1532  -41.2671   54.1188 C   0  0  0  0  0  0  0  0  0  0  0  0
  -35.2467  -38.7642   57.8554 C   0  0  0  0  0  0  0  0  0  0  0  0
  -34.6573  -39.1406   56.6388 C   0  0  0  0  0  0  0  0  0  0  0  0
  -34.5145  -38.2684   55.6024 C   0  0  0  0  0  0  0  0  0  0  0  0
  -33.7495  -40.1691   54.9297 C   0  0  0  0  0  0  0  0  0  0  0  0
  -34.1664  -40.3522   56.2074 N   0  0  0  0  0  0  0  0  0  0  0  0
  -33.9356  -38.9224   54.5106 N   0  0  0  0  0  0  0  0  0  0  0  0
  -35.4221  -39.6420   58.8779 O   0  0  0  0  0  0  0  0  0  0  0  0
  -34.1259  -41.1886   56.7252 H   0  0  0  0  0  0  0  0  0  0  0  0
  -35.1327  -40.5287   58.7890 H   0  0  0  0  0  0  0  0  0  0  0  0
 10  7  1  0  0  0
 10  8  2  0  0  0
  3  7  2  0  0  0
  3  2  1  0  0  0
  7  6  1  0  0  0
  4  8  1  0  0  0
  8  9  1  0  0  0
  2  1  2  0  0  0
  6  9  1  0  0  0
  6  5  2  0  0  0
  1  5  1  0  0  0
  5 11  1  0  0  0
  9 12  1  0  0  0
 11 13  1  0  0  0
M  END
> <minimizedAffinity>
-4.71941

$$$$
