1PGP_6PG_A_502
  RCSB PDB12061703393D
Coordinates from PDB:1PGP:A:502 Model:1 without hydrogens
 17 16  0  0  0  0            999 V2000
   20.2160   29.9130   38.8060   C 0  0  0  0  0  0  0  0  0  0  0  0
   20.3270   28.4720   39.3500   C 0  0  0  0  0  0  0  0  0  0  0  0
   21.8460   27.9720   39.4820   C 0  0  0  0  0  0  0  0  0  0  0  0
   22.8470   28.5740   40.5780   C 0  0  0  0  0  0  0  0  0  0  0  0
   24.4050   28.2270   40.2800   C 0  0  0  0  0  0  0  0  0  0  0  0
   25.2040   29.0020   39.1600   C 0  0  0  0  0  0  0  0  0  0  0  0
   21.2790   30.6310   38.5290   O 0  0  0  0  0  0  0  0  0  0  0  0
   19.1050   30.4010   38.5710   O 0  0  0  0  0  0  0  0  0  0  0  0
   19.6830   28.3710   40.6190   O 0  0  0  0  0  0  0  0  0  0  0  0
   22.3540   28.1650   38.1800   O 0  0  0  0  0  0  0  0  0  0  0  0
   22.7960   29.9890   40.7620   O 0  0  0  0  0  0  0  0  0  0  0  0
   25.1860   28.3860   41.4580   O 0  0  0  0  0  0  0  0  0  0  0  0
   25.7830   30.3680   39.4700   O 0  0  0  0  0  0  0  0  0  0  0  0
   27.3900   30.6110   39.6170   P 0  0  0  0  0  0  0  0  0  0  0  0
   27.7430   30.0220   40.9760   O 0  0  0  0  0  0  0  0  0  0  0  0
   27.7890   32.0490   39.7730   O 0  0  0  0  0  0  0  0  0  0  0  0
   28.2410   29.8860   38.4890   O 0  0  0  0  0  0  0  0  0  0  0  0
  1  2  1  0  0  0  0
  1  7  2  0  0  0  0
  1  8  1  0  0  0  0
  2  3  1  0  0  0  0
  2  9  1  0  0  0  0
  3  4  1  0  0  0  0
  3 10  1  0  0  0  0
  4  5  1  0  0  0  0
  4 11  1  0  0  0  0
  5  6  1  0  0  0  0
  5 12  1  0  0  0  0
  6 13  1  0  0  0  0
 13 14  1  0  0  0  0
 14 15  2  0  0  0  0
 14 16  1  0  0  0  0
 14 17  1  0  0  0  0
A    1
C1
A    2
C2
A    3
C3
A    4
C4
A    5
C5
A    6
C6
A    7
O1A
A    8
O1
A    9
O2
A   10
O3
A   11
O4
A   12
O5
A   13
O6
A   14
P
A   15
O1P
A   16
O2P
A   17
O3P
M  END
>  <InstanceId>
1PGP_6PG_A_502

>  <ChemCompId>
6PG

>  <PdbId>
1PGP

>  <ChainId>
A

>  <ResidueNumber>
502

>  <InsertionCode>


>  <Model>
1

>  <AltIds>


>  <MissingHeavyAtoms>
0

>  <ObservedFormula>
C6 O10 P

>  <Name>
6-PHOSPHOGLUCONIC ACID

>  <SystematicName>
(2R,3S,4R,5R)-2,3,4,5-tetrahydroxy-6-phosphonooxy-hexanoic acid

>  <Synonyms>


>  <Type>
D-SACCHARIDE

>  <Formula>
C6 H13 O10 P

>  <MolecularWeight>
276.135

>  <ModifiedDate>
2011-06-04

>  <Parent>


>  <OneLetterCode>


>  <SubcomponentList>


>  <AmbiguousFlag>
N

>  <InChI>
InChI=1S/C6H13O10P/c7-2(1-16-17(13,14)15)3(8)4(9)5(10)6(11)12/h2-5,7-10H,1H2,(H,11,12)(H2,13,14,15)/t2-,3-,4+,5-/m1/s1

>  <InChIKey>
BIRSGZKFKXLSJQ-SQOUGZDYSA-N

>  <SMILES>
C([C@H]([C@H]([C@@H]([C@H](C(=O)O)O)O)O)O)OP(=O)(O)O

$$$$
