2BRB_PFQ_A_1277


 27 30  0  0  0  0  0  0  0  0999 V2000
   13.2048   -0.4319   10.1772 C   0  0  0  0  0  0  0  0  0  0  0  0
   17.3582   -2.0267    9.6644 C   0  0  0  0  0  0  0  0  0  0  0  0
   14.3632   -0.1712    9.5931 N   0  0  0  0  0  0  0  0  0  0  0  0
   15.4016   -1.0077    9.7359 C   0  0  0  0  0  0  0  0  0  0  0  0
   16.6653   -0.9386    9.2405 O   0  0  0  0  0  0  0  0  0  0  0  0
   15.2811   -2.1655   10.5033 C   0  0  0  0  0  0  0  0  0  0  0  0
   14.0401   -2.4053   11.1037 C   0  0  0  0  0  0  0  0  0  0  0  0
   13.0469   -1.5184   10.9106 N   0  0  0  0  0  0  0  0  0  0  0  0
   16.5208   -2.8151   10.4632 C   0  0  0  0  0  0  0  0  0  0  0  0
   18.6836   -2.1650    9.2621 C   0  0  0  0  0  0  0  0  0  0  0  0
   19.5411   -3.1668    9.7127 C   0  0  0  0  0  0  0  0  0  0  0  0
   20.8497   -3.2033    9.2266 C   0  0  0  0  0  0  0  0  0  0  0  0
   21.2890   -2.2589    8.2978 C   0  0  0  0  0  0  0  0  0  0  0  0
   20.4321   -1.2525    7.8493 C   0  0  0  0  0  0  0  0  0  0  0  0
   19.1315   -1.2362    8.3257 C   0  0  0  0  0  0  0  0  0  0  0  0
   16.6544   -5.2354   10.4296 C   0  0  0  0  0  0  0  0  0  0  0  0
   16.8752   -6.4695   11.0469 C   0  0  0  0  0  0  0  0  0  0  0  0
   17.2321   -6.4955   12.3965 C   0  0  0  0  0  0  0  0  0  0  0  0
   17.3578   -5.2827   13.0992 C   0  0  0  0  0  0  0  0  0  0  0  0
   17.1338   -4.0514   12.4751 C   0  0  0  0  0  0  0  0  0  0  0  0
   16.7850   -4.0267   11.1230 C   0  0  0  0  0  0  0  0  0  0  0  0
   13.8071   -3.4791   11.8663 N   0  0  0  0  0  0  0  0  0  0  0  0
   14.5340   -4.1191   12.0433 H   0  0  0  0  0  0  0  0  0  0  0  0
   12.4691   -3.7128   12.4451 C   0  0  0  0  0  0  0  0  0  0  0  0
   12.3928   -3.1243   13.8620 C   0  0  0  0  0  0  0  0  0  0  0  0
   11.7456   -1.8456   13.8256 O   0  0  0  0  0  0  0  0  0  0  0  0
   12.2521   -1.2429   13.2589 H   0  0  0  0  0  0  0  0  0  0  0  0
  1  3  2  0  0  0
  1  8  1  0  0  0
  2 10  1  0  0  0
  2  5  1  0  0  0
  2  9  2  0  0  0
 10 11  2  0  0  0
 10 15  1  0  0  0
 11 12  1  0  0  0
 12 13  2  0  0  0
 13 14  1  0  0  0
 14 15  2  0  0  0
 16 17  2  0  0  0
 16 21  1  0  0  0
 17 18  1  0  0  0
 18 19  2  0  0  0
 19 20  1  0  0  0
  3  4  1  0  0  0
  4  5  1  0  0  0
  4  6  2  0  0  0
  6  7  1  0  0  0
  6  9  1  0  0  0
 22  7  1  0  0  0
 22 24  1  0  0  0
  7  8  2  0  0  0
 20 21  2  0  0  0
  9 21  1  0  0  0
 25 24  1  0  0  0
 25 26  1  0  0  0
 22 23  1  0  0  0
 26 27  1  0  0  0
M  END
> <minimizedAffinity>
-8.30409

$$$$
2BRB_PFQ_A_1277


 27 30  0  0  0  0  0  0  0  0999 V2000
   20.6298   -1.4776    7.9966 C   0  0  0  0  0  0  0  0  0  0  0  0
   16.5511   -1.9401    9.7877 C   0  0  0  0  0  0  0  0  0  0  0  0
   19.4296   -0.9211    8.0288 N   0  0  0  0  0  0  0  0  0  0  0  0
   18.4486   -1.4597    8.7677 C   0  0  0  0  0  0  0  0  0  0  0  0
   17.1589   -1.0683    8.9425 O   0  0  0  0  0  0  0  0  0  0  0  0
   18.6737   -2.6159    9.5135 C   0  0  0  0  0  0  0  0  0  0  0  0
   19.9559   -3.1732    9.4531 C   0  0  0  0  0  0  0  0  0  0  0  0
   20.8864   -2.5716    8.6898 N   0  0  0  0  0  0  0  0  0  0  0  0
   17.4719   -2.9268   10.1613 C   0  0  0  0  0  0  0  0  0  0  0  0
   15.2164   -1.7213   10.1165 C   0  0  0  0  0  0  0  0  0  0  0  0
   14.3946   -2.6625   10.7336 C   0  0  0  0  0  0  0  0  0  0  0  0
   13.0718   -2.3183   11.0196 C   0  0  0  0  0  0  0  0  0  0  0  0
   12.5831   -1.0502   10.7022 C   0  0  0  0  0  0  0  0  0  0  0  0
   13.4043   -0.1084   10.0801 C   0  0  0  0  0  0  0  0  0  0  0  0
   14.7193   -0.4552    9.8164 C   0  0  0  0  0  0  0  0  0  0  0  0
   16.9847   -5.2816   10.4686 C   0  0  0  0  0  0  0  0  0  0  0  0
   16.7830   -6.4071   11.2719 C   0  0  0  0  0  0  0  0  0  0  0  0
   16.9066   -6.2795   12.6568 C   0  0  0  0  0  0  0  0  0  0  0  0
   17.2275   -5.0247   13.2071 C   0  0  0  0  0  0  0  0  0  0  0  0
   17.4265   -3.9023   12.3969 C   0  0  0  0  0  0  0  0  0  0  0  0
   17.3109   -4.0334   11.0113 C   0  0  0  0  0  0  0  0  0  0  0  0
   20.2882   -4.2835   10.1206 N   0  0  0  0  0  0  0  0  0  0  0  0
   20.0752   -5.1652    9.7379 H   0  0  0  0  0  0  0  0  0  0  0  0
   20.9718   -4.1982   11.4265 C   0  0  0  0  0  0  0  0  0  0  0  0
   21.2737   -5.6063   11.9613 C   0  0  0  0  0  0  0  0  0  0  0  0
   20.2241   -6.5073   11.5847 O   0  0  0  0  0  0  0  0  0  0  0  0
   19.3839   -6.1994   11.9590 H   0  0  0  0  0  0  0  0  0  0  0  0
  1  3  2  0  0  0
  1  8  1  0  0  0
  2 10  1  0  0  0
  2  5  1  0  0  0
  2  9  2  0  0  0
 10 11  2  0  0  0
 10 15  1  0  0  0
 11 12  1  0  0  0
 12 13  2  0  0  0
 13 14  1  0  0  0
 14 15  2  0  0  0
 16 17  2  0  0  0
 16 21  1  0  0  0
 17 18  1  0  0  0
 18 19  2  0  0  0
 19 20  1  0  0  0
  3  4  1  0  0  0
  4  5  1  0  0  0
  4  6  2  0  0  0
  6  7  1  0  0  0
  6  9  1  0  0  0
 22  7  1  0  0  0
 22 24  1  0  0  0
  7  8  2  0  0  0
 20 21  2  0  0  0
  9 21  1  0  0  0
 25 24  1  0  0  0
 25 26  1  0  0  0
 22 23  1  0  0  0
 26 27  1  0  0  0
M  END
> <minimizedAffinity>
-8.16276

$$$$
2BRB_PFQ_A_1277


 27 30  0  0  0  0  0  0  0  0999 V2000
   15.3612    0.2902    9.1048 C   0  0  0  0  0  0  0  0  0  0  0  0
   18.8664   -2.3937    9.8590 C   0  0  0  0  0  0  0  0  0  0  0  0
   16.6651    0.1869    8.9036 N   0  0  0  0  0  0  0  0  0  0  0  0
   17.3398   -0.8847    9.3450 C   0  0  0  0  0  0  0  0  0  0  0  0
   18.6604   -1.1936    9.2579 O   0  0  0  0  0  0  0  0  0  0  0  0
   16.6813   -1.9083   10.0251 C   0  0  0  0  0  0  0  0  0  0  0  0
   15.3030   -1.7617   10.2170 C   0  0  0  0  0  0  0  0  0  0  0  0
   14.6985   -0.6574    9.7421 N   0  0  0  0  0  0  0  0  0  0  0  0
   17.6459   -2.8678   10.3558 C   0  0  0  0  0  0  0  0  0  0  0  0
   20.1582   -2.9116    9.8768 C   0  0  0  0  0  0  0  0  0  0  0  0
   20.8416   -3.3578    8.7473 C   0  0  0  0  0  0  0  0  0  0  0  0
   22.1401   -3.8498    8.8953 C   0  0  0  0  0  0  0  0  0  0  0  0
   22.7475   -3.8852   10.1514 C   0  0  0  0  0  0  0  0  0  0  0  0
   22.0620   -3.4426   11.2839 C   0  0  0  0  0  0  0  0  0  0  0  0
   20.7808   -2.9412   11.1225 C   0  0  0  0  0  0  0  0  0  0  0  0
   17.4037   -4.0674   12.4485 C   0  0  0  0  0  0  0  0  0  0  0  0
   17.1544   -5.2280   13.1858 C   0  0  0  0  0  0  0  0  0  0  0  0
   16.8536   -6.4092   12.5050 C   0  0  0  0  0  0  0  0  0  0  0  0
   16.8115   -6.4020   11.0983 C   0  0  0  0  0  0  0  0  0  0  0  0
   17.0635   -5.2369   10.3671 C   0  0  0  0  0  0  0  0  0  0  0  0
   17.3561   -4.0542   11.0497 C   0  0  0  0  0  0  0  0  0  0  0  0
   14.5665   -2.6748   10.8595 N   0  0  0  0  0  0  0  0  0  0  0  0
   15.0022   -3.4671   11.2490 H   0  0  0  0  0  0  0  0  0  0  0  0
   13.1058   -2.5047   10.9896 C   0  0  0  0  0  0  0  0  0  0  0  0
   12.7644   -1.8559   12.3396 C   0  0  0  0  0  0  0  0  0  0  0  0
   12.6739   -0.4331   12.1888 O   0  0  0  0  0  0  0  0  0  0  0  0
   13.5243   -0.0863   11.8764 H   0  0  0  0  0  0  0  0  0  0  0  0
  1  3  2  0  0  0
  1  8  1  0  0  0
  2 10  1  0  0  0
  2  5  1  0  0  0
  2  9  2  0  0  0
 10 11  2  0  0  0
 10 15  1  0  0  0
 11 12  1  0  0  0
 12 13  2  0  0  0
 13 14  1  0  0  0
 14 15  2  0  0  0
 16 17  2  0  0  0
 16 21  1  0  0  0
 17 18  1  0  0  0
 18 19  2  0  0  0
 19 20  1  0  0  0
  3  4  1  0  0  0
  4  5  1  0  0  0
  4  6  2  0  0  0
  6  7  1  0  0  0
  6  9  1  0  0  0
 22  7  1  0  0  0
 22 24  1  0  0  0
  7  8  2  0  0  0
 20 21  2  0  0  0
  9 21  1  0  0  0
 25 24  1  0  0  0
 25 26  1  0  0  0
 22 23  1  0  0  0
 26 27  1  0  0  0
M  END
> <minimizedAffinity>
-8.02680

$$$$
2BRB_PFQ_A_1277


 27 30  0  0  0  0  0  0  0  0999 V2000
   17.9927   -0.8158    8.3506 C   0  0  0  0  0  0  0  0  0  0  0  0
   14.6384   -2.0816   11.0347 C   0  0  0  0  0  0  0  0  0  0  0  0
   16.7320   -0.5481    8.6507 N   0  0  0  0  0  0  0  0  0  0  0  0
   16.0947   -1.2474    9.6012 C   0  0  0  0  0  0  0  0  0  0  0  0
   14.8200   -1.1512   10.0625 O   0  0  0  0  0  0  0  0  0  0  0  0
   16.7469   -2.2699   10.2888 C   0  0  0  0  0  0  0  0  0  0  0  0
   18.0792   -2.5215    9.9425 C   0  0  0  0  0  0  0  0  0  0  0  0
   18.6483   -1.7742    8.9791 N   0  0  0  0  0  0  0  0  0  0  0  0
   15.8265   -2.8045   11.1985 C   0  0  0  0  0  0  0  0  0  0  0  0
   13.3961   -2.1532   11.6583 C   0  0  0  0  0  0  0  0  0  0  0  0
   12.6191   -3.3077   11.7321 C   0  0  0  0  0  0  0  0  0  0  0  0
   11.3908   -3.2527   12.3941 C   0  0  0  0  0  0  0  0  0  0  0  0
   10.9525   -2.0646   12.9806 C   0  0  0  0  0  0  0  0  0  0  0  0
   11.7280   -0.9066   12.9034 C   0  0  0  0  0  0  0  0  0  0  0  0
   12.9522   -0.9773   12.2587 C   0  0  0  0  0  0  0  0  0  0  0  0
   16.5109   -3.5796   13.3912 C   0  0  0  0  0  0  0  0  0  0  0  0
   16.8477   -4.5910   14.2948 C   0  0  0  0  0  0  0  0  0  0  0  0
   16.8012   -5.9199   13.8692 C   0  0  0  0  0  0  0  0  0  0  0  0
   16.4200   -6.2063   12.5452 C   0  0  0  0  0  0  0  0  0  0  0  0
   16.0856   -5.1887   11.6461 C   0  0  0  0  0  0  0  0  0  0  0  0
   16.1245   -3.8604   12.0757 C   0  0  0  0  0  0  0  0  0  0  0  0
   18.8046   -3.4800   10.5288 N   0  0  0  0  0  0  0  0  0  0  0  0
   18.5471   -4.4237   10.4179 H   0  0  0  0  0  0  0  0  0  0  0  0
   19.9883   -3.1349   11.3409 C   0  0  0  0  0  0  0  0  0  0  0  0
   20.7762   -4.4044   11.6982 C   0  0  0  0  0  0  0  0  0  0  0  0
   19.9091   -5.3560   12.3291 O   0  0  0  0  0  0  0  0  0  0  0  0
   19.5428   -4.9713   13.1407 H   0  0  0  0  0  0  0  0  0  0  0  0
  1  3  2  0  0  0
  1  8  1  0  0  0
  2 10  1  0  0  0
  2  5  1  0  0  0
  2  9  2  0  0  0
 10 11  2  0  0  0
 10 15  1  0  0  0
 11 12  1  0  0  0
 12 13  2  0  0  0
 13 14  1  0  0  0
 14 15  2  0  0  0
 16 17  2  0  0  0
 16 21  1  0  0  0
 17 18  1  0  0  0
 18 19  2  0  0  0
 19 20  1  0  0  0
  3  4  1  0  0  0
  4  5  1  0  0  0
  4  6  2  0  0  0
  6  7  1  0  0  0
  6  9  1  0  0  0
 22  7  1  0  0  0
 22 24  1  0  0  0
  7  8  2  0  0  0
 20 21  2  0  0  0
  9 21  1  0  0  0
 25 24  1  0  0  0
 25 26  1  0  0  0
 22 23  1  0  0  0
 26 27  1  0  0  0
M  END
> <minimizedAffinity>
-8.02296

$$$$
2BRB_PFQ_A_1277


 27 30  0  0  0  0  0  0  0  0999 V2000
   14.3065    0.3305    9.5942 C   0  0  0  0  0  0  0  0  0  0  0  0
   18.1943   -1.8699    9.2759 C   0  0  0  0  0  0  0  0  0  0  0  0
   15.5148    0.4087    9.0604 N   0  0  0  0  0  0  0  0  0  0  0  0
   16.4100   -0.5709    9.2543 C   0  0  0  0  0  0  0  0  0  0  0  0
   17.6899   -0.6965    8.8149 O   0  0  0  0  0  0  0  0  0  0  0  0
   16.0856   -1.6879   10.0228 C   0  0  0  0  0  0  0  0  0  0  0  0
   14.7981   -1.7331   10.5692 C   0  0  0  0  0  0  0  0  0  0  0  0
   13.9573   -0.7111   10.3267 N   0  0  0  0  0  0  0  0  0  0  0  0
   17.2153   -2.5149   10.0418 C   0  0  0  0  0  0  0  0  0  0  0  0
   19.5002   -2.2087    8.9335 C   0  0  0  0  0  0  0  0  0  0  0  0
   20.1834   -3.3135    9.4380 C   0  0  0  0  0  0  0  0  0  0  0  0
   21.4911   -3.5511    9.0094 C   0  0  0  0  0  0  0  0  0  0  0  0
   22.1006   -2.7025    8.0842 C   0  0  0  0  0  0  0  0  0  0  0  0
   21.4187   -1.5931    7.5819 C   0  0  0  0  0  0  0  0  0  0  0  0
   20.1163   -1.3769    8.0014 C   0  0  0  0  0  0  0  0  0  0  0  0
   17.7087   -3.7834   12.0479 C   0  0  0  0  0  0  0  0  0  0  0  0
   17.8090   -4.9827   12.7582 C   0  0  0  0  0  0  0  0  0  0  0  0
   17.4629   -6.1759   12.1212 C   0  0  0  0  0  0  0  0  0  0  0  0
   17.0255   -6.1414   10.7841 C   0  0  0  0  0  0  0  0  0  0  0  0
   16.9290   -4.9374   10.0792 C   0  0  0  0  0  0  0  0  0  0  0  0
   17.2676   -3.7438   10.7202 C   0  0  0  0  0  0  0  0  0  0  0  0
   14.3753   -2.7506   11.3275 N   0  0  0  0  0  0  0  0  0  0  0  0
   14.5132   -3.6765   11.0227 H   0  0  0  0  0  0  0  0  0  0  0  0
   13.7037   -2.4969   12.6175 C   0  0  0  0  0  0  0  0  0  0  0  0
   14.3876   -3.2941   13.7385 C   0  0  0  0  0  0  0  0  0  0  0  0
   15.3439   -2.4661   14.4132 O   0  0  0  0  0  0  0  0  0  0  0  0
   16.0162   -2.1676   13.7810 H   0  0  0  0  0  0  0  0  0  0  0  0
  1  3  2  0  0  0
  1  8  1  0  0  0
  2 10  1  0  0  0
  2  5  1  0  0  0
  2  9  2  0  0  0
 10 11  2  0  0  0
 10 15  1  0  0  0
 11 12  1  0  0  0
 12 13  2  0  0  0
 13 14  1  0  0  0
 14 15  2  0  0  0
 16 17  2  0  0  0
 16 21  1  0  0  0
 17 18  1  0  0  0
 18 19  2  0  0  0
 19 20  1  0  0  0
  3  4  1  0  0  0
  4  5  1  0  0  0
  4  6  2  0  0  0
  6  7  1  0  0  0
  6  9  1  0  0  0
 22  7  1  0  0  0
 22 24  1  0  0  0
  7  8  2  0  0  0
 20 21  2  0  0  0
  9 21  1  0  0  0
 25 24  1  0  0  0
 25 26  1  0  0  0
 22 23  1  0  0  0
 26 27  1  0  0  0
M  END
> <minimizedAffinity>
-8.00419

$$$$
2BRB_PFQ_A_1277


 27 30  0  0  0  0  0  0  0  0999 V2000
   14.5814   -6.5333   16.3023 C   0  0  0  0  0  0  0  0  0  0  0  0
   14.2876   -3.4679   13.0504 C   0  0  0  0  0  0  0  0  0  0  0  0
   13.7698   -5.6216   15.7912 N   0  0  0  0  0  0  0  0  0  0  0  0
   14.1469   -4.8914   14.7314 C   0  0  0  0  0  0  0  0  0  0  0  0
   13.4903   -3.9117   14.0560 O   0  0  0  0  0  0  0  0  0  0  0  0
   15.4004   -5.0773   14.1502 C   0  0  0  0  0  0  0  0  0  0  0  0
   16.2285   -6.0510   14.7196 C   0  0  0  0  0  0  0  0  0  0  0  0
   15.7761   -6.7432   15.7810 N   0  0  0  0  0  0  0  0  0  0  0  0
   15.4961   -4.1747   13.0839 C   0  0  0  0  0  0  0  0  0  0  0  0
   13.8047   -2.4624   12.2179 C   0  0  0  0  0  0  0  0  0  0  0  0
   14.0670   -2.3798   10.8517 C   0  0  0  0  0  0  0  0  0  0  0  0
   13.5163   -1.3241   10.1220 C   0  0  0  0  0  0  0  0  0  0  0  0
   12.7090   -0.3731   10.7476 C   0  0  0  0  0  0  0  0  0  0  0  0
   12.4494   -0.4526   12.1168 C   0  0  0  0  0  0  0  0  0  0  0  0
   12.9872   -1.5133   12.8271 C   0  0  0  0  0  0  0  0  0  0  0  0
   17.6934   -3.2527   12.6384 C   0  0  0  0  0  0  0  0  0  0  0  0
   18.8251   -3.0889   11.8352 C   0  0  0  0  0  0  0  0  0  0  0  0
   18.8869   -3.7571   10.6108 C   0  0  0  0  0  0  0  0  0  0  0  0
   17.8108   -4.5739   10.2167 C   0  0  0  0  0  0  0  0  0  0  0  0
   16.6808   -4.7320   11.0254 C   0  0  0  0  0  0  0  0  0  0  0  0
   16.6241   -4.0696   12.2535 C   0  0  0  0  0  0  0  0  0  0  0  0
   17.4536   -6.3143   14.2520 N   0  0  0  0  0  0  0  0  0  0  0  0
   18.1361   -5.6048   14.2447 H   0  0  0  0  0  0  0  0  0  0  0  0
   17.7911   -7.6598   13.7466 C   0  0  0  0  0  0  0  0  0  0  0  0
   16.9177   -8.0056   12.5312 C   0  0  0  0  0  0  0  0  0  0  0  0
   16.0590   -9.1099   12.8451 O   0  0  0  0  0  0  0  0  0  0  0  0
   16.5977   -9.8822   13.0784 H   0  0  0  0  0  0  0  0  0  0  0  0
  1  3  2  0  0  0
  1  8  1  0  0  0
  2 10  1  0  0  0
  2  5  1  0  0  0
  2  9  2  0  0  0
 10 11  2  0  0  0
 10 15  1  0  0  0
 11 12  1  0  0  0
 12 13  2  0  0  0
 13 14  1  0  0  0
 14 15  2  0  0  0
 16 17  2  0  0  0
 16 21  1  0  0  0
 17 18  1  0  0  0
 18 19  2  0  0  0
 19 20  1  0  0  0
  3  4  1  0  0  0
  4  5  1  0  0  0
  4  6  2  0  0  0
  6  7  1  0  0  0
  6  9  1  0  0  0
 22  7  1  0  0  0
 22 24  1  0  0  0
  7  8  2  0  0  0
 20 21  2  0  0  0
  9 21  1  0  0  0
 25 24  1  0  0  0
 25 26  1  0  0  0
 22 23  1  0  0  0
 26 27  1  0  0  0
M  END
> <minimizedAffinity>
-7.89525

$$$$
2BRB_PFQ_A_1277


 27 30  0  0  0  0  0  0  0  0999 V2000
   11.1783   -1.3794   13.1700 C   0  0  0  0  0  0  0  0  0  0  0  0
   13.7955   -4.9599   13.7936 C   0  0  0  0  0  0  0  0  0  0  0  0
   11.2189   -2.5559   13.7744 N   0  0  0  0  0  0  0  0  0  0  0  0
   12.3010   -3.3407   13.6659 C   0  0  0  0  0  0  0  0  0  0  0  0
   12.5556   -4.5699   14.1866 O   0  0  0  0  0  0  0  0  0  0  0  0
   13.4016   -2.9331   12.9134 C   0  0  0  0  0  0  0  0  0  0  0  0
   13.3197   -1.6827   12.2907 C   0  0  0  0  0  0  0  0  0  0  0  0
   12.1998   -0.9540   12.4497 N   0  0  0  0  0  0  0  0  0  0  0  0
   14.3525   -3.9581   12.9892 C   0  0  0  0  0  0  0  0  0  0  0  0
   14.2683   -6.1957   14.2257 C   0  0  0  0  0  0  0  0  0  0  0  0
   14.3517   -7.3302   13.4209 C   0  0  0  0  0  0  0  0  0  0  0  0
   14.8527   -8.5119   13.9711 C   0  0  0  0  0  0  0  0  0  0  0  0
   15.2721   -8.5541   15.3015 C   0  0  0  0  0  0  0  0  0  0  0  0
   15.1848   -7.4194   16.1096 C   0  0  0  0  0  0  0  0  0  0  0  0
   14.7019   -6.2486   15.5484 C   0  0  0  0  0  0  0  0  0  0  0  0
   15.7257   -4.3396   11.0281 C   0  0  0  0  0  0  0  0  0  0  0  0
   16.9527   -4.3377   10.3593 C   0  0  0  0  0  0  0  0  0  0  0  0
   18.0903   -3.8938   11.0363 C   0  0  0  0  0  0  0  0  0  0  0  0
   17.9735   -3.4634   12.3710 C   0  0  0  0  0  0  0  0  0  0  0  0
   16.7423   -3.4695   13.0343 C   0  0  0  0  0  0  0  0  0  0  0  0
   15.6039   -3.9059   12.3532 C   0  0  0  0  0  0  0  0  0  0  0  0
   14.3098   -1.1886   11.5394 N   0  0  0  0  0  0  0  0  0  0  0  0
   15.1344   -0.8658   11.9696 H   0  0  0  0  0  0  0  0  0  0  0  0
   14.1767   -1.1231   10.0705 C   0  0  0  0  0  0  0  0  0  0  0  0
   15.5227   -0.7501    9.4310 C   0  0  0  0  0  0  0  0  0  0  0  0
   15.5134    0.6299    9.0428 O   0  0  0  0  0  0  0  0  0  0  0  0
   14.8039    0.7798    8.3985 H   0  0  0  0  0  0  0  0  0  0  0  0
  1  3  2  0  0  0
  1  8  1  0  0  0
  2 10  1  0  0  0
  2  5  1  0  0  0
  2  9  2  0  0  0
 10 11  2  0  0  0
 10 15  1  0  0  0
 11 12  1  0  0  0
 12 13  2  0  0  0
 13 14  1  0  0  0
 14 15  2  0  0  0
 16 17  2  0  0  0
 16 21  1  0  0  0
 17 18  1  0  0  0
 18 19  2  0  0  0
 19 20  1  0  0  0
  3  4  1  0  0  0
  4  5  1  0  0  0
  4  6  2  0  0  0
  6  7  1  0  0  0
  6  9  1  0  0  0
 22  7  1  0  0  0
 22 24  1  0  0  0
  7  8  2  0  0  0
 20 21  2  0  0  0
  9 21  1  0  0  0
 25 24  1  0  0  0
 25 26  1  0  0  0
 22 23  1  0  0  0
 26 27  1  0  0  0
M  END
> <minimizedAffinity>
-7.83078

$$$$
2BRB_PFQ_A_1277


 27 30  0  0  0  0  0  0  0  0999 V2000
   11.4835   -2.2928   13.2109 C   0  0  0  0  0  0  0  0  0  0  0  0
   15.4264   -2.3177   11.0869 C   0  0  0  0  0  0  0  0  0  0  0  0
   12.2070   -1.6139   12.3353 N   0  0  0  0  0  0  0  0  0  0  0  0
   13.4252   -2.0456   11.9775 C   0  0  0  0  0  0  0  0  0  0  0  0
   14.3318   -1.5146   11.1155 O   0  0  0  0  0  0  0  0  0  0  0  0
   13.9528   -3.2155   12.5223 C   0  0  0  0  0  0  0  0  0  0  0  0
   13.1565   -3.9045   13.4439 C   0  0  0  0  0  0  0  0  0  0  0  0
   11.9442   -3.4070   13.7491 N   0  0  0  0  0  0  0  0  0  0  0  0
   15.2239   -3.3920   11.9622 C   0  0  0  0  0  0  0  0  0  0  0  0
   16.4843   -1.9650   10.2540 C   0  0  0  0  0  0  0  0  0  0  0  0
   17.7556   -2.5323   10.3153 C   0  0  0  0  0  0  0  0  0  0  0  0
   18.7321   -2.0974    9.4168 C   0  0  0  0  0  0  0  0  0  0  0  0
   18.4378   -1.1185    8.4667 C   0  0  0  0  0  0  0  0  0  0  0  0
   17.1659   -0.5466    8.4074 C   0  0  0  0  0  0  0  0  0  0  0  0
   16.2006   -0.9977    9.2927 C   0  0  0  0  0  0  0  0  0  0  0  0
   16.2104   -5.5218   11.3559 C   0  0  0  0  0  0  0  0  0  0  0  0
   17.0110   -6.6346   11.6269 C   0  0  0  0  0  0  0  0  0  0  0  0
   17.6824   -6.7022   12.8492 C   0  0  0  0  0  0  0  0  0  0  0  0
   17.5345   -5.6529   13.7753 C   0  0  0  0  0  0  0  0  0  0  0  0
   16.7303   -4.5430   13.4976 C   0  0  0  0  0  0  0  0  0  0  0  0
   16.0661   -4.4729   12.2712 C   0  0  0  0  0  0  0  0  0  0  0  0
   13.5581   -5.0345   14.0361 N   0  0  0  0  0  0  0  0  0  0  0  0
   14.1564   -4.9904   14.8166 H   0  0  0  0  0  0  0  0  0  0  0  0
   13.1117   -6.3474   13.5293 C   0  0  0  0  0  0  0  0  0  0  0  0
   14.1674   -7.4212   13.8328 C   0  0  0  0  0  0  0  0  0  0  0  0
   14.3205   -7.5688   15.2506 O   0  0  0  0  0  0  0  0  0  0  0  0
   14.6069   -6.7252   15.6344 H   0  0  0  0  0  0  0  0  0  0  0  0
  1  3  2  0  0  0
  1  8  1  0  0  0
  2 10  1  0  0  0
  2  5  1  0  0  0
  2  9  2  0  0  0
 10 11  2  0  0  0
 10 15  1  0  0  0
 11 12  1  0  0  0
 12 13  2  0  0  0
 13 14  1  0  0  0
 14 15  2  0  0  0
 16 17  2  0  0  0
 16 21  1  0  0  0
 17 18  1  0  0  0
 18 19  2  0  0  0
 19 20  1  0  0  0
  3  4  1  0  0  0
  4  5  1  0  0  0
  4  6  2  0  0  0
  6  7  1  0  0  0
  6  9  1  0  0  0
 22  7  1  0  0  0
 22 24  1  0  0  0
  7  8  2  0  0  0
 20 21  2  0  0  0
  9 21  1  0  0  0
 25 24  1  0  0  0
 25 26  1  0  0  0
 22 23  1  0  0  0
 26 27  1  0  0  0
M  END
> <minimizedAffinity>
-7.76302

$$$$
2BRB_PFQ_A_1277


 27 30  0  0  0  0  0  0  0  0999 V2000
   12.5108   -1.9403   10.6855 C   0  0  0  0  0  0  0  0  0  0  0  0
   14.5359   -5.0275   13.2204 C   0  0  0  0  0  0  0  0  0  0  0  0
   12.2802   -2.8334   11.6343 N   0  0  0  0  0  0  0  0  0  0  0  0
   13.2793   -3.5843   12.1204 C   0  0  0  0  0  0  0  0  0  0  0  0
   13.2725   -4.5514   13.0753 O   0  0  0  0  0  0  0  0  0  0  0  0
   14.5780   -3.4400   11.6344 C   0  0  0  0  0  0  0  0  0  0  0  0
   14.7804   -2.4848   10.6320 C   0  0  0  0  0  0  0  0  0  0  0  0
   13.7262   -1.7697   10.1988 N   0  0  0  0  0  0  0  0  0  0  0  0
   15.3795   -4.3552   12.3275 C   0  0  0  0  0  0  0  0  0  0  0  0
   14.7622   -6.0269   14.1625 C   0  0  0  0  0  0  0  0  0  0  0  0
   15.0647   -5.7901   15.5020 C   0  0  0  0  0  0  0  0  0  0  0  0
   15.2625   -6.8806   16.3516 C   0  0  0  0  0  0  0  0  0  0  0  0
   15.1496   -8.1857   15.8703 C   0  0  0  0  0  0  0  0  0  0  0  0
   14.8510   -8.4237   14.5278 C   0  0  0  0  0  0  0  0  0  0  0  0
   14.6404   -7.3345   13.6982 C   0  0  0  0  0  0  0  0  0  0  0  0
   17.2489   -5.6770   11.5305 C   0  0  0  0  0  0  0  0  0  0  0  0
   18.6147   -5.8851   11.3204 C   0  0  0  0  0  0  0  0  0  0  0  0
   19.5164   -4.8907   11.7046 C   0  0  0  0  0  0  0  0  0  0  0  0
   19.0292   -3.7092   12.2937 C   0  0  0  0  0  0  0  0  0  0  0  0
   17.6609   -3.5086   12.5021 C   0  0  0  0  0  0  0  0  0  0  0  0
   16.7596   -4.5006   12.1097 C   0  0  0  0  0  0  0  0  0  0  0  0
   15.9804   -2.2612   10.0852 N   0  0  0  0  0  0  0  0  0  0  0  0
   16.7844   -2.6547   10.4949 H   0  0  0  0  0  0  0  0  0  0  0  0
   16.1095   -1.4292    8.8724 C   0  0  0  0  0  0  0  0  0  0  0  0
   16.5511   -0.0067    9.2483 C   0  0  0  0  0  0  0  0  0  0  0  0
   15.4198    0.8740    9.2405 O   0  0  0  0  0  0  0  0  0  0  0  0
   15.0269    0.8879    8.3538 H   0  0  0  0  0  0  0  0  0  0  0  0
  1  3  2  0  0  0
  1  8  1  0  0  0
  2 10  1  0  0  0
  2  5  1  0  0  0
  2  9  2  0  0  0
 10 11  2  0  0  0
 10 15  1  0  0  0
 11 12  1  0  0  0
 12 13  2  0  0  0
 13 14  1  0  0  0
 14 15  2  0  0  0
 16 17  2  0  0  0
 16 21  1  0  0  0
 17 18  1  0  0  0
 18 19  2  0  0  0
 19 20  1  0  0  0
  3  4  1  0  0  0
  4  5  1  0  0  0
  4  6  2  0  0  0
  6  7  1  0  0  0
  6  9  1  0  0  0
 22  7  1  0  0  0
 22 24  1  0  0  0
  7  8  2  0  0  0
 20 21  2  0  0  0
  9 21  1  0  0  0
 25 24  1  0  0  0
 25 26  1  0  0  0
 22 23  1  0  0  0
 26 27  1  0  0  0
M  END
> <minimizedAffinity>
-7.24627

$$$$
2BRB_PFQ_A_1277


 27 30  0  0  0  0  0  0  0  0999 V2000
   15.8361   -0.0909    8.6994 C   0  0  0  0  0  0  0  0  0  0  0  0
   18.4563   -2.9940   10.8822 C   0  0  0  0  0  0  0  0  0  0  0  0
   17.0827   -0.5291    8.7714 N   0  0  0  0  0  0  0  0  0  0  0  0
   17.4186   -1.4868    9.6480 C   0  0  0  0  0  0  0  0  0  0  0  0
   18.6186   -2.0747    9.8961 O   0  0  0  0  0  0  0  0  0  0  0  0
   16.4624   -2.0366   10.5007 C   0  0  0  0  0  0  0  0  0  0  0  0
   15.1561   -1.5467   10.3932 C   0  0  0  0  0  0  0  0  0  0  0  0
   14.8991   -0.5861    9.4868 N   0  0  0  0  0  0  0  0  0  0  0  0
   17.1160   -2.9925   11.2880 C   0  0  0  0  0  0  0  0  0  0  0  0
   19.5657   -3.7286   11.2910 C   0  0  0  0  0  0  0  0  0  0  0  0
   19.5250   -5.0697   11.6672 C   0  0  0  0  0  0  0  0  0  0  0  0
   20.7113   -5.6987   12.0510 C   0  0  0  0  0  0  0  0  0  0  0  0
   21.9191   -4.9995   12.0485 C   0  0  0  0  0  0  0  0  0  0  0  0
   21.9600   -3.6549   11.6760 C   0  0  0  0  0  0  0  0  0  0  0  0
   20.7799   -3.0461   11.2814 C   0  0  0  0  0  0  0  0  0  0  0  0
   16.4868   -3.3373   13.6036 C   0  0  0  0  0  0  0  0  0  0  0  0
   15.8881   -4.0812   14.6238 C   0  0  0  0  0  0  0  0  0  0  0  0
   15.2607   -5.2863   14.3020 C   0  0  0  0  0  0  0  0  0  0  0  0
   15.2492   -5.7211   12.9636 C   0  0  0  0  0  0  0  0  0  0  0  0
   15.8518   -4.9718   11.9481 C   0  0  0  0  0  0  0  0  0  0  0  0
   16.4717   -3.7625   12.2703 C   0  0  0  0  0  0  0  0  0  0  0  0
   14.1564   -1.9933   11.1612 N   0  0  0  0  0  0  0  0  0  0  0  0
   14.2226   -1.9187   12.1407 H   0  0  0  0  0  0  0  0  0  0  0  0
   12.9544   -2.5973   10.5529 C   0  0  0  0  0  0  0  0  0  0  0  0
   12.1988   -3.4395   11.5920 C   0  0  0  0  0  0  0  0  0  0  0  0
   12.7349   -3.1982   12.8995 O   0  0  0  0  0  0  0  0  0  0  0  0
   13.6733   -3.4434   12.9145 H   0  0  0  0  0  0  0  0  0  0  0  0
  1  3  2  0  0  0
  1  8  1  0  0  0
  2 10  1  0  0  0
  2  5  1  0  0  0
  2  9  2  0  0  0
 10 11  2  0  0  0
 10 15  1  0  0  0
 11 12  1  0  0  0
 12 13  2  0  0  0
 13 14  1  0  0  0
 14 15  2  0  0  0
 16 17  2  0  0  0
 16 21  1  0  0  0
 17 18  1  0  0  0
 18 19  2  0  0  0
 19 20  1  0  0  0
  3  4  1  0  0  0
  4  5  1  0  0  0
  4  6  2  0  0  0
  6  7  1  0  0  0
  6  9  1  0  0  0
 22  7  1  0  0  0
 22 24  1  0  0  0
  7  8  2  0  0  0
 20 21  2  0  0  0
  9 21  1  0  0  0
 25 24  1  0  0  0
 25 26  1  0  0  0
 22 23  1  0  0  0
 26 27  1  0  0  0
M  END
> <minimizedAffinity>
-7.17567

$$$$
