5I3X_68J_A_401


 48 52  0  0  0  0  0  0  0  0999 V2000
   14.2848  -41.9176    9.1055 C   0  0  0  0  0  0  0  0  0  0  0  0
   14.3748  -40.8948    8.1502 C   0  0  0  0  0  0  0  0  0  0  0  0
   15.1481  -39.8175    8.3948 N   0  0  0  0  0  0  0  0  0  0  0  0
   13.6819  -40.9744    6.9817 N   0  0  0  0  0  0  0  0  0  0  0  0
   15.0205  -41.8223   10.3007 C   0  0  0  0  0  0  0  0  0  0  0  0
   15.8279  -40.7021   10.5191 C   0  0  0  0  0  0  0  0  0  0  0  0
   16.6005  -40.5661   11.6834 C   0  0  0  0  0  0  0  0  0  0  0  0
   15.8681  -39.7103    9.5366 C   0  0  0  0  0  0  0  0  0  0  0  0
   16.6683  -38.5754    9.7485 C   0  0  0  0  0  0  0  0  0  0  0  0
   17.4277  -38.4502   10.9136 C   0  0  0  0  0  0  0  0  0  0  0  0
   17.3956  -39.4353   11.9022 C   0  0  0  0  0  0  0  0  0  0  0  0
   13.7519  -40.2510    6.3176 H   0  0  0  0  0  0  0  0  0  0  0  0
   13.1105  -41.7554    6.8004 H   0  0  0  0  0  0  0  0  0  0  0  0
   18.2262  -39.3528   13.0395 C   0  0  0  0  0  0  0  0  0  0  0  0
   17.9036  -38.6677   14.2031 C   0  0  0  0  0  0  0  0  0  0  0  0
   18.8234  -38.6421   15.2600 C   0  0  0  0  0  0  0  0  0  0  0  0
   20.0622  -39.2736   15.1629 C   0  0  0  0  0  0  0  0  0  0  0  0
   20.4080  -39.9661   14.0094 C   0  0  0  0  0  0  0  0  0  0  0  0
   19.4983  -39.9965   12.9526 C   0  0  0  0  0  0  0  0  0  0  0  0
   19.7983  -40.6538   11.7137 C   0  0  0  0  0  0  0  0  0  0  0  0
   20.0271  -41.1791   10.6559 C   0  0  0  0  0  0  0  0  0  0  0  0
   20.3208  -41.8017    9.3573 C   0  0  0  0  0  0  0  0  0  0  0  0
   20.5446  -40.6549    8.2947 C   0  0  0  0  0  0  0  0  0  0  0  0
   21.7009  -39.6562    8.5180 C   0  0  0  0  0  0  0  0  0  0  0  0
   20.2566  -39.1874    8.6397 C   0  0  0  0  0  0  0  0  0  0  0  0
   20.2513  -40.9820    6.8908 N   0  0  0  0  0  0  0  0  0  0  0  0
   21.0630  -41.7626    6.1948 C   0  0  0  0  0  0  0  0  0  0  0  0
   22.0462  -42.3075    6.6897 O   0  0  0  0  0  0  0  0  0  0  0  0
   19.4427  -40.6166    6.4643 H   0  0  0  0  0  0  0  0  0  0  0  0
   20.6244  -42.0063    4.7460 C   0  0  0  0  0  0  0  0  0  0  0  0
   20.6390  -43.2874    4.2246 C   0  0  0  0  0  0  0  0  0  0  0  0
   20.2277  -43.5189    2.9187 C   0  0  0  0  0  0  0  0  0  0  0  0
   19.7911  -42.4664    2.1088 C   0  0  0  0  0  0  0  0  0  0  0  0
   19.4016  -42.7143    0.8249 F   0  0  0  0  0  0  0  0  0  0  0  0
   19.7925  -41.1672    2.6205 C   0  0  0  0  0  0  0  0  0  0  0  0
   20.2045  -40.9418    3.9385 C   0  0  0  0  0  0  0  0  0  0  0  0
   13.3684  -43.1300    8.9032 C   0  0  0  0  0  0  0  0  0  0  0  0
   11.9178  -42.6663    9.2380 C   0  0  0  0  0  0  0  0  0  0  0  0
   11.4971  -40.7570   10.7172 N   0  0  0  0  0  0  0  0  0  0  0  0
   11.7497  -42.0599   10.6533 C   0  0  0  0  0  0  0  0  0  0  0  0
   11.8708  -42.7518   11.6577 O   0  0  0  0  0  0  0  0  0  0  0  0
   11.3889  -40.2529    9.8784 H   0  0  0  0  0  0  0  0  0  0  0  0
   11.3733  -40.0402   11.9966 C   0  0  0  0  0  0  0  0  0  0  0  0
   12.1225  -38.7040   11.8487 C   0  0  0  0  0  0  0  0  0  0  0  0
   12.4075  -37.5834   14.0498 C   0  0  0  0  0  0  0  0  0  0  0  0
   13.1222  -38.3540   12.9633 C   0  0  0  0  0  0  0  0  0  0  0  0
   14.2492  -37.4694   12.4259 C   0  0  0  0  0  0  0  0  0  0  0  0
   13.6696  -39.6321   13.5618 C   0  0  0  0  0  0  0  0  0  0  0  0
 34 33  1  0  0  0
 33 35  2  0  0  0
 33 32  1  0  0  0
 35 36  1  0  0  0
 32 31  2  0  0  0
 36 30  2  0  0  0
 31 30  1  0  0  0
 30 27  1  0  0  0
 27 28  2  0  0  0
 27 26  1  0  0  0
  4  2  1  0  0  0
 26 23  1  0  0  0
  2  3  2  0  0  0
  2  1  1  0  0  0
 23 24  1  0  0  0
 23 25  1  0  0  0
 23 22  1  0  0  0
 37 38  1  0  0  0
 37  1  1  0  0  0
  3  8  1  0  0  0
 24 25  1  0  0  0
 38 40  1  0  0  0
  1  5  2  0  0  0
 22 21  1  0  0  0
  8  9  2  0  0  0
  8  6  1  0  0  0
  9 10  1  0  0  0
  5  6  1  0  0  0
 40 39  1  0  0  0
 40 41  2  0  0  0
 39 43  1  0  0  0
  6  7  2  0  0  0
 21 20  3  0  0  0
 10 11  2  0  0  0
 43 44  1  0  0  0
  7 11  1  0  0  0
 20 19  1  0  0  0
 44 46  1  0  0  0
 11 14  1  0  0  0
 19 14  2  0  0  0
 19 18  1  0  0  0
 14 15  1  0  0  0
 48 46  1  0  0  0
 46 45  1  0  0  0
 46 47  1  0  0  0
 18 17  2  0  0  0
 15 16  2  0  0  0
 17 16  1  0  0  0
 39 42  1  0  0  0
  4 12  1  0  0  0
  4 13  1  0  0  0
 26 29  1  0  0  0
M  END
> <minimizedAffinity>
-11.29823

$$$$
5I3X_68J_A_401


 48 52  0  0  0  0  0  0  0  0999 V2000
   14.5133  -41.9698    9.0509 C   0  0  0  0  0  0  0  0  0  0  0  0
   15.2728  -41.8387    7.8792 C   0  0  0  0  0  0  0  0  0  0  0  0
   16.5211  -41.3327    7.9446 N   0  0  0  0  0  0  0  0  0  0  0  0
   14.7591  -42.2089    6.6747 N   0  0  0  0  0  0  0  0  0  0  0  0
   15.0687  -41.5944   10.2877 C   0  0  0  0  0  0  0  0  0  0  0  0
   16.3718  -41.0897   10.3271 C   0  0  0  0  0  0  0  0  0  0  0  0
   16.9831  -40.7210   11.5359 C   0  0  0  0  0  0  0  0  0  0  0  0
   17.0750  -40.9713    9.1262 C   0  0  0  0  0  0  0  0  0  0  0  0
   18.3818  -40.4565    9.1515 C   0  0  0  0  0  0  0  0  0  0  0  0
   18.9761  -40.0886   10.3603 C   0  0  0  0  0  0  0  0  0  0  0  0
   18.2829  -40.2030   11.5666 C   0  0  0  0  0  0  0  0  0  0  0  0
   15.3006  -42.1129    5.8581 H   0  0  0  0  0  0  0  0  0  0  0  0
   13.8460  -42.5729    6.6199 H   0  0  0  0  0  0  0  0  0  0  0  0
   18.9097  -39.9134   12.7968 C   0  0  0  0  0  0  0  0  0  0  0  0
   19.8748  -40.7110   13.3967 C   0  0  0  0  0  0  0  0  0  0  0  0
   20.4098  -40.3255   14.6332 C   0  0  0  0  0  0  0  0  0  0  0  0
   19.9822  -39.1690   15.2832 C   0  0  0  0  0  0  0  0  0  0  0  0
   19.0182  -38.3541   14.7031 C   0  0  0  0  0  0  0  0  0  0  0  0
   18.4804  -38.7305   13.4725 C   0  0  0  0  0  0  0  0  0  0  0  0
   17.4516  -37.9654   12.8297 C   0  0  0  0  0  0  0  0  0  0  0  0
   16.6145  -37.3137   12.2625 C   0  0  0  0  0  0  0  0  0  0  0  0
   15.5905  -36.5347   11.5520 C   0  0  0  0  0  0  0  0  0  0  0  0
   14.3401  -36.3717   12.5032 C   0  0  0  0  0  0  0  0  0  0  0  0
   13.2817  -35.3025   12.1554 C   0  0  0  0  0  0  0  0  0  0  0  0
   14.1691  -35.1243   13.3807 C   0  0  0  0  0  0  0  0  0  0  0  0
   13.8225  -37.5941   13.1371 N   0  0  0  0  0  0  0  0  0  0  0  0
   13.3861  -38.6044   12.4013 C   0  0  0  0  0  0  0  0  0  0  0  0
   13.4553  -38.6111   11.1751 O   0  0  0  0  0  0  0  0  0  0  0  0
   13.8003  -37.6615   14.1191 H   0  0  0  0  0  0  0  0  0  0  0  0
   12.8740  -39.8040   13.2071 C   0  0  0  0  0  0  0  0  0  0  0  0
   12.2844  -40.8734   12.5575 C   0  0  0  0  0  0  0  0  0  0  0  0
   11.8329  -41.9709   13.2783 C   0  0  0  0  0  0  0  0  0  0  0  0
   11.9660  -42.0173   14.6692 C   0  0  0  0  0  0  0  0  0  0  0  0
   11.5056  -43.1005   15.3593 F   0  0  0  0  0  0  0  0  0  0  0  0
   12.5415  -40.9333   15.3350 C   0  0  0  0  0  0  0  0  0  0  0  0
   12.9978  -39.8324   14.6019 C   0  0  0  0  0  0  0  0  0  0  0  0
   13.0668  -42.4770    9.0203 C   0  0  0  0  0  0  0  0  0  0  0  0
   13.0888  -43.9496    9.5323 C   0  0  0  0  0  0  0  0  0  0  0  0
   14.6022  -45.7966    8.9766 N   0  0  0  0  0  0  0  0  0  0  0  0
   13.6662  -44.9709    8.5209 C   0  0  0  0  0  0  0  0  0  0  0  0
   13.2892  -44.9904    7.3548 O   0  0  0  0  0  0  0  0  0  0  0  0
   14.8525  -45.7517    9.9277 H   0  0  0  0  0  0  0  0  0  0  0  0
   15.2782  -46.7759    8.1106 C   0  0  0  0  0  0  0  0  0  0  0  0
   16.6838  -47.0098    8.6921 C   0  0  0  0  0  0  0  0  0  0  0  0
   19.1445  -46.6788    8.5612 C   0  0  0  0  0  0  0  0  0  0  0  0
   17.8060  -46.1086    8.1509 C   0  0  0  0  0  0  0  0  0  0  0  0
   17.6999  -44.6976    8.7332 C   0  0  0  0  0  0  0  0  0  0  0  0
   17.7387  -46.0817    6.6389 C   0  0  0  0  0  0  0  0  0  0  0  0
 34 33  1  0  0  0
 33 35  2  0  0  0
 33 32  1  0  0  0
 35 36  1  0  0  0
 32 31  2  0  0  0
 36 30  2  0  0  0
 31 30  1  0  0  0
 30 27  1  0  0  0
 27 28  2  0  0  0
 27 26  1  0  0  0
  4  2  1  0  0  0
 26 23  1  0  0  0
  2  3  2  0  0  0
  2  1  1  0  0  0
 23 24  1  0  0  0
 23 25  1  0  0  0
 23 22  1  0  0  0
 37 38  1  0  0  0
 37  1  1  0  0  0
  3  8  1  0  0  0
 24 25  1  0  0  0
 38 40  1  0  0  0
  1  5  2  0  0  0
 22 21  1  0  0  0
  8  9  2  0  0  0
  8  6  1  0  0  0
  9 10  1  0  0  0
  5  6  1  0  0  0
 40 39  1  0  0  0
 40 41  2  0  0  0
 39 43  1  0  0  0
  6  7  2  0  0  0
 21 20  3  0  0  0
 10 11  2  0  0  0
 43 44  1  0  0  0
  7 11  1  0  0  0
 20 19  1  0  0  0
 44 46  1  0  0  0
 11 14  1  0  0  0
 19 14  2  0  0  0
 19 18  1  0  0  0
 14 15  1  0  0  0
 48 46  1  0  0  0
 46 45  1  0  0  0
 46 47  1  0  0  0
 18 17  2  0  0  0
 15 16  2  0  0  0
 17 16  1  0  0  0
 39 42  1  0  0  0
  4 12  1  0  0  0
  4 13  1  0  0  0
 26 29  1  0  0  0
M  END
> <minimizedAffinity>
-10.52369

$$$$
5I3X_68J_A_401


 48 52  0  0  0  0  0  0  0  0999 V2000
   14.5121  -42.1041    9.2106 C   0  0  0  0  0  0  0  0  0  0  0  0
   15.2754  -42.0721    8.0345 C   0  0  0  0  0  0  0  0  0  0  0  0
   16.5368  -41.5967    8.0688 N   0  0  0  0  0  0  0  0  0  0  0  0
   14.7523  -42.5079    6.8563 N   0  0  0  0  0  0  0  0  0  0  0  0
   15.0769  -41.6621   10.4208 C   0  0  0  0  0  0  0  0  0  0  0  0
   16.3932  -41.1911   10.4293 C   0  0  0  0  0  0  0  0  0  0  0  0
   17.0138  -40.7592   11.6122 C   0  0  0  0  0  0  0  0  0  0  0  0
   17.0998  -41.1722    9.2248 C   0  0  0  0  0  0  0  0  0  0  0  0
   18.4200  -40.6923    9.2186 C   0  0  0  0  0  0  0  0  0  0  0  0
   19.0236  -40.2606   10.4014 C   0  0  0  0  0  0  0  0  0  0  0  0
   18.3271  -40.2755   11.6111 C   0  0  0  0  0  0  0  0  0  0  0  0
   15.2965  -42.4812    6.0363 H   0  0  0  0  0  0  0  0  0  0  0  0
   13.8297  -42.8500    6.8238 H   0  0  0  0  0  0  0  0  0  0  0  0
   18.9610  -39.9214   12.8207 C   0  0  0  0  0  0  0  0  0  0  0  0
   19.9464  -40.6749   13.4442 C   0  0  0  0  0  0  0  0  0  0  0  0
   20.4868  -40.2263   14.6568 C   0  0  0  0  0  0  0  0  0  0  0  0
   20.0449  -39.0502   15.2605 C   0  0  0  0  0  0  0  0  0  0  0  0
   19.0606  -38.2785   14.6559 C   0  0  0  0  0  0  0  0  0  0  0  0
   18.5172  -38.7178   13.4488 C   0  0  0  0  0  0  0  0  0  0  0  0
   17.4683  -37.9998   12.7846 C   0  0  0  0  0  0  0  0  0  0  0  0
   16.6149  -37.3845   12.2012 C   0  0  0  0  0  0  0  0  0  0  0  0
   15.5731  -36.6493   11.4703 C   0  0  0  0  0  0  0  0  0  0  0  0
   14.3396  -36.4431   12.4349 C   0  0  0  0  0  0  0  0  0  0  0  0
   13.2720  -35.3941   12.0552 C   0  0  0  0  0  0  0  0  0  0  0  0
   14.1807  -35.1550   13.2542 C   0  0  0  0  0  0  0  0  0  0  0  0
   13.8370  -37.6344   13.1364 N   0  0  0  0  0  0  0  0  0  0  0  0
   13.3520  -38.6633   12.4591 C   0  0  0  0  0  0  0  0  0  0  0  0
   13.3615  -38.7142   11.2320 O   0  0  0  0  0  0  0  0  0  0  0  0
   13.8615  -37.6670   14.1201 H   0  0  0  0  0  0  0  0  0  0  0  0
   12.8636  -39.8261   13.3311 C   0  0  0  0  0  0  0  0  0  0  0  0
   13.0109  -39.7701   14.7052 C   0  0  0  0  0  0  0  0  0  0  0  0
   12.5564  -40.8116   15.5033 C   0  0  0  0  0  0  0  0  0  0  0  0
   11.9421  -41.9320   14.9362 C   0  0  0  0  0  0  0  0  0  0  0  0
   11.5126  -42.9491   15.7378 F   0  0  0  0  0  0  0  0  0  0  0  0
   11.8077  -42.0059   13.5483 C   0  0  0  0  0  0  0  0  0  0  0  0
   12.2645  -40.9510   12.7506 C   0  0  0  0  0  0  0  0  0  0  0  0
   13.0524  -42.5731    9.2107 C   0  0  0  0  0  0  0  0  0  0  0  0
   12.9977  -43.8940   10.0373 C   0  0  0  0  0  0  0  0  0  0  0  0
   11.5566  -45.2099   11.5213 N   0  0  0  0  0  0  0  0  0  0  0  0
   11.6091  -44.2122   10.6453 C   0  0  0  0  0  0  0  0  0  0  0  0
   10.6112  -43.5851   10.3088 O   0  0  0  0  0  0  0  0  0  0  0  0
   12.3923  -45.6661   11.7715 H   0  0  0  0  0  0  0  0  0  0  0  0
   10.2941  -45.6573   12.1311 C   0  0  0  0  0  0  0  0  0  0  0  0
   10.4104  -45.4281   13.6484 C   0  0  0  0  0  0  0  0  0  0  0  0
    9.3169  -45.6306   15.8722 C   0  0  0  0  0  0  0  0  0  0  0  0
    9.0890  -45.2775   14.4202 C   0  0  0  0  0  0  0  0  0  0  0  0
    8.0247  -46.2284   13.8686 C   0  0  0  0  0  0  0  0  0  0  0  0
    8.6276  -43.8378   14.3429 C   0  0  0  0  0  0  0  0  0  0  0  0
 34 33  1  0  0  0
 33 35  2  0  0  0
 33 32  1  0  0  0
 35 36  1  0  0  0
 32 31  2  0  0  0
 36 30  2  0  0  0
 31 30  1  0  0  0
 30 27  1  0  0  0
 27 28  2  0  0  0
 27 26  1  0  0  0
  4  2  1  0  0  0
 26 23  1  0  0  0
  2  3  2  0  0  0
  2  1  1  0  0  0
 23 24  1  0  0  0
 23 25  1  0  0  0
 23 22  1  0  0  0
 37 38  1  0  0  0
 37  1  1  0  0  0
  3  8  1  0  0  0
 24 25  1  0  0  0
 38 40  1  0  0  0
  1  5  2  0  0  0
 22 21  1  0  0  0
  8  9  2  0  0  0
  8  6  1  0  0  0
  9 10  1  0  0  0
  5  6  1  0  0  0
 40 39  1  0  0  0
 40 41  2  0  0  0
 39 43  1  0  0  0
  6  7  2  0  0  0
 21 20  3  0  0  0
 10 11  2  0  0  0
 43 44  1  0  0  0
  7 11  1  0  0  0
 20 19  1  0  0  0
 44 46  1  0  0  0
 11 14  1  0  0  0
 19 14  2  0  0  0
 19 18  1  0  0  0
 14 15  1  0  0  0
 48 46  1  0  0  0
 46 45  1  0  0  0
 46 47  1  0  0  0
 18 17  2  0  0  0
 15 16  2  0  0  0
 17 16  1  0  0  0
 39 42  1  0  0  0
  4 12  1  0  0  0
  4 13  1  0  0  0
 26 29  1  0  0  0
M  END
> <minimizedAffinity>
-10.12729

$$$$
5I3X_68J_A_401


 48 52  0  0  0  0  0  0  0  0999 V2000
   15.0443  -42.3082    8.5453 C   0  0  0  0  0  0  0  0  0  0  0  0
   15.3128  -41.3733    7.5351 C   0  0  0  0  0  0  0  0  0  0  0  0
   16.0738  -40.2940    7.8079 N   0  0  0  0  0  0  0  0  0  0  0  0
   14.8051  -41.5397    6.2835 N   0  0  0  0  0  0  0  0  0  0  0  0
   15.5907  -42.1245    9.8286 C   0  0  0  0  0  0  0  0  0  0  0  0
   16.3908  -41.0055   10.0774 C   0  0  0  0  0  0  0  0  0  0  0  0
   16.9796  -40.7848   11.3326 C   0  0  0  0  0  0  0  0  0  0  0  0
   16.6133  -40.1029    9.0350 C   0  0  0  0  0  0  0  0  0  0  0  0
   17.4077  -38.9695    9.2751 C   0  0  0  0  0  0  0  0  0  0  0  0
   17.9831  -38.7592   10.5299 C   0  0  0  0  0  0  0  0  0  0  0  0
   17.7679  -39.6548   11.5789 C   0  0  0  0  0  0  0  0  0  0  0  0
   14.9996  -40.8776    5.5813 H   0  0  0  0  0  0  0  0  0  0  0  0
   14.2434  -42.3222    6.0801 H   0  0  0  0  0  0  0  0  0  0  0  0
   18.4164  -39.4909   12.8209 C   0  0  0  0  0  0  0  0  0  0  0  0
   19.5518  -40.1859   13.2151 C   0  0  0  0  0  0  0  0  0  0  0  0
   20.0931  -39.9486   14.4857 C   0  0  0  0  0  0  0  0  0  0  0  0
   19.5074  -39.0441   15.3698 C   0  0  0  0  0  0  0  0  0  0  0  0
   18.3714  -38.3360   14.9984 C   0  0  0  0  0  0  0  0  0  0  0  0
   17.8260  -38.5661   13.7355 C   0  0  0  0  0  0  0  0  0  0  0  0
   16.6311  -37.9066   13.2948 C   0  0  0  0  0  0  0  0  0  0  0  0
   15.6511  -37.3251   12.9091 C   0  0  0  0  0  0  0  0  0  0  0  0
   14.4590  -36.6217   12.4148 C   0  0  0  0  0  0  0  0  0  0  0  0
   13.1830  -37.2863   13.0666 C   0  0  0  0  0  0  0  0  0  0  0  0
   12.0874  -36.3673   13.6490 C   0  0  0  0  0  0  0  0  0  0  0  0
   12.9401  -37.2191   14.5805 C   0  0  0  0  0  0  0  0  0  0  0  0
   12.7049  -38.5404   12.4643 N   0  0  0  0  0  0  0  0  0  0  0  0
   12.9962  -39.7087   13.0146 C   0  0  0  0  0  0  0  0  0  0  0  0
   13.6051  -39.8089   14.0765 O   0  0  0  0  0  0  0  0  0  0  0  0
   12.1626  -38.5106   11.6432 H   0  0  0  0  0  0  0  0  0  0  0  0
   12.4308  -40.9226   12.2679 C   0  0  0  0  0  0  0  0  0  0  0  0
   12.2816  -40.8819   10.8934 C   0  0  0  0  0  0  0  0  0  0  0  0
   11.7857  -41.9828   10.2078 C   0  0  0  0  0  0  0  0  0  0  0  0
   11.4303  -43.1500   10.8902 C   0  0  0  0  0  0  0  0  0  0  0  0
   10.9347  -44.2165   10.1985 F   0  0  0  0  0  0  0  0  0  0  0  0
   11.5585  -43.1925   12.2800 C   0  0  0  0  0  0  0  0  0  0  0  0
   12.0625  -42.0808   12.9639 C   0  0  0  0  0  0  0  0  0  0  0  0
   14.1310  -43.5156    8.3031 C   0  0  0  0  0  0  0  0  0  0  0  0
   14.9328  -44.7854    8.7222 C   0  0  0  0  0  0  0  0  0  0  0  0
   17.3563  -44.6222    9.0548 N   0  0  0  0  0  0  0  0  0  0  0  0
   16.3818  -44.8368    8.1773 C   0  0  0  0  0  0  0  0  0  0  0  0
   16.6054  -45.0410    6.9897 O   0  0  0  0  0  0  0  0  0  0  0  0
   17.1211  -44.4841   10.0007 H   0  0  0  0  0  0  0  0  0  0  0  0
   18.7745  -44.5834    8.6633 C   0  0  0  0  0  0  0  0  0  0  0  0
   19.1678  -43.1036    8.5086 C   0  0  0  0  0  0  0  0  0  0  0  0
   20.4535  -41.1098    9.2527 C   0  0  0  0  0  0  0  0  0  0  0  0
   20.3324  -42.6108    9.3835 C   0  0  0  0  0  0  0  0  0  0  0  0
   21.6557  -43.2288    8.9272 C   0  0  0  0  0  0  0  0  0  0  0  0
   20.0444  -42.9450   10.8316 C   0  0  0  0  0  0  0  0  0  0  0  0
 34 33  1  0  0  0
 33 35  2  0  0  0
 33 32  1  0  0  0
 35 36  1  0  0  0
 32 31  2  0  0  0
 36 30  2  0  0  0
 31 30  1  0  0  0
 30 27  1  0  0  0
 27 28  2  0  0  0
 27 26  1  0  0  0
  4  2  1  0  0  0
 26 23  1  0  0  0
  2  3  2  0  0  0
  2  1  1  0  0  0
 23 24  1  0  0  0
 23 25  1  0  0  0
 23 22  1  0  0  0
 37 38  1  0  0  0
 37  1  1  0  0  0
  3  8  1  0  0  0
 24 25  1  0  0  0
 38 40  1  0  0  0
  1  5  2  0  0  0
 22 21  1  0  0  0
  8  9  2  0  0  0
  8  6  1  0  0  0
  9 10  1  0  0  0
  5  6  1  0  0  0
 40 39  1  0  0  0
 40 41  2  0  0  0
 39 43  1  0  0  0
  6  7  2  0  0  0
 21 20  3  0  0  0
 10 11  2  0  0  0
 43 44  1  0  0  0
  7 11  1  0  0  0
 20 19  1  0  0  0
 44 46  1  0  0  0
 11 14  1  0  0  0
 19 14  2  0  0  0
 19 18  1  0  0  0
 14 15  1  0  0  0
 48 46  1  0  0  0
 46 45  1  0  0  0
 46 47  1  0  0  0
 18 17  2  0  0  0
 15 16  2  0  0  0
 17 16  1  0  0  0
 39 42  1  0  0  0
  4 12  1  0  0  0
  4 13  1  0  0  0
 26 29  1  0  0  0
M  END
> <minimizedAffinity>
-10.09173

$$$$
5I3X_68J_A_401


 48 52  0  0  0  0  0  0  0  0999 V2000
   14.1287  -41.4526    9.2176 C   0  0  0  0  0  0  0  0  0  0  0  0
   14.6486  -40.8458    8.0650 C   0  0  0  0  0  0  0  0  0  0  0  0
   15.7761  -40.1106    8.1470 N   0  0  0  0  0  0  0  0  0  0  0  0
   14.0212  -40.9840    6.8654 N   0  0  0  0  0  0  0  0  0  0  0  0
   14.8008  -41.3088   10.4450 C   0  0  0  0  0  0  0  0  0  0  0  0
   15.9775  -40.5556   10.4962 C   0  0  0  0  0  0  0  0  0  0  0  0
   16.7005  -40.3982   11.6893 C   0  0  0  0  0  0  0  0  0  0  0  0
   16.4403  -39.9655    9.3181 C   0  0  0  0  0  0  0  0  0  0  0  0
   17.6164  -39.1983    9.3585 C   0  0  0  0  0  0  0  0  0  0  0  0
   18.3230  -39.0453   10.5531 C   0  0  0  0  0  0  0  0  0  0  0  0
   17.8700  -39.6310   11.7365 C   0  0  0  0  0  0  0  0  0  0  0  0
   14.3944  -40.5540    6.0623 H   0  0  0  0  0  0  0  0  0  0  0  0
   13.1941  -41.5141    6.8006 H   0  0  0  0  0  0  0  0  0  0  0  0
   18.6260  -39.5500   12.9248 C   0  0  0  0  0  0  0  0  0  0  0  0
   18.4353  -38.5978   13.9171 C   0  0  0  0  0  0  0  0  0  0  0  0
   19.2662  -38.6088   15.0454 C   0  0  0  0  0  0  0  0  0  0  0  0
   20.2915  -39.5425   15.1859 C   0  0  0  0  0  0  0  0  0  0  0  0
   20.5019  -40.5058   14.2072 C   0  0  0  0  0  0  0  0  0  0  0  0
   19.6794  -40.5019   13.0808 C   0  0  0  0  0  0  0  0  0  0  0  0
   19.8602  -41.4362   12.0078 C   0  0  0  0  0  0  0  0  0  0  0  0
   19.9803  -42.2046   11.0900 C   0  0  0  0  0  0  0  0  0  0  0  0
   20.1347  -43.1249    9.9545 C   0  0  0  0  0  0  0  0  0  0  0  0
   21.3522  -42.6328    9.0769 C   0  0  0  0  0  0  0  0  0  0  0  0
   22.7839  -42.8422    9.6161 C   0  0  0  0  0  0  0  0  0  0  0  0
   22.2090  -41.4355    9.5105 C   0  0  0  0  0  0  0  0  0  0  0  0
   21.2033  -42.7325    7.6168 N   0  0  0  0  0  0  0  0  0  0  0  0
   20.5239  -41.8181    6.9426 C   0  0  0  0  0  0  0  0  0  0  0  0
   20.0522  -40.8160    7.4735 O   0  0  0  0  0  0  0  0  0  0  0  0
   21.6133  -43.4875    7.1360 H   0  0  0  0  0  0  0  0  0  0  0  0
   20.4542  -42.0633    5.4307 C   0  0  0  0  0  0  0  0  0  0  0  0
   20.5726  -43.3478    4.9316 C   0  0  0  0  0  0  0  0  0  0  0  0
   20.4941  -43.5804    3.5649 C   0  0  0  0  0  0  0  0  0  0  0  0
   20.2931  -42.5254    2.6700 C   0  0  0  0  0  0  0  0  0  0  0  0
   20.2299  -42.7746    1.3301 F   0  0  0  0  0  0  0  0  0  0  0  0
   20.1928  -41.2230    3.1637 C   0  0  0  0  0  0  0  0  0  0  0  0
   20.2690  -40.9965    4.5423 C   0  0  0  0  0  0  0  0  0  0  0  0
   12.8150  -42.2424    9.1889 C   0  0  0  0  0  0  0  0  0  0  0  0
   13.1838  -43.7311    8.9081 C   0  0  0  0  0  0  0  0  0  0  0  0
   12.9271  -45.4717   10.6155 N   0  0  0  0  0  0  0  0  0  0  0  0
   12.3163  -44.7613    9.6733 C   0  0  0  0  0  0  0  0  0  0  0  0
   11.1329  -44.9224    9.3977 O   0  0  0  0  0  0  0  0  0  0  0  0
   13.8742  -45.2867   10.8102 H   0  0  0  0  0  0  0  0  0  0  0  0
   12.2387  -46.5253   11.3784 C   0  0  0  0  0  0  0  0  0  0  0  0
   12.2435  -46.0990   12.8572 C   0  0  0  0  0  0  0  0  0  0  0  0
    9.8035  -45.7727   12.5081 C   0  0  0  0  0  0  0  0  0  0  0  0
   10.9846  -45.3762   13.3641 C   0  0  0  0  0  0  0  0  0  0  0  0
   11.1493  -43.8584   13.2607 C   0  0  0  0  0  0  0  0  0  0  0  0
   10.7071  -45.7992   14.7909 C   0  0  0  0  0  0  0  0  0  0  0  0
 34 33  1  0  0  0
 33 35  2  0  0  0
 33 32  1  0  0  0
 35 36  1  0  0  0
 32 31  2  0  0  0
 36 30  2  0  0  0
 31 30  1  0  0  0
 30 27  1  0  0  0
 27 28  2  0  0  0
 27 26  1  0  0  0
  4  2  1  0  0  0
 26 23  1  0  0  0
  2  3  2  0  0  0
  2  1  1  0  0  0
 23 24  1  0  0  0
 23 25  1  0  0  0
 23 22  1  0  0  0
 37 38  1  0  0  0
 37  1  1  0  0  0
  3  8  1  0  0  0
 24 25  1  0  0  0
 38 40  1  0  0  0
  1  5  2  0  0  0
 22 21  1  0  0  0
  8  9  2  0  0  0
  8  6  1  0  0  0
  9 10  1  0  0  0
  5  6  1  0  0  0
 40 39  1  0  0  0
 40 41  2  0  0  0
 39 43  1  0  0  0
  6  7  2  0  0  0
 21 20  3  0  0  0
 10 11  2  0  0  0
 43 44  1  0  0  0
  7 11  1  0  0  0
 20 19  1  0  0  0
 44 46  1  0  0  0
 11 14  1  0  0  0
 19 14  2  0  0  0
 19 18  1  0  0  0
 14 15  1  0  0  0
 48 46  1  0  0  0
 46 45  1  0  0  0
 46 47  1  0  0  0
 18 17  2  0  0  0
 15 16  2  0  0  0
 17 16  1  0  0  0
 39 42  1  0  0  0
  4 12  1  0  0  0
  4 13  1  0  0  0
 26 29  1  0  0  0
M  END
> <minimizedAffinity>
-9.84415

$$$$
5I3X_68J_A_401


 48 52  0  0  0  0  0  0  0  0999 V2000
   15.0100  -42.2404    8.6083 C   0  0  0  0  0  0  0  0  0  0  0  0
   15.2664  -41.2954    7.6044 C   0  0  0  0  0  0  0  0  0  0  0  0
   16.0718  -40.2455    7.8644 N   0  0  0  0  0  0  0  0  0  0  0  0
   14.7030  -41.4223    6.3722 N   0  0  0  0  0  0  0  0  0  0  0  0
   15.6139  -42.0981    9.8709 C   0  0  0  0  0  0  0  0  0  0  0  0
   16.4586  -41.0092   10.1059 C   0  0  0  0  0  0  0  0  0  0  0  0
   17.1049  -40.8306   11.3393 C   0  0  0  0  0  0  0  0  0  0  0  0
   16.6668  -40.0944    9.0713 C   0  0  0  0  0  0  0  0  0  0  0  0
   17.5059  -38.9909    9.2982 C   0  0  0  0  0  0  0  0  0  0  0  0
   18.1384  -38.8222   10.5316 C   0  0  0  0  0  0  0  0  0  0  0  0
   17.9380  -39.7304   11.5726 C   0  0  0  0  0  0  0  0  0  0  0  0
   14.8895  -40.7534    5.6744 H   0  0  0  0  0  0  0  0  0  0  0  0
   14.1090  -42.1831    6.1786 H   0  0  0  0  0  0  0  0  0  0  0  0
   18.6416  -39.6101   12.7894 C   0  0  0  0  0  0  0  0  0  0  0  0
   19.9355  -40.0673   13.0003 C   0  0  0  0  0  0  0  0  0  0  0  0
   20.5211  -39.9066   14.2632 C   0  0  0  0  0  0  0  0  0  0  0  0
   19.8279  -39.3144   15.3176 C   0  0  0  0  0  0  0  0  0  0  0  0
   18.5326  -38.8483   15.1314 C   0  0  0  0  0  0  0  0  0  0  0  0
   17.9421  -39.0044   13.8775 C   0  0  0  0  0  0  0  0  0  0  0  0
   16.5944  -38.5882   13.6179 C   0  0  0  0  0  0  0  0  0  0  0  0
   15.4730  -38.2033   13.4138 C   0  0  0  0  0  0  0  0  0  0  0  0
   14.1112  -37.7198   13.1456 C   0  0  0  0  0  0  0  0  0  0  0  0
   13.2522  -38.9283   12.6012 C   0  0  0  0  0  0  0  0  0  0  0  0
   13.4441  -39.3693   11.1339 C   0  0  0  0  0  0  0  0  0  0  0  0
   12.1414  -38.7080   11.5654 C   0  0  0  0  0  0  0  0  0  0  0  0
   12.9434  -40.0069   13.5526 N   0  0  0  0  0  0  0  0  0  0  0  0
   12.0490  -39.8267   14.5118 C   0  0  0  0  0  0  0  0  0  0  0  0
   11.3855  -38.7984   14.6163 O   0  0  0  0  0  0  0  0  0  0  0  0
   13.4067  -40.8721   13.4751 H   0  0  0  0  0  0  0  0  0  0  0  0
   11.8416  -41.0408   15.4249 C   0  0  0  0  0  0  0  0  0  0  0  0
   10.5622  -41.4865   15.7039 C   0  0  0  0  0  0  0  0  0  0  0  0
   10.3663  -42.5952   16.5166 C   0  0  0  0  0  0  0  0  0  0  0  0
   11.4538  -43.2811   17.0655 C   0  0  0  0  0  0  0  0  0  0  0  0
   11.2386  -44.3616   17.8703 F   0  0  0  0  0  0  0  0  0  0  0  0
   12.7480  -42.8257   16.8055 C   0  0  0  0  0  0  0  0  0  0  0  0
   12.9381  -41.7102   15.9826 C   0  0  0  0  0  0  0  0  0  0  0  0
   14.0498  -43.4142    8.3829 C   0  0  0  0  0  0  0  0  0  0  0  0
   12.6200  -42.9105    8.7477 C   0  0  0  0  0  0  0  0  0  0  0  0
   12.3763  -45.0510    9.9179 N   0  0  0  0  0  0  0  0  0  0  0  0
   11.7881  -43.9037    9.5967 C   0  0  0  0  0  0  0  0  0  0  0  0
   10.6371  -43.6444    9.9285 O   0  0  0  0  0  0  0  0  0  0  0  0
   13.3101  -45.1987    9.6432 H   0  0  0  0  0  0  0  0  0  0  0  0
   11.6822  -46.1089   10.6695 C   0  0  0  0  0  0  0  0  0  0  0  0
   12.1732  -46.0350   12.1262 C   0  0  0  0  0  0  0  0  0  0  0  0
   11.4355  -46.0649   14.5003 C   0  0  0  0  0  0  0  0  0  0  0  0
   11.1937  -45.4343   13.1480 C   0  0  0  0  0  0  0  0  0  0  0  0
    9.7451  -45.7234   12.7489 C   0  0  0  0  0  0  0  0  0  0  0  0
   11.4421  -43.9453   13.2612 C   0  0  0  0  0  0  0  0  0  0  0  0
 34 33  1  0  0  0
 33 35  2  0  0  0
 33 32  1  0  0  0
 35 36  1  0  0  0
 32 31  2  0  0  0
 36 30  2  0  0  0
 31 30  1  0  0  0
 30 27  1  0  0  0
 27 28  2  0  0  0
 27 26  1  0  0  0
  4  2  1  0  0  0
 26 23  1  0  0  0
  2  3  2  0  0  0
  2  1  1  0  0  0
 23 24  1  0  0  0
 23 25  1  0  0  0
 23 22  1  0  0  0
 37 38  1  0  0  0
 37  1  1  0  0  0
  3  8  1  0  0  0
 24 25  1  0  0  0
 38 40  1  0  0  0
  1  5  2  0  0  0
 22 21  1  0  0  0
  8  9  2  0  0  0
  8  6  1  0  0  0
  9 10  1  0  0  0
  5  6  1  0  0  0
 40 39  1  0  0  0
 40 41  2  0  0  0
 39 43  1  0  0  0
  6  7  2  0  0  0
 21 20  3  0  0  0
 10 11  2  0  0  0
 43 44  1  0  0  0
  7 11  1  0  0  0
 20 19  1  0  0  0
 44 46  1  0  0  0
 11 14  1  0  0  0
 19 14  2  0  0  0
 19 18  1  0  0  0
 14 15  1  0  0  0
 48 46  1  0  0  0
 46 45  1  0  0  0
 46 47  1  0  0  0
 18 17  2  0  0  0
 15 16  2  0  0  0
 17 16  1  0  0  0
 39 42  1  0  0  0
  4 12  1  0  0  0
  4 13  1  0  0  0
 26 29  1  0  0  0
M  END
> <minimizedAffinity>
-9.72741

$$$$
5I3X_68J_A_401


 48 52  0  0  0  0  0  0  0  0999 V2000
   14.4538  -41.9423    8.9908 C   0  0  0  0  0  0  0  0  0  0  0  0
   14.5398  -40.9023    8.0539 C   0  0  0  0  0  0  0  0  0  0  0  0
   15.3040  -39.8237    8.3205 N   0  0  0  0  0  0  0  0  0  0  0  0
   13.8522  -40.9666    6.8813 N   0  0  0  0  0  0  0  0  0  0  0  0
   15.1841  -41.8624   10.1906 C   0  0  0  0  0  0  0  0  0  0  0  0
   15.9821  -40.7401   10.4318 C   0  0  0  0  0  0  0  0  0  0  0  0
   16.7490  -40.6188   11.6014 C   0  0  0  0  0  0  0  0  0  0  0  0
   16.0187  -39.7311    9.4669 C   0  0  0  0  0  0  0  0  0  0  0  0
   16.8094  -38.5940    9.7019 C   0  0  0  0  0  0  0  0  0  0  0  0
   17.5632  -38.4836   10.8721 C   0  0  0  0  0  0  0  0  0  0  0  0
   17.5346  -39.4860   11.8432 C   0  0  0  0  0  0  0  0  0  0  0  0
   13.9194  -40.2311    6.2303 H   0  0  0  0  0  0  0  0  0  0  0  0
   13.2875  -41.7485    6.6841 H   0  0  0  0  0  0  0  0  0  0  0  0
   18.3601  -39.4173   12.9851 C   0  0  0  0  0  0  0  0  0  0  0  0
   18.0788  -38.6637   14.1168 C   0  0  0  0  0  0  0  0  0  0  0  0
   18.9897  -38.6613   15.1816 C   0  0  0  0  0  0  0  0  0  0  0  0
   20.1803  -39.3839   15.1234 C   0  0  0  0  0  0  0  0  0  0  0  0
   20.4840  -40.1461   14.0024 C   0  0  0  0  0  0  0  0  0  0  0  0
   19.5828  -40.1540   12.9379 C   0  0  0  0  0  0  0  0  0  0  0  0
   19.8441  -40.8812   11.7297 C   0  0  0  0  0  0  0  0  0  0  0  0
   20.0892  -41.5134   10.7359 C   0  0  0  0  0  0  0  0  0  0  0  0
   20.3763  -42.3049    9.5312 C   0  0  0  0  0  0  0  0  0  0  0  0
   19.8920  -43.7872    9.7824 C   0  0  0  0  0  0  0  0  0  0  0  0
   19.6790  -44.7113    8.5638 C   0  0  0  0  0  0  0  0  0  0  0  0
   18.4819  -44.2394    9.3792 C   0  0  0  0  0  0  0  0  0  0  0  0
   20.3793  -44.4486   11.0027 N   0  0  0  0  0  0  0  0  0  0  0  0
   21.6562  -44.7730   11.1318 C   0  0  0  0  0  0  0  0  0  0  0  0
   22.5037  -44.4807   10.2922 O   0  0  0  0  0  0  0  0  0  0  0  0
   19.7490  -44.6523   11.7310 H   0  0  0  0  0  0  0  0  0  0  0  0
   22.0076  -45.4598   12.4568 C   0  0  0  0  0  0  0  0  0  0  0  0
   21.0505  -45.5827   13.4478 C   0  0  0  0  0  0  0  0  0  0  0  0
   21.3559  -46.2179   14.6442 C   0  0  0  0  0  0  0  0  0  0  0  0
   22.6310  -46.7449   14.8694 C   0  0  0  0  0  0  0  0  0  0  0  0
   22.9132  -47.3555   16.0564 F   0  0  0  0  0  0  0  0  0  0  0  0
   23.6091  -46.6072   13.8824 C   0  0  0  0  0  0  0  0  0  0  0  0
   23.2933  -45.9694   12.6778 C   0  0  0  0  0  0  0  0  0  0  0  0
   13.5474  -43.1578    8.7637 C   0  0  0  0  0  0  0  0  0  0  0  0
   12.0759  -42.6635    8.9110 C   0  0  0  0  0  0  0  0  0  0  0  0
   12.0243  -40.7271   10.4138 N   0  0  0  0  0  0  0  0  0  0  0  0
   11.7504  -42.0206   10.2822 C   0  0  0  0  0  0  0  0  0  0  0  0
   11.2873  -42.6871   11.2006 O   0  0  0  0  0  0  0  0  0  0  0  0
   12.3758  -40.2350    9.6370 H   0  0  0  0  0  0  0  0  0  0  0  0
   11.8209  -40.0036   11.6791 C   0  0  0  0  0  0  0  0  0  0  0  0
   12.7027  -40.6816   12.7427 C   0  0  0  0  0  0  0  0  0  0  0  0
   12.7711  -40.8514   15.2223 C   0  0  0  0  0  0  0  0  0  0  0  0
   12.9132  -39.9044   14.0527 C   0  0  0  0  0  0  0  0  0  0  0  0
   11.8598  -38.8056   14.2093 C   0  0  0  0  0  0  0  0  0  0  0  0
   14.3120  -39.3261   14.0703 C   0  0  0  0  0  0  0  0  0  0  0  0
 34 33  1  0  0  0
 33 35  2  0  0  0
 33 32  1  0  0  0
 35 36  1  0  0  0
 32 31  2  0  0  0
 36 30  2  0  0  0
 31 30  1  0  0  0
 30 27  1  0  0  0
 27 28  2  0  0  0
 27 26  1  0  0  0
  4  2  1  0  0  0
 26 23  1  0  0  0
  2  3  2  0  0  0
  2  1  1  0  0  0
 23 24  1  0  0  0
 23 25  1  0  0  0
 23 22  1  0  0  0
 37 38  1  0  0  0
 37  1  1  0  0  0
  3  8  1  0  0  0
 24 25  1  0  0  0
 38 40  1  0  0  0
  1  5  2  0  0  0
 22 21  1  0  0  0
  8  9  2  0  0  0
  8  6  1  0  0  0
  9 10  1  0  0  0
  5  6  1  0  0  0
 40 39  1  0  0  0
 40 41  2  0  0  0
 39 43  1  0  0  0
  6  7  2  0  0  0
 21 20  3  0  0  0
 10 11  2  0  0  0
 43 44  1  0  0  0
  7 11  1  0  0  0
 20 19  1  0  0  0
 44 46  1  0  0  0
 11 14  1  0  0  0
 19 14  2  0  0  0
 19 18  1  0  0  0
 14 15  1  0  0  0
 48 46  1  0  0  0
 46 45  1  0  0  0
 46 47  1  0  0  0
 18 17  2  0  0  0
 15 16  2  0  0  0
 17 16  1  0  0  0
 39 42  1  0  0  0
  4 12  1  0  0  0
  4 13  1  0  0  0
 26 29  1  0  0  0
M  END
> <minimizedAffinity>
-9.70274

$$$$
5I3X_68J_A_401


 48 52  0  0  0  0  0  0  0  0999 V2000
   19.3899  -44.6996    8.6204 C   0  0  0  0  0  0  0  0  0  0  0  0
   20.5794  -44.3534    7.9632 C   0  0  0  0  0  0  0  0  0  0  0  0
   21.2807  -43.2769    8.3727 N   0  0  0  0  0  0  0  0  0  0  0  0
   21.0288  -45.0882    6.9096 N   0  0  0  0  0  0  0  0  0  0  0  0
   18.9506  -43.9348    9.7164 C   0  0  0  0  0  0  0  0  0  0  0  0
   19.7078  -42.8347   10.1299 C   0  0  0  0  0  0  0  0  0  0  0  0
   19.3282  -42.0508   11.2309 C   0  0  0  0  0  0  0  0  0  0  0  0
   20.8773  -42.5320    9.4291 C   0  0  0  0  0  0  0  0  0  0  0  0
   21.6417  -41.4233    9.8289 C   0  0  0  0  0  0  0  0  0  0  0  0
   21.2500  -40.6487   10.9226 C   0  0  0  0  0  0  0  0  0  0  0  0
   20.0833  -40.9422   11.6307 C   0  0  0  0  0  0  0  0  0  0  0  0
   21.8651  -44.8367    6.4551 H   0  0  0  0  0  0  0  0  0  0  0  0
   20.5176  -45.8713    6.6020 H   0  0  0  0  0  0  0  0  0  0  0  0
   19.7307  -40.2147   12.7868 C   0  0  0  0  0  0  0  0  0  0  0  0
   20.3936  -40.2990   14.0038 C   0  0  0  0  0  0  0  0  0  0  0  0
   19.9343  -39.5388   15.0877 C   0  0  0  0  0  0  0  0  0  0  0  0
   18.8164  -38.7137   14.9771 C   0  0  0  0  0  0  0  0  0  0  0  0
   18.1366  -38.6117   13.7698 C   0  0  0  0  0  0  0  0  0  0  0  0
   18.5870  -39.3651   12.6859 C   0  0  0  0  0  0  0  0  0  0  0  0
   17.9144  -39.3471   11.4193 C   0  0  0  0  0  0  0  0  0  0  0  0
   17.3158  -39.3301   10.3760 C   0  0  0  0  0  0  0  0  0  0  0  0
   16.5794  -39.2856    9.1048 C   0  0  0  0  0  0  0  0  0  0  0  0
   16.7389  -40.6839    8.3879 C   0  0  0  0  0  0  0  0  0  0  0  0
   15.4887  -41.3411    7.7638 C   0  0  0  0  0  0  0  0  0  0  0  0
   16.1385  -41.9591    8.9952 C   0  0  0  0  0  0  0  0  0  0  0  0
   18.0045  -40.9275    7.6787 N   0  0  0  0  0  0  0  0  0  0  0  0
   18.4103  -40.1100    6.7199 C   0  0  0  0  0  0  0  0  0  0  0  0
   17.8059  -39.0826    6.4235 O   0  0  0  0  0  0  0  0  0  0  0  0
   18.5556  -41.7069    7.9198 H   0  0  0  0  0  0  0  0  0  0  0  0
   19.7448  -40.4998    6.0735 C   0  0  0  0  0  0  0  0  0  0  0  0
   20.9292  -40.3092    6.7619 C   0  0  0  0  0  0  0  0  0  0  0  0
   22.1406  -40.6748    6.1902 C   0  0  0  0  0  0  0  0  0  0  0  0
   22.1870  -41.2418    4.9133 C   0  0  0  0  0  0  0  0  0  0  0  0
   23.3889  -41.5838    4.3657 F   0  0  0  0  0  0  0  0  0  0  0  0
   20.9979  -41.4191    4.2030 C   0  0  0  0  0  0  0  0  0  0  0  0
   19.7805  -41.0520    4.7869 C   0  0  0  0  0  0  0  0  0  0  0  0
   18.5230  -45.8739    8.1512 C   0  0  0  0  0  0  0  0  0  0  0  0
   17.1713  -45.2742    7.6568 C   0  0  0  0  0  0  0  0  0  0  0  0
   14.7410  -45.3898    7.9580 N   0  0  0  0  0  0  0  0  0  0  0  0
   15.9146  -45.9090    8.3025 C   0  0  0  0  0  0  0  0  0  0  0  0
   16.0115  -46.8270    9.1088 O   0  0  0  0  0  0  0  0  0  0  0  0
   14.7196  -44.6672    7.2897 H   0  0  0  0  0  0  0  0  0  0  0  0
   13.4720  -45.8562    8.5395 C   0  0  0  0  0  0  0  0  0  0  0  0
   12.3522  -44.9663    7.9716 C   0  0  0  0  0  0  0  0  0  0  0  0
   12.5857  -43.8625   10.1872 C   0  0  0  0  0  0  0  0  0  0  0  0
   11.7373  -43.9410    8.9386 C   0  0  0  0  0  0  0  0  0  0  0  0
   10.3273  -44.3639    9.3563 C   0  0  0  0  0  0  0  0  0  0  0  0
   11.7258  -42.5783    8.2795 C   0  0  0  0  0  0  0  0  0  0  0  0
 34 33  1  0  0  0
 33 35  2  0  0  0
 33 32  1  0  0  0
 35 36  1  0  0  0
 32 31  2  0  0  0
 36 30  2  0  0  0
 31 30  1  0  0  0
 30 27  1  0  0  0
 27 28  2  0  0  0
 27 26  1  0  0  0
  4  2  1  0  0  0
 26 23  1  0  0  0
  2  3  2  0  0  0
  2  1  1  0  0  0
 23 24  1  0  0  0
 23 25  1  0  0  0
 23 22  1  0  0  0
 37 38  1  0  0  0
 37  1  1  0  0  0
  3  8  1  0  0  0
 24 25  1  0  0  0
 38 40  1  0  0  0
  1  5  2  0  0  0
 22 21  1  0  0  0
  8  9  2  0  0  0
  8  6  1  0  0  0
  9 10  1  0  0  0
  5  6  1  0  0  0
 40 39  1  0  0  0
 40 41  2  0  0  0
 39 43  1  0  0  0
  6  7  2  0  0  0
 21 20  3  0  0  0
 10 11  2  0  0  0
 43 44  1  0  0  0
  7 11  1  0  0  0
 20 19  1  0  0  0
 44 46  1  0  0  0
 11 14  1  0  0  0
 19 14  2  0  0  0
 19 18  1  0  0  0
 14 15  1  0  0  0
 48 46  1  0  0  0
 46 45  1  0  0  0
 46 47  1  0  0  0
 18 17  2  0  0  0
 15 16  2  0  0  0
 17 16  1  0  0  0
 39 42  1  0  0  0
  4 12  1  0  0  0
  4 13  1  0  0  0
 26 29  1  0  0  0
M  END
> <minimizedAffinity>
-9.58222

$$$$
5I3X_68J_A_401


 48 52  0  0  0  0  0  0  0  0999 V2000
   17.8217  -40.6614    8.6185 C   0  0  0  0  0  0  0  0  0  0  0  0
   17.2245  -40.0474    7.5081 C   0  0  0  0  0  0  0  0  0  0  0  0
   15.9352  -40.3094    7.2121 N   0  0  0  0  0  0  0  0  0  0  0  0
   17.9361  -39.1960    6.7203 N   0  0  0  0  0  0  0  0  0  0  0  0
   17.0640  -41.5272    9.4281 C   0  0  0  0  0  0  0  0  0  0  0  0
   15.7245  -41.7660    9.1072 C   0  0  0  0  0  0  0  0  0  0  0  0
   14.9162  -42.6028    9.8930 C   0  0  0  0  0  0  0  0  0  0  0  0
   15.1881  -41.1351    7.9825 C   0  0  0  0  0  0  0  0  0  0  0  0
   13.8459  -41.3745    7.6442 C   0  0  0  0  0  0  0  0  0  0  0  0
   13.0545  -42.2134    8.4314 C   0  0  0  0  0  0  0  0  0  0  0  0
   13.5798  -42.8488    9.5579 C   0  0  0  0  0  0  0  0  0  0  0  0
   17.5075  -38.7701    5.9430 H   0  0  0  0  0  0  0  0  0  0  0  0
   18.8796  -39.0060    6.9275 H   0  0  0  0  0  0  0  0  0  0  0  0
   12.7613  -43.6276   10.4027 C   0  0  0  0  0  0  0  0  0  0  0  0
   12.5302  -44.9871   10.2418 C   0  0  0  0  0  0  0  0  0  0  0  0
   11.6787  -45.6476   11.1375 C   0  0  0  0  0  0  0  0  0  0  0  0
   11.0442  -44.9673   12.1756 C   0  0  0  0  0  0  0  0  0  0  0  0
   11.2599  -43.6071   12.3578 C   0  0  0  0  0  0  0  0  0  0  0  0
   12.1059  -42.9419   11.4706 C   0  0  0  0  0  0  0  0  0  0  0  0
   12.3457  -41.5312   11.5663 C   0  0  0  0  0  0  0  0  0  0  0  0
   12.5250  -40.3425   11.6143 C   0  0  0  0  0  0  0  0  0  0  0  0
   12.7207  -38.8874   11.6802 C   0  0  0  0  0  0  0  0  0  0  0  0
   13.2701  -38.5236   13.1157 C   0  0  0  0  0  0  0  0  0  0  0  0
   12.3070  -38.6109   14.3194 C   0  0  0  0  0  0  0  0  0  0  0  0
   12.8079  -37.2536   13.8429 C   0  0  0  0  0  0  0  0  0  0  0  0
   14.6720  -38.8683   13.3986 N   0  0  0  0  0  0  0  0  0  0  0  0
   15.6571  -38.3086   12.7141 C   0  0  0  0  0  0  0  0  0  0  0  0
   15.4678  -37.4335   11.8733 O   0  0  0  0  0  0  0  0  0  0  0  0
   14.8797  -39.5223   14.1046 H   0  0  0  0  0  0  0  0  0  0  0  0
   17.0601  -38.7735   13.1221 C   0  0  0  0  0  0  0  0  0  0  0  0
   17.6309  -38.3066   14.2923 C   0  0  0  0  0  0  0  0  0  0  0  0
   18.8942  -38.7354   14.6773 C   0  0  0  0  0  0  0  0  0  0  0  0
   19.6107  -39.6449   13.8939 C   0  0  0  0  0  0  0  0  0  0  0  0
   20.8551  -40.0449   14.2850 F   0  0  0  0  0  0  0  0  0  0  0  0
   19.0504  -40.1057   12.7007 C   0  0  0  0  0  0  0  0  0  0  0  0
   17.7754  -39.6724   12.3210 C   0  0  0  0  0  0  0  0  0  0  0  0
   19.3016  -40.4478    8.9577 C   0  0  0  0  0  0  0  0  0  0  0  0
   20.0500  -41.7633    8.5829 C   0  0  0  0  0  0  0  0  0  0  0  0
   20.9548  -43.5203   10.0336 N   0  0  0  0  0  0  0  0  0  0  0  0
   21.0598  -42.2523    9.6507 C   0  0  0  0  0  0  0  0  0  0  0  0
   21.8932  -41.4920   10.1300 O   0  0  0  0  0  0  0  0  0  0  0  0
   20.2809  -44.0926    9.6004 H   0  0  0  0  0  0  0  0  0  0  0  0
   21.8097  -44.1002   11.0819 C   0  0  0  0  0  0  0  0  0  0  0  0
   21.0542  -43.9675   12.4161 C   0  0  0  0  0  0  0  0  0  0  0  0
   20.5241  -46.2291   13.3026 C   0  0  0  0  0  0  0  0  0  0  0  0
   21.3910  -45.0064   13.4985 C   0  0  0  0  0  0  0  0  0  0  0  0
   21.1066  -44.4496   14.8950 C   0  0  0  0  0  0  0  0  0  0  0  0
   22.8410  -45.4187   13.3601 C   0  0  0  0  0  0  0  0  0  0  0  0
 34 33  1  0  0  0
 33 35  2  0  0  0
 33 32  1  0  0  0
 35 36  1  0  0  0
 32 31  2  0  0  0
 36 30  2  0  0  0
 31 30  1  0  0  0
 30 27  1  0  0  0
 27 28  2  0  0  0
 27 26  1  0  0  0
  4  2  1  0  0  0
 26 23  1  0  0  0
  2  3  2  0  0  0
  2  1  1  0  0  0
 23 24  1  0  0  0
 23 25  1  0  0  0
 23 22  1  0  0  0
 37 38  1  0  0  0
 37  1  1  0  0  0
  3  8  1  0  0  0
 24 25  1  0  0  0
 38 40  1  0  0  0
  1  5  2  0  0  0
 22 21  1  0  0  0
  8  9  2  0  0  0
  8  6  1  0  0  0
  9 10  1  0  0  0
  5  6  1  0  0  0
 40 39  1  0  0  0
 40 41  2  0  0  0
 39 43  1  0  0  0
  6  7  2  0  0  0
 21 20  3  0  0  0
 10 11  2  0  0  0
 43 44  1  0  0  0
  7 11  1  0  0  0
 20 19  1  0  0  0
 44 46  1  0  0  0
 11 14  1  0  0  0
 19 14  2  0  0  0
 19 18  1  0  0  0
 14 15  1  0  0  0
 48 46  1  0  0  0
 46 45  1  0  0  0
 46 47  1  0  0  0
 18 17  2  0  0  0
 15 16  2  0  0  0
 17 16  1  0  0  0
 39 42  1  0  0  0
  4 12  1  0  0  0
  4 13  1  0  0  0
 26 29  1  0  0  0
M  END
> <minimizedAffinity>
-9.53482

$$$$
5I3X_68J_A_401


 48 52  0  0  0  0  0  0  0  0999 V2000
   19.3396  -44.4852    8.5190 C   0  0  0  0  0  0  0  0  0  0  0  0
   20.3885  -43.9938    7.7285 C   0  0  0  0  0  0  0  0  0  0  0  0
   21.0213  -42.8584    8.0877 N   0  0  0  0  0  0  0  0  0  0  0  0
   20.7687  -44.6468    6.5967 N   0  0  0  0  0  0  0  0  0  0  0  0
   18.9719  -43.8025    9.6928 C   0  0  0  0  0  0  0  0  0  0  0  0
   19.6577  -42.6377   10.0496 C   0  0  0  0  0  0  0  0  0  0  0  0
   19.3475  -41.9295   11.2215 C   0  0  0  0  0  0  0  0  0  0  0  0
   20.6857  -42.1904    9.2167 C   0  0  0  0  0  0  0  0  0  0  0  0
   21.3760  -41.0160    9.5595 C   0  0  0  0  0  0  0  0  0  0  0  0
   21.0538  -40.3182   10.7252 C   0  0  0  0  0  0  0  0  0  0  0  0
   20.0286  -40.7562   11.5654 C   0  0  0  0  0  0  0  0  0  0  0  0
   21.5063  -44.2934    6.0487 H   0  0  0  0  0  0  0  0  0  0  0  0
   20.3061  -45.4725    6.3259 H   0  0  0  0  0  0  0  0  0  0  0  0
   19.7582  -40.1027   12.7860 C   0  0  0  0  0  0  0  0  0  0  0  0
   20.5587  -40.1833   13.9175 C   0  0  0  0  0  0  0  0  0  0  0  0
   20.1720  -39.5025   15.0797 C   0  0  0  0  0  0  0  0  0  0  0  0
   18.9930  -38.7608   15.1313 C   0  0  0  0  0  0  0  0  0  0  0  0
   18.1756  -38.6643   14.0122 C   0  0  0  0  0  0  0  0  0  0  0  0
   18.5529  -39.3390   12.8512 C   0  0  0  0  0  0  0  0  0  0  0  0
   17.7418  -39.3233   11.6685 C   0  0  0  0  0  0  0  0  0  0  0  0
   17.0943  -39.3084   10.6548 C   0  0  0  0  0  0  0  0  0  0  0  0
   16.3101  -39.3134    9.4117 C   0  0  0  0  0  0  0  0  0  0  0  0
   15.3022  -40.5284    9.4639 C   0  0  0  0  0  0  0  0  0  0  0  0
   15.5930  -41.7675    8.5897 C   0  0  0  0  0  0  0  0  0  0  0  0
   14.4074  -40.8680    8.2641 C   0  0  0  0  0  0  0  0  0  0  0  0
   14.6559  -40.8017   10.7568 N   0  0  0  0  0  0  0  0  0  0  0  0
   13.7669  -39.9594   11.2595 C   0  0  0  0  0  0  0  0  0  0  0  0
   13.3826  -38.9612   10.6559 O   0  0  0  0  0  0  0  0  0  0  0  0
   14.8869  -41.6197   11.2535 H   0  0  0  0  0  0  0  0  0  0  0  0
   13.1865  -40.3805   12.6148 C   0  0  0  0  0  0  0  0  0  0  0  0
   13.6048  -39.7503   13.7728 C   0  0  0  0  0  0  0  0  0  0  0  0
   13.0721  -40.1144   15.0023 C   0  0  0  0  0  0  0  0  0  0  0  0
   12.1054  -41.1201   15.0936 C   0  0  0  0  0  0  0  0  0  0  0  0
   11.6031  -41.4700   16.3129 F   0  0  0  0  0  0  0  0  0  0  0  0
   11.6923  -41.7756   13.9319 C   0  0  0  0  0  0  0  0  0  0  0  0
   12.2305  -41.4008   12.6960 C   0  0  0  0  0  0  0  0  0  0  0  0
   18.5460  -45.7343    8.1180 C   0  0  0  0  0  0  0  0  0  0  0  0
   17.1853  -45.2431    7.5365 C   0  0  0  0  0  0  0  0  0  0  0  0
   14.7641  -45.3026    7.9167 N   0  0  0  0  0  0  0  0  0  0  0  0
   15.9377  -45.8375    8.2360 C   0  0  0  0  0  0  0  0  0  0  0  0
   16.0424  -46.7387    9.0601 O   0  0  0  0  0  0  0  0  0  0  0  0
   14.7354  -44.5950    7.2328 H   0  0  0  0  0  0  0  0  0  0  0  0
   13.5055  -45.7299    8.5486 C   0  0  0  0  0  0  0  0  0  0  0  0
   12.4411  -44.6695    8.2151 C   0  0  0  0  0  0  0  0  0  0  0  0
   12.3418  -44.4709   10.6915 C   0  0  0  0  0  0  0  0  0  0  0  0
   11.6423  -44.1061    9.4021 C   0  0  0  0  0  0  0  0  0  0  0  0
   10.2358  -44.7070    9.4462 C   0  0  0  0  0  0  0  0  0  0  0  0
   11.5882  -42.5971    9.2955 C   0  0  0  0  0  0  0  0  0  0  0  0
 34 33  1  0  0  0
 33 35  2  0  0  0
 33 32  1  0  0  0
 35 36  1  0  0  0
 32 31  2  0  0  0
 36 30  2  0  0  0
 31 30  1  0  0  0
 30 27  1  0  0  0
 27 28  2  0  0  0
 27 26  1  0  0  0
  4  2  1  0  0  0
 26 23  1  0  0  0
  2  3  2  0  0  0
  2  1  1  0  0  0
 23 24  1  0  0  0
 23 25  1  0  0  0
 23 22  1  0  0  0
 37 38  1  0  0  0
 37  1  1  0  0  0
  3  8  1  0  0  0
 24 25  1  0  0  0
 38 40  1  0  0  0
  1  5  2  0  0  0
 22 21  1  0  0  0
  8  9  2  0  0  0
  8  6  1  0  0  0
  9 10  1  0  0  0
  5  6  1  0  0  0
 40 39  1  0  0  0
 40 41  2  0  0  0
 39 43  1  0  0  0
  6  7  2  0  0  0
 21 20  3  0  0  0
 10 11  2  0  0  0
 43 44  1  0  0  0
  7 11  1  0  0  0
 20 19  1  0  0  0
 44 46  1  0  0  0
 11 14  1  0  0  0
 19 14  2  0  0  0
 19 18  1  0  0  0
 14 15  1  0  0  0
 48 46  1  0  0  0
 46 45  1  0  0  0
 46 47  1  0  0  0
 18 17  2  0  0  0
 15 16  2  0  0  0
 17 16  1  0  0  0
 39 42  1  0  0  0
  4 12  1  0  0  0
  4 13  1  0  0  0
 26 29  1  0  0  0
M  END
> <minimizedAffinity>
-9.48220

$$$$
