5I3X_68J_A_401
  RCSB PDB12061718063D
Coordinates from PDB:5I3X:A:401 Model:1 without hydrogens
 44 48  0  0  0  0            999 V2000
   13.9700  -39.0770   13.7030   C 0  0  0  0  0  0  0  0  0  0  0  0
   12.5730  -39.2760   13.1610   C 0  0  0  0  0  0  0  0  0  0  0  0
   11.8090  -40.1600   14.1490   C 0  0  0  0  0  0  0  0  0  0  0  0
   11.9150  -37.9200   13.0200   C 0  0  0  0  0  0  0  0  0  0  0  0
   12.6560  -39.9450   11.7790   C 0  0  0  0  0  0  0  0  0  0  0  0
   11.3740  -40.6290   11.2720   C 0  0  0  0  0  0  0  0  0  0  0  0
   11.7000  -41.2800    9.9930   N 0  0  0  0  0  0  0  0  0  0  0  0
   12.0590  -42.5570    9.9160   C 0  0  0  0  0  0  0  0  0  0  0  0
   12.1170  -43.2800   10.9040   O 0  0  0  0  0  0  0  0  0  0  0  0
   12.4360  -43.0890    8.5110   C 0  0  0  0  0  0  0  0  0  0  0  0
   13.9660  -43.2880    8.2860   C 0  0  0  0  0  0  0  0  0  0  0  0
   14.6520  -41.9750    8.6810   C 0  0  0  0  0  0  0  0  0  0  0  0
   14.5290  -40.8160    7.9010   C 0  0  0  0  0  0  0  0  0  0  0  0
   15.1000  -39.6670    8.3160   N 0  0  0  0  0  0  0  0  0  0  0  0
   13.8310  -40.8370    6.7330   N 0  0  0  0  0  0  0  0  0  0  0  0
   15.3900  -41.9350    9.8780   C 0  0  0  0  0  0  0  0  0  0  0  0
   15.9860  -40.7340   10.2740   C 0  0  0  0  0  0  0  0  0  0  0  0
   16.7520  -40.6430   11.4470   C 0  0  0  0  0  0  0  0  0  0  0  0
   15.8190  -39.6100    9.4620   C 0  0  0  0  0  0  0  0  0  0  0  0
   16.4050  -38.3950    9.8540   C 0  0  0  0  0  0  0  0  0  0  0  0
   17.1600  -38.3170   11.0260   C 0  0  0  0  0  0  0  0  0  0  0  0
   17.3340  -39.4340   11.8450   C 0  0  0  0  0  0  0  0  0  0  0  0
   18.1660  -39.3800   12.9830   C 0  0  0  0  0  0  0  0  0  0  0  0
   17.8580  -38.6990   14.1530   C 0  0  0  0  0  0  0  0  0  0  0  0
   18.7780  -38.7030   15.2100   C 0  0  0  0  0  0  0  0  0  0  0  0
   20.0030  -39.3600   15.1070   C 0  0  0  0  0  0  0  0  0  0  0  0
   20.3340  -40.0490   13.9470   C 0  0  0  0  0  0  0  0  0  0  0  0
   19.4240  -40.0500   12.8900   C 0  0  0  0  0  0  0  0  0  0  0  0
   19.7100  -40.7020   11.6450   C 0  0  0  0  0  0  0  0  0  0  0  0
   19.9140  -41.2390   10.5880   C 0  0  0  0  0  0  0  0  0  0  0  0
   20.1650  -41.8730    9.2860   C 0  0  0  0  0  0  0  0  0  0  0  0
   20.0530  -40.7670    8.1640   C 0  0  0  0  0  0  0  0  0  0  0  0
   20.7720  -39.4180    8.3820   C 0  0  0  0  0  0  0  0  0  0  0  0
   19.2500  -39.4800    8.3970   C 0  0  0  0  0  0  0  0  0  0  0  0
   19.9930  -41.2360    6.7710   N 0  0  0  0  0  0  0  0  0  0  0  0
   21.1000  -41.3920    6.0620   C 0  0  0  0  0  0  0  0  0  0  0  0
   22.2210  -41.2300    6.5370   O 0  0  0  0  0  0  0  0  0  0  0  0
   20.8730  -41.8820    4.6270   C 0  0  0  0  0  0  0  0  0  0  0  0
   21.6970  -42.8540    4.0890   C 0  0  0  0  0  0  0  0  0  0  0  0
   21.4880  -43.3150    2.7960   C 0  0  0  0  0  0  0  0  0  0  0  0
   20.4440  -42.8090    2.0160   C 0  0  0  0  0  0  0  0  0  0  0  0
   20.2630  -43.2680    0.7440   F 0  0  0  0  0  0  0  0  0  0  0  0
   19.6200  -41.8130    2.5440   C 0  0  0  0  0  0  0  0  0  0  0  0
   19.8340  -41.3560    3.8490   C 0  0  0  0  0  0  0  0  0  0  0  0
 42 41  1  0  0  0  0
 41 43  2  0  0  0  0
 41 40  1  0  0  0  0
 43 44  1  0  0  0  0
 40 39  2  0  0  0  0
 44 38  2  0  0  0  0
 39 38  1  0  0  0  0
 38 36  1  0  0  0  0
 36 37  2  0  0  0  0
 36 35  1  0  0  0  0
 15 13  1  0  0  0  0
 35 32  1  0  0  0  0
 13 14  2  0  0  0  0
 13 12  1  0  0  0  0
 32 33  1  0  0  0  0
 32 34  1  0  0  0  0
 32 31  1  0  0  0  0
 11 10  1  0  0  0  0
 11 12  1  0  0  0  0
 14 19  1  0  0  0  0
 33 34  1  0  0  0  0
 10  8  1  0  0  0  0
 12 16  2  0  0  0  0
 31 30  1  0  0  0  0
 19 20  2  0  0  0  0
 19 17  1  0  0  0  0
 20 21  1  0  0  0  0
 16 17  1  0  0  0  0
  8  7  1  0  0  0  0
  8  9  2  0  0  0  0
  7  6  1  0  0  0  0
 17 18  2  0  0  0  0
 30 29  3  0  0  0  0
 21 22  2  0  0  0  0
  6  5  1  0  0  0  0
 18 22  1  0  0  0  0
 29 28  1  0  0  0  0
  5  2  1  0  0  0  0
 22 23  1  0  0  0  0
 28 23  2  0  0  0  0
 28 27  1  0  0  0  0
 23 24  1  0  0  0  0
  4  2  1  0  0  0  0
  2  1  1  0  0  0  0
  2  3  1  0  0  0  0
 27 26  2  0  0  0  0
 24 25  2  0  0  0  0
 26 25  1  0  0  0  0
A    1
C16
A    2
C15
A    3
C17
A    4
C18
A    5
C14
A    6
C13
A    7
N2
A    8
C12
A    9
O1
A   10
C11
A   11
C10
A   12
C8
A   13
C7
A   14
N1
A   15
N3
A   16
C9
A   17
C5
A   18
C6
A   19
C4
A   20
C3
A   21
C2
A   22
C1
A   23
C19
A   24
C24
A   25
C23
A   26
C22
A   27
C21
A   28
C20
A   29
C25
A   30
C26
A   31
C27
A   32
C28
A   33
C29
A   34
C30
A   35
N4
A   36
C31
A   37
O2
A   38
C32
A   39
C33
A   40
C34
A   41
C35
A   42
F1
A   43
C36
A   44
C37
M  END
>  <InstanceId>
5I3X_68J_A_401

>  <ChemCompId>
68J

>  <PdbId>
5I3X

>  <ChainId>
A

>  <ResidueNumber>
401

>  <InsertionCode>


>  <Model>
1

>  <AltIds>


>  <MissingHeavyAtoms>
0

>  <ObservedFormula>
C37 N4 O2 F

>  <Name>
N-(1-{3-[2-(2-amino-3-{3-[(3,3-dimethylbutyl)amino]-3-oxopropyl}quinolin-6-yl)phenyl]prop-2-yn-1-yl}cyclopropyl)-4-fluorobenzamide

>  <SystematicName>
~{N}-[1-[3-[2-[2-azanyl-3-[3-(3,3-dimethylbutylamino)-3-oxidanylidene-propyl]quinolin-6-yl]phenyl]prop-2-ynyl]cyclopropyl]-4-fluoranyl-benzamide

>  <Synonyms>


>  <Type>
NON-POLYMER

>  <Formula>
C37 H39 F N4 O2

>  <MolecularWeight>
590.73

>  <ModifiedDate>
2016-03-25

>  <Parent>


>  <OneLetterCode>


>  <SubcomponentList>


>  <AmbiguousFlag>
N

>  <InChI>
InChI=1S/C37H39FN4O2/c1-36(2,3)21-22-40-33(43)17-13-28-24-29-23-27(12-16-32(29)41-34(28)39)31-9-5-4-7-25(31)8-6-18-37(19-20-37)42-35(44)26-10-14-30(38)15-11-26/h4-5,7,9-12,14-16,23-24H,13,17-22H2,1-3H3,(H2,39,41)(H,40,43)(H,42,44)

>  <InChIKey>
QLQWEADMFLXRFH-UHFFFAOYSA-N

>  <SMILES>
CC(C)(C)CCNC(=O)CCc1cc2cc(ccc2nc1N)c3ccccc3C#CCC4(CC4)NC(=O)c5ccc(cc5)F

$$$$
