4CA8_3ES_A_1615
  RCSB PDB12061712003D
Coordinates from PDB:4CA8:A:1615 Model:1 without hydrogens
 51 55  0  0  0  0            999 V2000
   25.0690   -1.4040  -44.7990   C 0  0  0  0  0  0  0  0  0  0  0  0
   24.1390   -1.2400  -44.0070   O 0  0  0  0  0  0  0  0  0  0  0  0
   24.9020   -2.2720  -45.8310   O 0  0  0  0  0  0  0  0  0  0  0  0
   24.8230   -1.7660  -47.1390   C 0  0  0  0  0  0  0  0  0  0  0  0
   24.7530   -2.8320  -48.0470   C 0  0  0  0  0  0  0  0  0  0  0  0
   25.4400   -2.7530  -49.2630   C 0  0  0  0  0  0  0  0  0  0  0  0
   25.3680   -3.7980  -50.1840   C 0  0  0  0  0  0  0  0  0  0  0  0
   24.6110   -4.9280  -49.8940   C 0  0  0  0  0  0  0  0  0  0  0  0
   23.9340   -5.0110  -48.6790   C 0  0  0  0  0  0  0  0  0  0  0  0
   23.9970   -3.9650  -47.7590   C 0  0  0  0  0  0  0  0  0  0  0  0
   25.2640    2.1410  -44.3550   O 0  0  0  0  0  0  0  0  0  0  0  0
   26.5480    1.8000  -43.7470   P 0  0  0  0  0  0  0  0  0  0  0  0
   27.8170    2.0910  -44.4230   O 0  0  0  0  0  0  0  0  0  0  0  0
   26.4710   -0.0120  -43.3530   C 0  0  0  0  0  0  0  0  0  0  0  0
   26.2470   -0.8190  -44.5730   N 0  0  0  0  0  0  0  0  0  0  0  0
   27.7490   -0.5050  -42.6920   C 0  0  0  0  0  0  0  0  0  0  0  0
   27.5890   -1.8840  -42.4340   C 0  0  0  0  0  0  0  0  0  0  0  0
   26.9010   -2.3280  -41.3050   C 0  0  0  0  0  0  0  0  0  0  0  0
   26.7500   -3.6920  -41.0690   C 0  0  0  0  0  0  0  0  0  0  0  0
   27.2680   -4.6330  -41.9500   C 0  0  0  0  0  0  0  0  0  0  0  0
   27.9580   -4.2050  -43.0800   C 0  0  0  0  0  0  0  0  0  0  0  0
   28.1130   -2.8410  -43.3140   C 0  0  0  0  0  0  0  0  0  0  0  0
   26.6190    4.9370  -43.0960   C 0  0  0  0  0  0  0  0  0  0  0  0
   26.8170    6.4720  -42.9010   C 0  0  0  0  0  0  0  0  0  0  0  0
   27.3380    7.1280  -41.8690   C 0  0  0  0  0  0  0  0  0  0  0  0
   26.5030    7.3900  -43.8690   O 0  0  0  0  0  0  0  0  0  0  0  0
   26.8610    8.6940  -43.3860   N 0  0  0  0  0  0  0  0  0  0  0  0
   27.3560    8.4430  -42.1760   C 0  0  0  0  0  0  0  0  0  0  0  0
   27.8240    9.4100  -41.3890   C 0  0  0  0  0  0  0  0  0  0  0  0
   28.8010    9.1230  -40.4240   C 0  0  0  0  0  0  0  0  0  0  0  0
   29.2920   10.1450  -39.6160   C 0  0  0  0  0  0  0  0  0  0  0  0
   28.8250   11.4490  -39.7820   C 0  0  0  0  0  0  0  0  0  0  0  0
   27.8700   11.7410  -40.7570   C 0  0  0  0  0  0  0  0  0  0  0  0
   27.3720   10.7250  -41.5710   C 0  0  0  0  0  0  0  0  0  0  0  0
   26.6050    2.6580  -42.0120   C 0  0  0  0  0  0  0  0  0  0  0  0
   27.2860    4.0640  -42.0320   C 0  0  0  0  0  0  0  0  0  0  0  0
   28.8240    3.8680  -42.2150   C 0  0  0  0  0  0  0  0  0  0  0  0
   29.3430    2.7790  -41.9460   O 0  0  0  0  0  0  0  0  0  0  0  0
   29.5510    4.9320  -42.6270   N 0  0  0  0  0  0  0  0  0  0  0  0
   31.0320    4.8470  -42.7030   C 0  0  0  0  0  0  0  0  0  0  0  0
   31.5710    4.8990  -41.2490   C 0  0  0  0  0  0  0  0  0  0  0  0
   32.7860    4.6950  -41.0750   O 0  0  0  0  0  0  0  0  0  0  0  0
   31.7620    5.9550  -43.4280   C 0  0  0  0  0  0  0  0  0  0  0  0
   30.9940    6.9690  -44.0410   C 0  0  0  0  0  0  0  0  0  0  0  0
   31.0220    8.2820  -43.5560   C 0  0  0  0  0  0  0  0  0  0  0  0
   30.2880    6.6980  -45.2150   C 0  0  0  0  0  0  0  0  0  0  0  0
   30.3050    9.2940  -44.2030   C 0  0  0  0  0  0  0  0  0  0  0  0
   29.5720    7.6960  -45.8730   C 0  0  0  0  0  0  0  0  0  0  0  0
   29.5900    8.9950  -45.3680   C 0  0  0  0  0  0  0  0  0  0  0  0
   28.8980    9.9580  -46.0250   O 0  0  0  0  0  0  0  0  0  0  0  0
   30.7500    5.1760  -40.3530   O 0  0  0  0  0  0  0  0  0  0  0  0
  6  7  1  0  0  0  0
  6  5  2  0  0  0  0
  7  8  2  0  0  0  0
  8  9  1  0  0  0  0
  9 10  2  0  0  0  0
 10  5  1  0  0  0  0
  5  4  1  0  0  0  0
  4  3  1  0  0  0  0
  3  1  1  0  0  0  0
  1  2  2  0  0  0  0
  1 15  1  0  0  0  0
 15 14  1  0  0  0  0
 14 16  1  0  0  0  0
 14 12  1  0  0  0  0
 16 17  1  0  0  0  0
 17 18  1  0  0  0  0
 17 22  2  0  0  0  0
 18 19  2  0  0  0  0
 19 20  1  0  0  0  0
 20 21  2  0  0  0  0
 21 22  1  0  0  0  0
 12 13  1  0  0  0  0
 12 11  2  0  0  0  0
 12 35  1  0  0  0  0
 35 36  1  0  0  0  0
 36 37  1  0  0  0  0
 36 23  1  0  0  0  0
 37 38  2  0  0  0  0
 37 39  1  0  0  0  0
 39 40  1  0  0  0  0
 40 41  1  0  0  0  0
 40 43  1  0  0  0  0
 41 51  1  0  0  0  0
 41 42  2  0  0  0  0
 43 44  1  0  0  0  0
 44 45  1  0  0  0  0
 44 46  2  0  0  0  0
 45 47  2  0  0  0  0
 47 49  1  0  0  0  0
 49 50  1  0  0  0  0
 49 48  2  0  0  0  0
 48 46  1  0  0  0  0
 23 24  1  0  0  0  0
 24 25  2  0  0  0  0
 24 26  1  0  0  0  0
 25 28  1  0  0  0  0
 26 27  1  0  0  0  0
 27 28  2  0  0  0  0
 28 29  1  0  0  0  0
 29 30  1  0  0  0  0
 29 34  2  0  0  0  0
 30 31  2  0  0  0  0
 31 32  1  0  0  0  0
 32 33  2  0  0  0  0
 33 34  1  0  0  0  0
A    1
CBM
A    2
OAB
A    3
OBJ
A    4
CBB
A    5
CBP
A    6
CAQ
A    7
CAK
A    8
CAH
A    9
CAL
A   10
CAR
A   11
OAD
A   12
PBY
A   13
OAG
A   14
CBX
A   15
NBI
A   16
CBE
A   17
CBQ
A   18
CAS
A   19
CAM
A   20
CAI
A   21
CAN
A   22
CAT
A   23
CBC
A   24
CBS
A   25
CBA
A   26
OBK
A   27
NBG
A   28
CBU
A   29
CBT
A   30
CAU
A   31
CAO
A   32
CAJ
A   33
CAP
A   34
CAV
A   35
CBF
A   36
CBV
A   37
CBN
A   38
OAC
A   39
N
A   40
CA
A   41
C
A   42
O
A   43
CB
A   44
CG
A   45
CD1
A   46
CD2
A   47
CE1
A   48
CE2
A   49
CZ
A   50
OH
A   51
OXT
M  END
>  <InstanceId>
4CA8_3ES_A_1615

>  <ChemCompId>
3ES

>  <PdbId>
4CA8

>  <ChainId>
A

>  <ResidueNumber>
1615

>  <InsertionCode>


>  <Model>
1

>  <AltIds>


>  <MissingHeavyAtoms>
0

>  <ObservedFormula>
C38 N3 O9 P

>  <Name>
[(2S)-2-({3-[HYDROXYL(2-PHENYL-(1R)-1-{[(BENZYLOXY)[(2S)-2-({3-[HYDROXYL(2-PHENYL-(1R)-1-CARBONYL]-AMINO}ETHYL)PHOSPHINYL]-2-[(3-PHENYLISOXAZOL-5-YL)METHYL]-1-OXO-PROPYL}AMINO)-3-(4-HYDROXY-PHENYL)

>  <SystematicName>
(2S)-3-(4-hydroxyphenyl)-2-[[(2R)-2-[[hydroxy-[(1R)-2-phenyl-1-phenylmethoxycarbonylamino-ethyl]phosphoryl]methyl]-3-(3-phenyl-1,2-oxazol-5-yl)propanoyl]amino]propanoic acid

>  <Synonyms>


>  <Type>
non-polymer

>  <Formula>
C38 H38 N3 O9 P

>  <MolecularWeight>
711.697

>  <ModifiedDate>
2012-04-02

>  <Parent>


>  <OneLetterCode>


>  <SubcomponentList>
PHQ PPH 1JQ TYR

>  <AmbiguousFlag>
N

>  <InChI>
InChI=1S/C38H38N3O9P/c42-31-18-16-27(17-19-31)20-34(37(44)45)39-36(43)30(22-32-23-33(41-50-32)29-14-8-3-9-15-29)25-51(47,48)35(21-26-10-4-1-5-11-26)40-38(46)49-24-28-12-6-2-7-13-28/h1-19,23,30,34-35,42H,20-22,24-25H2,(H,39,43)(H,40,46)(H,44,45)(H,47,48)/t30-,34-,35+/m0/s1

>  <InChIKey>
ZPFSKFCSVXPMBD-PFESQZPFSA-N

>  <SMILES>
c1ccc(cc1)C[C@H](NC(=O)OCc2ccccc2)[P@](=O)(C[C@H](Cc3cc(no3)c4ccccc4)C(=O)N[C@@H](Cc5ccc(cc5)O)C(=O)O)O

$$$$
