4CA8_3ES_A_1615


 56 60  0  0  0  0  0  0  0  0999 V2000
   28.1827    7.2996  -40.3996 C   0  0  0  0  0  0  0  0  0  0  0  0
   28.6336    7.8566  -39.0126 C   0  0  0  0  0  0  0  0  0  0  0  0
   29.3610    7.1753  -38.2816 O   0  0  0  0  0  0  0  0  0  0  0  0
   28.1656    9.0692  -38.6373 N   0  0  0  0  0  0  0  0  0  0  0  0
   27.6285    9.6025  -39.2669 H   0  0  0  0  0  0  0  0  0  0  0  0
   28.4571    9.6012  -37.2814 C   0  0  0  0  0  0  0  0  0  0  0  0
   27.3400    9.0867  -36.3355 C   0  0  0  0  0  0  0  0  0  0  0  0
   26.2504    9.6873  -36.3469 O   0  0  0  0  0  0  0  0  0  0  0  0
   27.6021    8.0800  -35.6488 O   0  0  0  0  0  0  0  0  0  0  0  0
   28.4511    7.6867  -35.6991 H   0  0  0  0  0  0  0  0  0  0  0  0
   28.4574   11.1025  -37.1019 C   0  0  0  0  0  0  0  0  0  0  0  0
   29.6822   11.7903  -37.2452 C   0  0  0  0  0  0  0  0  0  0  0  0
   30.1644   12.1399  -38.5122 C   0  0  0  0  0  0  0  0  0  0  0  0
   30.3700   12.2362  -36.1145 C   0  0  0  0  0  0  0  0  0  0  0  0
   31.3488   12.8725  -38.6445 C   0  0  0  0  0  0  0  0  0  0  0  0
   31.5490   12.9699  -36.2299 C   0  0  0  0  0  0  0  0  0  0  0  0
   32.0306   13.2931  -37.4973 C   0  0  0  0  0  0  0  0  0  0  0  0
   33.1727   14.0171  -37.5941 O   0  0  0  0  0  0  0  0  0  0  0  0
   33.5131   14.2448  -38.4368 H   0  0  0  0  0  0  0  0  0  0  0  0
   28.8844    7.9301  -41.6035 C   0  0  0  0  0  0  0  0  0  0  0  0
   28.2362    9.2515  -42.1204 C   0  0  0  0  0  0  0  0  0  0  0  0
   28.6363   10.0574  -43.0987 C   0  0  0  0  0  0  0  0  0  0  0  0
   27.0575    9.7439  -41.6239 O   0  0  0  0  0  0  0  0  0  0  0  0
   26.7222   10.9327  -42.3562 N   0  0  0  0  0  0  0  0  0  0  0  0
   27.7257   11.0469  -43.2234 C   0  0  0  0  0  0  0  0  0  0  0  0
   27.7818   12.0357  -44.1137 C   0  0  0  0  0  0  0  0  0  0  0  0
   27.0474   11.9535  -45.3062 C   0  0  0  0  0  0  0  0  0  0  0  0
   27.1038   12.9996  -46.2232 C   0  0  0  0  0  0  0  0  0  0  0  0
   27.8734   14.1292  -45.9442 C   0  0  0  0  0  0  0  0  0  0  0  0
   28.5864   14.2232  -44.7481 C   0  0  0  0  0  0  0  0  0  0  0  0
   28.5366   13.1814  -43.8234 C   0  0  0  0  0  0  0  0  0  0  0  0
   28.4146    5.7546  -40.4136 C   0  0  0  0  0  0  0  0  0  0  0  0
   26.5074    3.8083  -40.0533 O   0  0  0  0  0  0  0  0  0  0  0  0
   26.9058    4.7509  -41.0961 P   0  0  0  0  0  0  0  0  0  0  0  0
   25.9555    5.7155  -41.6604 O   0  0  0  0  0  0  0  0  0  0  0  0
   25.1851    5.2425  -42.0122 H   0  0  0  0  0  0  0  0  0  0  0  0
   27.6251    3.7316  -42.4702 C   0  0  0  0  0  0  0  0  0  0  0  0
   27.2227    1.3240  -42.6592 C   0  0  0  0  0  0  0  0  0  0  0  0
   28.3627    1.1289  -42.2332 O   0  0  0  0  0  0  0  0  0  0  0  0
   26.7638    2.5707  -42.7868 N   0  0  0  0  0  0  0  0  0  0  0  0
   25.8409    2.7198  -43.0954 H   0  0  0  0  0  0  0  0  0  0  0  0
   26.4979    0.2604  -43.0950 O   0  0  0  0  0  0  0  0  0  0  0  0
   27.1577   -0.7835  -43.7643 C   0  0  0  0  0  0  0  0  0  0  0  0
   26.3210   -1.2965  -44.7656 C   0  0  0  0  0  0  0  0  0  0  0  0
   26.8819   -1.9116  -45.8898 C   0  0  0  0  0  0  0  0  0  0  0  0
   26.0641   -2.4131  -46.9023 C   0  0  0  0  0  0  0  0  0  0  0  0
   24.6817   -2.3045  -46.7958 C   0  0  0  0  0  0  0  0  0  0  0  0
   24.1223   -1.7002  -45.6718 C   0  0  0  0  0  0  0  0  0  0  0  0
   24.9368   -1.1904  -44.6612 C   0  0  0  0  0  0  0  0  0  0  0  0
   27.8075    4.5422  -43.7441 C   0  0  0  0  0  0  0  0  0  0  0  0
   29.1506    4.9761  -43.7827 C   0  0  0  0  0  0  0  0  0  0  0  0
   30.1316    4.3435  -43.0194 C   0  0  0  0  0  0  0  0  0  0  0  0
   31.4518    4.7830  -43.0733 C   0  0  0  0  0  0  0  0  0  0  0  0
   31.8203    5.8457  -43.8888 C   0  0  0  0  0  0  0  0  0  0  0  0
   30.8522    6.4875  -44.6550 C   0  0  0  0  0  0  0  0  0  0  0  0
   29.5310    6.0510  -44.5980 C   0  0  0  0  0  0  0  0  0  0  0  0
 45 46  1  0  0  0
 45 44  2  0  0  0
 46 47  2  0  0  0
 47 48  1  0  0  0
 48 49  2  0  0  0
 49 44  1  0  0  0
 44 43  1  0  0  0
 43 42  1  0  0  0
 42 38  1  0  0  0
 38 39  2  0  0  0
 38 40  1  0  0  0
 40 37  1  0  0  0
 37 50  1  0  0  0
 37 34  1  0  0  0
 50 51  1  0  0  0
 51 52  1  0  0  0
 51 56  2  0  0  0
 52 53  2  0  0  0
 53 54  1  0  0  0
 54 55  2  0  0  0
 55 56  1  0  0  0
 34 35  1  0  0  0
 34 33  2  0  0  0
 34 32  1  0  0  0
 32  1  1  0  0  0
  1  2  1  0  0  0
  1 20  1  0  0  0
  2  3  2  0  0  0
  2  4  1  0  0  0
  4  6  1  0  0  0
  6  7  1  0  0  0
  6 11  1  0  0  0
  7  9  1  0  0  0
  7  8  2  0  0  0
 11 12  1  0  0  0
 12 13  1  0  0  0
 12 14  2  0  0  0
 13 15  2  0  0  0
 15 17  1  0  0  0
 17 18  1  0  0  0
 17 16  2  0  0  0
 16 14  1  0  0  0
 20 21  1  0  0  0
 21 22  2  0  0  0
 21 23  1  0  0  0
 22 25  1  0  0  0
 23 24  1  0  0  0
 24 25  2  0  0  0
 25 26  1  0  0  0
 26 27  1  0  0  0
 26 31  2  0  0  0
 27 28  2  0  0  0
 28 29  1  0  0  0
 29 30  2  0  0  0
 30 31  1  0  0  0
 35 36  1  0  0  0
 40 41  1  0  0  0
  4  5  1  0  0  0
 18 19  1  0  0  0
  9 10  1  0  0  0
M  END
> <minimizedAffinity>
-11.44255

$$$$
4CA8_3ES_A_1615


 56 60  0  0  0  0  0  0  0  0999 V2000
   27.7506    7.6073  -40.9844 C   0  0  0  0  0  0  0  0  0  0  0  0
   27.9354    8.5003  -39.7171 C   0  0  0  0  0  0  0  0  0  0  0  0
   27.1184    9.3936  -39.4680 O   0  0  0  0  0  0  0  0  0  0  0  0
   29.0284    8.2870  -38.9490 N   0  0  0  0  0  0  0  0  0  0  0  0
   29.6300    7.5346  -39.1524 H   0  0  0  0  0  0  0  0  0  0  0  0
   29.3268    9.1807  -37.8006 C   0  0  0  0  0  0  0  0  0  0  0  0
   30.8613    9.4091  -37.7820 C   0  0  0  0  0  0  0  0  0  0  0  0
   31.5000    8.9670  -36.8100 O   0  0  0  0  0  0  0  0  0  0  0  0
   31.3561    9.9948  -38.7647 O   0  0  0  0  0  0  0  0  0  0  0  0
   30.8023   10.2977  -39.4572 H   0  0  0  0  0  0  0  0  0  0  0  0
   28.9918    8.6776  -36.4147 C   0  0  0  0  0  0  0  0  0  0  0  0
   28.1133    7.5782  -36.2993 C   0  0  0  0  0  0  0  0  0  0  0  0
   28.6069    6.2847  -36.0913 C   0  0  0  0  0  0  0  0  0  0  0  0
   26.7327    7.7864  -36.2718 C   0  0  0  0  0  0  0  0  0  0  0  0
   27.7298    5.2086  -35.9192 C   0  0  0  0  0  0  0  0  0  0  0  0
   25.8464    6.7254  -36.0977 C   0  0  0  0  0  0  0  0  0  0  0  0
   26.3497    5.4387  -35.9133 C   0  0  0  0  0  0  0  0  0  0  0  0
   25.4758    4.4179  -35.7339 O   0  0  0  0  0  0  0  0  0  0  0  0
   25.7938    3.5456  -35.6082 H   0  0  0  0  0  0  0  0  0  0  0  0
   28.5517    8.0553  -42.2078 C   0  0  0  0  0  0  0  0  0  0  0  0
   27.8968    9.2057  -43.0332 C   0  0  0  0  0  0  0  0  0  0  0  0
   28.4263   10.3548  -43.4405 C   0  0  0  0  0  0  0  0  0  0  0  0
   26.6172    9.1355  -43.5190 O   0  0  0  0  0  0  0  0  0  0  0  0
   26.3562   10.3284  -44.2744 N   0  0  0  0  0  0  0  0  0  0  0  0
   27.4982   11.0053  -44.1749 C   0  0  0  0  0  0  0  0  0  0  0  0
   27.6735   12.1866  -44.7641 C   0  0  0  0  0  0  0  0  0  0  0  0
   26.8257   12.5870  -45.8076 C   0  0  0  0  0  0  0  0  0  0  0  0
   27.0108   13.8300  -46.4069 C   0  0  0  0  0  0  0  0  0  0  0  0
   28.0236   14.6765  -45.9558 C   0  0  0  0  0  0  0  0  0  0  0  0
   28.8536   14.2898  -44.9023 C   0  0  0  0  0  0  0  0  0  0  0  0
   28.6766   13.0475  -44.2956 C   0  0  0  0  0  0  0  0  0  0  0  0
   28.1390    6.1390  -40.6183 C   0  0  0  0  0  0  0  0  0  0  0  0
   26.6669    3.8179  -40.5969 O   0  0  0  0  0  0  0  0  0  0  0  0
   27.1145    4.8045  -41.5771 P   0  0  0  0  0  0  0  0  0  0  0  0
   26.1628    5.5158  -42.4375 O   0  0  0  0  0  0  0  0  0  0  0  0
   25.6322    4.8728  -42.9333 H   0  0  0  0  0  0  0  0  0  0  0  0
   28.3714    3.9472  -42.6400 C   0  0  0  0  0  0  0  0  0  0  0  0
   27.0966    1.9149  -43.1287 C   0  0  0  0  0  0  0  0  0  0  0  0
   26.2440    2.6158  -43.6771 O   0  0  0  0  0  0  0  0  0  0  0  0
   28.1895    2.4789  -42.6105 N   0  0  0  0  0  0  0  0  0  0  0  0
   28.8833    1.9112  -42.2036 H   0  0  0  0  0  0  0  0  0  0  0  0
   26.8464    0.5891  -42.9675 O   0  0  0  0  0  0  0  0  0  0  0  0
   27.7509   -0.1882  -42.2252 C   0  0  0  0  0  0  0  0  0  0  0  0
   27.8125   -1.4784  -42.7704 C   0  0  0  0  0  0  0  0  0  0  0  0
   27.8704   -1.6422  -44.1585 C   0  0  0  0  0  0  0  0  0  0  0  0
   27.9162   -2.9192  -44.7176 C   0  0  0  0  0  0  0  0  0  0  0  0
   27.9066   -4.0389  -43.8928 C   0  0  0  0  0  0  0  0  0  0  0  0
   27.8582   -3.8759  -42.5098 C   0  0  0  0  0  0  0  0  0  0  0  0
   27.8043   -2.6011  -41.9473 C   0  0  0  0  0  0  0  0  0  0  0  0
   28.2945    4.4009  -44.0897 C   0  0  0  0  0  0  0  0  0  0  0  0
   29.3319    5.3358  -44.2977 C   0  0  0  0  0  0  0  0  0  0  0  0
   30.5102    5.2780  -43.5538 C   0  0  0  0  0  0  0  0  0  0  0  0
   31.5241    6.2065  -43.7755 C   0  0  0  0  0  0  0  0  0  0  0  0
   31.3901    7.1965  -44.7408 C   0  0  0  0  0  0  0  0  0  0  0  0
   30.2196    7.2675  -45.4899 C   0  0  0  0  0  0  0  0  0  0  0  0
   29.2037    6.3418  -45.2654 C   0  0  0  0  0  0  0  0  0  0  0  0
 45 46  1  0  0  0
 45 44  2  0  0  0
 46 47  2  0  0  0
 47 48  1  0  0  0
 48 49  2  0  0  0
 49 44  1  0  0  0
 44 43  1  0  0  0
 43 42  1  0  0  0
 42 38  1  0  0  0
 38 39  2  0  0  0
 38 40  1  0  0  0
 40 37  1  0  0  0
 37 50  1  0  0  0
 37 34  1  0  0  0
 50 51  1  0  0  0
 51 52  1  0  0  0
 51 56  2  0  0  0
 52 53  2  0  0  0
 53 54  1  0  0  0
 54 55  2  0  0  0
 55 56  1  0  0  0
 34 35  1  0  0  0
 34 33  2  0  0  0
 34 32  1  0  0  0
 32  1  1  0  0  0
  1  2  1  0  0  0
  1 20  1  0  0  0
  2  3  2  0  0  0
  2  4  1  0  0  0
  4  6  1  0  0  0
  6  7  1  0  0  0
  6 11  1  0  0  0
  7  9  1  0  0  0
  7  8  2  0  0  0
 11 12  1  0  0  0
 12 13  1  0  0  0
 12 14  2  0  0  0
 13 15  2  0  0  0
 15 17  1  0  0  0
 17 18  1  0  0  0
 17 16  2  0  0  0
 16 14  1  0  0  0
 20 21  1  0  0  0
 21 22  2  0  0  0
 21 23  1  0  0  0
 22 25  1  0  0  0
 23 24  1  0  0  0
 24 25  2  0  0  0
 25 26  1  0  0  0
 26 27  1  0  0  0
 26 31  2  0  0  0
 27 28  2  0  0  0
 28 29  1  0  0  0
 29 30  2  0  0  0
 30 31  1  0  0  0
 35 36  1  0  0  0
 40 41  1  0  0  0
  4  5  1  0  0  0
 18 19  1  0  0  0
  9 10  1  0  0  0
M  END
> <minimizedAffinity>
-11.33985

$$$$
4CA8_3ES_A_1615


 56 60  0  0  0  0  0  0  0  0999 V2000
   27.7107    6.0321  -42.7244 C   0  0  0  0  0  0  0  0  0  0  0  0
   27.6975    6.7353  -41.3306 C   0  0  0  0  0  0  0  0  0  0  0  0
   26.7703    7.4963  -41.0328 O   0  0  0  0  0  0  0  0  0  0  0  0
   28.7448    6.5150  -40.5028 N   0  0  0  0  0  0  0  0  0  0  0  0
   29.4394    5.8646  -40.7553 H   0  0  0  0  0  0  0  0  0  0  0  0
   28.8531    7.2481  -39.2155 C   0  0  0  0  0  0  0  0  0  0  0  0
   30.1726    8.0632  -39.2600 C   0  0  0  0  0  0  0  0  0  0  0  0
   30.8265    8.1630  -38.2061 O   0  0  0  0  0  0  0  0  0  0  0  0
   30.5056    8.5371  -40.3637 O   0  0  0  0  0  0  0  0  0  0  0  0
   29.9537    8.4162  -41.1112 H   0  0  0  0  0  0  0  0  0  0  0  0
   28.9444    6.4295  -37.9476 C   0  0  0  0  0  0  0  0  0  0  0  0
   27.7422    6.0470  -37.3135 C   0  0  0  0  0  0  0  0  0  0  0  0
   26.5026    6.4537  -37.8216 C   0  0  0  0  0  0  0  0  0  0  0  0
   27.7716    5.1569  -36.2379 C   0  0  0  0  0  0  0  0  0  0  0  0
   25.3136    6.0232  -37.2235 C   0  0  0  0  0  0  0  0  0  0  0  0
   26.5959    4.7161  -35.6338 C   0  0  0  0  0  0  0  0  0  0  0  0
   25.3683    5.1454  -36.1352 C   0  0  0  0  0  0  0  0  0  0  0  0
   24.2324    4.6995  -35.5445 O   0  0  0  0  0  0  0  0  0  0  0  0
   23.3971    4.9762  -35.8665 H   0  0  0  0  0  0  0  0  0  0  0  0
   26.6735    4.9207  -42.8925 C   0  0  0  0  0  0  0  0  0  0  0  0
   27.2231    3.4759  -42.6829 C   0  0  0  0  0  0  0  0  0  0  0  0
   26.6039    2.3101  -42.8390 C   0  0  0  0  0  0  0  0  0  0  0  0
   28.5250    3.2192  -42.3401 O   0  0  0  0  0  0  0  0  0  0  0  0
   28.7040    1.7955  -42.2861 N   0  0  0  0  0  0  0  0  0  0  0  0
   27.4983    1.3268  -42.6001 C   0  0  0  0  0  0  0  0  0  0  0  0
   27.2448    0.0217  -42.6761 C   0  0  0  0  0  0  0  0  0  0  0  0
   27.9928   -0.8876  -41.9134 C   0  0  0  0  0  0  0  0  0  0  0  0
   27.7097   -2.2486  -41.9915 C   0  0  0  0  0  0  0  0  0  0  0  0
   26.6743   -2.6983  -42.8112 C   0  0  0  0  0  0  0  0  0  0  0  0
   25.9137   -1.7934  -43.5530 C   0  0  0  0  0  0  0  0  0  0  0  0
   26.1891   -0.4288  -43.4819 C   0  0  0  0  0  0  0  0  0  0  0  0
   27.4951    7.1154  -43.8293 C   0  0  0  0  0  0  0  0  0  0  0  0
   30.0235    7.9405  -43.1355 O   0  0  0  0  0  0  0  0  0  0  0  0
   29.0940    8.1243  -44.2476 P   0  0  0  0  0  0  0  0  0  0  0  0
   29.4737    7.7946  -45.6257 O   0  0  0  0  0  0  0  0  0  0  0  0
   30.2746    8.2859  -45.8668 H   0  0  0  0  0  0  0  0  0  0  0  0
   28.5428    9.8951  -44.1764 C   0  0  0  0  0  0  0  0  0  0  0  0
   27.2633   10.6918  -42.2471 C   0  0  0  0  0  0  0  0  0  0  0  0
   26.2328   10.5502  -42.9081 O   0  0  0  0  0  0  0  0  0  0  0  0
   28.4448   10.3724  -42.7791 N   0  0  0  0  0  0  0  0  0  0  0  0
   29.2613   10.4554  -42.2353 H   0  0  0  0  0  0  0  0  0  0  0  0
   27.1787   11.2777  -41.0240 O   0  0  0  0  0  0  0  0  0  0  0  0
   28.3631   11.5903  -40.3365 C   0  0  0  0  0  0  0  0  0  0  0  0
   28.2476   11.1813  -39.0004 C   0  0  0  0  0  0  0  0  0  0  0  0
   27.1486   10.4121  -38.6036 C   0  0  0  0  0  0  0  0  0  0  0  0
   27.0106   10.0104  -37.2750 C   0  0  0  0  0  0  0  0  0  0  0  0
   27.9707   10.3734  -36.3367 C   0  0  0  0  0  0  0  0  0  0  0  0
   29.0702   11.1318  -36.7335 C   0  0  0  0  0  0  0  0  0  0  0  0
   29.2077   11.5421  -38.0591 C   0  0  0  0  0  0  0  0  0  0  0  0
   29.4950   10.8175  -44.9219 C   0  0  0  0  0  0  0  0  0  0  0  0
   28.7615   11.9590  -45.3127 C   0  0  0  0  0  0  0  0  0  0  0  0
   27.5663   11.8366  -46.0209 C   0  0  0  0  0  0  0  0  0  0  0  0
   26.8547   12.9737  -46.3946 C   0  0  0  0  0  0  0  0  0  0  0  0
   27.3100   14.2441  -46.0648 C   0  0  0  0  0  0  0  0  0  0  0  0
   28.5015   14.3820  -45.3596 C   0  0  0  0  0  0  0  0  0  0  0  0
   29.2157   13.2452  -44.9896 C   0  0  0  0  0  0  0  0  0  0  0  0
 45 46  1  0  0  0
 45 44  2  0  0  0
 46 47  2  0  0  0
 47 48  1  0  0  0
 48 49  2  0  0  0
 49 44  1  0  0  0
 44 43  1  0  0  0
 43 42  1  0  0  0
 42 38  1  0  0  0
 38 39  2  0  0  0
 38 40  1  0  0  0
 40 37  1  0  0  0
 37 50  1  0  0  0
 37 34  1  0  0  0
 50 51  1  0  0  0
 51 52  1  0  0  0
 51 56  2  0  0  0
 52 53  2  0  0  0
 53 54  1  0  0  0
 54 55  2  0  0  0
 55 56  1  0  0  0
 34 35  1  0  0  0
 34 33  2  0  0  0
 34 32  1  0  0  0
 32  1  1  0  0  0
  1  2  1  0  0  0
  1 20  1  0  0  0
  2  3  2  0  0  0
  2  4  1  0  0  0
  4  6  1  0  0  0
  6  7  1  0  0  0
  6 11  1  0  0  0
  7  9  1  0  0  0
  7  8  2  0  0  0
 11 12  1  0  0  0
 12 13  1  0  0  0
 12 14  2  0  0  0
 13 15  2  0  0  0
 15 17  1  0  0  0
 17 18  1  0  0  0
 17 16  2  0  0  0
 16 14  1  0  0  0
 20 21  1  0  0  0
 21 22  2  0  0  0
 21 23  1  0  0  0
 22 25  1  0  0  0
 23 24  1  0  0  0
 24 25  2  0  0  0
 25 26  1  0  0  0
 26 27  1  0  0  0
 26 31  2  0  0  0
 27 28  2  0  0  0
 28 29  1  0  0  0
 29 30  2  0  0  0
 30 31  1  0  0  0
 35 36  1  0  0  0
 40 41  1  0  0  0
  4  5  1  0  0  0
 18 19  1  0  0  0
  9 10  1  0  0  0
M  END
> <minimizedAffinity>
-11.22548

$$$$
4CA8_3ES_A_1615


 56 60  0  0  0  0  0  0  0  0999 V2000
   27.4662    7.3253  -40.2121 C   0  0  0  0  0  0  0  0  0  0  0  0
   27.1022    7.6459  -38.7282 C   0  0  0  0  0  0  0  0  0  0  0  0
   26.0063    8.1493  -38.4572 O   0  0  0  0  0  0  0  0  0  0  0  0
   28.0359    7.3965  -37.7814 N   0  0  0  0  0  0  0  0  0  0  0  0
   28.8775    6.9502  -38.0301 H   0  0  0  0  0  0  0  0  0  0  0  0
   27.7995    7.7918  -36.3693 C   0  0  0  0  0  0  0  0  0  0  0  0
   26.5843    6.9727  -35.8596 C   0  0  0  0  0  0  0  0  0  0  0  0
   26.7095    5.7370  -35.7865 O   0  0  0  0  0  0  0  0  0  0  0  0
   25.5708    7.6166  -35.5250 O   0  0  0  0  0  0  0  0  0  0  0  0
   25.5584    8.5494  -35.6125 H   0  0  0  0  0  0  0  0  0  0  0  0
   27.4382    9.2343  -36.0956 C   0  0  0  0  0  0  0  0  0  0  0  0
   28.3575   10.2354  -36.4782 C   0  0  0  0  0  0  0  0  0  0  0  0
   28.2834   10.8317  -37.7427 C   0  0  0  0  0  0  0  0  0  0  0  0
   29.2800   10.7281  -35.5527 C   0  0  0  0  0  0  0  0  0  0  0  0
   29.1599   11.8637  -38.0942 C   0  0  0  0  0  0  0  0  0  0  0  0
   30.1572   11.7580  -35.8865 C   0  0  0  0  0  0  0  0  0  0  0  0
   30.0881   12.3289  -37.1561 C   0  0  0  0  0  0  0  0  0  0  0  0
   30.9402   13.3377  -37.4630 O   0  0  0  0  0  0  0  0  0  0  0  0
   30.9099   13.7349  -38.3111 H   0  0  0  0  0  0  0  0  0  0  0  0
   28.4305    8.3167  -40.8651 C   0  0  0  0  0  0  0  0  0  0  0  0
   27.7812    9.2596  -41.9247 C   0  0  0  0  0  0  0  0  0  0  0  0
   28.2761   10.3562  -42.4897 C   0  0  0  0  0  0  0  0  0  0  0  0
   26.5519    9.0172  -42.4801 O   0  0  0  0  0  0  0  0  0  0  0  0
   26.2864   10.0417  -43.4506 N   0  0  0  0  0  0  0  0  0  0  0  0
   27.3759   10.8042  -43.3913 C   0  0  0  0  0  0  0  0  0  0  0  0
   27.5315   11.8765  -44.1656 C   0  0  0  0  0  0  0  0  0  0  0  0
   28.3647   12.9279  -43.7552 C   0  0  0  0  0  0  0  0  0  0  0  0
   28.5296   14.0378  -44.5794 C   0  0  0  0  0  0  0  0  0  0  0  0
   27.8822   14.0905  -45.8140 C   0  0  0  0  0  0  0  0  0  0  0  0
   27.0713   13.0353  -46.2345 C   0  0  0  0  0  0  0  0  0  0  0  0
   26.8995   11.9197  -45.4167 C   0  0  0  0  0  0  0  0  0  0  0  0
   28.0771    5.8887  -40.2744 C   0  0  0  0  0  0  0  0  0  0  0  0
   26.6751    3.5546  -40.6509 O   0  0  0  0  0  0  0  0  0  0  0  0
   27.1193    4.6901  -41.4558 P   0  0  0  0  0  0  0  0  0  0  0  0
   26.1703    5.4997  -42.2279 O   0  0  0  0  0  0  0  0  0  0  0  0
   25.6727    4.9264  -42.8318 H   0  0  0  0  0  0  0  0  0  0  0  0
   28.4295    4.0370  -42.5966 C   0  0  0  0  0  0  0  0  0  0  0  0
   27.3495    1.9287  -43.2152 C   0  0  0  0  0  0  0  0  0  0  0  0
   26.4234    2.5793  -43.7031 O   0  0  0  0  0  0  0  0  0  0  0  0
   28.3915    2.5595  -42.6699 N   0  0  0  0  0  0  0  0  0  0  0  0
   29.1441    2.0355  -42.3121 H   0  0  0  0  0  0  0  0  0  0  0  0
   27.2320    0.5768  -43.1464 O   0  0  0  0  0  0  0  0  0  0  0  0
   28.0472   -0.1317  -42.2482 C   0  0  0  0  0  0  0  0  0  0  0  0
   27.8432   -1.5080  -42.4207 C   0  0  0  0  0  0  0  0  0  0  0  0
   27.2404   -2.2526  -41.4014 C   0  0  0  0  0  0  0  0  0  0  0  0
   27.0447   -3.6255  -41.5508 C   0  0  0  0  0  0  0  0  0  0  0  0
   27.4482   -4.2610  -42.7201 C   0  0  0  0  0  0  0  0  0  0  0  0
   28.0403   -3.5181  -43.7394 C   0  0  0  0  0  0  0  0  0  0  0  0
   28.2451   -2.1468  -43.5906 C   0  0  0  0  0  0  0  0  0  0  0  0
   28.2769    4.5814  -44.0085 C   0  0  0  0  0  0  0  0  0  0  0  0
   29.1854    5.6530  -44.1510 C   0  0  0  0  0  0  0  0  0  0  0  0
   28.7792    6.8708  -44.6961 C   0  0  0  0  0  0  0  0  0  0  0  0
   29.6883    7.9175  -44.8253 C   0  0  0  0  0  0  0  0  0  0  0  0
   31.0062    7.7772  -44.4089 C   0  0  0  0  0  0  0  0  0  0  0  0
   31.4263    6.5675  -43.8644 C   0  0  0  0  0  0  0  0  0  0  0  0
   30.5185    5.5190  -43.7391 C   0  0  0  0  0  0  0  0  0  0  0  0
 45 46  1  0  0  0
 45 44  2  0  0  0
 46 47  2  0  0  0
 47 48  1  0  0  0
 48 49  2  0  0  0
 49 44  1  0  0  0
 44 43  1  0  0  0
 43 42  1  0  0  0
 42 38  1  0  0  0
 38 39  2  0  0  0
 38 40  1  0  0  0
 40 37  1  0  0  0
 37 50  1  0  0  0
 37 34  1  0  0  0
 50 51  1  0  0  0
 51 52  1  0  0  0
 51 56  2  0  0  0
 52 53  2  0  0  0
 53 54  1  0  0  0
 54 55  2  0  0  0
 55 56  1  0  0  0
 34 35  1  0  0  0
 34 33  2  0  0  0
 34 32  1  0  0  0
 32  1  1  0  0  0
  1  2  1  0  0  0
  1 20  1  0  0  0
  2  3  2  0  0  0
  2  4  1  0  0  0
  4  6  1  0  0  0
  6  7  1  0  0  0
  6 11  1  0  0  0
  7  9  1  0  0  0
  7  8  2  0  0  0
 11 12  1  0  0  0
 12 13  1  0  0  0
 12 14  2  0  0  0
 13 15  2  0  0  0
 15 17  1  0  0  0
 17 18  1  0  0  0
 17 16  2  0  0  0
 16 14  1  0  0  0
 20 21  1  0  0  0
 21 22  2  0  0  0
 21 23  1  0  0  0
 22 25  1  0  0  0
 23 24  1  0  0  0
 24 25  2  0  0  0
 25 26  1  0  0  0
 26 27  1  0  0  0
 26 31  2  0  0  0
 27 28  2  0  0  0
 28 29  1  0  0  0
 29 30  2  0  0  0
 30 31  1  0  0  0
 35 36  1  0  0  0
 40 41  1  0  0  0
  4  5  1  0  0  0
 18 19  1  0  0  0
  9 10  1  0  0  0
M  END
> <minimizedAffinity>
-11.14173

$$$$
4CA8_3ES_A_1615


 56 60  0  0  0  0  0  0  0  0999 V2000
   27.5794    3.9081  -43.0803 C   0  0  0  0  0  0  0  0  0  0  0  0
   29.1323    3.9557  -42.9267 C   0  0  0  0  0  0  0  0  0  0  0  0
   29.7196    3.0538  -42.3189 O   0  0  0  0  0  0  0  0  0  0  0  0
   29.7842    5.0260  -43.4364 N   0  0  0  0  0  0  0  0  0  0  0  0
   29.2880    5.6991  -43.9559 H   0  0  0  0  0  0  0  0  0  0  0  0
   31.2439    5.1920  -43.2171 C   0  0  0  0  0  0  0  0  0  0  0  0
   31.4524    5.4806  -41.7070 C   0  0  0  0  0  0  0  0  0  0  0  0
   30.8982    6.4866  -41.2285 O   0  0  0  0  0  0  0  0  0  0  0  0
   32.1385    4.6609  -41.0659 O   0  0  0  0  0  0  0  0  0  0  0  0
   32.5225    3.9271  -41.5041 H   0  0  0  0  0  0  0  0  0  0  0  0
   31.9351    6.3324  -43.9298 C   0  0  0  0  0  0  0  0  0  0  0  0
   31.1328    7.3353  -44.5165 C   0  0  0  0  0  0  0  0  0  0  0  0
   30.1877    7.0146  -45.4983 C   0  0  0  0  0  0  0  0  0  0  0  0
   31.1898    8.6457  -44.0370 C   0  0  0  0  0  0  0  0  0  0  0  0
   29.3554    8.0034  -46.0335 C   0  0  0  0  0  0  0  0  0  0  0  0
   30.3649    9.6409  -44.5573 C   0  0  0  0  0  0  0  0  0  0  0  0
   29.4429    9.3135  -45.5500 C   0  0  0  0  0  0  0  0  0  0  0  0
   28.6391   10.2896  -46.0387 O   0  0  0  0  0  0  0  0  0  0  0  0
   28.0126   10.0902  -46.7063 H   0  0  0  0  0  0  0  0  0  0  0  0
   26.8974    2.7494  -42.3514 C   0  0  0  0  0  0  0  0  0  0  0  0
   27.1443    1.3440  -42.9819 C   0  0  0  0  0  0  0  0  0  0  0  0
   27.2609    0.1629  -42.3834 C   0  0  0  0  0  0  0  0  0  0  0  0
   27.2206    1.1404  -44.3350 O   0  0  0  0  0  0  0  0  0  0  0  0
   27.3954   -0.2654  -44.5697 N   0  0  0  0  0  0  0  0  0  0  0  0
   27.4083   -0.7778  -43.3411 C   0  0  0  0  0  0  0  0  0  0  0  0
   27.5383   -2.0849  -43.1215 C   0  0  0  0  0  0  0  0  0  0  0  0
   27.6488   -2.9738  -44.2012 C   0  0  0  0  0  0  0  0  0  0  0  0
   27.7974   -4.3367  -43.9586 C   0  0  0  0  0  0  0  0  0  0  0  0
   27.8544   -4.8083  -42.6469 C   0  0  0  0  0  0  0  0  0  0  0  0
   27.7679   -3.9232  -41.5713 C   0  0  0  0  0  0  0  0  0  0  0  0
   27.6189   -2.5569  -41.8034 C   0  0  0  0  0  0  0  0  0  0  0  0
   26.9882    5.2618  -42.5714 C   0  0  0  0  0  0  0  0  0  0  0  0
   26.0341    5.2580  -39.9937 O   0  0  0  0  0  0  0  0  0  0  0  0
   27.2826    5.5748  -40.6833 P   0  0  0  0  0  0  0  0  0  0  0  0
   28.5449    4.9210  -40.3211 O   0  0  0  0  0  0  0  0  0  0  0  0
   28.7217    5.0598  -39.3775 H   0  0  0  0  0  0  0  0  0  0  0  0
   27.4930    7.4144  -40.5573 C   0  0  0  0  0  0  0  0  0  0  0  0
   27.2682    8.2934  -38.2833 C   0  0  0  0  0  0  0  0  0  0  0  0
   26.0536    8.3869  -38.4702 O   0  0  0  0  0  0  0  0  0  0  0  0
   28.0539    7.8033  -39.2443 N   0  0  0  0  0  0  0  0  0  0  0  0
   29.0186    7.6992  -39.0776 H   0  0  0  0  0  0  0  0  0  0  0  0
   27.7929    8.7984  -37.1361 O   0  0  0  0  0  0  0  0  0  0  0  0
   27.4102   10.0851  -36.7222 C   0  0  0  0  0  0  0  0  0  0  0  0
   28.4966   10.9605  -36.8596 C   0  0  0  0  0  0  0  0  0  0  0  0
   29.1137   11.1093  -38.1062 C   0  0  0  0  0  0  0  0  0  0  0  0
   30.2055   11.9642  -38.2563 C   0  0  0  0  0  0  0  0  0  0  0  0
   30.6851   12.6763  -37.1623 C   0  0  0  0  0  0  0  0  0  0  0  0
   30.0650   12.5354  -35.9225 C   0  0  0  0  0  0  0  0  0  0  0  0
   28.9782   11.6757  -35.7666 C   0  0  0  0  0  0  0  0  0  0  0  0
   28.4130    7.9570  -41.6402 C   0  0  0  0  0  0  0  0  0  0  0  0
   27.8295    9.1424  -42.1384 C   0  0  0  0  0  0  0  0  0  0  0  0
   26.8728    9.1004  -43.1523 C   0  0  0  0  0  0  0  0  0  0  0  0
   26.3057   10.2797  -43.6285 C   0  0  0  0  0  0  0  0  0  0  0  0
   26.6694   11.5129  -43.1022 C   0  0  0  0  0  0  0  0  0  0  0  0
   27.6236   11.5705  -42.0911 C   0  0  0  0  0  0  0  0  0  0  0  0
   28.1942   10.3917  -41.6178 C   0  0  0  0  0  0  0  0  0  0  0  0
 45 46  1  0  0  0
 45 44  2  0  0  0
 46 47  2  0  0  0
 47 48  1  0  0  0
 48 49  2  0  0  0
 49 44  1  0  0  0
 44 43  1  0  0  0
 43 42  1  0  0  0
 42 38  1  0  0  0
 38 39  2  0  0  0
 38 40  1  0  0  0
 40 37  1  0  0  0
 37 50  1  0  0  0
 37 34  1  0  0  0
 50 51  1  0  0  0
 51 52  1  0  0  0
 51 56  2  0  0  0
 52 53  2  0  0  0
 53 54  1  0  0  0
 54 55  2  0  0  0
 55 56  1  0  0  0
 34 35  1  0  0  0
 34 33  2  0  0  0
 34 32  1  0  0  0
 32  1  1  0  0  0
  1  2  1  0  0  0
  1 20  1  0  0  0
  2  3  2  0  0  0
  2  4  1  0  0  0
  4  6  1  0  0  0
  6  7  1  0  0  0
  6 11  1  0  0  0
  7  9  1  0  0  0
  7  8  2  0  0  0
 11 12  1  0  0  0
 12 13  1  0  0  0
 12 14  2  0  0  0
 13 15  2  0  0  0
 15 17  1  0  0  0
 17 18  1  0  0  0
 17 16  2  0  0  0
 16 14  1  0  0  0
 20 21  1  0  0  0
 21 22  2  0  0  0
 21 23  1  0  0  0
 22 25  1  0  0  0
 23 24  1  0  0  0
 24 25  2  0  0  0
 25 26  1  0  0  0
 26 27  1  0  0  0
 26 31  2  0  0  0
 27 28  2  0  0  0
 28 29  1  0  0  0
 29 30  2  0  0  0
 30 31  1  0  0  0
 35 36  1  0  0  0
 40 41  1  0  0  0
  4  5  1  0  0  0
 18 19  1  0  0  0
  9 10  1  0  0  0
M  END
> <minimizedAffinity>
-11.10153

$$$$
4CA8_3ES_A_1615


 56 60  0  0  0  0  0  0  0  0999 V2000
   27.4824    7.4822  -41.2985 C   0  0  0  0  0  0  0  0  0  0  0  0
   27.3537    8.5863  -42.3947 C   0  0  0  0  0  0  0  0  0  0  0  0
   26.2492    8.8390  -42.8885 O   0  0  0  0  0  0  0  0  0  0  0  0
   28.4853    9.2058  -42.8022 N   0  0  0  0  0  0  0  0  0  0  0  0
   29.3386    9.0120  -42.3509 H   0  0  0  0  0  0  0  0  0  0  0  0
   28.4486   10.1764  -43.9260 C   0  0  0  0  0  0  0  0  0  0  0  0
   29.6099    9.8108  -44.8878 C   0  0  0  0  0  0  0  0  0  0  0  0
   30.7696    9.8618  -44.4398 O   0  0  0  0  0  0  0  0  0  0  0  0
   29.2965    9.4570  -46.0411 O   0  0  0  0  0  0  0  0  0  0  0  0
   28.3959    9.4468  -46.2996 H   0  0  0  0  0  0  0  0  0  0  0  0
   28.6604   11.6372  -43.5984 C   0  0  0  0  0  0  0  0  0  0  0  0
   28.3067   12.5964  -44.5724 C   0  0  0  0  0  0  0  0  0  0  0  0
   27.1715   12.4209  -45.3726 C   0  0  0  0  0  0  0  0  0  0  0  0
   29.0207   13.7929  -44.6668 C   0  0  0  0  0  0  0  0  0  0  0  0
   26.7935   13.4024  -46.2949 C   0  0  0  0  0  0  0  0  0  0  0  0
   28.6546   14.7816  -45.5778 C   0  0  0  0  0  0  0  0  0  0  0  0
   27.5349   14.5857  -46.3845 C   0  0  0  0  0  0  0  0  0  0  0  0
   27.1839   15.5611  -47.2582 O   0  0  0  0  0  0  0  0  0  0  0  0
   26.4346   15.4489  -47.8094 H   0  0  0  0  0  0  0  0  0  0  0  0
   27.2760    7.9737  -39.8650 C   0  0  0  0  0  0  0  0  0  0  0  0
   27.8562    9.3913  -39.5696 C   0  0  0  0  0  0  0  0  0  0  0  0
   28.8398    9.7425  -38.7474 C   0  0  0  0  0  0  0  0  0  0  0  0
   27.4225   10.5202  -40.2145 O   0  0  0  0  0  0  0  0  0  0  0  0
   28.2013   11.6327  -39.7478 N   0  0  0  0  0  0  0  0  0  0  0  0
   29.0296   11.0741  -38.8680 C   0  0  0  0  0  0  0  0  0  0  0  0
   29.9445   11.7832  -38.2094 C   0  0  0  0  0  0  0  0  0  0  0  0
   30.8384   12.6059  -38.9109 C   0  0  0  0  0  0  0  0  0  0  0  0
   31.7819   13.3525  -38.2102 C   0  0  0  0  0  0  0  0  0  0  0  0
   31.8214   13.2933  -36.8170 C   0  0  0  0  0  0  0  0  0  0  0  0
   30.9180   12.4933  -36.1158 C   0  0  0  0  0  0  0  0  0  0  0  0
   29.9696   11.7420  -36.8078 C   0  0  0  0  0  0  0  0  0  0  0  0
   26.4539    6.3486  -41.6121 C   0  0  0  0  0  0  0  0  0  0  0  0
   28.2879    4.7515  -40.3310 O   0  0  0  0  0  0  0  0  0  0  0  0
   27.0829    4.5793  -41.1391 P   0  0  0  0  0  0  0  0  0  0  0  0
   25.9294    3.8211  -40.6425 O   0  0  0  0  0  0  0  0  0  0  0  0
   26.2123    2.9266  -40.3961 H   0  0  0  0  0  0  0  0  0  0  0  0
   27.6396    3.8510  -42.7528 C   0  0  0  0  0  0  0  0  0  0  0  0
   26.7962    1.6055  -43.2433 C   0  0  0  0  0  0  0  0  0  0  0  0
   27.7909    1.1407  -42.6833 O   0  0  0  0  0  0  0  0  0  0  0  0
   26.6240    2.9275  -43.3054 N   0  0  0  0  0  0  0  0  0  0  0  0
   25.8112    3.2927  -43.7239 H   0  0  0  0  0  0  0  0  0  0  0  0
   25.9511    0.7560  -43.8839 O   0  0  0  0  0  0  0  0  0  0  0  0
   26.0839   -0.6258  -43.6689 C   0  0  0  0  0  0  0  0  0  0  0  0
   25.7544   -1.3137  -44.8452 C   0  0  0  0  0  0  0  0  0  0  0  0
   26.7723   -1.8163  -45.6626 C   0  0  0  0  0  0  0  0  0  0  0  0
   26.4617   -2.4892  -46.8442 C   0  0  0  0  0  0  0  0  0  0  0  0
   25.1327   -2.6653  -47.2141 C   0  0  0  0  0  0  0  0  0  0  0  0
   24.1183   -2.1729  -46.3955 C   0  0  0  0  0  0  0  0  0  0  0  0
   24.4249   -1.4926  -45.2175 C   0  0  0  0  0  0  0  0  0  0  0  0
   27.9159    4.9234  -43.7955 C   0  0  0  0  0  0  0  0  0  0  0  0
   29.3061    5.1707  -43.7923 C   0  0  0  0  0  0  0  0  0  0  0  0
   30.1704    4.4009  -43.0142 C   0  0  0  0  0  0  0  0  0  0  0  0
   31.5390    4.6571  -43.0267 C   0  0  0  0  0  0  0  0  0  0  0  0
   32.0710    5.6698  -43.8150 C   0  0  0  0  0  0  0  0  0  0  0  0
   31.2208    6.4470  -44.5956 C   0  0  0  0  0  0  0  0  0  0  0  0
   29.8515    6.1939  -44.5799 C   0  0  0  0  0  0  0  0  0  0  0  0
 45 46  1  0  0  0
 45 44  2  0  0  0
 46 47  2  0  0  0
 47 48  1  0  0  0
 48 49  2  0  0  0
 49 44  1  0  0  0
 44 43  1  0  0  0
 43 42  1  0  0  0
 42 38  1  0  0  0
 38 39  2  0  0  0
 38 40  1  0  0  0
 40 37  1  0  0  0
 37 50  1  0  0  0
 37 34  1  0  0  0
 50 51  1  0  0  0
 51 52  1  0  0  0
 51 56  2  0  0  0
 52 53  2  0  0  0
 53 54  1  0  0  0
 54 55  2  0  0  0
 55 56  1  0  0  0
 34 35  1  0  0  0
 34 33  2  0  0  0
 34 32  1  0  0  0
 32  1  1  0  0  0
  1  2  1  0  0  0
  1 20  1  0  0  0
  2  3  2  0  0  0
  2  4  1  0  0  0
  4  6  1  0  0  0
  6  7  1  0  0  0
  6 11  1  0  0  0
  7  9  1  0  0  0
  7  8  2  0  0  0
 11 12  1  0  0  0
 12 13  1  0  0  0
 12 14  2  0  0  0
 13 15  2  0  0  0
 15 17  1  0  0  0
 17 18  1  0  0  0
 17 16  2  0  0  0
 16 14  1  0  0  0
 20 21  1  0  0  0
 21 22  2  0  0  0
 21 23  1  0  0  0
 22 25  1  0  0  0
 23 24  1  0  0  0
 24 25  2  0  0  0
 25 26  1  0  0  0
 26 27  1  0  0  0
 26 31  2  0  0  0
 27 28  2  0  0  0
 28 29  1  0  0  0
 29 30  2  0  0  0
 30 31  1  0  0  0
 35 36  1  0  0  0
 40 41  1  0  0  0
  4  5  1  0  0  0
 18 19  1  0  0  0
  9 10  1  0  0  0
M  END
> <minimizedAffinity>
-11.06034

$$$$
4CA8_3ES_A_1615


 56 60  0  0  0  0  0  0  0  0999 V2000
   27.4703    7.6754  -43.0509 C   0  0  0  0  0  0  0  0  0  0  0  0
   28.7070    7.7492  -42.1010 C   0  0  0  0  0  0  0  0  0  0  0  0
   29.5354    8.6563  -42.2369 O   0  0  0  0  0  0  0  0  0  0  0  0
   28.8509    6.7728  -41.1756 N   0  0  0  0  0  0  0  0  0  0  0  0
   28.1452    6.0951  -41.0658 H   0  0  0  0  0  0  0  0  0  0  0  0
   30.0668    6.7167  -40.3242 C   0  0  0  0  0  0  0  0  0  0  0  0
   30.8806    5.4717  -40.7659 C   0  0  0  0  0  0  0  0  0  0  0  0
   31.8346    5.1202  -40.0487 O   0  0  0  0  0  0  0  0  0  0  0  0
   30.4994    4.8861  -41.7980 O   0  0  0  0  0  0  0  0  0  0  0  0
   29.7692    5.2180  -42.2824 H   0  0  0  0  0  0  0  0  0  0  0  0
   29.8728    6.5459  -38.8345 C   0  0  0  0  0  0  0  0  0  0  0  0
   28.5569    6.5911  -38.3245 C   0  0  0  0  0  0  0  0  0  0  0  0
   27.8652    7.8047  -38.2314 C   0  0  0  0  0  0  0  0  0  0  0  0
   27.8850    5.4060  -38.0176 C   0  0  0  0  0  0  0  0  0  0  0  0
   26.5413    7.8354  -37.7805 C   0  0  0  0  0  0  0  0  0  0  0  0
   26.5652    5.4198  -37.5707 C   0  0  0  0  0  0  0  0  0  0  0  0
   25.8942    6.6366  -37.4615 C   0  0  0  0  0  0  0  0  0  0  0  0
   24.6069    6.6336  -37.0362 O   0  0  0  0  0  0  0  0  0  0  0  0
   24.1382    7.4410  -36.9560 H   0  0  0  0  0  0  0  0  0  0  0  0
   26.4707    6.5666  -42.7185 C   0  0  0  0  0  0  0  0  0  0  0  0
   26.9846    5.1192  -42.9912 C   0  0  0  0  0  0  0  0  0  0  0  0
   26.3984    3.9555  -42.7283 C   0  0  0  0  0  0  0  0  0  0  0  0
   28.1673    4.8599  -43.6333 O   0  0  0  0  0  0  0  0  0  0  0  0
   28.3041    3.4369  -43.7678 N   0  0  0  0  0  0  0  0  0  0  0  0
   27.1955    2.9711  -43.1966 C   0  0  0  0  0  0  0  0  0  0  0  0
   26.9291    1.6681  -43.1284 C   0  0  0  0  0  0  0  0  0  0  0  0
   27.7868    0.8088  -42.4254 C   0  0  0  0  0  0  0  0  0  0  0  0
   27.4906   -0.5495  -42.3501 C   0  0  0  0  0  0  0  0  0  0  0  0
   26.3361   -1.0450  -42.9564 C   0  0  0  0  0  0  0  0  0  0  0  0
   25.4693   -0.1882  -43.6366 C   0  0  0  0  0  0  0  0  0  0  0  0
   25.7568    1.1733  -43.7178 C   0  0  0  0  0  0  0  0  0  0  0  0
   26.7411    9.0569  -43.0253 C   0  0  0  0  0  0  0  0  0  0  0  0
   27.9037    9.3635  -45.4971 O   0  0  0  0  0  0  0  0  0  0  0  0
   26.9102   10.0530  -44.6773 P   0  0  0  0  0  0  0  0  0  0  0  0
   25.5547   10.3135  -45.1740 O   0  0  0  0  0  0  0  0  0  0  0  0
   25.6049   10.8130  -46.0040 H   0  0  0  0  0  0  0  0  0  0  0  0
   27.6868   11.6574  -44.1603 C   0  0  0  0  0  0  0  0  0  0  0  0
   28.1044   12.3256  -41.8423 C   0  0  0  0  0  0  0  0  0  0  0  0
   27.2102   13.1665  -41.9536 O   0  0  0  0  0  0  0  0  0  0  0  0
   28.3934   11.5214  -42.8673 N   0  0  0  0  0  0  0  0  0  0  0  0
   29.0854   10.8290  -42.7619 H   0  0  0  0  0  0  0  0  0  0  0  0
   28.8520   12.3142  -40.7077 O   0  0  0  0  0  0  0  0  0  0  0  0
   28.5126   11.4202  -39.6788 C   0  0  0  0  0  0  0  0  0  0  0  0
   29.2162   11.7612  -38.5150 C   0  0  0  0  0  0  0  0  0  0  0  0
   30.3746   12.5397  -38.6084 C   0  0  0  0  0  0  0  0  0  0  0  0
   31.0948   12.8745  -37.4618 C   0  0  0  0  0  0  0  0  0  0  0  0
   30.6603   12.4349  -36.2160 C   0  0  0  0  0  0  0  0  0  0  0  0
   29.5014   11.6672  -36.1217 C   0  0  0  0  0  0  0  0  0  0  0  0
   28.7830   11.3237  -37.2664 C   0  0  0  0  0  0  0  0  0  0  0  0
   28.6850   12.1638  -45.1900 C   0  0  0  0  0  0  0  0  0  0  0  0
   28.2333   13.4255  -45.6349 C   0  0  0  0  0  0  0  0  0  0  0  0
   28.9263   14.5914  -45.3103 C   0  0  0  0  0  0  0  0  0  0  0  0
   28.4677   15.8265  -45.7611 C   0  0  0  0  0  0  0  0  0  0  0  0
   27.3253   15.9236  -46.5456 C   0  0  0  0  0  0  0  0  0  0  0  0
   26.6227   14.7690  -46.8764 C   0  0  0  0  0  0  0  0  0  0  0  0
   27.0786   13.5341  -46.4221 C   0  0  0  0  0  0  0  0  0  0  0  0
 45 46  1  0  0  0
 45 44  2  0  0  0
 46 47  2  0  0  0
 47 48  1  0  0  0
 48 49  2  0  0  0
 49 44  1  0  0  0
 44 43  1  0  0  0
 43 42  1  0  0  0
 42 38  1  0  0  0
 38 39  2  0  0  0
 38 40  1  0  0  0
 40 37  1  0  0  0
 37 50  1  0  0  0
 37 34  1  0  0  0
 50 51  1  0  0  0
 51 52  1  0  0  0
 51 56  2  0  0  0
 52 53  2  0  0  0
 53 54  1  0  0  0
 54 55  2  0  0  0
 55 56  1  0  0  0
 34 35  1  0  0  0
 34 33  2  0  0  0
 34 32  1  0  0  0
 32  1  1  0  0  0
  1  2  1  0  0  0
  1 20  1  0  0  0
  2  3  2  0  0  0
  2  4  1  0  0  0
  4  6  1  0  0  0
  6  7  1  0  0  0
  6 11  1  0  0  0
  7  9  1  0  0  0
  7  8  2  0  0  0
 11 12  1  0  0  0
 12 13  1  0  0  0
 12 14  2  0  0  0
 13 15  2  0  0  0
 15 17  1  0  0  0
 17 18  1  0  0  0
 17 16  2  0  0  0
 16 14  1  0  0  0
 20 21  1  0  0  0
 21 22  2  0  0  0
 21 23  1  0  0  0
 22 25  1  0  0  0
 23 24  1  0  0  0
 24 25  2  0  0  0
 25 26  1  0  0  0
 26 27  1  0  0  0
 26 31  2  0  0  0
 27 28  2  0  0  0
 28 29  1  0  0  0
 29 30  2  0  0  0
 30 31  1  0  0  0
 35 36  1  0  0  0
 40 41  1  0  0  0
  4  5  1  0  0  0
 18 19  1  0  0  0
  9 10  1  0  0  0
M  END
> <minimizedAffinity>
-10.98607

$$$$
4CA8_3ES_A_1615


 56 60  0  0  0  0  0  0  0  0999 V2000
   26.0890    0.1799  -43.2406 C   0  0  0  0  0  0  0  0  0  0  0  0
   26.7585    1.5901  -43.2260 C   0  0  0  0  0  0  0  0  0  0  0  0
   27.5344    1.9136  -44.1321 O   0  0  0  0  0  0  0  0  0  0  0  0
   26.4931    2.4037  -42.1781 N   0  0  0  0  0  0  0  0  0  0  0  0
   25.8324    2.1301  -41.5015 H   0  0  0  0  0  0  0  0  0  0  0  0
   27.1922    3.7072  -42.0421 C   0  0  0  0  0  0  0  0  0  0  0  0
   26.5514    4.4497  -40.8398 C   0  0  0  0  0  0  0  0  0  0  0  0
   25.8916    5.4770  -41.0796 O   0  0  0  0  0  0  0  0  0  0  0  0
   26.7153    3.9438  -39.7125 O   0  0  0  0  0  0  0  0  0  0  0  0
   27.2288    3.1658  -39.6183 H   0  0  0  0  0  0  0  0  0  0  0  0
   27.0948    4.6794  -43.1960 C   0  0  0  0  0  0  0  0  0  0  0  0
   28.2519    5.4042  -43.5560 C   0  0  0  0  0  0  0  0  0  0  0  0
   29.5286    4.8908  -43.2988 C   0  0  0  0  0  0  0  0  0  0  0  0
   28.1354    6.5910  -44.2827 C   0  0  0  0  0  0  0  0  0  0  0  0
   30.6705    5.5862  -43.7104 C   0  0  0  0  0  0  0  0  0  0  0  0
   29.2631    7.2933  -44.7029 C   0  0  0  0  0  0  0  0  0  0  0  0
   30.5293    6.7829  -44.4217 C   0  0  0  0  0  0  0  0  0  0  0  0
   31.6172    7.4712  -44.8466 O   0  0  0  0  0  0  0  0  0  0  0  0
   32.4772    7.1450  -44.6677 H   0  0  0  0  0  0  0  0  0  0  0  0
   24.8581    0.0630  -44.1407 C   0  0  0  0  0  0  0  0  0  0  0  0
   24.6075   -1.3618  -44.7245 C   0  0  0  0  0  0  0  0  0  0  0  0
   24.5092   -1.7450  -45.9935 C   0  0  0  0  0  0  0  0  0  0  0  0
   24.5067   -2.4794  -43.9377 O   0  0  0  0  0  0  0  0  0  0  0  0
   24.3357   -3.6192  -44.7941 N   0  0  0  0  0  0  0  0  0  0  0  0
   24.3492   -3.0858  -46.0138 C   0  0  0  0  0  0  0  0  0  0  0  0
   24.2310   -3.8296  -47.1121 C   0  0  0  0  0  0  0  0  0  0  0  0
   23.5720   -5.0669  -47.0584 C   0  0  0  0  0  0  0  0  0  0  0  0
   23.4434   -5.8294  -48.2161 C   0  0  0  0  0  0  0  0  0  0  0  0
   23.9525   -5.3523  -49.4241 C   0  0  0  0  0  0  0  0  0  0  0  0
   24.5880   -4.1112  -49.4845 C   0  0  0  0  0  0  0  0  0  0  0  0
   24.7220   -3.3401  -48.3311 C   0  0  0  0  0  0  0  0  0  0  0  0
   27.1566   -0.8723  -43.6812 C   0  0  0  0  0  0  0  0  0  0  0  0
   29.3343   -1.6040  -42.1722 O   0  0  0  0  0  0  0  0  0  0  0  0
   27.9009   -1.8845  -42.2077 P   0  0  0  0  0  0  0  0  0  0  0  0
   27.0457   -1.6521  -41.0386 O   0  0  0  0  0  0  0  0  0  0  0  0
   27.3931   -2.1474  -40.2804 H   0  0  0  0  0  0  0  0  0  0  0  0
   27.7310   -3.6534  -42.7428 C   0  0  0  0  0  0  0  0  0  0  0  0
   26.1803   -4.7636  -41.2077 C   0  0  0  0  0  0  0  0  0  0  0  0
   27.0833   -4.8037  -40.3698 O   0  0  0  0  0  0  0  0  0  0  0  0
   26.3986   -4.1953  -42.3952 N   0  0  0  0  0  0  0  0  0  0  0  0
   25.6641   -4.1358  -43.0481 H   0  0  0  0  0  0  0  0  0  0  0  0
   25.0115   -5.4023  -40.9385 O   0  0  0  0  0  0  0  0  0  0  0  0
   24.9891   -6.8068  -40.9358 C   0  0  0  0  0  0  0  0  0  0  0  0
   24.4166   -7.2655  -42.1306 C   0  0  0  0  0  0  0  0  0  0  0  0
   24.7221   -8.5481  -42.5980 C   0  0  0  0  0  0  0  0  0  0  0  0
   24.1734   -9.0136  -43.7928 C   0  0  0  0  0  0  0  0  0  0  0  0
   23.3151   -8.2010  -44.5257 C   0  0  0  0  0  0  0  0  0  0  0  0
   23.0034   -6.9269  -44.0558 C   0  0  0  0  0  0  0  0  0  0  0  0
   23.5562   -6.4548  -42.8658 C   0  0  0  0  0  0  0  0  0  0  0  0
   27.9271   -3.8152  -44.2424 C   0  0  0  0  0  0  0  0  0  0  0  0
   27.7828   -5.1871  -44.5440 C   0  0  0  0  0  0  0  0  0  0  0  0
   28.4458   -6.1601  -43.7965 C   0  0  0  0  0  0  0  0  0  0  0  0
   28.2884   -7.5085  -44.1064 C   0  0  0  0  0  0  0  0  0  0  0  0
   27.4670   -7.9121  -45.1515 C   0  0  0  0  0  0  0  0  0  0  0  0
   26.8000   -6.9526  -45.9070 C   0  0  0  0  0  0  0  0  0  0  0  0
   26.9607   -5.6038  -45.6001 C   0  0  0  0  0  0  0  0  0  0  0  0
 45 46  1  0  0  0
 45 44  2  0  0  0
 46 47  2  0  0  0
 47 48  1  0  0  0
 48 49  2  0  0  0
 49 44  1  0  0  0
 44 43  1  0  0  0
 43 42  1  0  0  0
 42 38  1  0  0  0
 38 39  2  0  0  0
 38 40  1  0  0  0
 40 37  1  0  0  0
 37 50  1  0  0  0
 37 34  1  0  0  0
 50 51  1  0  0  0
 51 52  1  0  0  0
 51 56  2  0  0  0
 52 53  2  0  0  0
 53 54  1  0  0  0
 54 55  2  0  0  0
 55 56  1  0  0  0
 34 35  1  0  0  0
 34 33  2  0  0  0
 34 32  1  0  0  0
 32  1  1  0  0  0
  1  2  1  0  0  0
  1 20  1  0  0  0
  2  3  2  0  0  0
  2  4  1  0  0  0
  4  6  1  0  0  0
  6  7  1  0  0  0
  6 11  1  0  0  0
  7  9  1  0  0  0
  7  8  2  0  0  0
 11 12  1  0  0  0
 12 13  1  0  0  0
 12 14  2  0  0  0
 13 15  2  0  0  0
 15 17  1  0  0  0
 17 18  1  0  0  0
 17 16  2  0  0  0
 16 14  1  0  0  0
 20 21  1  0  0  0
 21 22  2  0  0  0
 21 23  1  0  0  0
 22 25  1  0  0  0
 23 24  1  0  0  0
 24 25  2  0  0  0
 25 26  1  0  0  0
 26 27  1  0  0  0
 26 31  2  0  0  0
 27 28  2  0  0  0
 28 29  1  0  0  0
 29 30  2  0  0  0
 30 31  1  0  0  0
 35 36  1  0  0  0
 40 41  1  0  0  0
  4  5  1  0  0  0
 18 19  1  0  0  0
  9 10  1  0  0  0
M  END
> <minimizedAffinity>
-10.84520

$$$$
4CA8_3ES_A_1615


 56 60  0  0  0  0  0  0  0  0999 V2000
   26.6237   -1.8326  -42.4807 C   0  0  0  0  0  0  0  0  0  0  0  0
   26.5627   -2.8893  -41.3331 C   0  0  0  0  0  0  0  0  0  0  0  0
   26.5641   -2.5194  -40.1538 O   0  0  0  0  0  0  0  0  0  0  0  0
   26.5551   -4.1971  -41.6794 N   0  0  0  0  0  0  0  0  0  0  0  0
   26.5052   -4.4513  -42.6292 H   0  0  0  0  0  0  0  0  0  0  0  0
   26.6214   -5.2519  -40.6357 C   0  0  0  0  0  0  0  0  0  0  0  0
   28.0106   -5.9322  -40.7568 C   0  0  0  0  0  0  0  0  0  0  0  0
   28.7937   -5.8230  -39.7962 O   0  0  0  0  0  0  0  0  0  0  0  0
   28.2351   -6.5734  -41.8019 O   0  0  0  0  0  0  0  0  0  0  0  0
   27.5891   -6.6053  -42.4799 H   0  0  0  0  0  0  0  0  0  0  0  0
   25.6247   -6.3858  -40.7200 C   0  0  0  0  0  0  0  0  0  0  0  0
   25.3131   -7.0883  -39.5354 C   0  0  0  0  0  0  0  0  0  0  0  0
   25.0618   -6.4033  -38.3405 C   0  0  0  0  0  0  0  0  0  0  0  0
   25.1343   -8.4728  -39.5702 C   0  0  0  0  0  0  0  0  0  0  0  0
   24.6962   -7.1013  -37.1846 C   0  0  0  0  0  0  0  0  0  0  0  0
   24.7668   -9.1818  -38.4283 C   0  0  0  0  0  0  0  0  0  0  0  0
   24.5406   -8.4908  -37.2391 C   0  0  0  0  0  0  0  0  0  0  0  0
   24.1726   -9.1924  -36.1390 O   0  0  0  0  0  0  0  0  0  0  0  0
   24.0158   -8.7467  -35.3298 H   0  0  0  0  0  0  0  0  0  0  0  0
   27.7666   -0.8230  -42.3636 C   0  0  0  0  0  0  0  0  0  0  0  0
   27.3825    0.6448  -42.7262 C   0  0  0  0  0  0  0  0  0  0  0  0
   28.0605    1.7682  -42.5136 C   0  0  0  0  0  0  0  0  0  0  0  0
   26.2378    0.9659  -43.4081 O   0  0  0  0  0  0  0  0  0  0  0  0
   26.2249    2.3857  -43.6228 N   0  0  0  0  0  0  0  0  0  0  0  0
   27.3585    2.7881  -43.0528 C   0  0  0  0  0  0  0  0  0  0  0  0
   27.7334    4.0660  -43.0494 C   0  0  0  0  0  0  0  0  0  0  0  0
   29.0783    4.4070  -43.2574 C   0  0  0  0  0  0  0  0  0  0  0  0
   29.4557    5.7471  -43.2647 C   0  0  0  0  0  0  0  0  0  0  0  0
   28.4947    6.7420  -43.0842 C   0  0  0  0  0  0  0  0  0  0  0  0
   27.1526    6.4060  -42.9003 C   0  0  0  0  0  0  0  0  0  0  0  0
   26.7644    5.0673  -42.8912 C   0  0  0  0  0  0  0  0  0  0  0  0
   26.7342   -2.5864  -43.8447 C   0  0  0  0  0  0  0  0  0  0  0  0
   24.2282   -1.7007  -44.5453 O   0  0  0  0  0  0  0  0  0  0  0  0
   25.5167   -1.9240  -45.1969 P   0  0  0  0  0  0  0  0  0  0  0  0
   26.2057   -0.8496  -45.9201 O   0  0  0  0  0  0  0  0  0  0  0  0
   25.6200   -0.4952  -46.6074 H   0  0  0  0  0  0  0  0  0  0  0  0
   25.2783   -3.3685  -46.3374 C   0  0  0  0  0  0  0  0  0  0  0  0
   25.4845   -3.1359  -48.7659 C   0  0  0  0  0  0  0  0  0  0  0  0
   24.2544   -3.1460  -48.8426 O   0  0  0  0  0  0  0  0  0  0  0  0
   26.0779   -3.2162  -47.5733 N   0  0  0  0  0  0  0  0  0  0  0  0
   27.0597   -3.1736  -47.5149 H   0  0  0  0  0  0  0  0  0  0  0  0
   26.2102   -3.1546  -49.9145 O   0  0  0  0  0  0  0  0  0  0  0  0
   27.6038   -3.3117  -49.8357 C   0  0  0  0  0  0  0  0  0  0  0  0
   28.0370   -4.1507  -50.8721 C   0  0  0  0  0  0  0  0  0  0  0  0
   27.6004   -3.9182  -52.1806 C   0  0  0  0  0  0  0  0  0  0  0  0
   28.0094   -4.7530  -53.2204 C   0  0  0  0  0  0  0  0  0  0  0  0
   28.8581   -5.8231  -52.9587 C   0  0  0  0  0  0  0  0  0  0  0  0
   29.3006   -6.0496  -51.6570 C   0  0  0  0  0  0  0  0  0  0  0  0
   28.8876   -5.2221  -50.6134 C   0  0  0  0  0  0  0  0  0  0  0  0
   25.6737   -4.6824  -45.6813 C   0  0  0  0  0  0  0  0  0  0  0  0
   24.4838   -5.3611  -45.3388 C   0  0  0  0  0  0  0  0  0  0  0  0
   24.1581   -5.6111  -44.0059 C   0  0  0  0  0  0  0  0  0  0  0  0
   22.9784   -6.2786  -43.6871 C   0  0  0  0  0  0  0  0  0  0  0  0
   22.1021   -6.6982  -44.6801 C   0  0  0  0  0  0  0  0  0  0  0  0
   22.4144   -6.4571  -46.0145 C   0  0  0  0  0  0  0  0  0  0  0  0
   23.5962   -5.7935  -46.3338 C   0  0  0  0  0  0  0  0  0  0  0  0
 45 46  1  0  0  0
 45 44  2  0  0  0
 46 47  2  0  0  0
 47 48  1  0  0  0
 48 49  2  0  0  0
 49 44  1  0  0  0
 44 43  1  0  0  0
 43 42  1  0  0  0
 42 38  1  0  0  0
 38 39  2  0  0  0
 38 40  1  0  0  0
 40 37  1  0  0  0
 37 50  1  0  0  0
 37 34  1  0  0  0
 50 51  1  0  0  0
 51 52  1  0  0  0
 51 56  2  0  0  0
 52 53  2  0  0  0
 53 54  1  0  0  0
 54 55  2  0  0  0
 55 56  1  0  0  0
 34 35  1  0  0  0
 34 33  2  0  0  0
 34 32  1  0  0  0
 32  1  1  0  0  0
  1  2  1  0  0  0
  1 20  1  0  0  0
  2  3  2  0  0  0
  2  4  1  0  0  0
  4  6  1  0  0  0
  6  7  1  0  0  0
  6 11  1  0  0  0
  7  9  1  0  0  0
  7  8  2  0  0  0
 11 12  1  0  0  0
 12 13  1  0  0  0
 12 14  2  0  0  0
 13 15  2  0  0  0
 15 17  1  0  0  0
 17 18  1  0  0  0
 17 16  2  0  0  0
 16 14  1  0  0  0
 20 21  1  0  0  0
 21 22  2  0  0  0
 21 23  1  0  0  0
 22 25  1  0  0  0
 23 24  1  0  0  0
 24 25  2  0  0  0
 25 26  1  0  0  0
 26 27  1  0  0  0
 26 31  2  0  0  0
 27 28  2  0  0  0
 28 29  1  0  0  0
 29 30  2  0  0  0
 30 31  1  0  0  0
 35 36  1  0  0  0
 40 41  1  0  0  0
  4  5  1  0  0  0
 18 19  1  0  0  0
  9 10  1  0  0  0
M  END
> <minimizedAffinity>
-10.66865

$$$$
4CA8_3ES_A_1615


 56 60  0  0  0  0  0  0  0  0999 V2000
   27.3578    7.1856  -41.9041 C   0  0  0  0  0  0  0  0  0  0  0  0
   27.0172    8.2270  -43.0162 C   0  0  0  0  0  0  0  0  0  0  0  0
   25.8405    8.4173  -43.3429 O   0  0  0  0  0  0  0  0  0  0  0  0
   28.0465    8.8617  -43.6228 N   0  0  0  0  0  0  0  0  0  0  0  0
   28.9662    8.7197  -43.3016 H   0  0  0  0  0  0  0  0  0  0  0  0
   27.7978    9.7715  -44.7703 C   0  0  0  0  0  0  0  0  0  0  0  0
   29.1816   10.2085  -45.3193 C   0  0  0  0  0  0  0  0  0  0  0  0
   30.1848    9.9510  -44.6298 O   0  0  0  0  0  0  0  0  0  0  0  0
   29.1959   10.7617  -46.4361 O   0  0  0  0  0  0  0  0  0  0  0  0
   28.3921   10.9198  -46.8910 H   0  0  0  0  0  0  0  0  0  0  0  0
   27.0633   11.0641  -44.4944 C   0  0  0  0  0  0  0  0  0  0  0  0
   27.6330   11.9707  -43.5740 C   0  0  0  0  0  0  0  0  0  0  0  0
   27.7710   11.6295  -42.2232 C   0  0  0  0  0  0  0  0  0  0  0  0
   28.1763   13.1756  -44.0247 C   0  0  0  0  0  0  0  0  0  0  0  0
   28.3894   12.5085  -41.3278 C   0  0  0  0  0  0  0  0  0  0  0  0
   28.7985   14.0600  -43.1459 C   0  0  0  0  0  0  0  0  0  0  0  0
   28.9104   13.7186  -41.7992 C   0  0  0  0  0  0  0  0  0  0  0  0
   29.5283   14.5837  -40.9579 O   0  0  0  0  0  0  0  0  0  0  0  0
   29.6137   14.3730  -40.0489 H   0  0  0  0  0  0  0  0  0  0  0  0
   27.2481    7.7151  -40.4734 C   0  0  0  0  0  0  0  0  0  0  0  0
   28.4334    8.6214  -40.0186 C   0  0  0  0  0  0  0  0  0  0  0  0
   28.4999    9.4682  -38.9961 C   0  0  0  0  0  0  0  0  0  0  0  0
   29.6574    8.6080  -40.6351 O   0  0  0  0  0  0  0  0  0  0  0  0
   30.5250    9.5118  -39.9334 N   0  0  0  0  0  0  0  0  0  0  0  0
   29.7472    9.9849  -38.9622 C   0  0  0  0  0  0  0  0  0  0  0  0
   30.1926   10.8604  -38.0630 C   0  0  0  0  0  0  0  0  0  0  0  0
   30.1738   10.5400  -36.6973 C   0  0  0  0  0  0  0  0  0  0  0  0
   30.6543   11.4584  -35.7677 C   0  0  0  0  0  0  0  0  0  0  0  0
   31.1677   12.6817  -36.1991 C   0  0  0  0  0  0  0  0  0  0  0  0
   31.2088   12.9931  -37.5590 C   0  0  0  0  0  0  0  0  0  0  0  0
   30.7301   12.0806  -38.4976 C   0  0  0  0  0  0  0  0  0  0  0  0
   26.4161    5.9507  -42.0746 C   0  0  0  0  0  0  0  0  0  0  0  0
   28.2085    4.7226  -40.3912 O   0  0  0  0  0  0  0  0  0  0  0  0
   27.1080    4.3315  -41.2690 P   0  0  0  0  0  0  0  0  0  0  0  0
   25.9617    3.5665  -40.7660 O   0  0  0  0  0  0  0  0  0  0  0  0
   26.2759    2.7461  -40.3548 H   0  0  0  0  0  0  0  0  0  0  0  0
   27.8761    3.4134  -42.6872 C   0  0  0  0  0  0  0  0  0  0  0  0
   27.5210    0.9913  -42.7279 C   0  0  0  0  0  0  0  0  0  0  0  0
   28.5713    0.8555  -42.0974 O   0  0  0  0  0  0  0  0  0  0  0  0
   27.0865    2.2133  -43.0423 N   0  0  0  0  0  0  0  0  0  0  0  0
   26.2299    2.3177  -43.5163 H   0  0  0  0  0  0  0  0  0  0  0  0
   26.8860   -0.1196  -43.1851 O   0  0  0  0  0  0  0  0  0  0  0  0
   26.5720   -1.1451  -42.2781 C   0  0  0  0  0  0  0  0  0  0  0  0
   27.0631   -2.3644  -42.7658 C   0  0  0  0  0  0  0  0  0  0  0  0
   27.5331   -2.4461  -44.0809 C   0  0  0  0  0  0  0  0  0  0  0  0
   28.0102   -3.6553  -44.5865 C   0  0  0  0  0  0  0  0  0  0  0  0
   28.0220   -4.7884  -43.7804 C   0  0  0  0  0  0  0  0  0  0  0  0
   27.5625   -4.7053  -42.4676 C   0  0  0  0  0  0  0  0  0  0  0  0
   27.0773   -3.5002  -41.9609 C   0  0  0  0  0  0  0  0  0  0  0  0
   27.9943    4.2823  -43.9299 C   0  0  0  0  0  0  0  0  0  0  0  0
   29.2743    4.8780  -43.9114 C   0  0  0  0  0  0  0  0  0  0  0  0
   29.5740    5.9614  -44.7370 C   0  0  0  0  0  0  0  0  0  0  0  0
   30.8408    6.5383  -44.7023 C   0  0  0  0  0  0  0  0  0  0  0  0
   31.8232    6.0585  -43.8452 C   0  0  0  0  0  0  0  0  0  0  0  0
   31.5393    4.9773  -43.0166 C   0  0  0  0  0  0  0  0  0  0  0  0
   30.2738    4.3973  -43.0542 C   0  0  0  0  0  0  0  0  0  0  0  0
 45 46  1  0  0  0
 45 44  2  0  0  0
 46 47  2  0  0  0
 47 48  1  0  0  0
 48 49  2  0  0  0
 49 44  1  0  0  0
 44 43  1  0  0  0
 43 42  1  0  0  0
 42 38  1  0  0  0
 38 39  2  0  0  0
 38 40  1  0  0  0
 40 37  1  0  0  0
 37 50  1  0  0  0
 37 34  1  0  0  0
 50 51  1  0  0  0
 51 52  1  0  0  0
 51 56  2  0  0  0
 52 53  2  0  0  0
 53 54  1  0  0  0
 54 55  2  0  0  0
 55 56  1  0  0  0
 34 35  1  0  0  0
 34 33  2  0  0  0
 34 32  1  0  0  0
 32  1  1  0  0  0
  1  2  1  0  0  0
  1 20  1  0  0  0
  2  3  2  0  0  0
  2  4  1  0  0  0
  4  6  1  0  0  0
  6  7  1  0  0  0
  6 11  1  0  0  0
  7  9  1  0  0  0
  7  8  2  0  0  0
 11 12  1  0  0  0
 12 13  1  0  0  0
 12 14  2  0  0  0
 13 15  2  0  0  0
 15 17  1  0  0  0
 17 18  1  0  0  0
 17 16  2  0  0  0
 16 14  1  0  0  0
 20 21  1  0  0  0
 21 22  2  0  0  0
 21 23  1  0  0  0
 22 25  1  0  0  0
 23 24  1  0  0  0
 24 25  2  0  0  0
 25 26  1  0  0  0
 26 27  1  0  0  0
 26 31  2  0  0  0
 27 28  2  0  0  0
 28 29  1  0  0  0
 29 30  2  0  0  0
 30 31  1  0  0  0
 35 36  1  0  0  0
 40 41  1  0  0  0
  4  5  1  0  0  0
 18 19  1  0  0  0
  9 10  1  0  0  0
M  END
> <minimizedAffinity>
-10.63901

$$$$
