4XU1_44O_A_301
  RCSB PDB12061716173D
Coordinates from PDB:4XU1:A:301 Model:1 without hydrogens
 37 41  0  0  0  0            999 V2000
   -6.4087   -1.2414   11.9336   C 0  0  0  0  0  0  0  0  0  0  0  0
   -6.1060   -1.4759   13.2701   C 0  0  0  0  0  0  0  0  0  0  0  0
   -7.1359   -1.7335   14.1630   C 0  0  0  0  0  0  0  0  0  0  0  0
   -4.2492   -1.1204   12.1748   C 0  0  0  0  0  0  0  0  0  0  0  0
   -8.3965   -1.7552   13.6953   N 0  0  0  0  0  0  0  0  0  0  0  0
   -7.6995   -1.2724   11.5142   N 0  0  0  0  0  0  0  0  0  0  0  0
   -2.7035  -10.7734   13.9516   C 0  0  0  0  0  0  0  0  0  0  0  0
   -1.4717  -10.0227   13.6850   N 0  0  0  0  0  0  0  0  0  0  0  0
   -0.5655  -10.2339   14.6390   C 0  0  0  0  0  0  0  0  0  0  0  0
    0.5185   -9.6644   14.6962   O 0  0  0  0  0  0  0  0  0  0  0  0
   -1.0115  -11.1233   15.5401   N 0  0  0  0  0  0  0  0  0  0  0  0
   -2.3815  -11.4959   15.2616   C 0  0  0  0  0  0  0  0  0  0  0  0
   -3.2809  -10.9891   16.3912   C 0  0  0  0  0  0  0  0  0  0  0  0
   -3.8613   -9.4022   15.8635   S 0  0  0  0  0  0  0  0  0  0  0  0
   -3.9380   -9.8838   14.1583   C 0  0  0  0  0  0  0  0  0  0  0  0
   -4.0185   -8.6827   13.2172   C 0  0  0  0  0  0  0  0  0  0  0  0
   -4.2561   -9.0980   11.7611   C 0  0  0  0  0  0  0  0  0  0  0  0
   -4.5802   -7.8990   10.8672   C 0  0  0  0  0  0  0  0  0  0  0  0
   -4.7833   -8.3383    9.4158   C 0  0  0  0  0  0  0  0  0  0  0  0
   -5.2253   -7.1636    8.5701   C 0  0  0  0  0  0  0  0  0  0  0  0
   -6.2756   -6.5992    8.8165   O 0  0  0  0  0  0  0  0  0  0  0  0
   -4.4013   -6.8463    7.5848   N 0  0  0  0  0  0  0  0  0  0  0  0
   -4.7204   -5.6430    6.5690   S 0  0  0  0  0  0  0  0  0  0  0  0
   -6.0239   -5.8329    6.0023   O 0  0  0  0  0  0  0  0  0  0  0  0
   -3.7489   -5.6157    5.5164   O 0  0  0  0  0  0  0  0  0  0  0  0
   -4.8329   -4.3380    7.3253   O 0  0  0  0  0  0  0  0  0  0  0  0
   -3.7330   -3.7195    7.9661   C 0  0  0  0  0  0  0  0  0  0  0  0
   -4.2325   -2.2888    8.1012   C 0  0  0  0  0  0  0  0  0  0  0  0
   -4.7391   -2.1141    9.4237   O 0  0  0  0  0  0  0  0  0  0  0  0
   -3.0835   -1.3399    7.8141   C 0  0  0  0  0  0  0  0  0  0  0  0
   -3.5072   -0.0098    8.1866   N 0  0  0  0  0  0  0  0  0  0  0  0
   -4.0011    0.2259    9.5280   C 0  0  0  0  0  0  0  0  0  0  0  0
   -5.0957   -0.7851    9.8553   C 0  0  0  0  0  0  0  0  0  0  0  0
   -5.2573   -1.0113   11.3024   N 0  0  0  0  0  0  0  0  0  0  0  0
   -4.7586   -1.3833   13.3868   N 0  0  0  0  0  0  0  0  0  0  0  0
   -8.6676   -1.5323   12.4006   C 0  0  0  0  0  0  0  0  0  0  0  0
   -6.9049   -1.9887   15.4833   N 0  0  0  0  0  0  0  0  0  0  0  0
 25 23  2  0  0  0  0
 24 23  2  0  0  0  0
 23 26  1  0  0  0  0
 23 22  1  0  0  0  0
 26 27  1  0  0  0  0
 22 20  1  0  0  0  0
 30 28  1  0  0  0  0
 30 31  1  0  0  0  0
 27 28  1  0  0  0  0
 28 29  1  0  0  0  0
 31 32  1  0  0  0  0
 20 21  2  0  0  0  0
 20 19  1  0  0  0  0
 19 18  1  0  0  0  0
 29 33  1  0  0  0  0
 32 33  1  0  0  0  0
 33 34  1  0  0  0  0
 18 17  1  0  0  0  0
 34  1  1  0  0  0  0
 34  4  1  0  0  0  0
  6  1  2  0  0  0  0
  6 36  1  0  0  0  0
 17 16  1  0  0  0  0
  1  2  1  0  0  0  0
  4 35  2  0  0  0  0
 36  5  2  0  0  0  0
 16 15  1  0  0  0  0
  2 35  1  0  0  0  0
  2  3  2  0  0  0  0
  8  7  1  0  0  0  0
  8  9  1  0  0  0  0
  5  3  1  0  0  0  0
  7 15  1  0  0  0  0
  7 12  1  0  0  0  0
 15 14  1  0  0  0  0
  3 37  1  0  0  0  0
  9 10  2  0  0  0  0
  9 11  1  0  0  0  0
 12 11  1  0  0  0  0
 12 13  1  0  0  0  0
 14 13  1  0  0  0  0
A    1
C4
A    2
C5
A    3
C6
A    4
C8
A    5
N1
A    6
N3
A    7
CBI
A    8
NAU
A    9
CBA
A   10
OAC
A   11
NAT
A   12
CBF
A   13
CAO
A   14
SAY
A   15
CBH
A   16
CAK
A   17
CAI
A   18
CAH
A   19
CAJ
A   20
CAZ
A   21
OAB
A   22
NAV
A   23
SBK
A   24
OAD
A   25
OAE
A   26
OAW
A   27
CAN
A   28
CBE
A   29
OAX
A   30
CAL
A   31
NAS
A   32
CAM
A   33
CBG
A   34
N9
A   35
N7
A   36
C2
A   37
N6
M  END
>  <InstanceId>
4XU1_44O_A_301

>  <ChemCompId>
44O

>  <PdbId>
4XU1

>  <ChainId>
A

>  <ResidueNumber>
301

>  <InsertionCode>


>  <Model>
1

>  <AltIds>


>  <MissingHeavyAtoms>
0

>  <ObservedFormula>
C20 N9 O6 S2

>  <Name>
[(2S,6R)-6-(6-amino-9H-purin-9-yl)morpholin-2-yl]methyl {5-[(3aS,4S,6aR)-2-oxohexahydro-1H-thieno[3,4-d]imidazol-4-yl]pentanoyl}sulfamate

>  <SystematicName>
[(2S,6R)-6-(6-aminopurin-9-yl)morpholin-2-yl]methyl N-[5-[(3aS,4S,6aR)-2-oxidanylidene-1,3,3a,4,6,6a-hexahydrothieno[3,4-d]imidazol-4-yl]pentanoyl]sulfamate

>  <Synonyms>


>  <Type>
NON-POLYMER

>  <Formula>
C20 H29 N9 O6 S2

>  <MolecularWeight>
555.631

>  <ModifiedDate>
2015-08-28

>  <Parent>


>  <OneLetterCode>


>  <SubcomponentList>


>  <AmbiguousFlag>
N

>  <InChI>
InChI=1S/C20H29N9O6S2/c21-18-17-19(24-9-23-18)29(10-25-17)15-6-22-5-11(35-15)7-34-37(32,33)28-14(30)4-2-1-3-13-16-12(8-36-13)26-20(31)27-16/h9-13,15-16,22H,1-8H2,(H,28,30)(H2,21,23,24)(H2,26,27,31)/t11-,12-,13-,15+,16-/m0/s1

>  <InChIKey>
IFZKEQZLBVWVDE-RDUHTLEXSA-N

>  <SMILES>
c1nc(c2c(n1)n(cn2)[C@H]3CNC[C@H](O3)COS(=O)(=O)NC(=O)CCCC[C@H]4[C@@H]5[C@H](CS4)NC(=O)N5)N

$$$$
