4IUO_QIC_A_301
  RCSB PDB12061713043D
Coordinates from PDB:4IUO:A:301 Model:1 without hydrogens
 13 13  0  0  0  0            999 V2000
    2.1610   -0.4380    0.3850   C 0  0  0  0  0  0  0  0  0  0  0  0
    1.1580    0.5740    0.5960   O 0  0  0  0  0  0  0  0  0  0  0  0
    3.4970    0.0450    0.9220   C 0  0  0  0  0  0  0  0  0  0  0  0
    2.5190    1.2680    2.7630   O 0  0  0  0  0  0  0  0  0  0  0  0
    3.4560    0.2360    2.4320   C 0  0  0  0  0  0  0  0  0  0  0  0
    3.0150   -0.7980    4.5500   O 0  0  0  0  0  0  0  0  0  0  0  0
    3.0720   -1.0510    3.1440   C 0  0  0  0  0  0  0  0  0  0  0  0
    1.4210   -2.7990    3.2890   O 0  0  0  0  0  0  0  0  0  0  0  0
    1.7370   -1.5680    2.6240   C 0  0  0  0  0  0  0  0  0  0  0  0
    1.8510    0.2380   -1.8660   O 0  0  0  0  0  0  0  0  0  0  0  0
    1.7790   -1.7410    1.0940   C 0  0  0  0  0  0  0  0  0  0  0  0
    2.8510   -1.7050   -1.5470   O 0  0  0  0  0  0  0  0  0  0  0  0
    2.2970   -0.6540   -1.1100   C 0  0  0  0  0  0  0  0  0  0  0  0
 13  1  1  0  0  0  0
  2  1  1  0  0  0  0
  1  3  1  0  0  0  0
  1 11  1  0  0  0  0
  3  5  1  0  0  0  0
  4  5  1  0  0  0  0
  5  7  1  0  0  0  0
  7  6  1  0  0  0  0
  9  7  1  0  0  0  0
  9  8  1  0  0  0  0
 11  9  1  0  0  0  0
 10 13  2  0  0  0  0
 13 12  1  0  0  0  0
A    1
C1
A    2
O1
A    3
C2
A    4
O2
A    5
C3
A    6
O3
A    7
C4
A    8
O4
A    9
C5
A   10
O5
A   11
C6
A   12
O6
A   13
C7
M  END
>  <InstanceId>
4IUO_QIC_A_301

>  <ChemCompId>
QIC

>  <PdbId>
4IUO

>  <ChainId>
A

>  <ResidueNumber>
301

>  <InsertionCode>


>  <Model>
1

>  <AltIds>


>  <MissingHeavyAtoms>
0

>  <ObservedFormula>
C7 O6

>  <Name>
(1S,3R,4S,5R)-1,3,4,5-tetrahydroxycyclohexanecarboxylic acid

>  <SystematicName>
(3R,5R)-1,3,4,5-tetrahydroxycyclohexane-1-carboxylic acid

>  <Synonyms>
Quinic acid

>  <Type>
NON-POLYMER

>  <Formula>
C7 H12 O6

>  <MolecularWeight>
192.167

>  <ModifiedDate>
2011-06-04

>  <Parent>


>  <OneLetterCode>


>  <SubcomponentList>


>  <AmbiguousFlag>
N

>  <InChI>
InChI=1S/C7H12O6/c8-3-1-7(13,6(11)12)2-4(9)5(3)10/h3-5,8-10,13H,1-2H2,(H,11,12)/t3-,4-,5-,7+/m1/s1

>  <InChIKey>
AAWZDTNXLSGCEK-WYWMIBKRSA-N

>  <SMILES>
C1[C@H](C([C@@H](CC1(C(=O)O)O)O)O)O

$$$$
