2Q63_1UN_A_1001


 44 47  0  0  0  0  0  0  0  0999 V2000
  -11.4364   54.1194    4.2304 C   0  0  0  0  0  0  0  0  0  0  0  0
  -10.1473   54.7028    4.4896 O   0  0  0  0  0  0  0  0  0  0  0  0
   -9.9657   55.3913    3.8309 H   0  0  0  0  0  0  0  0  0  0  0  0
  -11.4479   53.4271    2.8681 C   0  0  0  0  0  0  0  0  0  0  0  0
  -12.9947   50.0500    3.5765 C   0  0  0  0  0  0  0  0  0  0  0  0
  -13.4405   49.7042    2.1527 C   0  0  0  0  0  0  0  0  0  0  0  0
  -14.4878   48.5846    2.1332 C   0  0  0  0  0  0  0  0  0  0  0  0
  -15.6301   48.8146    3.1242 C   0  0  0  0  0  0  0  0  0  0  0  0
  -15.1009   49.1289    4.5244 C   0  0  0  0  0  0  0  0  0  0  0  0
  -14.1797   50.3434    4.5040 C   0  0  0  0  0  0  0  0  0  0  0  0
  -12.4889   52.3822    2.8362 N   0  0  0  0  0  0  0  0  0  0  0  0
  -12.8619   52.0360    1.4393 C   0  0  0  0  0  0  0  0  0  0  0  0
  -13.9438   50.9501    1.4270 C   0  0  0  0  0  0  0  0  0  0  0  0
  -11.9934   51.2016    3.5754 C   0  0  0  0  0  0  0  0  0  0  0  0
  -13.3977   53.2232    0.6981 C   0  0  0  0  0  0  0  0  0  0  0  0
  -12.8515   53.4554   -0.5075 N   0  0  0  0  0  0  0  0  0  0  0  0
  -14.2836   53.8896    1.2041 O   0  0  0  0  0  0  0  0  0  0  0  0
  -12.1456   52.8381   -0.8074 H   0  0  0  0  0  0  0  0  0  0  0  0
  -13.2131   54.5418   -1.4105 C   0  0  0  0  0  0  0  0  0  0  0  0
  -12.7844   55.9025   -0.8496 C   0  0  0  0  0  0  0  0  0  0  0  0
  -14.7190   54.5384   -1.6613 C   0  0  0  0  0  0  0  0  0  0  0  0
  -12.4777   54.2928   -2.7179 C   0  0  0  0  0  0  0  0  0  0  0  0
  -12.5329   55.1665    4.3820 C   0  0  0  0  0  0  0  0  0  0  0  0
  -12.4142   55.7187    5.7189 N   0  0  0  0  0  0  0  0  0  0  0  0
  -13.3704   55.5530    6.6228 C   0  0  0  0  0  0  0  0  0  0  0  0
  -14.4269   55.0077    6.3658 O   0  0  0  0  0  0  0  0  0  0  0  0
  -11.6064   56.2272    5.9601 H   0  0  0  0  0  0  0  0  0  0  0  0
  -13.1310   56.0518    8.0122 C   0  0  0  0  0  0  0  0  0  0  0  0
  -13.1071   57.4160    8.2878 C   0  0  0  0  0  0  0  0  0  0  0  0
  -12.8738   57.8821    9.5806 C   0  0  0  0  0  0  0  0  0  0  0  0
  -12.6634   57.0052   10.6467 C   0  0  0  0  0  0  0  0  0  0  0  0
  -12.6678   55.6254   10.4532 C   0  0  0  0  0  0  0  0  0  0  0  0
  -12.9066   55.0797    9.1041 C   0  0  0  0  0  0  0  0  0  0  0  0
  -12.4600   54.7794   11.4972 O   0  0  0  0  0  0  0  0  0  0  0  0
  -12.9260   53.5875    8.8410 C   0  0  0  0  0  0  0  0  0  0  0  0
  -12.3081   55.1230   12.3556 H   0  0  0  0  0  0  0  0  0  0  0  0
  -12.5037   56.2650    3.3189 C   0  0  0  0  0  0  0  0  0  0  0  0
  -13.8412   57.4021    3.4994 S   0  0  0  0  0  0  0  0  0  0  0  0
  -13.6888   58.6466    4.6449 C   0  0  0  0  0  0  0  0  0  0  0  0
  -12.4322   59.1955    4.9144 C   0  0  0  0  0  0  0  0  0  0  0  0
  -12.2896   60.2210    5.8523 C   0  0  0  0  0  0  0  0  0  0  0  0
  -13.4137   60.6995    6.5279 C   0  0  0  0  0  0  0  0  0  0  0  0
  -14.6683   60.1554    6.2560 C   0  0  0  0  0  0  0  0  0  0  0  0
  -14.8099   59.1288    5.3180 C   0  0  0  0  0  0  0  0  0  0  0  0
  5  6  1  0  0  0
  5 10  1  0  0  0
  5 14  1  0  0  0
  6  7  1  0  0  0
  6 13  1  0  0  0
  7  8  1  0  0  0
  8  9  1  0  0  0
  9 10  1  0  0  0
 11 12  1  0  0  0
 11 14  1  0  0  0
 11  4  1  0  0  0
 12 13  1  0  0  0
 12 15  1  0  0  0
 15 16  1  0  0  0
 15 17  2  0  0  0
 16 19  1  0  0  0
 19 20  1  0  0  0
 19 21  1  0  0  0
 19 22  1  0  0  0
  4  1  1  0  0  0
  1 23  1  0  0  0
  1  2  1  0  0  0
 23 24  1  0  0  0
 23 37  1  0  0  0
 24 25  1  0  0  0
 37 38  1  0  0  0
 25 26  2  0  0  0
 25 28  1  0  0  0
 28 29  2  0  0  0
 28 33  1  0  0  0
 29 30  1  0  0  0
 30 31  2  0  0  0
 31 32  1  0  0  0
 32 33  2  0  0  0
 32 34  1  0  0  0
 33 35  1  0  0  0
 38 39  1  0  0  0
 39 40  2  0  0  0
 39 44  1  0  0  0
 40 41  1  0  0  0
 41 42  2  0  0  0
 42 43  1  0  0  0
 43 44  2  0  0  0
 16 18  1  0  0  0
  2  3  1  0  0  0
 24 27  1  0  0  0
 34 36  1  0  0  0
M  END
> <minimizedAffinity>
-11.23838

$$$$
2Q63_1UN_A_1001


 44 47  0  0  0  0  0  0  0  0999 V2000
  -11.4533   54.0886    3.8060 C   0  0  0  0  0  0  0  0  0  0  0  0
  -10.1627   53.5099    3.5440 O   0  0  0  0  0  0  0  0  0  0  0  0
   -9.9715   52.8312    4.2101 H   0  0  0  0  0  0  0  0  0  0  0  0
  -11.4583   54.7986    5.1592 C   0  0  0  0  0  0  0  0  0  0  0  0
  -13.0115   58.1645    4.4131 C   0  0  0  0  0  0  0  0  0  0  0  0
  -13.4488   58.5301    5.8346 C   0  0  0  0  0  0  0  0  0  0  0  0
  -14.4967   59.6492    5.8448 C   0  0  0  0  0  0  0  0  0  0  0  0
  -15.6448   59.4048    4.8640 C   0  0  0  0  0  0  0  0  0  0  0  0
  -15.1239   59.0712    3.4651 C   0  0  0  0  0  0  0  0  0  0  0  0
  -14.2018   57.8576    3.4970 C   0  0  0  0  0  0  0  0  0  0  0  0
  -12.4998   55.8433    5.1828 N   0  0  0  0  0  0  0  0  0  0  0  0
  -12.8646   56.2088    6.5770 C   0  0  0  0  0  0  0  0  0  0  0  0
  -13.9470   57.2941    6.5806 C   0  0  0  0  0  0  0  0  0  0  0  0
  -12.0094   57.0136    4.4242 C   0  0  0  0  0  0  0  0  0  0  0  0
  -13.3951   55.0317    7.3379 C   0  0  0  0  0  0  0  0  0  0  0  0
  -12.8579   54.8304    8.5531 N   0  0  0  0  0  0  0  0  0  0  0  0
  -14.2694   54.3458    6.8379 O   0  0  0  0  0  0  0  0  0  0  0  0
  -12.1611   55.4611    8.8464 H   0  0  0  0  0  0  0  0  0  0  0  0
  -13.2168   53.7593    9.4752 C   0  0  0  0  0  0  0  0  0  0  0  0
  -12.7705   52.3916    8.9461 C   0  0  0  0  0  0  0  0  0  0  0  0
  -14.7247   53.7533    9.7134 C   0  0  0  0  0  0  0  0  0  0  0  0
  -12.4949   54.0422   10.7833 C   0  0  0  0  0  0  0  0  0  0  0  0
  -12.5443   53.0328    3.6768 C   0  0  0  0  0  0  0  0  0  0  0  0
  -12.4328   52.4641    2.3462 N   0  0  0  0  0  0  0  0  0  0  0  0
  -13.3725   52.6575    1.4307 C   0  0  0  0  0  0  0  0  0  0  0  0
  -14.4100   53.2452    1.6713 O   0  0  0  0  0  0  0  0  0  0  0  0
  -11.6426   51.9229    2.1184 H   0  0  0  0  0  0  0  0  0  0  0  0
  -13.1378   52.1370    0.0484 C   0  0  0  0  0  0  0  0  0  0  0  0
  -13.1303   50.7690   -0.2086 C   0  0  0  0  0  0  0  0  0  0  0  0
  -12.9013   50.2826   -1.4946 C   0  0  0  0  0  0  0  0  0  0  0  0
  -12.6792   51.1423   -2.5723 C   0  0  0  0  0  0  0  0  0  0  0  0
  -12.6670   52.5245   -2.3975 C   0  0  0  0  0  0  0  0  0  0  0  0
  -12.9004   53.0914   -1.0563 C   0  0  0  0  0  0  0  0  0  0  0  0
  -12.4478   53.3536   -3.4527 O   0  0  0  0  0  0  0  0  0  0  0  0
  -12.9019   54.5871   -0.8135 C   0  0  0  0  0  0  0  0  0  0  0  0
  -12.2991   52.9965   -4.3062 H   0  0  0  0  0  0  0  0  0  0  0  0
  -12.4997   51.9485    4.7538 C   0  0  0  0  0  0  0  0  0  0  0  0
  -13.8496   50.8197    4.6187 S   0  0  0  0  0  0  0  0  0  0  0  0
  -13.7503   49.5837    3.4582 C   0  0  0  0  0  0  0  0  0  0  0  0
  -14.9049   49.1515    2.8001 C   0  0  0  0  0  0  0  0  0  0  0  0
  -14.8404   48.1373    1.8414 C   0  0  0  0  0  0  0  0  0  0  0  0
  -13.6106   47.5491    1.5408 C   0  0  0  0  0  0  0  0  0  0  0  0
  -12.4577   47.9832    2.1937 C   0  0  0  0  0  0  0  0  0  0  0  0
  -12.5232   48.9975    3.1532 C   0  0  0  0  0  0  0  0  0  0  0  0
  5  6  1  0  0  0
  5 10  1  0  0  0
  5 14  1  0  0  0
  6  7  1  0  0  0
  6 13  1  0  0  0
  7  8  1  0  0  0
  8  9  1  0  0  0
  9 10  1  0  0  0
 11 12  1  0  0  0
 11 14  1  0  0  0
 11  4  1  0  0  0
 12 13  1  0  0  0
 12 15  1  0  0  0
 15 16  1  0  0  0
 15 17  2  0  0  0
 16 19  1  0  0  0
 19 20  1  0  0  0
 19 21  1  0  0  0
 19 22  1  0  0  0
  4  1  1  0  0  0
  1 23  1  0  0  0
  1  2  1  0  0  0
 23 24  1  0  0  0
 23 37  1  0  0  0
 24 25  1  0  0  0
 37 38  1  0  0  0
 25 26  2  0  0  0
 25 28  1  0  0  0
 28 29  2  0  0  0
 28 33  1  0  0  0
 29 30  1  0  0  0
 30 31  2  0  0  0
 31 32  1  0  0  0
 32 33  2  0  0  0
 32 34  1  0  0  0
 33 35  1  0  0  0
 38 39  1  0  0  0
 39 40  2  0  0  0
 39 44  1  0  0  0
 40 41  1  0  0  0
 41 42  2  0  0  0
 42 43  1  0  0  0
 43 44  2  0  0  0
 16 18  1  0  0  0
  2  3  1  0  0  0
 24 27  1  0  0  0
 34 36  1  0  0  0
M  END
> <minimizedAffinity>
-11.19502

$$$$
2Q63_1UN_A_1001


 44 47  0  0  0  0  0  0  0  0999 V2000
  -14.2040   54.3377    2.7398 C   0  0  0  0  0  0  0  0  0  0  0  0
  -15.3655   54.2566    3.5845 O   0  0  0  0  0  0  0  0  0  0  0  0
  -15.2202   54.7841    4.3855 H   0  0  0  0  0  0  0  0  0  0  0  0
  -12.9880   53.7325    3.4402 C   0  0  0  0  0  0  0  0  0  0  0  0
  -12.7358   54.3743    7.1581 C   0  0  0  0  0  0  0  0  0  0  0  0
  -12.4503   52.9406    7.6146 C   0  0  0  0  0  0  0  0  0  0  0  0
  -12.7096   52.7513    9.1138 C   0  0  0  0  0  0  0  0  0  0  0  0
  -14.0604   53.3101    9.5641 C   0  0  0  0  0  0  0  0  0  0  0  0
  -14.2557   54.7511    9.0898 C   0  0  0  0  0  0  0  0  0  0  0  0
  -14.1321   54.8520    7.5736 C   0  0  0  0  0  0  0  0  0  0  0  0
  -13.2762   53.5235    4.8719 N   0  0  0  0  0  0  0  0  0  0  0  0
  -12.9414   52.1373    5.2920 C   0  0  0  0  0  0  0  0  0  0  0  0
  -13.2477   51.9398    6.7810 C   0  0  0  0  0  0  0  0  0  0  0  0
  -12.5227   54.5262    5.6546 C   0  0  0  0  0  0  0  0  0  0  0  0
  -13.7296   51.1198    4.5245 C   0  0  0  0  0  0  0  0  0  0  0  0
  -13.0103   50.1719    3.9000 N   0  0  0  0  0  0  0  0  0  0  0  0
  -14.9460   51.1925    4.5167 O   0  0  0  0  0  0  0  0  0  0  0  0
  -12.0309   50.2197    3.9888 H   0  0  0  0  0  0  0  0  0  0  0  0
  -13.5535   49.0788    3.1022 C   0  0  0  0  0  0  0  0  0  0  0  0
  -12.4383   48.2462    2.4598 C   0  0  0  0  0  0  0  0  0  0  0  0
  -14.4776   49.6275    2.0179 C   0  0  0  0  0  0  0  0  0  0  0  0
  -14.3479   48.1933    4.0493 C   0  0  0  0  0  0  0  0  0  0  0  0
  -13.9808   55.7733    2.2808 C   0  0  0  0  0  0  0  0  0  0  0  0
  -14.0423   56.6139    3.4623 N   0  0  0  0  0  0  0  0  0  0  0  0
  -14.2375   57.9224    3.3704 C   0  0  0  0  0  0  0  0  0  0  0  0
  -14.2931   58.5027    2.3028 O   0  0  0  0  0  0  0  0  0  0  0  0
  -13.9369   56.2039    4.3511 H   0  0  0  0  0  0  0  0  0  0  0  0
  -14.4025   58.7080    4.6322 C   0  0  0  0  0  0  0  0  0  0  0  0
  -15.6684   59.0069    5.1278 C   0  0  0  0  0  0  0  0  0  0  0  0
  -15.8234   59.7479    6.2983 C   0  0  0  0  0  0  0  0  0  0  0  0
  -14.7221   60.2110    7.0212 C   0  0  0  0  0  0  0  0  0  0  0  0
  -13.4218   59.9575    6.5897 C   0  0  0  0  0  0  0  0  0  0  0  0
  -13.2021   59.1810    5.3553 C   0  0  0  0  0  0  0  0  0  0  0  0
  -12.3557   60.4144    7.2993 O   0  0  0  0  0  0  0  0  0  0  0  0
  -11.8086   58.8740    4.8455 C   0  0  0  0  0  0  0  0  0  0  0  0
  -12.4920   60.9081    8.0839 H   0  0  0  0  0  0  0  0  0  0  0  0
  -12.6799   55.9904    1.5074 C   0  0  0  0  0  0  0  0  0  0  0  0
  -12.9677   56.3026   -0.2056 S   0  0  0  0  0  0  0  0  0  0  0  0
  -13.4059   54.9958   -1.1979 C   0  0  0  0  0  0  0  0  0  0  0  0
  -12.4621   54.4255   -2.0562 C   0  0  0  0  0  0  0  0  0  0  0  0
  -12.8056   53.3489   -2.8775 C   0  0  0  0  0  0  0  0  0  0  0  0
  -14.1053   52.8405   -2.8414 C   0  0  0  0  0  0  0  0  0  0  0  0
  -15.0460   53.4062   -1.9818 C   0  0  0  0  0  0  0  0  0  0  0  0
  -14.7017   54.4838   -1.1609 C   0  0  0  0  0  0  0  0  0  0  0  0
  5  6  1  0  0  0
  5 10  1  0  0  0
  5 14  1  0  0  0
  6  7  1  0  0  0
  6 13  1  0  0  0
  7  8  1  0  0  0
  8  9  1  0  0  0
  9 10  1  0  0  0
 11 12  1  0  0  0
 11 14  1  0  0  0
 11  4  1  0  0  0
 12 13  1  0  0  0
 12 15  1  0  0  0
 15 16  1  0  0  0
 15 17  2  0  0  0
 16 19  1  0  0  0
 19 20  1  0  0  0
 19 21  1  0  0  0
 19 22  1  0  0  0
  4  1  1  0  0  0
  1 23  1  0  0  0
  1  2  1  0  0  0
 23 24  1  0  0  0
 23 37  1  0  0  0
 24 25  1  0  0  0
 37 38  1  0  0  0
 25 26  2  0  0  0
 25 28  1  0  0  0
 28 29  2  0  0  0
 28 33  1  0  0  0
 29 30  1  0  0  0
 30 31  2  0  0  0
 31 32  1  0  0  0
 32 33  2  0  0  0
 32 34  1  0  0  0
 33 35  1  0  0  0
 38 39  1  0  0  0
 39 40  2  0  0  0
 39 44  1  0  0  0
 40 41  1  0  0  0
 41 42  2  0  0  0
 42 43  1  0  0  0
 43 44  2  0  0  0
 16 18  1  0  0  0
  2  3  1  0  0  0
 24 27  1  0  0  0
 34 36  1  0  0  0
M  END
> <minimizedAffinity>
-10.77150

$$$$
2Q63_1UN_A_1001


 44 47  0  0  0  0  0  0  0  0999 V2000
  -12.5522   52.4066    3.8920 C   0  0  0  0  0  0  0  0  0  0  0  0
  -11.4396   52.9363    3.1498 O   0  0  0  0  0  0  0  0  0  0  0  0
  -11.5539   53.8926    3.0342 H   0  0  0  0  0  0  0  0  0  0  0  0
  -13.8541   52.5945    3.1141 C   0  0  0  0  0  0  0  0  0  0  0  0
  -13.9851   54.6990   -0.0248 C   0  0  0  0  0  0  0  0  0  0  0  0
  -14.3952   53.6031   -1.0129 C   0  0  0  0  0  0  0  0  0  0  0  0
  -14.1302   54.0104   -2.4671 C   0  0  0  0  0  0  0  0  0  0  0  0
  -12.7262   54.5769   -2.6850 C   0  0  0  0  0  0  0  0  0  0  0  0
  -12.4056   55.6805   -1.6756 C   0  0  0  0  0  0  0  0  0  0  0  0
  -12.5439   55.1734   -0.2445 C   0  0  0  0  0  0  0  0  0  0  0  0
  -13.5634   52.9542    1.7132 N   0  0  0  0  0  0  0  0  0  0  0  0
  -14.0188   51.8914    0.7786 C   0  0  0  0  0  0  0  0  0  0  0  0
  -13.7080   52.2829   -0.6705 C   0  0  0  0  0  0  0  0  0  0  0  0
  -14.2075   54.2515    1.4171 C   0  0  0  0  0  0  0  0  0  0  0  0
  -13.3411   50.5835    1.0539 C   0  0  0  0  0  0  0  0  0  0  0  0
  -13.9621   49.7759    1.9304 N   0  0  0  0  0  0  0  0  0  0  0  0
  -12.3006   50.3200    0.4769 O   0  0  0  0  0  0  0  0  0  0  0  0
  -14.8031   50.1027    2.3244 H   0  0  0  0  0  0  0  0  0  0  0  0
  -13.4992   48.4579    2.3487 C   0  0  0  0  0  0  0  0  0  0  0  0
  -13.4761   47.4734    1.1740 C   0  0  0  0  0  0  0  0  0  0  0  0
  -14.3937   47.9143    3.4600 C   0  0  0  0  0  0  0  0  0  0  0  0
  -12.0830   48.6334    2.8738 C   0  0  0  0  0  0  0  0  0  0  0  0
  -12.5941   53.0118    5.2897 C   0  0  0  0  0  0  0  0  0  0  0  0
  -13.3328   54.2574    5.1938 N   0  0  0  0  0  0  0  0  0  0  0  0
  -12.7167   55.4118    4.9782 C   0  0  0  0  0  0  0  0  0  0  0  0
  -11.5050   55.5085    4.9310 O   0  0  0  0  0  0  0  0  0  0  0  0
  -14.3124   54.2451    5.2910 H   0  0  0  0  0  0  0  0  0  0  0  0
  -13.5502   56.6373    4.7784 C   0  0  0  0  0  0  0  0  0  0  0  0
  -13.8836   57.0744    3.4996 C   0  0  0  0  0  0  0  0  0  0  0  0
  -14.6519   58.2223    3.3121 C   0  0  0  0  0  0  0  0  0  0  0  0
  -15.1220   58.9716    4.3925 C   0  0  0  0  0  0  0  0  0  0  0  0
  -14.8286   58.6030    5.7038 C   0  0  0  0  0  0  0  0  0  0  0  0
  -14.0164   57.3986    5.9577 C   0  0  0  0  0  0  0  0  0  0  0  0
  -15.2892   59.3401    6.7494 O   0  0  0  0  0  0  0  0  0  0  0  0
  -13.6731   56.9520    7.3644 C   0  0  0  0  0  0  0  0  0  0  0  0
  -15.8055   60.1059    6.5914 H   0  0  0  0  0  0  0  0  0  0  0  0
  -13.1878   52.0904    6.3556 C   0  0  0  0  0  0  0  0  0  0  0  0
  -12.4686   52.3599    7.9445 S   0  0  0  0  0  0  0  0  0  0  0  0
  -13.2624   53.4093    9.0182 C   0  0  0  0  0  0  0  0  0  0  0  0
  -14.6120   53.7153    8.8235 C   0  0  0  0  0  0  0  0  0  0  0  0
  -15.2804   54.5751    9.6984 C   0  0  0  0  0  0  0  0  0  0  0  0
  -14.5918   55.1354   10.7759 C   0  0  0  0  0  0  0  0  0  0  0  0
  -13.2465   54.8267   10.9733 C   0  0  0  0  0  0  0  0  0  0  0  0
  -12.5783   53.9670   10.0969 C   0  0  0  0  0  0  0  0  0  0  0  0
  5  6  1  0  0  0
  5 10  1  0  0  0
  5 14  1  0  0  0
  6  7  1  0  0  0
  6 13  1  0  0  0
  7  8  1  0  0  0
  8  9  1  0  0  0
  9 10  1  0  0  0
 11 12  1  0  0  0
 11 14  1  0  0  0
 11  4  1  0  0  0
 12 13  1  0  0  0
 12 15  1  0  0  0
 15 16  1  0  0  0
 15 17  2  0  0  0
 16 19  1  0  0  0
 19 20  1  0  0  0
 19 21  1  0  0  0
 19 22  1  0  0  0
  4  1  1  0  0  0
  1 23  1  0  0  0
  1  2  1  0  0  0
 23 24  1  0  0  0
 23 37  1  0  0  0
 24 25  1  0  0  0
 37 38  1  0  0  0
 25 26  2  0  0  0
 25 28  1  0  0  0
 28 29  2  0  0  0
 28 33  1  0  0  0
 29 30  1  0  0  0
 30 31  2  0  0  0
 31 32  1  0  0  0
 32 33  2  0  0  0
 32 34  1  0  0  0
 33 35  1  0  0  0
 38 39  1  0  0  0
 39 40  2  0  0  0
 39 44  1  0  0  0
 40 41  1  0  0  0
 41 42  2  0  0  0
 42 43  1  0  0  0
 43 44  2  0  0  0
 16 18  1  0  0  0
  2  3  1  0  0  0
 24 27  1  0  0  0
 34 36  1  0  0  0
M  END
> <minimizedAffinity>
-10.56480

$$$$
2Q63_1UN_A_1001


 44 47  0  0  0  0  0  0  0  0999 V2000
  -14.0005   54.6774    2.7686 C   0  0  0  0  0  0  0  0  0  0  0  0
  -15.2786   54.9309    3.3783 O   0  0  0  0  0  0  0  0  0  0  0  0
  -15.1781   55.5995    4.0737 H   0  0  0  0  0  0  0  0  0  0  0  0
  -13.0250   54.0942    3.7902 C   0  0  0  0  0  0  0  0  0  0  0  0
  -14.0000   50.6606    2.5419 C   0  0  0  0  0  0  0  0  0  0  0  0
  -14.7188   50.1606    3.7984 C   0  0  0  0  0  0  0  0  0  0  0  0
  -14.8785   48.6358    3.8020 C   0  0  0  0  0  0  0  0  0  0  0  0
  -13.5819   47.8960    3.4684 C   0  0  0  0  0  0  0  0  0  0  0  0
  -12.9421   48.4381    2.1892 C   0  0  0  0  0  0  0  0  0  0  0  0
  -12.6715   49.9342    2.3014 C   0  0  0  0  0  0  0  0  0  0  0  0
  -13.1462   52.6244    3.8291 N   0  0  0  0  0  0  0  0  0  0  0  0
  -13.8914   52.1771    5.0353 C   0  0  0  0  0  0  0  0  0  0  0  0
  -14.0064   50.6487    5.0580 C   0  0  0  0  0  0  0  0  0  0  0  0
  -13.8046   52.1735    2.5846 C   0  0  0  0  0  0  0  0  0  0  0  0
  -13.2073   52.6027    6.2990 C   0  0  0  0  0  0  0  0  0  0  0  0
  -13.9933   53.1793    7.2240 N   0  0  0  0  0  0  0  0  0  0  0  0
  -12.0127   52.3984    6.4261 O   0  0  0  0  0  0  0  0  0  0  0  0
  -14.9470   53.2817    7.0025 H   0  0  0  0  0  0  0  0  0  0  0  0
  -13.5568   53.6664    8.5273 C   0  0  0  0  0  0  0  0  0  0  0  0
  -12.6416   54.8886    8.3907 C   0  0  0  0  0  0  0  0  0  0  0  0
  -12.8294   52.5594    9.2862 C   0  0  0  0  0  0  0  0  0  0  0  0
  -14.8089   54.0699    9.2900 C   0  0  0  0  0  0  0  0  0  0  0  0
  -13.4777   55.9369    2.0889 C   0  0  0  0  0  0  0  0  0  0  0  0
  -12.9872   56.8147    3.1353 N   0  0  0  0  0  0  0  0  0  0  0  0
  -13.7708   57.7247    3.6982 C   0  0  0  0  0  0  0  0  0  0  0  0
  -14.9080   57.9333    3.3204 O   0  0  0  0  0  0  0  0  0  0  0  0
  -12.0526   56.7329    3.4338 H   0  0  0  0  0  0  0  0  0  0  0  0
  -13.2314   58.5164    4.8466 C   0  0  0  0  0  0  0  0  0  0  0  0
  -12.5137   59.6895    4.6317 C   0  0  0  0  0  0  0  0  0  0  0  0
  -12.0017   60.4227    5.7010 C   0  0  0  0  0  0  0  0  0  0  0  0
  -12.1933   60.0172    7.0233 C   0  0  0  0  0  0  0  0  0  0  0  0
  -12.8971   58.8525    7.3224 C   0  0  0  0  0  0  0  0  0  0  0  0
  -13.4568   58.0380    6.2278 C   0  0  0  0  0  0  0  0  0  0  0  0
  -13.0767   58.4646    8.6133 O   0  0  0  0  0  0  0  0  0  0  0  0
  -14.2338   56.7658    6.4994 C   0  0  0  0  0  0  0  0  0  0  0  0
  -12.7224   58.9800    9.3110 H   0  0  0  0  0  0  0  0  0  0  0  0
  -12.4076   55.6798    1.0276 C   0  0  0  0  0  0  0  0  0  0  0  0
  -13.0941   55.5514   -0.5931 S   0  0  0  0  0  0  0  0  0  0  0  0
  -13.3053   54.0020   -1.2557 C   0  0  0  0  0  0  0  0  0  0  0  0
  -14.1560   53.8220   -2.3497 C   0  0  0  0  0  0  0  0  0  0  0  0
  -14.3394   52.5546   -2.9079 C   0  0  0  0  0  0  0  0  0  0  0  0
  -13.6676   51.4577   -2.3653 C   0  0  0  0  0  0  0  0  0  0  0  0
  -12.8151   51.6375   -1.2768 C   0  0  0  0  0  0  0  0  0  0  0  0
  -12.6328   52.9058   -0.7183 C   0  0  0  0  0  0  0  0  0  0  0  0
  5  6  1  0  0  0
  5 10  1  0  0  0
  5 14  1  0  0  0
  6  7  1  0  0  0
  6 13  1  0  0  0
  7  8  1  0  0  0
  8  9  1  0  0  0
  9 10  1  0  0  0
 11 12  1  0  0  0
 11 14  1  0  0  0
 11  4  1  0  0  0
 12 13  1  0  0  0
 12 15  1  0  0  0
 15 16  1  0  0  0
 15 17  2  0  0  0
 16 19  1  0  0  0
 19 20  1  0  0  0
 19 21  1  0  0  0
 19 22  1  0  0  0
  4  1  1  0  0  0
  1 23  1  0  0  0
  1  2  1  0  0  0
 23 24  1  0  0  0
 23 37  1  0  0  0
 24 25  1  0  0  0
 37 38  1  0  0  0
 25 26  2  0  0  0
 25 28  1  0  0  0
 28 29  2  0  0  0
 28 33  1  0  0  0
 29 30  1  0  0  0
 30 31  2  0  0  0
 31 32  1  0  0  0
 32 33  2  0  0  0
 32 34  1  0  0  0
 33 35  1  0  0  0
 38 39  1  0  0  0
 39 40  2  0  0  0
 39 44  1  0  0  0
 40 41  1  0  0  0
 41 42  2  0  0  0
 42 43  1  0  0  0
 43 44  2  0  0  0
 16 18  1  0  0  0
  2  3  1  0  0  0
 24 27  1  0  0  0
 34 36  1  0  0  0
M  END
> <minimizedAffinity>
-10.26429

$$$$
2Q63_1UN_A_1001


 44 47  0  0  0  0  0  0  0  0999 V2000
  -12.7507   55.1766    3.5566 C   0  0  0  0  0  0  0  0  0  0  0  0
  -11.4075   54.8266    3.1789 O   0  0  0  0  0  0  0  0  0  0  0  0
  -11.4215   54.3642    2.3264 H   0  0  0  0  0  0  0  0  0  0  0  0
  -13.5953   53.9196    3.7613 C   0  0  0  0  0  0  0  0  0  0  0  0
  -13.1085   54.4569    7.4725 C   0  0  0  0  0  0  0  0  0  0  0  0
  -12.5549   53.0742    7.8289 C   0  0  0  0  0  0  0  0  0  0  0  0
  -12.6411   52.7895    9.3329 C   0  0  0  0  0  0  0  0  0  0  0  0
  -14.0170   53.1007    9.9243 C   0  0  0  0  0  0  0  0  0  0  0  0
  -14.4848   54.5061    9.5429 C   0  0  0  0  0  0  0  0  0  0  0  0
  -14.5193   54.6819    8.0290 C   0  0  0  0  0  0  0  0  0  0  0  0
  -13.7129   53.6134    5.1997 N   0  0  0  0  0  0  0  0  0  0  0  0
  -13.1218   52.2869    5.5181 C   0  0  0  0  0  0  0  0  0  0  0  0
  -13.2539   51.9869    7.0155 C   0  0  0  0  0  0  0  0  0  0  0  0
  -13.0621   54.6971    5.9662 C   0  0  0  0  0  0  0  0  0  0  0  0
  -13.8031   51.1822    4.7689 C   0  0  0  0  0  0  0  0  0  0  0  0
  -12.9923   50.3243    4.1266 N   0  0  0  0  0  0  0  0  0  0  0  0
  -15.0194   51.1113    4.7904 O   0  0  0  0  0  0  0  0  0  0  0  0
  -12.0236   50.4871    4.1919 H   0  0  0  0  0  0  0  0  0  0  0  0
  -13.4222   49.1732    3.3412 C   0  0  0  0  0  0  0  0  0  0  0  0
  -14.3833   49.5869    2.2210 C   0  0  0  0  0  0  0  0  0  0  0  0
  -14.0951   48.1421    4.2437 C   0  0  0  0  0  0  0  0  0  0  0  0
  -12.1718   48.5697    2.7213 C   0  0  0  0  0  0  0  0  0  0  0  0
  -13.3506   56.1461    2.5457 C   0  0  0  0  0  0  0  0  0  0  0  0
  -13.7461   55.3653    1.3879 N   0  0  0  0  0  0  0  0  0  0  0  0
  -12.9581   55.2543    0.3269 C   0  0  0  0  0  0  0  0  0  0  0  0
  -11.9073   55.8586    0.2257 O   0  0  0  0  0  0  0  0  0  0  0  0
  -14.6180   54.9083    1.3902 H   0  0  0  0  0  0  0  0  0  0  0  0
  -13.3804   54.3431   -0.7812 C   0  0  0  0  0  0  0  0  0  0  0  0
  -13.8780   54.8542   -1.9765 C   0  0  0  0  0  0  0  0  0  0  0  0
  -14.2815   54.0055   -3.0061 C   0  0  0  0  0  0  0  0  0  0  0  0
  -14.1962   52.6171   -2.8844 C   0  0  0  0  0  0  0  0  0  0  0  0
  -13.7129   52.0268   -1.7186 C   0  0  0  0  0  0  0  0  0  0  0  0
  -13.2760   52.8793   -0.5973 C   0  0  0  0  0  0  0  0  0  0  0  0
  -13.6356   50.6737   -1.6086 O   0  0  0  0  0  0  0  0  0  0  0  0
  -12.7385   52.2877    0.6900 C   0  0  0  0  0  0  0  0  0  0  0  0
  -13.9124   50.1293   -2.3192 H   0  0  0  0  0  0  0  0  0  0  0  0
  -14.5163   56.9750    3.0856 C   0  0  0  0  0  0  0  0  0  0  0  0
  -14.0219   58.6102    3.5286 S   0  0  0  0  0  0  0  0  0  0  0  0
  -13.3792   58.8627    5.0801 C   0  0  0  0  0  0  0  0  0  0  0  0
  -12.3395   59.7784    5.2631 C   0  0  0  0  0  0  0  0  0  0  0  0
  -11.8008   59.9994    6.5330 C   0  0  0  0  0  0  0  0  0  0  0  0
  -12.3051   59.2962    7.6285 C   0  0  0  0  0  0  0  0  0  0  0  0
  -13.3455   58.3859    7.4472 C   0  0  0  0  0  0  0  0  0  0  0  0
  -13.8834   58.1649    6.1762 C   0  0  0  0  0  0  0  0  0  0  0  0
  5  6  1  0  0  0
  5 10  1  0  0  0
  5 14  1  0  0  0
  6  7  1  0  0  0
  6 13  1  0  0  0
  7  8  1  0  0  0
  8  9  1  0  0  0
  9 10  1  0  0  0
 11 12  1  0  0  0
 11 14  1  0  0  0
 11  4  1  0  0  0
 12 13  1  0  0  0
 12 15  1  0  0  0
 15 16  1  0  0  0
 15 17  2  0  0  0
 16 19  1  0  0  0
 19 20  1  0  0  0
 19 21  1  0  0  0
 19 22  1  0  0  0
  4  1  1  0  0  0
  1 23  1  0  0  0
  1  2  1  0  0  0
 23 24  1  0  0  0
 23 37  1  0  0  0
 24 25  1  0  0  0
 37 38  1  0  0  0
 25 26  2  0  0  0
 25 28  1  0  0  0
 28 29  2  0  0  0
 28 33  1  0  0  0
 29 30  1  0  0  0
 30 31  2  0  0  0
 31 32  1  0  0  0
 32 33  2  0  0  0
 32 34  1  0  0  0
 33 35  1  0  0  0
 38 39  1  0  0  0
 39 40  2  0  0  0
 39 44  1  0  0  0
 40 41  1  0  0  0
 41 42  2  0  0  0
 42 43  1  0  0  0
 43 44  2  0  0  0
 16 18  1  0  0  0
  2  3  1  0  0  0
 24 27  1  0  0  0
 34 36  1  0  0  0
M  END
> <minimizedAffinity>
-10.25822

$$$$
2Q63_1UN_A_1001


 44 47  0  0  0  0  0  0  0  0999 V2000
  -13.3059   55.8241    3.4496 C   0  0  0  0  0  0  0  0  0  0  0  0
  -14.5952   55.2204    3.6560 O   0  0  0  0  0  0  0  0  0  0  0  0
  -14.5588   54.6370    4.4301 H   0  0  0  0  0  0  0  0  0  0  0  0
  -12.2577   54.7571    3.1369 C   0  0  0  0  0  0  0  0  0  0  0  0
  -12.7954   51.1829    4.2480 C   0  0  0  0  0  0  0  0  0  0  0  0
  -12.7443   50.5102    2.8731 C   0  0  0  0  0  0  0  0  0  0  0  0
  -13.3500   49.1020    2.8982 C   0  0  0  0  0  0  0  0  0  0  0  0
  -14.7143   49.0481    3.5876 C   0  0  0  0  0  0  0  0  0  0  0  0
  -14.6732   49.7177    4.9622 C   0  0  0  0  0  0  0  0  0  0  0  0
  -14.2030   51.1639    4.8551 C   0  0  0  0  0  0  0  0  0  0  0  0
  -12.8779   53.4184    3.1353 N   0  0  0  0  0  0  0  0  0  0  0  0
  -12.7666   52.7748    1.7998 C   0  0  0  0  0  0  0  0  0  0  0  0
  -13.4163   51.3865    1.8182 C   0  0  0  0  0  0  0  0  0  0  0  0
  -12.2368   52.6018    4.1878 C   0  0  0  0  0  0  0  0  0  0  0  0
  -13.4461   53.5833    0.7365 C   0  0  0  0  0  0  0  0  0  0  0  0
  -12.7175   53.8312   -0.3651 N   0  0  0  0  0  0  0  0  0  0  0  0
  -14.5941   53.9520    0.9127 O   0  0  0  0  0  0  0  0  0  0  0  0
  -11.8015   53.4713   -0.3883 H   0  0  0  0  0  0  0  0  0  0  0  0
  -13.1653   54.5867   -1.5292 C   0  0  0  0  0  0  0  0  0  0  0  0
  -14.6793   54.4577   -1.7322 C   0  0  0  0  0  0  0  0  0  0  0  0
  -12.4343   54.1074   -2.7807 C   0  0  0  0  0  0  0  0  0  0  0  0
  -12.8249   56.0453   -1.2668 C   0  0  0  0  0  0  0  0  0  0  0  0
  -12.9346   56.7017    4.6385 C   0  0  0  0  0  0  0  0  0  0  0  0
  -12.6162   55.8140    5.7417 N   0  0  0  0  0  0  0  0  0  0  0  0
  -13.4289   55.6843    6.7816 C   0  0  0  0  0  0  0  0  0  0  0  0
  -14.4361   56.3536    6.9128 O   0  0  0  0  0  0  0  0  0  0  0  0
  -11.7787   55.2969    5.7175 H   0  0  0  0  0  0  0  0  0  0  0  0
  -13.0921   54.6684    7.8261 C   0  0  0  0  0  0  0  0  0  0  0  0
  -13.1065   53.3082    7.5312 C   0  0  0  0  0  0  0  0  0  0  0  0
  -12.8028   52.3600    8.5068 C   0  0  0  0  0  0  0  0  0  0  0  0
  -12.4662   52.7337    9.8094 C   0  0  0  0  0  0  0  0  0  0  0  0
  -12.4331   54.0748   10.1858 C   0  0  0  0  0  0  0  0  0  0  0  0
  -12.7496   55.1183    9.1928 C   0  0  0  0  0  0  0  0  0  0  0  0
  -12.1063   54.4290   11.4573 O   0  0  0  0  0  0  0  0  0  0  0  0
  -12.7234   56.5907    9.5496 C   0  0  0  0  0  0  0  0  0  0  0  0
  -11.9047   53.7684   12.0905 H   0  0  0  0  0  0  0  0  0  0  0  0
  -11.7945   57.6826    4.3634 C   0  0  0  0  0  0  0  0  0  0  0  0
  -12.2448   59.3482    4.7346 S   0  0  0  0  0  0  0  0  0  0  0  0
  -13.4076   59.6158    5.9431 C   0  0  0  0  0  0  0  0  0  0  0  0
  -14.7396   59.8469    5.5894 C   0  0  0  0  0  0  0  0  0  0  0  0
  -15.7089   60.0669    6.5711 C   0  0  0  0  0  0  0  0  0  0  0  0
  -15.3415   60.0581    7.9179 C   0  0  0  0  0  0  0  0  0  0  0  0
  -14.0135   59.8229    8.2715 C   0  0  0  0  0  0  0  0  0  0  0  0
  -13.0442   59.6037    7.2886 C   0  0  0  0  0  0  0  0  0  0  0  0
  5  6  1  0  0  0
  5 10  1  0  0  0
  5 14  1  0  0  0
  6  7  1  0  0  0
  6 13  1  0  0  0
  7  8  1  0  0  0
  8  9  1  0  0  0
  9 10  1  0  0  0
 11 12  1  0  0  0
 11 14  1  0  0  0
 11  4  1  0  0  0
 12 13  1  0  0  0
 12 15  1  0  0  0
 15 16  1  0  0  0
 15 17  2  0  0  0
 16 19  1  0  0  0
 19 20  1  0  0  0
 19 21  1  0  0  0
 19 22  1  0  0  0
  4  1  1  0  0  0
  1 23  1  0  0  0
  1  2  1  0  0  0
 23 24  1  0  0  0
 23 37  1  0  0  0
 24 25  1  0  0  0
 37 38  1  0  0  0
 25 26  2  0  0  0
 25 28  1  0  0  0
 28 29  2  0  0  0
 28 33  1  0  0  0
 29 30  1  0  0  0
 30 31  2  0  0  0
 31 32  1  0  0  0
 32 33  2  0  0  0
 32 34  1  0  0  0
 33 35  1  0  0  0
 38 39  1  0  0  0
 39 40  2  0  0  0
 39 44  1  0  0  0
 40 41  1  0  0  0
 41 42  2  0  0  0
 42 43  1  0  0  0
 43 44  2  0  0  0
 16 18  1  0  0  0
  2  3  1  0  0  0
 24 27  1  0  0  0
 34 36  1  0  0  0
M  END
> <minimizedAffinity>
-10.17885

$$$$
2Q63_1UN_A_1001


 44 47  0  0  0  0  0  0  0  0999 V2000
  -12.4888   53.3045    4.3012 C   0  0  0  0  0  0  0  0  0  0  0  0
  -13.8912   53.5776    4.1336 O   0  0  0  0  0  0  0  0  0  0  0  0
  -14.0045   54.3294    3.5312 H   0  0  0  0  0  0  0  0  0  0  0  0
  -11.7856   54.4924    4.9566 C   0  0  0  0  0  0  0  0  0  0  0  0
  -13.0695   57.9853    4.2857 C   0  0  0  0  0  0  0  0  0  0  0  0
  -13.3124   58.4174    5.7348 C   0  0  0  0  0  0  0  0  0  0  0  0
  -14.2371   59.6370    5.8246 C   0  0  0  0  0  0  0  0  0  0  0  0
  -15.5029   59.4936    4.9780 C   0  0  0  0  0  0  0  0  0  0  0  0
  -15.1717   59.0853    3.5416 C   0  0  0  0  0  0  0  0  0  0  0  0
  -14.3763   57.7851    3.5095 C   0  0  0  0  0  0  0  0  0  0  0  0
  -12.7099   55.6376    5.0612 N   0  0  0  0  0  0  0  0  0  0  0  0
  -12.8840   56.0618    6.4754 C   0  0  0  0  0  0  0  0  0  0  0  0
  -13.8470   57.2512    6.5633 C   0  0  0  0  0  0  0  0  0  0  0  0
  -12.1909   56.7391    4.2228 C   0  0  0  0  0  0  0  0  0  0  0  0
  -13.4431   54.9577    7.3205 C   0  0  0  0  0  0  0  0  0  0  0  0
  -12.8012   54.7245    8.4779 N   0  0  0  0  0  0  0  0  0  0  0  0
  -14.4292   54.3548    6.9345 O   0  0  0  0  0  0  0  0  0  0  0  0
  -12.0184   55.2868    8.6787 H   0  0  0  0  0  0  0  0  0  0  0  0
  -13.1629   53.7113    9.4623 C   0  0  0  0  0  0  0  0  0  0  0  0
  -12.7451   52.3098    9.0030 C   0  0  0  0  0  0  0  0  0  0  0  0
  -14.6671   53.7424    9.7211 C   0  0  0  0  0  0  0  0  0  0  0  0
  -12.4178   54.0539   10.7428 C   0  0  0  0  0  0  0  0  0  0  0  0
  -11.8656   52.8950    2.9725 C   0  0  0  0  0  0  0  0  0  0  0  0
  -12.6940   51.8394    2.4195 N   0  0  0  0  0  0  0  0  0  0  0  0
  -12.6079   50.5911    2.8588 C   0  0  0  0  0  0  0  0  0  0  0  0
  -11.7832   50.2422    3.6820 O   0  0  0  0  0  0  0  0  0  0  0  0
  -13.3336   52.0547    1.7027 H   0  0  0  0  0  0  0  0  0  0  0  0
  -13.5703   49.5797    2.3227 C   0  0  0  0  0  0  0  0  0  0  0  0
  -14.9394   49.7127    2.5357 C   0  0  0  0  0  0  0  0  0  0  0  0
  -15.8364   48.7651    2.0453 C   0  0  0  0  0  0  0  0  0  0  0  0
  -15.4019   47.6549    1.3183 C   0  0  0  0  0  0  0  0  0  0  0  0
  -14.0475   47.4474    1.0657 C   0  0  0  0  0  0  0  0  0  0  0  0
  -13.0560   48.4181    1.5652 C   0  0  0  0  0  0  0  0  0  0  0  0
  -13.6337   46.3622    0.3586 O   0  0  0  0  0  0  0  0  0  0  0  0
  -11.5722   48.2413    1.3138 C   0  0  0  0  0  0  0  0  0  0  0  0
  -14.2611   45.7436    0.0398 H   0  0  0  0  0  0  0  0  0  0  0  0
  -11.6893   54.0450    1.9805 C   0  0  0  0  0  0  0  0  0  0  0  0
  -13.2238   54.5575    1.2754 S   0  0  0  0  0  0  0  0  0  0  0  0
  -13.4875   54.2626   -0.3762 C   0  0  0  0  0  0  0  0  0  0  0  0
  -12.4945   54.5778   -1.3075 C   0  0  0  0  0  0  0  0  0  0  0  0
  -12.6945   54.3398   -2.6695 C   0  0  0  0  0  0  0  0  0  0  0  0
  -13.8995   53.7841   -3.1033 C   0  0  0  0  0  0  0  0  0  0  0  0
  -14.8887   53.4652   -2.1740 C   0  0  0  0  0  0  0  0  0  0  0  0
  -14.6881   53.7043   -0.8115 C   0  0  0  0  0  0  0  0  0  0  0  0
  5  6  1  0  0  0
  5 10  1  0  0  0
  5 14  1  0  0  0
  6  7  1  0  0  0
  6 13  1  0  0  0
  7  8  1  0  0  0
  8  9  1  0  0  0
  9 10  1  0  0  0
 11 12  1  0  0  0
 11 14  1  0  0  0
 11  4  1  0  0  0
 12 13  1  0  0  0
 12 15  1  0  0  0
 15 16  1  0  0  0
 15 17  2  0  0  0
 16 19  1  0  0  0
 19 20  1  0  0  0
 19 21  1  0  0  0
 19 22  1  0  0  0
  4  1  1  0  0  0
  1 23  1  0  0  0
  1  2  1  0  0  0
 23 24  1  0  0  0
 23 37  1  0  0  0
 24 25  1  0  0  0
 37 38  1  0  0  0
 25 26  2  0  0  0
 25 28  1  0  0  0
 28 29  2  0  0  0
 28 33  1  0  0  0
 29 30  1  0  0  0
 30 31  2  0  0  0
 31 32  1  0  0  0
 32 33  2  0  0  0
 32 34  1  0  0  0
 33 35  1  0  0  0
 38 39  1  0  0  0
 39 40  2  0  0  0
 39 44  1  0  0  0
 40 41  1  0  0  0
 41 42  2  0  0  0
 42 43  1  0  0  0
 43 44  2  0  0  0
 16 18  1  0  0  0
  2  3  1  0  0  0
 24 27  1  0  0  0
 34 36  1  0  0  0
M  END
> <minimizedAffinity>
-10.17486

$$$$
2Q63_1UN_A_1001


 44 47  0  0  0  0  0  0  0  0999 V2000
  -12.4812   54.6279    4.3017 C   0  0  0  0  0  0  0  0  0  0  0  0
  -11.3698   54.3589    5.1746 O   0  0  0  0  0  0  0  0  0  0  0  0
  -11.6569   53.7731    5.8925 H   0  0  0  0  0  0  0  0  0  0  0  0
  -13.5842   55.3734    5.0518 C   0  0  0  0  0  0  0  0  0  0  0  0
  -13.9828   53.6546    8.3963 C   0  0  0  0  0  0  0  0  0  0  0  0
  -14.5037   54.8485    9.2017 C   0  0  0  0  0  0  0  0  0  0  0  0
  -14.3734   54.6246   10.7128 C   0  0  0  0  0  0  0  0  0  0  0  0
  -12.9879   54.1269   11.1282 C   0  0  0  0  0  0  0  0  0  0  0  0
  -12.5539   52.9204   10.2943 C   0  0  0  0  0  0  0  0  0  0  0  0
  -12.5619   53.2496    8.8057 C   0  0  0  0  0  0  0  0  0  0  0  0
  -13.4239   55.1912    6.5071 N   0  0  0  0  0  0  0  0  0  0  0  0
  -13.9842   56.3446    7.2593 C   0  0  0  0  0  0  0  0  0  0  0  0
  -13.8080   56.1370    8.7678 C   0  0  0  0  0  0  0  0  0  0  0  0
  -14.0726   53.9210    6.8964 C   0  0  0  0  0  0  0  0  0  0  0  0
  -13.3043   57.6287    6.8923 C   0  0  0  0  0  0  0  0  0  0  0  0
  -13.9323   58.3811    5.9728 N   0  0  0  0  0  0  0  0  0  0  0  0
  -12.2559   57.9237    7.4390 O   0  0  0  0  0  0  0  0  0  0  0  0
  -14.7792   58.0338    5.6104 H   0  0  0  0  0  0  0  0  0  0  0  0
  -13.4687   59.6671    5.4650 C   0  0  0  0  0  0  0  0  0  0  0  0
  -12.0036   59.5982    5.0195 C   0  0  0  0  0  0  0  0  0  0  0  0
  -13.6330   60.7449    6.5335 C   0  0  0  0  0  0  0  0  0  0  0  0
  -14.3352   60.0051    4.2620 C   0  0  0  0  0  0  0  0  0  0  0  0
  -12.9644   53.3403    3.6458 C   0  0  0  0  0  0  0  0  0  0  0  0
  -12.6521   53.4381    2.2318 N   0  0  0  0  0  0  0  0  0  0  0  0
  -13.5612   53.8274    1.3483 C   0  0  0  0  0  0  0  0  0  0  0  0
  -14.7190   54.0435    1.6521 O   0  0  0  0  0  0  0  0  0  0  0  0
  -11.7458   53.2104    1.9219 H   0  0  0  0  0  0  0  0  0  0  0  0
  -13.1378   54.0135   -0.0740 C   0  0  0  0  0  0  0  0  0  0  0  0
  -12.9838   55.2875   -0.6131 C   0  0  0  0  0  0  0  0  0  0  0  0
  -12.5993   55.4620   -1.9416 C   0  0  0  0  0  0  0  0  0  0  0  0
  -12.3468   54.3730   -2.7783 C   0  0  0  0  0  0  0  0  0  0  0  0
  -12.4823   53.0657   -2.3159 C   0  0  0  0  0  0  0  0  0  0  0  0
  -12.8902   52.8254   -0.9193 C   0  0  0  0  0  0  0  0  0  0  0  0
  -12.2363   52.0115   -3.1389 O   0  0  0  0  0  0  0  0  0  0  0  0
  -13.0475   51.4235   -0.3659 C   0  0  0  0  0  0  0  0  0  0  0  0
  -11.9769   52.1609   -4.0268 H   0  0  0  0  0  0  0  0  0  0  0  0
  -12.3836   52.0662    4.2597 C   0  0  0  0  0  0  0  0  0  0  0  0
  -13.5771   50.7697    4.3567 S   0  0  0  0  0  0  0  0  0  0  0  0
  -13.5042   49.5229    3.2058 C   0  0  0  0  0  0  0  0  0  0  0  0
  -12.2765   49.1665    2.6414 C   0  0  0  0  0  0  0  0  0  0  0  0
  -12.1987   48.1420    1.6949 C   0  0  0  0  0  0  0  0  0  0  0  0
  -13.3598   47.4702    1.3081 C   0  0  0  0  0  0  0  0  0  0  0  0
  -14.5843   47.8223    1.8743 C   0  0  0  0  0  0  0  0  0  0  0  0
  -14.6613   48.8481    2.8207 C   0  0  0  0  0  0  0  0  0  0  0  0
  5  6  1  0  0  0
  5 10  1  0  0  0
  5 14  1  0  0  0
  6  7  1  0  0  0
  6 13  1  0  0  0
  7  8  1  0  0  0
  8  9  1  0  0  0
  9 10  1  0  0  0
 11 12  1  0  0  0
 11 14  1  0  0  0
 11  4  1  0  0  0
 12 13  1  0  0  0
 12 15  1  0  0  0
 15 16  1  0  0  0
 15 17  2  0  0  0
 16 19  1  0  0  0
 19 20  1  0  0  0
 19 21  1  0  0  0
 19 22  1  0  0  0
  4  1  1  0  0  0
  1 23  1  0  0  0
  1  2  1  0  0  0
 23 24  1  0  0  0
 23 37  1  0  0  0
 24 25  1  0  0  0
 37 38  1  0  0  0
 25 26  2  0  0  0
 25 28  1  0  0  0
 28 29  2  0  0  0
 28 33  1  0  0  0
 29 30  1  0  0  0
 30 31  2  0  0  0
 31 32  1  0  0  0
 32 33  2  0  0  0
 32 34  1  0  0  0
 33 35  1  0  0  0
 38 39  1  0  0  0
 39 40  2  0  0  0
 39 44  1  0  0  0
 40 41  1  0  0  0
 41 42  2  0  0  0
 42 43  1  0  0  0
 43 44  2  0  0  0
 16 18  1  0  0  0
  2  3  1  0  0  0
 24 27  1  0  0  0
 34 36  1  0  0  0
M  END
> <minimizedAffinity>
-9.96968

$$$$
2Q63_1UN_A_1001


 44 47  0  0  0  0  0  0  0  0999 V2000
  -12.0123   53.2415    3.5632 C   0  0  0  0  0  0  0  0  0  0  0  0
  -11.0947   53.9724    2.7306 O   0  0  0  0  0  0  0  0  0  0  0  0
  -11.3915   54.8926    2.6527 H   0  0  0  0  0  0  0  0  0  0  0  0
  -13.3983   53.1948    2.9214 C   0  0  0  0  0  0  0  0  0  0  0  0
  -13.6524   49.4221    2.8903 C   0  0  0  0  0  0  0  0  0  0  0  0
  -12.8055   49.1503    1.6436 C   0  0  0  0  0  0  0  0  0  0  0  0
  -13.0413   47.7429    1.0829 C   0  0  0  0  0  0  0  0  0  0  0  0
  -14.5239   47.3954    0.9386 C   0  0  0  0  0  0  0  0  0  0  0  0
  -15.2916   47.6718    2.2324 C   0  0  0  0  0  0  0  0  0  0  0  0
  -15.1393   49.1268    2.6616 C   0  0  0  0  0  0  0  0  0  0  0  0
  -13.6480   51.8602    2.3442 N   0  0  0  0  0  0  0  0  0  0  0  0
  -12.7750   51.6106    1.1670 C   0  0  0  0  0  0  0  0  0  0  0  0
  -13.0491   50.2206    0.5817 C   0  0  0  0  0  0  0  0  0  0  0  0
  -13.4420   50.8453    3.3993 C   0  0  0  0  0  0  0  0  0  0  0  0
  -13.0069   52.6174    0.0815 C   0  0  0  0  0  0  0  0  0  0  0  0
  -13.7715   52.2061   -0.9443 N   0  0  0  0  0  0  0  0  0  0  0  0
  -12.5172   53.7283    0.1866 O   0  0  0  0  0  0  0  0  0  0  0  0
  -14.1136   51.2837   -0.9079 H   0  0  0  0  0  0  0  0  0  0  0  0
  -14.1386   53.0067   -2.1064 C   0  0  0  0  0  0  0  0  0  0  0  0
  -12.9130   53.6851   -2.7291 C   0  0  0  0  0  0  0  0  0  0  0  0
  -15.1688   54.0626   -1.7138 C   0  0  0  0  0  0  0  0  0  0  0  0
  -14.7464   52.0547   -3.1244 C   0  0  0  0  0  0  0  0  0  0  0  0
  -12.0219   53.8165    4.9741 C   0  0  0  0  0  0  0  0  0  0  0  0
  -12.9593   54.9244    4.9774 N   0  0  0  0  0  0  0  0  0  0  0  0
  -12.5619   56.1671    4.7392 C   0  0  0  0  0  0  0  0  0  0  0  0
  -11.3917   56.4625    4.5877 O   0  0  0  0  0  0  0  0  0  0  0  0
  -13.9108   54.7498    5.1605 H   0  0  0  0  0  0  0  0  0  0  0  0
  -13.5987   57.2408    4.6469 C   0  0  0  0  0  0  0  0  0  0  0  0
  -14.0551   57.6895    3.4108 C   0  0  0  0  0  0  0  0  0  0  0  0
  -15.0140   58.6975    3.3235 C   0  0  0  0  0  0  0  0  0  0  0  0
  -15.5582   59.2892    4.4652 C   0  0  0  0  0  0  0  0  0  0  0  0
  -15.1515   58.8991    5.7394 C   0  0  0  0  0  0  0  0  0  0  0  0
  -14.1369   57.8392    5.8878 C   0  0  0  0  0  0  0  0  0  0  0  0
  -15.6857   59.4826    6.8454 O   0  0  0  0  0  0  0  0  0  0  0  0
  -13.6638   57.3753    7.2506 C   0  0  0  0  0  0  0  0  0  0  0  0
  -16.3306   60.1564    6.7544 H   0  0  0  0  0  0  0  0  0  0  0  0
  -12.3558   52.7985    6.0650 C   0  0  0  0  0  0  0  0  0  0  0  0
  -13.8792   53.1671    6.8761 S   0  0  0  0  0  0  0  0  0  0  0  0
  -13.8232   53.6964    8.4889 C   0  0  0  0  0  0  0  0  0  0  0  0
  -14.8911   54.4238    9.0210 C   0  0  0  0  0  0  0  0  0  0  0  0
  -14.8619   54.8649   10.3462 C   0  0  0  0  0  0  0  0  0  0  0  0
  -13.7534   54.5779   11.1448 C   0  0  0  0  0  0  0  0  0  0  0  0
  -12.6897   53.8481   10.6157 C   0  0  0  0  0  0  0  0  0  0  0  0
  -12.7194   53.4078    9.2895 C   0  0  0  0  0  0  0  0  0  0  0  0
  5  6  1  0  0  0
  5 10  1  0  0  0
  5 14  1  0  0  0
  6  7  1  0  0  0
  6 13  1  0  0  0
  7  8  1  0  0  0
  8  9  1  0  0  0
  9 10  1  0  0  0
 11 12  1  0  0  0
 11 14  1  0  0  0
 11  4  1  0  0  0
 12 13  1  0  0  0
 12 15  1  0  0  0
 15 16  1  0  0  0
 15 17  2  0  0  0
 16 19  1  0  0  0
 19 20  1  0  0  0
 19 21  1  0  0  0
 19 22  1  0  0  0
  4  1  1  0  0  0
  1 23  1  0  0  0
  1  2  1  0  0  0
 23 24  1  0  0  0
 23 37  1  0  0  0
 24 25  1  0  0  0
 37 38  1  0  0  0
 25 26  2  0  0  0
 25 28  1  0  0  0
 28 29  2  0  0  0
 28 33  1  0  0  0
 29 30  1  0  0  0
 30 31  2  0  0  0
 31 32  1  0  0  0
 32 33  2  0  0  0
 32 34  1  0  0  0
 33 35  1  0  0  0
 38 39  1  0  0  0
 39 40  2  0  0  0
 39 44  1  0  0  0
 40 41  1  0  0  0
 41 42  2  0  0  0
 42 43  1  0  0  0
 43 44  2  0  0  0
 16 18  1  0  0  0
  2  3  1  0  0  0
 24 27  1  0  0  0
 34 36  1  0  0  0
M  END
> <minimizedAffinity>
-9.92387

$$$$
