2Q63_1UN_A_1001
  RCSB PDB12061706443D
Coordinates from PDB:2Q63:A:1001 Model:1 without hydrogens
 40 43  0  0  0  0            999 V2000
  -12.8660   58.3170    4.2060   C 0  0  0  0  0  0  0  0  0  0  0  0
  -13.3990   58.6880    5.5930   C 0  0  0  0  0  0  0  0  0  0  0  0
  -14.4810   59.7720    5.5230   C 0  0  0  0  0  0  0  0  0  0  0  0
  -15.5600   59.4760    4.4800   C 0  0  0  0  0  0  0  0  0  0  0  0
  -14.9460   59.1400    3.1200   C 0  0  0  0  0  0  0  0  0  0  0  0
  -13.9890   57.9580    3.2260   C 0  0  0  0  0  0  0  0  0  0  0  0
  -12.3270   56.0250    5.0420   N 0  0  0  0  0  0  0  0  0  0  0  0
  -12.7860   56.3980    6.4060   C 0  0  0  0  0  0  0  0  0  0  0  0
  -13.9010   57.4470    6.3280   C 0  0  0  0  0  0  0  0  0  0  0  0
  -11.8300   57.2000    4.2950   C 0  0  0  0  0  0  0  0  0  0  0  0
  -13.3230   55.2150    7.1530   C 0  0  0  0  0  0  0  0  0  0  0  0
  -13.0440   55.1770    8.4670   N 0  0  0  0  0  0  0  0  0  0  0  0
  -13.4630   54.1340    9.3960   C 0  0  0  0  0  0  0  0  0  0  0  0
  -13.0260   52.7460    8.9140   C 0  0  0  0  0  0  0  0  0  0  0  0
  -14.9790   54.1650    9.5730   C 0  0  0  0  0  0  0  0  0  0  0  0
  -12.7880   54.4300   10.7260   C 0  0  0  0  0  0  0  0  0  0  0  0
  -13.9770   54.3800    6.5530   O 0  0  0  0  0  0  0  0  0  0  0  0
  -11.2530   55.0150    5.0970   C 0  0  0  0  0  0  0  0  0  0  0  0
  -11.1990   54.2300    3.7870   C 0  0  0  0  0  0  0  0  0  0  0  0
  -12.3030   53.1870    3.6650   C 0  0  0  0  0  0  0  0  0  0  0  0
   -9.9090   53.6160    3.6190   O 0  0  0  0  0  0  0  0  0  0  0  0
  -12.2390   52.6530    2.3170   N 0  0  0  0  0  0  0  0  0  0  0  0
  -12.2340   52.0740    4.7110   C 0  0  0  0  0  0  0  0  0  0  0  0
  -13.2350   52.8230    1.4580   C 0  0  0  0  0  0  0  0  0  0  0  0
  -14.2830   53.3570    1.7680   O 0  0  0  0  0  0  0  0  0  0  0  0
  -13.0530   52.3440    0.0530   C 0  0  0  0  0  0  0  0  0  0  0  0
  -12.9560   50.9850   -0.2320   C 0  0  0  0  0  0  0  0  0  0  0  0
  -12.7760   50.5380   -1.5400   C 0  0  0  0  0  0  0  0  0  0  0  0
  -12.6940   51.4290   -2.6120   C 0  0  0  0  0  0  0  0  0  0  0  0
  -12.7780   52.8050   -2.4100   C 0  0  0  0  0  0  0  0  0  0  0  0
  -12.9650   53.3310   -1.0450   C 0  0  0  0  0  0  0  0  0  0  0  0
  -12.6950   53.6650   -3.4600   O 0  0  0  0  0  0  0  0  0  0  0  0
  -13.0670   54.8180   -0.7720   C 0  0  0  0  0  0  0  0  0  0  0  0
  -13.5890   50.9510    4.5790   S 0  0  0  0  0  0  0  0  0  0  0  0
  -13.5240   49.7510    3.3790   C 0  0  0  0  0  0  0  0  0  0  0  0
  -14.7030   49.3020    2.7780   C 0  0  0  0  0  0  0  0  0  0  0  0
  -14.6670   48.3170    1.7880   C 0  0  0  0  0  0  0  0  0  0  0  0
  -13.4410   47.7750    1.3980   C 0  0  0  0  0  0  0  0  0  0  0  0
  -12.2640   48.2260    1.9940   C 0  0  0  0  0  0  0  0  0  0  0  0
  -12.3010   49.2110    2.9850   C 0  0  0  0  0  0  0  0  0  0  0  0
  1  2  1  0  0  0  0
  1  6  1  0  0  0  0
  1 10  1  0  0  0  0
  2  3  1  0  0  0  0
  2  9  1  0  0  0  0
  3  4  1  0  0  0  0
  4  5  1  0  0  0  0
  5  6  1  0  0  0  0
  7  8  1  0  0  0  0
  7 10  1  0  0  0  0
  7 18  1  0  0  0  0
  8  9  1  0  0  0  0
  8 11  1  0  0  0  0
 11 12  1  0  0  0  0
 11 17  2  0  0  0  0
 12 13  1  0  0  0  0
 13 14  1  0  0  0  0
 13 15  1  0  0  0  0
 13 16  1  0  0  0  0
 18 19  1  0  0  0  0
 19 20  1  0  0  0  0
 19 21  1  0  0  0  0
 20 22  1  0  0  0  0
 20 23  1  0  0  0  0
 22 24  1  0  0  0  0
 23 34  1  0  0  0  0
 24 25  2  0  0  0  0
 24 26  1  0  0  0  0
 26 27  2  0  0  0  0
 26 31  1  0  0  0  0
 27 28  1  0  0  0  0
 28 29  2  0  0  0  0
 29 30  1  0  0  0  0
 30 31  2  0  0  0  0
 30 32  1  0  0  0  0
 31 33  1  0  0  0  0
 34 35  1  0  0  0  0
 35 36  2  0  0  0  0
 35 40  1  0  0  0  0
 36 37  1  0  0  0  0
 37 38  2  0  0  0  0
 38 39  1  0  0  0  0
 39 40  2  0  0  0  0
A    1
C1
A    2
C2
A    3
C3
A    4
C4
A    5
C5
A    6
C6
A    7
N7
A    8
C8
A    9
C9
A   10
C10
A   11
C11
A   12
N12
A   13
C13
A   14
C14
A   15
C15
A   16
C16
A   17
O17
A   18
C18
A   19
C19
A   20
C20
A   21
O21
A   22
N22
A   23
C23
A   24
C24
A   25
O25
A   26
C29
A   27
C30
A   28
C31
A   29
C32
A   30
C33
A   31
C34
A   32
O38
A   33
C39
A   34
S74
A   35
C77
A   36
C78
A   37
C79
A   38
C80
A   39
C81
A   40
C82
M  END
>  <InstanceId>
2Q63_1UN_A_1001

>  <ChemCompId>
1UN

>  <PdbId>
2Q63

>  <ChainId>
A

>  <ResidueNumber>
1001

>  <InsertionCode>


>  <Model>
1

>  <AltIds>


>  <MissingHeavyAtoms>
0

>  <ObservedFormula>
C32 N3 O4 S

>  <Name>
2-[2-HYDROXY-3-(3-HYDROXY-2-METHYL-BENZOYLAMINO)-4-PHENYL SULFANYL-BUTYL]-DECAHYDRO-ISOQUINOLINE-3-CARBOXYLIC ACID TERT-BUTYLAMIDE

>  <SystematicName>
(2S,3S,4aS,8aS)-N-tert-butyl-2-[(2R,3R)-2-hydroxy-3-[(3-hydroxy-2-methyl-phenyl)carbonylamino]-4-phenylsulfanyl-butyl]-3,4,4a,5,6,7,8,8a-octahydro-1H-isoquinoline-3-carboxamide

>  <Synonyms>
NELFINAVIR MESYLATE AG1343

>  <Type>
NON-POLYMER

>  <Formula>
C32 H45 N3 O4 S

>  <MolecularWeight>
567.782

>  <ModifiedDate>
2011-06-04

>  <Parent>


>  <OneLetterCode>


>  <SubcomponentList>


>  <AmbiguousFlag>
N

>  <InChI>
InChI=1S/C32H45N3O4S/c1-21-25(15-10-16-28(21)36)30(38)33-26(20-40-24-13-6-5-7-14-24)29(37)19-35-18-23-12-9-8-11-22(23)17-27(35)31(39)34-32(2,3)4/h5-7,10,13-16,22-23,26-27,29,36-37H,8-9,11-12,17-20H2,1-4H3,(H,33,38)(H,34,39)/t22-,23+,26-,27-,29+/m0/s1

>  <InChIKey>
QAGYKUNXZHXKMR-HKWSIXNMSA-N

>  <SMILES>
Cc1c(cccc1O)C(=O)N[C@@H](CSc2ccccc2)[C@@H](C[N@@]3C[C@H]4CCCC[C@H]4C[C@H]3C(=O)NC(C)(C)C)O

$$$$
