4CG8_G8S_A_1458


 42 46  0  0  0  0  0  0  0  0999 V2000
   19.1945   -8.9346    4.6813 C   0  0  0  0  0  0  0  0  0  0  0  0
   21.3393   -8.3269    3.7694 C   0  0  0  0  0  0  0  0  0  0  0  0
   19.6606  -10.2425    4.9130 C   0  0  0  0  0  0  0  0  0  0  0  0
   21.8076   -9.6315    3.9996 C   0  0  0  0  0  0  0  0  0  0  0  0
   20.0233   -7.9606    4.0998 C   0  0  0  0  0  0  0  0  0  0  0  0
   20.9735  -10.5981    4.5889 C   0  0  0  0  0  0  0  0  0  0  0  0
   19.5234   -6.6413    3.8760 C   0  0  0  0  0  0  0  0  0  0  0  0
   18.9355   -6.0004    5.1681 C   0  0  0  0  0  0  0  0  0  0  0  0
   17.3941   -5.7265    5.1074 C   0  0  0  0  0  0  0  0  0  0  0  0
   16.6025   -6.5152    6.2136 C   0  0  0  0  0  0  0  0  0  0  0  0
   16.0857   -8.8563    6.1387 C   0  0  0  0  0  0  0  0  0  0  0  0
   15.6969   -7.4218    4.2015 C   0  0  0  0  0  0  0  0  0  0  0  0
   15.6230   -9.9400    5.3942 C   0  0  0  0  0  0  0  0  0  0  0  0
   15.2438   -8.4986    3.4527 C   0  0  0  0  0  0  0  0  0  0  0  0
   16.1037   -7.6005    5.5312 C   0  0  0  0  0  0  0  0  0  0  0  0
   15.1826   -9.7508    4.0709 C   0  0  0  0  0  0  0  0  0  0  0  0
   14.8149  -10.8417    3.2965 C   0  0  0  0  0  0  0  0  0  0  0  0
   18.1042  -12.6851    2.7509 C   0  0  0  0  0  0  0  0  0  0  0  0
   18.1232  -10.7470    1.3141 C   0  0  0  0  0  0  0  0  0  0  0  0
   16.8466  -12.2963    3.1752 C   0  0  0  0  0  0  0  0  0  0  0  0
   16.8479  -10.3426    1.7504 C   0  0  0  0  0  0  0  0  0  0  0  0
   18.7552  -11.9082    1.8039 C   0  0  0  0  0  0  0  0  0  0  0  0
   16.1763  -11.1378    2.6987 N   0  0  0  0  0  0  0  0  0  0  0  0
   20.8923  -11.3138    0.8225 C   0  0  0  0  0  0  0  0  0  0  0  0
   20.3621  -13.7332    1.5802 C   0  0  0  0  0  0  0  0  0  0  0  0
   19.9724  -12.3188    1.4075 N   0  0  0  0  0  0  0  0  0  0  0  0
   21.4632  -11.9072    4.7835 C   0  0  0  0  0  0  0  0  0  0  0  0
   22.6199  -12.1024    8.4292 C   0  0  0  0  0  0  0  0  0  0  0  0
   21.1453  -13.9721    7.9686 C   0  0  0  0  0  0  0  0  0  0  0  0
   22.4644  -11.6597    7.1056 C   0  0  0  0  0  0  0  0  0  0  0  0
   20.9795  -13.5379    6.6512 C   0  0  0  0  0  0  0  0  0  0  0  0
   21.9542  -13.2685    8.8797 C   0  0  0  0  0  0  0  0  0  0  0  0
   21.6479  -12.3878    6.1950 N   0  0  0  0  0  0  0  0  0  0  0  0
   21.4984  -15.0190   10.5530 C   0  0  0  0  0  0  0  0  0  0  0  0
   22.0817  -13.7205   10.1567 N   0  0  0  0  0  0  0  0  0  0  0  0
   24.9507  -10.5253   14.2191 Cl  0  0  0  0  0  0  0  0  0  0  0  0
   22.7179  -11.3151   12.8679 C   0  0  0  0  0  0  0  0  0  0  0  0
   24.8060  -12.3653   12.1801 C   0  0  0  0  0  0  0  0  0  0  0  0
   22.0412  -12.0723   11.9054 C   0  0  0  0  0  0  0  0  0  0  0  0
   24.1242  -13.1155   11.2146 C   0  0  0  0  0  0  0  0  0  0  0  0
   24.1007  -11.4664   12.9970 C   0  0  0  0  0  0  0  0  0  0  0  0
   22.7411  -12.9761   11.0856 C   0  0  0  0  0  0  0  0  0  0  0  0
 36 41  1  0  0  0
 24 26  1  0  0  0
 25 26  1  0  0  0
 34 35  1  0  0  0
 37 39  2  0  0  0
 37 41  1  0  0  0
 38 40  1  0  0  0
 38 41  2  0  0  0
 11 13  2  0  0  0
 11 15  1  0  0  0
 12 14  1  0  0  0
 12 15  2  0  0  0
  1  3  2  0  0  0
  1  5  1  0  0  0
  2  4  1  0  0  0
  2  5  2  0  0  0
 13 16  1  0  0  0
 14 16  2  0  0  0
  3  6  1  0  0  0
  4  6  2  0  0  0
 39 42  1  0  0  0
 40 42  2  0  0  0
 18 20  2  0  0  0
 18 22  1  0  0  0
 19 21  1  0  0  0
 19 22  2  0  0  0
 28 30  2  0  0  0
 28 32  1  0  0  0
 29 31  1  0  0  0
 29 32  2  0  0  0
 20 23  1  0  0  0
 21 23  2  0  0  0
 30 33  1  0  0  0
 31 33  2  0  0  0
  9  8  1  0  0  0
  9 10  1  0  0  0
  8  7  1  0  0  0
 10 15  1  0  0  0
  7  5  1  0  0  0
 17 16  1  0  0  0
 17 23  1  0  0  0
 27  6  1  0  0  0
 27 33  1  0  0  0
 22 26  1  0  0  0
 42 35  1  0  0  0
 32 35  1  0  0  0
M  CHG 1  23   1
M  CHG 1  33   1
M  END
> <minimizedAffinity>
-10.20298

$$$$
4CG8_G8S_A_1458


 42 46  0  0  0  0  0  0  0  0999 V2000
   18.0574   -5.9249    6.4122 C   0  0  0  0  0  0  0  0  0  0  0  0
   16.0077   -6.5426    5.3084 C   0  0  0  0  0  0  0  0  0  0  0  0
   18.6245   -5.5786    5.1713 C   0  0  0  0  0  0  0  0  0  0  0  0
   16.5709   -6.1977    4.0681 C   0  0  0  0  0  0  0  0  0  0  0  0
   16.7449   -6.4186    6.4986 C   0  0  0  0  0  0  0  0  0  0  0  0
   17.8828   -5.6973    3.9918 C   0  0  0  0  0  0  0  0  0  0  0  0
   16.1953   -6.7622    7.7715 C   0  0  0  0  0  0  0  0  0  0  0  0
   16.8843   -8.0096    8.4002 C   0  0  0  0  0  0  0  0  0  0  0  0
   16.2628   -9.3788    7.9602 C   0  0  0  0  0  0  0  0  0  0  0  0
   16.3100   -9.5839    6.4020 C   0  0  0  0  0  0  0  0  0  0  0  0
   18.6771   -9.4841    6.0277 C   0  0  0  0  0  0  0  0  0  0  0  0
   17.5078  -11.6260    6.1086 C   0  0  0  0  0  0  0  0  0  0  0  0
   19.8628  -10.1725    5.7763 C   0  0  0  0  0  0  0  0  0  0  0  0
   18.6835  -12.3161    5.8496 C   0  0  0  0  0  0  0  0  0  0  0  0
   17.5098  -10.2274    6.2048 C   0  0  0  0  0  0  0  0  0  0  0  0
   19.8633  -11.5786    5.7151 C   0  0  0  0  0  0  0  0  0  0  0  0
   21.0209  -12.2603    5.3680 C   0  0  0  0  0  0  0  0  0  0  0  0
   21.3312  -14.1770    8.6460 C   0  0  0  0  0  0  0  0  0  0  0  0
   22.6898  -12.1932    8.8456 C   0  0  0  0  0  0  0  0  0  0  0  0
   21.0091  -13.7671    7.3650 C   0  0  0  0  0  0  0  0  0  0  0  0
   22.3570  -11.7676    7.5463 C   0  0  0  0  0  0  0  0  0  0  0  0
   22.1866  -13.3877    9.4006 C   0  0  0  0  0  0  0  0  0  0  0  0
   21.5027  -12.5747    6.7707 N   0  0  0  0  0  0  0  0  0  0  0  0
   21.6405  -14.8847   11.2293 C   0  0  0  0  0  0  0  0  0  0  0  0
   23.6401  -13.2435   11.3574 C   0  0  0  0  0  0  0  0  0  0  0  0
   22.4853  -13.8191   10.6383 N   0  0  0  0  0  0  0  0  0  0  0  0
   18.4305   -5.3844    2.7295 C   0  0  0  0  0  0  0  0  0  0  0  0
   21.1519   -7.7606    1.4585 C   0  0  0  0  0  0  0  0  0  0  0  0
   19.0447   -8.3404    0.4068 C   0  0  0  0  0  0  0  0  0  0  0  0
   20.5127   -6.7231    2.1564 C   0  0  0  0  0  0  0  0  0  0  0  0
   18.3977   -7.3144    1.0999 C   0  0  0  0  0  0  0  0  0  0  0  0
   20.4194   -8.5890    0.5736 C   0  0  0  0  0  0  0  0  0  0  0  0
   19.1225   -6.4808    1.9703 N   0  0  0  0  0  0  0  0  0  0  0  0
   22.0322   -9.3181   -1.1409 C   0  0  0  0  0  0  0  0  0  0  0  0
   21.0092   -9.6044   -0.1138 N   0  0  0  0  0  0  0  0  0  0  0  0
   19.4292  -15.1994    0.9553 Cl  0  0  0  0  0  0  0  0  0  0  0  0
   20.5282  -12.8010    1.6445 C   0  0  0  0  0  0  0  0  0  0  0  0
   19.6678  -12.9641   -0.6291 C   0  0  0  0  0  0  0  0  0  0  0  0
   20.9015  -11.4771    1.3888 C   0  0  0  0  0  0  0  0  0  0  0  0
   20.0493  -11.6409   -0.8809 C   0  0  0  0  0  0  0  0  0  0  0  0
   19.9137  -13.5379    0.6291 C   0  0  0  0  0  0  0  0  0  0  0  0
   20.6560  -10.8954    0.1317 C   0  0  0  0  0  0  0  0  0  0  0  0
 36 41  1  0  0  0
 24 26  1  0  0  0
 25 26  1  0  0  0
 34 35  1  0  0  0
 37 39  2  0  0  0
 37 41  1  0  0  0
 38 40  1  0  0  0
 38 41  2  0  0  0
 11 13  2  0  0  0
 11 15  1  0  0  0
 12 14  1  0  0  0
 12 15  2  0  0  0
  1  3  2  0  0  0
  1  5  1  0  0  0
  2  4  1  0  0  0
  2  5  2  0  0  0
 13 16  1  0  0  0
 14 16  2  0  0  0
  3  6  1  0  0  0
  4  6  2  0  0  0
 39 42  1  0  0  0
 40 42  2  0  0  0
 18 20  2  0  0  0
 18 22  1  0  0  0
 19 21  1  0  0  0
 19 22  2  0  0  0
 28 30  2  0  0  0
 28 32  1  0  0  0
 29 31  1  0  0  0
 29 32  2  0  0  0
 20 23  1  0  0  0
 21 23  2  0  0  0
 30 33  1  0  0  0
 31 33  2  0  0  0
  9  8  1  0  0  0
  9 10  1  0  0  0
  8  7  1  0  0  0
 10 15  1  0  0  0
  7  5  1  0  0  0
 17 16  1  0  0  0
 17 23  1  0  0  0
 27  6  1  0  0  0
 27 33  1  0  0  0
 22 26  1  0  0  0
 42 35  1  0  0  0
 32 35  1  0  0  0
M  CHG 1  23   1
M  CHG 1  33   1
M  END
> <minimizedAffinity>
-9.51667

$$$$
4CG8_G8S_A_1458


 42 46  0  0  0  0  0  0  0  0999 V2000
   18.1195  -10.2723    3.1474 C   0  0  0  0  0  0  0  0  0  0  0  0
   17.6479  -10.3799    5.5069 C   0  0  0  0  0  0  0  0  0  0  0  0
   19.4024  -10.8041    3.3768 C   0  0  0  0  0  0  0  0  0  0  0  0
   18.9279  -10.9110    5.7391 C   0  0  0  0  0  0  0  0  0  0  0  0
   17.2269  -10.0454    4.2083 C   0  0  0  0  0  0  0  0  0  0  0  0
   19.8121  -11.1417    4.6704 C   0  0  0  0  0  0  0  0  0  0  0  0
   15.9311   -9.5044    3.9459 C   0  0  0  0  0  0  0  0  0  0  0  0
   15.5098   -8.4331    4.9950 C   0  0  0  0  0  0  0  0  0  0  0  0
   15.7753   -6.9550    4.5485 C   0  0  0  0  0  0  0  0  0  0  0  0
   16.8394   -6.2377    5.4570 C   0  0  0  0  0  0  0  0  0  0  0  0
   19.0030   -7.1826    5.0341 C   0  0  0  0  0  0  0  0  0  0  0  0
   18.1310   -5.3716    3.6480 C   0  0  0  0  0  0  0  0  0  0  0  0
   20.1714   -7.1644    4.2740 C   0  0  0  0  0  0  0  0  0  0  0  0
   19.2953   -5.3428    2.8937 C   0  0  0  0  0  0  0  0  0  0  0  0
   17.9863   -6.2879    4.6991 C   0  0  0  0  0  0  0  0  0  0  0  0
   20.2992   -6.2669    3.1975 C   0  0  0  0  0  0  0  0  0  0  0  0
   21.4969   -6.1787    2.5026 C   0  0  0  0  0  0  0  0  0  0  0  0
   22.4802   -9.6608    1.3094 C   0  0  0  0  0  0  0  0  0  0  0  0
   20.4409   -9.0623    0.1674 C   0  0  0  0  0  0  0  0  0  0  0  0
   22.4209   -8.4372    1.9513 C   0  0  0  0  0  0  0  0  0  0  0  0
   20.3821   -7.8124    0.8111 C   0  0  0  0  0  0  0  0  0  0  0  0
   21.4775   -9.9872    0.4081 C   0  0  0  0  0  0  0  0  0  0  0  0
   21.3885   -7.4843    1.7397 N   0  0  0  0  0  0  0  0  0  0  0  0
   20.3811  -11.6746   -0.9461 C   0  0  0  0  0  0  0  0  0  0  0  0
   22.8125  -11.9669   -0.1027 C   0  0  0  0  0  0  0  0  0  0  0  0
   21.5610  -11.1871   -0.1922 N   0  0  0  0  0  0  0  0  0  0  0  0
   21.1007  -11.6514    4.9375 C   0  0  0  0  0  0  0  0  0  0  0  0
   21.0322  -14.0134    7.9514 C   0  0  0  0  0  0  0  0  0  0  0  0
   22.4764  -12.1316    8.4570 C   0  0  0  0  0  0  0  0  0  0  0  0
   20.7717  -13.4671    6.6843 C   0  0  0  0  0  0  0  0  0  0  0  0
   22.2283  -11.5817    7.1969 C   0  0  0  0  0  0  0  0  0  0  0  0
   21.8966  -13.3498    8.8561 C   0  0  0  0  0  0  0  0  0  0  0  0
   21.3611  -12.2299    6.2994 N   0  0  0  0  0  0  0  0  0  0  0  0
   21.7682  -15.2329   10.4402 C   0  0  0  0  0  0  0  0  0  0  0  0
   22.1716  -13.8555   10.0890 N   0  0  0  0  0  0  0  0  0  0  0  0
   24.9667  -10.5839   14.1420 Cl  0  0  0  0  0  0  0  0  0  0  0  0
   22.7589  -11.3983   12.7645 C   0  0  0  0  0  0  0  0  0  0  0  0
   24.8586  -12.4631   12.1368 C   0  0  0  0  0  0  0  0  0  0  0  0
   22.0998  -12.1736   11.8043 C   0  0  0  0  0  0  0  0  0  0  0  0
   24.1944  -13.2314   11.1733 C   0  0  0  0  0  0  0  0  0  0  0  0
   24.1389  -11.5480   12.9226 C   0  0  0  0  0  0  0  0  0  0  0  0
   22.8141  -13.0936   11.0155 C   0  0  0  0  0  0  0  0  0  0  0  0
 36 41  1  0  0  0
 24 26  1  0  0  0
 25 26  1  0  0  0
 34 35  1  0  0  0
 37 39  2  0  0  0
 37 41  1  0  0  0
 38 40  1  0  0  0
 38 41  2  0  0  0
 11 13  2  0  0  0
 11 15  1  0  0  0
 12 14  1  0  0  0
 12 15  2  0  0  0
  1  3  2  0  0  0
  1  5  1  0  0  0
  2  4  1  0  0  0
  2  5  2  0  0  0
 13 16  1  0  0  0
 14 16  2  0  0  0
  3  6  1  0  0  0
  4  6  2  0  0  0
 39 42  1  0  0  0
 40 42  2  0  0  0
 18 20  2  0  0  0
 18 22  1  0  0  0
 19 21  1  0  0  0
 19 22  2  0  0  0
 28 30  2  0  0  0
 28 32  1  0  0  0
 29 31  1  0  0  0
 29 32  2  0  0  0
 20 23  1  0  0  0
 21 23  2  0  0  0
 30 33  1  0  0  0
 31 33  2  0  0  0
  9  8  1  0  0  0
  9 10  1  0  0  0
  8  7  1  0  0  0
 10 15  1  0  0  0
  7  5  1  0  0  0
 17 16  1  0  0  0
 17 23  1  0  0  0
 27  6  1  0  0  0
 27 33  1  0  0  0
 22 26  1  0  0  0
 42 35  1  0  0  0
 32 35  1  0  0  0
M  CHG 1  23   1
M  CHG 1  33   1
M  END
> <minimizedAffinity>
-9.30633

$$$$
4CG8_G8S_A_1458


 42 46  0  0  0  0  0  0  0  0999 V2000
   17.9632   -9.7586    3.5778 C   0  0  0  0  0  0  0  0  0  0  0  0
   18.3631   -9.1195    5.8653 C   0  0  0  0  0  0  0  0  0  0  0  0
   19.0582  -10.6415    3.6302 C   0  0  0  0  0  0  0  0  0  0  0  0
   19.4566  -10.0001    5.9208 C   0  0  0  0  0  0  0  0  0  0  0  0
   17.6043   -8.9797    4.6905 C   0  0  0  0  0  0  0  0  0  0  0  0
   19.8043  -10.7813    4.8045 C   0  0  0  0  0  0  0  0  0  0  0  0
   16.4883   -8.0917    4.6086 C   0  0  0  0  0  0  0  0  0  0  0  0
   16.8206   -6.7893    3.8218 C   0  0  0  0  0  0  0  0  0  0  0  0
   17.8183   -5.8301    4.5559 C   0  0  0  0  0  0  0  0  0  0  0  0
   18.7632   -5.0700    3.5550 C   0  0  0  0  0  0  0  0  0  0  0  0
   19.6683   -6.4828    1.8410 C   0  0  0  0  0  0  0  0  0  0  0  0
   20.4804   -6.6193    4.1395 C   0  0  0  0  0  0  0  0  0  0  0  0
   20.5499   -7.5067    1.4981 C   0  0  0  0  0  0  0  0  0  0  0  0
   21.3535   -7.6449    3.8060 C   0  0  0  0  0  0  0  0  0  0  0  0
   19.6555   -6.0413    3.1643 C   0  0  0  0  0  0  0  0  0  0  0  0
   21.4013   -8.0607    2.4723 C   0  0  0  0  0  0  0  0  0  0  0  0
   22.2080   -9.1446    2.1570 C   0  0  0  0  0  0  0  0  0  0  0  0
   25.5605   -7.3356    2.0959 C   0  0  0  0  0  0  0  0  0  0  0  0
   25.2551   -8.2015    4.3270 C   0  0  0  0  0  0  0  0  0  0  0  0
   24.3295   -7.8762    1.7714 C   0  0  0  0  0  0  0  0  0  0  0  0
   24.0067   -8.7615    3.9984 C   0  0  0  0  0  0  0  0  0  0  0  0
   26.0339   -7.4915    3.3904 C   0  0  0  0  0  0  0  0  0  0  0  0
   23.5146   -8.5906    2.6902 N   0  0  0  0  0  0  0  0  0  0  0  0
   27.5470   -5.6185    3.0974 C   0  0  0  0  0  0  0  0  0  0  0  0
   28.1729   -7.6659    4.5552 C   0  0  0  0  0  0  0  0  0  0  0  0
   27.2297   -6.9470    3.6744 N   0  0  0  0  0  0  0  0  0  0  0  0
   20.9236  -11.6372    4.8818 C   0  0  0  0  0  0  0  0  0  0  0  0
   22.5001  -12.0772    8.3442 C   0  0  0  0  0  0  0  0  0  0  0  0
   21.0000  -13.9349    7.9190 C   0  0  0  0  0  0  0  0  0  0  0  0
   22.1868  -11.5419    7.0844 C   0  0  0  0  0  0  0  0  0  0  0  0
   20.6772  -13.4087    6.6658 C   0  0  0  0  0  0  0  0  0  0  0  0
   21.9029  -13.2851    8.7803 C   0  0  0  0  0  0  0  0  0  0  0  0
   21.2765  -12.2162    6.2225 N   0  0  0  0  0  0  0  0  0  0  0  0
   21.7716  -15.2103   10.3127 C   0  0  0  0  0  0  0  0  0  0  0  0
   22.1831  -13.8268    9.9967 N   0  0  0  0  0  0  0  0  0  0  0  0
   25.0258  -10.6128   14.0627 Cl  0  0  0  0  0  0  0  0  0  0  0  0
   24.9029  -12.4737   12.0735 C   0  0  0  0  0  0  0  0  0  0  0  0
   22.7864  -11.4403   12.6972 C   0  0  0  0  0  0  0  0  0  0  0  0
   24.2277  -13.2335   11.1121 C   0  0  0  0  0  0  0  0  0  0  0  0
   22.1155  -12.2079   11.7379 C   0  0  0  0  0  0  0  0  0  0  0  0
   24.1740  -11.5810   12.8632 C   0  0  0  0  0  0  0  0  0  0  0  0
   22.8384  -13.0958   10.9390 C   0  0  0  0  0  0  0  0  0  0  0  0
 36 41  1  0  0  0
 24 26  1  0  0  0
 25 26  1  0  0  0
 34 35  1  0  0  0
 37 39  2  0  0  0
 37 41  1  0  0  0
 38 40  1  0  0  0
 38 41  2  0  0  0
 11 13  2  0  0  0
 11 15  1  0  0  0
 12 14  1  0  0  0
 12 15  2  0  0  0
  1  3  2  0  0  0
  1  5  1  0  0  0
  2  4  1  0  0  0
  2  5  2  0  0  0
 13 16  1  0  0  0
 14 16  2  0  0  0
  3  6  1  0  0  0
  4  6  2  0  0  0
 39 42  1  0  0  0
 40 42  2  0  0  0
 18 20  2  0  0  0
 18 22  1  0  0  0
 19 21  1  0  0  0
 19 22  2  0  0  0
 28 30  2  0  0  0
 28 32  1  0  0  0
 29 31  1  0  0  0
 29 32  2  0  0  0
 20 23  1  0  0  0
 21 23  2  0  0  0
 30 33  1  0  0  0
 31 33  2  0  0  0
  9  8  1  0  0  0
  9 10  1  0  0  0
  8  7  1  0  0  0
 10 15  1  0  0  0
  7  5  1  0  0  0
 17 16  1  0  0  0
 17 23  1  0  0  0
 27  6  1  0  0  0
 27 33  1  0  0  0
 22 26  1  0  0  0
 42 35  1  0  0  0
 32 35  1  0  0  0
M  CHG 1  23   1
M  CHG 1  33   1
M  END
> <minimizedAffinity>
-9.19543

$$$$
4CG8_G8S_A_1458


 42 46  0  0  0  0  0  0  0  0999 V2000
   16.6451   -9.9966    5.1552 C   0  0  0  0  0  0  0  0  0  0  0  0
   18.6429   -9.4730    6.3946 C   0  0  0  0  0  0  0  0  0  0  0  0
   17.4039  -10.1104    3.9751 C   0  0  0  0  0  0  0  0  0  0  0  0
   19.4031   -9.5860    5.2182 C   0  0  0  0  0  0  0  0  0  0  0  0
   17.2513   -9.6692    6.3796 C   0  0  0  0  0  0  0  0  0  0  0  0
   18.7891   -9.9214    3.9984 C   0  0  0  0  0  0  0  0  0  0  0  0
   16.4563   -9.5601    7.5615 C   0  0  0  0  0  0  0  0  0  0  0  0
   16.7657   -8.2650    8.3695 C   0  0  0  0  0  0  0  0  0  0  0  0
   16.2550   -6.9470    7.6940 C   0  0  0  0  0  0  0  0  0  0  0  0
   17.4348   -6.0172    7.2292 C   0  0  0  0  0  0  0  0  0  0  0  0
   16.2171   -6.4985    5.2194 C   0  0  0  0  0  0  0  0  0  0  0  0
   18.5904   -5.9297    5.1440 C   0  0  0  0  0  0  0  0  0  0  0  0
   16.2378   -6.6494    3.8339 C   0  0  0  0  0  0  0  0  0  0  0  0
   18.6190   -6.0873    3.7657 C   0  0  0  0  0  0  0  0  0  0  0  0
   17.3999   -6.1249    5.8582 C   0  0  0  0  0  0  0  0  0  0  0  0
   17.4263   -6.4186    3.1163 C   0  0  0  0  0  0  0  0  0  0  0  0
   17.4746   -6.6632    1.7514 C   0  0  0  0  0  0  0  0  0  0  0  0
   14.5418   -4.7679    0.2279 C   0  0  0  0  0  0  0  0  0  0  0  0
   16.1902   -3.1313    0.8802 C   0  0  0  0  0  0  0  0  0  0  0  0
   15.3914   -5.7444    0.7150 C   0  0  0  0  0  0  0  0  0  0  0  0
   17.0617   -4.1225    1.3681 C   0  0  0  0  0  0  0  0  0  0  0  0
   14.9370   -3.4409    0.3130 C   0  0  0  0  0  0  0  0  0  0  0  0
   16.6568   -5.4694    1.2994 N   0  0  0  0  0  0  0  0  0  0  0  0
   14.6367   -1.4155   -0.9872 C   0  0  0  0  0  0  0  0  0  0  0  0
   12.6406   -2.6316    0.1286 C   0  0  0  0  0  0  0  0  0  0  0  0
   14.0844   -2.5167   -0.1623 N   0  0  0  0  0  0  0  0  0  0  0  0
   19.5745  -10.0018    2.8288 C   0  0  0  0  0  0  0  0  0  0  0  0
   22.5609   -7.6061    2.7299 C   0  0  0  0  0  0  0  0  0  0  0  0
   23.3529   -9.8313    3.2809 C   0  0  0  0  0  0  0  0  0  0  0  0
   21.2472   -8.0969    2.6567 C   0  0  0  0  0  0  0  0  0  0  0  0
   22.0493  -10.3292    3.2159 C   0  0  0  0  0  0  0  0  0  0  0  0
   23.6348   -8.4725    3.0493 C   0  0  0  0  0  0  0  0  0  0  0  0
   20.9808   -9.4761    2.8869 N   0  0  0  0  0  0  0  0  0  0  0  0
   25.7169   -8.2662    4.3509 C   0  0  0  0  0  0  0  0  0  0  0  0
   24.9177   -8.0265    3.1315 N   0  0  0  0  0  0  0  0  0  0  0  0
   27.3824   -5.0944   -1.3710 Cl  0  0  0  0  0  0  0  0  0  0  0  0
   26.4010   -5.2923    1.1653 C   0  0  0  0  0  0  0  0  0  0  0  0
   26.2923   -7.3209   -0.1799 C   0  0  0  0  0  0  0  0  0  0  0  0
   25.8172   -5.9885    2.2293 C   0  0  0  0  0  0  0  0  0  0  0  0
   25.7026   -8.0103    0.8863 C   0  0  0  0  0  0  0  0  0  0  0  0
   26.6331   -5.9658   -0.0365 C   0  0  0  0  0  0  0  0  0  0  0  0
   25.4756   -7.3463    2.0933 C   0  0  0  0  0  0  0  0  0  0  0  0
 36 41  1  0  0  0
 24 26  1  0  0  0
 25 26  1  0  0  0
 34 35  1  0  0  0
 37 39  2  0  0  0
 37 41  1  0  0  0
 38 40  1  0  0  0
 38 41  2  0  0  0
 11 13  2  0  0  0
 11 15  1  0  0  0
 12 14  1  0  0  0
 12 15  2  0  0  0
  1  3  2  0  0  0
  1  5  1  0  0  0
  2  4  1  0  0  0
  2  5  2  0  0  0
 13 16  1  0  0  0
 14 16  2  0  0  0
  3  6  1  0  0  0
  4  6  2  0  0  0
 39 42  1  0  0  0
 40 42  2  0  0  0
 18 20  2  0  0  0
 18 22  1  0  0  0
 19 21  1  0  0  0
 19 22  2  0  0  0
 28 30  2  0  0  0
 28 32  1  0  0  0
 29 31  1  0  0  0
 29 32  2  0  0  0
 20 23  1  0  0  0
 21 23  2  0  0  0
 30 33  1  0  0  0
 31 33  2  0  0  0
  9  8  1  0  0  0
  9 10  1  0  0  0
  8  7  1  0  0  0
 10 15  1  0  0  0
  7  5  1  0  0  0
 17 16  1  0  0  0
 17 23  1  0  0  0
 27  6  1  0  0  0
 27 33  1  0  0  0
 22 26  1  0  0  0
 42 35  1  0  0  0
 32 35  1  0  0  0
M  CHG 1  23   1
M  CHG 1  33   1
M  END
> <minimizedAffinity>
-9.19496

$$$$
4CG8_G8S_A_1458


 42 46  0  0  0  0  0  0  0  0999 V2000
   16.9121   -6.7343    4.0142 C   0  0  0  0  0  0  0  0  0  0  0  0
   18.3824   -5.8187    5.6879 C   0  0  0  0  0  0  0  0  0  0  0  0
   17.8966   -6.5240    3.0304 C   0  0  0  0  0  0  0  0  0  0  0  0
   19.3672   -5.6076    4.7080 C   0  0  0  0  0  0  0  0  0  0  0  0
   17.1370   -6.3783    5.3545 C   0  0  0  0  0  0  0  0  0  0  0  0
   19.1363   -5.9737    3.3702 C   0  0  0  0  0  0  0  0  0  0  0  0
   16.1196   -6.6031    6.3317 C   0  0  0  0  0  0  0  0  0  0  0  0
   16.7048   -6.9946    7.7210 C   0  0  0  0  0  0  0  0  0  0  0  0
   17.1319   -8.4972    7.8398 C   0  0  0  0  0  0  0  0  0  0  0  0
   16.5095   -9.3876    6.7031 C   0  0  0  0  0  0  0  0  0  0  0  0
   17.4509  -11.5087    6.0963 C   0  0  0  0  0  0  0  0  0  0  0  0
   18.8061   -9.4779    6.0643 C   0  0  0  0  0  0  0  0  0  0  0  0
   18.5748  -12.2316    5.6995 C   0  0  0  0  0  0  0  0  0  0  0  0
   19.9304  -10.1938    5.6780 C   0  0  0  0  0  0  0  0  0  0  0  0
   17.5805  -10.1294    6.2614 C   0  0  0  0  0  0  0  0  0  0  0  0
   19.7949  -11.5692    5.4687 C   0  0  0  0  0  0  0  0  0  0  0  0
   20.9373  -12.2977    5.1700 C   0  0  0  0  0  0  0  0  0  0  0  0
   21.2475  -13.9391    8.5941 C   0  0  0  0  0  0  0  0  0  0  0  0
   22.6423  -11.9705    8.6151 C   0  0  0  0  0  0  0  0  0  0  0  0
   20.9197  -13.6318    7.2861 C   0  0  0  0  0  0  0  0  0  0  0  0
   22.3038  -11.6490    7.2877 C   0  0  0  0  0  0  0  0  0  0  0  0
   22.1241  -13.1051    9.2725 C   0  0  0  0  0  0  0  0  0  0  0  0
   21.4278  -12.5025    6.5898 N   0  0  0  0  0  0  0  0  0  0  0  0
   22.1025  -12.4671   11.6126 C   0  0  0  0  0  0  0  0  0  0  0  0
   23.0496  -14.7459   10.8262 C   0  0  0  0  0  0  0  0  0  0  0  0
   22.4278  -13.4370   10.5393 N   0  0  0  0  0  0  0  0  0  0  0  0
   20.1342   -5.7252    2.4038 C   0  0  0  0  0  0  0  0  0  0  0  0
   23.8257   -6.6387    2.8574 C   0  0  0  0  0  0  0  0  0  0  0  0
   22.5635   -8.6593    2.4032 C   0  0  0  0  0  0  0  0  0  0  0  0
   22.6437   -5.8858    2.7682 C   0  0  0  0  0  0  0  0  0  0  0  0
   21.3807   -7.9207    2.3174 C   0  0  0  0  0  0  0  0  0  0  0  0
   23.7980   -8.0434    2.6793 C   0  0  0  0  0  0  0  0  0  0  0  0
   21.4043   -6.5242    2.4810 N   0  0  0  0  0  0  0  0  0  0  0  0
   25.2919   -9.7218    1.6677 C   0  0  0  0  0  0  0  0  0  0  0  0
   24.9253   -8.8007    2.7634 N   0  0  0  0  0  0  0  0  0  0  0  0
   28.4175   -8.5025    7.5235 Cl  0  0  0  0  0  0  0  0  0  0  0  0
   26.0995   -9.1358    6.2347 C   0  0  0  0  0  0  0  0  0  0  0  0
   27.8260   -8.0910    4.8693 C   0  0  0  0  0  0  0  0  0  0  0  0
   25.2748   -9.2049    5.1066 C   0  0  0  0  0  0  0  0  0  0  0  0
   26.9937   -8.1572    3.7456 C   0  0  0  0  0  0  0  0  0  0  0  0
   27.3729   -8.5754    6.1075 C   0  0  0  0  0  0  0  0  0  0  0  0
   25.7232   -8.7238    3.8631 C   0  0  0  0  0  0  0  0  0  0  0  0
 36 41  1  0  0  0
 24 26  1  0  0  0
 25 26  1  0  0  0
 34 35  1  0  0  0
 37 39  2  0  0  0
 37 41  1  0  0  0
 38 40  1  0  0  0
 38 41  2  0  0  0
 11 13  2  0  0  0
 11 15  1  0  0  0
 12 14  1  0  0  0
 12 15  2  0  0  0
  1  3  2  0  0  0
  1  5  1  0  0  0
  2  4  1  0  0  0
  2  5  2  0  0  0
 13 16  1  0  0  0
 14 16  2  0  0  0
  3  6  1  0  0  0
  4  6  2  0  0  0
 39 42  1  0  0  0
 40 42  2  0  0  0
 18 20  2  0  0  0
 18 22  1  0  0  0
 19 21  1  0  0  0
 19 22  2  0  0  0
 28 30  2  0  0  0
 28 32  1  0  0  0
 29 31  1  0  0  0
 29 32  2  0  0  0
 20 23  1  0  0  0
 21 23  2  0  0  0
 30 33  1  0  0  0
 31 33  2  0  0  0
  9  8  1  0  0  0
  9 10  1  0  0  0
  8  7  1  0  0  0
 10 15  1  0  0  0
  7  5  1  0  0  0
 17 16  1  0  0  0
 17 23  1  0  0  0
 27  6  1  0  0  0
 27 33  1  0  0  0
 22 26  1  0  0  0
 42 35  1  0  0  0
 32 35  1  0  0  0
M  CHG 1  23   1
M  CHG 1  33   1
M  END
> <minimizedAffinity>
-8.88008

$$$$
4CG8_G8S_A_1458


 42 46  0  0  0  0  0  0  0  0999 V2000
   15.8770  -10.1039    5.6157 C   0  0  0  0  0  0  0  0  0  0  0  0
   18.1520   -9.6198    6.2413 C   0  0  0  0  0  0  0  0  0  0  0  0
   16.3041  -10.4495    4.3197 C   0  0  0  0  0  0  0  0  0  0  0  0
   18.5814   -9.9643    4.9485 C   0  0  0  0  0  0  0  0  0  0  0  0
   16.7922   -9.6771    6.5924 C   0  0  0  0  0  0  0  0  0  0  0  0
   17.6593  -10.3975    3.9793 C   0  0  0  0  0  0  0  0  0  0  0  0
   16.3303   -9.3324    7.8994 C   0  0  0  0  0  0  0  0  0  0  0  0
   17.0134   -8.0463    8.4521 C   0  0  0  0  0  0  0  0  0  0  0  0
   16.4877   -6.7142    7.8171 C   0  0  0  0  0  0  0  0  0  0  0  0
   17.6352   -5.8831    7.1351 C   0  0  0  0  0  0  0  0  0  0  0  0
   16.1987   -6.4785    5.3088 C   0  0  0  0  0  0  0  0  0  0  0  0
   18.5947   -6.1547    4.9680 C   0  0  0  0  0  0  0  0  0  0  0  0
   16.0771   -6.7933    3.9563 C   0  0  0  0  0  0  0  0  0  0  0  0
   18.4811   -6.4761    3.6229 C   0  0  0  0  0  0  0  0  0  0  0  0
   17.4635   -6.1482    5.7962 C   0  0  0  0  0  0  0  0  0  0  0  0
   17.2091   -6.7649    3.1205 C   0  0  0  0  0  0  0  0  0  0  0  0
   17.1088   -7.1725    1.7980 C   0  0  0  0  0  0  0  0  0  0  0  0
   16.3970   -3.6261    0.6018 C   0  0  0  0  0  0  0  0  0  0  0  0
   14.2976   -4.8151    0.6052 C   0  0  0  0  0  0  0  0  0  0  0  0
   16.9996   -4.7897    1.0442 C   0  0  0  0  0  0  0  0  0  0  0  0
   14.9052   -5.9983    1.0645 C   0  0  0  0  0  0  0  0  0  0  0  0
   15.0290   -3.6325    0.3718 C   0  0  0  0  0  0  0  0  0  0  0  0
   16.2964   -6.0009    1.2826 N   0  0  0  0  0  0  0  0  0  0  0  0
   12.9985   -2.4156   -0.1569 C   0  0  0  0  0  0  0  0  0  0  0  0
   15.3416   -1.3432   -0.4183 C   0  0  0  0  0  0  0  0  0  0  0  0
   14.4766   -2.4875   -0.0652 N   0  0  0  0  0  0  0  0  0  0  0  0
   18.1169  -10.7114    2.6818 C   0  0  0  0  0  0  0  0  0  0  0  0
   21.8202  -11.6560    2.4359 C   0  0  0  0  0  0  0  0  0  0  0  0
   21.5216   -9.4067    1.5793 C   0  0  0  0  0  0  0  0  0  0  0  0
   20.4437  -11.7321    2.7028 C   0  0  0  0  0  0  0  0  0  0  0  0
   20.1500   -9.4735    1.8359 C   0  0  0  0  0  0  0  0  0  0  0  0
   22.3775  -10.4867    1.8633 C   0  0  0  0  0  0  0  0  0  0  0  0
   19.5932  -10.6273    2.4159 N   0  0  0  0  0  0  0  0  0  0  0  0
   24.4098  -11.4699    0.8760 C   0  0  0  0  0  0  0  0  0  0  0  0
   23.7064  -10.3839    1.5894 N   0  0  0  0  0  0  0  0  0  0  0  0
   26.6960   -5.5764    3.2905 Cl  0  0  0  0  0  0  0  0  0  0  0  0
   25.6697   -7.2761    1.4215 C   0  0  0  0  0  0  0  0  0  0  0  0
   25.2663   -7.8811    3.7470 C   0  0  0  0  0  0  0  0  0  0  0  0
   24.9620   -8.4148    1.0216 C   0  0  0  0  0  0  0  0  0  0  0  0
   24.5646   -9.0222    3.3405 C   0  0  0  0  0  0  0  0  0  0  0  0
   25.8189   -7.0180    2.7864 C   0  0  0  0  0  0  0  0  0  0  0  0
   24.4040   -9.2821    1.9783 C   0  0  0  0  0  0  0  0  0  0  0  0
 36 41  1  0  0  0
 24 26  1  0  0  0
 25 26  1  0  0  0
 34 35  1  0  0  0
 37 39  2  0  0  0
 37 41  1  0  0  0
 38 40  1  0  0  0
 38 41  2  0  0  0
 11 13  2  0  0  0
 11 15  1  0  0  0
 12 14  1  0  0  0
 12 15  2  0  0  0
  1  3  2  0  0  0
  1  5  1  0  0  0
  2  4  1  0  0  0
  2  5  2  0  0  0
 13 16  1  0  0  0
 14 16  2  0  0  0
  3  6  1  0  0  0
  4  6  2  0  0  0
 39 42  1  0  0  0
 40 42  2  0  0  0
 18 20  2  0  0  0
 18 22  1  0  0  0
 19 21  1  0  0  0
 19 22  2  0  0  0
 28 30  2  0  0  0
 28 32  1  0  0  0
 29 31  1  0  0  0
 29 32  2  0  0  0
 20 23  1  0  0  0
 21 23  2  0  0  0
 30 33  1  0  0  0
 31 33  2  0  0  0
  9  8  1  0  0  0
  9 10  1  0  0  0
  8  7  1  0  0  0
 10 15  1  0  0  0
  7  5  1  0  0  0
 17 16  1  0  0  0
 17 23  1  0  0  0
 27  6  1  0  0  0
 27 33  1  0  0  0
 22 26  1  0  0  0
 42 35  1  0  0  0
 32 35  1  0  0  0
M  CHG 1  23   1
M  CHG 1  33   1
M  END
> <minimizedAffinity>
-8.82315

$$$$
4CG8_G8S_A_1458


 42 46  0  0  0  0  0  0  0  0999 V2000
   16.6277  -10.0235    5.1253 C   0  0  0  0  0  0  0  0  0  0  0  0
   18.5740   -9.6185    6.4850 C   0  0  0  0  0  0  0  0  0  0  0  0
   17.4516  -10.2308    4.0029 C   0  0  0  0  0  0  0  0  0  0  0  0
   19.3992   -9.8250    5.3666 C   0  0  0  0  0  0  0  0  0  0  0  0
   17.1753   -9.7072    6.3797 C   0  0  0  0  0  0  0  0  0  0  0  0
   18.8429  -10.1485    4.1163 C   0  0  0  0  0  0  0  0  0  0  0  0
   16.3149   -9.5019    7.5014 C   0  0  0  0  0  0  0  0  0  0  0  0
   16.6606   -8.2020    8.2867 C   0  0  0  0  0  0  0  0  0  0  0  0
   16.3710   -6.8782    7.5005 C   0  0  0  0  0  0  0  0  0  0  0  0
   17.6837   -6.2098    6.9505 C   0  0  0  0  0  0  0  0  0  0  0  0
   18.3868   -5.4996    4.7700 C   0  0  0  0  0  0  0  0  0  0  0  0
   16.1839   -6.4938    5.1172 C   0  0  0  0  0  0  0  0  0  0  0  0
   18.0739   -5.3457    3.4204 C   0  0  0  0  0  0  0  0  0  0  0  0
   15.8635   -6.3349    3.7765 C   0  0  0  0  0  0  0  0  0  0  0  0
   17.4349   -6.0882    5.6030 C   0  0  0  0  0  0  0  0  0  0  0  0
   16.8305   -5.7859    2.9295 C   0  0  0  0  0  0  0  0  0  0  0  0
   16.4782   -5.5451    1.6093 C   0  0  0  0  0  0  0  0  0  0  0  0
   19.4558   -6.5276   -0.5549 C   0  0  0  0  0  0  0  0  0  0  0  0
   18.5359   -8.5607    0.3623 C   0  0  0  0  0  0  0  0  0  0  0  0
   18.4768   -5.8336    0.1326 C   0  0  0  0  0  0  0  0  0  0  0  0
   17.5322   -7.8592    1.0556 C   0  0  0  0  0  0  0  0  0  0  0  0
   19.4957   -7.9094   -0.4392 C   0  0  0  0  0  0  0  0  0  0  0  0
   17.4988   -6.4551    0.9547 N   0  0  0  0  0  0  0  0  0  0  0  0
   20.2878   -8.7481   -2.5728 C   0  0  0  0  0  0  0  0  0  0  0  0
   21.6692   -9.0216   -0.3990 C   0  0  0  0  0  0  0  0  0  0  0  0
   20.4646   -8.5522   -1.1138 N   0  0  0  0  0  0  0  0  0  0  0  0
   19.6953  -10.3242    3.0055 C   0  0  0  0  0  0  0  0  0  0  0  0
   22.5372   -7.7618    3.1641 C   0  0  0  0  0  0  0  0  0  0  0  0
   23.4822   -9.9938    3.2507 C   0  0  0  0  0  0  0  0  0  0  0  0
   21.2492   -8.3153    3.0826 C   0  0  0  0  0  0  0  0  0  0  0  0
   22.2051  -10.5551    3.1752 C   0  0  0  0  0  0  0  0  0  0  0  0
   23.6751   -8.6001    3.2542 C   0  0  0  0  0  0  0  0  0  0  0  0
   21.0726   -9.7277    3.0730 N   0  0  0  0  0  0  0  0  0  0  0  0
   25.7412   -8.2912    4.5610 C   0  0  0  0  0  0  0  0  0  0  0  0
   24.9354   -8.0941    3.3382 N   0  0  0  0  0  0  0  0  0  0  0  0
   27.2738   -5.0692   -1.1701 Cl  0  0  0  0  0  0  0  0  0  0  0  0
   26.3233   -5.3088    1.3744 C   0  0  0  0  0  0  0  0  0  0  0  0
   26.2573   -7.3318    0.0180 C   0  0  0  0  0  0  0  0  0  0  0  0
   25.7695   -6.0269    2.4398 C   0  0  0  0  0  0  0  0  0  0  0  0
   25.6974   -8.0433    1.0857 C   0  0  0  0  0  0  0  0  0  0  0  0
   26.5620   -5.9687    0.1663 C   0  0  0  0  0  0  0  0  0  0  0  0
   25.4641   -7.3929    2.2988 C   0  0  0  0  0  0  0  0  0  0  0  0
 36 41  1  0  0  0
 24 26  1  0  0  0
 25 26  1  0  0  0
 34 35  1  0  0  0
 37 39  2  0  0  0
 37 41  1  0  0  0
 38 40  1  0  0  0
 38 41  2  0  0  0
 11 13  2  0  0  0
 11 15  1  0  0  0
 12 14  1  0  0  0
 12 15  2  0  0  0
  1  3  2  0  0  0
  1  5  1  0  0  0
  2  4  1  0  0  0
  2  5  2  0  0  0
 13 16  1  0  0  0
 14 16  2  0  0  0
  3  6  1  0  0  0
  4  6  2  0  0  0
 39 42  1  0  0  0
 40 42  2  0  0  0
 18 20  2  0  0  0
 18 22  1  0  0  0
 19 21  1  0  0  0
 19 22  2  0  0  0
 28 30  2  0  0  0
 28 32  1  0  0  0
 29 31  1  0  0  0
 29 32  2  0  0  0
 20 23  1  0  0  0
 21 23  2  0  0  0
 30 33  1  0  0  0
 31 33  2  0  0  0
  9  8  1  0  0  0
  9 10  1  0  0  0
  8  7  1  0  0  0
 10 15  1  0  0  0
  7  5  1  0  0  0
 17 16  1  0  0  0
 17 23  1  0  0  0
 27  6  1  0  0  0
 27 33  1  0  0  0
 22 26  1  0  0  0
 42 35  1  0  0  0
 32 35  1  0  0  0
M  CHG 1  23   1
M  CHG 1  33   1
M  END
> <minimizedAffinity>
-8.79535

$$$$
4CG8_G8S_A_1458


 42 46  0  0  0  0  0  0  0  0999 V2000
   15.2908   -6.3223    3.0314 C   0  0  0  0  0  0  0  0  0  0  0  0
   14.1650   -6.4581    0.9065 C   0  0  0  0  0  0  0  0  0  0  0  0
   15.4616   -7.7195    3.0333 C   0  0  0  0  0  0  0  0  0  0  0  0
   14.3342   -7.8530    0.9053 C   0  0  0  0  0  0  0  0  0  0  0  0
   14.6341   -5.6723    1.9732 C   0  0  0  0  0  0  0  0  0  0  0  0
   14.9992   -8.4946    1.9652 C   0  0  0  0  0  0  0  0  0  0  0  0
   14.4748   -4.2529    1.9980 C   0  0  0  0  0  0  0  0  0  0  0  0
   14.5808   -3.6171    0.5801 C   0  0  0  0  0  0  0  0  0  0  0  0
   16.0249   -3.1524    0.1889 C   0  0  0  0  0  0  0  0  0  0  0  0
   16.8537   -4.2949   -0.5039 C   0  0  0  0  0  0  0  0  0  0  0  0
   18.0781   -3.8981    1.5201 C   0  0  0  0  0  0  0  0  0  0  0  0
   18.0880   -6.0961    0.4569 C   0  0  0  0  0  0  0  0  0  0  0  0
   18.9324   -4.3994    2.5009 C   0  0  0  0  0  0  0  0  0  0  0  0
   18.9456   -6.5981    1.4254 C   0  0  0  0  0  0  0  0  0  0  0  0
   17.6542   -4.7641    0.5117 C   0  0  0  0  0  0  0  0  0  0  0  0
   19.3380   -5.7466    2.4621 C   0  0  0  0  0  0  0  0  0  0  0  0
   20.2647   -6.2216    3.3791 C   0  0  0  0  0  0  0  0  0  0  0  0
   18.2906   -8.8114    5.3567 C   0  0  0  0  0  0  0  0  0  0  0  0
   17.5807   -6.6353    6.1192 C   0  0  0  0  0  0  0  0  0  0  0  0
   19.1609   -8.1701    4.4941 C   0  0  0  0  0  0  0  0  0  0  0  0
   18.4578   -5.9787    5.2361 C   0  0  0  0  0  0  0  0  0  0  0  0
   17.4905   -8.0407    6.1874 C   0  0  0  0  0  0  0  0  0  0  0  0
   19.2841   -6.7576    4.4036 N   0  0  0  0  0  0  0  0  0  0  0  0
   15.9116   -9.8577    6.4852 C   0  0  0  0  0  0  0  0  0  0  0  0
   16.5378   -8.2597    8.4250 C   0  0  0  0  0  0  0  0  0  0  0  0
   16.6620   -8.6957    7.0190 N   0  0  0  0  0  0  0  0  0  0  0  0
   15.1306   -9.8995    1.9490 C   0  0  0  0  0  0  0  0  0  0  0  0
   17.8700  -12.0574    3.5323 C   0  0  0  0  0  0  0  0  0  0  0  0
   18.8677  -10.6296    1.8446 C   0  0  0  0  0  0  0  0  0  0  0  0
   16.6116  -11.5001    3.2532 C   0  0  0  0  0  0  0  0  0  0  0  0
   17.6199  -10.0721    1.5552 C   0  0  0  0  0  0  0  0  0  0  0  0
   19.0188  -11.6289    2.8235 C   0  0  0  0  0  0  0  0  0  0  0  0
   16.4779  -10.4848    2.2645 N   0  0  0  0  0  0  0  0  0  0  0  0
   21.0296  -12.7750    1.9780 C   0  0  0  0  0  0  0  0  0  0  0  0
   20.2507  -12.1522    3.0683 N   0  0  0  0  0  0  0  0  0  0  0  0
   22.5710  -12.0021    8.5031 Cl  0  0  0  0  0  0  0  0  0  0  0  0
   21.0629  -13.1188    6.5248 C   0  0  0  0  0  0  0  0  0  0  0  0
   22.1298  -10.9968    5.9814 C   0  0  0  0  0  0  0  0  0  0  0  0
   20.5147  -13.1518    5.2380 C   0  0  0  0  0  0  0  0  0  0  0  0
   21.5732  -11.0323    4.6974 C   0  0  0  0  0  0  0  0  0  0  0  0
   21.8677  -12.0364    6.8888 C   0  0  0  0  0  0  0  0  0  0  0  0
   20.7750  -12.1151    4.3234 C   0  0  0  0  0  0  0  0  0  0  0  0
 36 41  1  0  0  0
 24 26  1  0  0  0
 25 26  1  0  0  0
 34 35  1  0  0  0
 37 39  2  0  0  0
 37 41  1  0  0  0
 38 40  1  0  0  0
 38 41  2  0  0  0
 11 13  2  0  0  0
 11 15  1  0  0  0
 12 14  1  0  0  0
 12 15  2  0  0  0
  1  3  2  0  0  0
  1  5  1  0  0  0
  2  4  1  0  0  0
  2  5  2  0  0  0
 13 16  1  0  0  0
 14 16  2  0  0  0
  3  6  1  0  0  0
  4  6  2  0  0  0
 39 42  1  0  0  0
 40 42  2  0  0  0
 18 20  2  0  0  0
 18 22  1  0  0  0
 19 21  1  0  0  0
 19 22  2  0  0  0
 28 30  2  0  0  0
 28 32  1  0  0  0
 29 31  1  0  0  0
 29 32  2  0  0  0
 20 23  1  0  0  0
 21 23  2  0  0  0
 30 33  1  0  0  0
 31 33  2  0  0  0
  9  8  1  0  0  0
  9 10  1  0  0  0
  8  7  1  0  0  0
 10 15  1  0  0  0
  7  5  1  0  0  0
 17 16  1  0  0  0
 17 23  1  0  0  0
 27  6  1  0  0  0
 27 33  1  0  0  0
 22 26  1  0  0  0
 42 35  1  0  0  0
 32 35  1  0  0  0
M  CHG 1  23   1
M  CHG 1  33   1
M  END
> <minimizedAffinity>
-8.76867

$$$$
4CG8_G8S_A_1458


 42 46  0  0  0  0  0  0  0  0999 V2000
   15.4905   -6.6095    4.1032 C   0  0  0  0  0  0  0  0  0  0  0  0
   14.6386   -7.4031    1.9947 C   0  0  0  0  0  0  0  0  0  0  0  0
   15.7552   -7.9344    4.4980 C   0  0  0  0  0  0  0  0  0  0  0  0
   14.9018   -8.7268    2.3858 C   0  0  0  0  0  0  0  0  0  0  0  0
   14.9219   -6.3248    2.8505 C   0  0  0  0  0  0  0  0  0  0  0  0
   15.4778   -9.0022    3.6387 C   0  0  0  0  0  0  0  0  0  0  0  0
   14.6639   -4.9705    2.4764 C   0  0  0  0  0  0  0  0  0  0  0  0
   15.0305   -4.6833    0.9901 C   0  0  0  0  0  0  0  0  0  0  0  0
   16.2287   -3.6915    0.8024 C   0  0  0  0  0  0  0  0  0  0  0  0
   17.4471   -4.3581    0.0652 C   0  0  0  0  0  0  0  0  0  0  0  0
   18.1338   -6.5202    0.8445 C   0  0  0  0  0  0  0  0  0  0  0  0
   18.3876   -4.5398    2.2500 C   0  0  0  0  0  0  0  0  0  0  0  0
   18.6643   -7.2886    1.8794 C   0  0  0  0  0  0  0  0  0  0  0  0
   18.9079   -5.3010    3.2870 C   0  0  0  0  0  0  0  0  0  0  0  0
   18.0145   -5.1441    1.0412 C   0  0  0  0  0  0  0  0  0  0  0  0
   19.0702   -6.6736    3.0786 C   0  0  0  0  0  0  0  0  0  0  0  0
   19.5060   -7.4468    4.1451 C   0  0  0  0  0  0  0  0  0  0  0  0
   22.9476   -8.6289    3.0167 C   0  0  0  0  0  0  0  0  0  0  0  0
   23.1982   -6.3726    3.8336 C   0  0  0  0  0  0  0  0  0  0  0  0
   21.5987   -8.5305    3.3057 C   0  0  0  0  0  0  0  0  0  0  0  0
   21.8280   -6.2718    4.1381 C   0  0  0  0  0  0  0  0  0  0  0  0
   23.7637   -7.5377    3.2763 C   0  0  0  0  0  0  0  0  0  0  0  0
   20.9931   -7.3710    3.8600 N   0  0  0  0  0  0  0  0  0  0  0  0
   25.9381   -6.4731    3.1281 C   0  0  0  0  0  0  0  0  0  0  0  0
   25.5953   -8.9696    2.5294 C   0  0  0  0  0  0  0  0  0  0  0  0
   25.0680   -7.6640    2.9764 N   0  0  0  0  0  0  0  0  0  0  0  0
   15.7062  -10.3431    4.0144 C   0  0  0  0  0  0  0  0  0  0  0  0
   18.9539  -10.9910    5.9380 C   0  0  0  0  0  0  0  0  0  0  0  0
   19.2267  -11.7517    3.6513 C   0  0  0  0  0  0  0  0  0  0  0  0
   17.6419  -10.5871    5.6422 C   0  0  0  0  0  0  0  0  0  0  0  0
   17.9211  -11.3584    3.3474 C   0  0  0  0  0  0  0  0  0  0  0  0
   19.7647  -11.5858    4.9406 C   0  0  0  0  0  0  0  0  0  0  0  0
   17.1159  -10.7559    4.3303 N   0  0  0  0  0  0  0  0  0  0  0  0
   22.0536  -11.9928    4.1239 C   0  0  0  0  0  0  0  0  0  0  0  0
   21.0380  -11.9909    5.1972 N   0  0  0  0  0  0  0  0  0  0  0  0
   22.5131  -13.7879   10.6321 Cl  0  0  0  0  0  0  0  0  0  0  0  0
   22.6245  -12.0712    8.5165 C   0  0  0  0  0  0  0  0  0  0  0  0
   21.2009  -14.0272    8.2269 C   0  0  0  0  0  0  0  0  0  0  0  0
   22.2740  -11.6483    7.2297 C   0  0  0  0  0  0  0  0  0  0  0  0
   20.8590  -13.6020    6.9377 C   0  0  0  0  0  0  0  0  0  0  0  0
   22.0848  -13.2631    9.0064 C   0  0  0  0  0  0  0  0  0  0  0  0
   21.3875  -12.4075    6.4446 C   0  0  0  0  0  0  0  0  0  0  0  0
 36 41  1  0  0  0
 24 26  1  0  0  0
 25 26  1  0  0  0
 34 35  1  0  0  0
 37 39  2  0  0  0
 37 41  1  0  0  0
 38 40  1  0  0  0
 38 41  2  0  0  0
 11 13  2  0  0  0
 11 15  1  0  0  0
 12 14  1  0  0  0
 12 15  2  0  0  0
  1  3  2  0  0  0
  1  5  1  0  0  0
  2  4  1  0  0  0
  2  5  2  0  0  0
 13 16  1  0  0  0
 14 16  2  0  0  0
  3  6  1  0  0  0
  4  6  2  0  0  0
 39 42  1  0  0  0
 40 42  2  0  0  0
 18 20  2  0  0  0
 18 22  1  0  0  0
 19 21  1  0  0  0
 19 22  2  0  0  0
 28 30  2  0  0  0
 28 32  1  0  0  0
 29 31  1  0  0  0
 29 32  2  0  0  0
 20 23  1  0  0  0
 21 23  2  0  0  0
 30 33  1  0  0  0
 31 33  2  0  0  0
  9  8  1  0  0  0
  9 10  1  0  0  0
  8  7  1  0  0  0
 10 15  1  0  0  0
  7  5  1  0  0  0
 17 16  1  0  0  0
 17 23  1  0  0  0
 27  6  1  0  0  0
 27 33  1  0  0  0
 22 26  1  0  0  0
 42 35  1  0  0  0
 32 35  1  0  0  0
M  CHG 1  23   1
M  CHG 1  33   1
M  END
> <minimizedAffinity>
-8.74273

$$$$
