2WKY_IBC_A_1260


 21 22  0  0  0  0  0  0  0  0999 V2000
   33.1248   -0.3837   77.8420 C   0  0  0  0  0  0  0  0  0  0  0  0
   34.4783   -0.6949   77.7999 C   0  0  0  0  0  0  0  0  0  0  0  0
   32.1091   -1.2898   78.1386 C   0  0  0  0  0  0  0  0  0  0  0  0
   32.1908   -2.6546   78.3950 C   0  0  0  0  0  0  0  0  0  0  0  0
   33.2939   -3.5035   78.4248 C   0  0  0  0  0  0  0  0  0  0  0  0
   34.4943   -2.9269   79.1796 C   0  0  0  0  0  0  0  0  0  0  0  0
   35.1208   -1.7703   78.3964 C   0  0  0  0  0  0  0  0  0  0  0  0
   36.4598   -1.6677   78.1470 O   0  0  0  0  0  0  0  0  0  0  0  0
   36.6548   -0.4933   77.3666 N   0  0  0  0  0  0  0  0  0  0  0  0
   35.4607    0.0636   77.1737 C   0  0  0  0  0  0  0  0  0  0  0  0
   35.2677    1.0899   76.5266 O   0  0  0  0  0  0  0  0  0  0  0  0
   34.3987    1.4271   76.4311 H   0  0  0  0  0  0  0  0  0  0  0  0
   32.7409    1.0752   77.5905 C   0  0  0  0  0  0  0  0  0  0  0  0
   31.8988    1.2145   76.3189 C   0  0  0  0  0  0  0  0  0  0  0  0
   32.7783    1.5052   75.1783 N   0  0  0  0  0  0  0  0  0  0  0  0
   33.2780    2.3780   75.3481 H   0  0  0  0  0  0  0  0  0  0  0  0
   32.2179    1.5936   74.3307 H   0  0  0  0  0  0  0  0  0  0  0  0
   31.1207    3.4031   75.8088 O   0  0  0  0  0  0  0  0  0  0  0  0
   30.9048    2.3686   76.4754 C   0  0  0  0  0  0  0  0  0  0  0  0
   29.9539    2.1942   77.2644 O   0  0  0  0  0  0  0  0  0  0  0  0
   31.8629    3.4466   75.2385 H   0  0  0  0  0  0  0  0  0  0  0  0
 18 19  1  0  0  0
 19 20  2  0  0  0
 19 14  1  0  0  0
 14 15  1  0  0  0
 14 13  1  0  0  0
 13  1  1  0  0  0
  1  2  1  0  0  0
  1  3  2  0  0  0
  2  7  2  0  0  0
  2 10  1  0  0  0
  3  4  1  0  0  0
  4  5  1  0  0  0
  5  6  1  0  0  0
  6  7  1  0  0  0
  7  8  1  0  0  0
  8  9  1  0  0  0
  9 10  2  0  0  0
 10 11  1  0  0  0
 18 21  1  0  0  0
 15 16  1  0  0  0
 15 17  1  0  0  0
 11 12  1  0  0  0
M  END
> <minimizedAffinity>
-9.38818

$$$$
2WKY_IBC_A_1260


 21 22  0  0  0  0  0  0  0  0999 V2000
   33.4294   -0.0293   77.8473 C   0  0  0  0  0  0  0  0  0  0  0  0
   33.2237   -1.3866   77.6332 C   0  0  0  0  0  0  0  0  0  0  0  0
   34.6705    0.5610   78.0753 C   0  0  0  0  0  0  0  0  0  0  0  0
   35.9227   -0.0336   78.1920 C   0  0  0  0  0  0  0  0  0  0  0  0
   36.2966   -1.3729   78.1216 C   0  0  0  0  0  0  0  0  0  0  0  0
   35.6481   -2.1331   76.9620 C   0  0  0  0  0  0  0  0  0  0  0  0
   34.1510   -2.3299   77.2143 C   0  0  0  0  0  0  0  0  0  0  0  0
   33.5168   -3.5323   77.0826 O   0  0  0  0  0  0  0  0  0  0  0  0
   32.1525   -3.3306   77.4354 N   0  0  0  0  0  0  0  0  0  0  0  0
   32.0072   -2.0474   77.7602 C   0  0  0  0  0  0  0  0  0  0  0  0
   30.9514   -1.5375   78.1271 O   0  0  0  0  0  0  0  0  0  0  0  0
   30.9207   -0.6257   78.3406 H   0  0  0  0  0  0  0  0  0  0  0  0
   32.2001    0.8779   77.7758 C   0  0  0  0  0  0  0  0  0  0  0  0
   31.8122    1.1708   76.3235 C   0  0  0  0  0  0  0  0  0  0  0  0
   33.0241    1.4404   75.5376 N   0  0  0  0  0  0  0  0  0  0  0  0
   33.5082    2.2498   75.9261 H   0  0  0  0  0  0  0  0  0  0  0  0
   32.7661    1.6311   74.5694 H   0  0  0  0  0  0  0  0  0  0  0  0
   31.3638    3.4213   75.6995 O   0  0  0  0  0  0  0  0  0  0  0  0
   30.9073    2.4044   76.2640 C   0  0  0  0  0  0  0  0  0  0  0  0
   29.7804    2.3063   76.7910 O   0  0  0  0  0  0  0  0  0  0  0  0
   32.2245    3.4053   75.3296 H   0  0  0  0  0  0  0  0  0  0  0  0
 18 19  1  0  0  0
 19 20  2  0  0  0
 19 14  1  0  0  0
 14 15  1  0  0  0
 14 13  1  0  0  0
 13  1  1  0  0  0
  1  2  1  0  0  0
  1  3  2  0  0  0
  2  7  2  0  0  0
  2 10  1  0  0  0
  3  4  1  0  0  0
  4  5  1  0  0  0
  5  6  1  0  0  0
  6  7  1  0  0  0
  7  8  1  0  0  0
  8  9  1  0  0  0
  9 10  2  0  0  0
 10 11  1  0  0  0
 18 21  1  0  0  0
 15 16  1  0  0  0
 15 17  1  0  0  0
 11 12  1  0  0  0
M  END
> <minimizedAffinity>
-8.65853

$$$$
2WKY_IBC_A_1260


 21 22  0  0  0  0  0  0  0  0999 V2000
   33.2636   -0.3901   77.7243 C   0  0  0  0  0  0  0  0  0  0  0  0
   32.9406   -1.7137   77.9971 C   0  0  0  0  0  0  0  0  0  0  0  0
   34.3533    0.2901   78.2632 C   0  0  0  0  0  0  0  0  0  0  0  0
   35.2944   -0.1447   79.1907 C   0  0  0  0  0  0  0  0  0  0  0  0
   35.4185   -1.3664   79.8466 C   0  0  0  0  0  0  0  0  0  0  0  0
   35.2356   -2.5787   78.9300 C   0  0  0  0  0  0  0  0  0  0  0  0
   33.7755   -2.7072   78.4882 C   0  0  0  0  0  0  0  0  0  0  0  0
   33.0671   -3.8729   78.5585 O   0  0  0  0  0  0  0  0  0  0  0  0
   31.7485   -3.5935   78.1008 N   0  0  0  0  0  0  0  0  0  0  0  0
   31.7011   -2.3030   77.7758 C   0  0  0  0  0  0  0  0  0  0  0  0
   30.7007   -1.7276   77.3545 O   0  0  0  0  0  0  0  0  0  0  0  0
   30.7384   -0.8152   77.1449 H   0  0  0  0  0  0  0  0  0  0  0  0
   32.3772    0.3466   76.7190 C   0  0  0  0  0  0  0  0  0  0  0  0
   31.7893    1.6220   77.3301 C   0  0  0  0  0  0  0  0  0  0  0  0
   30.9236    1.2681   78.4634 N   0  0  0  0  0  0  0  0  0  0  0  0
   30.1641    0.6704   78.1374 H   0  0  0  0  0  0  0  0  0  0  0  0
   30.5356    2.1178   78.8731 H   0  0  0  0  0  0  0  0  0  0  0  0
   31.5624    3.0273   75.4250 O   0  0  0  0  0  0  0  0  0  0  0  0
   30.9485    2.3611   76.2856 C   0  0  0  0  0  0  0  0  0  0  0  0
   29.7087    2.2500   76.3745 O   0  0  0  0  0  0  0  0  0  0  0  0
   32.4990    3.0543   75.4338 H   0  0  0  0  0  0  0  0  0  0  0  0
 18 19  1  0  0  0
 19 20  2  0  0  0
 19 14  1  0  0  0
 14 15  1  0  0  0
 14 13  1  0  0  0
 13  1  1  0  0  0
  1  2  1  0  0  0
  1  3  2  0  0  0
  2  7  2  0  0  0
  2 10  1  0  0  0
  3  4  1  0  0  0
  4  5  1  0  0  0
  5  6  1  0  0  0
  6  7  1  0  0  0
  7  8  1  0  0  0
  8  9  1  0  0  0
  9 10  2  0  0  0
 10 11  1  0  0  0
 18 21  1  0  0  0
 15 16  1  0  0  0
 15 17  1  0  0  0
 11 12  1  0  0  0
M  END
> <minimizedAffinity>
-8.63044

$$$$
2WKY_IBC_A_1260


 21 22  0  0  0  0  0  0  0  0999 V2000
   33.5058   -1.5312   78.0596 C   0  0  0  0  0  0  0  0  0  0  0  0
   32.8336   -0.5348   77.3627 C   0  0  0  0  0  0  0  0  0  0  0  0
   34.8886   -1.5996   78.2141 C   0  0  0  0  0  0  0  0  0  0  0  0
   35.8769   -0.7698   77.6949 C   0  0  0  0  0  0  0  0  0  0  0  0
   35.7761    0.3521   76.8765 C   0  0  0  0  0  0  0  0  0  0  0  0
   34.6789    1.3299   77.3046 C   0  0  0  0  0  0  0  0  0  0  0  0
   33.2926    0.7351   77.0437 C   0  0  0  0  0  0  0  0  0  0  0  0
   32.2936    1.4079   76.3995 O   0  0  0  0  0  0  0  0  0  0  0  0
   31.1797    0.5260   76.3115 N   0  0  0  0  0  0  0  0  0  0  0  0
   31.5292   -0.6215   76.8897 C   0  0  0  0  0  0  0  0  0  0  0  0
   30.8013   -1.6074   76.9761 O   0  0  0  0  0  0  0  0  0  0  0  0
   31.1128   -2.3842   77.3975 H   0  0  0  0  0  0  0  0  0  0  0  0
   32.6488   -2.5976   78.7435 C   0  0  0  0  0  0  0  0  0  0  0  0
   32.9951   -3.9985   78.2307 C   0  0  0  0  0  0  0  0  0  0  0  0
   32.8660   -4.0303   76.7674 N   0  0  0  0  0  0  0  0  0  0  0  0
   31.9064   -3.8041   76.5057 H   0  0  0  0  0  0  0  0  0  0  0  0
   33.1009   -4.9622   76.4255 H   0  0  0  0  0  0  0  0  0  0  0  0
   32.5314   -6.0420   79.3553 O   0  0  0  0  0  0  0  0  0  0  0  0
   32.0301   -5.0260   78.8285 C   0  0  0  0  0  0  0  0  0  0  0  0
   30.8106   -4.7767   78.7392 O   0  0  0  0  0  0  0  0  0  0  0  0
   33.4622   -6.1472   79.3778 H   0  0  0  0  0  0  0  0  0  0  0  0
 18 19  1  0  0  0
 19 20  2  0  0  0
 19 14  1  0  0  0
 14 15  1  0  0  0
 14 13  1  0  0  0
 13  1  1  0  0  0
  1  2  1  0  0  0
  1  3  2  0  0  0
  2  7  2  0  0  0
  2 10  1  0  0  0
  3  4  1  0  0  0
  4  5  1  0  0  0
  5  6  1  0  0  0
  6  7  1  0  0  0
  7  8  1  0  0  0
  8  9  1  0  0  0
  9 10  2  0  0  0
 10 11  1  0  0  0
 18 21  1  0  0  0
 15 16  1  0  0  0
 15 17  1  0  0  0
 11 12  1  0  0  0
M  END
> <minimizedAffinity>
-8.44201

$$$$
2WKY_IBC_A_1260


 21 22  0  0  0  0  0  0  0  0999 V2000
   33.8086    0.3305   78.3819 C   0  0  0  0  0  0  0  0  0  0  0  0
   34.3361   -0.3372   79.4803 C   0  0  0  0  0  0  0  0  0  0  0  0
   34.5342    0.6988   77.2511 C   0  0  0  0  0  0  0  0  0  0  0  0
   35.8910    0.5468   76.9847 C   0  0  0  0  0  0  0  0  0  0  0  0
   36.9074   -0.0045   77.7601 C   0  0  0  0  0  0  0  0  0  0  0  0
   36.5248   -1.3288   78.4257 C   0  0  0  0  0  0  0  0  0  0  0  0
   35.4946   -1.0989   79.5345 C   0  0  0  0  0  0  0  0  0  0  0  0
   35.6138   -1.6174   80.7925 O   0  0  0  0  0  0  0  0  0  0  0  0
   34.4959   -1.1593   81.5453 N   0  0  0  0  0  0  0  0  0  0  0  0
   33.7547   -0.3992   80.7415 C   0  0  0  0  0  0  0  0  0  0  0  0
   32.7182    0.1672   81.0797 O   0  0  0  0  0  0  0  0  0  0  0  0
   32.2455    0.6881   80.4607 H   0  0  0  0  0  0  0  0  0  0  0  0
   32.3098    0.6334   78.4090 C   0  0  0  0  0  0  0  0  0  0  0  0
   31.6592    0.3293   77.0563 C   0  0  0  0  0  0  0  0  0  0  0  0
   30.5594    1.2743   76.8182 N   0  0  0  0  0  0  0  0  0  0  0  0
   29.8620    1.1773   77.5562 H   0  0  0  0  0  0  0  0  0  0  0  0
   30.1290    1.0746   75.9153 H   0  0  0  0  0  0  0  0  0  0  0  0
   31.0324   -1.6823   78.1589 O   0  0  0  0  0  0  0  0  0  0  0  0
   31.0896   -1.0919   77.0592 C   0  0  0  0  0  0  0  0  0  0  0  0
   30.7301   -1.5604   75.9600 O   0  0  0  0  0  0  0  0  0  0  0  0
   31.3259   -1.2518   78.9377 H   0  0  0  0  0  0  0  0  0  0  0  0
 18 19  1  0  0  0
 19 20  2  0  0  0
 19 14  1  0  0  0
 14 15  1  0  0  0
 14 13  1  0  0  0
 13  1  1  0  0  0
  1  2  1  0  0  0
  1  3  2  0  0  0
  2  7  2  0  0  0
  2 10  1  0  0  0
  3  4  1  0  0  0
  4  5  1  0  0  0
  5  6  1  0  0  0
  6  7  1  0  0  0
  7  8  1  0  0  0
  8  9  1  0  0  0
  9 10  2  0  0  0
 10 11  1  0  0  0
 18 21  1  0  0  0
 15 16  1  0  0  0
 15 17  1  0  0  0
 11 12  1  0  0  0
M  END
> <minimizedAffinity>
-7.94013

$$$$
2WKY_IBC_A_1260


 21 22  0  0  0  0  0  0  0  0999 V2000
   34.1349    0.0023   79.1330 C   0  0  0  0  0  0  0  0  0  0  0  0
   33.1519    0.3490   78.2143 C   0  0  0  0  0  0  0  0  0  0  0  0
   33.9194   -0.1833   80.4968 C   0  0  0  0  0  0  0  0  0  0  0  0
   32.7517   -0.0233   81.2357 C   0  0  0  0  0  0  0  0  0  0  0  0
   31.4768    0.3685   80.8363 C   0  0  0  0  0  0  0  0  0  0  0  0
   30.9958   -0.3156   79.5542 C   0  0  0  0  0  0  0  0  0  0  0  0
   31.7788    0.1956   78.3421 C   0  0  0  0  0  0  0  0  0  0  0  0
   31.1862    0.6179   77.1862 O   0  0  0  0  0  0  0  0  0  0  0  0
   32.2242    1.0518   76.3140 N   0  0  0  0  0  0  0  0  0  0  0  0
   33.3812    0.8827   76.9514 C   0  0  0  0  0  0  0  0  0  0  0  0
   34.4810    1.1704   76.4855 O   0  0  0  0  0  0  0  0  0  0  0  0
   35.2565    1.0245   76.9907 H   0  0  0  0  0  0  0  0  0  0  0  0
   35.5423   -0.2379   78.5847 C   0  0  0  0  0  0  0  0  0  0  0  0
   35.7884   -1.7271   78.3252 C   0  0  0  0  0  0  0  0  0  0  0  0
   37.1779   -2.0609   78.6674 N   0  0  0  0  0  0  0  0  0  0  0  0
   37.8122   -1.5095   78.0895 H   0  0  0  0  0  0  0  0  0  0  0  0
   37.3405   -3.0536   78.4987 H   0  0  0  0  0  0  0  0  0  0  0  0
   36.2191   -1.3835   76.0117 O   0  0  0  0  0  0  0  0  0  0  0  0
   35.5610   -2.0430   76.8444 C   0  0  0  0  0  0  0  0  0  0  0  0
   34.7280   -2.9326   76.5763 O   0  0  0  0  0  0  0  0  0  0  0  0
   36.8255   -0.7317   76.3041 H   0  0  0  0  0  0  0  0  0  0  0  0
 18 19  1  0  0  0
 19 20  2  0  0  0
 19 14  1  0  0  0
 14 15  1  0  0  0
 14 13  1  0  0  0
 13  1  1  0  0  0
  1  2  1  0  0  0
  1  3  2  0  0  0
  2  7  2  0  0  0
  2 10  1  0  0  0
  3  4  1  0  0  0
  4  5  1  0  0  0
  5  6  1  0  0  0
  6  7  1  0  0  0
  7  8  1  0  0  0
  8  9  1  0  0  0
  9 10  2  0  0  0
 10 11  1  0  0  0
 18 21  1  0  0  0
 15 16  1  0  0  0
 15 17  1  0  0  0
 11 12  1  0  0  0
M  END
> <minimizedAffinity>
-7.66378

$$$$
2WKY_IBC_A_1260


 21 22  0  0  0  0  0  0  0  0999 V2000
   33.5266   -1.6817   78.5810 C   0  0  0  0  0  0  0  0  0  0  0  0
   34.3681   -0.9651   77.7391 C   0  0  0  0  0  0  0  0  0  0  0  0
   32.3206   -1.2073   79.0922 C   0  0  0  0  0  0  0  0  0  0  0  0
   31.7273    0.0416   78.9393 C   0  0  0  0  0  0  0  0  0  0  0  0
   32.1605    1.1683   78.2456 C   0  0  0  0  0  0  0  0  0  0  0  0
   32.7057    0.8597   76.8489 C   0  0  0  0  0  0  0  0  0  0  0  0
   34.0447    0.1234   76.9416 C   0  0  0  0  0  0  0  0  0  0  0  0
   35.1556    0.4890   76.2362 O   0  0  0  0  0  0  0  0  0  0  0  0
   36.2041   -0.3980   76.6108 N   0  0  0  0  0  0  0  0  0  0  0  0
   35.7087   -1.2499   77.5064 C   0  0  0  0  0  0  0  0  0  0  0  0
   36.3542   -2.1440   78.0479 O   0  0  0  0  0  0  0  0  0  0  0  0
   35.9409   -2.7090   78.6707 H   0  0  0  0  0  0  0  0  0  0  0  0
   33.9435   -3.1127   78.9237 C   0  0  0  0  0  0  0  0  0  0  0  0
   33.3105   -4.1196   77.9589 C   0  0  0  0  0  0  0  0  0  0  0  0
   32.7686   -3.4074   76.7935 N   0  0  0  0  0  0  0  0  0  0  0  0
   32.0578   -2.7436   77.1010 H   0  0  0  0  0  0  0  0  0  0  0  0
   32.3509   -4.0785   76.1488 H   0  0  0  0  0  0  0  0  0  0  0  0
   32.4477   -5.9223   79.2480 O   0  0  0  0  0  0  0  0  0  0  0  0
   32.1648   -4.8595   78.6549 C   0  0  0  0  0  0  0  0  0  0  0  0
   31.0287   -4.3499   78.5728 O   0  0  0  0  0  0  0  0  0  0  0  0
   33.3321   -6.2318   79.2586 H   0  0  0  0  0  0  0  0  0  0  0  0
 18 19  1  0  0  0
 19 20  2  0  0  0
 19 14  1  0  0  0
 14 15  1  0  0  0
 14 13  1  0  0  0
 13  1  1  0  0  0
  1  2  1  0  0  0
  1  3  2  0  0  0
  2  7  2  0  0  0
  2 10  1  0  0  0
  3  4  1  0  0  0
  4  5  1  0  0  0
  5  6  1  0  0  0
  6  7  1  0  0  0
  7  8  1  0  0  0
  8  9  1  0  0  0
  9 10  2  0  0  0
 10 11  1  0  0  0
 18 21  1  0  0  0
 15 16  1  0  0  0
 15 17  1  0  0  0
 11 12  1  0  0  0
M  END
> <minimizedAffinity>
-7.40692

$$$$
2WKY_IBC_A_1260


 21 22  0  0  0  0  0  0  0  0999 V2000
   33.9979   -2.3661   78.4975 C   0  0  0  0  0  0  0  0  0  0  0  0
   33.1450   -1.5132   79.1871 C   0  0  0  0  0  0  0  0  0  0  0  0
   33.6370   -3.6117   77.9887 C   0  0  0  0  0  0  0  0  0  0  0  0
   32.4256   -4.2883   78.0879 C   0  0  0  0  0  0  0  0  0  0  0  0
   31.2386   -3.9274   78.7196 C   0  0  0  0  0  0  0  0  0  0  0  0
   30.8171   -2.4794   78.4571 C   0  0  0  0  0  0  0  0  0  0  0  0
   31.7576   -1.5046   79.1705 C   0  0  0  0  0  0  0  0  0  0  0  0
   31.3213   -0.4699   79.9479 O   0  0  0  0  0  0  0  0  0  0  0  0
   32.4746    0.1826   80.4679 N   0  0  0  0  0  0  0  0  0  0  0  0
   33.5439   -0.4595   80.0014 C   0  0  0  0  0  0  0  0  0  0  0  0
   34.7057   -0.1617   80.2677 O   0  0  0  0  0  0  0  0  0  0  0  0
   35.4119   -0.6581   79.9033 H   0  0  0  0  0  0  0  0  0  0  0  0
   35.4209   -1.8664   78.2431 C   0  0  0  0  0  0  0  0  0  0  0  0
   35.5075   -1.0900   76.9258 C   0  0  0  0  0  0  0  0  0  0  0  0
   36.0713   -1.9572   75.8822 N   0  0  0  0  0  0  0  0  0  0  0  0
   37.0064   -2.2572   76.1579 H   0  0  0  0  0  0  0  0  0  0  0  0
   36.1249   -1.4415   75.0038 H   0  0  0  0  0  0  0  0  0  0  0  0
   36.1366    0.9323   78.0076 O   0  0  0  0  0  0  0  0  0  0  0  0
   36.4219    0.1262   77.0965 C   0  0  0  0  0  0  0  0  0  0  0  0
   37.3830    0.2276   76.3071 O   0  0  0  0  0  0  0  0  0  0  0  0
   35.3927    0.7760   78.5555 H   0  0  0  0  0  0  0  0  0  0  0  0
 18 19  1  0  0  0
 19 20  2  0  0  0
 19 14  1  0  0  0
 14 15  1  0  0  0
 14 13  1  0  0  0
 13  1  1  0  0  0
  1  2  1  0  0  0
  1  3  2  0  0  0
  2  7  2  0  0  0
  2 10  1  0  0  0
  3  4  1  0  0  0
  4  5  1  0  0  0
  5  6  1  0  0  0
  6  7  1  0  0  0
  7  8  1  0  0  0
  8  9  1  0  0  0
  9 10  2  0  0  0
 10 11  1  0  0  0
 18 21  1  0  0  0
 15 16  1  0  0  0
 15 17  1  0  0  0
 11 12  1  0  0  0
M  END
> <minimizedAffinity>
-7.33728

$$$$
2WKY_IBC_A_1260


 21 22  0  0  0  0  0  0  0  0999 V2000
   33.4028   -0.2486   78.6049 C   0  0  0  0  0  0  0  0  0  0  0  0
   34.5172   -1.0710   78.7163 C   0  0  0  0  0  0  0  0  0  0  0  0
   32.6569    0.2302   79.6796 C   0  0  0  0  0  0  0  0  0  0  0  0
   32.8025   -0.0261   81.0391 C   0  0  0  0  0  0  0  0  0  0  0  0
   33.7188   -0.8282   81.7138 C   0  0  0  0  0  0  0  0  0  0  0  0
   35.1602   -0.6598   81.2269 C   0  0  0  0  0  0  0  0  0  0  0  0
   35.3305   -1.2525   79.8257 C   0  0  0  0  0  0  0  0  0  0  0  0
   36.3413   -2.1064   79.4869 O   0  0  0  0  0  0  0  0  0  0  0  0
   36.1471   -2.4705   78.1246 N   0  0  0  0  0  0  0  0  0  0  0  0
   35.0552   -1.8425   77.6927 C   0  0  0  0  0  0  0  0  0  0  0  0
   34.5951   -1.9468   76.5583 O   0  0  0  0  0  0  0  0  0  0  0  0
   33.8210   -1.4748   76.3215 H   0  0  0  0  0  0  0  0  0  0  0  0
   33.0071    0.1954   77.1958 C   0  0  0  0  0  0  0  0  0  0  0  0
   31.4989    0.4424   77.0966 C   0  0  0  0  0  0  0  0  0  0  0  0
   30.8514   -0.7225   76.4777 N   0  0  0  0  0  0  0  0  0  0  0  0
   31.2312   -0.8652   75.5418 H   0  0  0  0  0  0  0  0  0  0  0  0
   29.8464   -0.5598   76.4157 H   0  0  0  0  0  0  0  0  0  0  0  0
   32.1440    2.0435   75.4608 O   0  0  0  0  0  0  0  0  0  0  0  0
   31.2280    1.6718   76.2251 C   0  0  0  0  0  0  0  0  0  0  0  0
   30.1128    2.2182   76.3472 O   0  0  0  0  0  0  0  0  0  0  0  0
   32.9526    1.5709   75.4341 H   0  0  0  0  0  0  0  0  0  0  0  0
 18 19  1  0  0  0
 19 20  2  0  0  0
 19 14  1  0  0  0
 14 15  1  0  0  0
 14 13  1  0  0  0
 13  1  1  0  0  0
  1  2  1  0  0  0
  1  3  2  0  0  0
  2  7  2  0  0  0
  2 10  1  0  0  0
  3  4  1  0  0  0
  4  5  1  0  0  0
  5  6  1  0  0  0
  6  7  1  0  0  0
  7  8  1  0  0  0
  8  9  1  0  0  0
  9 10  2  0  0  0
 10 11  1  0  0  0
 18 21  1  0  0  0
 15 16  1  0  0  0
 15 17  1  0  0  0
 11 12  1  0  0  0
M  END
> <minimizedAffinity>
-7.32540

$$$$
2WKY_IBC_A_1260


 21 22  0  0  0  0  0  0  0  0999 V2000
   33.9009   -1.1846   78.5404 C   0  0  0  0  0  0  0  0  0  0  0  0
   32.7473   -1.1044   77.7701 C   0  0  0  0  0  0  0  0  0  0  0  0
   34.4095   -2.3586   79.0914 C   0  0  0  0  0  0  0  0  0  0  0  0
   33.8901   -3.6486   79.0540 C   0  0  0  0  0  0  0  0  0  0  0  0
   32.7249   -4.1364   78.4687 C   0  0  0  0  0  0  0  0  0  0  0  0
   32.4830   -3.6139   77.0503 C   0  0  0  0  0  0  0  0  0  0  0  0
   32.1171   -2.1277   77.0766 C   0  0  0  0  0  0  0  0  0  0  0  0
   31.0462   -1.6038   76.4099 O   0  0  0  0  0  0  0  0  0  0  0  0
   31.0072   -0.2112   76.7024 N   0  0  0  0  0  0  0  0  0  0  0  0
   32.0281    0.0574   77.5141 C   0  0  0  0  0  0  0  0  0  0  0  0
   32.2798    1.1696   77.9714 O   0  0  0  0  0  0  0  0  0  0  0  0
   33.0164    1.2873   78.5384 H   0  0  0  0  0  0  0  0  0  0  0  0
   34.6862    0.1111   78.7494 C   0  0  0  0  0  0  0  0  0  0  0  0
   36.0247    0.0729   78.0061 C   0  0  0  0  0  0  0  0  0  0  0  0
   36.7485    1.3309   78.2356 N   0  0  0  0  0  0  0  0  0  0  0  0
   36.1923    2.1116   77.8869 H   0  0  0  0  0  0  0  0  0  0  0  0
   37.6419    1.3037   77.7441 H   0  0  0  0  0  0  0  0  0  0  0  0
   35.2083    0.8585   75.9153 O   0  0  0  0  0  0  0  0  0  0  0  0
   35.7820   -0.0834   76.5025 C   0  0  0  0  0  0  0  0  0  0  0  0
   36.1691   -1.1453   75.9735 O   0  0  0  0  0  0  0  0  0  0  0  0
   34.9514    1.6220   76.3939 H   0  0  0  0  0  0  0  0  0  0  0  0
 18 19  1  0  0  0
 19 20  2  0  0  0
 19 14  1  0  0  0
 14 15  1  0  0  0
 14 13  1  0  0  0
 13  1  1  0  0  0
  1  2  1  0  0  0
  1  3  2  0  0  0
  2  7  2  0  0  0
  2 10  1  0  0  0
  3  4  1  0  0  0
  4  5  1  0  0  0
  5  6  1  0  0  0
  6  7  1  0  0  0
  7  8  1  0  0  0
  8  9  1  0  0  0
  9 10  2  0  0  0
 10 11  1  0  0  0
 18 21  1  0  0  0
 15 16  1  0  0  0
 15 17  1  0  0  0
 11 12  1  0  0  0
M  END
> <minimizedAffinity>
-7.21870

$$$$
