3IBL_O59_A_300


 22 21  0  0  0  0  0  0  0  0999 V2000
   -2.3323    4.2192   12.3200 C   0  0  0  0  0  0  0  0  0  0  0  0
   -1.1017    3.7697   11.5731 C   0  0  0  0  0  0  0  0  0  0  0  0
   -1.3599    2.6881   10.5573 C   0  0  0  0  0  0  0  0  0  0  0  0
   -2.0369    1.4710   11.1151 C   0  0  0  0  0  0  0  0  0  0  0  0
   -3.1728    1.1448   10.2219 O   0  0  0  0  0  0  0  0  0  0  0  0
   -4.3920    0.5189   12.3899 N   0  0  0  0  0  0  0  0  0  0  0  0
   -5.1590   -0.1684   10.1726 O   0  0  0  0  0  0  0  0  0  0  0  0
   -4.5831    0.9234   10.8855 S   0  0  0  0  0  0  0  0  0  0  0  0
   -5.2057    2.2125   10.8371 O   0  0  0  0  0  0  0  0  0  0  0  0
   -5.3048    0.3750   12.8218 H   0  0  0  0  0  0  0  0  0  0  0  0
   -3.8967    1.2626   12.8817 H   0  0  0  0  0  0  0  0  0  0  0  0
   -2.0576    4.7941   13.6834 C   0  0  0  0  0  0  0  0  0  0  0  0
   -3.1888    4.6360   14.6542 C   0  0  0  0  0  0  0  0  0  0  0  0
   -4.4027    3.9800   14.0560 C   0  0  0  0  0  0  0  0  0  0  0  0
   -5.3061    3.3296   15.0645 C   0  0  0  0  0  0  0  0  0  0  0  0
   -5.1962    1.8671   14.8693 O   0  0  0  0  0  0  0  0  0  0  0  0
   -5.5136    1.1846   17.3294 N   0  0  0  0  0  0  0  0  0  0  0  0
   -4.6150    0.9958   16.0507 S   0  0  0  0  0  0  0  0  0  0  0  0
   -3.3189    1.5431   16.3133 O   0  0  0  0  0  0  0  0  0  0  0  0
   -4.7507   -0.3532   15.6007 O   0  0  0  0  0  0  0  0  0  0  0  0
   -5.4293    2.1439   17.6656 H   0  0  0  0  0  0  0  0  0  0  0  0
   -5.2070    0.5406   18.0585 H   0  0  0  0  0  0  0  0  0  0  0  0
  4  3  1  0  0  0
  4  5  1  0  0  0
  6  8  1  0  0  0
  7  8  2  0  0  0
  8  9  2  0  0  0
  8  5  1  0  0  0
  3  2  1  0  0  0
 17 18  1  0  0  0
 18 16  1  0  0  0
 18 19  2  0  0  0
 18 20  2  0  0  0
  2  1  1  0  0  0
  1 12  1  0  0  0
 16 15  1  0  0  0
 12 13  1  0  0  0
 13 14  1  0  0  0
 14 15  1  0  0  0
  6 10  1  0  0  0
  6 11  1  0  0  0
 17 21  1  0  0  0
 17 22  1  0  0  0
M  END
> <minimizedAffinity>
-6.08839

$$$$
3IBL_O59_A_300


 22 21  0  0  0  0  0  0  0  0999 V2000
   -3.3953    4.5236   14.1101 C   0  0  0  0  0  0  0  0  0  0  0  0
   -4.5877    5.2336   14.7006 C   0  0  0  0  0  0  0  0  0  0  0  0
   -5.7639    4.3343   14.9764 C   0  0  0  0  0  0  0  0  0  0  0  0
   -5.5129    2.8858   14.6766 C   0  0  0  0  0  0  0  0  0  0  0  0
   -5.8023    2.1193   15.9108 O   0  0  0  0  0  0  0  0  0  0  0  0
   -4.7608   -0.1371   15.2763 N   0  0  0  0  0  0  0  0  0  0  0  0
   -5.2637    0.5083   17.5801 O   0  0  0  0  0  0  0  0  0  0  0  0
   -4.7678    1.0141   16.3430 S   0  0  0  0  0  0  0  0  0  0  0  0
   -3.4994    1.6784   16.3031 O   0  0  0  0  0  0  0  0  0  0  0  0
   -4.0911   -0.8544   15.5545 H   0  0  0  0  0  0  0  0  0  0  0  0
   -4.4945    0.2428   14.3679 H   0  0  0  0  0  0  0  0  0  0  0  0
   -2.9261    5.0838   12.7944 C   0  0  0  0  0  0  0  0  0  0  0  0
   -1.9148    4.2299   12.0907 C   0  0  0  0  0  0  0  0  0  0  0  0
   -2.4890    3.4473   10.9419 C   0  0  0  0  0  0  0  0  0  0  0  0
   -2.0448    2.0133   10.8960 C   0  0  0  0  0  0  0  0  0  0  0  0
   -3.1499    1.2333   10.2963 O   0  0  0  0  0  0  0  0  0  0  0  0
   -5.5673    1.6452   11.0741 N   0  0  0  0  0  0  0  0  0  0  0  0
   -4.3044    0.7208   11.2434 S   0  0  0  0  0  0  0  0  0  0  0  0
   -3.7931    0.8775   12.5708 O   0  0  0  0  0  0  0  0  0  0  0  0
   -4.6273   -0.5778   10.7434 O   0  0  0  0  0  0  0  0  0  0  0  0
   -5.3551    2.5786   11.4265 H   0  0  0  0  0  0  0  0  0  0  0  0
   -6.3487    1.2530   11.5994 H   0  0  0  0  0  0  0  0  0  0  0  0
  4  3  1  0  0  0
  4  5  1  0  0  0
  6  8  1  0  0  0
  7  8  2  0  0  0
  8  9  2  0  0  0
  8  5  1  0  0  0
  3  2  1  0  0  0
 17 18  1  0  0  0
 18 16  1  0  0  0
 18 19  2  0  0  0
 18 20  2  0  0  0
  2  1  1  0  0  0
  1 12  1  0  0  0
 16 15  1  0  0  0
 12 13  1  0  0  0
 13 14  1  0  0  0
 14 15  1  0  0  0
  6 10  1  0  0  0
  6 11  1  0  0  0
 17 21  1  0  0  0
 17 22  1  0  0  0
M  END
> <minimizedAffinity>
-5.94241

$$$$
3IBL_O59_A_300


 22 21  0  0  0  0  0  0  0  0999 V2000
   -2.6452    4.1836   13.0604 C   0  0  0  0  0  0  0  0  0  0  0  0
   -2.7548    5.1542   11.9113 C   0  0  0  0  0  0  0  0  0  0  0  0
   -2.6627    4.5110   10.5525 C   0  0  0  0  0  0  0  0  0  0  0  0
   -3.8184    3.6148   10.2179 C   0  0  0  0  0  0  0  0  0  0  0  0
   -3.3517    2.2158   10.3576 O   0  0  0  0  0  0  0  0  0  0  0  0
   -5.7728    1.8394   11.1160 N   0  0  0  0  0  0  0  0  0  0  0  0
   -3.8482    0.7950   12.2034 O   0  0  0  0  0  0  0  0  0  0  0  0
   -4.3705    1.1600   10.9282 S   0  0  0  0  0  0  0  0  0  0  0  0
   -4.4779    0.1741    9.8946 O   0  0  0  0  0  0  0  0  0  0  0  0
   -6.4345    1.1568   11.4857 H   0  0  0  0  0  0  0  0  0  0  0  0
   -6.1069    2.1839   10.2160 H   0  0  0  0  0  0  0  0  0  0  0  0
   -3.2485    4.6740   14.3489 C   0  0  0  0  0  0  0  0  0  0  0  0
   -4.6518    5.1836   14.2136 C   0  0  0  0  0  0  0  0  0  0  0  0
   -5.6688    4.3284   14.9179 C   0  0  0  0  0  0  0  0  0  0  0  0
   -5.5632    2.8644   14.5991 C   0  0  0  0  0  0  0  0  0  0  0  0
   -5.7968    2.1255   15.8595 O   0  0  0  0  0  0  0  0  0  0  0  0
   -4.7207   -0.1032   15.1575 N   0  0  0  0  0  0  0  0  0  0  0  0
   -4.7633    1.0061   16.2736 S   0  0  0  0  0  0  0  0  0  0  0  0
   -5.2960    0.4337   17.4723 O   0  0  0  0  0  0  0  0  0  0  0  0
   -3.5008    1.6741   16.2924 O   0  0  0  0  0  0  0  0  0  0  0  0
   -5.6156   -0.5918   15.1294 H   0  0  0  0  0  0  0  0  0  0  0  0
   -3.9766   -0.7685   15.3676 H   0  0  0  0  0  0  0  0  0  0  0  0
  4  3  1  0  0  0
  4  5  1  0  0  0
  6  8  1  0  0  0
  7  8  2  0  0  0
  8  9  2  0  0  0
  8  5  1  0  0  0
  3  2  1  0  0  0
 17 18  1  0  0  0
 18 16  1  0  0  0
 18 19  2  0  0  0
 18 20  2  0  0  0
  2  1  1  0  0  0
  1 12  1  0  0  0
 16 15  1  0  0  0
 12 13  1  0  0  0
 13 14  1  0  0  0
 14 15  1  0  0  0
  6 10  1  0  0  0
  6 11  1  0  0  0
 17 21  1  0  0  0
 17 22  1  0  0  0
M  END
> <minimizedAffinity>
-5.87445

$$$$
3IBL_O59_A_300


 22 21  0  0  0  0  0  0  0  0999 V2000
   -1.8349    0.9191   11.1541 C   0  0  0  0  0  0  0  0  0  0  0  0
   -1.4226    2.0141   10.2025 C   0  0  0  0  0  0  0  0  0  0  0  0
   -1.8376    3.3950   10.6376 C   0  0  0  0  0  0  0  0  0  0  0  0
   -1.5129    3.7116   12.0676 C   0  0  0  0  0  0  0  0  0  0  0  0
   -2.5644    4.6258   12.5709 O   0  0  0  0  0  0  0  0  0  0  0  0
   -1.5823    4.0798   14.8765 N   0  0  0  0  0  0  0  0  0  0  0  0
   -3.8052    5.0468   14.5596 O   0  0  0  0  0  0  0  0  0  0  0  0
   -2.4672    5.0949   14.0705 S   0  0  0  0  0  0  0  0  0  0  0  0
   -1.7773    6.3487   14.0074 O   0  0  0  0  0  0  0  0  0  0  0  0
   -1.5181    4.3820   15.8486 H   0  0  0  0  0  0  0  0  0  0  0  0
   -0.6480    4.0448   14.4689 H   0  0  0  0  0  0  0  0  0  0  0  0
   -3.0285    0.1204   10.7042 C   0  0  0  0  0  0  0  0  0  0  0  0
   -4.1884    0.1650   11.6527 C   0  0  0  0  0  0  0  0  0  0  0  0
   -4.8336    1.5204   11.7447 C   0  0  0  0  0  0  0  0  0  0  0  0
   -4.8573    2.0937   13.1328 C   0  0  0  0  0  0  0  0  0  0  0  0
   -4.2196    1.1009   14.0256 O   0  0  0  0  0  0  0  0  0  0  0  0
   -5.7785    2.1171   15.8020 N   0  0  0  0  0  0  0  0  0  0  0  0
   -4.5511    1.1595   15.5681 S   0  0  0  0  0  0  0  0  0  0  0  0
   -3.3920    1.7390   16.1754 O   0  0  0  0  0  0  0  0  0  0  0  0
   -4.9497   -0.1717   15.8992 O   0  0  0  0  0  0  0  0  0  0  0  0
   -5.5121    3.0740   15.5703 H   0  0  0  0  0  0  0  0  0  0  0  0
   -6.0641    2.0711   16.7801 H   0  0  0  0  0  0  0  0  0  0  0  0
  4  3  1  0  0  0
  4  5  1  0  0  0
  6  8  1  0  0  0
  7  8  2  0  0  0
  8  9  2  0  0  0
  8  5  1  0  0  0
  3  2  1  0  0  0
 17 18  1  0  0  0
 18 16  1  0  0  0
 18 19  2  0  0  0
 18 20  2  0  0  0
  2  1  1  0  0  0
  1 12  1  0  0  0
 16 15  1  0  0  0
 12 13  1  0  0  0
 13 14  1  0  0  0
 14 15  1  0  0  0
  6 10  1  0  0  0
  6 11  1  0  0  0
 17 21  1  0  0  0
 17 22  1  0  0  0
M  END
> <minimizedAffinity>
-5.74403

$$$$
3IBL_O59_A_300


 22 21  0  0  0  0  0  0  0  0999 V2000
   -4.8308    6.1016   12.7186 C   0  0  0  0  0  0  0  0  0  0  0  0
   -4.3870    5.1093   11.6732 C   0  0  0  0  0  0  0  0  0  0  0  0
   -3.1499    4.3355   12.0462 C   0  0  0  0  0  0  0  0  0  0  0  0
   -2.8992    3.1289   11.1905 C   0  0  0  0  0  0  0  0  0  0  0  0
   -3.1907    1.9317   12.0128 O   0  0  0  0  0  0  0  0  0  0  0  0
   -3.7068    0.2110   10.1821 N   0  0  0  0  0  0  0  0  0  0  0  0
   -5.3876    1.7197   11.1179 O   0  0  0  0  0  0  0  0  0  0  0  0
   -4.2637    0.9162   11.4689 S   0  0  0  0  0  0  0  0  0  0  0  0
   -4.3856   -0.0631   12.5071 O   0  0  0  0  0  0  0  0  0  0  0  0
   -4.4006   -0.4476    9.8281 H   0  0  0  0  0  0  0  0  0  0  0  0
   -2.8491   -0.2903   10.4134 H   0  0  0  0  0  0  0  0  0  0  0  0
   -6.1822    5.8145   13.3153 C   0  0  0  0  0  0  0  0  0  0  0  0
   -6.1720    5.6524   14.8055 C   0  0  0  0  0  0  0  0  0  0  0  0
   -5.3648    4.4727   15.2729 C   0  0  0  0  0  0  0  0  0  0  0  0
   -6.1656    3.2139   15.4470 C   0  0  0  0  0  0  0  0  0  0  0  0
   -5.3008    2.0864   15.0345 O   0  0  0  0  0  0  0  0  0  0  0  0
   -4.6993   -0.3305   15.6790 N   0  0  0  0  0  0  0  0  0  0  0  0
   -4.6802    1.1685   16.1594 S   0  0  0  0  0  0  0  0  0  0  0  0
   -5.5616    1.3051   17.2786 O   0  0  0  0  0  0  0  0  0  0  0  0
   -3.3196    1.5925   16.2567 O   0  0  0  0  0  0  0  0  0  0  0  0
   -5.6646   -0.6511   15.6035 H   0  0  0  0  0  0  0  0  0  0  0  0
   -4.2002   -0.9101   16.3538 H   0  0  0  0  0  0  0  0  0  0  0  0
  4  3  1  0  0  0
  4  5  1  0  0  0
  6  8  1  0  0  0
  7  8  2  0  0  0
  8  9  2  0  0  0
  8  5  1  0  0  0
  3  2  1  0  0  0
 17 18  1  0  0  0
 18 16  1  0  0  0
 18 19  2  0  0  0
 18 20  2  0  0  0
  2  1  1  0  0  0
  1 12  1  0  0  0
 16 15  1  0  0  0
 12 13  1  0  0  0
 13 14  1  0  0  0
 14 15  1  0  0  0
  6 10  1  0  0  0
  6 11  1  0  0  0
 17 21  1  0  0  0
 17 22  1  0  0  0
M  END
> <minimizedAffinity>
-5.67874

$$$$
3IBL_O59_A_300


 22 21  0  0  0  0  0  0  0  0999 V2000
   -5.2082    5.4904   13.7585 C   0  0  0  0  0  0  0  0  0  0  0  0
   -6.1301    4.3568   14.1318 C   0  0  0  0  0  0  0  0  0  0  0  0
   -6.4510    4.2840   15.6016 C   0  0  0  0  0  0  0  0  0  0  0  0
   -6.1695    2.9493   16.2261 C   0  0  0  0  0  0  0  0  0  0  0  0
   -5.8008    2.0167   15.1358 O   0  0  0  0  0  0  0  0  0  0  0  0
   -3.5434    1.5634   16.2659 N   0  0  0  0  0  0  0  0  0  0  0  0
   -4.2350    0.5006   14.1757 O   0  0  0  0  0  0  0  0  0  0  0  0
   -4.7184    0.9176   15.4502 S   0  0  0  0  0  0  0  0  0  0  0  0
   -5.3971   -0.0191   16.2952 O   0  0  0  0  0  0  0  0  0  0  0  0
   -2.8408    0.8528   16.4707 H   0  0  0  0  0  0  0  0  0  0  0  0
   -3.9056    1.9452   17.1397 H   0  0  0  0  0  0  0  0  0  0  0  0
   -3.9676    5.5883   14.6048 C   0  0  0  0  0  0  0  0  0  0  0  0
   -2.9134    4.5780   14.2657 C   0  0  0  0  0  0  0  0  0  0  0  0
   -2.1860    4.8803   12.9845 C   0  0  0  0  0  0  0  0  0  0  0  0
   -2.1329    3.7265   12.0244 C   0  0  0  0  0  0  0  0  0  0  0  0
   -3.3634    2.9310   12.2300 O   0  0  0  0  0  0  0  0  0  0  0  0
   -4.5329    3.8519   10.1318 N   0  0  0  0  0  0  0  0  0  0  0  0
   -4.2296    2.5516   10.9657 S   0  0  0  0  0  0  0  0  0  0  0  0
   -5.4593    2.0466   11.4957 O   0  0  0  0  0  0  0  0  0  0  0  0
   -3.3782    1.7075   10.1890 O   0  0  0  0  0  0  0  0  0  0  0  0
   -5.1408    4.4679   10.6716 H   0  0  0  0  0  0  0  0  0  0  0  0
   -4.9959    3.5962    9.2597 H   0  0  0  0  0  0  0  0  0  0  0  0
  4  3  1  0  0  0
  4  5  1  0  0  0
  6  8  1  0  0  0
  7  8  2  0  0  0
  8  9  2  0  0  0
  8  5  1  0  0  0
  3  2  1  0  0  0
 17 18  1  0  0  0
 18 16  1  0  0  0
 18 19  2  0  0  0
 18 20  2  0  0  0
  2  1  1  0  0  0
  1 12  1  0  0  0
 16 15  1  0  0  0
 12 13  1  0  0  0
 13 14  1  0  0  0
 14 15  1  0  0  0
  6 10  1  0  0  0
  6 11  1  0  0  0
 17 21  1  0  0  0
 17 22  1  0  0  0
M  END
> <minimizedAffinity>
-5.64979

$$$$
3IBL_O59_A_300


 22 21  0  0  0  0  0  0  0  0999 V2000
   -2.2198    0.6580   11.1844 C   0  0  0  0  0  0  0  0  0  0  0  0
   -3.6376    0.7243   10.6744 C   0  0  0  0  0  0  0  0  0  0  0  0
   -4.6708    0.9135   11.7538 C   0  0  0  0  0  0  0  0  0  0  0  0
   -4.2826    0.3369   13.0832 C   0  0  0  0  0  0  0  0  0  0  0  0
   -4.1824    1.4604   14.0435 O   0  0  0  0  0  0  0  0  0  0  0  0
   -5.7268    2.0723   15.9978 N   0  0  0  0  0  0  0  0  0  0  0  0
   -3.3574    1.5380   16.2763 O   0  0  0  0  0  0  0  0  0  0  0  0
   -4.5266    1.1650   15.5511 S   0  0  0  0  0  0  0  0  0  0  0  0
   -4.9620   -0.1996   15.5562 O   0  0  0  0  0  0  0  0  0  0  0  0
   -5.9514    1.8824   16.9745 H   0  0  0  0  0  0  0  0  0  0  0  0
   -6.5402    1.8706   15.4164 H   0  0  0  0  0  0  0  0  0  0  0  0
   -1.5238    1.9900   11.2629 C   0  0  0  0  0  0  0  0  0  0  0  0
   -1.9924    2.9870   10.2463 C   0  0  0  0  0  0  0  0  0  0  0  0
   -2.2504    4.3520   10.8226 C   0  0  0  0  0  0  0  0  0  0  0  0
   -2.7492    4.3336   12.2392 C   0  0  0  0  0  0  0  0  0  0  0  0
   -4.2219    4.2027   12.1815 O   0  0  0  0  0  0  0  0  0  0  0  0
   -6.3450    3.8765   13.5972 N   0  0  0  0  0  0  0  0  0  0  0  0
   -5.0721    4.7773   13.3814 S   0  0  0  0  0  0  0  0  0  0  0  0
   -5.4936    6.0751   12.9500 O   0  0  0  0  0  0  0  0  0  0  0  0
   -4.2229    4.6365   14.5213 O   0  0  0  0  0  0  0  0  0  0  0  0
   -6.9643    3.9644   12.7915 H   0  0  0  0  0  0  0  0  0  0  0  0
   -6.8365    4.1785   14.4384 H   0  0  0  0  0  0  0  0  0  0  0  0
  4  3  1  0  0  0
  4  5  1  0  0  0
  6  8  1  0  0  0
  7  8  2  0  0  0
  8  9  2  0  0  0
  8  5  1  0  0  0
  3  2  1  0  0  0
 17 18  1  0  0  0
 18 16  1  0  0  0
 18 19  2  0  0  0
 18 20  2  0  0  0
  2  1  1  0  0  0
  1 12  1  0  0  0
 16 15  1  0  0  0
 12 13  1  0  0  0
 13 14  1  0  0  0
 14 15  1  0  0  0
  6 10  1  0  0  0
  6 11  1  0  0  0
 17 21  1  0  0  0
 17 22  1  0  0  0
M  END
> <minimizedAffinity>
-5.43334

$$$$
3IBL_O59_A_300


 22 21  0  0  0  0  0  0  0  0999 V2000
   -2.8550   -0.2368   10.8897 C   0  0  0  0  0  0  0  0  0  0  0  0
   -4.1728   -0.2123   11.6227 C   0  0  0  0  0  0  0  0  0  0  0  0
   -4.8389    1.1384   11.6446 C   0  0  0  0  0  0  0  0  0  0  0  0
   -4.7379    1.8515   12.9607 C   0  0  0  0  0  0  0  0  0  0  0  0
   -4.3431    0.8513   13.9796 O   0  0  0  0  0  0  0  0  0  0  0  0
   -3.4353    1.5533   16.2735 N   0  0  0  0  0  0  0  0  0  0  0  0
   -5.2199   -0.0922   15.9828 O   0  0  0  0  0  0  0  0  0  0  0  0
   -4.7255    1.1458   15.4781 S   0  0  0  0  0  0  0  0  0  0  0  0
   -5.5937    2.2829   15.4071 O   0  0  0  0  0  0  0  0  0  0  0  0
   -3.6809    1.7445   17.2448 H   0  0  0  0  0  0  0  0  0  0  0  0
   -3.0277    2.3893   15.8548 H   0  0  0  0  0  0  0  0  0  0  0  0
   -2.4823    1.0663   10.2356 C   0  0  0  0  0  0  0  0  0  0  0  0
   -1.2062    1.6649   10.7455 C   0  0  0  0  0  0  0  0  0  0  0  0
   -1.0654    3.1290   10.4317 C   0  0  0  0  0  0  0  0  0  0  0  0
   -0.6229    3.9649   11.5985 C   0  0  0  0  0  0  0  0  0  0  0  0
   -1.4707    3.5882   12.7512 O   0  0  0  0  0  0  0  0  0  0  0  0
   -3.5446    5.1083   12.6704 N   0  0  0  0  0  0  0  0  0  0  0  0
   -2.2630    4.7289   13.5021 S   0  0  0  0  0  0  0  0  0  0  0  0
   -1.3744    5.8506   13.5171 O   0  0  0  0  0  0  0  0  0  0  0  0
   -2.6838    4.1256   14.7267 O   0  0  0  0  0  0  0  0  0  0  0  0
   -3.2632    5.5413   11.7908 H   0  0  0  0  0  0  0  0  0  0  0  0
   -4.1150    5.7637   13.2048 H   0  0  0  0  0  0  0  0  0  0  0  0
  4  3  1  0  0  0
  4  5  1  0  0  0
  6  8  1  0  0  0
  7  8  2  0  0  0
  8  9  2  0  0  0
  8  5  1  0  0  0
  3  2  1  0  0  0
 17 18  1  0  0  0
 18 16  1  0  0  0
 18 19  2  0  0  0
 18 20  2  0  0  0
  2  1  1  0  0  0
  1 12  1  0  0  0
 16 15  1  0  0  0
 12 13  1  0  0  0
 13 14  1  0  0  0
 14 15  1  0  0  0
  6 10  1  0  0  0
  6 11  1  0  0  0
 17 21  1  0  0  0
 17 22  1  0  0  0
M  END
> <minimizedAffinity>
-5.33403

$$$$
3IBL_O59_A_300


 22 21  0  0  0  0  0  0  0  0999 V2000
   -5.7194    5.5647   14.0067 C   0  0  0  0  0  0  0  0  0  0  0  0
   -4.4079    5.8517   14.6939 C   0  0  0  0  0  0  0  0  0  0  0  0
   -3.2556    6.0756   13.7502 C   0  0  0  0  0  0  0  0  0  0  0  0
   -2.2721    4.9437   13.7028 C   0  0  0  0  0  0  0  0  0  0  0  0
   -1.1281    5.3827   12.8702 O   0  0  0  0  0  0  0  0  0  0  0  0
   -0.7461    2.9765   12.0683 N   0  0  0  0  0  0  0  0  0  0  0  0
    0.5956    4.8735   11.3077 O   0  0  0  0  0  0  0  0  0  0  0  0
   -0.7359    4.4856   11.6374 S   0  0  0  0  0  0  0  0  0  0  0  0
   -1.7927    4.6959   10.6935 O   0  0  0  0  0  0  0  0  0  0  0  0
   -0.4922    2.3935   11.2708 H   0  0  0  0  0  0  0  0  0  0  0  0
   -1.6791    2.7218   12.3923 H   0  0  0  0  0  0  0  0  0  0  0  0
   -6.2424    4.1701   14.2216 C   0  0  0  0  0  0  0  0  0  0  0  0
   -5.4170    3.3441   15.1615 C   0  0  0  0  0  0  0  0  0  0  0  0
   -4.8302    2.1165   14.5208 C   0  0  0  0  0  0  0  0  0  0  0  0
   -4.6831    2.2158   13.0293 C   0  0  0  0  0  0  0  0  0  0  0  0
   -3.4648    1.4618   12.6600 O   0  0  0  0  0  0  0  0  0  0  0  0
   -3.3405    2.1806   10.1930 N   0  0  0  0  0  0  0  0  0  0  0  0
   -3.3236    0.9491   11.1734 S   0  0  0  0  0  0  0  0  0  0  0  0
   -4.4935    0.1584   10.9404 O   0  0  0  0  0  0  0  0  0  0  0  0
   -2.0272    0.3514   11.1228 O   0  0  0  0  0  0  0  0  0  0  0  0
   -4.2603    2.6209   10.2159 H   0  0  0  0  0  0  0  0  0  0  0  0
   -3.1390    1.8631    9.2449 H   0  0  0  0  0  0  0  0  0  0  0  0
  4  3  1  0  0  0
  4  5  1  0  0  0
  6  8  1  0  0  0
  7  8  2  0  0  0
  8  9  2  0  0  0
  8  5  1  0  0  0
  3  2  1  0  0  0
 17 18  1  0  0  0
 18 16  1  0  0  0
 18 19  2  0  0  0
 18 20  2  0  0  0
  2  1  1  0  0  0
  1 12  1  0  0  0
 16 15  1  0  0  0
 12 13  1  0  0  0
 13 14  1  0  0  0
 14 15  1  0  0  0
  6 10  1  0  0  0
  6 11  1  0  0  0
 17 21  1  0  0  0
 17 22  1  0  0  0
M  END
> <minimizedAffinity>
-5.14054

$$$$
3IBL_O59_A_300


 22 21  0  0  0  0  0  0  0  0999 V2000
   -1.6127    5.7547   11.9698 C   0  0  0  0  0  0  0  0  0  0  0  0
   -2.8884    5.3832   12.6832 C   0  0  0  0  0  0  0  0  0  0  0  0
   -2.6827    4.5239   13.9029 C   0  0  0  0  0  0  0  0  0  0  0  0
   -3.9545    4.0381   14.5333 C   0  0  0  0  0  0  0  0  0  0  0  0
   -3.5879    3.0304   15.5554 O   0  0  0  0  0  0  0  0  0  0  0  0
   -5.8075    2.0569   16.3946 N   0  0  0  0  0  0  0  0  0  0  0  0
   -3.7006    0.8174   16.4282 O   0  0  0  0  0  0  0  0  0  0  0  0
   -4.4682    1.7283   15.6454 S   0  0  0  0  0  0  0  0  0  0  0  0
   -4.7757    1.4116   14.2827 O   0  0  0  0  0  0  0  0  0  0  0  0
   -6.3795    1.2144   16.4540 H   0  0  0  0  0  0  0  0  0  0  0  0
   -6.3159    2.7775   15.8821 H   0  0  0  0  0  0  0  0  0  0  0  0
   -1.2675    4.8634   10.8073 C   0  0  0  0  0  0  0  0  0  0  0  0
   -0.2822    3.7825   11.1355 C   0  0  0  0  0  0  0  0  0  0  0  0
   -0.8654    2.3984   11.0578 C   0  0  0  0  0  0  0  0  0  0  0  0
   -2.2617    2.3530   10.5062 C   0  0  0  0  0  0  0  0  0  0  0  0
   -3.0878    1.5954   11.4721 O   0  0  0  0  0  0  0  0  0  0  0  0
   -4.2305   -0.6431   12.0213 N   0  0  0  0  0  0  0  0  0  0  0  0
   -4.0382    0.4630   10.9178 S   0  0  0  0  0  0  0  0  0  0  0  0
   -3.3310   -0.1072    9.8119 O   0  0  0  0  0  0  0  0  0  0  0  0
   -5.2917    1.1166   10.7127 O   0  0  0  0  0  0  0  0  0  0  0  0
   -3.3439   -1.1214   12.1814 H   0  0  0  0  0  0  0  0  0  0  0  0
   -4.9290   -1.3174   11.7087 H   0  0  0  0  0  0  0  0  0  0  0  0
  4  3  1  0  0  0
  4  5  1  0  0  0
  6  8  1  0  0  0
  7  8  2  0  0  0
  8  9  2  0  0  0
  8  5  1  0  0  0
  3  2  1  0  0  0
 17 18  1  0  0  0
 18 16  1  0  0  0
 18 19  2  0  0  0
 18 20  2  0  0  0
  2  1  1  0  0  0
  1 12  1  0  0  0
 16 15  1  0  0  0
 12 13  1  0  0  0
 13 14  1  0  0  0
 14 15  1  0  0  0
  6 10  1  0  0  0
  6 11  1  0  0  0
 17 21  1  0  0  0
 17 22  1  0  0  0
M  END
> <minimizedAffinity>
-5.13908

$$$$
