2ZY1_830_A_808


 27 28  0  0  0  0  0  0  0  0999 V2000
   16.2601   55.3164   37.2702 C   0  0  0  0  0  0  0  0  0  0  0  0
   14.3835   58.1782   38.9573 C   0  0  0  0  0  0  0  0  0  0  0  0
   15.0435   57.4089   38.0052 C   0  0  0  0  0  0  0  0  0  0  0  0
   14.1548   57.6584   40.2251 C   0  0  0  0  0  0  0  0  0  0  0  0
   14.5949   56.3737   40.5350 C   0  0  0  0  0  0  0  0  0  0  0  0
   15.2584   55.6091   39.5821 C   0  0  0  0  0  0  0  0  0  0  0  0
   15.4879   56.1280   38.3134 C   0  0  0  0  0  0  0  0  0  0  0  0
   14.0690   59.4764   38.6813 O   0  0  0  0  0  0  0  0  0  0  0  0
   12.4827   59.3590   36.8779 C   0  0  0  0  0  0  0  0  0  0  0  0
   11.2453   59.7360   36.3671 C   0  0  0  0  0  0  0  0  0  0  0  0
   10.3481   60.4520   37.1501 C   0  0  0  0  0  0  0  0  0  0  0  0
   10.6824   60.7893   38.4590 C   0  0  0  0  0  0  0  0  0  0  0  0
   11.9161   60.4090   38.9676 C   0  0  0  0  0  0  0  0  0  0  0  0
   12.8225   59.7005   38.1820 C   0  0  0  0  0  0  0  0  0  0  0  0
   16.6635   56.1490   36.0477 C   0  0  0  0  0  0  0  0  0  0  0  0
   18.1822   56.2845   35.9128 C   0  0  0  0  0  0  0  0  0  0  0  0
   18.7507   54.9361   35.7609 N   0  0  0  0  0  0  0  0  0  0  0  0
   19.7751   54.5016   36.4869 C   0  0  0  0  0  0  0  0  0  0  0  0
   20.3330   55.1669   37.3617 O   0  0  0  0  0  0  0  0  0  0  0  0
   18.3553   54.3301   35.0932 H   0  0  0  0  0  0  0  0  0  0  0  0
   20.1811   53.0545   36.2052 C   0  0  0  0  0  0  0  0  0  0  0  0
   18.9023   51.8470   36.6267 P   0  0  0  0  0  0  0  0  0  0  0  0
   18.3149   52.3132   38.0527 O   0  0  0  0  0  0  0  0  0  0  0  0
   17.7681   51.9865   35.4939 O   0  0  0  0  0  0  0  0  0  0  0  0
   19.5188   50.4991   36.6848 O   0  0  0  0  0  0  0  0  0  0  0  0
   17.9231   53.1965   37.9678 H   0  0  0  0  0  0  0  0  0  0  0  0
   17.4063   52.8864   35.5076 H   0  0  0  0  0  0  0  0  0  0  0  0
  9 10  2  0  0  0
  9 14  1  0  0  0
 10 11  1  0  0  0
 11 12  2  0  0  0
 12 13  1  0  0  0
 13 14  2  0  0  0
 14  8  1  0  0  0
  8  2  1  0  0  0
  2  3  2  0  0  0
  2  4  1  0  0  0
  3  7  1  0  0  0
  4  5  2  0  0  0
  5  6  1  0  0  0
  6  7  2  0  0  0
  7  1  1  0  0  0
  1 15  1  0  0  0
 15 16  1  0  0  0
 16 17  1  0  0  0
 17 18  1  0  0  0
 18 19  2  0  0  0
 18 21  1  0  0  0
 21 22  1  0  0  0
 22 23  1  0  0  0
 22 24  1  0  0  0
 22 25  2  0  0  0
 17 20  1  0  0  0
 23 26  1  0  0  0
 24 27  1  0  0  0
M  END
> <minimizedAffinity>
-9.79041

$$$$
2ZY1_830_A_808


 27 28  0  0  0  0  0  0  0  0999 V2000
   16.2940   55.3324   37.2478 C   0  0  0  0  0  0  0  0  0  0  0  0
   14.3876   58.1567   38.9643 C   0  0  0  0  0  0  0  0  0  0  0  0
   15.0704   57.4113   38.0094 C   0  0  0  0  0  0  0  0  0  0  0  0
   14.1177   57.6010   40.2086 C   0  0  0  0  0  0  0  0  0  0  0  0
   14.5397   56.3042   40.4924 C   0  0  0  0  0  0  0  0  0  0  0  0
   15.2259   55.5634   39.5369 C   0  0  0  0  0  0  0  0  0  0  0  0
   15.4967   56.1184   38.2918 C   0  0  0  0  0  0  0  0  0  0  0  0
   14.0903   59.4650   38.7184 O   0  0  0  0  0  0  0  0  0  0  0  0
   12.4875   59.3112   36.9324 C   0  0  0  0  0  0  0  0  0  0  0  0
   11.2652   59.7131   36.4046 C   0  0  0  0  0  0  0  0  0  0  0  0
   10.4075   60.5166   37.1459 C   0  0  0  0  0  0  0  0  0  0  0  0
   10.7662   60.9176   38.4302 C   0  0  0  0  0  0  0  0  0  0  0  0
   11.9847   60.5123   38.9560 C   0  0  0  0  0  0  0  0  0  0  0  0
   12.8520   59.7157   38.2116 C   0  0  0  0  0  0  0  0  0  0  0  0
   15.5045   54.1595   36.6552 C   0  0  0  0  0  0  0  0  0  0  0  0
   15.9243   52.8150   37.2545 C   0  0  0  0  0  0  0  0  0  0  0  0
   16.9833   52.2461   36.4062 N   0  0  0  0  0  0  0  0  0  0  0  0
   18.2267   52.0601   36.8360 C   0  0  0  0  0  0  0  0  0  0  0  0
   18.6094   52.3233   37.9776 O   0  0  0  0  0  0  0  0  0  0  0  0
   16.7613   51.9926   35.4812 H   0  0  0  0  0  0  0  0  0  0  0  0
   19.1597   51.4132   35.8116 C   0  0  0  0  0  0  0  0  0  0  0  0
   20.8869   51.9226   35.9801 P   0  0  0  0  0  0  0  0  0  0  0  0
   20.8452   53.4869   36.3632 O   0  0  0  0  0  0  0  0  0  0  0  0
   21.4835   51.0723   37.2091 O   0  0  0  0  0  0  0  0  0  0  0  0
   21.5851   51.6756   34.6949 O   0  0  0  0  0  0  0  0  0  0  0  0
   20.3812   53.6008   37.2074 H   0  0  0  0  0  0  0  0  0  0  0  0
   20.9862   51.2779   38.0161 H   0  0  0  0  0  0  0  0  0  0  0  0
  9 10  2  0  0  0
  9 14  1  0  0  0
 10 11  1  0  0  0
 11 12  2  0  0  0
 12 13  1  0  0  0
 13 14  2  0  0  0
 14  8  1  0  0  0
  8  2  1  0  0  0
  2  3  2  0  0  0
  2  4  1  0  0  0
  3  7  1  0  0  0
  4  5  2  0  0  0
  5  6  1  0  0  0
  6  7  2  0  0  0
  7  1  1  0  0  0
  1 15  1  0  0  0
 15 16  1  0  0  0
 16 17  1  0  0  0
 17 18  1  0  0  0
 18 19  2  0  0  0
 18 21  1  0  0  0
 21 22  1  0  0  0
 22 23  1  0  0  0
 22 24  1  0  0  0
 22 25  2  0  0  0
 17 20  1  0  0  0
 23 26  1  0  0  0
 24 27  1  0  0  0
M  END
> <minimizedAffinity>
-9.57964

$$$$
2ZY1_830_A_808


 27 28  0  0  0  0  0  0  0  0999 V2000
   15.6073   55.6267   36.9337 C   0  0  0  0  0  0  0  0  0  0  0  0
   14.2082   58.4284   39.1133 C   0  0  0  0  0  0  0  0  0  0  0  0
   14.6263   57.6965   38.0072 C   0  0  0  0  0  0  0  0  0  0  0  0
   14.2532   57.8535   40.3771 C   0  0  0  0  0  0  0  0  0  0  0  0
   14.7237   56.5511   40.5274 C   0  0  0  0  0  0  0  0  0  0  0  0
   15.1450   55.8238   39.4200 C   0  0  0  0  0  0  0  0  0  0  0  0
   15.1007   56.3980   38.1551 C   0  0  0  0  0  0  0  0  0  0  0  0
   13.8680   59.7414   38.9688 O   0  0  0  0  0  0  0  0  0  0  0  0
   12.3500   59.5194   37.1171 C   0  0  0  0  0  0  0  0  0  0  0  0
   11.1653   59.9176   36.5069 C   0  0  0  0  0  0  0  0  0  0  0  0
   10.2939   60.7828   37.1570 C   0  0  0  0  0  0  0  0  0  0  0  0
   10.6003   61.2504   38.4322 C   0  0  0  0  0  0  0  0  0  0  0  0
   11.7811   60.8489   39.0405 C   0  0  0  0  0  0  0  0  0  0  0  0
   12.6625   59.9901   38.3873 C   0  0  0  0  0  0  0  0  0  0  0  0
   16.4968   56.4773   36.0196 C   0  0  0  0  0  0  0  0  0  0  0  0
   17.7660   55.7366   35.5914 C   0  0  0  0  0  0  0  0  0  0  0  0
   18.1824   54.8630   36.6996 N   0  0  0  0  0  0  0  0  0  0  0  0
   19.4482   54.7457   37.0863 C   0  0  0  0  0  0  0  0  0  0  0  0
   20.3859   55.3619   36.5764 O   0  0  0  0  0  0  0  0  0  0  0  0
   17.4942   54.3434   37.1746 H   0  0  0  0  0  0  0  0  0  0  0  0
   19.6596   53.8225   38.2868 C   0  0  0  0  0  0  0  0  0  0  0  0
   21.2342   54.0865   39.1366 P   0  0  0  0  0  0  0  0  0  0  0  0
   22.3770   53.7157   38.0632 O   0  0  0  0  0  0  0  0  0  0  0  0
   21.2950   55.6569   39.4826 O   0  0  0  0  0  0  0  0  0  0  0  0
   21.2823   53.2137   40.3350 O   0  0  0  0  0  0  0  0  0  0  0  0
   22.3079   54.3095   37.2992 H   0  0  0  0  0  0  0  0  0  0  0  0
   21.2599   56.1707   38.6606 H   0  0  0  0  0  0  0  0  0  0  0  0
  9 10  2  0  0  0
  9 14  1  0  0  0
 10 11  1  0  0  0
 11 12  2  0  0  0
 12 13  1  0  0  0
 13 14  2  0  0  0
 14  8  1  0  0  0
  8  2  1  0  0  0
  2  3  2  0  0  0
  2  4  1  0  0  0
  3  7  1  0  0  0
  4  5  2  0  0  0
  5  6  1  0  0  0
  6  7  2  0  0  0
  7  1  1  0  0  0
  1 15  1  0  0  0
 15 16  1  0  0  0
 16 17  1  0  0  0
 17 18  1  0  0  0
 18 19  2  0  0  0
 18 21  1  0  0  0
 21 22  1  0  0  0
 22 23  1  0  0  0
 22 24  1  0  0  0
 22 25  2  0  0  0
 17 20  1  0  0  0
 23 26  1  0  0  0
 24 27  1  0  0  0
M  END
> <minimizedAffinity>
-9.52136

$$$$
2ZY1_830_A_808


 27 28  0  0  0  0  0  0  0  0999 V2000
   16.2736   55.4213   37.2347 C   0  0  0  0  0  0  0  0  0  0  0  0
   14.3357   58.1851   39.0133 C   0  0  0  0  0  0  0  0  0  0  0  0
   15.0125   57.4621   38.0371 C   0  0  0  0  0  0  0  0  0  0  0  0
   14.1171   57.6188   40.2628 C   0  0  0  0  0  0  0  0  0  0  0  0
   14.5841   56.3340   40.5305 C   0  0  0  0  0  0  0  0  0  0  0  0
   15.2642   55.6157   39.5536 C   0  0  0  0  0  0  0  0  0  0  0  0
   15.4837   56.1813   38.3032 C   0  0  0  0  0  0  0  0  0  0  0  0
   13.9941   59.4849   38.7802 O   0  0  0  0  0  0  0  0  0  0  0  0
   12.5206   59.4446   36.8803 C   0  0  0  0  0  0  0  0  0  0  0  0
   11.2979   59.8081   36.3262 C   0  0  0  0  0  0  0  0  0  0  0  0
   10.3245   60.4201   37.1065 C   0  0  0  0  0  0  0  0  0  0  0  0
   10.5672   60.6654   38.4554 C   0  0  0  0  0  0  0  0  0  0  0  0
   11.7866   60.2986   39.0069 C   0  0  0  0  0  0  0  0  0  0  0  0
   12.7689   59.6947   38.2251 C   0  0  0  0  0  0  0  0  0  0  0  0
   15.8731   53.9447   37.1362 C   0  0  0  0  0  0  0  0  0  0  0  0
   16.6473   53.2046   36.0427 C   0  0  0  0  0  0  0  0  0  0  0  0
   18.0851   53.3709   36.3070 N   0  0  0  0  0  0  0  0  0  0  0  0
   18.9013   52.3436   36.5162 C   0  0  0  0  0  0  0  0  0  0  0  0
   18.5465   51.1635   36.4916 O   0  0  0  0  0  0  0  0  0  0  0  0
   18.4580   54.2818   36.3299 H   0  0  0  0  0  0  0  0  0  0  0  0
   20.3655   52.7318   36.7252 C   0  0  0  0  0  0  0  0  0  0  0  0
   20.6055   54.0052   37.9869 P   0  0  0  0  0  0  0  0  0  0  0  0
   19.9608   53.4085   39.3374 O   0  0  0  0  0  0  0  0  0  0  0  0
   22.1972   54.1635   38.1620 O   0  0  0  0  0  0  0  0  0  0  0  0
   19.9318   55.2500   37.5431 O   0  0  0  0  0  0  0  0  0  0  0  0
   20.4307   52.5982   39.5894 H   0  0  0  0  0  0  0  0  0  0  0  0
   22.5761   53.3190   38.4523 H   0  0  0  0  0  0  0  0  0  0  0  0
  9 10  2  0  0  0
  9 14  1  0  0  0
 10 11  1  0  0  0
 11 12  2  0  0  0
 12 13  1  0  0  0
 13 14  2  0  0  0
 14  8  1  0  0  0
  8  2  1  0  0  0
  2  3  2  0  0  0
  2  4  1  0  0  0
  3  7  1  0  0  0
  4  5  2  0  0  0
  5  6  1  0  0  0
  6  7  2  0  0  0
  7  1  1  0  0  0
  1 15  1  0  0  0
 15 16  1  0  0  0
 16 17  1  0  0  0
 17 18  1  0  0  0
 18 19  2  0  0  0
 18 21  1  0  0  0
 21 22  1  0  0  0
 22 23  1  0  0  0
 22 24  1  0  0  0
 22 25  2  0  0  0
 17 20  1  0  0  0
 23 26  1  0  0  0
 24 27  1  0  0  0
M  END
> <minimizedAffinity>
-9.50176

$$$$
2ZY1_830_A_808


 27 28  0  0  0  0  0  0  0  0999 V2000
   19.5839   53.7285   38.6415 C   0  0  0  0  0  0  0  0  0  0  0  0
   16.5123   55.4689   37.1942 C   0  0  0  0  0  0  0  0  0  0  0  0
   17.3305   54.6778   37.9935 C   0  0  0  0  0  0  0  0  0  0  0  0
   17.0741   56.2445   36.1880 C   0  0  0  0  0  0  0  0  0  0  0  0
   18.4516   56.2181   35.9826 C   0  0  0  0  0  0  0  0  0  0  0  0
   19.2660   55.4227   36.7807 C   0  0  0  0  0  0  0  0  0  0  0  0
   18.7051   54.6462   37.7876 C   0  0  0  0  0  0  0  0  0  0  0  0
   15.1568   55.3907   37.3241 O   0  0  0  0  0  0  0  0  0  0  0  0
   13.6533   57.2618   37.1798 C   0  0  0  0  0  0  0  0  0  0  0  0
   13.1625   58.4295   37.7542 C   0  0  0  0  0  0  0  0  0  0  0  0
   13.5568   58.8059   39.0323 C   0  0  0  0  0  0  0  0  0  0  0  0
   14.4428   58.0071   39.7504 C   0  0  0  0  0  0  0  0  0  0  0  0
   14.9283   56.8407   39.1766 C   0  0  0  0  0  0  0  0  0  0  0  0
   14.5437   56.4657   37.8912 C   0  0  0  0  0  0  0  0  0  0  0  0
   20.8416   54.4297   39.1676 C   0  0  0  0  0  0  0  0  0  0  0  0
   22.0589   53.5018   39.1867 C   0  0  0  0  0  0  0  0  0  0  0  0
   22.1634   52.8563   37.8687 N   0  0  0  0  0  0  0  0  0  0  0  0
   22.6122   51.6159   37.7090 C   0  0  0  0  0  0  0  0  0  0  0  0
   22.9633   50.8838   38.6362 O   0  0  0  0  0  0  0  0  0  0  0  0
   21.8893   53.3649   37.0715 H   0  0  0  0  0  0  0  0  0  0  0  0
   22.5964   51.1191   36.2629 C   0  0  0  0  0  0  0  0  0  0  0  0
   20.9689   51.2166   35.4800 P   0  0  0  0  0  0  0  0  0  0  0  0
   19.9280   50.6339   36.5630 O   0  0  0  0  0  0  0  0  0  0  0  0
   20.6865   52.7817   35.2344 O   0  0  0  0  0  0  0  0  0  0  0  0
   20.9907   50.4156   34.2317 O   0  0  0  0  0  0  0  0  0  0  0  0
   19.9472   51.1866   37.3599 H   0  0  0  0  0  0  0  0  0  0  0  0
   20.6850   53.2474   36.0853 H   0  0  0  0  0  0  0  0  0  0  0  0
  9 10  2  0  0  0
  9 14  1  0  0  0
 10 11  1  0  0  0
 11 12  2  0  0  0
 12 13  1  0  0  0
 13 14  2  0  0  0
 14  8  1  0  0  0
  8  2  1  0  0  0
  2  3  2  0  0  0
  2  4  1  0  0  0
  3  7  1  0  0  0
  4  5  2  0  0  0
  5  6  1  0  0  0
  6  7  2  0  0  0
  7  1  1  0  0  0
  1 15  1  0  0  0
 15 16  1  0  0  0
 16 17  1  0  0  0
 17 18  1  0  0  0
 18 19  2  0  0  0
 18 21  1  0  0  0
 21 22  1  0  0  0
 22 23  1  0  0  0
 22 24  1  0  0  0
 22 25  2  0  0  0
 17 20  1  0  0  0
 23 26  1  0  0  0
 24 27  1  0  0  0
M  END
> <minimizedAffinity>
-9.03008

$$$$
2ZY1_830_A_808


 27 28  0  0  0  0  0  0  0  0999 V2000
   20.5439   53.4711   37.5623 C   0  0  0  0  0  0  0  0  0  0  0  0
   17.2301   55.2586   36.9444 C   0  0  0  0  0  0  0  0  0  0  0  0
   18.1992   54.4170   37.4796 C   0  0  0  0  0  0  0  0  0  0  0  0
   17.5700   56.1420   35.9277 C   0  0  0  0  0  0  0  0  0  0  0  0
   18.8771   56.1727   35.4472 C   0  0  0  0  0  0  0  0  0  0  0  0
   19.8424   55.3267   35.9815 C   0  0  0  0  0  0  0  0  0  0  0  0
   19.5034   54.4423   36.9987 C   0  0  0  0  0  0  0  0  0  0  0  0
   15.9298   55.1317   37.3365 O   0  0  0  0  0  0  0  0  0  0  0  0
   15.2929   55.5467   39.6178 C   0  0  0  0  0  0  0  0  0  0  0  0
   14.7296   56.4141   40.5477 C   0  0  0  0  0  0  0  0  0  0  0  0
   14.3824   57.7092   40.1832 C   0  0  0  0  0  0  0  0  0  0  0  0
   14.6061   58.1490   38.8812 C   0  0  0  0  0  0  0  0  0  0  0  0
   15.1715   57.2829   37.9562 C   0  0  0  0  0  0  0  0  0  0  0  0
   15.5109   55.9803   38.3151 C   0  0  0  0  0  0  0  0  0  0  0  0
   21.0336   52.4551   36.5239 C   0  0  0  0  0  0  0  0  0  0  0  0
   22.2794   51.6996   36.9932 C   0  0  0  0  0  0  0  0  0  0  0  0
   22.7831   52.3576   38.2089 N   0  0  0  0  0  0  0  0  0  0  0  0
   24.0128   52.1651   38.6739 C   0  0  0  0  0  0  0  0  0  0  0  0
   24.8506   51.4415   38.1319 O   0  0  0  0  0  0  0  0  0  0  0  0
   22.1839   52.9662   38.6985 H   0  0  0  0  0  0  0  0  0  0  0  0
   24.3514   52.9799   39.9228 C   0  0  0  0  0  0  0  0  0  0  0  0
   23.7140   54.6719   39.8799 P   0  0  0  0  0  0  0  0  0  0  0  0
   23.6565   55.0773   38.3216 O   0  0  0  0  0  0  0  0  0  0  0  0
   22.2242   54.6015   40.4840 O   0  0  0  0  0  0  0  0  0  0  0  0
   24.6272   55.5460   40.6561 O   0  0  0  0  0  0  0  0  0  0  0  0
   23.0498   54.4816   37.8548 H   0  0  0  0  0  0  0  0  0  0  0  0
   21.6796   54.0170   39.9338 H   0  0  0  0  0  0  0  0  0  0  0  0
  9 10  2  0  0  0
  9 14  1  0  0  0
 10 11  1  0  0  0
 11 12  2  0  0  0
 12 13  1  0  0  0
 13 14  2  0  0  0
 14  8  1  0  0  0
  8  2  1  0  0  0
  2  3  2  0  0  0
  2  4  1  0  0  0
  3  7  1  0  0  0
  4  5  2  0  0  0
  5  6  1  0  0  0
  6  7  2  0  0  0
  7  1  1  0  0  0
  1 15  1  0  0  0
 15 16  1  0  0  0
 16 17  1  0  0  0
 17 18  1  0  0  0
 18 19  2  0  0  0
 18 21  1  0  0  0
 21 22  1  0  0  0
 22 23  1  0  0  0
 22 24  1  0  0  0
 22 25  2  0  0  0
 17 20  1  0  0  0
 23 26  1  0  0  0
 24 27  1  0  0  0
M  END
> <minimizedAffinity>
-8.77130

$$$$
2ZY1_830_A_808


 27 28  0  0  0  0  0  0  0  0999 V2000
   19.8146   53.2249   37.8247 C   0  0  0  0  0  0  0  0  0  0  0  0
   16.9013   55.5139   36.9134 C   0  0  0  0  0  0  0  0  0  0  0  0
   17.6728   54.5399   37.5378 C   0  0  0  0  0  0  0  0  0  0  0  0
   17.4611   56.3010   35.9149 C   0  0  0  0  0  0  0  0  0  0  0  0
   18.7885   56.1034   35.5420 C   0  0  0  0  0  0  0  0  0  0  0  0
   19.5556   55.1257   36.1653 C   0  0  0  0  0  0  0  0  0  0  0  0
   18.9966   54.3376   37.1642 C   0  0  0  0  0  0  0  0  0  0  0  0
   15.5714   55.6130   37.2002 O   0  0  0  0  0  0  0  0  0  0  0  0
   15.0753   55.6486   39.5528 C   0  0  0  0  0  0  0  0  0  0  0  0
   14.6080   56.3633   40.6506 C   0  0  0  0  0  0  0  0  0  0  0  0
   14.3132   57.7164   40.5370 C   0  0  0  0  0  0  0  0  0  0  0  0
   14.4935   58.3678   39.3197 C   0  0  0  0  0  0  0  0  0  0  0  0
   14.9633   57.6534   38.2268 C   0  0  0  0  0  0  0  0  0  0  0  0
   15.2496   56.2942   38.3341 C   0  0  0  0  0  0  0  0  0  0  0  0
   20.9429   52.7030   36.9275 C   0  0  0  0  0  0  0  0  0  0  0  0
   20.6802   51.2781   36.4336 C   0  0  0  0  0  0  0  0  0  0  0  0
   21.9149   50.7738   35.8125 N   0  0  0  0  0  0  0  0  0  0  0  0
   22.0116   50.5129   34.5133 C   0  0  0  0  0  0  0  0  0  0  0  0
   21.0968   50.6822   33.7049 O   0  0  0  0  0  0  0  0  0  0  0  0
   22.7026   50.6234   36.3836 H   0  0  0  0  0  0  0  0  0  0  0  0
   23.3955   50.0422   34.0642 C   0  0  0  0  0  0  0  0  0  0  0  0
   23.5899   49.9712   32.2674 P   0  0  0  0  0  0  0  0  0  0  0  0
   22.4398   48.9720   31.7432 O   0  0  0  0  0  0  0  0  0  0  0  0
   23.3085   51.4617   31.7303 O   0  0  0  0  0  0  0  0  0  0  0  0
   24.9525   49.4759   31.9537 O   0  0  0  0  0  0  0  0  0  0  0  0
   21.5689   49.3345   31.9693 H   0  0  0  0  0  0  0  0  0  0  0  0
   22.4054   51.7253   31.9663 H   0  0  0  0  0  0  0  0  0  0  0  0
  9 10  2  0  0  0
  9 14  1  0  0  0
 10 11  1  0  0  0
 11 12  2  0  0  0
 12 13  1  0  0  0
 13 14  2  0  0  0
 14  8  1  0  0  0
  8  2  1  0  0  0
  2  3  2  0  0  0
  2  4  1  0  0  0
  3  7  1  0  0  0
  4  5  2  0  0  0
  5  6  1  0  0  0
  6  7  2  0  0  0
  7  1  1  0  0  0
  1 15  1  0  0  0
 15 16  1  0  0  0
 16 17  1  0  0  0
 17 18  1  0  0  0
 18 19  2  0  0  0
 18 21  1  0  0  0
 21 22  1  0  0  0
 22 23  1  0  0  0
 22 24  1  0  0  0
 22 25  2  0  0  0
 17 20  1  0  0  0
 23 26  1  0  0  0
 24 27  1  0  0  0
M  END
> <minimizedAffinity>
-8.75739

$$$$
2ZY1_830_A_808


 27 28  0  0  0  0  0  0  0  0999 V2000
   18.6061   54.0999   38.4475 C   0  0  0  0  0  0  0  0  0  0  0  0
   15.5729   55.9726   37.0872 C   0  0  0  0  0  0  0  0  0  0  0  0
   16.4111   55.2426   37.9229 C   0  0  0  0  0  0  0  0  0  0  0  0
   16.0455   56.4252   35.8618 C   0  0  0  0  0  0  0  0  0  0  0  0
   17.3530   56.1379   35.4766 C   0  0  0  0  0  0  0  0  0  0  0  0
   18.1869   55.4040   36.3127 C   0  0  0  0  0  0  0  0  0  0  0  0
   17.7150   54.9505   37.5388 C   0  0  0  0  0  0  0  0  0  0  0  0
   14.2608   56.1399   37.4204 O   0  0  0  0  0  0  0  0  0  0  0  0
   14.4327   58.1239   38.7682 C   0  0  0  0  0  0  0  0  0  0  0  0
   13.9056   59.3618   39.1202 C   0  0  0  0  0  0  0  0  0  0  0  0
   12.8227   59.8894   38.4275 C   0  0  0  0  0  0  0  0  0  0  0  0
   12.2635   59.1813   37.3671 C   0  0  0  0  0  0  0  0  0  0  0  0
   12.7934   57.9481   37.0154 C   0  0  0  0  0  0  0  0  0  0  0  0
   13.8721   57.4109   37.7146 C   0  0  0  0  0  0  0  0  0  0  0  0
   20.0992   54.2666   38.1421 C   0  0  0  0  0  0  0  0  0  0  0  0
   20.9086   54.6383   39.3869 C   0  0  0  0  0  0  0  0  0  0  0  0
   22.0307   53.6937   39.5025 N   0  0  0  0  0  0  0  0  0  0  0  0
   23.2947   54.0506   39.3021 C   0  0  0  0  0  0  0  0  0  0  0  0
   23.6527   55.1962   39.0220 O   0  0  0  0  0  0  0  0  0  0  0  0
   21.8367   52.7577   39.7383 H   0  0  0  0  0  0  0  0  0  0  0  0
   24.3105   52.9282   39.5182 C   0  0  0  0  0  0  0  0  0  0  0  0
   24.2531   51.6432   38.2467 P   0  0  0  0  0  0  0  0  0  0  0  0
   24.6203   52.3818   36.8628 O   0  0  0  0  0  0  0  0  0  0  0  0
   25.4065   50.5880   38.6284 O   0  0  0  0  0  0  0  0  0  0  0  0
   22.8928   51.0521   38.2263 O   0  0  0  0  0  0  0  0  0  0  0  0
   25.5151   52.7518   36.9212 H   0  0  0  0  0  0  0  0  0  0  0  0
   26.2676   51.0346   38.6244 H   0  0  0  0  0  0  0  0  0  0  0  0
  9 10  2  0  0  0
  9 14  1  0  0  0
 10 11  1  0  0  0
 11 12  2  0  0  0
 12 13  1  0  0  0
 13 14  2  0  0  0
 14  8  1  0  0  0
  8  2  1  0  0  0
  2  3  2  0  0  0
  2  4  1  0  0  0
  3  7  1  0  0  0
  4  5  2  0  0  0
  5  6  1  0  0  0
  6  7  2  0  0  0
  7  1  1  0  0  0
  1 15  1  0  0  0
 15 16  1  0  0  0
 16 17  1  0  0  0
 17 18  1  0  0  0
 18 19  2  0  0  0
 18 21  1  0  0  0
 21 22  1  0  0  0
 22 23  1  0  0  0
 22 24  1  0  0  0
 22 25  2  0  0  0
 17 20  1  0  0  0
 23 26  1  0  0  0
 24 27  1  0  0  0
M  END
> <minimizedAffinity>
-8.57798

$$$$
2ZY1_830_A_808


 27 28  0  0  0  0  0  0  0  0999 V2000
   17.4827   53.4730   37.8304 C   0  0  0  0  0  0  0  0  0  0  0  0
   14.8477   56.1574   37.1910 C   0  0  0  0  0  0  0  0  0  0  0  0
   15.5482   55.1016   37.7642 C   0  0  0  0  0  0  0  0  0  0  0  0
   15.3611   56.7968   36.0697 C   0  0  0  0  0  0  0  0  0  0  0  0
   16.5697   56.3706   35.5239 C   0  0  0  0  0  0  0  0  0  0  0  0
   17.2652   55.3119   36.0969 C   0  0  0  0  0  0  0  0  0  0  0  0
   16.7525   54.6713   37.2186 C   0  0  0  0  0  0  0  0  0  0  0  0
   13.6086   56.4829   37.6590 O   0  0  0  0  0  0  0  0  0  0  0  0
   12.4711   58.5885   37.4249 C   0  0  0  0  0  0  0  0  0  0  0  0
   12.4185   59.9433   37.7349 C   0  0  0  0  0  0  0  0  0  0  0  0
   13.3149   60.4938   38.6427 C   0  0  0  0  0  0  0  0  0  0  0  0
   14.2689   59.6857   39.2555 C   0  0  0  0  0  0  0  0  0  0  0  0
   14.3171   58.3336   38.9474 C   0  0  0  0  0  0  0  0  0  0  0  0
   13.4270   57.7802   38.0295 C   0  0  0  0  0  0  0  0  0  0  0  0
   17.7445   52.3541   36.8156 C   0  0  0  0  0  0  0  0  0  0  0  0
   19.2349   52.1820   36.5124 C   0  0  0  0  0  0  0  0  0  0  0  0
   19.9820   53.1618   37.3165 N   0  0  0  0  0  0  0  0  0  0  0  0
   21.1384   52.8766   37.9054 C   0  0  0  0  0  0  0  0  0  0  0  0
   21.7042   51.7847   37.8236 O   0  0  0  0  0  0  0  0  0  0  0  0
   19.6093   54.0668   37.4228 H   0  0  0  0  0  0  0  0  0  0  0  0
   21.7729   54.0493   38.6541 C   0  0  0  0  0  0  0  0  0  0  0  0
   23.4808   53.7448   39.1653 P   0  0  0  0  0  0  0  0  0  0  0  0
   23.3920   52.6820   40.3729 O   0  0  0  0  0  0  0  0  0  0  0  0
   24.2119   53.0754   37.8978 O   0  0  0  0  0  0  0  0  0  0  0  0
   24.0887   55.0298   39.5892 O   0  0  0  0  0  0  0  0  0  0  0  0
   22.9898   51.8600   40.0513 H   0  0  0  0  0  0  0  0  0  0  0  0
   23.7691   52.2425   37.6718 H   0  0  0  0  0  0  0  0  0  0  0  0
  9 10  2  0  0  0
  9 14  1  0  0  0
 10 11  1  0  0  0
 11 12  2  0  0  0
 12 13  1  0  0  0
 13 14  2  0  0  0
 14  8  1  0  0  0
  8  2  1  0  0  0
  2  3  2  0  0  0
  2  4  1  0  0  0
  3  7  1  0  0  0
  4  5  2  0  0  0
  5  6  1  0  0  0
  6  7  2  0  0  0
  7  1  1  0  0  0
  1 15  1  0  0  0
 15 16  1  0  0  0
 16 17  1  0  0  0
 17 18  1  0  0  0
 18 19  2  0  0  0
 18 21  1  0  0  0
 21 22  1  0  0  0
 22 23  1  0  0  0
 22 24  1  0  0  0
 22 25  2  0  0  0
 17 20  1  0  0  0
 23 26  1  0  0  0
 24 27  1  0  0  0
M  END
> <minimizedAffinity>
-8.46149

$$$$
2ZY1_830_A_808


 27 28  0  0  0  0  0  0  0  0999 V2000
   17.4439   54.2061   38.0729 C   0  0  0  0  0  0  0  0  0  0  0  0
   14.5965   56.7366   37.8577 C   0  0  0  0  0  0  0  0  0  0  0  0
   15.5084   55.8106   38.3525 C   0  0  0  0  0  0  0  0  0  0  0  0
   14.6664   57.1293   36.5271 C   0  0  0  0  0  0  0  0  0  0  0  0
   15.6447   56.5868   35.6970 C   0  0  0  0  0  0  0  0  0  0  0  0
   16.5520   55.6579   36.1939 C   0  0  0  0  0  0  0  0  0  0  0  0
   16.4829   55.2642   37.5250 C   0  0  0  0  0  0  0  0  0  0  0  0
   13.5692   57.1651   38.6462 O   0  0  0  0  0  0  0  0  0  0  0  0
   12.2827   59.1705   38.3219 C   0  0  0  0  0  0  0  0  0  0  0  0
   12.2391   60.5606   38.3337 C   0  0  0  0  0  0  0  0  0  0  0  0
   13.3286   61.2960   38.7844 C   0  0  0  0  0  0  0  0  0  0  0  0
   14.4709   60.6408   39.2365 C   0  0  0  0  0  0  0  0  0  0  0  0
   14.5106   59.2538   39.2272 C   0  0  0  0  0  0  0  0  0  0  0  0
   13.4245   58.5134   38.7658 C   0  0  0  0  0  0  0  0  0  0  0  0
   16.8114   52.8118   38.1525 C   0  0  0  0  0  0  0  0  0  0  0  0
   16.8964   52.0587   36.8226 C   0  0  0  0  0  0  0  0  0  0  0  0
   18.2082   52.3414   36.2192 N   0  0  0  0  0  0  0  0  0  0  0  0
   19.2607   51.5469   36.3819 C   0  0  0  0  0  0  0  0  0  0  0  0
   19.2409   50.4982   37.0291 O   0  0  0  0  0  0  0  0  0  0  0  0
   18.3104   53.1533   35.6719 H   0  0  0  0  0  0  0  0  0  0  0  0
   20.5150   51.9976   35.6322 C   0  0  0  0  0  0  0  0  0  0  0  0
   21.5527   50.6289   35.0657 P   0  0  0  0  0  0  0  0  0  0  0  0
   22.3328   50.1024   36.3735 O   0  0  0  0  0  0  0  0  0  0  0  0
   20.5421   49.4943   34.5358 O   0  0  0  0  0  0  0  0  0  0  0  0
   22.4786   51.1319   34.0217 O   0  0  0  0  0  0  0  0  0  0  0  0
   21.6904   49.7842   37.0269 H   0  0  0  0  0  0  0  0  0  0  0  0
   19.9666   49.2089   35.2625 H   0  0  0  0  0  0  0  0  0  0  0  0
  9 10  2  0  0  0
  9 14  1  0  0  0
 10 11  1  0  0  0
 11 12  2  0  0  0
 12 13  1  0  0  0
 13 14  2  0  0  0
 14  8  1  0  0  0
  8  2  1  0  0  0
  2  3  2  0  0  0
  2  4  1  0  0  0
  3  7  1  0  0  0
  4  5  2  0  0  0
  5  6  1  0  0  0
  6  7  2  0  0  0
  7  1  1  0  0  0
  1 15  1  0  0  0
 15 16  1  0  0  0
 16 17  1  0  0  0
 17 18  1  0  0  0
 18 19  2  0  0  0
 18 21  1  0  0  0
 21 22  1  0  0  0
 22 23  1  0  0  0
 22 24  1  0  0  0
 22 25  2  0  0  0
 17 20  1  0  0  0
 23 26  1  0  0  0
 24 27  1  0  0  0
M  END
> <minimizedAffinity>
-8.40101

$$$$
