2V7A_627_A_1504
  RCSB PDB12061707033D
Coordinates from PDB:2V7A:A:1504 Model:1 without hydrogens
 35 39  0  0  0  0            999 V2000
  -41.5340  -46.3820  -10.4830   N 0  0  0  0  0  0  0  0  0  0  0  0
  -38.9440  -47.7120  -12.6370   N 0  0  0  0  0  0  0  0  0  0  0  0
  -40.4680  -49.3270  -12.4040   C 0  0  0  0  0  0  0  0  0  0  0  0
  -39.2690  -49.0590  -12.9530   N 0  0  0  0  0  0  0  0  0  0  0  0
  -41.0120  -50.5850  -12.5470   N 0  0  0  0  0  0  0  0  0  0  0  0
  -42.2820  -50.9100  -12.3700   C 0  0  0  0  0  0  0  0  0  0  0  0
  -42.6550  -52.3300  -12.5570   C 0  0  0  0  0  0  0  0  0  0  0  0
  -43.1600  -50.1190  -12.0800   O 0  0  0  0  0  0  0  0  0  0  0  0
  -43.8250  -52.7650  -11.9540   C 0  0  0  0  0  0  0  0  0  0  0  0
  -44.2500  -54.0700  -12.0910   C 0  0  0  0  0  0  0  0  0  0  0  0
  -42.2860  -54.4960  -13.4390   C 0  0  0  0  0  0  0  0  0  0  0  0
  -41.8650  -53.1850  -13.3110   C 0  0  0  0  0  0  0  0  0  0  0  0
  -39.9680  -47.2170  -11.9130   C 0  0  0  0  0  0  0  0  0  0  0  0
  -40.9620  -48.2280  -11.7300   C 0  0  0  0  0  0  0  0  0  0  0  0
  -42.0890  -47.7140  -10.8900   C 0  0  0  0  0  0  0  0  0  0  0  0
  -40.3240  -45.9500  -11.2150   C 0  0  0  0  0  0  0  0  0  0  0  0
  -43.9090  -56.2660  -12.9770   N 0  0  0  0  0  0  0  0  0  0  0  0
  -44.8070  -56.7740  -12.2280   C 0  0  0  0  0  0  0  0  0  0  0  0
  -44.5700  -57.9900  -11.7140   C 0  0  0  0  0  0  0  0  0  0  0  0
  -43.6110  -58.8840  -12.3120   N 0  0  0  0  0  0  0  0  0  0  0  0
  -42.6240  -58.1950  -13.1890   C 0  0  0  0  0  0  0  0  0  0  0  0
  -43.2910  -57.0970  -14.0150   C 0  0  0  0  0  0  0  0  0  0  0  0
  -42.8610  -59.6260  -11.2800   C 0  0  0  0  0  0  0  0  0  0  0  0
  -43.4780  -54.9360  -12.8330   C 0  0  0  0  0  0  0  0  0  0  0  0
  -42.0550  -45.5900   -9.5330   C 0  0  0  0  0  0  0  0  0  0  0  0
  -41.5580  -44.5040   -9.2400   O 0  0  0  0  0  0  0  0  0  0  0  0
  -42.8400  -47.0760   -7.7950   C 0  0  0  0  0  0  0  0  0  0  0  0
  -43.5290  -48.3090   -7.7100   C 0  0  0  0  0  0  0  0  0  0  0  0
  -41.7460  -46.8220   -6.9410   C 0  0  0  0  0  0  0  0  0  0  0  0
  -43.1140  -49.2810   -6.8010   C 0  0  0  0  0  0  0  0  0  0  0  0
  -41.3300  -47.7880   -6.0390   C 0  0  0  0  0  0  0  0  0  0  0  0
  -43.2740  -46.0540   -8.7970   C 0  0  0  0  0  0  0  0  0  0  0  0
  -42.0120  -49.0070   -5.9660   C 0  0  0  0  0  0  0  0  0  0  0  0
  -45.1420  -45.2110   -7.5230   C 0  0  0  0  0  0  0  0  0  0  0  0
  -43.9080  -44.9170   -8.2070   O 0  0  0  0  0  0  0  0  0  0  0  0
  1 15  1  0  0  0  0
  1 16  1  0  0  0  0
  1 25  1  0  0  0  0
  2  4  1  0  0  0  0
  2 13  1  0  0  0  0
  3  4  2  0  0  0  0
  3  5  1  0  0  0  0
  3 14  1  0  0  0  0
  5  6  1  0  0  0  0
  6  7  1  0  0  0  0
  6  8  2  0  0  0  0
  7  9  1  0  0  0  0
  7 12  2  0  0  0  0
  9 10  2  0  0  0  0
 10 24  1  0  0  0  0
 11 12  1  0  0  0  0
 11 24  2  0  0  0  0
 13 14  2  0  0  0  0
 13 16  1  0  0  0  0
 14 15  1  0  0  0  0
 17 18  1  0  0  0  0
 17 22  1  0  0  0  0
 17 24  1  0  0  0  0
 18 19  1  0  0  0  0
 19 20  1  0  0  0  0
 20 21  1  0  0  0  0
 20 23  1  0  0  0  0
 21 22  1  0  0  0  0
 25 26  2  0  0  0  0
 25 32  1  0  0  0  0
 27 28  1  0  0  0  0
 27 29  2  0  0  0  0
 27 32  1  0  0  0  0
 28 30  2  0  0  0  0
 29 31  1  0  0  0  0
 30 33  1  0  0  0  0
 31 33  2  0  0  0  0
 32 35  1  0  0  0  0
 34 35  1  0  0  0  0
A    1
N1
A    2
N2
A    3
C3
A    4
N4
A    5
N5
A    6
C6
A    7
C7
A    8
O8
A    9
C9
A   10
C10
A   11
C11
A   12
C12
A   13
C13
A   14
C14
A   15
C15
A   16
C16
A   17
N17
A   18
C18
A   19
C19
A   20
N20
A   21
C21
A   22
C22
A   23
C23
A   24
C24
A   25
C25
A   26
O26
A   27
C27
A   28
C28
A   29
C29
A   30
C31
A   31
C33
A   32
C20
A   33
C35
A   34
C36
A   35
O34
M  END
>  <InstanceId>
2V7A_627_A_1504

>  <ChemCompId>
627

>  <PdbId>
2V7A

>  <ChainId>
A

>  <ResidueNumber>
1504

>  <InsertionCode>


>  <Model>
1

>  <AltIds>


>  <MissingHeavyAtoms>
0

>  <ObservedFormula>
C26 N6 O3

>  <Name>
N-[(3E)-5-[(2R)-2-METHOXY-2-PHENYLACETYL]PYRROLO[3,4-C]PYRAZOL-3(5H)-YLIDENE]-4-(4-METHYLPIPERAZIN-1-YL)BENZAMIDE

>  <SystematicName>
N-[5-[(2R)-2-methoxy-2-phenyl-ethanoyl]-4,6-dihydro-1H-pyrrolo[3,4-c]pyrazol-3-yl]-4-(4-methylpiperazin-1-yl)benzamide

>  <Synonyms>
Danusertib; PHA-739358

>  <Type>
NON-POLYMER

>  <Formula>
C26 H30 N6 O3

>  <MolecularWeight>
474.555

>  <ModifiedDate>
2015-07-22

>  <Parent>


>  <OneLetterCode>


>  <SubcomponentList>


>  <AmbiguousFlag>
N

>  <InChI>
InChI=1S/C26H30N6O3/c1-30-12-14-31(15-13-30)20-10-8-19(9-11-20)25(33)27-24-21-16-32(17-22(21)28-29-24)26(34)23(35-2)18-6-4-3-5-7-18/h3-11,23H,12-17H2,1-2H3,(H2,27,28,29,33)/t23-/m1/s1

>  <InChIKey>
XKFTZKGMDDZMJI-HSZRJFAPSA-N

>  <SMILES>
CN1CCN(CC1)c2ccc(cc2)C(=O)Nc3c4c([nH]n3)CN(C4)C(=O)[C@@H](c5ccccc5)OC

$$$$
