2V7A_627_A_1504


 37 41  0  0  0  0  0  0  0  0999 V2000
  -41.3270  -46.2535  -10.1513 N   0  0  0  0  0  0  0  0  0  0  0  0
  -38.8798  -47.5509  -12.4847 N   0  0  0  0  0  0  0  0  0  0  0  0
  -40.3941  -49.1648  -12.1894 C   0  0  0  0  0  0  0  0  0  0  0  0
  -39.2297  -48.8904  -12.8056 N   0  0  0  0  0  0  0  0  0  0  0  0
  -39.8553  -47.0663  -11.6901 C   0  0  0  0  0  0  0  0  0  0  0  0
  -40.8409  -48.0772  -11.4657 C   0  0  0  0  0  0  0  0  0  0  0  0
  -41.9120  -47.5755  -10.5487 C   0  0  0  0  0  0  0  0  0  0  0  0
  -40.1620  -45.8117  -10.9477 C   0  0  0  0  0  0  0  0  0  0  0  0
  -41.7852  -45.4781   -9.1563 C   0  0  0  0  0  0  0  0  0  0  0  0
  -41.2662  -44.3996   -8.8738 O   0  0  0  0  0  0  0  0  0  0  0  0
  -38.0765  -47.0678  -12.7858 H   0  0  0  0  0  0  0  0  0  0  0  0
  -40.9517  -50.4179  -12.3226 N   0  0  0  0  0  0  0  0  0  0  0  0
  -42.2432  -50.6920  -12.4039 C   0  0  0  0  0  0  0  0  0  0  0  0
  -43.1253  -49.8538  -12.4008 O   0  0  0  0  0  0  0  0  0  0  0  0
  -40.3305  -51.1807  -12.3610 H   0  0  0  0  0  0  0  0  0  0  0  0
  -42.6321  -52.1149  -12.5248 C   0  0  0  0  0  0  0  0  0  0  0  0
  -43.6705  -52.5609  -11.7220 C   0  0  0  0  0  0  0  0  0  0  0  0
  -44.1024  -53.8693  -11.7840 C   0  0  0  0  0  0  0  0  0  0  0  0
  -42.4104  -54.2763  -13.4655 C   0  0  0  0  0  0  0  0  0  0  0  0
  -41.9840  -52.9619  -13.4115 C   0  0  0  0  0  0  0  0  0  0  0  0
  -43.4698  -54.7275  -12.6557 C   0  0  0  0  0  0  0  0  0  0  0  0
  -43.9087  -56.0610  -12.7236 N   0  0  0  0  0  0  0  0  0  0  0  0
  -44.9674  -56.4586  -12.1349 C   0  0  0  0  0  0  0  0  0  0  0  0
  -44.8947  -57.5990  -11.4326 C   0  0  0  0  0  0  0  0  0  0  0  0
  -43.8625  -58.5721  -11.6858 N   0  0  0  0  0  0  0  0  0  0  0  0
  -42.6822  -58.0126  -12.4013 C   0  0  0  0  0  0  0  0  0  0  0  0
  -43.1103  -57.0261  -13.4858 C   0  0  0  0  0  0  0  0  0  0  0  0
  -43.3851  -59.1795  -10.4283 C   0  0  0  0  0  0  0  0  0  0  0  0
  -42.9591  -45.9519   -8.3560 C   0  0  0  0  0  0  0  0  0  0  0  0
  -42.4878  -47.0586   -7.4671 C   0  0  0  0  0  0  0  0  0  0  0  0
  -43.1972  -48.2826   -7.4379 C   0  0  0  0  0  0  0  0  0  0  0  0
  -41.3390  -46.8928   -6.6649 C   0  0  0  0  0  0  0  0  0  0  0  0
  -42.7495  -49.3316   -6.6364 C   0  0  0  0  0  0  0  0  0  0  0  0
  -40.8906  -47.9353   -5.8700 C   0  0  0  0  0  0  0  0  0  0  0  0
  -41.5934  -49.1445   -5.8520 C   0  0  0  0  0  0  0  0  0  0  0  0
  -44.8056  -45.0681   -7.0783 C   0  0  0  0  0  0  0  0  0  0  0  0
  -43.4971  -44.8396   -7.6376 O   0  0  0  0  0  0  0  0  0  0  0  0
  1  7  1  0  0  0
  1  8  1  0  0  0
  1  9  1  0  0  0
  2  4  1  0  0  0
  2  5  1  0  0  0
  3  4  2  0  0  0
  3 12  1  0  0  0
  3  6  1  0  0  0
 12 13  1  0  0  0
 13 16  1  0  0  0
 13 14  2  0  0  0
 16 17  1  0  0  0
 16 20  2  0  0  0
 17 18  2  0  0  0
 18 21  1  0  0  0
 19 20  1  0  0  0
 19 21  2  0  0  0
  5  6  2  0  0  0
  5  8  1  0  0  0
  6  7  1  0  0  0
 22 23  1  0  0  0
 22 27  1  0  0  0
 22 21  1  0  0  0
 23 24  1  0  0  0
 24 25  1  0  0  0
 25 26  1  0  0  0
 25 28  1  0  0  0
 26 27  1  0  0  0
  9 10  2  0  0  0
  9 29  1  0  0  0
 30 31  1  0  0  0
 30 32  2  0  0  0
 30 29  1  0  0  0
 31 33  2  0  0  0
 32 34  1  0  0  0
 33 35  1  0  0  0
 34 35  2  0  0  0
 29 37  1  0  0  0
 36 37  1  0  0  0
  2 11  1  0  0  0
 12 15  1  0  0  0
M  END
> <minimizedAffinity>
-10.12142

$$$$
2V7A_627_A_1504


 37 41  0  0  0  0  0  0  0  0999 V2000
  -41.3481  -46.1581  -10.0698 N   0  0  0  0  0  0  0  0  0  0  0  0
  -38.9598  -47.4503  -12.4662 N   0  0  0  0  0  0  0  0  0  0  0  0
  -40.6662  -48.8898  -12.4304 C   0  0  0  0  0  0  0  0  0  0  0  0
  -39.4489  -48.6871  -12.9672 N   0  0  0  0  0  0  0  0  0  0  0  0
  -39.9090  -46.9507  -11.6495 C   0  0  0  0  0  0  0  0  0  0  0  0
  -41.0166  -47.8526  -11.5892 C   0  0  0  0  0  0  0  0  0  0  0  0
  -42.0646  -47.3394  -10.6521 C   0  0  0  0  0  0  0  0  0  0  0  0
  -40.1018  -45.7685  -10.7637 C   0  0  0  0  0  0  0  0  0  0  0  0
  -41.7598  -45.4602   -8.9999 C   0  0  0  0  0  0  0  0  0  0  0  0
  -41.1319  -44.4966   -8.5647 O   0  0  0  0  0  0  0  0  0  0  0  0
  -38.0915  -47.0364  -12.6761 H   0  0  0  0  0  0  0  0  0  0  0  0
  -41.3602  -50.0390  -12.7412 N   0  0  0  0  0  0  0  0  0  0  0  0
  -41.9619  -50.8433  -11.8804 C   0  0  0  0  0  0  0  0  0  0  0  0
  -42.0071  -50.6545  -10.6792 O   0  0  0  0  0  0  0  0  0  0  0  0
  -41.4132  -50.2845  -13.6931 H   0  0  0  0  0  0  0  0  0  0  0  0
  -42.6387  -52.0415  -12.4251 C   0  0  0  0  0  0  0  0  0  0  0  0
  -41.9603  -52.7728  -13.3877 C   0  0  0  0  0  0  0  0  0  0  0  0
  -42.5159  -53.9100  -13.9358 C   0  0  0  0  0  0  0  0  0  0  0  0
  -44.4597  -53.5503  -12.5401 C   0  0  0  0  0  0  0  0  0  0  0  0
  -43.8986  -52.4161  -11.9823 C   0  0  0  0  0  0  0  0  0  0  0  0
  -43.7677  -54.2973  -13.5122 C   0  0  0  0  0  0  0  0  0  0  0  0
  -44.3362  -55.4570  -14.0665 N   0  0  0  0  0  0  0  0  0  0  0  0
  -43.7064  -56.5643  -14.1183 C   0  0  0  0  0  0  0  0  0  0  0  0
  -43.7344  -57.2393  -15.2770 C   0  0  0  0  0  0  0  0  0  0  0  0
  -44.7668  -57.0086  -16.2555 N   0  0  0  0  0  0  0  0  0  0  0  0
  -45.4586  -55.7001  -16.0910 C   0  0  0  0  0  0  0  0  0  0  0  0
  -45.6935  -55.3812  -14.6159 C   0  0  0  0  0  0  0  0  0  0  0  0
  -44.2218  -57.0648  -17.6259 C   0  0  0  0  0  0  0  0  0  0  0  0
  -43.0189  -45.8808   -8.3064 C   0  0  0  0  0  0  0  0  0  0  0  0
  -42.7155  -47.1166   -7.5207 C   0  0  0  0  0  0  0  0  0  0  0  0
  -43.5094  -48.2737   -7.7025 C   0  0  0  0  0  0  0  0  0  0  0  0
  -41.6407  -47.1383   -6.6069 C   0  0  0  0  0  0  0  0  0  0  0  0
  -43.2168  -49.4406   -6.9982 C   0  0  0  0  0  0  0  0  0  0  0  0
  -41.3463  -48.2981   -5.9082 C   0  0  0  0  0  0  0  0  0  0  0  0
  -42.1316  -49.4398   -6.0988 C   0  0  0  0  0  0  0  0  0  0  0  0
  -44.8187  -44.9483   -6.9972 C   0  0  0  0  0  0  0  0  0  0  0  0
  -43.4761  -44.7945   -7.4979 O   0  0  0  0  0  0  0  0  0  0  0  0
  1  7  1  0  0  0
  1  8  1  0  0  0
  1  9  1  0  0  0
  2  4  1  0  0  0
  2  5  1  0  0  0
  3  4  2  0  0  0
  3 12  1  0  0  0
  3  6  1  0  0  0
 12 13  1  0  0  0
 13 16  1  0  0  0
 13 14  2  0  0  0
 16 17  1  0  0  0
 16 20  2  0  0  0
 17 18  2  0  0  0
 18 21  1  0  0  0
 19 20  1  0  0  0
 19 21  2  0  0  0
  5  6  2  0  0  0
  5  8  1  0  0  0
  6  7  1  0  0  0
 22 23  1  0  0  0
 22 27  1  0  0  0
 22 21  1  0  0  0
 23 24  1  0  0  0
 24 25  1  0  0  0
 25 26  1  0  0  0
 25 28  1  0  0  0
 26 27  1  0  0  0
  9 10  2  0  0  0
  9 29  1  0  0  0
 30 31  1  0  0  0
 30 32  2  0  0  0
 30 29  1  0  0  0
 31 33  2  0  0  0
 32 34  1  0  0  0
 33 35  1  0  0  0
 34 35  2  0  0  0
 29 37  1  0  0  0
 36 37  1  0  0  0
  2 11  1  0  0  0
 12 15  1  0  0  0
M  END
> <minimizedAffinity>
-10.08329

$$$$
2V7A_627_A_1504


 37 41  0  0  0  0  0  0  0  0999 V2000
  -44.5154  -57.5471  -10.2109 N   0  0  0  0  0  0  0  0  0  0  0  0
  -46.3371  -55.1949   -8.1455 N   0  0  0  0  0  0  0  0  0  0  0  0
  -44.9174  -53.9911   -9.3784 C   0  0  0  0  0  0  0  0  0  0  0  0
  -45.8339  -53.8900   -8.3984 N   0  0  0  0  0  0  0  0  0  0  0  0
  -45.7062  -56.0335   -8.9920 C   0  0  0  0  0  0  0  0  0  0  0  0
  -44.7759  -55.3005   -9.7926 C   0  0  0  0  0  0  0  0  0  0  0  0
  -44.0308  -56.2189  -10.7098 C   0  0  0  0  0  0  0  0  0  0  0  0
  -45.6672  -57.4936   -9.2850 C   0  0  0  0  0  0  0  0  0  0  0  0
  -43.9866  -58.7339  -10.5470 C   0  0  0  0  0  0  0  0  0  0  0  0
  -44.4260  -59.7951  -10.1076 O   0  0  0  0  0  0  0  0  0  0  0  0
  -47.0178  -55.4403   -7.4780 H   0  0  0  0  0  0  0  0  0  0  0  0
  -44.2560  -52.8602   -9.8059 N   0  0  0  0  0  0  0  0  0  0  0  0
  -44.3413  -52.3146  -11.0080 C   0  0  0  0  0  0  0  0  0  0  0  0
  -45.0521  -52.7316  -11.9033 O   0  0  0  0  0  0  0  0  0  0  0  0
  -43.6645  -52.4168   -9.1557 H   0  0  0  0  0  0  0  0  0  0  0  0
  -43.5284  -51.1053  -11.2673 C   0  0  0  0  0  0  0  0  0  0  0  0
  -44.1367  -49.8755  -11.0691 C   0  0  0  0  0  0  0  0  0  0  0  0
  -43.4439  -48.7008  -11.2755 C   0  0  0  0  0  0  0  0  0  0  0  0
  -41.5191  -50.0264  -11.9031 C   0  0  0  0  0  0  0  0  0  0  0  0
  -42.2099  -51.2045  -11.6859 C   0  0  0  0  0  0  0  0  0  0  0  0
  -42.1343  -48.7775  -11.6946 C   0  0  0  0  0  0  0  0  0  0  0  0
  -41.4242  -47.5827  -11.9037 N   0  0  0  0  0  0  0  0  0  0  0  0
  -40.1562  -47.5600  -12.0341 C   0  0  0  0  0  0  0  0  0  0  0  0
  -39.4783  -46.6351  -11.3385 C   0  0  0  0  0  0  0  0  0  0  0  0
  -40.1231  -45.4443  -10.8458 N   0  0  0  0  0  0  0  0  0  0  0  0
  -41.6048  -45.5654  -10.7569 C   0  0  0  0  0  0  0  0  0  0  0  0
  -42.1702  -46.3216  -11.9575 C   0  0  0  0  0  0  0  0  0  0  0  0
  -39.6164  -45.0804   -9.5083 C   0  0  0  0  0  0  0  0  0  0  0  0
  -42.8131  -58.7623  -11.4770 C   0  0  0  0  0  0  0  0  0  0  0  0
  -41.9377  -59.9051  -11.0715 C   0  0  0  0  0  0  0  0  0  0  0  0
  -41.3705  -59.9262   -9.7753 C   0  0  0  0  0  0  0  0  0  0  0  0
  -41.6802  -60.9633  -11.9685 C   0  0  0  0  0  0  0  0  0  0  0  0
  -40.5781  -61.0013   -9.3760 C   0  0  0  0  0  0  0  0  0  0  0  0
  -40.8954  -62.0342  -11.5725 C   0  0  0  0  0  0  0  0  0  0  0  0
  -40.3442  -62.0510  -10.2870 C   0  0  0  0  0  0  0  0  0  0  0  0
  -42.8183  -57.8442  -13.7087 C   0  0  0  0  0  0  0  0  0  0  0  0
  -43.2987  -58.8695  -12.8170 O   0  0  0  0  0  0  0  0  0  0  0  0
  1  7  1  0  0  0
  1  8  1  0  0  0
  1  9  1  0  0  0
  2  4  1  0  0  0
  2  5  1  0  0  0
  3  4  2  0  0  0
  3 12  1  0  0  0
  3  6  1  0  0  0
 12 13  1  0  0  0
 13 16  1  0  0  0
 13 14  2  0  0  0
 16 17  1  0  0  0
 16 20  2  0  0  0
 17 18  2  0  0  0
 18 21  1  0  0  0
 19 20  1  0  0  0
 19 21  2  0  0  0
  5  6  2  0  0  0
  5  8  1  0  0  0
  6  7  1  0  0  0
 22 23  1  0  0  0
 22 27  1  0  0  0
 22 21  1  0  0  0
 23 24  1  0  0  0
 24 25  1  0  0  0
 25 26  1  0  0  0
 25 28  1  0  0  0
 26 27  1  0  0  0
  9 10  2  0  0  0
  9 29  1  0  0  0
 30 31  1  0  0  0
 30 32  2  0  0  0
 30 29  1  0  0  0
 31 33  2  0  0  0
 32 34  1  0  0  0
 33 35  1  0  0  0
 34 35  2  0  0  0
 29 37  1  0  0  0
 36 37  1  0  0  0
  2 11  1  0  0  0
 12 15  1  0  0  0
M  END
> <minimizedAffinity>
-8.51506

$$$$
2V7A_627_A_1504


 37 41  0  0  0  0  0  0  0  0999 V2000
  -42.4273  -47.0950  -10.5495 N   0  0  0  0  0  0  0  0  0  0  0  0
  -40.9505  -49.0925  -13.1850 N   0  0  0  0  0  0  0  0  0  0  0  0
  -42.5156  -50.3634  -12.2256 C   0  0  0  0  0  0  0  0  0  0  0  0
  -41.5524  -50.3798  -13.1652 N   0  0  0  0  0  0  0  0  0  0  0  0
  -41.5826  -48.3456  -12.2574 C   0  0  0  0  0  0  0  0  0  0  0  0
  -42.5867  -49.1301  -11.6093 C   0  0  0  0  0  0  0  0  0  0  0  0
  -43.2718  -48.3339  -10.5432 C   0  0  0  0  0  0  0  0  0  0  0  0
  -41.4934  -46.9714  -11.6892 C   0  0  0  0  0  0  0  0  0  0  0  0
  -42.4725  -46.1292   -9.6187 C   0  0  0  0  0  0  0  0  0  0  0  0
  -41.7560  -45.1314   -9.6744 O   0  0  0  0  0  0  0  0  0  0  0  0
  -40.2114  -48.8011  -13.7664 H   0  0  0  0  0  0  0  0  0  0  0  0
  -43.2488  -51.5057  -11.9879 N   0  0  0  0  0  0  0  0  0  0  0  0
  -43.4983  -52.0397  -10.8036 C   0  0  0  0  0  0  0  0  0  0  0  0
  -43.1299  -51.5665   -9.7448 O   0  0  0  0  0  0  0  0  0  0  0  0
  -43.6220  -51.9677  -12.7730 H   0  0  0  0  0  0  0  0  0  0  0  0
  -44.2951  -53.2865  -10.7718 C   0  0  0  0  0  0  0  0  0  0  0  0
  -44.6147  -53.8056   -9.5268 C   0  0  0  0  0  0  0  0  0  0  0  0
  -45.3657  -54.9566   -9.4105 C   0  0  0  0  0  0  0  0  0  0  0  0
  -45.4514  -55.0631  -11.8265 C   0  0  0  0  0  0  0  0  0  0  0  0
  -44.7077  -53.9031  -11.9437 C   0  0  0  0  0  0  0  0  0  0  0  0
  -45.7824  -55.5862  -10.5622 C   0  0  0  0  0  0  0  0  0  0  0  0
  -46.5499  -56.7581  -10.4478 N   0  0  0  0  0  0  0  0  0  0  0  0
  -47.8126  -56.7288  -10.2737 C   0  0  0  0  0  0  0  0  0  0  0  0
  -48.3264  -57.5298   -9.3285 C   0  0  0  0  0  0  0  0  0  0  0  0
  -47.6109  -58.6877   -8.8554 N   0  0  0  0  0  0  0  0  0  0  0  0
  -46.1484  -58.6354   -9.1319 C   0  0  0  0  0  0  0  0  0  0  0  0
  -45.8685  -58.0545  -10.5165 C   0  0  0  0  0  0  0  0  0  0  0  0
  -47.7919  -58.8667   -7.4017 C   0  0  0  0  0  0  0  0  0  0  0  0
  -43.4180  -46.2821   -8.4673 C   0  0  0  0  0  0  0  0  0  0  0  0
  -42.7990  -47.2321   -7.4922 C   0  0  0  0  0  0  0  0  0  0  0  0
  -43.4011  -48.4923   -7.2647 C   0  0  0  0  0  0  0  0  0  0  0  0
  -41.6172  -46.8836   -6.8047 C   0  0  0  0  0  0  0  0  0  0  0  0
  -42.8159  -49.3978   -6.3811 C   0  0  0  0  0  0  0  0  0  0  0  0
  -41.0323  -47.7835   -5.9284 C   0  0  0  0  0  0  0  0  0  0  0  0
  -41.6299  -49.0299   -5.7143 C   0  0  0  0  0  0  0  0  0  0  0  0
  -44.7579  -44.9486   -6.9674 C   0  0  0  0  0  0  0  0  0  0  0  0
  -43.6719  -44.9890   -7.9139 O   0  0  0  0  0  0  0  0  0  0  0  0
  1  7  1  0  0  0
  1  8  1  0  0  0
  1  9  1  0  0  0
  2  4  1  0  0  0
  2  5  1  0  0  0
  3  4  2  0  0  0
  3 12  1  0  0  0
  3  6  1  0  0  0
 12 13  1  0  0  0
 13 16  1  0  0  0
 13 14  2  0  0  0
 16 17  1  0  0  0
 16 20  2  0  0  0
 17 18  2  0  0  0
 18 21  1  0  0  0
 19 20  1  0  0  0
 19 21  2  0  0  0
  5  6  2  0  0  0
  5  8  1  0  0  0
  6  7  1  0  0  0
 22 23  1  0  0  0
 22 27  1  0  0  0
 22 21  1  0  0  0
 23 24  1  0  0  0
 24 25  1  0  0  0
 25 26  1  0  0  0
 25 28  1  0  0  0
 26 27  1  0  0  0
  9 10  2  0  0  0
  9 29  1  0  0  0
 30 31  1  0  0  0
 30 32  2  0  0  0
 30 29  1  0  0  0
 31 33  2  0  0  0
 32 34  1  0  0  0
 33 35  1  0  0  0
 34 35  2  0  0  0
 29 37  1  0  0  0
 36 37  1  0  0  0
  2 11  1  0  0  0
 12 15  1  0  0  0
M  END
> <minimizedAffinity>
-8.22560

$$$$
2V7A_627_A_1504


 37 41  0  0  0  0  0  0  0  0999 V2000
  -44.2912  -59.9592  -10.5485 N   0  0  0  0  0  0  0  0  0  0  0  0
  -47.4416  -58.4381   -9.6113 N   0  0  0  0  0  0  0  0  0  0  0  0
  -46.0416  -56.7630  -10.0795 C   0  0  0  0  0  0  0  0  0  0  0  0
  -47.2842  -57.0258   -9.6348 N   0  0  0  0  0  0  0  0  0  0  0  0
  -46.2849  -58.9728  -10.0518 C   0  0  0  0  0  0  0  0  0  0  0  0
  -45.3545  -57.9293  -10.3507 C   0  0  0  0  0  0  0  0  0  0  0  0
  -44.0463  -58.5014  -10.7993 C   0  0  0  0  0  0  0  0  0  0  0  0
  -45.6945  -60.3247  -10.2592 C   0  0  0  0  0  0  0  0  0  0  0  0
  -43.3473  -60.9128  -10.5749 C   0  0  0  0  0  0  0  0  0  0  0  0
  -43.6052  -62.0963  -10.3623 O   0  0  0  0  0  0  0  0  0  0  0  0
  -48.2439  -58.9327   -9.3271 H   0  0  0  0  0  0  0  0  0  0  0  0
  -45.6216  -55.4544  -10.1808 N   0  0  0  0  0  0  0  0  0  0  0  0
  -44.7724  -54.8433   -9.3713 C   0  0  0  0  0  0  0  0  0  0  0  0
  -44.2169  -55.3757   -8.4286 O   0  0  0  0  0  0  0  0  0  0  0  0
  -45.9879  -54.9247  -10.9254 H   0  0  0  0  0  0  0  0  0  0  0  0
  -44.4690  -53.4215   -9.6486 C   0  0  0  0  0  0  0  0  0  0  0  0
  -44.4496  -53.0225  -10.9761 C   0  0  0  0  0  0  0  0  0  0  0  0
  -44.1885  -51.7121  -11.3184 C   0  0  0  0  0  0  0  0  0  0  0  0
  -43.9481  -51.2163   -8.9621 C   0  0  0  0  0  0  0  0  0  0  0  0
  -44.2205  -52.5276   -8.6177 C   0  0  0  0  0  0  0  0  0  0  0  0
  -43.9358  -50.8093  -10.3096 C   0  0  0  0  0  0  0  0  0  0  0  0
  -43.6717  -49.4725  -10.6543 N   0  0  0  0  0  0  0  0  0  0  0  0
  -43.6274  -49.0795  -11.8663 C   0  0  0  0  0  0  0  0  0  0  0  0
  -42.5991  -48.2975  -12.2268 C   0  0  0  0  0  0  0  0  0  0  0  0
  -41.8463  -47.5501  -11.2515 N   0  0  0  0  0  0  0  0  0  0  0  0
  -41.9873  -48.0739   -9.8645 C   0  0  0  0  0  0  0  0  0  0  0  0
  -43.4247  -48.5051   -9.5805 C   0  0  0  0  0  0  0  0  0  0  0  0
  -40.4092  -47.5352  -11.5872 C   0  0  0  0  0  0  0  0  0  0  0  0
  -41.9310  -60.5170  -10.8585 C   0  0  0  0  0  0  0  0  0  0  0  0
  -41.0381  -61.4258  -10.0753 C   0  0  0  0  0  0  0  0  0  0  0  0
  -41.0060  -61.3292   -8.6639 C   0  0  0  0  0  0  0  0  0  0  0  0
  -40.2350  -62.3816  -10.7326 C   0  0  0  0  0  0  0  0  0  0  0  0
  -40.2007  -62.1917   -7.9218 C   0  0  0  0  0  0  0  0  0  0  0  0
  -39.4362  -63.2420   -9.9967 C   0  0  0  0  0  0  0  0  0  0  0  0
  -39.4154  -63.1447   -8.6015 C   0  0  0  0  0  0  0  0  0  0  0  0
  -41.1546  -59.3928  -12.8476 C   0  0  0  0  0  0  0  0  0  0  0  0
  -41.7138  -60.5886  -12.2694 O   0  0  0  0  0  0  0  0  0  0  0  0
  1  7  1  0  0  0
  1  8  1  0  0  0
  1  9  1  0  0  0
  2  4  1  0  0  0
  2  5  1  0  0  0
  3  4  2  0  0  0
  3 12  1  0  0  0
  3  6  1  0  0  0
 12 13  1  0  0  0
 13 16  1  0  0  0
 13 14  2  0  0  0
 16 17  1  0  0  0
 16 20  2  0  0  0
 17 18  2  0  0  0
 18 21  1  0  0  0
 19 20  1  0  0  0
 19 21  2  0  0  0
  5  6  2  0  0  0
  5  8  1  0  0  0
  6  7  1  0  0  0
 22 23  1  0  0  0
 22 27  1  0  0  0
 22 21  1  0  0  0
 23 24  1  0  0  0
 24 25  1  0  0  0
 25 26  1  0  0  0
 25 28  1  0  0  0
 26 27  1  0  0  0
  9 10  2  0  0  0
  9 29  1  0  0  0
 30 31  1  0  0  0
 30 32  2  0  0  0
 30 29  1  0  0  0
 31 33  2  0  0  0
 32 34  1  0  0  0
 33 35  1  0  0  0
 34 35  2  0  0  0
 29 37  1  0  0  0
 36 37  1  0  0  0
  2 11  1  0  0  0
 12 15  1  0  0  0
M  END
> <minimizedAffinity>
-8.03298

$$$$
2V7A_627_A_1504


 37 41  0  0  0  0  0  0  0  0999 V2000
  -42.5996  -48.6664  -11.2274 N   0  0  0  0  0  0  0  0  0  0  0  0
  -41.5269  -51.4870  -13.2300 N   0  0  0  0  0  0  0  0  0  0  0  0
  -43.2816  -52.1844  -12.0384 C   0  0  0  0  0  0  0  0  0  0  0  0
  -42.3465  -52.6034  -12.9108 N   0  0  0  0  0  0  0  0  0  0  0  0
  -42.0072  -50.4330  -12.5399 C   0  0  0  0  0  0  0  0  0  0  0  0
  -43.1271  -50.8428  -11.7516 C   0  0  0  0  0  0  0  0  0  0  0  0
  -43.6495  -49.6978  -10.9416 C   0  0  0  0  0  0  0  0  0  0  0  0
  -41.6706  -48.9972  -12.3292 C   0  0  0  0  0  0  0  0  0  0  0  0
  -42.4636  -47.5050  -10.5686 C   0  0  0  0  0  0  0  0  0  0  0  0
  -41.5827  -46.6932  -10.8465 O   0  0  0  0  0  0  0  0  0  0  0  0
  -40.7542  -51.4839  -13.8399 H   0  0  0  0  0  0  0  0  0  0  0  0
  -44.2025  -53.0851  -11.5489 N   0  0  0  0  0  0  0  0  0  0  0  0
  -44.4254  -53.3570  -10.2736 C   0  0  0  0  0  0  0  0  0  0  0  0
  -43.8550  -52.8151   -9.3454 O   0  0  0  0  0  0  0  0  0  0  0  0
  -44.7455  -53.5719  -12.2103 H   0  0  0  0  0  0  0  0  0  0  0  0
  -45.4520  -54.3768   -9.9631 C   0  0  0  0  0  0  0  0  0  0  0  0
  -45.7813  -55.2741  -10.9672 C   0  0  0  0  0  0  0  0  0  0  0  0
  -46.7185  -56.2634  -10.7541 C   0  0  0  0  0  0  0  0  0  0  0  0
  -47.0003  -55.4168   -8.5047 C   0  0  0  0  0  0  0  0  0  0  0  0
  -46.0529  -54.4315   -8.7142 C   0  0  0  0  0  0  0  0  0  0  0  0
  -47.3293  -56.3328   -9.5218 C   0  0  0  0  0  0  0  0  0  0  0  0
  -48.2831  -57.3410   -9.2999 N   0  0  0  0  0  0  0  0  0  0  0  0
  -48.4182  -57.9111   -8.1675 C   0  0  0  0  0  0  0  0  0  0  0  0
  -48.5118  -59.2490   -8.1547 C   0  0  0  0  0  0  0  0  0  0  0  0
  -48.9101  -59.9851   -9.3277 N   0  0  0  0  0  0  0  0  0  0  0  0
  -48.7380  -59.2210  -10.5945 C   0  0  0  0  0  0  0  0  0  0  0  0
  -49.1382  -57.7579  -10.4157 C   0  0  0  0  0  0  0  0  0  0  0  0
  -48.1483  -61.2433   -9.4494 C   0  0  0  0  0  0  0  0  0  0  0  0
  -43.4089  -47.1971   -9.4486 C   0  0  0  0  0  0  0  0  0  0  0  0
  -42.7062  -47.4983   -8.1632 C   0  0  0  0  0  0  0  0  0  0  0  0
  -41.8227  -46.5424   -7.6083 C   0  0  0  0  0  0  0  0  0  0  0  0
  -42.9237  -48.7235   -7.4982 C   0  0  0  0  0  0  0  0  0  0  0  0
  -41.1859  -46.7996   -6.3952 C   0  0  0  0  0  0  0  0  0  0  0  0
  -42.2942  -48.9798   -6.2908 C   0  0  0  0  0  0  0  0  0  0  0  0
  -41.4277  -48.0268   -5.7454 C   0  0  0  0  0  0  0  0  0  0  0  0
  -44.9658  -45.4860   -8.7621 C   0  0  0  0  0  0  0  0  0  0  0  0
  -43.8189  -45.8327   -9.5630 O   0  0  0  0  0  0  0  0  0  0  0  0
  1  7  1  0  0  0
  1  8  1  0  0  0
  1  9  1  0  0  0
  2  4  1  0  0  0
  2  5  1  0  0  0
  3  4  2  0  0  0
  3 12  1  0  0  0
  3  6  1  0  0  0
 12 13  1  0  0  0
 13 16  1  0  0  0
 13 14  2  0  0  0
 16 17  1  0  0  0
 16 20  2  0  0  0
 17 18  2  0  0  0
 18 21  1  0  0  0
 19 20  1  0  0  0
 19 21  2  0  0  0
  5  6  2  0  0  0
  5  8  1  0  0  0
  6  7  1  0  0  0
 22 23  1  0  0  0
 22 27  1  0  0  0
 22 21  1  0  0  0
 23 24  1  0  0  0
 24 25  1  0  0  0
 25 26  1  0  0  0
 25 28  1  0  0  0
 26 27  1  0  0  0
  9 10  2  0  0  0
  9 29  1  0  0  0
 30 31  1  0  0  0
 30 32  2  0  0  0
 30 29  1  0  0  0
 31 33  2  0  0  0
 32 34  1  0  0  0
 33 35  1  0  0  0
 34 35  2  0  0  0
 29 37  1  0  0  0
 36 37  1  0  0  0
  2 11  1  0  0  0
 12 15  1  0  0  0
M  END
> <minimizedAffinity>
-7.99725

$$$$
2V7A_627_A_1504


 37 41  0  0  0  0  0  0  0  0999 V2000
  -44.9504  -49.8554   -6.1834 N   0  0  0  0  0  0  0  0  0  0  0  0
  -47.7869  -52.0208   -6.8016 N   0  0  0  0  0  0  0  0  0  0  0  0
  -46.2460  -52.5396   -8.3319 C   0  0  0  0  0  0  0  0  0  0  0  0
  -47.5036  -52.8189   -7.9429 N   0  0  0  0  0  0  0  0  0  0  0  0
  -46.6812  -51.2942   -6.5423 C   0  0  0  0  0  0  0  0  0  0  0  0
  -45.6724  -51.5890   -7.5113 C   0  0  0  0  0  0  0  0  0  0  0  0
  -44.4501  -50.7597   -7.2696 C   0  0  0  0  0  0  0  0  0  0  0  0
  -46.2415  -50.2471   -5.5782 C   0  0  0  0  0  0  0  0  0  0  0  0
  -44.3159  -48.7572   -5.7445 C   0  0  0  0  0  0  0  0  0  0  0  0
  -44.7727  -48.0509   -4.8474 O   0  0  0  0  0  0  0  0  0  0  0  0
  -48.6312  -52.0021   -6.2957 H   0  0  0  0  0  0  0  0  0  0  0  0
  -45.7241  -53.1712   -9.4398 N   0  0  0  0  0  0  0  0  0  0  0  0
  -44.8113  -54.1286   -9.4337 C   0  0  0  0  0  0  0  0  0  0  0  0
  -44.3238  -54.6072   -8.4268 O   0  0  0  0  0  0  0  0  0  0  0  0
  -46.0623  -52.8829  -10.3183 H   0  0  0  0  0  0  0  0  0  0  0  0
  -44.3721  -54.6605  -10.7432 C   0  0  0  0  0  0  0  0  0  0  0  0
  -44.4561  -53.8108  -11.8354 C   0  0  0  0  0  0  0  0  0  0  0  0
  -44.0542  -54.2252  -13.0881 C   0  0  0  0  0  0  0  0  0  0  0  0
  -43.4988  -56.3741  -12.1240 C   0  0  0  0  0  0  0  0  0  0  0  0
  -43.8914  -55.9557  -10.8657 C   0  0  0  0  0  0  0  0  0  0  0  0
  -43.5769  -55.5090  -13.2317 C   0  0  0  0  0  0  0  0  0  0  0  0
  -43.1641  -55.9341  -14.5061 N   0  0  0  0  0  0  0  0  0  0  0  0
  -42.8547  -55.1114  -15.4296 C   0  0  0  0  0  0  0  0  0  0  0  0
  -43.3624  -55.3316  -16.6514 C   0  0  0  0  0  0  0  0  0  0  0  0
  -43.8329  -56.6355  -17.0450 N   0  0  0  0  0  0  0  0  0  0  0  0
  -44.1403  -57.5281  -15.8931 C   0  0  0  0  0  0  0  0  0  0  0  0
  -43.1038  -57.3729  -14.7821 C   0  0  0  0  0  0  0  0  0  0  0  0
  -45.0477  -56.5331  -17.8767 C   0  0  0  0  0  0  0  0  0  0  0  0
  -43.0154  -48.3740   -6.3807 C   0  0  0  0  0  0  0  0  0  0  0  0
  -43.3250  -47.5537   -7.5924 C   0  0  0  0  0  0  0  0  0  0  0  0
  -44.1940  -46.4425   -7.4816 C   0  0  0  0  0  0  0  0  0  0  0  0
  -42.7517  -47.8758   -8.8407 C   0  0  0  0  0  0  0  0  0  0  0  0
  -44.4654  -45.6527   -8.5978 C   0  0  0  0  0  0  0  0  0  0  0  0
  -43.0177  -47.0902   -9.9506 C   0  0  0  0  0  0  0  0  0  0  0  0
  -43.8722  -45.9894   -9.8313 C   0  0  0  0  0  0  0  0  0  0  0  0
  -40.9389  -47.2434   -5.8977 C   0  0  0  0  0  0  0  0  0  0  0  0
  -42.2248  -47.6788   -5.4139 O   0  0  0  0  0  0  0  0  0  0  0  0
  1  7  1  0  0  0
  1  8  1  0  0  0
  1  9  1  0  0  0
  2  4  1  0  0  0
  2  5  1  0  0  0
  3  4  2  0  0  0
  3 12  1  0  0  0
  3  6  1  0  0  0
 12 13  1  0  0  0
 13 16  1  0  0  0
 13 14  2  0  0  0
 16 17  1  0  0  0
 16 20  2  0  0  0
 17 18  2  0  0  0
 18 21  1  0  0  0
 19 20  1  0  0  0
 19 21  2  0  0  0
  5  6  2  0  0  0
  5  8  1  0  0  0
  6  7  1  0  0  0
 22 23  1  0  0  0
 22 27  1  0  0  0
 22 21  1  0  0  0
 23 24  1  0  0  0
 24 25  1  0  0  0
 25 26  1  0  0  0
 25 28  1  0  0  0
 26 27  1  0  0  0
  9 10  2  0  0  0
  9 29  1  0  0  0
 30 31  1  0  0  0
 30 32  2  0  0  0
 30 29  1  0  0  0
 31 33  2  0  0  0
 32 34  1  0  0  0
 33 35  1  0  0  0
 34 35  2  0  0  0
 29 37  1  0  0  0
 36 37  1  0  0  0
  2 11  1  0  0  0
 12 15  1  0  0  0
M  END
> <minimizedAffinity>
-7.97330

$$$$
2V7A_627_A_1504


 37 41  0  0  0  0  0  0  0  0999 V2000
  -44.7505  -58.6374  -11.5674 N   0  0  0  0  0  0  0  0  0  0  0  0
  -47.7597  -56.9705  -10.4350 N   0  0  0  0  0  0  0  0  0  0  0  0
  -46.1597  -55.4149  -10.5050 C   0  0  0  0  0  0  0  0  0  0  0  0
  -47.4461  -55.6113  -10.1625 N   0  0  0  0  0  0  0  0  0  0  0  0
  -46.6470  -57.5400  -10.9402 C   0  0  0  0  0  0  0  0  0  0  0  0
  -45.5920  -56.5765  -10.9890 C   0  0  0  0  0  0  0  0  0  0  0  0
  -44.3326  -57.1989  -11.5052 C   0  0  0  0  0  0  0  0  0  0  0  0
  -46.1993  -58.8834  -11.4030 C   0  0  0  0  0  0  0  0  0  0  0  0
  -43.9178  -59.6721  -11.7603 C   0  0  0  0  0  0  0  0  0  0  0  0
  -44.3162  -60.8347  -11.8039 O   0  0  0  0  0  0  0  0  0  0  0  0
  -48.6262  -57.4127  -10.2835 H   0  0  0  0  0  0  0  0  0  0  0  0
  -45.5926  -54.1723  -10.3218 N   0  0  0  0  0  0  0  0  0  0  0  0
  -44.7295  -53.8410   -9.3756 C   0  0  0  0  0  0  0  0  0  0  0  0
  -44.2919  -54.6133   -8.5434 O   0  0  0  0  0  0  0  0  0  0  0  0
  -45.8544  -53.4649  -10.9544 H   0  0  0  0  0  0  0  0  0  0  0  0
  -44.2555  -52.4393   -9.3455 C   0  0  0  0  0  0  0  0  0  0  0  0
  -44.3398  -51.7652   -8.1371 C   0  0  0  0  0  0  0  0  0  0  0  0
  -43.9067  -50.4608   -8.0216 C   0  0  0  0  0  0  0  0  0  0  0  0
  -43.3189  -50.5203  -10.3683 C   0  0  0  0  0  0  0  0  0  0  0  0
  -43.7430  -51.8317  -10.4821 C   0  0  0  0  0  0  0  0  0  0  0  0
  -43.3975  -49.8381   -9.1395 C   0  0  0  0  0  0  0  0  0  0  0  0
  -42.9528  -48.5097   -9.0253 N   0  0  0  0  0  0  0  0  0  0  0  0
  -42.2840  -48.1013   -8.0196 C   0  0  0  0  0  0  0  0  0  0  0  0
  -42.6546  -46.9406   -7.4590 C   0  0  0  0  0  0  0  0  0  0  0  0
  -43.4310  -45.9693   -8.1872 N   0  0  0  0  0  0  0  0  0  0  0  0
  -44.1514  -46.5425   -9.3579 C   0  0  0  0  0  0  0  0  0  0  0  0
  -43.2852  -47.5625  -10.0941 C   0  0  0  0  0  0  0  0  0  0  0  0
  -44.4286  -45.3228   -7.3125 C   0  0  0  0  0  0  0  0  0  0  0  0
  -42.4531  -59.3994  -11.9126 C   0  0  0  0  0  0  0  0  0  0  0  0
  -41.7235  -60.2725  -10.9419 C   0  0  0  0  0  0  0  0  0  0  0  0
  -41.0346  -61.4161  -11.4105 C   0  0  0  0  0  0  0  0  0  0  0  0
  -41.7118  -59.9597   -9.5661 C   0  0  0  0  0  0  0  0  0  0  0  0
  -40.3257  -62.2199  -10.5190 C   0  0  0  0  0  0  0  0  0  0  0  0
  -41.0053  -60.7555   -8.6788 C   0  0  0  0  0  0  0  0  0  0  0  0
  -40.3210  -61.8804   -9.1510 C   0  0  0  0  0  0  0  0  0  0  0  0
  -42.3090  -58.5184  -14.1545 C   0  0  0  0  0  0  0  0  0  0  0  0
  -42.0864  -59.6370  -13.2734 O   0  0  0  0  0  0  0  0  0  0  0  0
  1  7  1  0  0  0
  1  8  1  0  0  0
  1  9  1  0  0  0
  2  4  1  0  0  0
  2  5  1  0  0  0
  3  4  2  0  0  0
  3 12  1  0  0  0
  3  6  1  0  0  0
 12 13  1  0  0  0
 13 16  1  0  0  0
 13 14  2  0  0  0
 16 17  1  0  0  0
 16 20  2  0  0  0
 17 18  2  0  0  0
 18 21  1  0  0  0
 19 20  1  0  0  0
 19 21  2  0  0  0
  5  6  2  0  0  0
  5  8  1  0  0  0
  6  7  1  0  0  0
 22 23  1  0  0  0
 22 27  1  0  0  0
 22 21  1  0  0  0
 23 24  1  0  0  0
 24 25  1  0  0  0
 25 26  1  0  0  0
 25 28  1  0  0  0
 26 27  1  0  0  0
  9 10  2  0  0  0
  9 29  1  0  0  0
 30 31  1  0  0  0
 30 32  2  0  0  0
 30 29  1  0  0  0
 31 33  2  0  0  0
 32 34  1  0  0  0
 33 35  1  0  0  0
 34 35  2  0  0  0
 29 37  1  0  0  0
 36 37  1  0  0  0
  2 11  1  0  0  0
 12 15  1  0  0  0
M  END
> <minimizedAffinity>
-7.93121

$$$$
2V7A_627_A_1504


 37 41  0  0  0  0  0  0  0  0999 V2000
  -45.1983  -51.7052   -9.4567 N   0  0  0  0  0  0  0  0  0  0  0  0
  -47.8829  -53.9928  -10.2795 N   0  0  0  0  0  0  0  0  0  0  0  0
  -46.0556  -55.2398   -9.9776 C   0  0  0  0  0  0  0  0  0  0  0  0
  -47.3512  -55.3096  -10.3347 N   0  0  0  0  0  0  0  0  0  0  0  0
  -46.8841  -53.1788   -9.8825 C   0  0  0  0  0  0  0  0  0  0  0  0
  -45.6893  -53.9400   -9.6907 C   0  0  0  0  0  0  0  0  0  0  0  0
  -44.5544  -53.0492   -9.2926 C   0  0  0  0  0  0  0  0  0  0  0  0
  -46.6649  -51.7247   -9.6443 C   0  0  0  0  0  0  0  0  0  0  0  0
  -44.5453  -50.5328   -9.4395 C   0  0  0  0  0  0  0  0  0  0  0  0
  -45.1256  -49.4575   -9.5781 O   0  0  0  0  0  0  0  0  0  0  0  0
  -48.8064  -53.7254  -10.4913 H   0  0  0  0  0  0  0  0  0  0  0  0
  -45.2939  -56.3881   -9.9657 N   0  0  0  0  0  0  0  0  0  0  0  0
  -44.3951  -56.7181   -9.0529 C   0  0  0  0  0  0  0  0  0  0  0  0
  -44.1384  -56.0508   -8.0682 O   0  0  0  0  0  0  0  0  0  0  0  0
  -45.4316  -57.0225  -10.7059 H   0  0  0  0  0  0  0  0  0  0  0  0
  -43.6705  -57.9950   -9.2397 C   0  0  0  0  0  0  0  0  0  0  0  0
  -42.7769  -58.3701   -8.2485 C   0  0  0  0  0  0  0  0  0  0  0  0
  -42.0719  -59.5521   -8.3403 C   0  0  0  0  0  0  0  0  0  0  0  0
  -43.1700  -59.9629  -10.4572 C   0  0  0  0  0  0  0  0  0  0  0  0
  -43.8851  -58.7833  -10.3605 C   0  0  0  0  0  0  0  0  0  0  0  0
  -42.2681  -60.3477   -9.4471 C   0  0  0  0  0  0  0  0  0  0  0  0
  -41.5534  -61.5541   -9.5431 N   0  0  0  0  0  0  0  0  0  0  0  0
  -40.2826  -61.6000   -9.4516 C   0  0  0  0  0  0  0  0  0  0  0  0
  -39.6219  -62.3307  -10.3618 C   0  0  0  0  0  0  0  0  0  0  0  0
  -40.2787  -63.3748  -11.1067 N   0  0  0  0  0  0  0  0  0  0  0  0
  -41.7621  -63.2442  -11.1297 C   0  0  0  0  0  0  0  0  0  0  0  0
  -42.2982  -62.7963   -9.7715 C   0  0  0  0  0  0  0  0  0  0  0  0
  -39.8044  -63.4096  -12.5038 C   0  0  0  0  0  0  0  0  0  0  0  0
  -43.0585  -50.5389   -9.2598 C   0  0  0  0  0  0  0  0  0  0  0  0
  -42.4384  -50.2099  -10.5804 C   0  0  0  0  0  0  0  0  0  0  0  0
  -42.3392  -51.2110  -11.5755 C   0  0  0  0  0  0  0  0  0  0  0  0
  -41.9596  -48.9088  -10.8423 C   0  0  0  0  0  0  0  0  0  0  0  0
  -41.7911  -50.9076  -12.8208 C   0  0  0  0  0  0  0  0  0  0  0  0
  -41.4173  -48.6044  -12.0805 C   0  0  0  0  0  0  0  0  0  0  0  0
  -41.3292  -49.5978  -13.0612 C   0  0  0  0  0  0  0  0  0  0  0  0
  -43.1517  -49.9976   -6.9100 C   0  0  0  0  0  0  0  0  0  0  0  0
  -42.7223  -49.6074   -8.2292 O   0  0  0  0  0  0  0  0  0  0  0  0
  1  7  1  0  0  0
  1  8  1  0  0  0
  1  9  1  0  0  0
  2  4  1  0  0  0
  2  5  1  0  0  0
  3  4  2  0  0  0
  3 12  1  0  0  0
  3  6  1  0  0  0
 12 13  1  0  0  0
 13 16  1  0  0  0
 13 14  2  0  0  0
 16 17  1  0  0  0
 16 20  2  0  0  0
 17 18  2  0  0  0
 18 21  1  0  0  0
 19 20  1  0  0  0
 19 21  2  0  0  0
  5  6  2  0  0  0
  5  8  1  0  0  0
  6  7  1  0  0  0
 22 23  1  0  0  0
 22 27  1  0  0  0
 22 21  1  0  0  0
 23 24  1  0  0  0
 24 25  1  0  0  0
 25 26  1  0  0  0
 25 28  1  0  0  0
 26 27  1  0  0  0
  9 10  2  0  0  0
  9 29  1  0  0  0
 30 31  1  0  0  0
 30 32  2  0  0  0
 30 29  1  0  0  0
 31 33  2  0  0  0
 32 34  1  0  0  0
 33 35  1  0  0  0
 34 35  2  0  0  0
 29 37  1  0  0  0
 36 37  1  0  0  0
  2 11  1  0  0  0
 12 15  1  0  0  0
M  END
> <minimizedAffinity>
-7.52939

$$$$
2V7A_627_A_1504


 37 41  0  0  0  0  0  0  0  0999 V2000
  -43.9700  -60.2509  -12.5199 N   0  0  0  0  0  0  0  0  0  0  0  0
  -47.3087  -58.8541  -12.3825 N   0  0  0  0  0  0  0  0  0  0  0  0
  -45.8936  -57.1320  -12.2520 C   0  0  0  0  0  0  0  0  0  0  0  0
  -47.2014  -57.4469  -12.2147 N   0  0  0  0  0  0  0  0  0  0  0  0
  -46.0561  -59.3329  -12.5222 C   0  0  0  0  0  0  0  0  0  0  0  0
  -45.1167  -58.2592  -12.4310 C   0  0  0  0  0  0  0  0  0  0  0  0
  -43.7153  -58.7735  -12.5386 C   0  0  0  0  0  0  0  0  0  0  0  0
  -45.3834  -60.6518  -12.6875 C   0  0  0  0  0  0  0  0  0  0  0  0
  -43.0250  -61.1920  -12.3699 C   0  0  0  0  0  0  0  0  0  0  0  0
  -43.2909  -62.3926  -12.3634 O   0  0  0  0  0  0  0  0  0  0  0  0
  -48.1408  -59.3801  -12.3944 H   0  0  0  0  0  0  0  0  0  0  0  0
  -45.5088  -55.8184  -12.0930 N   0  0  0  0  0  0  0  0  0  0  0  0
  -44.7152  -55.1351  -12.9011 C   0  0  0  0  0  0  0  0  0  0  0  0
  -44.2341  -55.5773  -13.9277 O   0  0  0  0  0  0  0  0  0  0  0  0
  -45.8573  -55.3439  -11.3039 H   0  0  0  0  0  0  0  0  0  0  0  0
  -44.4116  -53.7337  -12.5345 C   0  0  0  0  0  0  0  0  0  0  0  0
  -43.2372  -53.1872  -13.0282 C   0  0  0  0  0  0  0  0  0  0  0  0
  -42.8881  -51.8834  -12.7441 C   0  0  0  0  0  0  0  0  0  0  0  0
  -44.9180  -51.6961  -11.4402 C   0  0  0  0  0  0  0  0  0  0  0  0
  -45.2739  -52.9998  -11.7336 C   0  0  0  0  0  0  0  0  0  0  0  0
  -43.7291  -51.1386  -11.9477 C   0  0  0  0  0  0  0  0  0  0  0  0
  -43.3781  -49.8089  -11.6580 N   0  0  0  0  0  0  0  0  0  0  0  0
  -42.1680  -49.4074  -11.6711 C   0  0  0  0  0  0  0  0  0  0  0  0
  -41.7526  -48.6582  -10.6391 C   0  0  0  0  0  0  0  0  0  0  0  0
  -42.6866  -47.9453   -9.8049 N   0  0  0  0  0  0  0  0  0  0  0  0
  -44.0761  -48.4756   -9.8825 C   0  0  0  0  0  0  0  0  0  0  0  0
  -44.4416  -48.8596  -11.3150 C   0  0  0  0  0  0  0  0  0  0  0  0
  -42.2670  -47.9770   -8.3904 C   0  0  0  0  0  0  0  0  0  0  0  0
  -41.6018  -60.7616  -12.1901 C   0  0  0  0  0  0  0  0  0  0  0  0
  -41.1778  -61.1539  -10.8106 C   0  0  0  0  0  0  0  0  0  0  0  0
  -41.5426  -60.3435   -9.7095 C   0  0  0  0  0  0  0  0  0  0  0  0
  -40.4243  -62.3281  -10.5999 C   0  0  0  0  0  0  0  0  0  0  0  0
  -41.1791  -60.7157   -8.4162 C   0  0  0  0  0  0  0  0  0  0  0  0
  -40.0648  -62.7014   -9.3149 C   0  0  0  0  0  0  0  0  0  0  0  0
  -40.4353  -61.8985   -8.2311 C   0  0  0  0  0  0  0  0  0  0  0  0
  -40.2714  -60.4345  -14.1766 C   0  0  0  0  0  0  0  0  0  0  0  0
  -40.8122  -61.3645  -13.2176 O   0  0  0  0  0  0  0  0  0  0  0  0
  1  7  1  0  0  0
  1  8  1  0  0  0
  1  9  1  0  0  0
  2  4  1  0  0  0
  2  5  1  0  0  0
  3  4  2  0  0  0
  3 12  1  0  0  0
  3  6  1  0  0  0
 12 13  1  0  0  0
 13 16  1  0  0  0
 13 14  2  0  0  0
 16 17  1  0  0  0
 16 20  2  0  0  0
 17 18  2  0  0  0
 18 21  1  0  0  0
 19 20  1  0  0  0
 19 21  2  0  0  0
  5  6  2  0  0  0
  5  8  1  0  0  0
  6  7  1  0  0  0
 22 23  1  0  0  0
 22 27  1  0  0  0
 22 21  1  0  0  0
 23 24  1  0  0  0
 24 25  1  0  0  0
 25 26  1  0  0  0
 25 28  1  0  0  0
 26 27  1  0  0  0
  9 10  2  0  0  0
  9 29  1  0  0  0
 30 31  1  0  0  0
 30 32  2  0  0  0
 30 29  1  0  0  0
 31 33  2  0  0  0
 32 34  1  0  0  0
 33 35  1  0  0  0
 34 35  2  0  0  0
 29 37  1  0  0  0
 36 37  1  0  0  0
  2 11  1  0  0  0
 12 15  1  0  0  0
M  END
> <minimizedAffinity>
-7.50515

$$$$
