3TA0_ATP_A_200


 39 41  0  0  0  0  0  0  0  0999 V2000
  -56.2722   -8.9674  -15.3730 C   0  0  0  0  0  0  0  0  0  0  0  0
  -54.8489   -9.1852  -15.4150 O   0  0  0  0  0  0  0  0  0  0  0  0
  -56.6667   -8.6126  -16.7937 C   0  0  0  0  0  0  0  0  0  0  0  0
  -57.8871   -7.9346  -16.8693 O   0  0  0  0  0  0  0  0  0  0  0  0
  -55.4811   -7.7988  -17.3245 C   0  0  0  0  0  0  0  0  0  0  0  0
  -55.5371   -6.4377  -16.8486 O   0  0  0  0  0  0  0  0  0  0  0  0
  -54.3479   -8.5698  -16.6616 C   0  0  0  0  0  0  0  0  0  0  0  0
  -57.8342   -7.1151  -16.3530 H   0  0  0  0  0  0  0  0  0  0  0  0
  -55.5980   -6.4359  -15.8805 H   0  0  0  0  0  0  0  0  0  0  0  0
  -53.7103   -9.5784  -17.4710 N   0  0  0  0  0  0  0  0  0  0  0  0
  -54.0752  -10.8882  -17.6006 C   0  0  0  0  0  0  0  0  0  0  0  0
  -53.2760  -11.5604  -18.3954 N   0  0  0  0  0  0  0  0  0  0  0  0
  -52.3395  -10.6596  -18.8062 C   0  0  0  0  0  0  0  0  0  0  0  0
  -51.2088  -10.7680  -19.6620 C   0  0  0  0  0  0  0  0  0  0  0  0
  -50.8630  -11.9529  -20.2598 N   0  0  0  0  0  0  0  0  0  0  0  0
  -50.4354   -9.6339  -19.8744 N   0  0  0  0  0  0  0  0  0  0  0  0
  -50.7992   -8.4523  -19.2733 C   0  0  0  0  0  0  0  0  0  0  0  0
  -51.8625   -8.2413  -18.4293 N   0  0  0  0  0  0  0  0  0  0  0  0
  -52.5915   -9.3846  -18.2401 C   0  0  0  0  0  0  0  0  0  0  0  0
  -51.4101  -12.7577  -20.1103 H   0  0  0  0  0  0  0  0  0  0  0  0
  -50.0678  -11.9987  -20.8384 H   0  0  0  0  0  0  0  0  0  0  0  0
  -56.9819  -10.2174  -14.8187 C   0  0  0  0  0  0  0  0  0  0  0  0
  -57.4477  -11.0018  -15.9026 O   0  0  0  0  0  0  0  0  0  0  0  0
  -57.3218  -12.6285  -15.9304 P   0  0  0  0  0  0  0  0  0  0  0  0
  -56.2556  -13.1714  -16.8695 O   0  0  0  0  0  0  0  0  0  0  0  0
  -58.6805  -13.2318  -16.3882 O   0  0  0  0  0  0  0  0  0  0  0  0
  -58.6146  -14.1994  -16.4075 H   0  0  0  0  0  0  0  0  0  0  0  0
  -57.1166  -13.1045  -14.4785 O   0  0  0  0  0  0  0  0  0  0  0  0
  -57.0154  -14.6040  -14.0049 P   0  0  0  0  0  0  0  0  0  0  0  0
  -55.5261  -14.9501  -14.1502 O   0  0  0  0  0  0  0  0  0  0  0  0
  -57.0009  -14.8301  -12.4986 O   0  0  0  0  0  0  0  0  0  0  0  0
  -56.9367  -15.7804  -12.3150 H   0  0  0  0  0  0  0  0  0  0  0  0
  -57.8188  -15.7289  -14.7555 O   0  0  0  0  0  0  0  0  0  0  0  0
  -57.4138  -16.7522  -15.8805 P   0  0  0  0  0  0  0  0  0  0  0  0
  -58.3568  -17.9275  -16.2279 O   0  0  0  0  0  0  0  0  0  0  0  0
  -56.1253  -17.3512  -15.2786 O   0  0  0  0  0  0  0  0  0  0  0  0
  -57.0687  -15.8976  -17.0543 O   0  0  0  0  0  0  0  0  0  0  0  0
  -55.7622  -18.0141  -15.8865 H   0  0  0  0  0  0  0  0  0  0  0  0
  -56.8053  -16.4613  -17.7984 H   0  0  0  0  0  0  0  0  0  0  0  0
 34 35  2  0  0  0
 34 36  1  0  0  0
 34 37  1  0  0  0
 34 33  1  0  0  0
 29 30  2  0  0  0
 29 31  1  0  0  0
 29 33  1  0  0  0
 29 28  1  0  0  0
 24 25  2  0  0  0
 24 26  1  0  0  0
 24 28  1  0  0  0
 24 23  1  0  0  0
 23 22  1  0  0  0
 22  1  1  0  0  0
  1  2  1  0  0  0
  1  3  1  0  0  0
  2  7  1  0  0  0
  3  4  1  0  0  0
  3  5  1  0  0  0
  5  6  1  0  0  0
  5  7  1  0  0  0
  7 10  1  0  0  0
 10 11  1  0  0  0
 10 19  1  0  0  0
 11 12  2  0  0  0
 12 13  1  0  0  0
 13 14  1  0  0  0
 13 19  2  0  0  0
 14 15  1  0  0  0
 14 16  2  0  0  0
 16 17  1  0  0  0
 17 18  2  0  0  0
 18 19  1  0  0  0
 36 38  1  0  0  0
 37 39  1  0  0  0
 31 32  1  0  0  0
 26 27  1  0  0  0
  4  8  1  0  0  0
  6  9  1  0  0  0
 15 20  1  0  0  0
 15 21  1  0  0  0
M  END
> <minimizedAffinity>
-11.00579

$$$$
3TA0_ATP_A_200


 39 41  0  0  0  0  0  0  0  0999 V2000
  -56.2609   -9.0562  -15.3384 C   0  0  0  0  0  0  0  0  0  0  0  0
  -54.8376   -9.2684  -15.4031 O   0  0  0  0  0  0  0  0  0  0  0  0
  -56.6767   -8.6858  -16.7490 C   0  0  0  0  0  0  0  0  0  0  0  0
  -57.9002   -8.0113  -16.7992 O   0  0  0  0  0  0  0  0  0  0  0  0
  -55.5014   -7.8615  -17.2866 C   0  0  0  0  0  0  0  0  0  0  0  0
  -55.5553   -6.5064  -16.7937 O   0  0  0  0  0  0  0  0  0  0  0  0
  -54.3564   -8.6364  -16.6492 C   0  0  0  0  0  0  0  0  0  0  0  0
  -57.8428   -7.1979  -16.2739 H   0  0  0  0  0  0  0  0  0  0  0  0
  -55.6025   -6.5164  -15.8249 H   0  0  0  0  0  0  0  0  0  0  0  0
  -53.7269   -9.6329  -17.4795 N   0  0  0  0  0  0  0  0  0  0  0  0
  -54.0906  -10.9417  -17.6217 C   0  0  0  0  0  0  0  0  0  0  0  0
  -53.3001  -11.6017  -18.4351 N   0  0  0  0  0  0  0  0  0  0  0  0
  -52.3706  -10.6935  -18.8457 C   0  0  0  0  0  0  0  0  0  0  0  0
  -51.2504  -10.7883  -19.7168 C   0  0  0  0  0  0  0  0  0  0  0  0
  -50.9098  -11.9645  -20.3343 N   0  0  0  0  0  0  0  0  0  0  0  0
  -50.4820   -9.6498  -19.9240 N   0  0  0  0  0  0  0  0  0  0  0  0
  -50.8407   -8.4770  -19.3031 C   0  0  0  0  0  0  0  0  0  0  0  0
  -51.8939   -8.2794  -18.4432 N   0  0  0  0  0  0  0  0  0  0  0  0
  -52.6181   -9.4267  -18.2599 C   0  0  0  0  0  0  0  0  0  0  0  0
  -51.4533  -12.7724  -20.1886 H   0  0  0  0  0  0  0  0  0  0  0  0
  -50.1218  -12.0010  -20.9233 H   0  0  0  0  0  0  0  0  0  0  0  0
  -56.9584  -10.3153  -14.7892 C   0  0  0  0  0  0  0  0  0  0  0  0
  -57.1778  -11.2227  -15.8549 O   0  0  0  0  0  0  0  0  0  0  0  0
  -57.2835  -12.8355  -15.6304 P   0  0  0  0  0  0  0  0  0  0  0  0
  -57.5393  -13.2658  -14.1941 O   0  0  0  0  0  0  0  0  0  0  0  0
  -55.9452  -13.4949  -16.0707 O   0  0  0  0  0  0  0  0  0  0  0  0
  -55.9993  -14.4546  -15.9405 H   0  0  0  0  0  0  0  0  0  0  0  0
  -58.3565  -13.3711  -16.5990 O   0  0  0  0  0  0  0  0  0  0  0  0
  -58.5883  -14.8840  -16.9739 P   0  0  0  0  0  0  0  0  0  0  0  0
  -59.4917  -15.4204  -15.8537 O   0  0  0  0  0  0  0  0  0  0  0  0
  -59.6313  -15.1541  -18.0506 O   0  0  0  0  0  0  0  0  0  0  0  0
  -59.6964  -16.1094  -18.2054 H   0  0  0  0  0  0  0  0  0  0  0  0
  -57.3674  -15.8698  -17.0846 O   0  0  0  0  0  0  0  0  0  0  0  0
  -56.8637  -17.0435  -16.1651 P   0  0  0  0  0  0  0  0  0  0  0  0
  -55.6280  -17.8735  -16.5839 O   0  0  0  0  0  0  0  0  0  0  0  0
  -58.0877  -17.9828  -16.1958 O   0  0  0  0  0  0  0  0  0  0  0  0
  -56.7378  -16.4279  -14.8115 O   0  0  0  0  0  0  0  0  0  0  0  0
  -57.9069  -18.7672  -15.6547 H   0  0  0  0  0  0  0  0  0  0  0  0
  -56.4281  -17.0960  -14.1800 H   0  0  0  0  0  0  0  0  0  0  0  0
 34 35  2  0  0  0
 34 36  1  0  0  0
 34 37  1  0  0  0
 34 33  1  0  0  0
 29 30  2  0  0  0
 29 31  1  0  0  0
 29 33  1  0  0  0
 29 28  1  0  0  0
 24 25  2  0  0  0
 24 26  1  0  0  0
 24 28  1  0  0  0
 24 23  1  0  0  0
 23 22  1  0  0  0
 22  1  1  0  0  0
  1  2  1  0  0  0
  1  3  1  0  0  0
  2  7  1  0  0  0
  3  4  1  0  0  0
  3  5  1  0  0  0
  5  6  1  0  0  0
  5  7  1  0  0  0
  7 10  1  0  0  0
 10 11  1  0  0  0
 10 19  1  0  0  0
 11 12  2  0  0  0
 12 13  1  0  0  0
 13 14  1  0  0  0
 13 19  2  0  0  0
 14 15  1  0  0  0
 14 16  2  0  0  0
 16 17  1  0  0  0
 17 18  2  0  0  0
 18 19  1  0  0  0
 36 38  1  0  0  0
 37 39  1  0  0  0
 31 32  1  0  0  0
 26 27  1  0  0  0
  4  8  1  0  0  0
  6  9  1  0  0  0
 15 20  1  0  0  0
 15 21  1  0  0  0
M  END
> <minimizedAffinity>
-10.68275

$$$$
3TA0_ATP_A_200


 39 41  0  0  0  0  0  0  0  0999 V2000
  -56.3173   -8.9846  -15.3411 C   0  0  0  0  0  0  0  0  0  0  0  0
  -54.9032   -9.2575  -15.3720 O   0  0  0  0  0  0  0  0  0  0  0  0
  -56.6744   -8.5541  -16.7508 C   0  0  0  0  0  0  0  0  0  0  0  0
  -57.8656   -7.8250  -16.8147 O   0  0  0  0  0  0  0  0  0  0  0  0
  -55.4491   -7.7669  -17.2288 C   0  0  0  0  0  0  0  0  0  0  0  0
  -55.4590   -6.4261  -16.6955 O   0  0  0  0  0  0  0  0  0  0  0  0
  -54.3582   -8.6103  -16.5835 C   0  0  0  0  0  0  0  0  0  0  0  0
  -57.7887   -7.0310  -16.2628 H   0  0  0  0  0  0  0  0  0  0  0  0
  -55.5354   -6.4630  -15.7292 H   0  0  0  0  0  0  0  0  0  0  0  0
  -53.7480   -9.6083  -17.4263 N   0  0  0  0  0  0  0  0  0  0  0  0
  -54.1340  -10.9093  -17.5810 C   0  0  0  0  0  0  0  0  0  0  0  0
  -53.3570  -11.5738  -18.4038 N   0  0  0  0  0  0  0  0  0  0  0  0
  -52.4138  -10.6770  -18.8080 C   0  0  0  0  0  0  0  0  0  0  0  0
  -51.2981  -10.7813  -19.6836 C   0  0  0  0  0  0  0  0  0  0  0  0
  -50.9790  -11.9564  -20.3145 N   0  0  0  0  0  0  0  0  0  0  0  0
  -50.5114   -9.6536  -19.8814 N   0  0  0  0  0  0  0  0  0  0  0  0
  -50.8485   -8.4815  -19.2470 C   0  0  0  0  0  0  0  0  0  0  0  0
  -51.8956   -8.2755  -18.3816 N   0  0  0  0  0  0  0  0  0  0  0  0
  -52.6383   -9.4124  -18.2081 C   0  0  0  0  0  0  0  0  0  0  0  0
  -51.5354  -12.7566  -20.1755 H   0  0  0  0  0  0  0  0  0  0  0  0
  -50.1935  -11.9998  -20.9064 H   0  0  0  0  0  0  0  0  0  0  0  0
  -57.0847  -10.2275  -14.8516 C   0  0  0  0  0  0  0  0  0  0  0  0
  -58.4539  -10.0854  -15.1865 O   0  0  0  0  0  0  0  0  0  0  0  0
  -59.1376  -10.8643  -16.4470 P   0  0  0  0  0  0  0  0  0  0  0  0
  -59.7594   -9.9575  -17.4978 O   0  0  0  0  0  0  0  0  0  0  0  0
  -60.2711  -11.7872  -15.9149 O   0  0  0  0  0  0  0  0  0  0  0  0
  -60.6833  -12.2545  -16.6582 H   0  0  0  0  0  0  0  0  0  0  0  0
  -58.0733  -11.8054  -17.0454 O   0  0  0  0  0  0  0  0  0  0  0  0
  -57.9114  -13.3392  -16.7219 P   0  0  0  0  0  0  0  0  0  0  0  0
  -59.0079  -14.0219  -17.5529 O   0  0  0  0  0  0  0  0  0  0  0  0
  -56.7928  -14.0638  -17.4592 O   0  0  0  0  0  0  0  0  0  0  0  0
  -56.7791  -14.9957  -17.1904 H   0  0  0  0  0  0  0  0  0  0  0  0
  -58.0693  -13.8594  -15.2458 O   0  0  0  0  0  0  0  0  0  0  0  0
  -57.0581  -14.5273  -14.2416 P   0  0  0  0  0  0  0  0  0  0  0  0
  -57.4157  -14.6254  -12.7403 O   0  0  0  0  0  0  0  0  0  0  0  0
  -55.8491  -13.5773  -14.3714 O   0  0  0  0  0  0  0  0  0  0  0  0
  -56.7306  -15.8437  -14.8638 O   0  0  0  0  0  0  0  0  0  0  0  0
  -55.1350  -13.8814  -13.7896 H   0  0  0  0  0  0  0  0  0  0  0  0
  -56.1046  -16.3220  -14.2979 H   0  0  0  0  0  0  0  0  0  0  0  0
 34 35  2  0  0  0
 34 36  1  0  0  0
 34 37  1  0  0  0
 34 33  1  0  0  0
 29 30  2  0  0  0
 29 31  1  0  0  0
 29 33  1  0  0  0
 29 28  1  0  0  0
 24 25  2  0  0  0
 24 26  1  0  0  0
 24 28  1  0  0  0
 24 23  1  0  0  0
 23 22  1  0  0  0
 22  1  1  0  0  0
  1  2  1  0  0  0
  1  3  1  0  0  0
  2  7  1  0  0  0
  3  4  1  0  0  0
  3  5  1  0  0  0
  5  6  1  0  0  0
  5  7  1  0  0  0
  7 10  1  0  0  0
 10 11  1  0  0  0
 10 19  1  0  0  0
 11 12  2  0  0  0
 12 13  1  0  0  0
 13 14  1  0  0  0
 13 19  2  0  0  0
 14 15  1  0  0  0
 14 16  2  0  0  0
 16 17  1  0  0  0
 17 18  2  0  0  0
 18 19  1  0  0  0
 36 38  1  0  0  0
 37 39  1  0  0  0
 31 32  1  0  0  0
 26 27  1  0  0  0
  4  8  1  0  0  0
  6  9  1  0  0  0
 15 20  1  0  0  0
 15 21  1  0  0  0
M  END
> <minimizedAffinity>
-10.48595

$$$$
3TA0_ATP_A_200


 39 41  0  0  0  0  0  0  0  0999 V2000
  -58.2402  -12.1331  -15.6776 C   0  0  0  0  0  0  0  0  0  0  0  0
  -56.8206  -12.3056  -15.5045 O   0  0  0  0  0  0  0  0  0  0  0  0
  -58.4130  -10.7186  -16.1966 C   0  0  0  0  0  0  0  0  0  0  0  0
  -59.7017  -10.2155  -15.9949 O   0  0  0  0  0  0  0  0  0  0  0  0
  -57.3233   -9.9151  -15.4778 C   0  0  0  0  0  0  0  0  0  0  0  0
  -57.7272   -9.5911  -14.1309 O   0  0  0  0  0  0  0  0  0  0  0  0
  -56.2142  -10.9581  -15.4864 C   0  0  0  0  0  0  0  0  0  0  0  0
  -59.9058  -10.2202  -15.0466 H   0  0  0  0  0  0  0  0  0  0  0  0
  -57.9730  -10.4042  -13.6626 H   0  0  0  0  0  0  0  0  0  0  0  0
  -55.2530  -10.8510  -16.5556 N   0  0  0  0  0  0  0  0  0  0  0  0
  -55.1862  -11.6120  -17.6878 C   0  0  0  0  0  0  0  0  0  0  0  0
  -54.1766  -11.2844  -18.4596 N   0  0  0  0  0  0  0  0  0  0  0  0
  -53.5450  -10.2666  -17.8095 C   0  0  0  0  0  0  0  0  0  0  0  0
  -52.3923   -9.4937  -18.1201 C   0  0  0  0  0  0  0  0  0  0  0  0
  -51.6647   -9.7043  -19.2634 N   0  0  0  0  0  0  0  0  0  0  0  0
  -51.9985   -8.5118  -17.2199 N   0  0  0  0  0  0  0  0  0  0  0  0
  -52.7424   -8.3086  -16.0819 C   0  0  0  0  0  0  0  0  0  0  0  0
  -53.8624   -8.9989  -15.6859 N   0  0  0  0  0  0  0  0  0  0  0  0
  -54.2099   -9.9615  -16.5953 C   0  0  0  0  0  0  0  0  0  0  0  0
  -51.9424  -10.3998  -19.9025 H   0  0  0  0  0  0  0  0  0  0  0  0
  -50.8647   -9.1600  -19.4450 H   0  0  0  0  0  0  0  0  0  0  0  0
  -58.7935  -13.2188  -16.6200 C   0  0  0  0  0  0  0  0  0  0  0  0
  -58.1657  -14.4530  -16.3203 O   0  0  0  0  0  0  0  0  0  0  0  0
  -57.3652  -15.3286  -17.4408 P   0  0  0  0  0  0  0  0  0  0  0  0
  -56.7129  -14.5110  -18.5451 O   0  0  0  0  0  0  0  0  0  0  0  0
  -58.3643  -16.3037  -18.1271 O   0  0  0  0  0  0  0  0  0  0  0  0
  -57.8964  -16.8286  -18.7952 H   0  0  0  0  0  0  0  0  0  0  0  0
  -56.3497  -16.2190  -16.6976 O   0  0  0  0  0  0  0  0  0  0  0  0
  -56.6774  -17.1919  -15.5020 P   0  0  0  0  0  0  0  0  0  0  0  0
  -58.1987  -17.3891  -15.5767 O   0  0  0  0  0  0  0  0  0  0  0  0
  -56.3958  -18.6689  -15.7451 O   0  0  0  0  0  0  0  0  0  0  0  0
  -56.6303  -19.1774  -14.9530 H   0  0  0  0  0  0  0  0  0  0  0  0
  -56.3456  -16.7709  -14.0231 O   0  0  0  0  0  0  0  0  0  0  0  0
  -56.4306  -15.3933  -13.2668 P   0  0  0  0  0  0  0  0  0  0  0  0
  -57.8106  -14.7609  -12.9720 O   0  0  0  0  0  0  0  0  0  0  0  0
  -55.6980  -14.4694  -14.2623 O   0  0  0  0  0  0  0  0  0  0  0  0
  -55.5900  -15.5851  -12.0487 O   0  0  0  0  0  0  0  0  0  0  0  0
  -55.6781  -13.5658  -13.9101 H   0  0  0  0  0  0  0  0  0  0  0  0
  -55.5915  -14.7697  -11.5232 H   0  0  0  0  0  0  0  0  0  0  0  0
 34 35  2  0  0  0
 34 36  1  0  0  0
 34 37  1  0  0  0
 34 33  1  0  0  0
 29 30  2  0  0  0
 29 31  1  0  0  0
 29 33  1  0  0  0
 29 28  1  0  0  0
 24 25  2  0  0  0
 24 26  1  0  0  0
 24 28  1  0  0  0
 24 23  1  0  0  0
 23 22  1  0  0  0
 22  1  1  0  0  0
  1  2  1  0  0  0
  1  3  1  0  0  0
  2  7  1  0  0  0
  3  4  1  0  0  0
  3  5  1  0  0  0
  5  6  1  0  0  0
  5  7  1  0  0  0
  7 10  1  0  0  0
 10 11  1  0  0  0
 10 19  1  0  0  0
 11 12  2  0  0  0
 12 13  1  0  0  0
 13 14  1  0  0  0
 13 19  2  0  0  0
 14 15  1  0  0  0
 14 16  2  0  0  0
 16 17  1  0  0  0
 17 18  2  0  0  0
 18 19  1  0  0  0
 36 38  1  0  0  0
 37 39  1  0  0  0
 31 32  1  0  0  0
 26 27  1  0  0  0
  4  8  1  0  0  0
  6  9  1  0  0  0
 15 20  1  0  0  0
 15 21  1  0  0  0
M  END
> <minimizedAffinity>
-9.40566

$$$$
3TA0_ATP_A_200


 39 41  0  0  0  0  0  0  0  0999 V2000
  -56.4046  -10.5590  -15.3809 C   0  0  0  0  0  0  0  0  0  0  0  0
  -54.9720  -10.4300  -15.4585 O   0  0  0  0  0  0  0  0  0  0  0  0
  -56.9245  -10.0819  -16.7233 C   0  0  0  0  0  0  0  0  0  0  0  0
  -58.2698   -9.7034  -16.6856 O   0  0  0  0  0  0  0  0  0  0  0  0
  -55.9785   -8.9401  -17.1122 C   0  0  0  0  0  0  0  0  0  0  0  0
  -56.3271   -7.7242  -16.4177 O   0  0  0  0  0  0  0  0  0  0  0  0
  -54.6740   -9.5226  -16.5861 C   0  0  0  0  0  0  0  0  0  0  0  0
  -58.3865   -8.9881  -16.0409 H   0  0  0  0  0  0  0  0  0  0  0  0
  -56.3493   -7.8924  -15.4626 H   0  0  0  0  0  0  0  0  0  0  0  0
  -53.8537  -10.2114  -17.5512 N   0  0  0  0  0  0  0  0  0  0  0  0
  -54.0056  -11.4912  -18.0033 C   0  0  0  0  0  0  0  0  0  0  0  0
  -53.0784  -11.8374  -18.8652 N   0  0  0  0  0  0  0  0  0  0  0  0
  -52.2757  -10.7427  -18.9859 C   0  0  0  0  0  0  0  0  0  0  0  0
  -51.1059  -10.4860  -19.7529 C   0  0  0  0  0  0  0  0  0  0  0  0
  -50.5555  -11.4353  -20.5755 N   0  0  0  0  0  0  0  0  0  0  0  0
  -50.5087   -9.2368  -19.6407 N   0  0  0  0  0  0  0  0  0  0  0  0
  -51.0766   -8.2940  -18.8170 C   0  0  0  0  0  0  0  0  0  0  0  0
  -52.1953   -8.4400  -18.0329 N   0  0  0  0  0  0  0  0  0  0  0  0
  -52.7461   -9.6862  -18.1663 C   0  0  0  0  0  0  0  0  0  0  0  0
  -50.9774  -12.3211  -20.6562 H   0  0  0  0  0  0  0  0  0  0  0  0
  -49.7385  -11.2309  -21.0854 H   0  0  0  0  0  0  0  0  0  0  0  0
  -56.7866  -12.0122  -15.0410 C   0  0  0  0  0  0  0  0  0  0  0  0
  -57.1716  -12.6780  -16.2308 O   0  0  0  0  0  0  0  0  0  0  0  0
  -58.0736  -14.0380  -16.2264 P   0  0  0  0  0  0  0  0  0  0  0  0
  -59.5148  -13.8508  -16.6748 O   0  0  0  0  0  0  0  0  0  0  0  0
  -58.1182  -14.6089  -14.7801 O   0  0  0  0  0  0  0  0  0  0  0  0
  -58.6528  -15.4182  -14.7683 H   0  0  0  0  0  0  0  0  0  0  0  0
  -57.3319  -15.0912  -17.0731 O   0  0  0  0  0  0  0  0  0  0  0  0
  -57.5946  -16.6449  -17.0501 P   0  0  0  0  0  0  0  0  0  0  0  0
  -56.1938  -17.2697  -17.1288 O   0  0  0  0  0  0  0  0  0  0  0  0
  -57.8752  -17.2556  -15.6832 O   0  0  0  0  0  0  0  0  0  0  0  0
  -58.0221  -18.2096  -15.7793 H   0  0  0  0  0  0  0  0  0  0  0  0
  -58.4577  -17.3202  -18.1786 O   0  0  0  0  0  0  0  0  0  0  0  0
  -58.7150  -18.8249  -18.5614 P   0  0  0  0  0  0  0  0  0  0  0  0
  -58.8394  -19.8918  -17.4489 O   0  0  0  0  0  0  0  0  0  0  0  0
  -57.4392  -19.1415  -19.3698 O   0  0  0  0  0  0  0  0  0  0  0  0
  -59.8915  -18.7796  -19.4785 O   0  0  0  0  0  0  0  0  0  0  0  0
  -57.4693  -20.0622  -19.6737 H   0  0  0  0  0  0  0  0  0  0  0  0
  -60.1151  -19.6798  -19.7621 H   0  0  0  0  0  0  0  0  0  0  0  0
 34 35  2  0  0  0
 34 36  1  0  0  0
 34 37  1  0  0  0
 34 33  1  0  0  0
 29 30  2  0  0  0
 29 31  1  0  0  0
 29 33  1  0  0  0
 29 28  1  0  0  0
 24 25  2  0  0  0
 24 26  1  0  0  0
 24 28  1  0  0  0
 24 23  1  0  0  0
 23 22  1  0  0  0
 22  1  1  0  0  0
  1  2  1  0  0  0
  1  3  1  0  0  0
  2  7  1  0  0  0
  3  4  1  0  0  0
  3  5  1  0  0  0
  5  6  1  0  0  0
  5  7  1  0  0  0
  7 10  1  0  0  0
 10 11  1  0  0  0
 10 19  1  0  0  0
 11 12  2  0  0  0
 12 13  1  0  0  0
 13 14  1  0  0  0
 13 19  2  0  0  0
 14 15  1  0  0  0
 14 16  2  0  0  0
 16 17  1  0  0  0
 17 18  2  0  0  0
 18 19  1  0  0  0
 36 38  1  0  0  0
 37 39  1  0  0  0
 31 32  1  0  0  0
 26 27  1  0  0  0
  4  8  1  0  0  0
  6  9  1  0  0  0
 15 20  1  0  0  0
 15 21  1  0  0  0
M  END
> <minimizedAffinity>
-9.03696

$$$$
3TA0_ATP_A_200


 39 41  0  0  0  0  0  0  0  0999 V2000
  -57.7548  -13.8939  -15.8111 C   0  0  0  0  0  0  0  0  0  0  0  0
  -58.5203  -15.0266  -16.2652 O   0  0  0  0  0  0  0  0  0  0  0  0
  -56.6311  -14.4769  -14.9761 C   0  0  0  0  0  0  0  0  0  0  0  0
  -56.0680  -13.5501  -14.0937 O   0  0  0  0  0  0  0  0  0  0  0  0
  -57.2664  -15.6822  -14.2738 C   0  0  0  0  0  0  0  0  0  0  0  0
  -58.0466  -15.2616  -13.1350 O   0  0  0  0  0  0  0  0  0  0  0  0
  -58.1596  -16.1727  -15.4049 C   0  0  0  0  0  0  0  0  0  0  0  0
  -56.7535  -13.2171  -13.4937 H   0  0  0  0  0  0  0  0  0  0  0  0
  -58.6959  -14.5977  -13.4153 H   0  0  0  0  0  0  0  0  0  0  0  0
  -57.6229  -17.2336  -16.2205 N   0  0  0  0  0  0  0  0  0  0  0  0
  -56.3474  -17.7218  -16.2092 C   0  0  0  0  0  0  0  0  0  0  0  0
  -56.1622  -18.6755  -17.0914 N   0  0  0  0  0  0  0  0  0  0  0  0
  -57.3640  -18.8226  -17.7169 C   0  0  0  0  0  0  0  0  0  0  0  0
  -57.8076  -19.6789  -18.7621 C   0  0  0  0  0  0  0  0  0  0  0  0
  -56.9704  -20.5847  -19.3617 N   0  0  0  0  0  0  0  0  0  0  0  0
  -59.1263  -19.5697  -19.1848 N   0  0  0  0  0  0  0  0  0  0  0  0
  -59.9545  -18.6617  -18.5690 C   0  0  0  0  0  0  0  0  0  0  0  0
  -59.6274  -17.7882  -17.5602 N   0  0  0  0  0  0  0  0  0  0  0  0
  -58.3189  -17.9225  -17.1807 C   0  0  0  0  0  0  0  0  0  0  0  0
  -56.0355  -20.6634  -19.0633 H   0  0  0  0  0  0  0  0  0  0  0  0
  -57.3043  -21.1562  -20.0905 H   0  0  0  0  0  0  0  0  0  0  0  0
  -57.2746  -13.0633  -17.0164 C   0  0  0  0  0  0  0  0  0  0  0  0
  -55.8871  -12.8118  -16.8795 O   0  0  0  0  0  0  0  0  0  0  0  0
  -55.2636  -11.3040  -16.8571 P   0  0  0  0  0  0  0  0  0  0  0  0
  -54.9591  -10.7585  -15.4704 O   0  0  0  0  0  0  0  0  0  0  0  0
  -56.2799  -10.3280  -17.5162 O   0  0  0  0  0  0  0  0  0  0  0  0
  -55.9170   -9.4285  -17.5071 H   0  0  0  0  0  0  0  0  0  0  0  0
  -54.0218  -11.3000  -17.7705 O   0  0  0  0  0  0  0  0  0  0  0  0
  -53.0218  -10.0974  -17.9628 P   0  0  0  0  0  0  0  0  0  0  0  0
  -53.8904   -8.9667  -18.5336 O   0  0  0  0  0  0  0  0  0  0  0  0
  -52.6788   -9.3055  -16.7077 O   0  0  0  0  0  0  0  0  0  0  0  0
  -52.0607   -8.5930  -16.9338 H   0  0  0  0  0  0  0  0  0  0  0  0
  -51.7802  -10.2432  -18.9176 O   0  0  0  0  0  0  0  0  0  0  0  0
  -51.0760  -11.4955  -19.5600 P   0  0  0  0  0  0  0  0  0  0  0  0
  -49.9075  -12.1860  -18.8189 O   0  0  0  0  0  0  0  0  0  0  0  0
  -50.5064  -10.8770  -20.8539 O   0  0  0  0  0  0  0  0  0  0  0  0
  -52.1975  -12.4204  -19.8977 O   0  0  0  0  0  0  0  0  0  0  0  0
  -50.0351  -11.5588  -21.3579 H   0  0  0  0  0  0  0  0  0  0  0  0
  -51.8410  -13.2264  -20.3031 H   0  0  0  0  0  0  0  0  0  0  0  0
 34 35  2  0  0  0
 34 36  1  0  0  0
 34 37  1  0  0  0
 34 33  1  0  0  0
 29 30  2  0  0  0
 29 31  1  0  0  0
 29 33  1  0  0  0
 29 28  1  0  0  0
 24 25  2  0  0  0
 24 26  1  0  0  0
 24 28  1  0  0  0
 24 23  1  0  0  0
 23 22  1  0  0  0
 22  1  1  0  0  0
  1  2  1  0  0  0
  1  3  1  0  0  0
  2  7  1  0  0  0
  3  4  1  0  0  0
  3  5  1  0  0  0
  5  6  1  0  0  0
  5  7  1  0  0  0
  7 10  1  0  0  0
 10 11  1  0  0  0
 10 19  1  0  0  0
 11 12  2  0  0  0
 12 13  1  0  0  0
 13 14  1  0  0  0
 13 19  2  0  0  0
 14 15  1  0  0  0
 14 16  2  0  0  0
 16 17  1  0  0  0
 17 18  2  0  0  0
 18 19  1  0  0  0
 36 38  1  0  0  0
 37 39  1  0  0  0
 31 32  1  0  0  0
 26 27  1  0  0  0
  4  8  1  0  0  0
  6  9  1  0  0  0
 15 20  1  0  0  0
 15 21  1  0  0  0
M  END
> <minimizedAffinity>
-8.73230

$$$$
3TA0_ATP_A_200


 39 41  0  0  0  0  0  0  0  0999 V2000
  -56.2104  -18.3148  -18.6118 C   0  0  0  0  0  0  0  0  0  0  0  0
  -56.0860  -17.2826  -17.6147 O   0  0  0  0  0  0  0  0  0  0  0  0
  -57.6973  -18.5941  -18.7178 C   0  0  0  0  0  0  0  0  0  0  0  0
  -57.9804  -19.8449  -19.2745 O   0  0  0  0  0  0  0  0  0  0  0  0
  -58.2170  -18.4306  -17.2850 C   0  0  0  0  0  0  0  0  0  0  0  0
  -57.9369  -19.6077  -16.4988 O   0  0  0  0  0  0  0  0  0  0  0  0
  -57.3505  -17.2567  -16.8504 C   0  0  0  0  0  0  0  0  0  0  0  0
  -57.5769  -20.5396  -18.7310 H   0  0  0  0  0  0  0  0  0  0  0  0
  -56.9883  -19.8060  -16.5400 H   0  0  0  0  0  0  0  0  0  0  0  0
  -57.9513  -15.9509  -16.9627 N   0  0  0  0  0  0  0  0  0  0  0  0
  -59.0256  -15.5972  -17.7283 C   0  0  0  0  0  0  0  0  0  0  0  0
  -59.3170  -14.3211  -17.6336 N   0  0  0  0  0  0  0  0  0  0  0  0
  -58.3944  -13.8064  -16.7728 C   0  0  0  0  0  0  0  0  0  0  0  0
  -58.1713  -12.4944  -16.2713 C   0  0  0  0  0  0  0  0  0  0  0  0
  -58.9559  -11.4330  -16.6434 N   0  0  0  0  0  0  0  0  0  0  0  0
  -57.1139  -12.2990  -15.3918 N   0  0  0  0  0  0  0  0  0  0  0  0
  -56.3411  -13.3745  -15.0234 C   0  0  0  0  0  0  0  0  0  0  0  0
  -56.4664  -14.6742  -15.4509 N   0  0  0  0  0  0  0  0  0  0  0  0
  -57.5128  -14.8206  -16.3215 C   0  0  0  0  0  0  0  0  0  0  0  0
  -59.7058  -11.5697  -17.2666 H   0  0  0  0  0  0  0  0  0  0  0  0
  -58.7694  -10.5343  -16.2874 H   0  0  0  0  0  0  0  0  0  0  0  0
  -55.5630  -17.8551  -19.9319 C   0  0  0  0  0  0  0  0  0  0  0  0
  -55.1673  -16.5008  -19.8042 O   0  0  0  0  0  0  0  0  0  0  0  0
  -54.4643  -15.6704  -21.0205 P   0  0  0  0  0  0  0  0  0  0  0  0
  -55.2459  -14.4577  -21.5021 O   0  0  0  0  0  0  0  0  0  0  0  0
  -54.2932  -16.6159  -22.2438 O   0  0  0  0  0  0  0  0  0  0  0  0
  -53.8756  -16.1299  -22.9721 H   0  0  0  0  0  0  0  0  0  0  0  0
  -53.0372  -15.3022  -20.5689 O   0  0  0  0  0  0  0  0  0  0  0  0
  -52.2259  -14.0292  -21.0214 P   0  0  0  0  0  0  0  0  0  0  0  0
  -50.7864  -14.5358  -21.1938 O   0  0  0  0  0  0  0  0  0  0  0  0
  -52.3492  -13.6448  -22.4901 O   0  0  0  0  0  0  0  0  0  0  0  0
  -51.8152  -12.8537  -22.6632 H   0  0  0  0  0  0  0  0  0  0  0  0
  -52.1539  -12.7626  -20.0914 O   0  0  0  0  0  0  0  0  0  0  0  0
  -51.0609  -11.6465  -19.9003 P   0  0  0  0  0  0  0  0  0  0  0  0
  -51.4521  -10.2835  -19.2835 O   0  0  0  0  0  0  0  0  0  0  0  0
  -50.6450  -11.3930  -21.3645 O   0  0  0  0  0  0  0  0  0  0  0  0
  -49.9513  -12.3325  -19.1754 O   0  0  0  0  0  0  0  0  0  0  0  0
  -49.9584  -10.7083  -21.3917 H   0  0  0  0  0  0  0  0  0  0  0  0
  -49.2301  -11.7032  -19.0181 H   0  0  0  0  0  0  0  0  0  0  0  0
 34 35  2  0  0  0
 34 36  1  0  0  0
 34 37  1  0  0  0
 34 33  1  0  0  0
 29 30  2  0  0  0
 29 31  1  0  0  0
 29 33  1  0  0  0
 29 28  1  0  0  0
 24 25  2  0  0  0
 24 26  1  0  0  0
 24 28  1  0  0  0
 24 23  1  0  0  0
 23 22  1  0  0  0
 22  1  1  0  0  0
  1  2  1  0  0  0
  1  3  1  0  0  0
  2  7  1  0  0  0
  3  4  1  0  0  0
  3  5  1  0  0  0
  5  6  1  0  0  0
  5  7  1  0  0  0
  7 10  1  0  0  0
 10 11  1  0  0  0
 10 19  1  0  0  0
 11 12  2  0  0  0
 12 13  1  0  0  0
 13 14  1  0  0  0
 13 19  2  0  0  0
 14 15  1  0  0  0
 14 16  2  0  0  0
 16 17  1  0  0  0
 17 18  2  0  0  0
 18 19  1  0  0  0
 36 38  1  0  0  0
 37 39  1  0  0  0
 31 32  1  0  0  0
 26 27  1  0  0  0
  4  8  1  0  0  0
  6  9  1  0  0  0
 15 20  1  0  0  0
 15 21  1  0  0  0
M  END
> <minimizedAffinity>
-8.64696

$$$$
3TA0_ATP_A_200


 39 41  0  0  0  0  0  0  0  0999 V2000
  -57.5139  -14.4796  -16.5057 C   0  0  0  0  0  0  0  0  0  0  0  0
  -56.6087  -13.4533  -16.9555 O   0  0  0  0  0  0  0  0  0  0  0  0
  -57.8117  -14.1461  -15.0566 C   0  0  0  0  0  0  0  0  0  0  0  0
  -58.2865  -15.2418  -14.3296 O   0  0  0  0  0  0  0  0  0  0  0  0
  -56.4923  -13.5807  -14.5187 C   0  0  0  0  0  0  0  0  0  0  0  0
  -55.5684  -14.6430  -14.2023 O   0  0  0  0  0  0  0  0  0  0  0  0
  -56.0447  -12.8079  -15.7517 C   0  0  0  0  0  0  0  0  0  0  0  0
  -57.6278  -15.9536  -14.3503 H   0  0  0  0  0  0  0  0  0  0  0  0
  -55.4510  -15.2116  -14.9795 H   0  0  0  0  0  0  0  0  0  0  0  0
  -56.3640  -11.4020  -15.7679 N   0  0  0  0  0  0  0  0  0  0  0  0
  -57.4313  -10.7888  -15.1759 C   0  0  0  0  0  0  0  0  0  0  0  0
  -57.4576   -9.4951  -15.3947 N   0  0  0  0  0  0  0  0  0  0  0  0
  -56.3646   -9.2408  -16.1679 C   0  0  0  0  0  0  0  0  0  0  0  0
  -55.8458   -8.0463  -16.7396 C   0  0  0  0  0  0  0  0  0  0  0  0
  -56.4640   -6.8338  -16.5705 N   0  0  0  0  0  0  0  0  0  0  0  0
  -54.6870   -8.1324  -17.5006 N   0  0  0  0  0  0  0  0  0  0  0  0
  -54.0757   -9.3541  -17.6549 C   0  0  0  0  0  0  0  0  0  0  0  0
  -54.4940  -10.5628  -17.1533 N   0  0  0  0  0  0  0  0  0  0  0  0
  -55.6422  -10.4344  -16.4187 C   0  0  0  0  0  0  0  0  0  0  0  0
  -57.2854   -6.7709  -16.0315 H   0  0  0  0  0  0  0  0  0  0  0  0
  -56.0863   -6.0263  -16.9883 H   0  0  0  0  0  0  0  0  0  0  0  0
  -58.7609  -14.5175  -17.4095 C   0  0  0  0  0  0  0  0  0  0  0  0
  -59.4108  -15.7657  -17.2462 O   0  0  0  0  0  0  0  0  0  0  0  0
  -58.6663  -17.1899  -17.5297 P   0  0  0  0  0  0  0  0  0  0  0  0
  -59.5379  -18.2467  -18.1907 O   0  0  0  0  0  0  0  0  0  0  0  0
  -58.1804  -17.7832  -16.1763 O   0  0  0  0  0  0  0  0  0  0  0  0
  -57.7362  -18.6307  -16.3357 H   0  0  0  0  0  0  0  0  0  0  0  0
  -57.3906  -16.8945  -18.3432 O   0  0  0  0  0  0  0  0  0  0  0  0
  -56.3687  -17.9680  -18.8786 P   0  0  0  0  0  0  0  0  0  0  0  0
  -55.9594  -18.7615  -17.6289 O   0  0  0  0  0  0  0  0  0  0  0  0
  -56.9758  -19.1919  -19.5521 O   0  0  0  0  0  0  0  0  0  0  0  0
  -56.2664  -19.7860  -19.8433 H   0  0  0  0  0  0  0  0  0  0  0  0
  -55.0384  -17.5138  -19.5846 O   0  0  0  0  0  0  0  0  0  0  0  0
  -54.7194  -16.3610  -20.6074 P   0  0  0  0  0  0  0  0  0  0  0  0
  -54.8025  -16.6353  -22.1270 O   0  0  0  0  0  0  0  0  0  0  0  0
  -53.2426  -16.0704  -20.2667 O   0  0  0  0  0  0  0  0  0  0  0  0
  -55.5712  -15.2203  -20.1599 O   0  0  0  0  0  0  0  0  0  0  0  0
  -52.9124  -15.3605  -20.8393 H   0  0  0  0  0  0  0  0  0  0  0  0
  -55.4299  -14.4614  -20.7473 H   0  0  0  0  0  0  0  0  0  0  0  0
 34 35  2  0  0  0
 34 36  1  0  0  0
 34 37  1  0  0  0
 34 33  1  0  0  0
 29 30  2  0  0  0
 29 31  1  0  0  0
 29 33  1  0  0  0
 29 28  1  0  0  0
 24 25  2  0  0  0
 24 26  1  0  0  0
 24 28  1  0  0  0
 24 23  1  0  0  0
 23 22  1  0  0  0
 22  1  1  0  0  0
  1  2  1  0  0  0
  1  3  1  0  0  0
  2  7  1  0  0  0
  3  4  1  0  0  0
  3  5  1  0  0  0
  5  6  1  0  0  0
  5  7  1  0  0  0
  7 10  1  0  0  0
 10 11  1  0  0  0
 10 19  1  0  0  0
 11 12  2  0  0  0
 12 13  1  0  0  0
 13 14  1  0  0  0
 13 19  2  0  0  0
 14 15  1  0  0  0
 14 16  2  0  0  0
 16 17  1  0  0  0
 17 18  2  0  0  0
 18 19  1  0  0  0
 36 38  1  0  0  0
 37 39  1  0  0  0
 31 32  1  0  0  0
 26 27  1  0  0  0
  4  8  1  0  0  0
  6  9  1  0  0  0
 15 20  1  0  0  0
 15 21  1  0  0  0
M  END
> <minimizedAffinity>
-8.52280

$$$$
3TA0_ATP_A_200


 39 41  0  0  0  0  0  0  0  0999 V2000
  -57.9897  -15.1628  -15.7263 C   0  0  0  0  0  0  0  0  0  0  0  0
  -57.7121  -13.8999  -15.0914 O   0  0  0  0  0  0  0  0  0  0  0  0
  -58.3056  -14.8256  -17.1708 C   0  0  0  0  0  0  0  0  0  0  0  0
  -59.0298  -15.8293  -17.8209 O   0  0  0  0  0  0  0  0  0  0  0  0
  -59.0488  -13.4872  -17.0940 C   0  0  0  0  0  0  0  0  0  0  0  0
  -60.4284  -13.6855  -16.7203 O   0  0  0  0  0  0  0  0  0  0  0  0
  -58.2579  -12.8405  -15.9652 C   0  0  0  0  0  0  0  0  0  0  0  0
  -59.8657  -15.9800  -17.3524 H   0  0  0  0  0  0  0  0  0  0  0  0
  -60.4699  -14.1927  -15.8945 H   0  0  0  0  0  0  0  0  0  0  0  0
  -57.1935  -11.9540  -16.3652 N   0  0  0  0  0  0  0  0  0  0  0  0
  -55.8963  -12.2866  -16.6338 C   0  0  0  0  0  0  0  0  0  0  0  0
  -55.1615  -11.2460  -16.9493 N   0  0  0  0  0  0  0  0  0  0  0  0
  -56.0059  -10.1784  -16.8825 C   0  0  0  0  0  0  0  0  0  0  0  0
  -55.8176   -8.7861  -17.1032 C   0  0  0  0  0  0  0  0  0  0  0  0
  -54.5975   -8.2658  -17.4516 N   0  0  0  0  0  0  0  0  0  0  0  0
  -56.9094   -7.9425  -16.9413 N   0  0  0  0  0  0  0  0  0  0  0  0
  -58.1270   -8.4805  -16.5984 C   0  0  0  0  0  0  0  0  0  0  0  0
  -58.4144   -9.8023  -16.3578 N   0  0  0  0  0  0  0  0  0  0  0  0
  -57.3108  -10.5963  -16.5190 C   0  0  0  0  0  0  0  0  0  0  0  0
  -53.8228   -8.8622  -17.5667 H   0  0  0  0  0  0  0  0  0  0  0  0
  -54.4965   -7.2958  -17.5867 H   0  0  0  0  0  0  0  0  0  0  0  0
  -56.7923  -16.1163  -15.5523 C   0  0  0  0  0  0  0  0  0  0  0  0
  -56.5335  -16.7615  -16.7867 O   0  0  0  0  0  0  0  0  0  0  0  0
  -56.9356  -18.3178  -17.0681 P   0  0  0  0  0  0  0  0  0  0  0  0
  -58.3207  -18.7180  -16.5837 O   0  0  0  0  0  0  0  0  0  0  0  0
  -55.9159  -19.2413  -16.3420 O   0  0  0  0  0  0  0  0  0  0  0  0
  -56.1476  -20.1692  -16.5041 H   0  0  0  0  0  0  0  0  0  0  0  0
  -56.7461  -18.5825  -18.5749 O   0  0  0  0  0  0  0  0  0  0  0  0
  -55.5868  -18.0071  -19.4740 P   0  0  0  0  0  0  0  0  0  0  0  0
  -54.3230  -18.1689  -18.6164 O   0  0  0  0  0  0  0  0  0  0  0  0
  -55.0613  -18.9344  -20.5621 O   0  0  0  0  0  0  0  0  0  0  0  0
  -54.3551  -18.4875  -21.0545 H   0  0  0  0  0  0  0  0  0  0  0  0
  -55.6231  -16.5090  -19.9522 O   0  0  0  0  0  0  0  0  0  0  0  0
  -54.7183  -15.6893  -20.9453 P   0  0  0  0  0  0  0  0  0  0  0  0
  -55.1630  -14.2829  -21.4097 O   0  0  0  0  0  0  0  0  0  0  0  0
  -54.7314  -16.6135  -22.1810 O   0  0  0  0  0  0  0  0  0  0  0  0
  -53.3642  -15.7096  -20.3182 O   0  0  0  0  0  0  0  0  0  0  0  0
  -54.1973  -16.2170  -22.8870 H   0  0  0  0  0  0  0  0  0  0  0  0
  -52.7416  -15.2190  -20.8772 H   0  0  0  0  0  0  0  0  0  0  0  0
 34 35  2  0  0  0
 34 36  1  0  0  0
 34 37  1  0  0  0
 34 33  1  0  0  0
 29 30  2  0  0  0
 29 31  1  0  0  0
 29 33  1  0  0  0
 29 28  1  0  0  0
 24 25  2  0  0  0
 24 26  1  0  0  0
 24 28  1  0  0  0
 24 23  1  0  0  0
 23 22  1  0  0  0
 22  1  1  0  0  0
  1  2  1  0  0  0
  1  3  1  0  0  0
  2  7  1  0  0  0
  3  4  1  0  0  0
  3  5  1  0  0  0
  5  6  1  0  0  0
  5  7  1  0  0  0
  7 10  1  0  0  0
 10 11  1  0  0  0
 10 19  1  0  0  0
 11 12  2  0  0  0
 12 13  1  0  0  0
 13 14  1  0  0  0
 13 19  2  0  0  0
 14 15  1  0  0  0
 14 16  2  0  0  0
 16 17  1  0  0  0
 17 18  2  0  0  0
 18 19  1  0  0  0
 36 38  1  0  0  0
 37 39  1  0  0  0
 31 32  1  0  0  0
 26 27  1  0  0  0
  4  8  1  0  0  0
  6  9  1  0  0  0
 15 20  1  0  0  0
 15 21  1  0  0  0
M  END
> <minimizedAffinity>
-8.48693

$$$$
3TA0_ATP_A_200


 39 41  0  0  0  0  0  0  0  0999 V2000
  -56.9626  -17.7373  -16.7705 C   0  0  0  0  0  0  0  0  0  0  0  0
  -56.6718  -16.9071  -17.9113 O   0  0  0  0  0  0  0  0  0  0  0  0
  -56.6522  -19.1537  -17.2146 C   0  0  0  0  0  0  0  0  0  0  0  0
  -57.2871  -20.1235  -16.4329 O   0  0  0  0  0  0  0  0  0  0  0  0
  -57.0681  -19.1885  -18.6895 C   0  0  0  0  0  0  0  0  0  0  0  0
  -58.4973  -19.3409  -18.8174 O   0  0  0  0  0  0  0  0  0  0  0  0
  -56.6230  -17.7902  -19.0951 C   0  0  0  0  0  0  0  0  0  0  0  0
  -58.2475  -19.9939  -16.4739 H   0  0  0  0  0  0  0  0  0  0  0  0
  -58.9434  -18.6437  -18.3118 H   0  0  0  0  0  0  0  0  0  0  0  0
  -55.3231  -17.6937  -19.7113 N   0  0  0  0  0  0  0  0  0  0  0  0
  -54.3754  -18.6730  -19.8021 C   0  0  0  0  0  0  0  0  0  0  0  0
  -53.2818  -18.2655  -20.4022 N   0  0  0  0  0  0  0  0  0  0  0  0
  -53.5124  -16.9601  -20.7184 C   0  0  0  0  0  0  0  0  0  0  0  0
  -52.7210  -15.9714  -21.3655 C   0  0  0  0  0  0  0  0  0  0  0  0
  -51.4504  -16.2357  -21.8088 N   0  0  0  0  0  0  0  0  0  0  0  0
  -53.2619  -14.7026  -21.5307 N   0  0  0  0  0  0  0  0  0  0  0  0
  -54.5394  -14.4557  -21.0869 C   0  0  0  0  0  0  0  0  0  0  0  0
  -55.3820  -15.3326  -20.4478 N   0  0  0  0  0  0  0  0  0  0  0  0
  -54.8074  -16.5661  -20.2975 C   0  0  0  0  0  0  0  0  0  0  0  0
  -51.0655  -17.1344  -21.6925 H   0  0  0  0  0  0  0  0  0  0  0  0
  -50.9232  -15.5269  -22.2432 H   0  0  0  0  0  0  0  0  0  0  0  0
  -56.1436  -17.2680  -15.5530 C   0  0  0  0  0  0  0  0  0  0  0  0
  -57.0174  -16.6673  -14.6134 O   0  0  0  0  0  0  0  0  0  0  0  0
  -56.5215  -15.5341  -13.5491 P   0  0  0  0  0  0  0  0  0  0  0  0
  -55.6890  -16.0645  -12.3919 O   0  0  0  0  0  0  0  0  0  0  0  0
  -57.7699  -14.8420  -12.9310 O   0  0  0  0  0  0  0  0  0  0  0  0
  -57.4841  -14.1662  -12.2965 H   0  0  0  0  0  0  0  0  0  0  0  0
  -55.7829  -14.4396  -14.3447 O   0  0  0  0  0  0  0  0  0  0  0  0
  -56.4490  -13.4113  -15.3359 P   0  0  0  0  0  0  0  0  0  0  0  0
  -57.4126  -12.6022  -14.4552 O   0  0  0  0  0  0  0  0  0  0  0  0
  -55.6163  -12.1850  -15.6866 O   0  0  0  0  0  0  0  0  0  0  0  0
  -56.1141  -11.6204  -16.2983 H   0  0  0  0  0  0  0  0  0  0  0  0
  -57.2809  -13.9232  -16.5689 O   0  0  0  0  0  0  0  0  0  0  0  0
  -58.8237  -14.1382  -16.7932 P   0  0  0  0  0  0  0  0  0  0  0  0
  -59.7866  -12.9299  -16.7297 O   0  0  0  0  0  0  0  0  0  0  0  0
  -59.1632  -15.0670  -15.6085 O   0  0  0  0  0  0  0  0  0  0  0  0
  -58.9108  -14.9036  -18.0714 O   0  0  0  0  0  0  0  0  0  0  0  0
  -60.1086  -15.2832  -15.6277 H   0  0  0  0  0  0  0  0  0  0  0  0
  -59.8417  -15.0777  -18.2812 H   0  0  0  0  0  0  0  0  0  0  0  0
 34 35  2  0  0  0
 34 36  1  0  0  0
 34 37  1  0  0  0
 34 33  1  0  0  0
 29 30  2  0  0  0
 29 31  1  0  0  0
 29 33  1  0  0  0
 29 28  1  0  0  0
 24 25  2  0  0  0
 24 26  1  0  0  0
 24 28  1  0  0  0
 24 23  1  0  0  0
 23 22  1  0  0  0
 22  1  1  0  0  0
  1  2  1  0  0  0
  1  3  1  0  0  0
  2  7  1  0  0  0
  3  4  1  0  0  0
  3  5  1  0  0  0
  5  6  1  0  0  0
  5  7  1  0  0  0
  7 10  1  0  0  0
 10 11  1  0  0  0
 10 19  1  0  0  0
 11 12  2  0  0  0
 12 13  1  0  0  0
 13 14  1  0  0  0
 13 19  2  0  0  0
 14 15  1  0  0  0
 14 16  2  0  0  0
 16 17  1  0  0  0
 17 18  2  0  0  0
 18 19  1  0  0  0
 36 38  1  0  0  0
 37 39  1  0  0  0
 31 32  1  0  0  0
 26 27  1  0  0  0
  4  8  1  0  0  0
  6  9  1  0  0  0
 15 20  1  0  0  0
 15 21  1  0  0  0
M  END
> <minimizedAffinity>
-8.41077

$$$$
