4LZR_LOC_A_201
  RCSB PDB12061713393D
Coordinates from PDB:4LZR:A:201 Model:1 without hydrogens
 29 31  0  0  0  0            999 V2000
  -14.5370    6.0370   -5.7800   O 0  0  0  0  0  0  0  0  0  0  0  0
  -13.8110    6.4180   -4.8550   C 0  0  0  0  0  0  0  0  0  0  0  0
  -12.3610    6.0970   -4.7960   C 0  0  0  0  0  0  0  0  0  0  0  0
  -14.2680    7.1770   -3.8470   N 0  0  0  0  0  0  0  0  0  0  0  0
  -13.3990    7.8030   -2.8640   C 0  0  0  0  0  0  0  0  0  0  0  0
  -13.1780    6.9710   -1.6150   C 0  0  0  0  0  0  0  0  0  0  0  0
  -14.1460    6.1160   -1.2320   C 0  0  0  0  0  0  0  0  0  0  0  0
  -13.9090    9.2110   -2.5360   C 0  0  0  0  0  0  0  0  0  0  0  0
  -13.0720    9.9320   -1.4750   C 0  0  0  0  0  0  0  0  0  0  0  0
  -11.5990    9.6260   -1.6240   C 0  0  0  0  0  0  0  0  0  0  0  0
  -10.7890   10.6660   -2.0600   C 0  0  0  0  0  0  0  0  0  0  0  0
   -9.4250   10.4750   -2.2230   C 0  0  0  0  0  0  0  0  0  0  0  0
   -8.8700    9.2220   -1.9540   C 0  0  0  0  0  0  0  0  0  0  0  0
   -9.6750    8.1680   -1.5260   C 0  0  0  0  0  0  0  0  0  0  0  0
   -9.0870    6.9490   -1.2960   O 0  0  0  0  0  0  0  0  0  0  0  0
   -9.0450    6.0520   -2.4150   C 0  0  0  0  0  0  0  0  0  0  0  0
   -7.5060    9.0360   -2.0910   O 0  0  0  0  0  0  0  0  0  0  0  0
   -6.6980    9.4670   -1.0060   C 0  0  0  0  0  0  0  0  0  0  0  0
   -8.6080   11.5050   -2.6350   O 0  0  0  0  0  0  0  0  0  0  0  0
   -9.0390   12.8530   -2.8820   C 0  0  0  0  0  0  0  0  0  0  0  0
  -11.0500    8.3640   -1.3680   C 0  0  0  0  0  0  0  0  0  0  0  0
  -11.9260    7.2420   -0.8870   C 0  0  0  0  0  0  0  0  0  0  0  0
  -11.4770    6.6850    0.2460   C 0  0  0  0  0  0  0  0  0  0  0  0
  -12.0020    5.5830    1.0320   C 0  0  0  0  0  0  0  0  0  0  0  0
  -13.1580    4.9330    0.8990   C 0  0  0  0  0  0  0  0  0  0  0  0
  -14.2040    5.1940   -0.0890   C 0  0  0  0  0  0  0  0  0  0  0  0
  -15.2340    4.5570    0.0340   O 0  0  0  0  0  0  0  0  0  0  0  0
  -13.4060    3.8550    1.8360   O 0  0  0  0  0  0  0  0  0  0  0  0
  -12.3330    3.1890    2.5060   C 0  0  0  0  0  0  0  0  0  0  0  0
  1  2  2  0  0  0  0
  2  3  1  0  0  0  0
  2  4  1  0  0  0  0
  4  5  1  0  0  0  0
  5  6  1  0  0  0  0
  5  8  1  0  0  0  0
  6  7  2  0  0  0  0
  6 22  1  0  0  0  0
  7 26  1  0  0  0  0
  8  9  1  0  0  0  0
  9 10  1  0  0  0  0
 10 11  2  0  0  0  0
 10 21  1  0  0  0  0
 11 12  1  0  0  0  0
 12 13  2  0  0  0  0
 12 19  1  0  0  0  0
 13 14  1  0  0  0  0
 13 17  1  0  0  0  0
 14 15  1  0  0  0  0
 14 21  2  0  0  0  0
 15 16  1  0  0  0  0
 17 18  1  0  0  0  0
 19 20  1  0  0  0  0
 21 22  1  0  0  0  0
 22 23  2  0  0  0  0
 23 24  1  0  0  0  0
 24 25  2  0  0  0  0
 25 26  1  0  0  0  0
 25 28  1  0  0  0  0
 26 27  2  0  0  0  0
 28 29  1  0  0  0  0
A    1
O4
A    2
C12
A    3
C13
A    4
N1
A    5
C11
A    6
C14
A    7
C15
A    8
C10
A    9
C9
A   10
C8
A   11
C7
A   12
C5
A   13
C3
A   14
C1
A   15
O1
A   16
C2
A   17
O2
A   18
C4
A   19
O3
A   20
C6
A   21
C22
A   22
C21
A   23
C20
A   24
C19
A   25
C17
A   26
C16
A   27
O5
A   28
O6
A   29
C18
M  END
>  <InstanceId>
4LZR_LOC_A_201

>  <ChemCompId>
LOC

>  <PdbId>
4LZR

>  <ChainId>
A

>  <ResidueNumber>
201

>  <InsertionCode>


>  <Model>
1

>  <AltIds>


>  <MissingHeavyAtoms>
0

>  <ObservedFormula>
C22 N O6

>  <Name>
N-[(7S)-1,2,3,10-tetramethoxy-9-oxo-6,7-dihydro-5H-benzo[d]heptalen-7-yl]ethanamide

>  <SystematicName>
N-[(7S)-1,2,3,10-tetramethoxy-9-oxo-6,7-dihydro-5H-benzo[d]heptalen-7-yl]ethanamide

>  <Synonyms>
COLCHICINE

>  <Type>
NON-POLYMER

>  <Formula>
C22 H25 N O6

>  <MolecularWeight>
399.437

>  <ModifiedDate>
2011-06-04

>  <Parent>


>  <OneLetterCode>


>  <SubcomponentList>


>  <AmbiguousFlag>
N

>  <InChI>
InChI=1S/C22H25NO6/c1-12(24)23-16-8-6-13-10-19(27-3)21(28-4)22(29-5)20(13)14-7-9-18(26-2)17(25)11-15(14)16/h7,9-11,16H,6,8H2,1-5H3,(H,23,24)/t16-/m0/s1

>  <InChIKey>
IAKHMKGGTNLKSZ-INIZCTEOSA-N

>  <SMILES>
CC(=O)N[C@H]1CCc2cc(c(c(c2C3=CC=C(C(=O)C=C13)OC)OC)OC)OC

$$$$
