4D3H_2BA_A_110


 52 58  0  0  0  0  0  0  0  0999 V2000
   -8.6699   -7.4068   -9.4706 P   0  0  0  0  0  0  0  0  0  0  0  0
   -7.8792   -8.2284   -8.4893 O   0  0  0  0  0  0  0  0  0  0  0  0
   -8.5526   -5.9584   -9.6687 O   0  0  0  0  0  0  0  0  0  0  0  0
   -8.1671   -8.0452  -10.9178 O   0  0  0  0  0  0  0  0  0  0  0  0
   -8.4227   -7.3691  -12.1511 C   0  0  0  0  0  0  0  0  0  0  0  0
   -7.8476   -8.2735  -13.2501 C   0  0  0  0  0  0  0  0  0  0  0  0
   -6.4124   -8.3054  -13.0661 O   0  0  0  0  0  0  0  0  0  0  0  0
   -8.2378   -9.7346  -13.1797 C   0  0  0  0  0  0  0  0  0  0  0  0
   -9.4677  -10.1042  -13.8207 O   0  0  0  0  0  0  0  0  0  0  0  0
   -7.0292  -10.4253  -13.7648 C   0  0  0  0  0  0  0  0  0  0  0  0
   -7.0740  -10.4708  -15.2008 O   0  0  0  0  0  0  0  0  0  0  0  0
   -5.8640   -9.5723  -13.3418 C   0  0  0  0  0  0  0  0  0  0  0  0
  -10.3662  -11.2682  -13.2168 P   0  0  0  0  0  0  0  0  0  0  0  0
   -9.5836  -12.5606  -13.0259 O   0  0  0  0  0  0  0  0  0  0  0  0
  -11.4918  -11.3857  -14.1655 O   0  0  0  0  0  0  0  0  0  0  0  0
  -10.7319  -10.6751  -11.7430 O   0  0  0  0  0  0  0  0  0  0  0  0
  -11.5822   -9.5363  -11.6086 C   0  0  0  0  0  0  0  0  0  0  0  0
  -11.8854   -9.2555  -10.1555 C   0  0  0  0  0  0  0  0  0  0  0  0
  -12.5516  -10.4159   -9.6240 O   0  0  0  0  0  0  0  0  0  0  0  0
  -10.6492   -9.1193   -9.2936 C   0  0  0  0  0  0  0  0  0  0  0  0
  -10.2105   -7.8114   -9.4363 O   0  0  0  0  0  0  0  0  0  0  0  0
  -11.1781   -9.4589   -7.9168 C   0  0  0  0  0  0  0  0  0  0  0  0
  -11.8247   -8.3149   -7.2838 O   0  0  0  0  0  0  0  0  0  0  0  0
  -12.1986  -10.5391   -8.2345 C   0  0  0  0  0  0  0  0  0  0  0  0
   -7.6153   -5.7098   -9.6899 H   0  0  0  0  0  0  0  0  0  0  0  0
   -7.1276   -9.5680  -15.5514 H   0  0  0  0  0  0  0  0  0  0  0  0
  -11.1696  -11.7461  -15.0064 H   0  0  0  0  0  0  0  0  0  0  0  0
  -12.5373   -7.9890   -7.8556 H   0  0  0  0  0  0  0  0  0  0  0  0
   -5.1031  -10.0645  -12.1309 N   0  0  0  0  0  0  0  0  0  0  0  0
   -5.3135   -9.7236  -10.8024 C   0  0  0  0  0  0  0  0  0  0  0  0
   -4.4195  -10.3182   -9.9701 N   0  0  0  0  0  0  0  0  0  0  0  0
   -3.6435  -11.0586  -10.7993 C   0  0  0  0  0  0  0  0  0  0  0  0
   -2.5340  -11.9760  -10.5851 C   0  0  0  0  0  0  0  0  0  0  0  0
   -2.0810  -12.1823   -9.3542 N   0  0  0  0  0  0  0  0  0  0  0  0
   -1.9831  -12.5713  -11.6664 N   0  0  0  0  0  0  0  0  0  0  0  0
   -2.4526  -12.3941  -12.9050 C   0  0  0  0  0  0  0  0  0  0  0  0
   -3.4736  -11.5957  -13.1818 N   0  0  0  0  0  0  0  0  0  0  0  0
   -4.1044  -10.9323  -12.1706 C   0  0  0  0  0  0  0  0  0  0  0  0
   -2.5078  -11.7309   -8.5905 H   0  0  0  0  0  0  0  0  0  0  0  0
   -1.3182  -12.7866   -9.2053 H   0  0  0  0  0  0  0  0  0  0  0  0
  -11.7045  -11.9297   -8.1260 N   0  0  0  0  0  0  0  0  0  0  0  0
  -10.7153  -12.4928   -8.8635 C   0  0  0  0  0  0  0  0  0  0  0  0
  -10.5074  -13.7939   -8.5296 N   0  0  0  0  0  0  0  0  0  0  0  0
  -11.3790  -14.0676   -7.5772 C   0  0  0  0  0  0  0  0  0  0  0  0
  -11.7153  -15.2599   -6.7571 C   0  0  0  0  0  0  0  0  0  0  0  0
  -11.0637  -16.4228   -6.9197 N   0  0  0  0  0  0  0  0  0  0  0  0
  -12.6788  -15.1154   -5.8302 N   0  0  0  0  0  0  0  0  0  0  0  0
  -13.3666  -13.9688   -5.6489 C   0  0  0  0  0  0  0  0  0  0  0  0
  -13.1298  -12.8620   -6.3707 N   0  0  0  0  0  0  0  0  0  0  0  0
  -12.1663  -12.8476   -7.3222 C   0  0  0  0  0  0  0  0  0  0  0  0
  -10.3622  -16.5022   -7.6059 H   0  0  0  0  0  0  0  0  0  0  0  0
  -11.2876  -17.1959   -6.3528 H   0  0  0  0  0  0  0  0  0  0  0  0
  1  2  2  0  0  0
  1  3  1  0  0  0
  1  4  1  0  0  0
  1 21  1  0  0  0
  4  5  1  0  0  0
  5  6  1  0  0  0
  6  7  1  0  0  0
  6  8  1  0  0  0
  7 12  1  0  0  0
  8  9  1  0  0  0
  8 10  1  0  0  0
  9 13  1  0  0  0
 10 11  1  0  0  0
 10 12  1  0  0  0
 12 29  1  0  0  0
 29 30  1  0  0  0
 29 38  1  0  0  0
 30 31  2  0  0  0
 31 32  1  0  0  0
 32 33  2  0  0  0
 32 38  1  0  0  0
 33 34  1  0  0  0
 33 35  1  0  0  0
 35 36  2  0  0  0
 36 37  1  0  0  0
 37 38  2  0  0  0
 13 14  2  0  0  0
 13 15  1  0  0  0
 13 16  1  0  0  0
 16 17  1  0  0  0
 17 18  1  0  0  0
 18 19  1  0  0  0
 18 20  1  0  0  0
 19 24  1  0  0  0
 20 21  1  0  0  0
 20 22  1  0  0  0
 22 23  1  0  0  0
 22 24  1  0  0  0
 24 41  1  0  0  0
 41 42  1  0  0  0
 41 50  1  0  0  0
 42 43  2  0  0  0
 43 44  1  0  0  0
 44 45  2  0  0  0
 44 50  1  0  0  0
 45 46  1  0  0  0
 45 47  1  0  0  0
 47 48  2  0  0  0
 48 49  1  0  0  0
 49 50  2  0  0  0
  3 25  1  0  0  0
 11 26  1  0  0  0
 34 39  1  0  0  0
 34 40  1  0  0  0
 15 27  1  0  0  0
 23 28  1  0  0  0
 46 51  1  0  0  0
 46 52  1  0  0  0
M  END
> <minimizedAffinity>
-14.10160

$$$$
4D3H_2BA_A_110


 52 58  0  0  0  0  0  0  0  0999 V2000
  -10.4542  -11.1245  -13.1543 P   0  0  0  0  0  0  0  0  0  0  0  0
   -9.8141  -12.3997  -12.6774 O   0  0  0  0  0  0  0  0  0  0  0  0
  -11.6268  -11.0277  -14.0299 O   0  0  0  0  0  0  0  0  0  0  0  0
  -10.9729  -10.4596  -11.7248 O   0  0  0  0  0  0  0  0  0  0  0  0
  -11.9130   -9.3829  -11.7100 C   0  0  0  0  0  0  0  0  0  0  0  0
  -12.1138   -9.0241  -10.2309 C   0  0  0  0  0  0  0  0  0  0  0  0
  -12.7511  -10.1605   -9.6010 O   0  0  0  0  0  0  0  0  0  0  0  0
  -10.8519   -8.8390   -9.4152 C   0  0  0  0  0  0  0  0  0  0  0  0
  -10.2626   -7.5303   -9.4287 O   0  0  0  0  0  0  0  0  0  0  0  0
  -11.2832   -9.2849   -8.0384 C   0  0  0  0  0  0  0  0  0  0  0  0
  -11.9261   -8.2295   -7.3043 O   0  0  0  0  0  0  0  0  0  0  0  0
  -12.2835  -10.3801   -8.2914 C   0  0  0  0  0  0  0  0  0  0  0  0
   -8.6842   -7.3628   -9.3414 P   0  0  0  0  0  0  0  0  0  0  0  0
   -8.0942   -8.0802   -8.1346 O   0  0  0  0  0  0  0  0  0  0  0  0
   -8.4756   -5.9009   -9.3286 O   0  0  0  0  0  0  0  0  0  0  0  0
   -8.1924   -8.1438  -10.6851 O   0  0  0  0  0  0  0  0  0  0  0  0
   -8.4813   -7.6153  -11.9794 C   0  0  0  0  0  0  0  0  0  0  0  0
   -7.8133   -8.4334  -13.0597 C   0  0  0  0  0  0  0  0  0  0  0  0
   -6.3939   -8.3767  -12.8252 O   0  0  0  0  0  0  0  0  0  0  0  0
   -8.1349   -9.9102  -12.9881 C   0  0  0  0  0  0  0  0  0  0  0  0
   -9.3499  -10.0815  -13.6346 O   0  0  0  0  0  0  0  0  0  0  0  0
   -6.9514  -10.5318  -13.6978 C   0  0  0  0  0  0  0  0  0  0  0  0
   -7.1079  -10.5017  -15.1476 O   0  0  0  0  0  0  0  0  0  0  0  0
   -5.8162   -9.6188  -13.2653 C   0  0  0  0  0  0  0  0  0  0  0  0
  -12.3006  -11.6621  -13.7392 H   0  0  0  0  0  0  0  0  0  0  0  0
  -12.7013   -7.9183   -7.7974 H   0  0  0  0  0  0  0  0  0  0  0  0
   -8.8001   -5.5353   -8.4908 H   0  0  0  0  0  0  0  0  0  0  0  0
   -7.2423   -9.5864  -15.4394 H   0  0  0  0  0  0  0  0  0  0  0  0
  -11.7470  -11.7898   -8.1795 N   0  0  0  0  0  0  0  0  0  0  0  0
  -10.7231  -12.3673   -8.9168 C   0  0  0  0  0  0  0  0  0  0  0  0
  -10.5231  -13.6702   -8.5882 N   0  0  0  0  0  0  0  0  0  0  0  0
  -11.4346  -13.9047   -7.6124 C   0  0  0  0  0  0  0  0  0  0  0  0
  -11.7434  -15.0595   -6.7821 C   0  0  0  0  0  0  0  0  0  0  0  0
  -11.0707  -16.1910   -6.9548 N   0  0  0  0  0  0  0  0  0  0  0  0
  -12.7354  -14.9411   -5.8715 N   0  0  0  0  0  0  0  0  0  0  0  0
  -13.3961  -13.7973   -5.6691 C   0  0  0  0  0  0  0  0  0  0  0  0
  -13.1589  -12.6946   -6.3652 N   0  0  0  0  0  0  0  0  0  0  0  0
  -12.1855  -12.6965   -7.3206 C   0  0  0  0  0  0  0  0  0  0  0  0
  -10.3541  -16.2398   -7.6281 H   0  0  0  0  0  0  0  0  0  0  0  0
  -11.2885  -16.9813   -6.4096 H   0  0  0  0  0  0  0  0  0  0  0  0
   -5.0468  -10.0780  -12.0877 N   0  0  0  0  0  0  0  0  0  0  0  0
   -5.2193   -9.6726  -10.8049 C   0  0  0  0  0  0  0  0  0  0  0  0
   -4.3431  -10.2740   -9.9576 N   0  0  0  0  0  0  0  0  0  0  0  0
   -3.5968  -11.0630  -10.7074 C   0  0  0  0  0  0  0  0  0  0  0  0
   -2.4706  -12.0016  -10.4668 C   0  0  0  0  0  0  0  0  0  0  0  0
   -1.9731  -12.1903   -9.2339 N   0  0  0  0  0  0  0  0  0  0  0  0
   -1.9915  -12.6709  -11.5303 N   0  0  0  0  0  0  0  0  0  0  0  0
   -2.4539  -12.4958  -12.7857 C   0  0  0  0  0  0  0  0  0  0  0  0
   -3.4525  -11.6472  -13.0765 N   0  0  0  0  0  0  0  0  0  0  0  0
   -4.0548  -10.9252  -12.1018 C   0  0  0  0  0  0  0  0  0  0  0  0
   -2.3418  -11.6874   -8.4720 H   0  0  0  0  0  0  0  0  0  0  0  0
   -1.2397  -12.8315   -9.0918 H   0  0  0  0  0  0  0  0  0  0  0  0
  1  2  2  0  0  0
  1  3  1  0  0  0
  1  4  1  0  0  0
  1 21  1  0  0  0
  4  5  1  0  0  0
  5  6  1  0  0  0
  6  7  1  0  0  0
  6  8  1  0  0  0
  7 12  1  0  0  0
  8  9  1  0  0  0
  8 10  1  0  0  0
  9 13  1  0  0  0
 10 11  1  0  0  0
 10 12  1  0  0  0
 12 29  1  0  0  0
 29 30  1  0  0  0
 29 38  1  0  0  0
 30 31  2  0  0  0
 31 32  1  0  0  0
 32 33  2  0  0  0
 32 38  1  0  0  0
 33 34  1  0  0  0
 33 35  1  0  0  0
 35 36  2  0  0  0
 36 37  1  0  0  0
 37 38  2  0  0  0
 13 14  2  0  0  0
 13 15  1  0  0  0
 13 16  1  0  0  0
 16 17  1  0  0  0
 17 18  1  0  0  0
 18 19  1  0  0  0
 18 20  1  0  0  0
 19 24  1  0  0  0
 20 21  1  0  0  0
 20 22  1  0  0  0
 22 23  1  0  0  0
 22 24  1  0  0  0
 24 41  1  0  0  0
 41 42  1  0  0  0
 41 50  1  0  0  0
 42 43  2  0  0  0
 43 44  1  0  0  0
 44 45  2  0  0  0
 44 50  1  0  0  0
 45 46  1  0  0  0
 45 47  1  0  0  0
 47 48  2  0  0  0
 48 49  1  0  0  0
 49 50  2  0  0  0
  3 25  1  0  0  0
 11 26  1  0  0  0
 34 39  1  0  0  0
 34 40  1  0  0  0
 15 27  1  0  0  0
 23 28  1  0  0  0
 46 51  1  0  0  0
 46 52  1  0  0  0
M  END
> <minimizedAffinity>
-13.43516

$$$$
4D3H_2BA_A_110


 52 58  0  0  0  0  0  0  0  0999 V2000
  -10.5866   -9.6424  -13.7061 P   0  0  0  0  0  0  0  0  0  0  0  0
  -10.3982  -10.9142  -12.9250 O   0  0  0  0  0  0  0  0  0  0  0  0
  -11.5803   -9.4227  -14.7622 O   0  0  0  0  0  0  0  0  0  0  0  0
  -11.0402   -8.5839  -12.5109 O   0  0  0  0  0  0  0  0  0  0  0  0
  -11.6239   -7.3183  -12.8286 C   0  0  0  0  0  0  0  0  0  0  0  0
  -11.8690   -6.6218  -11.4827 C   0  0  0  0  0  0  0  0  0  0  0  0
  -12.8717   -7.3943  -10.7811 O   0  0  0  0  0  0  0  0  0  0  0  0
  -10.7024   -6.6118  -10.5179 C   0  0  0  0  0  0  0  0  0  0  0  0
   -9.7613   -5.5370  -10.6565 O   0  0  0  0  0  0  0  0  0  0  0  0
  -11.3889   -6.6338   -9.1731 C   0  0  0  0  0  0  0  0  0  0  0  0
  -11.7731   -5.3182   -8.7398 O   0  0  0  0  0  0  0  0  0  0  0  0
  -12.6306   -7.4541   -9.3954 C   0  0  0  0  0  0  0  0  0  0  0  0
   -8.2208   -5.7775  -10.3465 P   0  0  0  0  0  0  0  0  0  0  0  0
   -7.9964   -6.3599   -8.9573 O   0  0  0  0  0  0  0  0  0  0  0  0
   -7.6002   -4.4525  -10.5465 O   0  0  0  0  0  0  0  0  0  0  0  0
   -7.8357   -6.9206  -11.4430 O   0  0  0  0  0  0  0  0  0  0  0  0
   -7.8190   -6.6138  -12.8371 C   0  0  0  0  0  0  0  0  0  0  0  0
   -7.3052   -7.7839  -13.6428 C   0  0  0  0  0  0  0  0  0  0  0  0
   -5.9638   -8.0565  -13.1965 O   0  0  0  0  0  0  0  0  0  0  0  0
   -8.0466   -9.0758  -13.3764 C   0  0  0  0  0  0  0  0  0  0  0  0
   -9.1827   -9.0502  -14.1714 O   0  0  0  0  0  0  0  0  0  0  0  0
   -7.0252  -10.1202  -13.7721 C   0  0  0  0  0  0  0  0  0  0  0  0
   -7.0103  -10.3500  -15.2124 O   0  0  0  0  0  0  0  0  0  0  0  0
   -5.7272   -9.4701  -13.3228 C   0  0  0  0  0  0  0  0  0  0  0  0
  -12.4360   -9.7826  -14.4809 H   0  0  0  0  0  0  0  0  0  0  0  0
  -12.3675   -4.9224   -9.3963 H   0  0  0  0  0  0  0  0  0  0  0  0
   -7.8925   -3.8494   -9.8453 H   0  0  0  0  0  0  0  0  0  0  0  0
   -6.8418   -9.5124  -15.6717 H   0  0  0  0  0  0  0  0  0  0  0  0
  -12.5407   -8.9008   -8.9633 N   0  0  0  0  0  0  0  0  0  0  0  0
  -13.5215   -9.6621   -8.3439 C   0  0  0  0  0  0  0  0  0  0  0  0
  -13.0927  -10.9182   -8.0546 N   0  0  0  0  0  0  0  0  0  0  0  0
  -11.8192  -10.9437   -8.5189 C   0  0  0  0  0  0  0  0  0  0  0  0
  -10.7941  -11.9748   -8.5850 C   0  0  0  0  0  0  0  0  0  0  0  0
  -11.0405  -13.1788   -8.0826 N   0  0  0  0  0  0  0  0  0  0  0  0
   -9.6043  -11.6540   -9.1405 N   0  0  0  0  0  0  0  0  0  0  0  0
   -9.3585  -10.4550   -9.6769 C   0  0  0  0  0  0  0  0  0  0  0  0
  -10.2458   -9.4705   -9.6795 N   0  0  0  0  0  0  0  0  0  0  0  0
  -11.4805   -9.6740   -9.1367 C   0  0  0  0  0  0  0  0  0  0  0  0
  -11.9196  -13.3761   -7.6857 H   0  0  0  0  0  0  0  0  0  0  0  0
  -10.3441  -13.8743   -8.1069 H   0  0  0  0  0  0  0  0  0  0  0  0
   -5.2543   -9.8625  -11.9767 N   0  0  0  0  0  0  0  0  0  0  0  0
   -5.8124   -9.5088  -10.7922 C   0  0  0  0  0  0  0  0  0  0  0  0
   -5.1316  -10.0226   -9.7338 N   0  0  0  0  0  0  0  0  0  0  0  0
   -4.1232  -10.7021  -10.2466 C   0  0  0  0  0  0  0  0  0  0  0  0
   -3.0003  -11.5079   -9.7015 C   0  0  0  0  0  0  0  0  0  0  0  0
   -2.8342  -11.6648   -8.3782 N   0  0  0  0  0  0  0  0  0  0  0  0
   -2.1770  -12.0928  -10.5895 N   0  0  0  0  0  0  0  0  0  0  0  0
   -2.3018  -11.9449  -11.9248 C   0  0  0  0  0  0  0  0  0  0  0  0
   -3.2786  -11.2125  -12.4828 N   0  0  0  0  0  0  0  0  0  0  0  0
   -4.2020  -10.5876  -11.7141 C   0  0  0  0  0  0  0  0  0  0  0  0
   -3.4512  -11.2255   -7.7492 H   0  0  0  0  0  0  0  0  0  0  0  0
   -2.0955  -12.2190   -8.0371 H   0  0  0  0  0  0  0  0  0  0  0  0
  1  2  2  0  0  0
  1  3  1  0  0  0
  1  4  1  0  0  0
  1 21  1  0  0  0
  4  5  1  0  0  0
  5  6  1  0  0  0
  6  7  1  0  0  0
  6  8  1  0  0  0
  7 12  1  0  0  0
  8  9  1  0  0  0
  8 10  1  0  0  0
  9 13  1  0  0  0
 10 11  1  0  0  0
 10 12  1  0  0  0
 12 29  1  0  0  0
 29 30  1  0  0  0
 29 38  1  0  0  0
 30 31  2  0  0  0
 31 32  1  0  0  0
 32 33  2  0  0  0
 32 38  1  0  0  0
 33 34  1  0  0  0
 33 35  1  0  0  0
 35 36  2  0  0  0
 36 37  1  0  0  0
 37 38  2  0  0  0
 13 14  2  0  0  0
 13 15  1  0  0  0
 13 16  1  0  0  0
 16 17  1  0  0  0
 17 18  1  0  0  0
 18 19  1  0  0  0
 18 20  1  0  0  0
 19 24  1  0  0  0
 20 21  1  0  0  0
 20 22  1  0  0  0
 22 23  1  0  0  0
 22 24  1  0  0  0
 24 41  1  0  0  0
 41 42  1  0  0  0
 41 50  1  0  0  0
 42 43  2  0  0  0
 43 44  1  0  0  0
 44 45  2  0  0  0
 44 50  1  0  0  0
 45 46  1  0  0  0
 45 47  1  0  0  0
 47 48  2  0  0  0
 48 49  1  0  0  0
 49 50  2  0  0  0
  3 25  1  0  0  0
 11 26  1  0  0  0
 34 39  1  0  0  0
 34 40  1  0  0  0
 15 27  1  0  0  0
 23 28  1  0  0  0
 46 51  1  0  0  0
 46 52  1  0  0  0
M  END
> <minimizedAffinity>
-12.37089

$$$$
4D3H_2BA_A_110


 52 58  0  0  0  0  0  0  0  0999 V2000
  -10.5928  -10.1303  -13.4936 P   0  0  0  0  0  0  0  0  0  0  0  0
  -10.2899  -11.3665  -12.6915 O   0  0  0  0  0  0  0  0  0  0  0  0
  -11.6917   -9.9770  -14.4527 O   0  0  0  0  0  0  0  0  0  0  0  0
  -10.9585   -9.0403  -12.2966 O   0  0  0  0  0  0  0  0  0  0  0  0
  -11.6088   -7.8036  -12.5983 C   0  0  0  0  0  0  0  0  0  0  0  0
  -11.7414   -7.0640  -11.2596 C   0  0  0  0  0  0  0  0  0  0  0  0
  -12.6463   -7.8363  -10.4356 O   0  0  0  0  0  0  0  0  0  0  0  0
  -10.4864   -6.9867  -10.4164 C   0  0  0  0  0  0  0  0  0  0  0  0
   -9.5965   -5.8930  -10.6850 O   0  0  0  0  0  0  0  0  0  0  0  0
  -11.0364   -6.9767   -9.0101 C   0  0  0  0  0  0  0  0  0  0  0  0
  -11.4159   -5.6566   -8.5866 O   0  0  0  0  0  0  0  0  0  0  0  0
  -12.2684   -7.8377   -9.0794 C   0  0  0  0  0  0  0  0  0  0  0  0
   -8.0265   -6.0804  -10.5214 P   0  0  0  0  0  0  0  0  0  0  0  0
   -7.6490   -6.6041   -9.1420 O   0  0  0  0  0  0  0  0  0  0  0  0
   -7.4691   -4.7477  -10.8278 O   0  0  0  0  0  0  0  0  0  0  0  0
   -7.7165   -7.2530  -11.6105 O   0  0  0  0  0  0  0  0  0  0  0  0
   -7.8463   -6.9983  -13.0092 C   0  0  0  0  0  0  0  0  0  0  0  0
   -7.3789   -8.1835  -13.8210 C   0  0  0  0  0  0  0  0  0  0  0  0
   -5.9925   -8.4032  -13.5010 O   0  0  0  0  0  0  0  0  0  0  0  0
   -8.0511   -9.4839  -13.4377 C   0  0  0  0  0  0  0  0  0  0  0  0
   -9.2601   -9.5185  -14.1163 O   0  0  0  0  0  0  0  0  0  0  0  0
   -7.0422  -10.5147  -13.8966 C   0  0  0  0  0  0  0  0  0  0  0  0
   -7.1621  -10.7977  -15.3224 O   0  0  0  0  0  0  0  0  0  0  0  0
   -5.7267   -9.8137  -13.6013 C   0  0  0  0  0  0  0  0  0  0  0  0
  -12.5043  -10.3489  -14.0755 H   0  0  0  0  0  0  0  0  0  0  0  0
  -12.0837   -5.3017   -9.1940 H   0  0  0  0  0  0  0  0  0  0  0  0
   -7.7091   -4.1268  -10.1223 H   0  0  0  0  0  0  0  0  0  0  0  0
   -7.0651   -9.9737  -15.8249 H   0  0  0  0  0  0  0  0  0  0  0  0
  -12.0926   -9.2643   -8.6086 N   0  0  0  0  0  0  0  0  0  0  0  0
  -11.0598  -10.1374   -8.9191 C   0  0  0  0  0  0  0  0  0  0  0  0
  -11.2345  -11.3622   -8.3582 N   0  0  0  0  0  0  0  0  0  0  0  0
  -12.3964  -11.2437   -7.6698 C   0  0  0  0  0  0  0  0  0  0  0  0
  -13.1491  -12.1417   -6.8064 C   0  0  0  0  0  0  0  0  0  0  0  0
  -12.7118  -13.3790   -6.6053 N   0  0  0  0  0  0  0  0  0  0  0  0
  -14.2947  -11.6823   -6.2553 N   0  0  0  0  0  0  0  0  0  0  0  0
  -14.7258  -10.4291   -6.4266 C   0  0  0  0  0  0  0  0  0  0  0  0
  -14.0866   -9.5428   -7.1766 N   0  0  0  0  0  0  0  0  0  0  0  0
  -12.9220   -9.8956   -7.7928 C   0  0  0  0  0  0  0  0  0  0  0  0
  -11.8723  -13.6785   -7.0235 H   0  0  0  0  0  0  0  0  0  0  0  0
  -13.2269  -13.9971   -6.0379 H   0  0  0  0  0  0  0  0  0  0  0  0
   -5.1120  -10.1426  -12.2960 N   0  0  0  0  0  0  0  0  0  0  0  0
   -5.4765   -9.6483  -11.0867 C   0  0  0  0  0  0  0  0  0  0  0  0
   -4.7048  -10.1392  -10.0812 N   0  0  0  0  0  0  0  0  0  0  0  0
   -3.8324  -10.9465  -10.6546 C   0  0  0  0  0  0  0  0  0  0  0  0
   -2.7162  -11.8078  -10.1862 C   0  0  0  0  0  0  0  0  0  0  0  0
   -2.3885  -11.8764   -8.8857 N   0  0  0  0  0  0  0  0  0  0  0  0
   -2.0690  -12.5332  -11.1154 N   0  0  0  0  0  0  0  0  0  0  0  0
   -2.3583  -12.4783  -12.4321 C   0  0  0  0  0  0  0  0  0  0  0  0
   -3.3379  -11.7042  -12.9253 N   0  0  0  0  0  0  0  0  0  0  0  0
   -4.0967  -10.9392  -12.1049 C   0  0  0  0  0  0  0  0  0  0  0  0
   -2.8783  -11.3347   -8.2254 H   0  0  0  0  0  0  0  0  0  0  0  0
   -1.6585  -12.4683   -8.5926 H   0  0  0  0  0  0  0  0  0  0  0  0
  1  2  2  0  0  0
  1  3  1  0  0  0
  1  4  1  0  0  0
  1 21  1  0  0  0
  4  5  1  0  0  0
  5  6  1  0  0  0
  6  7  1  0  0  0
  6  8  1  0  0  0
  7 12  1  0  0  0
  8  9  1  0  0  0
  8 10  1  0  0  0
  9 13  1  0  0  0
 10 11  1  0  0  0
 10 12  1  0  0  0
 12 29  1  0  0  0
 29 30  1  0  0  0
 29 38  1  0  0  0
 30 31  2  0  0  0
 31 32  1  0  0  0
 32 33  2  0  0  0
 32 38  1  0  0  0
 33 34  1  0  0  0
 33 35  1  0  0  0
 35 36  2  0  0  0
 36 37  1  0  0  0
 37 38  2  0  0  0
 13 14  2  0  0  0
 13 15  1  0  0  0
 13 16  1  0  0  0
 16 17  1  0  0  0
 17 18  1  0  0  0
 18 19  1  0  0  0
 18 20  1  0  0  0
 19 24  1  0  0  0
 20 21  1  0  0  0
 20 22  1  0  0  0
 22 23  1  0  0  0
 22 24  1  0  0  0
 24 41  1  0  0  0
 41 42  1  0  0  0
 41 50  1  0  0  0
 42 43  2  0  0  0
 43 44  1  0  0  0
 44 45  2  0  0  0
 44 50  1  0  0  0
 45 46  1  0  0  0
 45 47  1  0  0  0
 47 48  2  0  0  0
 48 49  1  0  0  0
 49 50  2  0  0  0
  3 25  1  0  0  0
 11 26  1  0  0  0
 34 39  1  0  0  0
 34 40  1  0  0  0
 15 27  1  0  0  0
 23 28  1  0  0  0
 46 51  1  0  0  0
 46 52  1  0  0  0
M  END
> <minimizedAffinity>
-12.26259

$$$$
4D3H_2BA_A_110


 52 58  0  0  0  0  0  0  0  0999 V2000
   -8.2173   -5.7292  -10.8054 P   0  0  0  0  0  0  0  0  0  0  0  0
   -7.9003   -6.2888   -9.4454 O   0  0  0  0  0  0  0  0  0  0  0  0
   -7.6076   -4.5388  -11.4073 O   0  0  0  0  0  0  0  0  0  0  0  0
   -7.7266   -6.9676  -11.7955 O   0  0  0  0  0  0  0  0  0  0  0  0
   -7.5517   -6.7645  -13.1996 C   0  0  0  0  0  0  0  0  0  0  0  0
   -7.1347   -8.1275  -13.7699 C   0  0  0  0  0  0  0  0  0  0  0  0
   -5.8351   -8.4403  -13.2150 O   0  0  0  0  0  0  0  0  0  0  0  0
   -7.9828   -9.3098  -13.3523 C   0  0  0  0  0  0  0  0  0  0  0  0
   -9.1488   -9.5779  -14.1453 O   0  0  0  0  0  0  0  0  0  0  0  0
   -6.9867  -10.4447  -13.3536 C   0  0  0  0  0  0  0  0  0  0  0  0
   -6.8168  -11.0144  -14.6623 O   0  0  0  0  0  0  0  0  0  0  0  0
   -5.6903   -9.8108  -12.9275 C   0  0  0  0  0  0  0  0  0  0  0  0
  -10.4592  -10.1691  -13.4667 P   0  0  0  0  0  0  0  0  0  0  0  0
  -10.1776  -11.4445  -12.6835 O   0  0  0  0  0  0  0  0  0  0  0  0
  -11.3977  -10.3535  -14.5918 O   0  0  0  0  0  0  0  0  0  0  0  0
  -10.8407   -8.9950  -12.4021 O   0  0  0  0  0  0  0  0  0  0  0  0
  -11.2864   -7.7177  -12.8580 C   0  0  0  0  0  0  0  0  0  0  0  0
  -11.7075   -6.8457  -11.6984 C   0  0  0  0  0  0  0  0  0  0  0  0
  -12.7885   -7.5181  -11.0260 O   0  0  0  0  0  0  0  0  0  0  0  0
  -10.6460   -6.7045  -10.6293 C   0  0  0  0  0  0  0  0  0  0  0  0
   -9.7908   -5.6980  -11.0524 O   0  0  0  0  0  0  0  0  0  0  0  0
  -11.4666   -6.3596   -9.4051 C   0  0  0  0  0  0  0  0  0  0  0  0
  -11.7992   -4.9404   -9.3539 O   0  0  0  0  0  0  0  0  0  0  0  0
  -12.7182   -7.1925   -9.6262 C   0  0  0  0  0  0  0  0  0  0  0  0
   -6.6493   -4.5558  -11.2581 H   0  0  0  0  0  0  0  0  0  0  0  0
   -6.5192  -10.3266  -15.2782 H   0  0  0  0  0  0  0  0  0  0  0  0
  -11.0812  -11.0711  -15.1626 H   0  0  0  0  0  0  0  0  0  0  0  0
  -12.2683   -4.6888  -10.1648 H   0  0  0  0  0  0  0  0  0  0  0  0
   -5.3307   -9.9825  -11.4684 N   0  0  0  0  0  0  0  0  0  0  0  0
   -6.0057   -9.4802  -10.3651 C   0  0  0  0  0  0  0  0  0  0  0  0
   -5.3847   -9.7884   -9.1969 N   0  0  0  0  0  0  0  0  0  0  0  0
   -4.3053  -10.5128   -9.5818 C   0  0  0  0  0  0  0  0  0  0  0  0
   -3.2433  -11.1960   -8.8581 C   0  0  0  0  0  0  0  0  0  0  0  0
   -3.2081  -11.1355   -7.5323 N   0  0  0  0  0  0  0  0  0  0  0  0
   -2.3056  -11.8538   -9.5759 N   0  0  0  0  0  0  0  0  0  0  0  0
   -2.3508  -11.9466  -10.9083 C   0  0  0  0  0  0  0  0  0  0  0  0
   -3.2969  -11.3748  -11.6394 N   0  0  0  0  0  0  0  0  0  0  0  0
   -4.2929  -10.6741  -11.0249 C   0  0  0  0  0  0  0  0  0  0  0  0
   -3.9089  -10.6468   -7.0430 H   0  0  0  0  0  0  0  0  0  0  0  0
   -2.4812  -11.5792   -7.0384 H   0  0  0  0  0  0  0  0  0  0  0  0
  -12.7247   -8.5155   -8.9635 N   0  0  0  0  0  0  0  0  0  0  0  0
  -13.7849   -9.1095   -8.3611 C   0  0  0  0  0  0  0  0  0  0  0  0
  -13.4605  -10.3199   -7.8347 N   0  0  0  0  0  0  0  0  0  0  0  0
  -12.1785  -10.4963   -8.0938 C   0  0  0  0  0  0  0  0  0  0  0  0
  -11.1793  -11.5633   -7.8290 C   0  0  0  0  0  0  0  0  0  0  0  0
  -11.5135  -12.6796   -7.1614 N   0  0  0  0  0  0  0  0  0  0  0  0
   -9.9375  -11.3742   -8.3089 N   0  0  0  0  0  0  0  0  0  0  0  0
   -9.5601  -10.2596   -8.9692 C   0  0  0  0  0  0  0  0  0  0  0  0
  -10.4054   -9.2479   -9.2218 N   0  0  0  0  0  0  0  0  0  0  0  0
  -11.6988   -9.3095   -8.8250 C   0  0  0  0  0  0  0  0  0  0  0  0
  -12.4300  -12.7934   -6.8202 H   0  0  0  0  0  0  0  0  0  0  0  0
  -10.8420  -13.3841   -7.0131 H   0  0  0  0  0  0  0  0  0  0  0  0
  1  2  2  0  0  0
  1  3  1  0  0  0
  1  4  1  0  0  0
  1 21  1  0  0  0
  4  5  1  0  0  0
  5  6  1  0  0  0
  6  7  1  0  0  0
  6  8  1  0  0  0
  7 12  1  0  0  0
  8  9  1  0  0  0
  8 10  1  0  0  0
  9 13  1  0  0  0
 10 11  1  0  0  0
 10 12  1  0  0  0
 12 29  1  0  0  0
 29 30  1  0  0  0
 29 38  1  0  0  0
 30 31  2  0  0  0
 31 32  1  0  0  0
 32 33  2  0  0  0
 32 38  1  0  0  0
 33 34  1  0  0  0
 33 35  1  0  0  0
 35 36  2  0  0  0
 36 37  1  0  0  0
 37 38  2  0  0  0
 13 14  2  0  0  0
 13 15  1  0  0  0
 13 16  1  0  0  0
 16 17  1  0  0  0
 17 18  1  0  0  0
 18 19  1  0  0  0
 18 20  1  0  0  0
 19 24  1  0  0  0
 20 21  1  0  0  0
 20 22  1  0  0  0
 22 23  1  0  0  0
 22 24  1  0  0  0
 24 41  1  0  0  0
 41 42  1  0  0  0
 41 50  1  0  0  0
 42 43  2  0  0  0
 43 44  1  0  0  0
 44 45  2  0  0  0
 44 50  1  0  0  0
 45 46  1  0  0  0
 45 47  1  0  0  0
 47 48  2  0  0  0
 48 49  1  0  0  0
 49 50  2  0  0  0
  3 25  1  0  0  0
 11 26  1  0  0  0
 34 39  1  0  0  0
 34 40  1  0  0  0
 15 27  1  0  0  0
 23 28  1  0  0  0
 46 51  1  0  0  0
 46 52  1  0  0  0
M  END
> <minimizedAffinity>
-11.95449

$$$$
4D3H_2BA_A_110


 52 58  0  0  0  0  0  0  0  0999 V2000
   -7.8280   -5.6889  -10.9528 P   0  0  0  0  0  0  0  0  0  0  0  0
   -7.5155   -6.1721   -9.5628 O   0  0  0  0  0  0  0  0  0  0  0  0
   -7.1527   -4.5909  -11.6522 O   0  0  0  0  0  0  0  0  0  0  0  0
   -7.4513   -7.0263  -11.8607 O   0  0  0  0  0  0  0  0  0  0  0  0
   -7.2994   -6.9362  -13.2792 C   0  0  0  0  0  0  0  0  0  0  0  0
   -6.9938   -8.3624  -13.7579 C   0  0  0  0  0  0  0  0  0  0  0  0
   -5.7052   -8.7275  -13.2093 O   0  0  0  0  0  0  0  0  0  0  0  0
   -7.9113   -9.4485  -13.2378 C   0  0  0  0  0  0  0  0  0  0  0  0
   -9.1136   -9.6879  -13.9845 O   0  0  0  0  0  0  0  0  0  0  0  0
   -6.9974  -10.6490  -13.1779 C   0  0  0  0  0  0  0  0  0  0  0  0
   -6.9020  -11.3206  -14.4451 O   0  0  0  0  0  0  0  0  0  0  0  0
   -5.6491  -10.0810  -12.8263 C   0  0  0  0  0  0  0  0  0  0  0  0
  -10.4438  -10.1341  -13.2374 P   0  0  0  0  0  0  0  0  0  0  0  0
  -10.2317  -11.3678  -12.3699 O   0  0  0  0  0  0  0  0  0  0  0  0
  -11.4220  -10.3300  -14.3261 O   0  0  0  0  0  0  0  0  0  0  0  0
  -10.7143   -8.8633  -12.2529 O   0  0  0  0  0  0  0  0  0  0  0  0
  -11.0814   -7.5929  -12.7906 C   0  0  0  0  0  0  0  0  0  0  0  0
  -11.4100   -6.6130  -11.6887 C   0  0  0  0  0  0  0  0  0  0  0  0
  -12.5174   -7.1570  -10.9467 O   0  0  0  0  0  0  0  0  0  0  0  0
  -10.3136   -6.4728  -10.6553 C   0  0  0  0  0  0  0  0  0  0  0  0
   -9.4015   -5.5627  -11.1682 O   0  0  0  0  0  0  0  0  0  0  0  0
  -11.0757   -5.9843   -9.4423 C   0  0  0  0  0  0  0  0  0  0  0  0
  -11.3068   -4.5448   -9.4871 O   0  0  0  0  0  0  0  0  0  0  0  0
  -12.3879   -6.7390   -9.5760 C   0  0  0  0  0  0  0  0  0  0  0  0
   -6.1943   -4.6658  -11.5223 H   0  0  0  0  0  0  0  0  0  0  0  0
   -6.5733  -10.7013  -15.1154 H   0  0  0  0  0  0  0  0  0  0  0  0
  -11.1716  -11.1071  -14.8499 H   0  0  0  0  0  0  0  0  0  0  0  0
  -11.7783   -4.3183  -10.3040 H   0  0  0  0  0  0  0  0  0  0  0  0
   -5.2643  -10.1743  -11.3665 N   0  0  0  0  0  0  0  0  0  0  0  0
   -4.0108  -10.4457  -10.8368 C   0  0  0  0  0  0  0  0  0  0  0  0
   -4.0252  -10.4968   -9.4794 N   0  0  0  0  0  0  0  0  0  0  0  0
   -5.3158  -10.2360   -9.1562 C   0  0  0  0  0  0  0  0  0  0  0  0
   -6.0255  -10.0872   -7.8943 C   0  0  0  0  0  0  0  0  0  0  0  0
   -5.3727  -10.2539   -6.7503 N   0  0  0  0  0  0  0  0  0  0  0  0
   -7.3471   -9.8065   -7.9371 N   0  0  0  0  0  0  0  0  0  0  0  0
   -8.0052   -9.6059   -9.0828 C   0  0  0  0  0  0  0  0  0  0  0  0
   -7.4275   -9.6985  -10.2720 N   0  0  0  0  0  0  0  0  0  0  0  0
   -6.0971   -9.9876  -10.3548 C   0  0  0  0  0  0  0  0  0  0  0  0
   -4.4095  -10.4575   -6.7583 H   0  0  0  0  0  0  0  0  0  0  0  0
   -5.8517  -10.1738   -5.8939 H   0  0  0  0  0  0  0  0  0  0  0  0
  -12.4695   -8.0079   -8.8191 N   0  0  0  0  0  0  0  0  0  0  0  0
  -11.4247   -8.7334   -8.3483 C   0  0  0  0  0  0  0  0  0  0  0  0
  -11.8337   -9.8585   -7.7045 N   0  0  0  0  0  0  0  0  0  0  0  0
  -13.1516   -9.8571   -7.7737 C   0  0  0  0  0  0  0  0  0  0  0  0
  -14.2402  -10.7491   -7.2977 C   0  0  0  0  0  0  0  0  0  0  0  0
  -13.9698  -11.8795   -6.6252 N   0  0  0  0  0  0  0  0  0  0  0  0
  -15.5038  -10.3617   -7.5460 N   0  0  0  0  0  0  0  0  0  0  0  0
  -15.8144   -9.2423   -8.2324 C   0  0  0  0  0  0  0  0  0  0  0  0
  -14.8803   -8.4050   -8.7103 N   0  0  0  0  0  0  0  0  0  0  0  0
  -13.5632   -8.6490   -8.5114 C   0  0  0  0  0  0  0  0  0  0  0  0
  -13.0356  -12.1405   -6.4567 H   0  0  0  0  0  0  0  0  0  0  0  0
  -14.7057  -12.4473   -6.3007 H   0  0  0  0  0  0  0  0  0  0  0  0
  1  2  2  0  0  0
  1  3  1  0  0  0
  1  4  1  0  0  0
  1 21  1  0  0  0
  4  5  1  0  0  0
  5  6  1  0  0  0
  6  7  1  0  0  0
  6  8  1  0  0  0
  7 12  1  0  0  0
  8  9  1  0  0  0
  8 10  1  0  0  0
  9 13  1  0  0  0
 10 11  1  0  0  0
 10 12  1  0  0  0
 12 29  1  0  0  0
 29 30  1  0  0  0
 29 38  1  0  0  0
 30 31  2  0  0  0
 31 32  1  0  0  0
 32 33  2  0  0  0
 32 38  1  0  0  0
 33 34  1  0  0  0
 33 35  1  0  0  0
 35 36  2  0  0  0
 36 37  1  0  0  0
 37 38  2  0  0  0
 13 14  2  0  0  0
 13 15  1  0  0  0
 13 16  1  0  0  0
 16 17  1  0  0  0
 17 18  1  0  0  0
 18 19  1  0  0  0
 18 20  1  0  0  0
 19 24  1  0  0  0
 20 21  1  0  0  0
 20 22  1  0  0  0
 22 23  1  0  0  0
 22 24  1  0  0  0
 24 41  1  0  0  0
 41 42  1  0  0  0
 41 50  1  0  0  0
 42 43  2  0  0  0
 43 44  1  0  0  0
 44 45  2  0  0  0
 44 50  1  0  0  0
 45 46  1  0  0  0
 45 47  1  0  0  0
 47 48  2  0  0  0
 48 49  1  0  0  0
 49 50  2  0  0  0
  3 25  1  0  0  0
 11 26  1  0  0  0
 34 39  1  0  0  0
 34 40  1  0  0  0
 15 27  1  0  0  0
 23 28  1  0  0  0
 46 51  1  0  0  0
 46 52  1  0  0  0
M  END
> <minimizedAffinity>
-11.22545

$$$$
