3BRA_AEF_A_394


 13 13  0  0  0  0  0  0  0  0999 V2000
  -21.0991   40.4228   95.9878 C   0  0  0  0  0  0  0  0  0  0  0  0
  -22.2686   39.8903   93.9254 C   0  0  0  0  0  0  0  0  0  0  0  0
  -22.2507   40.4630   95.1991 C   0  0  0  0  0  0  0  0  0  0  0  0
  -23.3902   41.0695   95.6741 O   0  0  0  0  0  0  0  0  0  0  0  0
  -21.1198   39.2714   93.4389 C   0  0  0  0  0  0  0  0  0  0  0  0
  -19.9531   39.7997   95.4834 C   0  0  0  0  0  0  0  0  0  0  0  0
  -19.9607   39.2188   94.2093 C   0  0  0  0  0  0  0  0  0  0  0  0
  -23.3935   41.4581   96.5267 H   0  0  0  0  0  0  0  0  0  0  0  0
  -18.7287   38.5387   93.6572 C   0  0  0  0  0  0  0  0  0  0  0  0
  -17.4583   39.1357   94.2875 C   0  0  0  0  0  0  0  0  0  0  0  0
  -16.4155   38.1067   94.5246 N   0  0  0  0  0  0  0  0  0  0  0  0
  -16.7714   37.4053   95.1739 H   0  0  0  0  0  0  0  0  0  0  0  0
  -15.5863   38.5483   94.9219 H   0  0  0  0  0  0  0  0  0  0  0  0
  9 10  1  0  0  0
  9  7  1  0  0  0
  1  3  2  0  0  0
  1  6  1  0  0  0
  2  3  1  0  0  0
  2  5  2  0  0  0
 10 11  1  0  0  0
  3  4  1  0  0  0
  5  7  1  0  0  0
  6  7  2  0  0  0
  4  8  1  0  0  0
 11 12  1  0  0  0
 11 13  1  0  0  0
M  END
> <minimizedAffinity>
-4.72314

$$$$
3BRA_AEF_A_394


 13 13  0  0  0  0  0  0  0  0999 V2000
  -22.2696   39.8311   93.9697 C   0  0  0  0  0  0  0  0  0  0  0  0
  -21.0155   40.4365   95.9610 C   0  0  0  0  0  0  0  0  0  0  0  0
  -22.2032   40.4365   95.2263 C   0  0  0  0  0  0  0  0  0  0  0  0
  -23.3157   41.0475   95.7563 O   0  0  0  0  0  0  0  0  0  0  0  0
  -19.8838   39.8230   95.4296 C   0  0  0  0  0  0  0  0  0  0  0  0
  -21.1250   39.2172   93.4514 C   0  0  0  0  0  0  0  0  0  0  0  0
  -19.9276   39.2143   94.1776 C   0  0  0  0  0  0  0  0  0  0  0  0
  -24.1197   41.0557   95.2752 H   0  0  0  0  0  0  0  0  0  0  0  0
  -18.6837   38.5577   93.6239 C   0  0  0  0  0  0  0  0  0  0  0  0
  -17.4269   39.1333   94.2997 C   0  0  0  0  0  0  0  0  0  0  0  0
  -16.3983   38.0923   94.5459 N   0  0  0  0  0  0  0  0  0  0  0  0
  -16.7768   37.3817   95.1721 H   0  0  0  0  0  0  0  0  0  0  0  0
  -15.5772   38.5201   94.9740 H   0  0  0  0  0  0  0  0  0  0  0  0
  9 10  1  0  0  0
  9  7  1  0  0  0
  1  3  2  0  0  0
  1  6  1  0  0  0
  2  3  1  0  0  0
  2  5  2  0  0  0
 10 11  1  0  0  0
  3  4  1  0  0  0
  5  7  1  0  0  0
  6  7  2  0  0  0
  4  8  1  0  0  0
 11 12  1  0  0  0
 11 13  1  0  0  0
M  END
> <minimizedAffinity>
-4.72099

$$$$
3BRA_AEF_A_394


 13 13  0  0  0  0  0  0  0  0999 V2000
  -19.6811   42.1758   96.8294 C   0  0  0  0  0  0  0  0  0  0  0  0
  -21.2436   40.3159   96.7632 C   0  0  0  0  0  0  0  0  0  0  0  0
  -20.8151   41.5237   97.3182 C   0  0  0  0  0  0  0  0  0  0  0  0
  -21.5259   42.0675   98.3627 O   0  0  0  0  0  0  0  0  0  0  0  0
  -20.5272   39.7572   95.7077 C   0  0  0  0  0  0  0  0  0  0  0  0
  -18.9744   41.6027   95.7673 C   0  0  0  0  0  0  0  0  0  0  0  0
  -19.3927   40.3901   95.2056 C   0  0  0  0  0  0  0  0  0  0  0  0
  -21.2506   42.8773   98.7454 H   0  0  0  0  0  0  0  0  0  0  0  0
  -18.6328   39.7602   94.0606 C   0  0  0  0  0  0  0  0  0  0  0  0
  -17.1409   39.6297   94.4140 C   0  0  0  0  0  0  0  0  0  0  0  0
  -16.6961   38.2143   94.4471 N   0  0  0  0  0  0  0  0  0  0  0  0
  -17.2193   37.7101   95.1630 H   0  0  0  0  0  0  0  0  0  0  0  0
  -15.7001   38.1758   94.6635 H   0  0  0  0  0  0  0  0  0  0  0  0
  9 10  1  0  0  0
  9  7  1  0  0  0
  1  3  2  0  0  0
  1  6  1  0  0  0
  2  3  1  0  0  0
  2  5  2  0  0  0
 10 11  1  0  0  0
  3  4  1  0  0  0
  5  7  1  0  0  0
  6  7  2  0  0  0
  4  8  1  0  0  0
 11 12  1  0  0  0
 11 13  1  0  0  0
M  END
> <minimizedAffinity>
-4.70068

$$$$
3BRA_AEF_A_394


 13 13  0  0  0  0  0  0  0  0999 V2000
  -18.3129   40.0961   94.1966 C   0  0  0  0  0  0  0  0  0  0  0  0
  -20.2828   39.0366   93.2472 C   0  0  0  0  0  0  0  0  0  0  0  0
  -18.9385   39.4042   93.1575 C   0  0  0  0  0  0  0  0  0  0  0  0
  -18.2316   39.0779   92.0235 O   0  0  0  0  0  0  0  0  0  0  0  0
  -21.0061   39.3665   94.3906 C   0  0  0  0  0  0  0  0  0  0  0  0
  -19.0526   40.4175   95.3392 C   0  0  0  0  0  0  0  0  0  0  0  0
  -20.4022   40.0573   95.4384 C   0  0  0  0  0  0  0  0  0  0  0  0
  -17.3290   39.3178   91.9488 H   0  0  0  0  0  0  0  0  0  0  0  0
  -21.2115   40.4045   96.6670 C   0  0  0  0  0  0  0  0  0  0  0  0
  -20.6801   41.6963   97.3123 C   0  0  0  0  0  0  0  0  0  0  0  0
  -21.7766   42.5704   97.7982 N   0  0  0  0  0  0  0  0  0  0  0  0
  -22.3642   42.8475   97.0120 H   0  0  0  0  0  0  0  0  0  0  0  0
  -21.3799   43.4019   98.2359 H   0  0  0  0  0  0  0  0  0  0  0  0
  9 10  1  0  0  0
  9  7  1  0  0  0
  1  3  2  0  0  0
  1  6  1  0  0  0
  2  3  1  0  0  0
  2  5  2  0  0  0
 10 11  1  0  0  0
  3  4  1  0  0  0
  5  7  1  0  0  0
  6  7  2  0  0  0
  4  8  1  0  0  0
 11 12  1  0  0  0
 11 13  1  0  0  0
M  END
> <minimizedAffinity>
-4.55389

$$$$
3BRA_AEF_A_394


 13 13  0  0  0  0  0  0  0  0999 V2000
  -21.5791   41.2413   92.6638 C   0  0  0  0  0  0  0  0  0  0  0  0
  -21.6336   38.9907   93.5787 C   0  0  0  0  0  0  0  0  0  0  0  0
  -22.2603   40.2106   93.3147 C   0  0  0  0  0  0  0  0  0  0  0  0
  -23.5659   40.3892   93.7091 O   0  0  0  0  0  0  0  0  0  0  0  0
  -20.3108   38.8036   93.1856 C   0  0  0  0  0  0  0  0  0  0  0  0
  -20.2519   41.0363   92.2734 C   0  0  0  0  0  0  0  0  0  0  0  0
  -19.6123   39.8186   92.5363 C   0  0  0  0  0  0  0  0  0  0  0  0
  -23.9997   41.2021   93.5389 H   0  0  0  0  0  0  0  0  0  0  0  0
  -18.1765   39.5890   92.1226 C   0  0  0  0  0  0  0  0  0  0  0  0
  -17.3325   40.8468   92.3932 C   0  0  0  0  0  0  0  0  0  0  0  0
  -15.9830   40.7564   91.7824 N   0  0  0  0  0  0  0  0  0  0  0  0
  -15.4801   39.9653   92.1845 H   0  0  0  0  0  0  0  0  0  0  0  0
  -15.4675   41.6168   91.9678 H   0  0  0  0  0  0  0  0  0  0  0  0
  9 10  1  0  0  0
  9  7  1  0  0  0
  1  3  2  0  0  0
  1  6  1  0  0  0
  2  3  1  0  0  0
  2  5  2  0  0  0
 10 11  1  0  0  0
  3  4  1  0  0  0
  5  7  1  0  0  0
  6  7  2  0  0  0
  4  8  1  0  0  0
 11 12  1  0  0  0
 11 13  1  0  0  0
M  END
> <minimizedAffinity>
-4.54218

$$$$
3BRA_AEF_A_394


 13 13  0  0  0  0  0  0  0  0999 V2000
  -22.5447   43.5490   90.8997 C   0  0  0  0  0  0  0  0  0  0  0  0
  -21.9438   41.5338   89.6820 C   0  0  0  0  0  0  0  0  0  0  0  0
  -22.1026   42.9204   89.7338 C   0  0  0  0  0  0  0  0  0  0  0  0
  -21.8199   43.6668   88.6135 O   0  0  0  0  0  0  0  0  0  0  0  0
  -22.2314   40.7710   90.8111 C   0  0  0  0  0  0  0  0  0  0  0  0
  -22.8267   42.7688   92.0256 C   0  0  0  0  0  0  0  0  0  0  0  0
  -22.6748   41.3773   91.9840 C   0  0  0  0  0  0  0  0  0  0  0  0
  -21.9217   44.5980   88.6330 H   0  0  0  0  0  0  0  0  0  0  0  0
  -22.9817   40.5248   93.1940 C   0  0  0  0  0  0  0  0  0  0  0  0
  -22.5990   41.2686   94.4855 C   0  0  0  0  0  0  0  0  0  0  0  0
  -23.7649   41.4691   95.3814 N   0  0  0  0  0  0  0  0  0  0  0  0
  -24.4662   42.0363   94.9051 H   0  0  0  0  0  0  0  0  0  0  0  0
  -23.4627   41.9451   96.2314 H   0  0  0  0  0  0  0  0  0  0  0  0
  9 10  1  0  0  0
  9  7  1  0  0  0
  1  3  2  0  0  0
  1  6  1  0  0  0
  2  3  1  0  0  0
  2  5  2  0  0  0
 10 11  1  0  0  0
  3  4  1  0  0  0
  5  7  1  0  0  0
  6  7  2  0  0  0
  4  8  1  0  0  0
 11 12  1  0  0  0
 11 13  1  0  0  0
M  END
> <minimizedAffinity>
-4.45205

$$$$
3BRA_AEF_A_394


 13 13  0  0  0  0  0  0  0  0999 V2000
  -22.8535   41.9227   94.2224 C   0  0  0  0  0  0  0  0  0  0  0  0
  -21.9625   39.6680   94.0584 C   0  0  0  0  0  0  0  0  0  0  0  0
  -22.4113   40.7443   94.8270 C   0  0  0  0  0  0  0  0  0  0  0  0
  -22.4101   40.6317   96.1979 O   0  0  0  0  0  0  0  0  0  0  0  0
  -21.9574   39.7756   92.6700 C   0  0  0  0  0  0  0  0  0  0  0  0
  -22.8445   42.0137   92.8268 C   0  0  0  0  0  0  0  0  0  0  0  0
  -22.3930   40.9423   92.0463 C   0  0  0  0  0  0  0  0  0  0  0  0
  -22.7084   41.3454   96.7268 H   0  0  0  0  0  0  0  0  0  0  0  0
  -22.3747   41.0326   90.5375 C   0  0  0  0  0  0  0  0  0  0  0  0
  -22.9150   42.3971   90.0750 C   0  0  0  0  0  0  0  0  0  0  0  0
  -22.0592   43.0121   89.0302 N   0  0  0  0  0  0  0  0  0  0  0  0
  -21.1246   43.1715   89.4066 H   0  0  0  0  0  0  0  0  0  0  0  0
  -22.4645   43.9016   88.7388 H   0  0  0  0  0  0  0  0  0  0  0  0
  9 10  1  0  0  0
  9  7  1  0  0  0
  1  3  2  0  0  0
  1  6  1  0  0  0
  2  3  1  0  0  0
  2  5  2  0  0  0
 10 11  1  0  0  0
  3  4  1  0  0  0
  5  7  1  0  0  0
  6  7  2  0  0  0
  4  8  1  0  0  0
 11 12  1  0  0  0
 11 13  1  0  0  0
M  END
> <minimizedAffinity>
-4.41807

$$$$
3BRA_AEF_A_394


 13 13  0  0  0  0  0  0  0  0999 V2000
  -19.2918   39.9890   92.6931 C   0  0  0  0  0  0  0  0  0  0  0  0
  -21.2956   39.0735   93.7185 C   0  0  0  0  0  0  0  0  0  0  0  0
  -19.9043   39.1661   93.6405 C   0  0  0  0  0  0  0  0  0  0  0  0
  -19.1366   38.4290   94.5120 O   0  0  0  0  0  0  0  0  0  0  0  0
  -22.0797   39.8139   92.8374 C   0  0  0  0  0  0  0  0  0  0  0  0
  -20.0936   40.7279   91.8172 C   0  0  0  0  0  0  0  0  0  0  0  0
  -21.4896   40.6400   91.8838 C   0  0  0  0  0  0  0  0  0  0  0  0
  -18.2018   38.4807   94.4717 H   0  0  0  0  0  0  0  0  0  0  0  0
  -22.3646   41.4309   90.9384 C   0  0  0  0  0  0  0  0  0  0  0  0
  -21.9084   41.2226   89.4838 C   0  0  0  0  0  0  0  0  0  0  0  0
  -21.4479   42.4861   88.8561 N   0  0  0  0  0  0  0  0  0  0  0  0
  -22.2169   43.1559   88.8363 H   0  0  0  0  0  0  0  0  0  0  0  0
  -21.1360   42.2984   87.9033 H   0  0  0  0  0  0  0  0  0  0  0  0
  9 10  1  0  0  0
  9  7  1  0  0  0
  1  3  2  0  0  0
  1  6  1  0  0  0
  2  3  1  0  0  0
  2  5  2  0  0  0
 10 11  1  0  0  0
  3  4  1  0  0  0
  5  7  1  0  0  0
  6  7  2  0  0  0
  4  8  1  0  0  0
 11 12  1  0  0  0
 11 13  1  0  0  0
M  END
> <minimizedAffinity>
-4.41762

$$$$
3BRA_AEF_A_394


 13 13  0  0  0  0  0  0  0  0999 V2000
  -17.6721   41.2336   94.5290 C   0  0  0  0  0  0  0  0  0  0  0  0
  -18.4629   39.0454   93.8282 C   0  0  0  0  0  0  0  0  0  0  0  0
  -17.5344   40.0855   93.7463 C   0  0  0  0  0  0  0  0  0  0  0  0
  -16.4754   39.9676   92.8764 O   0  0  0  0  0  0  0  0  0  0  0  0
  -19.5397   39.1588   94.7040 C   0  0  0  0  0  0  0  0  0  0  0  0
  -18.7577   41.3307   95.4053 C   0  0  0  0  0  0  0  0  0  0  0  0
  -19.6969   40.2957   95.4930 C   0  0  0  0  0  0  0  0  0  0  0  0
  -15.8443   40.6571   92.8104 H   0  0  0  0  0  0  0  0  0  0  0  0
  -20.8764   40.3933   96.4334 C   0  0  0  0  0  0  0  0  0  0  0  0
  -22.1941   40.4291   95.6397 C   0  0  0  0  0  0  0  0  0  0  0  0
  -22.9551   41.6810   95.8760 N   0  0  0  0  0  0  0  0  0  0  0  0
  -23.1981   41.7498   96.8643 H   0  0  0  0  0  0  0  0  0  0  0  0
  -23.8076   41.6716   95.3161 H   0  0  0  0  0  0  0  0  0  0  0  0
  9 10  1  0  0  0
  9  7  1  0  0  0
  1  3  2  0  0  0
  1  6  1  0  0  0
  2  3  1  0  0  0
  2  5  2  0  0  0
 10 11  1  0  0  0
  3  4  1  0  0  0
  5  7  1  0  0  0
  6  7  2  0  0  0
  4  8  1  0  0  0
 11 12  1  0  0  0
 11 13  1  0  0  0
M  END
> <minimizedAffinity>
-4.16360

$$$$
3BRA_AEF_A_394


 13 13  0  0  0  0  0  0  0  0999 V2000
  -19.5200   41.5875   96.1145 C   0  0  0  0  0  0  0  0  0  0  0  0
  -19.9303   39.4032   95.1319 C   0  0  0  0  0  0  0  0  0  0  0  0
  -20.3245   40.4567   95.9598 C   0  0  0  0  0  0  0  0  0  0  0  0
  -21.5224   40.3666   96.6298 O   0  0  0  0  0  0  0  0  0  0  0  0
  -18.7172   39.4855   94.4530 C   0  0  0  0  0  0  0  0  0  0  0  0
  -18.3059   41.6556   95.4236 C   0  0  0  0  0  0  0  0  0  0  0  0
  -17.8988   40.6036   94.5938 C   0  0  0  0  0  0  0  0  0  0  0  0
  -21.8003   41.0653   97.1888 H   0  0  0  0  0  0  0  0  0  0  0  0
  -16.5861   40.6656   93.8468 C   0  0  0  0  0  0  0  0  0  0  0  0
  -16.8270   41.0083   92.3661 C   0  0  0  0  0  0  0  0  0  0  0  0
  -16.1307   42.2545   91.9604 N   0  0  0  0  0  0  0  0  0  0  0  0
  -16.4852   43.0366   92.5109 H   0  0  0  0  0  0  0  0  0  0  0  0
  -16.2997   42.4314   90.9702 H   0  0  0  0  0  0  0  0  0  0  0  0
  9 10  1  0  0  0
  9  7  1  0  0  0
  1  3  2  0  0  0
  1  6  1  0  0  0
  2  3  1  0  0  0
  2  5  2  0  0  0
 10 11  1  0  0  0
  3  4  1  0  0  0
  5  7  1  0  0  0
  6  7  2  0  0  0
  4  8  1  0  0  0
 11 12  1  0  0  0
 11 13  1  0  0  0
M  END
> <minimizedAffinity>
-4.13710

$$$$
