2VFK_AMP_A_1293


 29 31  0  0  0  0  0  0  0  0999 V2000
  -14.3754   -5.6102   -1.6308 C   0  0  0  0  0  0  0  0  0  0  0  0
  -14.5571   -4.2806   -2.1294 O   0  0  0  0  0  0  0  0  0  0  0  0
  -13.1037   -6.1465   -2.2727 C   0  0  0  0  0  0  0  0  0  0  0  0
  -13.2908   -7.4290   -2.8221 O   0  0  0  0  0  0  0  0  0  0  0  0
  -12.7601   -5.1835   -3.3478 C   0  0  0  0  0  0  0  0  0  0  0  0
  -12.5336   -5.9045   -4.5546 O   0  0  0  0  0  0  0  0  0  0  0  0
  -13.9571   -4.2681   -3.4371 C   0  0  0  0  0  0  0  0  0  0  0  0
  -13.9895   -7.3940   -3.4941 H   0  0  0  0  0  0  0  0  0  0  0  0
  -13.3179   -6.4345   -4.7667 H   0  0  0  0  0  0  0  0  0  0  0  0
  -13.4059   -2.9368   -3.7344 N   0  0  0  0  0  0  0  0  0  0  0  0
  -12.1494   -2.4995   -3.4408 C   0  0  0  0  0  0  0  0  0  0  0  0
  -11.9623   -1.2274   -3.8311 N   0  0  0  0  0  0  0  0  0  0  0  0
  -13.1394   -0.8297   -4.3705 C   0  0  0  0  0  0  0  0  0  0  0  0
  -13.5987    0.4215   -4.9959 C   0  0  0  0  0  0  0  0  0  0  0  0
  -12.7447    1.4751   -5.0877 N   0  0  0  0  0  0  0  0  0  0  0  0
  -14.8952    0.4334   -5.4451 N   0  0  0  0  0  0  0  0  0  0  0  0
  -15.7032   -0.6464   -5.3680 C   0  0  0  0  0  0  0  0  0  0  0  0
  -15.3547   -1.8211   -4.8137 N   0  0  0  0  0  0  0  0  0  0  0  0
  -14.0803   -1.9522   -4.3097 C   0  0  0  0  0  0  0  0  0  0  0  0
  -11.8259    1.3954   -4.7434 H   0  0  0  0  0  0  0  0  0  0  0  0
  -13.0451    2.3178   -5.4987 H   0  0  0  0  0  0  0  0  0  0  0  0
  -14.1949   -5.6267   -0.1142 C   0  0  0  0  0  0  0  0  0  0  0  0
  -14.9192   -4.5282    0.4534 O   0  0  0  0  0  0  0  0  0  0  0  0
  -16.0316   -4.8812    1.5577 P   0  0  0  0  0  0  0  0  0  0  0  0
  -17.2015   -5.5208    0.8285 O   0  0  0  0  0  0  0  0  0  0  0  0
  -16.4037   -3.5742    2.1764 O   0  0  0  0  0  0  0  0  0  0  0  0
  -15.3116   -5.8561    2.4655 O   0  0  0  0  0  0  0  0  0  0  0  0
  -17.0783   -3.7196    2.8581 H   0  0  0  0  0  0  0  0  0  0  0  0
  -15.9077   -6.1349    3.1781 H   0  0  0  0  0  0  0  0  0  0  0  0
 24 25  2  0  0  0
 24 26  1  0  0  0
 24 27  1  0  0  0
 24 23  1  0  0  0
 23 22  1  0  0  0
 22  1  1  0  0  0
  1  2  1  0  0  0
  1  3  1  0  0  0
  2  7  1  0  0  0
  3  4  1  0  0  0
  3  5  1  0  0  0
  5  6  1  0  0  0
  5  7  1  0  0  0
  7 10  1  0  0  0
 10 11  1  0  0  0
 10 19  1  0  0  0
 11 12  2  0  0  0
 12 13  1  0  0  0
 13 14  1  0  0  0
 13 19  2  0  0  0
 14 15  1  0  0  0
 14 16  2  0  0  0
 16 17  1  0  0  0
 17 18  2  0  0  0
 18 19  1  0  0  0
 26 28  1  0  0  0
 27 29  1  0  0  0
  4  8  1  0  0  0
  6  9  1  0  0  0
 15 20  1  0  0  0
 15 21  1  0  0  0
M  END
> <minimizedAffinity>
-7.75693

$$$$
2VFK_AMP_A_1293


 29 31  0  0  0  0  0  0  0  0999 V2000
  -14.0974   -5.8237   -1.6466 C   0  0  0  0  0  0  0  0  0  0  0  0
  -14.3291   -4.4734   -2.0618 O   0  0  0  0  0  0  0  0  0  0  0  0
  -12.8988   -6.3242   -2.4399 C   0  0  0  0  0  0  0  0  0  0  0  0
  -13.1419   -7.5809   -3.0260 O   0  0  0  0  0  0  0  0  0  0  0  0
  -12.6674   -5.3112   -3.4990 C   0  0  0  0  0  0  0  0  0  0  0  0
  -12.5666   -5.9749   -4.7548 O   0  0  0  0  0  0  0  0  0  0  0  0
  -13.8669   -4.3981   -3.4222 C   0  0  0  0  0  0  0  0  0  0  0  0
  -13.9060   -7.5181   -3.6201 H   0  0  0  0  0  0  0  0  0  0  0  0
  -13.3687   -6.4981   -4.9093 H   0  0  0  0  0  0  0  0  0  0  0  0
  -13.3489   -3.0521   -3.7128 N   0  0  0  0  0  0  0  0  0  0  0  0
  -12.0905   -2.5983   -3.4542 C   0  0  0  0  0  0  0  0  0  0  0  0
  -11.9385   -1.3162   -3.8263 N   0  0  0  0  0  0  0  0  0  0  0  0
  -13.1401   -0.9292   -4.3173 C   0  0  0  0  0  0  0  0  0  0  0  0
  -13.6418    0.3253   -4.9024 C   0  0  0  0  0  0  0  0  0  0  0  0
  -12.8094    1.3951   -5.0034 N   0  0  0  0  0  0  0  0  0  0  0  0
  -14.9531    0.3228   -5.3065 N   0  0  0  0  0  0  0  0  0  0  0  0
  -15.7397   -0.7722   -5.2224 C   0  0  0  0  0  0  0  0  0  0  0  0
  -15.3524   -1.9508   -4.7030 N   0  0  0  0  0  0  0  0  0  0  0  0
  -14.0593   -2.0689   -4.2456 C   0  0  0  0  0  0  0  0  0  0  0  0
  -11.8780    1.3252   -4.6923 H   0  0  0  0  0  0  0  0  0  0  0  0
  -13.1380    2.2399   -5.3875 H   0  0  0  0  0  0  0  0  0  0  0  0
  -13.7618   -5.9093   -0.1589 C   0  0  0  0  0  0  0  0  0  0  0  0
  -13.0101   -7.1054    0.0813 O   0  0  0  0  0  0  0  0  0  0  0  0
  -11.7275   -6.9802    1.0408 P   0  0  0  0  0  0  0  0  0  0  0  0
  -11.0651   -5.6474    0.7336 O   0  0  0  0  0  0  0  0  0  0  0  0
  -10.8524   -8.1364    0.6845 O   0  0  0  0  0  0  0  0  0  0  0  0
  -12.3353   -7.0194    2.4271 O   0  0  0  0  0  0  0  0  0  0  0  0
  -10.0531   -8.1182    1.2337 H   0  0  0  0  0  0  0  0  0  0  0  0
  -11.6314   -6.9492    3.0908 H   0  0  0  0  0  0  0  0  0  0  0  0
 24 25  2  0  0  0
 24 26  1  0  0  0
 24 27  1  0  0  0
 24 23  1  0  0  0
 23 22  1  0  0  0
 22  1  1  0  0  0
  1  2  1  0  0  0
  1  3  1  0  0  0
  2  7  1  0  0  0
  3  4  1  0  0  0
  3  5  1  0  0  0
  5  6  1  0  0  0
  5  7  1  0  0  0
  7 10  1  0  0  0
 10 11  1  0  0  0
 10 19  1  0  0  0
 11 12  2  0  0  0
 12 13  1  0  0  0
 13 14  1  0  0  0
 13 19  2  0  0  0
 14 15  1  0  0  0
 14 16  2  0  0  0
 16 17  1  0  0  0
 17 18  2  0  0  0
 18 19  1  0  0  0
 26 28  1  0  0  0
 27 29  1  0  0  0
  4  8  1  0  0  0
  6  9  1  0  0  0
 15 20  1  0  0  0
 15 21  1  0  0  0
M  END
> <minimizedAffinity>
-7.59264

$$$$
2VFK_AMP_A_1293


 29 31  0  0  0  0  0  0  0  0999 V2000
  -13.7006   -3.9417   -3.0120 C   0  0  0  0  0  0  0  0  0  0  0  0
  -14.1558   -5.0756   -2.2660 O   0  0  0  0  0  0  0  0  0  0  0  0
  -12.1795   -3.9730   -2.9680 C   0  0  0  0  0  0  0  0  0  0  0  0
  -11.6365   -2.7241   -2.6114 O   0  0  0  0  0  0  0  0  0  0  0  0
  -11.8286   -4.9858   -1.9422 C   0  0  0  0  0  0  0  0  0  0  0  0
  -10.8903   -4.4151   -1.0358 O   0  0  0  0  0  0  0  0  0  0  0  0
  -13.1406   -5.3265   -1.2778 C   0  0  0  0  0  0  0  0  0  0  0  0
  -11.9693   -2.4644   -1.7381 H   0  0  0  0  0  0  0  0  0  0  0  0
  -11.2642   -3.6080   -0.6490 H   0  0  0  0  0  0  0  0  0  0  0  0
  -13.0619   -6.7649   -0.9790 N   0  0  0  0  0  0  0  0  0  0  0  0
  -13.6534   -7.7693   -1.6843 C   0  0  0  0  0  0  0  0  0  0  0  0
  -13.4002   -8.9727   -1.1426 N   0  0  0  0  0  0  0  0  0  0  0  0
  -12.6432   -8.7319   -0.0456 C   0  0  0  0  0  0  0  0  0  0  0  0
  -12.0178   -9.5987    0.9670 C   0  0  0  0  0  0  0  0  0  0  0  0
  -12.1870  -10.9452    0.8902 N   0  0  0  0  0  0  0  0  0  0  0  0
  -11.2963   -8.9629    1.9459 N   0  0  0  0  0  0  0  0  0  0  0  0
  -11.1211   -7.6237    1.9686 C   0  0  0  0  0  0  0  0  0  0  0  0
  -11.6581   -6.7695    1.0793 N   0  0  0  0  0  0  0  0  0  0  0  0
  -12.4200   -7.2866    0.0559 C   0  0  0  0  0  0  0  0  0  0  0  0
  -12.7189  -11.3335    0.1583 H   0  0  0  0  0  0  0  0  0  0  0  0
  -11.7777  -11.5321    1.5664 H   0  0  0  0  0  0  0  0  0  0  0  0
  -14.1431   -4.0096   -4.4723 C   0  0  0  0  0  0  0  0  0  0  0  0
  -15.3092   -3.1947   -4.6444 O   0  0  0  0  0  0  0  0  0  0  0  0
  -15.0713   -1.6565   -5.0429 P   0  0  0  0  0  0  0  0  0  0  0  0
  -16.3627   -0.9114   -4.7487 O   0  0  0  0  0  0  0  0  0  0  0  0
  -14.7521   -1.6704   -6.5015 O   0  0  0  0  0  0  0  0  0  0  0  0
  -13.9400   -1.2394   -4.1271 O   0  0  0  0  0  0  0  0  0  0  0  0
  -14.5963   -0.7630   -6.8071 H   0  0  0  0  0  0  0  0  0  0  0  0
  -13.7168   -0.3099   -4.2916 H   0  0  0  0  0  0  0  0  0  0  0  0
 24 25  2  0  0  0
 24 26  1  0  0  0
 24 27  1  0  0  0
 24 23  1  0  0  0
 23 22  1  0  0  0
 22  1  1  0  0  0
  1  2  1  0  0  0
  1  3  1  0  0  0
  2  7  1  0  0  0
  3  4  1  0  0  0
  3  5  1  0  0  0
  5  6  1  0  0  0
  5  7  1  0  0  0
  7 10  1  0  0  0
 10 11  1  0  0  0
 10 19  1  0  0  0
 11 12  2  0  0  0
 12 13  1  0  0  0
 13 14  1  0  0  0
 13 19  2  0  0  0
 14 15  1  0  0  0
 14 16  2  0  0  0
 16 17  1  0  0  0
 17 18  2  0  0  0
 18 19  1  0  0  0
 26 28  1  0  0  0
 27 29  1  0  0  0
  4  8  1  0  0  0
  6  9  1  0  0  0
 15 20  1  0  0  0
 15 21  1  0  0  0
M  END
> <minimizedAffinity>
-7.51006

$$$$
2VFK_AMP_A_1293


 29 31  0  0  0  0  0  0  0  0999 V2000
  -12.7983   -6.2908   -2.3693 C   0  0  0  0  0  0  0  0  0  0  0  0
  -13.2561   -5.6587   -3.5694 O   0  0  0  0  0  0  0  0  0  0  0  0
  -12.6019   -5.1852   -1.3418 C   0  0  0  0  0  0  0  0  0  0  0  0
  -11.3510   -5.2757   -0.7025 O   0  0  0  0  0  0  0  0  0  0  0  0
  -12.6887   -3.9129   -2.1001 C   0  0  0  0  0  0  0  0  0  0  0  0
  -11.5620   -3.1059   -1.7732 O   0  0  0  0  0  0  0  0  0  0  0  0
  -12.6982   -4.3327   -3.5500 C   0  0  0  0  0  0  0  0  0  0  0  0
  -10.6445   -5.2164   -1.3645 H   0  0  0  0  0  0  0  0  0  0  0  0
  -10.7470   -3.5968   -1.9623 H   0  0  0  0  0  0  0  0  0  0  0  0
  -13.6033   -3.3870   -4.2217 N   0  0  0  0  0  0  0  0  0  0  0  0
  -14.7728   -3.6959   -4.8485 C   0  0  0  0  0  0  0  0  0  0  0  0
  -15.3569   -2.6064   -5.3753 N   0  0  0  0  0  0  0  0  0  0  0  0
  -14.5274   -1.5722   -5.0979 C   0  0  0  0  0  0  0  0  0  0  0  0
  -14.5824   -0.1258   -5.3675 C   0  0  0  0  0  0  0  0  0  0  0  0
  -15.6401    0.3868   -6.0503 N   0  0  0  0  0  0  0  0  0  0  0  0
  -13.5266    0.6172   -4.9026 N   0  0  0  0  0  0  0  0  0  0  0  0
  -12.5099    0.0766   -4.1964 C   0  0  0  0  0  0  0  0  0  0  0  0
  -12.3920   -1.2322   -3.9100 N   0  0  0  0  0  0  0  0  0  0  0  0
  -13.3832   -2.0858   -4.3391 C   0  0  0  0  0  0  0  0  0  0  0  0
  -16.3641   -0.2070   -6.3545 H   0  0  0  0  0  0  0  0  0  0  0  0
  -15.6823    1.3518   -6.2405 H   0  0  0  0  0  0  0  0  0  0  0  0
  -13.8252   -7.2808   -1.8231 C   0  0  0  0  0  0  0  0  0  0  0  0
  -13.4047   -8.6128   -2.1432 O   0  0  0  0  0  0  0  0  0  0  0  0
  -13.8614   -9.7822   -1.1406 P   0  0  0  0  0  0  0  0  0  0  0  0
  -12.6167  -10.5758   -0.7793 O   0  0  0  0  0  0  0  0  0  0  0  0
  -14.8446  -10.6015   -1.9099 O   0  0  0  0  0  0  0  0  0  0  0  0
  -14.4241   -9.0178    0.0391 O   0  0  0  0  0  0  0  0  0  0  0  0
  -15.1616  -11.3313   -1.3551 H   0  0  0  0  0  0  0  0  0  0  0  0
  -14.7327   -9.6440    0.7126 H   0  0  0  0  0  0  0  0  0  0  0  0
 24 25  2  0  0  0
 24 26  1  0  0  0
 24 27  1  0  0  0
 24 23  1  0  0  0
 23 22  1  0  0  0
 22  1  1  0  0  0
  1  2  1  0  0  0
  1  3  1  0  0  0
  2  7  1  0  0  0
  3  4  1  0  0  0
  3  5  1  0  0  0
  5  6  1  0  0  0
  5  7  1  0  0  0
  7 10  1  0  0  0
 10 11  1  0  0  0
 10 19  1  0  0  0
 11 12  2  0  0  0
 12 13  1  0  0  0
 13 14  1  0  0  0
 13 19  2  0  0  0
 14 15  1  0  0  0
 14 16  2  0  0  0
 16 17  1  0  0  0
 17 18  2  0  0  0
 18 19  1  0  0  0
 26 28  1  0  0  0
 27 29  1  0  0  0
  4  8  1  0  0  0
  6  9  1  0  0  0
 15 20  1  0  0  0
 15 21  1  0  0  0
M  END
> <minimizedAffinity>
-7.48572

$$$$
2VFK_AMP_A_1293


 29 31  0  0  0  0  0  0  0  0999 V2000
  -12.4154   -8.9918    0.9706 C   0  0  0  0  0  0  0  0  0  0  0  0
  -12.0331   -8.1971   -0.1572 O   0  0  0  0  0  0  0  0  0  0  0  0
  -13.0029   -8.0354    1.9987 C   0  0  0  0  0  0  0  0  0  0  0  0
  -12.4564   -8.2380    3.2800 O   0  0  0  0  0  0  0  0  0  0  0  0
  -12.6661   -6.6729    1.5175 C   0  0  0  0  0  0  0  0  0  0  0  0
  -12.0734   -5.9422    2.5863 O   0  0  0  0  0  0  0  0  0  0  0  0
  -11.7103   -6.8984    0.3712 C   0  0  0  0  0  0  0  0  0  0  0  0
  -11.4956   -8.1087    3.2459 H   0  0  0  0  0  0  0  0  0  0  0  0
  -11.2977   -6.4227    2.9154 H   0  0  0  0  0  0  0  0  0  0  0  0
  -12.0305   -5.8520   -0.6123 N   0  0  0  0  0  0  0  0  0  0  0  0
  -13.2542   -5.6040   -1.1574 C   0  0  0  0  0  0  0  0  0  0  0  0
  -13.2100   -4.5883   -2.0361 N   0  0  0  0  0  0  0  0  0  0  0  0
  -11.9166   -4.1877   -2.0726 C   0  0  0  0  0  0  0  0  0  0  0  0
  -11.2026   -3.1254   -2.8003 C   0  0  0  0  0  0  0  0  0  0  0  0
  -11.8890   -2.3273   -3.6603 N   0  0  0  0  0  0  0  0  0  0  0  0
   -9.8566   -3.0227   -2.5545 N   0  0  0  0  0  0  0  0  0  0  0  0
   -9.2158   -3.8121   -1.6651 C   0  0  0  0  0  0  0  0  0  0  0  0
   -9.7996   -4.7998   -0.9634 N   0  0  0  0  0  0  0  0  0  0  0  0
  -11.1485   -5.0138   -1.1364 C   0  0  0  0  0  0  0  0  0  0  0  0
  -12.8564   -2.4582   -3.7876 H   0  0  0  0  0  0  0  0  0  0  0  0
  -11.4187   -1.6185   -4.1559 H   0  0  0  0  0  0  0  0  0  0  0  0
  -13.4826  -10.0208    0.6029 C   0  0  0  0  0  0  0  0  0  0  0  0
  -13.0031  -10.8214   -0.4846 O   0  0  0  0  0  0  0  0  0  0  0  0
  -13.7832  -10.6936   -1.8833 P   0  0  0  0  0  0  0  0  0  0  0  0
  -15.2690  -10.6503   -1.5667 O   0  0  0  0  0  0  0  0  0  0  0  0
  -13.4105  -11.9149   -2.6573 O   0  0  0  0  0  0  0  0  0  0  0  0
  -13.2707   -9.3818   -2.4395 O   0  0  0  0  0  0  0  0  0  0  0  0
  -13.8531  -11.8983   -3.5203 H   0  0  0  0  0  0  0  0  0  0  0  0
  -13.6883   -9.2095   -3.2980 H   0  0  0  0  0  0  0  0  0  0  0  0
 24 25  2  0  0  0
 24 26  1  0  0  0
 24 27  1  0  0  0
 24 23  1  0  0  0
 23 22  1  0  0  0
 22  1  1  0  0  0
  1  2  1  0  0  0
  1  3  1  0  0  0
  2  7  1  0  0  0
  3  4  1  0  0  0
  3  5  1  0  0  0
  5  6  1  0  0  0
  5  7  1  0  0  0
  7 10  1  0  0  0
 10 11  1  0  0  0
 10 19  1  0  0  0
 11 12  2  0  0  0
 12 13  1  0  0  0
 13 14  1  0  0  0
 13 19  2  0  0  0
 14 15  1  0  0  0
 14 16  2  0  0  0
 16 17  1  0  0  0
 17 18  2  0  0  0
 18 19  1  0  0  0
 26 28  1  0  0  0
 27 29  1  0  0  0
  4  8  1  0  0  0
  6  9  1  0  0  0
 15 20  1  0  0  0
 15 21  1  0  0  0
M  END
> <minimizedAffinity>
-7.33646

$$$$
2VFK_AMP_A_1293


 29 31  0  0  0  0  0  0  0  0999 V2000
  -11.6160   -9.3839    1.5655 C   0  0  0  0  0  0  0  0  0  0  0  0
  -11.0823   -8.5649    0.5196 O   0  0  0  0  0  0  0  0  0  0  0  0
  -12.3894   -8.4575    2.4930 C   0  0  0  0  0  0  0  0  0  0  0  0
  -12.0494   -8.6599    3.8439 O   0  0  0  0  0  0  0  0  0  0  0  0
  -12.0215   -7.0801    2.0823 C   0  0  0  0  0  0  0  0  0  0  0  0
  -11.6301   -6.3457    3.2378 O   0  0  0  0  0  0  0  0  0  0  0  0
  -10.8879   -7.2639    1.1026 C   0  0  0  0  0  0  0  0  0  0  0  0
  -11.1000   -8.5026    3.9654 H   0  0  0  0  0  0  0  0  0  0  0  0
  -10.9029   -6.8077    3.6835 H   0  0  0  0  0  0  0  0  0  0  0  0
  -11.0780   -6.2153    0.0883 N   0  0  0  0  0  0  0  0  0  0  0  0
  -10.1759   -5.2550   -0.2587 C   0  0  0  0  0  0  0  0  0  0  0  0
  -10.6608   -4.4380   -1.2090 N   0  0  0  0  0  0  0  0  0  0  0  0
  -11.9182   -4.8727   -1.4632 C   0  0  0  0  0  0  0  0  0  0  0  0
  -12.9727   -4.4414   -2.3958 C   0  0  0  0  0  0  0  0  0  0  0  0
  -12.7491   -3.3769   -3.2110 N   0  0  0  0  0  0  0  0  0  0  0  0
  -14.1397   -5.1626   -2.3655 N   0  0  0  0  0  0  0  0  0  0  0  0
  -14.3116   -6.2375   -1.5657 C   0  0  0  0  0  0  0  0  0  0  0  0
  -13.3959   -6.6913   -0.6913 N   0  0  0  0  0  0  0  0  0  0  0  0
  -12.1862   -6.0385   -0.6158 C   0  0  0  0  0  0  0  0  0  0  0  0
  -11.8854   -2.9054   -3.1791 H   0  0  0  0  0  0  0  0  0  0  0  0
  -13.4507   -3.0776   -3.8333 H   0  0  0  0  0  0  0  0  0  0  0  0
  -12.5788  -10.4386    1.0236 C   0  0  0  0  0  0  0  0  0  0  0  0
  -12.4260  -10.5223   -0.3988 O   0  0  0  0  0  0  0  0  0  0  0  0
  -13.7378  -10.2626   -1.2894 P   0  0  0  0  0  0  0  0  0  0  0  0
  -14.2540  -11.6206   -1.7355 O   0  0  0  0  0  0  0  0  0  0  0  0
  -13.2760   -9.4325   -2.4414 O   0  0  0  0  0  0  0  0  0  0  0  0
  -14.6763   -9.5759   -0.3197 O   0  0  0  0  0  0  0  0  0  0  0  0
  -14.0281   -9.2392   -3.0227 H   0  0  0  0  0  0  0  0  0  0  0  0
  -15.5124   -9.3731   -0.7677 H   0  0  0  0  0  0  0  0  0  0  0  0
 24 25  2  0  0  0
 24 26  1  0  0  0
 24 27  1  0  0  0
 24 23  1  0  0  0
 23 22  1  0  0  0
 22  1  1  0  0  0
  1  2  1  0  0  0
  1  3  1  0  0  0
  2  7  1  0  0  0
  3  4  1  0  0  0
  3  5  1  0  0  0
  5  6  1  0  0  0
  5  7  1  0  0  0
  7 10  1  0  0  0
 10 11  1  0  0  0
 10 19  1  0  0  0
 11 12  2  0  0  0
 12 13  1  0  0  0
 13 14  1  0  0  0
 13 19  2  0  0  0
 14 15  1  0  0  0
 14 16  2  0  0  0
 16 17  1  0  0  0
 17 18  2  0  0  0
 18 19  1  0  0  0
 26 28  1  0  0  0
 27 29  1  0  0  0
  4  8  1  0  0  0
  6  9  1  0  0  0
 15 20  1  0  0  0
 15 21  1  0  0  0
M  END
> <minimizedAffinity>
-7.14642

$$$$
2VFK_AMP_A_1293


 29 31  0  0  0  0  0  0  0  0999 V2000
  -13.5963   -3.8394   -2.8316 C   0  0  0  0  0  0  0  0  0  0  0  0
  -14.4480   -4.9216   -2.4407 O   0  0  0  0  0  0  0  0  0  0  0  0
  -12.1756   -4.2513   -2.4730 C   0  0  0  0  0  0  0  0  0  0  0  0
  -11.4957   -3.2405   -1.7675 O   0  0  0  0  0  0  0  0  0  0  0  0
  -12.3110   -5.4571   -1.6191 C   0  0  0  0  0  0  0  0  0  0  0  0
  -11.5354   -5.2733   -0.4391 O   0  0  0  0  0  0  0  0  0  0  0  0
  -13.7892   -5.5559   -1.3299 C   0  0  0  0  0  0  0  0  0  0  0  0
  -11.9776   -3.0360   -0.9509 H   0  0  0  0  0  0  0  0  0  0  0  0
  -11.8208   -4.4637    0.0126 H   0  0  0  0  0  0  0  0  0  0  0  0
  -14.0858   -6.9969   -1.3142 N   0  0  0  0  0  0  0  0  0  0  0  0
  -13.3666   -7.9757   -1.9313 C   0  0  0  0  0  0  0  0  0  0  0  0
  -13.9100   -9.1892   -1.7365 N   0  0  0  0  0  0  0  0  0  0  0  0
  -15.0220   -8.9806   -0.9918 C   0  0  0  0  0  0  0  0  0  0  0  0
  -16.0441   -9.8733   -0.4209 C   0  0  0  0  0  0  0  0  0  0  0  0
  -15.9606  -11.2119   -0.6419 N   0  0  0  0  0  0  0  0  0  0  0  0
  -17.0383   -9.2685    0.3062 N   0  0  0  0  0  0  0  0  0  0  0  0
  -17.0678   -7.9373    0.5339 C   0  0  0  0  0  0  0  0  0  0  0  0
  -16.1706   -7.0609    0.0484 N   0  0  0  0  0  0  0  0  0  0  0  0
  -15.1315   -7.5455   -0.7135 C   0  0  0  0  0  0  0  0  0  0  0  0
  -15.2177  -11.5775   -1.1745 H   0  0  0  0  0  0  0  0  0  0  0  0
  -16.6430  -11.8159   -0.2693 H   0  0  0  0  0  0  0  0  0  0  0  0
  -13.6597   -3.5836   -4.3361 C   0  0  0  0  0  0  0  0  0  0  0  0
  -14.9407   -3.0297   -4.6611 O   0  0  0  0  0  0  0  0  0  0  0  0
  -14.9734   -1.4921   -5.1261 P   0  0  0  0  0  0  0  0  0  0  0  0
  -16.3185   -0.9239   -4.7050 O   0  0  0  0  0  0  0  0  0  0  0  0
  -14.8186   -1.5243   -6.6109 O   0  0  0  0  0  0  0  0  0  0  0  0
  -13.8201   -0.8805   -4.3588 O   0  0  0  0  0  0  0  0  0  0  0  0
  -14.8305   -0.6182   -6.9569 H   0  0  0  0  0  0  0  0  0  0  0  0
  -13.7533    0.0631   -4.5732 H   0  0  0  0  0  0  0  0  0  0  0  0
 24 25  2  0  0  0
 24 26  1  0  0  0
 24 27  1  0  0  0
 24 23  1  0  0  0
 23 22  1  0  0  0
 22  1  1  0  0  0
  1  2  1  0  0  0
  1  3  1  0  0  0
  2  7  1  0  0  0
  3  4  1  0  0  0
  3  5  1  0  0  0
  5  6  1  0  0  0
  5  7  1  0  0  0
  7 10  1  0  0  0
 10 11  1  0  0  0
 10 19  1  0  0  0
 11 12  2  0  0  0
 12 13  1  0  0  0
 13 14  1  0  0  0
 13 19  2  0  0  0
 14 15  1  0  0  0
 14 16  2  0  0  0
 16 17  1  0  0  0
 17 18  2  0  0  0
 18 19  1  0  0  0
 26 28  1  0  0  0
 27 29  1  0  0  0
  4  8  1  0  0  0
  6  9  1  0  0  0
 15 20  1  0  0  0
 15 21  1  0  0  0
M  END
> <minimizedAffinity>
-7.13464

$$$$
2VFK_AMP_A_1293


 29 31  0  0  0  0  0  0  0  0999 V2000
  -15.8588   -6.8159   -0.6877 C   0  0  0  0  0  0  0  0  0  0  0  0
  -14.8691   -5.8040   -0.9024 O   0  0  0  0  0  0  0  0  0  0  0  0
  -15.1202   -8.1461   -0.6456 C   0  0  0  0  0  0  0  0  0  0  0  0
  -15.7247   -9.1112   -1.4731 O   0  0  0  0  0  0  0  0  0  0  0  0
  -13.7472   -7.8579   -1.1284 C   0  0  0  0  0  0  0  0  0  0  0  0
  -13.4132   -8.7944   -2.1479 O   0  0  0  0  0  0  0  0  0  0  0  0
  -13.8135   -6.4409   -1.6442 C   0  0  0  0  0  0  0  0  0  0  0  0
  -15.7381   -8.7899   -2.3882 H   0  0  0  0  0  0  0  0  0  0  0  0
  -14.0737   -8.7498   -2.8568 H   0  0  0  0  0  0  0  0  0  0  0  0
  -12.5141   -5.8421   -1.3013 N   0  0  0  0  0  0  0  0  0  0  0  0
  -11.7284   -6.1727   -0.2384 C   0  0  0  0  0  0  0  0  0  0  0  0
  -10.6098   -5.4293   -0.1973 N   0  0  0  0  0  0  0  0  0  0  0  0
  -10.6905   -4.5822   -1.2511 C   0  0  0  0  0  0  0  0  0  0  0  0
   -9.8008   -3.5375   -1.7847 C   0  0  0  0  0  0  0  0  0  0  0  0
   -8.6282   -3.2709   -1.1510 N   0  0  0  0  0  0  0  0  0  0  0  0
  -10.2386   -2.8865   -2.9106 N   0  0  0  0  0  0  0  0  0  0  0  0
  -11.3946   -3.2043   -3.5331 C   0  0  0  0  0  0  0  0  0  0  0  0
  -12.2559   -4.1453   -3.1072 N   0  0  0  0  0  0  0  0  0  0  0  0
  -11.9357   -4.8581   -1.9738 C   0  0  0  0  0  0  0  0  0  0  0  0
   -8.3773   -3.7789   -0.3458 H   0  0  0  0  0  0  0  0  0  0  0  0
   -8.0300   -2.5698   -1.4970 H   0  0  0  0  0  0  0  0  0  0  0  0
  -16.5853   -6.6246    0.6421 C   0  0  0  0  0  0  0  0  0  0  0  0
  -15.7052   -5.9696    1.5641 O   0  0  0  0  0  0  0  0  0  0  0  0
  -16.1151   -4.4900    2.0375 P   0  0  0  0  0  0  0  0  0  0  0  0
  -17.1372   -4.6418    3.1519 O   0  0  0  0  0  0  0  0  0  0  0  0
  -16.6972   -3.8348    0.8286 O   0  0  0  0  0  0  0  0  0  0  0  0
  -14.8034   -3.9149    2.5286 O   0  0  0  0  0  0  0  0  0  0  0  0
  -16.9673   -2.9298    1.0497 H   0  0  0  0  0  0  0  0  0  0  0  0
  -14.9451   -3.0078    2.8417 H   0  0  0  0  0  0  0  0  0  0  0  0
 24 25  2  0  0  0
 24 26  1  0  0  0
 24 27  1  0  0  0
 24 23  1  0  0  0
 23 22  1  0  0  0
 22  1  1  0  0  0
  1  2  1  0  0  0
  1  3  1  0  0  0
  2  7  1  0  0  0
  3  4  1  0  0  0
  3  5  1  0  0  0
  5  6  1  0  0  0
  5  7  1  0  0  0
  7 10  1  0  0  0
 10 11  1  0  0  0
 10 19  1  0  0  0
 11 12  2  0  0  0
 12 13  1  0  0  0
 13 14  1  0  0  0
 13 19  2  0  0  0
 14 15  1  0  0  0
 14 16  2  0  0  0
 16 17  1  0  0  0
 17 18  2  0  0  0
 18 19  1  0  0  0
 26 28  1  0  0  0
 27 29  1  0  0  0
  4  8  1  0  0  0
  6  9  1  0  0  0
 15 20  1  0  0  0
 15 21  1  0  0  0
M  END
> <minimizedAffinity>
-7.08406

$$$$
2VFK_AMP_A_1293


 29 31  0  0  0  0  0  0  0  0999 V2000
  -13.7729   -5.5025   -0.9056 C   0  0  0  0  0  0  0  0  0  0  0  0
  -14.8963   -6.3876   -0.8411 O   0  0  0  0  0  0  0  0  0  0  0  0
  -12.5359   -6.3477   -0.6374 C   0  0  0  0  0  0  0  0  0  0  0  0
  -11.6973   -5.7628    0.3303 O   0  0  0  0  0  0  0  0  0  0  0  0
  -13.0409   -7.6524   -0.1433 C   0  0  0  0  0  0  0  0  0  0  0  0
  -12.3565   -7.9833    1.0607 O   0  0  0  0  0  0  0  0  0  0  0  0
  -14.5185   -7.4324    0.0732 C   0  0  0  0  0  0  0  0  0  0  0  0
  -12.1878   -5.6542    1.1601 H   0  0  0  0  0  0  0  0  0  0  0  0
  -12.4754   -7.2696    1.7069 H   0  0  0  0  0  0  0  0  0  0  0  0
  -15.1593   -8.7011   -0.3069 N   0  0  0  0  0  0  0  0  0  0  0  0
  -14.6973   -9.5953   -1.2251 C   0  0  0  0  0  0  0  0  0  0  0  0
  -15.5229  -10.6479   -1.3525 N   0  0  0  0  0  0  0  0  0  0  0  0
  -16.5553  -10.4116   -0.5082 C   0  0  0  0  0  0  0  0  0  0  0  0
  -17.7693  -11.1651   -0.1527 C   0  0  0  0  0  0  0  0  0  0  0  0
  -18.0146  -12.3590   -0.7543 N   0  0  0  0  0  0  0  0  0  0  0  0
  -18.5903  -10.5846    0.7811 N   0  0  0  0  0  0  0  0  0  0  0  0
  -18.2944   -9.4123    1.3835 C   0  0  0  0  0  0  0  0  0  0  0  0
  -17.2063   -8.6697    1.1130 N   0  0  0  0  0  0  0  0  0  0  0  0
  -16.3119   -9.1391    0.1776 C   0  0  0  0  0  0  0  0  0  0  0  0
  -17.3800  -12.7159   -1.4170 H   0  0  0  0  0  0  0  0  0  0  0  0
  -18.8270  -12.8668   -0.5274 H   0  0  0  0  0  0  0  0  0  0  0  0
  -13.6324   -4.8654   -2.2867 C   0  0  0  0  0  0  0  0  0  0  0  0
  -12.2840   -5.0328   -2.7422 O   0  0  0  0  0  0  0  0  0  0  0  0
  -11.3959   -3.7027   -2.8956 P   0  0  0  0  0  0  0  0  0  0  0  0
  -10.8239   -3.3837   -1.5242 O   0  0  0  0  0  0  0  0  0  0  0  0
  -12.3413   -2.6478   -3.3678 O   0  0  0  0  0  0  0  0  0  0  0  0
  -10.3288   -4.1191   -3.8860 O   0  0  0  0  0  0  0  0  0  0  0  0
  -11.8626   -1.8118   -3.4811 H   0  0  0  0  0  0  0  0  0  0  0  0
   -9.7306   -3.3733   -4.0494 H   0  0  0  0  0  0  0  0  0  0  0  0
 24 25  2  0  0  0
 24 26  1  0  0  0
 24 27  1  0  0  0
 24 23  1  0  0  0
 23 22  1  0  0  0
 22  1  1  0  0  0
  1  2  1  0  0  0
  1  3  1  0  0  0
  2  7  1  0  0  0
  3  4  1  0  0  0
  3  5  1  0  0  0
  5  6  1  0  0  0
  5  7  1  0  0  0
  7 10  1  0  0  0
 10 11  1  0  0  0
 10 19  1  0  0  0
 11 12  2  0  0  0
 12 13  1  0  0  0
 13 14  1  0  0  0
 13 19  2  0  0  0
 14 15  1  0  0  0
 14 16  2  0  0  0
 16 17  1  0  0  0
 17 18  2  0  0  0
 18 19  1  0  0  0
 26 28  1  0  0  0
 27 29  1  0  0  0
  4  8  1  0  0  0
  6  9  1  0  0  0
 15 20  1  0  0  0
 15 21  1  0  0  0
M  END
> <minimizedAffinity>
-6.89568

$$$$
2VFK_AMP_A_1293


 29 31  0  0  0  0  0  0  0  0999 V2000
  -14.5543   -5.0265   -1.6365 C   0  0  0  0  0  0  0  0  0  0  0  0
  -14.6382   -6.3885   -2.0694 O   0  0  0  0  0  0  0  0  0  0  0  0
  -14.2816   -5.0609   -0.1395 C   0  0  0  0  0  0  0  0  0  0  0  0
  -15.1457   -4.2085    0.5736 O   0  0  0  0  0  0  0  0  0  0  0  0
  -14.5055   -6.4673    0.2768 C   0  0  0  0  0  0  0  0  0  0  0  0
  -15.3764   -6.4794    1.4033 O   0  0  0  0  0  0  0  0  0  0  0  0
  -15.1164   -7.1309   -0.9335 C   0  0  0  0  0  0  0  0  0  0  0  0
  -16.0650   -4.4754    0.4170 H   0  0  0  0  0  0  0  0  0  0  0  0
  -16.2019   -6.0221    1.1788 H   0  0  0  0  0  0  0  0  0  0  0  0
  -14.5670   -8.4957   -0.9462 N   0  0  0  0  0  0  0  0  0  0  0  0
  -13.2592   -8.8377   -1.1161 C   0  0  0  0  0  0  0  0  0  0  0  0
  -13.0870  -10.1701   -1.0922 N   0  0  0  0  0  0  0  0  0  0  0  0
  -14.3225  -10.6991   -0.9244 C   0  0  0  0  0  0  0  0  0  0  0  0
  -14.8289  -12.0755   -0.7948 C   0  0  0  0  0  0  0  0  0  0  0  0
  -13.9578  -13.1168   -0.8612 N   0  0  0  0  0  0  0  0  0  0  0  0
  -16.1834  -12.2083   -0.6195 N   0  0  0  0  0  0  0  0  0  0  0  0
  -17.0133  -11.1468   -0.5229 C   0  0  0  0  0  0  0  0  0  0  0  0
  -16.6251   -9.8636   -0.6293 N   0  0  0  0  0  0  0  0  0  0  0  0
  -15.2879   -9.6005   -0.8247 C   0  0  0  0  0  0  0  0  0  0  0  0
  -12.9964  -12.9470   -0.9887 H   0  0  0  0  0  0  0  0  0  0  0  0
  -14.2881  -14.0409   -0.7818 H   0  0  0  0  0  0  0  0  0  0  0  0
  -13.4071   -4.2846   -2.3194 C   0  0  0  0  0  0  0  0  0  0  0  0
  -12.2010   -5.0414   -2.1579 O   0  0  0  0  0  0  0  0  0  0  0  0
  -10.8243   -4.2152   -2.0988 P   0  0  0  0  0  0  0  0  0  0  0  0
   -9.9850   -4.8196   -0.9854 O   0  0  0  0  0  0  0  0  0  0  0  0
  -11.2205   -2.8067   -1.8005 O   0  0  0  0  0  0  0  0  0  0  0  0
  -10.2264   -4.4527   -3.4695 O   0  0  0  0  0  0  0  0  0  0  0  0
  -10.4270   -2.2511   -1.7512 H   0  0  0  0  0  0  0  0  0  0  0  0
   -9.3778   -3.9878   -3.5371 H   0  0  0  0  0  0  0  0  0  0  0  0
 24 25  2  0  0  0
 24 26  1  0  0  0
 24 27  1  0  0  0
 24 23  1  0  0  0
 23 22  1  0  0  0
 22  1  1  0  0  0
  1  2  1  0  0  0
  1  3  1  0  0  0
  2  7  1  0  0  0
  3  4  1  0  0  0
  3  5  1  0  0  0
  5  6  1  0  0  0
  5  7  1  0  0  0
  7 10  1  0  0  0
 10 11  1  0  0  0
 10 19  1  0  0  0
 11 12  2  0  0  0
 12 13  1  0  0  0
 13 14  1  0  0  0
 13 19  2  0  0  0
 14 15  1  0  0  0
 14 16  2  0  0  0
 16 17  1  0  0  0
 17 18  2  0  0  0
 18 19  1  0  0  0
 26 28  1  0  0  0
 27 29  1  0  0  0
  4  8  1  0  0  0
  6  9  1  0  0  0
 15 20  1  0  0  0
 15 21  1  0  0  0
M  END
> <minimizedAffinity>
-6.85075

$$$$
