4ELF_35I_A_203
  RCSB PDB12061712243D
Coordinates from PDB:4ELF:A:203 Model:1 without hydrogens
 39 42  0  0  0  0            999 V2000
   23.2270  -28.2740   -0.6260   O 0  0  0  0  0  0  0  0  0  0  0  0
   22.8000  -29.0390   -1.4580   C 0  0  0  0  0  0  0  0  0  0  0  0
   23.6710  -29.9550   -2.1110   N 0  0  0  0  0  0  0  0  0  0  0  0
   23.1480  -30.8060   -3.0350   N 0  0  0  0  0  0  0  0  0  0  0  0
   24.0010  -31.4500   -3.9580   C 0  0  0  0  0  0  0  0  0  0  0  0
   25.4080  -31.0170   -4.0250   C 0  0  0  0  0  0  0  0  0  0  0  0
   26.2050  -31.3270   -5.1930   C 0  0  0  0  0  0  0  0  0  0  0  0
   27.5180  -30.9130   -5.2350   C 0  0  0  0  0  0  0  0  0  0  0  0
   28.0680  -30.2150   -4.1760   C 0  0  0  0  0  0  0  0  0  0  0  0
   27.2930  -29.9140   -3.0430   C 0  0  0  0  0  0  0  0  0  0  0  0
   25.9420  -30.3360   -3.0020   C 0  0  0  0  0  0  0  0  0  0  0  0
   25.0900  -30.0270   -1.7900   C 0  0  0  0  0  0  0  0  0  0  0  0
   25.3430  -31.1450   -0.7670   C 0  0  0  0  0  0  0  0  0  0  0  0
   26.5700  -31.0400    0.1180   C 0  0  0  0  0  0  0  0  0  0  0  0
   26.5410  -31.6420    1.5120   C 0  0  0  0  0  0  0  0  0  0  0  0
   27.1340  -32.8450    1.4340   F 0  0  0  0  0  0  0  0  0  0  0  0
   25.2870  -31.7820    1.9770   F 0  0  0  0  0  0  0  0  0  0  0  0
   27.2200  -30.8160    2.3330   F 0  0  0  0  0  0  0  0  0  0  0  0
   21.3270  -29.0580   -1.8570   C 0  0  0  0  0  0  0  0  0  0  0  0
   20.4530  -28.1010   -1.3570   C 0  0  0  0  0  0  0  0  0  0  0  0
   18.9760  -27.9780   -1.8170   C 0  0  0  0  0  0  0  0  0  0  0  0
   18.2080  -26.9800   -1.2680   C 0  0  0  0  0  0  0  0  0  0  0  0
   18.7400  -26.1270   -0.2900   O 0  0  0  0  0  0  0  0  0  0  0  0
   18.6430  -26.5200    1.0550   C 0  0  0  0  0  0  0  0  0  0  0  0
   16.8680  -26.8180   -1.6520   C 0  0  0  0  0  0  0  0  0  0  0  0
   16.1070  -25.8160   -1.0810   O 0  0  0  0  0  0  0  0  0  0  0  0
   14.8780  -25.5130   -1.6230   C 0  0  0  0  0  0  0  0  0  0  0  0
   16.3070  -27.6760   -2.6110   C 0  0  0  0  0  0  0  0  0  0  0  0
   17.0570  -28.6930   -3.1770   C 0  0  0  0  0  0  0  0  0  0  0  0
   16.3660  -29.6020   -4.2500   C 0  0  0  0  0  0  0  0  0  0  0  0
   16.4370  -31.1080   -4.0120   C 0  0  0  0  0  0  0  0  0  0  0  0
   16.9020  -31.6640   -2.8120   C 0  0  0  0  0  0  0  0  0  0  0  0
   16.9430  -33.0140   -2.6760   N 0  0  0  0  0  0  0  0  0  0  0  0
   16.5340  -33.8430   -3.6800   C 0  0  0  0  0  0  0  0  0  0  0  0
   16.6010  -35.2510   -3.5030   N 0  0  0  0  0  0  0  0  0  0  0  0
   16.0860  -33.3350   -4.8470   N 0  0  0  0  0  0  0  0  0  0  0  0
   16.0140  -32.0020   -5.0410   C 0  0  0  0  0  0  0  0  0  0  0  0
   15.5150  -31.4860   -6.2820   N 0  0  0  0  0  0  0  0  0  0  0  0
   18.4160  -28.8420   -2.7860   C 0  0  0  0  0  0  0  0  0  0  0  0
 38 37  1  0  0  0  0
  8  7  2  0  0  0  0
  8  9  1  0  0  0  0
  7  6  1  0  0  0  0
 37 36  2  0  0  0  0
 37 31  1  0  0  0  0
 36 34  1  0  0  0  0
 30 31  1  0  0  0  0
 30 29  1  0  0  0  0
  9 10  2  0  0  0  0
  6  5  1  0  0  0  0
  6 11  2  0  0  0  0
 31 32  2  0  0  0  0
  5  4  2  0  0  0  0
 34 35  1  0  0  0  0
 34 33  2  0  0  0  0
 29 39  2  0  0  0  0
 29 28  1  0  0  0  0
 10 11  1  0  0  0  0
  4  3  1  0  0  0  0
 11 12  1  0  0  0  0
 32 33  1  0  0  0  0
 39 21  1  0  0  0  0
 28 25  2  0  0  0  0
  3 12  1  0  0  0  0
  3  2  1  0  0  0  0
 19  2  1  0  0  0  0
 19 20  2  0  0  0  0
 21 20  1  0  0  0  0
 21 22  2  0  0  0  0
 12 13  1  0  0  0  0
 25 22  1  0  0  0  0
 25 26  1  0  0  0  0
 27 26  1  0  0  0  0
  2  1  2  0  0  0  0
 22 23  1  0  0  0  0
 13 14  1  0  0  0  0
 23 24  1  0  0  0  0
 14 15  1  0  0  0  0
 16 15  1  0  0  0  0
 15 17  1  0  0  0  0
 15 18  1  0  0  0  0
A    1
O01
A    2
C02
A    3
N03
A    4
N04
A    5
C05
A    6
C06
A    7
C07
A    8
C08
A    9
C09
A   10
C10
A   11
C11
A   12
C12
A   13
C13
A   14
C14
A   15
C15
A   16
F16
A   17
F17
A   18
F18
A   19
C19
A   20
C20
A   21
C21
A   22
C22
A   23
O23
A   24
C24
A   25
C25
A   26
O26
A   27
C27
A   28
C28
A   29
C29
A   30
C30
A   31
C31
A   32
C32
A   33
N33
A   34
C34
A   35
N35
A   36
N36
A   37
C37
A   38
N38
A   39
C39
M  END
>  <InstanceId>
4ELF_35I_A_203

>  <ChemCompId>
35I

>  <PdbId>
4ELF

>  <ChainId>
A

>  <ResidueNumber>
203

>  <InsertionCode>


>  <Model>
1

>  <AltIds>


>  <MissingHeavyAtoms>
0

>  <ObservedFormula>
C27 N6 O3 F3

>  <Name>
(2E)-3-{5-[(2,4-diaminopyrimidin-5-yl)methyl]-2,3-dimethoxyphenyl}-1-[(1S)-1-(3,3,3-trifluoropropyl)phthalazin-2(1H)-yl]prop-2-en-1-one

>  <SystematicName>
(E)-3-[5-[[2,4-bis(azanyl)pyrimidin-5-yl]methyl]-2,3-dimethoxy-phenyl]-1-[(1S)-1-[3,3,3-tris(fluoranyl)propyl]-1H-phthalazin-2-yl]prop-2-en-1-one

>  <Synonyms>
(S,E)-3-(5-((2,4-diaminopyrimidin-5-yl)methyl)-2,3-dimethoxyphenyl)-1-(1-(3,3,3-trifluoropropyl)phthalazin-2(1H)-yl)prop-2-en-1-one

>  <Type>
NON-POLYMER

>  <Formula>
C27 H27 F3 N6 O3

>  <MolecularWeight>
540.537

>  <ModifiedDate>
2013-02-08

>  <Parent>


>  <OneLetterCode>


>  <SubcomponentList>


>  <AmbiguousFlag>
N

>  <InChI>
InChI=1S/C27H27F3N6O3/c1-38-22-13-16(12-19-14-33-26(32)35-25(19)31)11-17(24(22)39-2)7-8-23(37)36-21(9-10-27(28,29)30)20-6-4-3-5-18(20)15-34-36/h3-8,11,13-15,21H,9-10,12H2,1-2H3,(H4,31,32,33,35)/b8-7+/t21-/m0/s1

>  <InChIKey>
YOZBLXHLSFVRNH-CQQBXOTJSA-N

>  <SMILES>
COc1cc(cc(c1OC)/C=C/C(=O)N2[C@H](c3ccccc3C=N2)CCC(F)(F)F)Cc4cnc(nc4N)N

$$$$
