4ELF_35I_A_203


 43 46  0  0  0  0  0  0  0  0999 V2000
   18.8867  -27.8077   -1.8143 C   0  0  0  0  0  0  0  0  0  0  0  0
   18.0874  -26.8549   -1.2308 C   0  0  0  0  0  0  0  0  0  0  0  0
   16.7453  -26.7162   -1.6164 C   0  0  0  0  0  0  0  0  0  0  0  0
   16.2142  -27.5509   -2.6123 C   0  0  0  0  0  0  0  0  0  0  0  0
   16.9962  -28.5225   -3.2137 C   0  0  0  0  0  0  0  0  0  0  0  0
   18.3569  -28.6479   -2.8205 C   0  0  0  0  0  0  0  0  0  0  0  0
   21.1695  -29.0087   -1.6091 C   0  0  0  0  0  0  0  0  0  0  0  0
   20.3643  -27.9066   -1.3504 C   0  0  0  0  0  0  0  0  0  0  0  0
   23.0871  -28.2318   -0.4012 O   0  0  0  0  0  0  0  0  0  0  0  0
   22.6499  -28.9847   -1.2390 C   0  0  0  0  0  0  0  0  0  0  0  0
   23.5151  -29.8808   -1.9262 N   0  0  0  0  0  0  0  0  0  0  0  0
   22.9808  -30.7188   -2.8556 N   0  0  0  0  0  0  0  0  0  0  0  0
   23.8205  -31.3381   -3.8073 C   0  0  0  0  0  0  0  0  0  0  0  0
   25.2223  -30.8920   -3.8938 C   0  0  0  0  0  0  0  0  0  0  0  0
   25.9985  -31.1733   -5.0829 C   0  0  0  0  0  0  0  0  0  0  0  0
   27.3070  -30.7474   -5.1430 C   0  0  0  0  0  0  0  0  0  0  0  0
   27.8722  -30.0648   -4.0820 C   0  0  0  0  0  0  0  0  0  0  0  0
   27.1175  -29.7917   -2.9284 C   0  0  0  0  0  0  0  0  0  0  0  0
   25.7710  -30.2258   -2.8688 C   0  0  0  0  0  0  0  0  0  0  0  0
   24.9408  -29.9468   -1.6346 C   0  0  0  0  0  0  0  0  0  0  0  0
   25.2231  -31.0816   -0.6381 C   0  0  0  0  0  0  0  0  0  0  0  0
   25.0818  -30.7847    0.8423 C   0  0  0  0  0  0  0  0  0  0  0  0
   25.4743  -31.8428    1.8586 C   0  0  0  0  0  0  0  0  0  0  0  0
   25.6062  -33.0009    1.1905 F   0  0  0  0  0  0  0  0  0  0  0  0
   24.5532  -31.9793    2.8287 F   0  0  0  0  0  0  0  0  0  0  0  0
   26.6421  -31.4663    2.4170 F   0  0  0  0  0  0  0  0  0  0  0  0
   18.5895  -26.0269   -0.2162 O   0  0  0  0  0  0  0  0  0  0  0  0
   18.3846  -26.4157    1.1178 C   0  0  0  0  0  0  0  0  0  0  0  0
   15.9527  -25.7601   -1.0106 O   0  0  0  0  0  0  0  0  0  0  0  0
   14.7448  -25.4275   -1.5818 C   0  0  0  0  0  0  0  0  0  0  0  0
   16.3372  -29.4072   -4.3264 C   0  0  0  0  0  0  0  0  0  0  0  0
   16.3985  -30.9180   -4.1181 C   0  0  0  0  0  0  0  0  0  0  0  0
   17.0853  -31.5077   -3.0476 C   0  0  0  0  0  0  0  0  0  0  0  0
   17.1017  -32.8601   -2.9316 N   0  0  0  0  0  0  0  0  0  0  0  0
   16.4573  -33.6592   -3.8308 C   0  0  0  0  0  0  0  0  0  0  0  0
   16.5055  -35.0711   -3.6807 N   0  0  0  0  0  0  0  0  0  0  0  0
   15.7922  -33.1186   -4.8730 N   0  0  0  0  0  0  0  0  0  0  0  0
   15.7325  -31.7812   -5.0392 C   0  0  0  0  0  0  0  0  0  0  0  0
   15.0022  -31.2297   -6.1427 N   0  0  0  0  0  0  0  0  0  0  0  0
   16.0419  -35.6510   -4.3272 H   0  0  0  0  0  0  0  0  0  0  0  0
   17.0025  -35.4696   -2.9300 H   0  0  0  0  0  0  0  0  0  0  0  0
   14.5435  -31.8268   -6.7770 H   0  0  0  0  0  0  0  0  0  0  0  0
   14.9594  -30.2539   -6.2662 H   0  0  0  0  0  0  0  0  0  0  0  0
 39 38  1  0  0  0
 16 15  2  0  0  0
 16 17  1  0  0  0
 15 14  1  0  0  0
 38 37  2  0  0  0
 38 32  1  0  0  0
 37 35  1  0  0  0
 31 32  1  0  0  0
 31  5  1  0  0  0
 17 18  2  0  0  0
 14 13  1  0  0  0
 14 19  2  0  0  0
 32 33  2  0  0  0
 13 12  2  0  0  0
 35 36  1  0  0  0
 35 34  2  0  0  0
  5  6  2  0  0  0
  5  4  1  0  0  0
 18 19  1  0  0  0
 12 11  1  0  0  0
 19 20  1  0  0  0
 33 34  1  0  0  0
  6  1  1  0  0  0
  4  3  2  0  0  0
 11 20  1  0  0  0
 11 10  1  0  0  0
  7 10  1  0  0  0
  7  8  2  0  0  0
  1  8  1  0  0  0
  1  2  2  0  0  0
 20 21  1  0  0  0
  3  2  1  0  0  0
  3 29  1  0  0  0
 30 29  1  0  0  0
 10  9  2  0  0  0
  2 27  1  0  0  0
 21 22  1  0  0  0
 27 28  1  0  0  0
 22 23  1  0  0  0
 24 23  1  0  0  0
 23 25  1  0  0  0
 23 26  1  0  0  0
 36 40  1  0  0  0
 36 41  1  0  0  0
 39 42  1  0  0  0
 39 43  1  0  0  0
M  END
> <minimizedAffinity>
-12.32941

$$$$
4ELF_35I_A_203


 43 46  0  0  0  0  0  0  0  0999 V2000
   19.7081  -27.0182   -0.6935 C   0  0  0  0  0  0  0  0  0  0  0  0
   19.2314  -26.1719    0.2780 C   0  0  0  0  0  0  0  0  0  0  0  0
   17.8737  -25.8187    0.3129 C   0  0  0  0  0  0  0  0  0  0  0  0
   16.9942  -26.3262   -0.6563 C   0  0  0  0  0  0  0  0  0  0  0  0
   17.4470  -27.1847   -1.6439 C   0  0  0  0  0  0  0  0  0  0  0  0
   18.8264  -27.5287   -1.6739 C   0  0  0  0  0  0  0  0  0  0  0  0
   21.7172  -28.5854   -0.2431 C   0  0  0  0  0  0  0  0  0  0  0  0
   21.2206  -27.3650   -0.6834 C   0  0  0  0  0  0  0  0  0  0  0  0
   24.0440  -28.3425    0.2733 O   0  0  0  0  0  0  0  0  0  0  0  0
   23.2022  -28.9082   -0.3833 C   0  0  0  0  0  0  0  0  0  0  0  0
   23.5734  -29.9026   -1.3307 N   0  0  0  0  0  0  0  0  0  0  0  0
   22.5935  -30.5224   -2.0429 N   0  0  0  0  0  0  0  0  0  0  0  0
   22.9203  -31.2184   -3.2274 C   0  0  0  0  0  0  0  0  0  0  0  0
   24.2841  -31.0732   -3.7665 C   0  0  0  0  0  0  0  0  0  0  0  0
   24.5541  -31.4056   -5.1493 C   0  0  0  0  0  0  0  0  0  0  0  0
   25.8359  -31.2628   -5.6327 C   0  0  0  0  0  0  0  0  0  0  0  0
   26.8506  -30.8123   -4.8089 C   0  0  0  0  0  0  0  0  0  0  0  0
   26.5870  -30.4892   -3.4669 C   0  0  0  0  0  0  0  0  0  0  0  0
   25.2683  -30.6320   -2.9714 C   0  0  0  0  0  0  0  0  0  0  0  0
   24.9624  -30.2944   -1.5282 C   0  0  0  0  0  0  0  0  0  0  0  0
   25.2799  -31.5472   -0.6974 C   0  0  0  0  0  0  0  0  0  0  0  0
   26.1187  -31.3809    0.5550 C   0  0  0  0  0  0  0  0  0  0  0  0
   25.5001  -31.6633    1.9130 C   0  0  0  0  0  0  0  0  0  0  0  0
   26.4281  -31.3667    2.8380 F   0  0  0  0  0  0  0  0  0  0  0  0
   25.1245  -32.9482    2.0408 F   0  0  0  0  0  0  0  0  0  0  0  0
   24.4129  -30.8770    2.0434 F   0  0  0  0  0  0  0  0  0  0  0  0
   20.0867  -25.6727    1.2711 O   0  0  0  0  0  0  0  0  0  0  0  0
   20.4460  -24.3160    1.2148 C   0  0  0  0  0  0  0  0  0  0  0  0
   17.4095  -24.9753    1.3040 O   0  0  0  0  0  0  0  0  0  0  0  0
   16.9295  -25.5151    2.4763 C   0  0  0  0  0  0  0  0  0  0  0  0
   16.4089  -27.6996   -2.6985 C   0  0  0  0  0  0  0  0  0  0  0  0
   16.4901  -29.1790   -3.0655 C   0  0  0  0  0  0  0  0  0  0  0  0
   16.6353  -30.1905   -2.1058 C   0  0  0  0  0  0  0  0  0  0  0  0
   16.7077  -31.4847   -2.5089 N   0  0  0  0  0  0  0  0  0  0  0  0
   16.6346  -31.8241   -3.8287 C   0  0  0  0  0  0  0  0  0  0  0  0
   16.7237  -33.1892   -4.2116 N   0  0  0  0  0  0  0  0  0  0  0  0
   16.4992  -30.8706   -4.7738 N   0  0  0  0  0  0  0  0  0  0  0  0
   16.4139  -29.5672   -4.4368 C   0  0  0  0  0  0  0  0  0  0  0  0
   16.2494  -28.5740   -5.4576 N   0  0  0  0  0  0  0  0  0  0  0  0
   16.6714  -33.4382   -5.1627 H   0  0  0  0  0  0  0  0  0  0  0  0
   16.8377  -33.8864   -3.5259 H   0  0  0  0  0  0  0  0  0  0  0  0
   16.1970  -28.8438   -6.4030 H   0  0  0  0  0  0  0  0  0  0  0  0
   16.1889  -27.6223   -5.2132 H   0  0  0  0  0  0  0  0  0  0  0  0
 39 38  1  0  0  0
 16 15  2  0  0  0
 16 17  1  0  0  0
 15 14  1  0  0  0
 38 37  2  0  0  0
 38 32  1  0  0  0
 37 35  1  0  0  0
 31 32  1  0  0  0
 31  5  1  0  0  0
 17 18  2  0  0  0
 14 13  1  0  0  0
 14 19  2  0  0  0
 32 33  2  0  0  0
 13 12  2  0  0  0
 35 36  1  0  0  0
 35 34  2  0  0  0
  5  6  2  0  0  0
  5  4  1  0  0  0
 18 19  1  0  0  0
 12 11  1  0  0  0
 19 20  1  0  0  0
 33 34  1  0  0  0
  6  1  1  0  0  0
  4  3  2  0  0  0
 11 20  1  0  0  0
 11 10  1  0  0  0
  7 10  1  0  0  0
  7  8  2  0  0  0
  1  8  1  0  0  0
  1  2  2  0  0  0
 20 21  1  0  0  0
  3  2  1  0  0  0
  3 29  1  0  0  0
 30 29  1  0  0  0
 10  9  2  0  0  0
  2 27  1  0  0  0
 21 22  1  0  0  0
 27 28  1  0  0  0
 22 23  1  0  0  0
 24 23  1  0  0  0
 23 25  1  0  0  0
 23 26  1  0  0  0
 36 40  1  0  0  0
 36 41  1  0  0  0
 39 42  1  0  0  0
 39 43  1  0  0  0
M  END
> <minimizedAffinity>
-10.71936

$$$$
4ELF_35I_A_203


 43 46  0  0  0  0  0  0  0  0999 V2000
   19.7161  -27.6840   -1.1997 C   0  0  0  0  0  0  0  0  0  0  0  0
   18.9573  -26.8636   -0.4007 C   0  0  0  0  0  0  0  0  0  0  0  0
   17.6412  -26.5357   -0.7608 C   0  0  0  0  0  0  0  0  0  0  0  0
   17.0953  -27.0419   -1.9508 C   0  0  0  0  0  0  0  0  0  0  0  0
   17.8362  -27.8745   -2.7723 C   0  0  0  0  0  0  0  0  0  0  0  0
   19.1714  -28.1929   -2.4011 C   0  0  0  0  0  0  0  0  0  0  0  0
   21.9234  -29.0303   -1.3016 C   0  0  0  0  0  0  0  0  0  0  0  0
   21.1669  -28.0035   -0.7511 C   0  0  0  0  0  0  0  0  0  0  0  0
   23.8601  -28.6502    0.0566 O   0  0  0  0  0  0  0  0  0  0  0  0
   23.3872  -29.2054   -0.9067 C   0  0  0  0  0  0  0  0  0  0  0  0
   24.1937  -30.0458   -1.7237 N   0  0  0  0  0  0  0  0  0  0  0  0
   23.6197  -30.6599   -2.7937 N   0  0  0  0  0  0  0  0  0  0  0  0
   24.4335  -31.1811   -3.8234 C   0  0  0  0  0  0  0  0  0  0  0  0
   25.8709  -30.8568   -3.8063 C   0  0  0  0  0  0  0  0  0  0  0  0
   26.6587  -30.9999   -5.0123 C   0  0  0  0  0  0  0  0  0  0  0  0
   28.0006  -30.6914   -4.9744 C   0  0  0  0  0  0  0  0  0  0  0  0
   28.5875  -30.2551   -3.8012 C   0  0  0  0  0  0  0  0  0  0  0  0
   27.8214  -30.1158   -2.6313 C   0  0  0  0  0  0  0  0  0  0  0  0
   26.4411  -30.4289   -2.6718 C   0  0  0  0  0  0  0  0  0  0  0  0
   25.5977  -30.2907   -1.4228 C   0  0  0  0  0  0  0  0  0  0  0  0
   25.7470  -31.6004   -0.6335 C   0  0  0  0  0  0  0  0  0  0  0  0
   25.2287  -31.6396    0.7911 C   0  0  0  0  0  0  0  0  0  0  0  0
   26.1298  -32.1512    1.9015 C   0  0  0  0  0  0  0  0  0  0  0  0
   25.9810  -31.3181    2.9449 F   0  0  0  0  0  0  0  0  0  0  0  0
   27.4213  -32.1879    1.5289 F   0  0  0  0  0  0  0  0  0  0  0  0
   25.7313  -33.4005    2.2144 F   0  0  0  0  0  0  0  0  0  0  0  0
   19.4733  -26.3666    0.8051 O   0  0  0  0  0  0  0  0  0  0  0  0
   20.0285  -25.0764    0.8058 C   0  0  0  0  0  0  0  0  0  0  0  0
   16.8886  -25.7183    0.0606 O   0  0  0  0  0  0  0  0  0  0  0  0
   15.9529  -24.8786   -0.5009 C   0  0  0  0  0  0  0  0  0  0  0  0
   17.1638  -28.3895   -4.0906 C   0  0  0  0  0  0  0  0  0  0  0  0
   15.8084  -29.0747   -3.9391 C   0  0  0  0  0  0  0  0  0  0  0  0
   14.5942  -28.3798   -4.0294 C   0  0  0  0  0  0  0  0  0  0  0  0
   13.4273  -29.0563   -3.8765 N   0  0  0  0  0  0  0  0  0  0  0  0
   13.4097  -30.4010   -3.6441 C   0  0  0  0  0  0  0  0  0  0  0  0
   12.1682  -31.0720   -3.4803 N   0  0  0  0  0  0  0  0  0  0  0  0
   14.5635  -31.0940   -3.5482 N   0  0  0  0  0  0  0  0  0  0  0  0
   15.7555  -30.4805   -3.6982 C   0  0  0  0  0  0  0  0  0  0  0  0
   16.9673  -31.2418   -3.6126 N   0  0  0  0  0  0  0  0  0  0  0  0
   12.1512  -32.0419   -3.3125 H   0  0  0  0  0  0  0  0  0  0  0  0
   11.3248  -30.5670   -3.5346 H   0  0  0  0  0  0  0  0  0  0  0  0
   16.9288  -32.2114   -3.4464 H   0  0  0  0  0  0  0  0  0  0  0  0
   17.8380  -30.7950   -3.7200 H   0  0  0  0  0  0  0  0  0  0  0  0
 39 38  1  0  0  0
 16 15  2  0  0  0
 16 17  1  0  0  0
 15 14  1  0  0  0
 38 37  2  0  0  0
 38 32  1  0  0  0
 37 35  1  0  0  0
 31 32  1  0  0  0
 31  5  1  0  0  0
 17 18  2  0  0  0
 14 13  1  0  0  0
 14 19  2  0  0  0
 32 33  2  0  0  0
 13 12  2  0  0  0
 35 36  1  0  0  0
 35 34  2  0  0  0
  5  6  2  0  0  0
  5  4  1  0  0  0
 18 19  1  0  0  0
 12 11  1  0  0  0
 19 20  1  0  0  0
 33 34  1  0  0  0
  6  1  1  0  0  0
  4  3  2  0  0  0
 11 20  1  0  0  0
 11 10  1  0  0  0
  7 10  1  0  0  0
  7  8  2  0  0  0
  1  8  1  0  0  0
  1  2  2  0  0  0
 20 21  1  0  0  0
  3  2  1  0  0  0
  3 29  1  0  0  0
 30 29  1  0  0  0
 10  9  2  0  0  0
  2 27  1  0  0  0
 21 22  1  0  0  0
 27 28  1  0  0  0
 22 23  1  0  0  0
 24 23  1  0  0  0
 23 25  1  0  0  0
 23 26  1  0  0  0
 36 40  1  0  0  0
 36 41  1  0  0  0
 39 42  1  0  0  0
 39 43  1  0  0  0
M  END
> <minimizedAffinity>
-10.55458

$$$$
4ELF_35I_A_203


 43 46  0  0  0  0  0  0  0  0999 V2000
   18.4841  -28.1103   -2.1257 C   0  0  0  0  0  0  0  0  0  0  0  0
   17.4257  -28.1758   -2.9990 C   0  0  0  0  0  0  0  0  0  0  0  0
   16.3203  -27.3251   -2.8452 C   0  0  0  0  0  0  0  0  0  0  0  0
   16.2889  -26.4042   -1.7862 C   0  0  0  0  0  0  0  0  0  0  0  0
   17.3440  -26.3139   -0.8942 C   0  0  0  0  0  0  0  0  0  0  0  0
   18.4549  -27.1868   -1.0555 C   0  0  0  0  0  0  0  0  0  0  0  0
   20.9894  -28.6561   -2.4731 C   0  0  0  0  0  0  0  0  0  0  0  0
   19.6737  -29.0827   -2.3442 C   0  0  0  0  0  0  0  0  0  0  0  0
   22.1574  -30.5273   -3.4084 O   0  0  0  0  0  0  0  0  0  0  0  0
   22.1243  -29.6734   -2.5542 C   0  0  0  0  0  0  0  0  0  0  0  0
   23.1524  -29.5925   -1.5742 N   0  0  0  0  0  0  0  0  0  0  0  0
   23.0822  -28.6100   -0.6354 N   0  0  0  0  0  0  0  0  0  0  0  0
   23.8443  -28.7153    0.5489 C   0  0  0  0  0  0  0  0  0  0  0  0
   24.5315  -29.9897    0.8235 C   0  0  0  0  0  0  0  0  0  0  0  0
   24.9673  -30.3009    2.1684 C   0  0  0  0  0  0  0  0  0  0  0  0
   25.6079  -31.4974    2.4031 C   0  0  0  0  0  0  0  0  0  0  0  0
   25.8349  -32.3866    1.3691 C   0  0  0  0  0  0  0  0  0  0  0  0
   25.4107  -32.0836    0.0641 C   0  0  0  0  0  0  0  0  0  0  0  0
   24.7483  -30.8553   -0.1760 C   0  0  0  0  0  0  0  0  0  0  0  0
   24.2869  -30.5061   -1.5744 C   0  0  0  0  0  0  0  0  0  0  0  0
   25.4822  -29.8620   -2.2934 C   0  0  0  0  0  0  0  0  0  0  0  0
   26.3875  -30.7569   -3.1177 C   0  0  0  0  0  0  0  0  0  0  0  0
   26.4977  -30.5338   -4.6158 C   0  0  0  0  0  0  0  0  0  0  0  0
   27.2373  -29.4268   -4.7959 F   0  0  0  0  0  0  0  0  0  0  0  0
   25.2939  -30.3759   -5.1940 F   0  0  0  0  0  0  0  0  0  0  0  0
   27.0994  -31.6147   -5.1515 F   0  0  0  0  0  0  0  0  0  0  0  0
   17.4465  -29.0706   -4.0788 O   0  0  0  0  0  0  0  0  0  0  0  0
   16.7650  -30.2910   -3.9406 C   0  0  0  0  0  0  0  0  0  0  0  0
   15.2697  -27.3968   -3.7398 O   0  0  0  0  0  0  0  0  0  0  0  0
   14.0260  -27.7776   -3.2876 C   0  0  0  0  0  0  0  0  0  0  0  0
   17.2313  -25.2712    0.2698 C   0  0  0  0  0  0  0  0  0  0  0  0
   18.0054  -25.5910    1.5458 C   0  0  0  0  0  0  0  0  0  0  0  0
   17.5446  -26.5074    2.5015 C   0  0  0  0  0  0  0  0  0  0  0  0
   18.2851  -26.7351    3.6162 N   0  0  0  0  0  0  0  0  0  0  0  0
   19.4733  -26.0966    3.8239 C   0  0  0  0  0  0  0  0  0  0  0  0
   20.2148  -26.3548    5.0078 N   0  0  0  0  0  0  0  0  0  0  0  0
   19.9384  -25.2066    2.9227 N   0  0  0  0  0  0  0  0  0  0  0  0
   19.2528  -24.9424    1.7914 C   0  0  0  0  0  0  0  0  0  0  0  0
   19.7776  -24.0082    0.8389 N   0  0  0  0  0  0  0  0  0  0  0  0
   21.0724  -25.8962    5.1613 H   0  0  0  0  0  0  0  0  0  0  0  0
   19.8712  -26.9923    5.6747 H   0  0  0  0  0  0  0  0  0  0  0  0
   20.6382  -23.5617    1.0101 H   0  0  0  0  0  0  0  0  0  0  0  0
   19.2773  -23.8130    0.0137 H   0  0  0  0  0  0  0  0  0  0  0  0
 39 38  1  0  0  0
 16 15  2  0  0  0
 16 17  1  0  0  0
 15 14  1  0  0  0
 38 37  2  0  0  0
 38 32  1  0  0  0
 37 35  1  0  0  0
 31 32  1  0  0  0
 31  5  1  0  0  0
 17 18  2  0  0  0
 14 13  1  0  0  0
 14 19  2  0  0  0
 32 33  2  0  0  0
 13 12  2  0  0  0
 35 36  1  0  0  0
 35 34  2  0  0  0
  5  6  2  0  0  0
  5  4  1  0  0  0
 18 19  1  0  0  0
 12 11  1  0  0  0
 19 20  1  0  0  0
 33 34  1  0  0  0
  6  1  1  0  0  0
  4  3  2  0  0  0
 11 20  1  0  0  0
 11 10  1  0  0  0
  7 10  1  0  0  0
  7  8  2  0  0  0
  1  8  1  0  0  0
  1  2  2  0  0  0
 20 21  1  0  0  0
  3  2  1  0  0  0
  3 29  1  0  0  0
 30 29  1  0  0  0
 10  9  2  0  0  0
  2 27  1  0  0  0
 21 22  1  0  0  0
 27 28  1  0  0  0
 22 23  1  0  0  0
 24 23  1  0  0  0
 23 25  1  0  0  0
 23 26  1  0  0  0
 36 40  1  0  0  0
 36 41  1  0  0  0
 39 42  1  0  0  0
 39 43  1  0  0  0
M  END
> <minimizedAffinity>
-10.37783

$$$$
4ELF_35I_A_203


 43 46  0  0  0  0  0  0  0  0999 V2000
   19.7883  -28.6006   -1.9218 C   0  0  0  0  0  0  0  0  0  0  0  0
   19.5739  -27.3914   -1.3062 C   0  0  0  0  0  0  0  0  0  0  0  0
   18.2878  -26.8318   -1.2613 C   0  0  0  0  0  0  0  0  0  0  0  0
   17.2106  -27.5068   -1.8568 C   0  0  0  0  0  0  0  0  0  0  0  0
   17.3976  -28.7291   -2.4798 C   0  0  0  0  0  0  0  0  0  0  0  0
   18.7068  -29.2820   -2.5261 C   0  0  0  0  0  0  0  0  0  0  0  0
   21.5244  -30.5034   -2.1678 C   0  0  0  0  0  0  0  0  0  0  0  0
   21.2344  -29.1633   -1.9448 C   0  0  0  0  0  0  0  0  0  0  0  0
   23.3251  -31.7023   -3.1975 O   0  0  0  0  0  0  0  0  0  0  0  0
   22.9724  -30.9649   -2.3078 C   0  0  0  0  0  0  0  0  0  0  0  0
   23.9073  -30.5030   -1.3399 N   0  0  0  0  0  0  0  0  0  0  0  0
   23.4710  -29.6661   -0.3597 N   0  0  0  0  0  0  0  0  0  0  0  0
   24.2451  -29.4894    0.8081 C   0  0  0  0  0  0  0  0  0  0  0  0
   25.4002  -30.3799    1.0190 C   0  0  0  0  0  0  0  0  0  0  0  0
   25.9653  -30.5297    2.3433 C   0  0  0  0  0  0  0  0  0  0  0  0
   27.0449  -31.3669    2.5182 C   0  0  0  0  0  0  0  0  0  0  0  0
   27.5834  -32.0515    1.4446 C   0  0  0  0  0  0  0  0  0  0  0  0
   27.0334  -31.9058    0.1597 C   0  0  0  0  0  0  0  0  0  0  0  0
   25.9209  -31.0483   -0.0191 C   0  0  0  0  0  0  0  0  0  0  0  0
   25.3152  -30.8727   -1.3948 C   0  0  0  0  0  0  0  0  0  0  0  0
   26.1217  -29.7734   -2.1030 C   0  0  0  0  0  0  0  0  0  0  0  0
   26.0967  -29.7323   -3.6187 C   0  0  0  0  0  0  0  0  0  0  0  0
   27.1427  -30.5025   -4.4056 C   0  0  0  0  0  0  0  0  0  0  0  0
   27.6506  -29.6572   -5.3180 F   0  0  0  0  0  0  0  0  0  0  0  0
   26.6219  -31.5782   -5.0220 F   0  0  0  0  0  0  0  0  0  0  0  0
   28.0911  -30.9133   -3.5402 F   0  0  0  0  0  0  0  0  0  0  0  0
   20.6304  -26.7112   -0.6830 O   0  0  0  0  0  0  0  0  0  0  0  0
   20.8547  -26.9464    0.6835 C   0  0  0  0  0  0  0  0  0  0  0  0
   18.0885  -25.6201   -0.6280 O   0  0  0  0  0  0  0  0  0  0  0  0
   17.2335  -25.5569    0.4495 C   0  0  0  0  0  0  0  0  0  0  0  0
   16.1501  -29.4161   -3.1332 C   0  0  0  0  0  0  0  0  0  0  0  0
   16.2297  -30.9283   -3.3245 C   0  0  0  0  0  0  0  0  0  0  0  0
   16.6866  -31.7955   -2.3221 C   0  0  0  0  0  0  0  0  0  0  0  0
   16.7361  -33.1295   -2.5682 N   0  0  0  0  0  0  0  0  0  0  0  0
   16.3435  -33.6467   -3.7685 C   0  0  0  0  0  0  0  0  0  0  0  0
   16.4190  -35.0478   -3.9911 N   0  0  0  0  0  0  0  0  0  0  0  0
   15.9036  -32.8348   -4.7524 N   0  0  0  0  0  0  0  0  0  0  0  0
   15.8238  -31.5010   -4.5671 C   0  0  0  0  0  0  0  0  0  0  0  0
   15.3337  -30.6609   -5.6204 N   0  0  0  0  0  0  0  0  0  0  0  0
   16.1368  -35.4248   -4.8556 H   0  0  0  0  0  0  0  0  0  0  0  0
   16.7537  -35.6417   -3.2808 H   0  0  0  0  0  0  0  0  0  0  0  0
   15.0541  -31.0578   -6.4769 H   0  0  0  0  0  0  0  0  0  0  0  0
   15.2766  -29.6872   -5.4872 H   0  0  0  0  0  0  0  0  0  0  0  0
 39 38  1  0  0  0
 16 15  2  0  0  0
 16 17  1  0  0  0
 15 14  1  0  0  0
 38 37  2  0  0  0
 38 32  1  0  0  0
 37 35  1  0  0  0
 31 32  1  0  0  0
 31  5  1  0  0  0
 17 18  2  0  0  0
 14 13  1  0  0  0
 14 19  2  0  0  0
 32 33  2  0  0  0
 13 12  2  0  0  0
 35 36  1  0  0  0
 35 34  2  0  0  0
  5  6  2  0  0  0
  5  4  1  0  0  0
 18 19  1  0  0  0
 12 11  1  0  0  0
 19 20  1  0  0  0
 33 34  1  0  0  0
  6  1  1  0  0  0
  4  3  2  0  0  0
 11 20  1  0  0  0
 11 10  1  0  0  0
  7 10  1  0  0  0
  7  8  2  0  0  0
  1  8  1  0  0  0
  1  2  2  0  0  0
 20 21  1  0  0  0
  3  2  1  0  0  0
  3 29  1  0  0  0
 30 29  1  0  0  0
 10  9  2  0  0  0
  2 27  1  0  0  0
 21 22  1  0  0  0
 27 28  1  0  0  0
 22 23  1  0  0  0
 24 23  1  0  0  0
 23 25  1  0  0  0
 23 26  1  0  0  0
 36 40  1  0  0  0
 36 41  1  0  0  0
 39 42  1  0  0  0
 39 43  1  0  0  0
M  END
> <minimizedAffinity>
-10.01254

$$$$
4ELF_35I_A_203


 43 46  0  0  0  0  0  0  0  0999 V2000
   19.3782  -26.8781   -0.9912 C   0  0  0  0  0  0  0  0  0  0  0  0
   18.5584  -27.4912   -1.9074 C   0  0  0  0  0  0  0  0  0  0  0  0
   17.1834  -27.2121   -1.9335 C   0  0  0  0  0  0  0  0  0  0  0  0
   16.6365  -26.3055   -1.0117 C   0  0  0  0  0  0  0  0  0  0  0  0
   17.4405  -25.6700   -0.0807 C   0  0  0  0  0  0  0  0  0  0  0  0
   18.8308  -25.9672   -0.0586 C   0  0  0  0  0  0  0  0  0  0  0  0
   21.4284  -28.2884   -0.2819 C   0  0  0  0  0  0  0  0  0  0  0  0
   20.8886  -27.2342   -1.0079 C   0  0  0  0  0  0  0  0  0  0  0  0
   23.7762  -28.0865    0.1502 O   0  0  0  0  0  0  0  0  0  0  0  0
   22.8985  -28.6637   -0.4466 C   0  0  0  0  0  0  0  0  0  0  0  0
   23.2113  -29.7222   -1.3443 N   0  0  0  0  0  0  0  0  0  0  0  0
   22.1924  -30.3524   -1.9893 N   0  0  0  0  0  0  0  0  0  0  0  0
   22.4620  -31.1256   -3.1399 C   0  0  0  0  0  0  0  0  0  0  0  0
   23.8118  -31.0534   -3.7267 C   0  0  0  0  0  0  0  0  0  0  0  0
   24.0288  -31.4737   -5.0948 C   0  0  0  0  0  0  0  0  0  0  0  0
   25.2984  -31.3981   -5.6236 C   0  0  0  0  0  0  0  0  0  0  0  0
   26.3508  -30.9314   -4.8581 C   0  0  0  0  0  0  0  0  0  0  0  0
   26.1387  -30.5230   -3.5303 C   0  0  0  0  0  0  0  0  0  0  0  0
   24.8326  -30.5968   -2.9884 C   0  0  0  0  0  0  0  0  0  0  0  0
   24.5817  -30.1668   -1.5593 C   0  0  0  0  0  0  0  0  0  0  0  0
   24.8892  -31.3782   -0.6658 C   0  0  0  0  0  0  0  0  0  0  0  0
   25.8257  -31.1797    0.5104 C   0  0  0  0  0  0  0  0  0  0  0  0
   25.2949  -31.3376    1.9245 C   0  0  0  0  0  0  0  0  0  0  0  0
   24.2335  -30.5221    2.0403 F   0  0  0  0  0  0  0  0  0  0  0  0
   26.2170  -31.0187    2.8499 F   0  0  0  0  0  0  0  0  0  0  0  0
   24.9393  -32.6273    2.0908 F   0  0  0  0  0  0  0  0  0  0  0  0
   19.0868  -28.3812   -2.8538 O   0  0  0  0  0  0  0  0  0  0  0  0
   18.8402  -29.7533   -2.6823 C   0  0  0  0  0  0  0  0  0  0  0  0
   16.3757  -27.8293   -2.8693 O   0  0  0  0  0  0  0  0  0  0  0  0
   15.0719  -27.4104   -3.0134 C   0  0  0  0  0  0  0  0  0  0  0  0
   16.7561  -24.6813    0.9239 C   0  0  0  0  0  0  0  0  0  0  0  0
   17.1978  -24.7800    2.3816 C   0  0  0  0  0  0  0  0  0  0  0  0
   16.7199  -25.7692    3.2525 C   0  0  0  0  0  0  0  0  0  0  0  0
   17.1533  -25.7894    4.5387 N   0  0  0  0  0  0  0  0  0  0  0  0
   18.0509  -24.8714    5.0015 C   0  0  0  0  0  0  0  0  0  0  0  0
   18.4733  -24.9198    6.3571 N   0  0  0  0  0  0  0  0  0  0  0  0
   18.5240  -23.9058    4.1864 N   0  0  0  0  0  0  0  0  0  0  0  0
   18.1376  -23.8369    2.8958 C   0  0  0  0  0  0  0  0  0  0  0  0
   18.6701  -22.8143    2.0436 N   0  0  0  0  0  0  0  0  0  0  0  0
   19.1206  -24.2594    6.6948 H   0  0  0  0  0  0  0  0  0  0  0  0
   18.1187  -25.6137    6.9587 H   0  0  0  0  0  0  0  0  0  0  0  0
   19.3183  -22.1646    2.4001 H   0  0  0  0  0  0  0  0  0  0  0  0
   18.3876  -22.7617    1.1020 H   0  0  0  0  0  0  0  0  0  0  0  0
 39 38  1  0  0  0
 16 15  2  0  0  0
 16 17  1  0  0  0
 15 14  1  0  0  0
 38 37  2  0  0  0
 38 32  1  0  0  0
 37 35  1  0  0  0
 31 32  1  0  0  0
 31  5  1  0  0  0
 17 18  2  0  0  0
 14 13  1  0  0  0
 14 19  2  0  0  0
 32 33  2  0  0  0
 13 12  2  0  0  0
 35 36  1  0  0  0
 35 34  2  0  0  0
  5  6  2  0  0  0
  5  4  1  0  0  0
 18 19  1  0  0  0
 12 11  1  0  0  0
 19 20  1  0  0  0
 33 34  1  0  0  0
  6  1  1  0  0  0
  4  3  2  0  0  0
 11 20  1  0  0  0
 11 10  1  0  0  0
  7 10  1  0  0  0
  7  8  2  0  0  0
  1  8  1  0  0  0
  1  2  2  0  0  0
 20 21  1  0  0  0
  3  2  1  0  0  0
  3 29  1  0  0  0
 30 29  1  0  0  0
 10  9  2  0  0  0
  2 27  1  0  0  0
 21 22  1  0  0  0
 27 28  1  0  0  0
 22 23  1  0  0  0
 24 23  1  0  0  0
 23 25  1  0  0  0
 23 26  1  0  0  0
 36 40  1  0  0  0
 36 41  1  0  0  0
 39 42  1  0  0  0
 39 43  1  0  0  0
M  END
> <minimizedAffinity>
-9.95221

$$$$
4ELF_35I_A_203


 43 46  0  0  0  0  0  0  0  0999 V2000
   24.2244  -29.9988   -1.7231 C   0  0  0  0  0  0  0  0  0  0  0  0
   25.1464  -30.2361   -2.7135 C   0  0  0  0  0  0  0  0  0  0  0  0
   26.4787  -30.5364   -2.3908 C   0  0  0  0  0  0  0  0  0  0  0  0
   26.8778  -30.5872   -1.0459 C   0  0  0  0  0  0  0  0  0  0  0  0
   25.9683  -30.3567   -0.0277 C   0  0  0  0  0  0  0  0  0  0  0  0
   24.6231  -30.0453   -0.3674 C   0  0  0  0  0  0  0  0  0  0  0  0
   22.1488  -28.4584   -1.8427 C   0  0  0  0  0  0  0  0  0  0  0  0
   22.7687  -29.6645   -2.1441 C   0  0  0  0  0  0  0  0  0  0  0  0
   20.5488  -28.0920   -3.5879 O   0  0  0  0  0  0  0  0  0  0  0  0
   20.7632  -28.1443   -2.4000 C   0  0  0  0  0  0  0  0  0  0  0  0
   19.7175  -27.9013   -1.4664 N   0  0  0  0  0  0  0  0  0  0  0  0
   19.9990  -27.9794   -0.1374 N   0  0  0  0  0  0  0  0  0  0  0  0
   19.1225  -27.3920    0.8012 C   0  0  0  0  0  0  0  0  0  0  0  0
   18.0381  -26.5308    0.2971 C   0  0  0  0  0  0  0  0  0  0  0  0
   17.3858  -25.5940    1.1873 C   0  0  0  0  0  0  0  0  0  0  0  0
   16.3745  -24.7986    0.6956 C   0  0  0  0  0  0  0  0  0  0  0  0
   15.9853  -24.8959   -0.6274 C   0  0  0  0  0  0  0  0  0  0  0  0
   16.6199  -25.8052   -1.4907 C   0  0  0  0  0  0  0  0  0  0  0  0
   17.6625  -26.6196   -0.9860 C   0  0  0  0  0  0  0  0  0  0  0  0
   18.3568  -27.6092   -1.8965 C   0  0  0  0  0  0  0  0  0  0  0  0
   17.5142  -28.8939   -1.8884 C   0  0  0  0  0  0  0  0  0  0  0  0
   17.3992  -29.6816   -3.1792 C   0  0  0  0  0  0  0  0  0  0  0  0
   16.5187  -29.1573   -4.3000 C   0  0  0  0  0  0  0  0  0  0  0  0
   17.1280  -28.0714   -4.8045 F   0  0  0  0  0  0  0  0  0  0  0  0
   15.2890  -28.8288   -3.8663 F   0  0  0  0  0  0  0  0  0  0  0  0
   16.4079  -30.1293   -5.2276 F   0  0  0  0  0  0  0  0  0  0  0  0
   24.7647  -30.2153   -4.0630 O   0  0  0  0  0  0  0  0  0  0  0  0
   24.3402  -31.4188   -4.6496 C   0  0  0  0  0  0  0  0  0  0  0  0
   27.3900  -30.7836   -3.3996 O   0  0  0  0  0  0  0  0  0  0  0  0
   28.6314  -30.1904   -3.3448 C   0  0  0  0  0  0  0  0  0  0  0  0
   26.4907  -30.4178    1.4482 C   0  0  0  0  0  0  0  0  0  0  0  0
   25.4549  -30.1887    2.5456 C   0  0  0  0  0  0  0  0  0  0  0  0
   25.1583  -28.9160    3.0532 C   0  0  0  0  0  0  0  0  0  0  0  0
   24.2293  -28.7911    4.0350 N   0  0  0  0  0  0  0  0  0  0  0  0
   23.5714  -29.8776    4.5344 C   0  0  0  0  0  0  0  0  0  0  0  0
   22.6125  -29.7071    5.5686 N   0  0  0  0  0  0  0  0  0  0  0  0
   23.8403  -31.1146    4.0673 N   0  0  0  0  0  0  0  0  0  0  0  0
   24.7475  -31.3037    3.0870 C   0  0  0  0  0  0  0  0  0  0  0  0
   25.0010  -32.6254    2.5928 N   0  0  0  0  0  0  0  0  0  0  0  0
   22.1357  -30.4883    5.9316 H   0  0  0  0  0  0  0  0  0  0  0  0
   22.4246  -28.8077    5.9224 H   0  0  0  0  0  0  0  0  0  0  0  0
   24.5119  -33.3933    2.9675 H   0  0  0  0  0  0  0  0  0  0  0  0
   25.6641  -32.7651    1.8786 H   0  0  0  0  0  0  0  0  0  0  0  0
 39 38  1  0  0  0
 16 15  2  0  0  0
 16 17  1  0  0  0
 15 14  1  0  0  0
 38 37  2  0  0  0
 38 32  1  0  0  0
 37 35  1  0  0  0
 31 32  1  0  0  0
 31  5  1  0  0  0
 17 18  2  0  0  0
 14 13  1  0  0  0
 14 19  2  0  0  0
 32 33  2  0  0  0
 13 12  2  0  0  0
 35 36  1  0  0  0
 35 34  2  0  0  0
  5  6  2  0  0  0
  5  4  1  0  0  0
 18 19  1  0  0  0
 12 11  1  0  0  0
 19 20  1  0  0  0
 33 34  1  0  0  0
  6  1  1  0  0  0
  4  3  2  0  0  0
 11 20  1  0  0  0
 11 10  1  0  0  0
  7 10  1  0  0  0
  7  8  2  0  0  0
  1  8  1  0  0  0
  1  2  2  0  0  0
 20 21  1  0  0  0
  3  2  1  0  0  0
  3 29  1  0  0  0
 30 29  1  0  0  0
 10  9  2  0  0  0
  2 27  1  0  0  0
 21 22  1  0  0  0
 27 28  1  0  0  0
 22 23  1  0  0  0
 24 23  1  0  0  0
 23 25  1  0  0  0
 23 26  1  0  0  0
 36 40  1  0  0  0
 36 41  1  0  0  0
 39 42  1  0  0  0
 39 43  1  0  0  0
M  END
> <minimizedAffinity>
-9.78221

$$$$
4ELF_35I_A_203


 43 46  0  0  0  0  0  0  0  0999 V2000
   24.1429  -29.8284   -1.2672 C   0  0  0  0  0  0  0  0  0  0  0  0
   25.0754  -30.1556   -2.2214 C   0  0  0  0  0  0  0  0  0  0  0  0
   26.3990  -30.4449   -1.8556 C   0  0  0  0  0  0  0  0  0  0  0  0
   26.7785  -30.3924   -0.5052 C   0  0  0  0  0  0  0  0  0  0  0  0
   25.8579  -30.0699    0.4775 C   0  0  0  0  0  0  0  0  0  0  0  0
   24.5218  -29.7706    0.0938 C   0  0  0  0  0  0  0  0  0  0  0  0
   22.1579  -28.2316   -1.7204 C   0  0  0  0  0  0  0  0  0  0  0  0
   22.6977  -29.5115   -1.7355 C   0  0  0  0  0  0  0  0  0  0  0  0
   20.5923  -27.9431   -3.5108 O   0  0  0  0  0  0  0  0  0  0  0  0
   20.7776  -27.9709   -2.3173 C   0  0  0  0  0  0  0  0  0  0  0  0
   19.7010  -27.7483   -1.4142 N   0  0  0  0  0  0  0  0  0  0  0  0
   19.9507  -27.7977   -0.0775 N   0  0  0  0  0  0  0  0  0  0  0  0
   19.0319  -27.2254    0.8295 C   0  0  0  0  0  0  0  0  0  0  0  0
   17.9337  -26.4074    0.2849 C   0  0  0  0  0  0  0  0  0  0  0  0
   17.2290  -25.4794    1.1437 C   0  0  0  0  0  0  0  0  0  0  0  0
   16.2057  -24.7246    0.6145 C   0  0  0  0  0  0  0  0  0  0  0  0
   15.8540  -24.8538   -0.7163 C   0  0  0  0  0  0  0  0  0  0  0  0
   16.5394  -25.7546   -1.5491 C   0  0  0  0  0  0  0  0  0  0  0  0
   17.5943  -26.5272   -1.0058 C   0  0  0  0  0  0  0  0  0  0  0  0
   18.3432  -27.5070   -1.8830 C   0  0  0  0  0  0  0  0  0  0  0  0
   17.5423  -28.8181   -1.8763 C   0  0  0  0  0  0  0  0  0  0  0  0
   17.5036  -29.6387   -3.1509 C   0  0  0  0  0  0  0  0  0  0  0  0
   16.5491  -29.2461   -4.2651 C   0  0  0  0  0  0  0  0  0  0  0  0
   17.0228  -28.1123   -4.8083 F   0  0  0  0  0  0  0  0  0  0  0  0
   15.2984  -29.0464   -3.8132 F   0  0  0  0  0  0  0  0  0  0  0  0
   16.5314  -30.2484   -5.1664 F   0  0  0  0  0  0  0  0  0  0  0  0
   24.7130  -30.2386   -3.5737 O   0  0  0  0  0  0  0  0  0  0  0  0
   24.2768  -31.4792   -4.0673 C   0  0  0  0  0  0  0  0  0  0  0  0
   27.3210  -30.7833   -2.8275 O   0  0  0  0  0  0  0  0  0  0  0  0
   28.4710  -30.0364   -2.9529 C   0  0  0  0  0  0  0  0  0  0  0  0
   26.3587  -30.0186    1.9613 C   0  0  0  0  0  0  0  0  0  0  0  0
   26.5134  -31.3600    2.6729 C   0  0  0  0  0  0  0  0  0  0  0  0
   25.5970  -32.4095    2.5180 C   0  0  0  0  0  0  0  0  0  0  0  0
   25.7971  -33.5721    3.1896 N   0  0  0  0  0  0  0  0  0  0  0  0
   26.8759  -33.7448    4.0074 C   0  0  0  0  0  0  0  0  0  0  0  0
   27.0456  -34.9732    4.7007 N   0  0  0  0  0  0  0  0  0  0  0  0
   27.7712  -32.7499    4.1782 N   0  0  0  0  0  0  0  0  0  0  0  0
   27.6323  -31.5735    3.5328 C   0  0  0  0  0  0  0  0  0  0  0  0
   28.6079  -30.5388    3.7144 N   0  0  0  0  0  0  0  0  0  0  0  0
   27.8225  -35.1017    5.2915 H   0  0  0  0  0  0  0  0  0  0  0  0
   26.3862  -35.6959    4.5902 H   0  0  0  0  0  0  0  0  0  0  0  0
   29.3790  -30.6880    4.3079 H   0  0  0  0  0  0  0  0  0  0  0  0
   28.5067  -29.6791    3.2454 H   0  0  0  0  0  0  0  0  0  0  0  0
 39 38  1  0  0  0
 16 15  2  0  0  0
 16 17  1  0  0  0
 15 14  1  0  0  0
 38 37  2  0  0  0
 38 32  1  0  0  0
 37 35  1  0  0  0
 31 32  1  0  0  0
 31  5  1  0  0  0
 17 18  2  0  0  0
 14 13  1  0  0  0
 14 19  2  0  0  0
 32 33  2  0  0  0
 13 12  2  0  0  0
 35 36  1  0  0  0
 35 34  2  0  0  0
  5  6  2  0  0  0
  5  4  1  0  0  0
 18 19  1  0  0  0
 12 11  1  0  0  0
 19 20  1  0  0  0
 33 34  1  0  0  0
  6  1  1  0  0  0
  4  3  2  0  0  0
 11 20  1  0  0  0
 11 10  1  0  0  0
  7 10  1  0  0  0
  7  8  2  0  0  0
  1  8  1  0  0  0
  1  2  2  0  0  0
 20 21  1  0  0  0
  3  2  1  0  0  0
  3 29  1  0  0  0
 30 29  1  0  0  0
 10  9  2  0  0  0
  2 27  1  0  0  0
 21 22  1  0  0  0
 27 28  1  0  0  0
 22 23  1  0  0  0
 24 23  1  0  0  0
 23 25  1  0  0  0
 23 26  1  0  0  0
 36 40  1  0  0  0
 36 41  1  0  0  0
 39 42  1  0  0  0
 39 43  1  0  0  0
M  END
> <minimizedAffinity>
-9.41067

$$$$
4ELF_35I_A_203


 43 46  0  0  0  0  0  0  0  0999 V2000
   20.1875  -28.3513   -1.8961 C   0  0  0  0  0  0  0  0  0  0  0  0
   19.0752  -28.9361   -2.4511 C   0  0  0  0  0  0  0  0  0  0  0  0
   17.7954  -28.4203   -2.1956 C   0  0  0  0  0  0  0  0  0  0  0  0
   17.6464  -27.3025   -1.3596 C   0  0  0  0  0  0  0  0  0  0  0  0
   18.7507  -26.6908   -0.7908 C   0  0  0  0  0  0  0  0  0  0  0  0
   20.0416  -27.2276   -1.0505 C   0  0  0  0  0  0  0  0  0  0  0  0
   22.2211  -29.8576   -1.3569 C   0  0  0  0  0  0  0  0  0  0  0  0
   21.5743  -28.9728   -2.2104 C   0  0  0  0  0  0  0  0  0  0  0  0
   23.5464  -31.3795   -2.6481 O   0  0  0  0  0  0  0  0  0  0  0  0
   23.5208  -30.5319   -1.7875 C   0  0  0  0  0  0  0  0  0  0  0  0
   24.7181  -30.1349   -1.1295 N   0  0  0  0  0  0  0  0  0  0  0  0
   24.6468  -29.1701   -0.1726 N   0  0  0  0  0  0  0  0  0  0  0  0
   25.7060  -29.0158    0.7486 C   0  0  0  0  0  0  0  0  0  0  0  0
   26.7616  -30.0438    0.7743 C   0  0  0  0  0  0  0  0  0  0  0  0
   27.6205  -30.1694    1.9327 C   0  0  0  0  0  0  0  0  0  0  0  0
   28.6009  -31.1368    1.9360 C   0  0  0  0  0  0  0  0  0  0  0  0
   28.7649  -31.9733    0.8476 C   0  0  0  0  0  0  0  0  0  0  0  0
   27.9300  -31.8510   -0.2761 C   0  0  0  0  0  0  0  0  0  0  0  0
   26.9194  -30.8591   -0.2773 C   0  0  0  0  0  0  0  0  0  0  0  0
   26.0117  -30.7062   -1.4786 C   0  0  0  0  0  0  0  0  0  0  0  0
   26.7392  -29.7929   -2.4772 C   0  0  0  0  0  0  0  0  0  0  0  0
   27.3232  -30.4222   -3.7272 C   0  0  0  0  0  0  0  0  0  0  0  0
   26.4328  -30.6508   -4.9360 C   0  0  0  0  0  0  0  0  0  0  0  0
   26.9450  -29.9269   -5.9452 F   0  0  0  0  0  0  0  0  0  0  0  0
   25.1618  -30.2763   -4.7066 F   0  0  0  0  0  0  0  0  0  0  0  0
   26.4536  -31.9682   -5.2214 F   0  0  0  0  0  0  0  0  0  0  0  0
   19.2022  -30.0382   -3.3093 O   0  0  0  0  0  0  0  0  0  0  0  0
   18.6815  -31.2716   -2.8843 C   0  0  0  0  0  0  0  0  0  0  0  0
   16.6887  -29.0142   -2.7715 O   0  0  0  0  0  0  0  0  0  0  0  0
   15.8131  -28.2408   -3.5002 C   0  0  0  0  0  0  0  0  0  0  0  0
   18.5042  -25.4559    0.1415 C   0  0  0  0  0  0  0  0  0  0  0  0
   17.8506  -25.7429    1.4907 C   0  0  0  0  0  0  0  0  0  0  0  0
   18.2608  -26.7941    2.3226 C   0  0  0  0  0  0  0  0  0  0  0  0
   17.6264  -26.9924    3.5062 N   0  0  0  0  0  0  0  0  0  0  0  0
   16.6017  -26.1855    3.9082 C   0  0  0  0  0  0  0  0  0  0  0  0
   15.9565  -26.4311    5.1498 N   0  0  0  0  0  0  0  0  0  0  0  0
   16.1837  -25.1691    3.1253 N   0  0  0  0  0  0  0  0  0  0  0  0
   16.7783  -24.9158    1.9413 C   0  0  0  0  0  0  0  0  0  0  0  0
   16.3299  -23.8173    1.1366 N   0  0  0  0  0  0  0  0  0  0  0  0
   15.2169  -25.8514    5.4434 H   0  0  0  0  0  0  0  0  0  0  0  0
   16.2489  -27.1811    5.7166 H   0  0  0  0  0  0  0  0  0  0  0  0
   15.5901  -23.2478    1.4492 H   0  0  0  0  0  0  0  0  0  0  0  0
   16.7618  -23.6323    0.2714 H   0  0  0  0  0  0  0  0  0  0  0  0
 39 38  1  0  0  0
 16 15  2  0  0  0
 16 17  1  0  0  0
 15 14  1  0  0  0
 38 37  2  0  0  0
 38 32  1  0  0  0
 37 35  1  0  0  0
 31 32  1  0  0  0
 31  5  1  0  0  0
 17 18  2  0  0  0
 14 13  1  0  0  0
 14 19  2  0  0  0
 32 33  2  0  0  0
 13 12  2  0  0  0
 35 36  1  0  0  0
 35 34  2  0  0  0
  5  6  2  0  0  0
  5  4  1  0  0  0
 18 19  1  0  0  0
 12 11  1  0  0  0
 19 20  1  0  0  0
 33 34  1  0  0  0
  6  1  1  0  0  0
  4  3  2  0  0  0
 11 20  1  0  0  0
 11 10  1  0  0  0
  7 10  1  0  0  0
  7  8  2  0  0  0
  1  8  1  0  0  0
  1  2  2  0  0  0
 20 21  1  0  0  0
  3  2  1  0  0  0
  3 29  1  0  0  0
 30 29  1  0  0  0
 10  9  2  0  0  0
  2 27  1  0  0  0
 21 22  1  0  0  0
 27 28  1  0  0  0
 22 23  1  0  0  0
 24 23  1  0  0  0
 23 25  1  0  0  0
 23 26  1  0  0  0
 36 40  1  0  0  0
 36 41  1  0  0  0
 39 42  1  0  0  0
 39 43  1  0  0  0
M  END
> <minimizedAffinity>
-9.38830

$$$$
