6HTG_T61_A_504


 23 24  0  0  0  0  0  0  0  0999 V2000
   45.6413   33.9191   85.2621 C   0  0  0  0  0  0  0  0  0  0  0  0
   45.6545   34.8824   86.2689 C   0  0  0  0  0  0  0  0  0  0  0  0
   44.4795   33.7338   84.5195 C   0  0  0  0  0  0  0  0  0  0  0  0
   43.3284   34.4345   84.8344 C   0  0  0  0  0  0  0  0  0  0  0  0
   43.3379   35.3357   85.8823 C   0  0  0  0  0  0  0  0  0  0  0  0
   44.5048   35.6108   86.5907 C   0  0  0  0  0  0  0  0  0  0  0  0
   41.8561   36.1196   86.3249 Cl  0  0  0  0  0  0  0  0  0  0  0  0
   46.6095   31.7128   85.3585 N   0  0  0  0  0  0  0  0  0  0  0  0
   46.8088   32.9957   85.0804 C   0  0  0  0  0  0  0  0  0  0  0  0
   47.9074   33.4184   84.7303 O   0  0  0  0  0  0  0  0  0  0  0  0
   47.7008   30.8447   85.3719 O   0  0  0  0  0  0  0  0  0  0  0  0
   45.7038   31.3790   85.5525 H   0  0  0  0  0  0  0  0  0  0  0  0
   48.5089   31.3380   85.1608 H   0  0  0  0  0  0  0  0  0  0  0  0
   44.7221   37.8582   87.5564 C   0  0  0  0  0  0  0  0  0  0  0  0
   44.4671   36.5361   87.6715 N   0  0  0  0  0  0  0  0  0  0  0  0
   44.5110   38.4768   86.5237 O   0  0  0  0  0  0  0  0  0  0  0  0
   44.2396   36.1891   88.5642 H   0  0  0  0  0  0  0  0  0  0  0  0
   45.7160   40.0399   91.0824 C   0  0  0  0  0  0  0  0  0  0  0  0
   44.8900   38.9406   91.1293 C   0  0  0  0  0  0  0  0  0  0  0  0
   44.6377   38.2098   89.9846 C   0  0  0  0  0  0  0  0  0  0  0  0
   45.2118   38.5786   88.7695 C   0  0  0  0  0  0  0  0  0  0  0  0
   46.0718   39.6686   88.7410 C   0  0  0  0  0  0  0  0  0  0  0  0
   46.3104   40.3995   89.8919 C   0  0  0  0  0  0  0  0  0  0  0  0
  4  3  2  0  0  0
  4  5  1  0  0  0
  3  1  1  0  0  0
  7  5  1  0  0  0
  5  6  2  0  0  0
  8 11  1  0  0  0
  8  9  1  0  0  0
  1  9  1  0  0  0
  1  2  2  0  0  0
  9 10  2  0  0  0
  6  2  1  0  0  0
  6 15  1  0  0  0
 15 14  1  0  0  0
 14 16  2  0  0  0
 14 21  1  0  0  0
 21 22  2  0  0  0
 21 20  1  0  0  0
 22 23  1  0  0  0
 20 19  2  0  0  0
 23 18  2  0  0  0
 19 18  1  0  0  0
  8 12  1  0  0  0
 15 17  1  0  0  0
 11 13  1  0  0  0
M  END
> <minimizedAffinity>
-7.85583

$$$$
6HTG_T61_A_504


 23 24  0  0  0  0  0  0  0  0999 V2000
   45.2043   34.4495   85.2281 C   0  0  0  0  0  0  0  0  0  0  0  0
   45.2977   35.3692   86.2709 C   0  0  0  0  0  0  0  0  0  0  0  0
   44.0062   34.3396   84.5295 C   0  0  0  0  0  0  0  0  0  0  0  0
   42.8980   35.0700   84.9214 C   0  0  0  0  0  0  0  0  0  0  0  0
   42.9870   35.9262   86.0029 C   0  0  0  0  0  0  0  0  0  0  0  0
   44.1924   36.1270   86.6706 C   0  0  0  0  0  0  0  0  0  0  0  0
   41.5573   36.7471   86.5398 Cl  0  0  0  0  0  0  0  0  0  0  0  0
   47.4801   34.0118   84.5622 N   0  0  0  0  0  0  0  0  0  0  0  0
   46.3255   33.4905   84.9597 C   0  0  0  0  0  0  0  0  0  0  0  0
   46.1654   32.2775   85.0642 O   0  0  0  0  0  0  0  0  0  0  0  0
   48.4977   33.1589   84.1358 O   0  0  0  0  0  0  0  0  0  0  0  0
   47.6160   34.9869   84.5684 H   0  0  0  0  0  0  0  0  0  0  0  0
   48.1947   32.2393   84.1947 H   0  0  0  0  0  0  0  0  0  0  0  0
   44.6471   38.2939   87.7328 C   0  0  0  0  0  0  0  0  0  0  0  0
   44.2366   37.0076   87.7879 N   0  0  0  0  0  0  0  0  0  0  0  0
   44.5351   38.9728   86.7226 O   0  0  0  0  0  0  0  0  0  0  0  0
   43.9482   36.6554   88.6608 H   0  0  0  0  0  0  0  0  0  0  0  0
   45.7976   40.1892   91.3749 C   0  0  0  0  0  0  0  0  0  0  0  0
   44.8850   39.1597   91.3604 C   0  0  0  0  0  0  0  0  0  0  0  0
   44.5798   38.5163   90.1767 C   0  0  0  0  0  0  0  0  0  0  0  0
   45.1877   38.9040   88.9842 C   0  0  0  0  0  0  0  0  0  0  0  0
   46.1333   39.9205   89.0165 C   0  0  0  0  0  0  0  0  0  0  0  0
   46.4249   40.5648   90.2064 C   0  0  0  0  0  0  0  0  0  0  0  0
  4  3  2  0  0  0
  4  5  1  0  0  0
  3  1  1  0  0  0
  7  5  1  0  0  0
  5  6  2  0  0  0
  8 11  1  0  0  0
  8  9  1  0  0  0
  1  9  1  0  0  0
  1  2  2  0  0  0
  9 10  2  0  0  0
  6  2  1  0  0  0
  6 15  1  0  0  0
 15 14  1  0  0  0
 14 16  2  0  0  0
 14 21  1  0  0  0
 21 22  2  0  0  0
 21 20  1  0  0  0
 22 23  1  0  0  0
 20 19  2  0  0  0
 23 18  2  0  0  0
 19 18  1  0  0  0
  8 12  1  0  0  0
 15 17  1  0  0  0
 11 13  1  0  0  0
M  END
> <minimizedAffinity>
-7.56491

$$$$
6HTG_T61_A_504


 23 24  0  0  0  0  0  0  0  0999 V2000
   45.0037   35.3199   84.7076 C   0  0  0  0  0  0  0  0  0  0  0  0
   44.4520   35.8101   85.8897 C   0  0  0  0  0  0  0  0  0  0  0  0
   44.1798   35.1402   83.6010 C   0  0  0  0  0  0  0  0  0  0  0  0
   42.8174   35.3620   83.6996 C   0  0  0  0  0  0  0  0  0  0  0  0
   42.2746   35.7805   84.8999 C   0  0  0  0  0  0  0  0  0  0  0  0
   43.0797   36.0545   86.0026 C   0  0  0  0  0  0  0  0  0  0  0  0
   40.5534   35.9466   85.0269 Cl  0  0  0  0  0  0  0  0  0  0  0  0
   46.6311   33.5531   84.4969 N   0  0  0  0  0  0  0  0  0  0  0  0
   46.4285   34.8536   84.6718 C   0  0  0  0  0  0  0  0  0  0  0  0
   47.3598   35.6365   84.8385 O   0  0  0  0  0  0  0  0  0  0  0  0
   47.9231   33.0449   84.6272 O   0  0  0  0  0  0  0  0  0  0  0  0
   45.8795   32.9559   84.2784 H   0  0  0  0  0  0  0  0  0  0  0  0
   48.5342   33.7667   84.8427 H   0  0  0  0  0  0  0  0  0  0  0  0
   42.4903   37.7388   87.6897 C   0  0  0  0  0  0  0  0  0  0  0  0
   42.4781   36.4704   87.2236 N   0  0  0  0  0  0  0  0  0  0  0  0
   42.5419   38.7076   86.9463 O   0  0  0  0  0  0  0  0  0  0  0  0
   42.0217   35.7871   87.7658 H   0  0  0  0  0  0  0  0  0  0  0  0
   42.4483   38.0233   91.9438 C   0  0  0  0  0  0  0  0  0  0  0  0
   43.5384   38.4300   91.2095 C   0  0  0  0  0  0  0  0  0  0  0  0
   43.5017   38.3917   89.8292 C   0  0  0  0  0  0  0  0  0  0  0  0
   42.3641   37.9375   89.1645 C   0  0  0  0  0  0  0  0  0  0  0  0
   41.2573   37.5630   89.9149 C   0  0  0  0  0  0  0  0  0  0  0  0
   41.3080   37.5964   91.2977 C   0  0  0  0  0  0  0  0  0  0  0  0
  4  3  2  0  0  0
  4  5  1  0  0  0
  3  1  1  0  0  0
  7  5  1  0  0  0
  5  6  2  0  0  0
  8 11  1  0  0  0
  8  9  1  0  0  0
  1  9  1  0  0  0
  1  2  2  0  0  0
  9 10  2  0  0  0
  6  2  1  0  0  0
  6 15  1  0  0  0
 15 14  1  0  0  0
 14 16  2  0  0  0
 14 21  1  0  0  0
 21 22  2  0  0  0
 21 20  1  0  0  0
 22 23  1  0  0  0
 20 19  2  0  0  0
 23 18  2  0  0  0
 19 18  1  0  0  0
  8 12  1  0  0  0
 15 17  1  0  0  0
 11 13  1  0  0  0
M  END
> <minimizedAffinity>
-6.96559

$$$$
6HTG_T61_A_504


 23 24  0  0  0  0  0  0  0  0999 V2000
   44.4070   35.9013   86.0900 C   0  0  0  0  0  0  0  0  0  0  0  0
   45.0158   36.7570   87.0060 C   0  0  0  0  0  0  0  0  0  0  0  0
   43.0217   35.9224   85.9632 C   0  0  0  0  0  0  0  0  0  0  0  0
   42.2547   36.7180   86.7961 C   0  0  0  0  0  0  0  0  0  0  0  0
   42.8698   37.5089   87.7483 C   0  0  0  0  0  0  0  0  0  0  0  0
   44.2572   37.5793   87.8451 C   0  0  0  0  0  0  0  0  0  0  0  0
   41.8821   38.4130   88.8498 Cl  0  0  0  0  0  0  0  0  0  0  0  0
   44.6376   33.6960   85.1425 N   0  0  0  0  0  0  0  0  0  0  0  0
   45.2163   34.8708   85.3607 C   0  0  0  0  0  0  0  0  0  0  0  0
   46.3748   35.0942   85.0201 O   0  0  0  0  0  0  0  0  0  0  0  0
   45.4009   32.6503   84.6244 O   0  0  0  0  0  0  0  0  0  0  0  0
   43.6828   33.5649   85.3437 H   0  0  0  0  0  0  0  0  0  0  0  0
   46.3124   32.9524   84.4873 H   0  0  0  0  0  0  0  0  0  0  0  0
   45.3590   39.6286   88.6307 C   0  0  0  0  0  0  0  0  0  0  0  0
   44.8493   38.3962   88.8490 N   0  0  0  0  0  0  0  0  0  0  0  0
   44.9396   40.3620   87.7475 O   0  0  0  0  0  0  0  0  0  0  0  0
   44.8902   38.0389   89.7655 H   0  0  0  0  0  0  0  0  0  0  0  0
   48.1215   41.3213   91.4026 C   0  0  0  0  0  0  0  0  0  0  0  0
   46.9414   40.7533   91.8239 C   0  0  0  0  0  0  0  0  0  0  0  0
   46.0948   40.1506   90.9139 C   0  0  0  0  0  0  0  0  0  0  0  0
   46.4226   40.1143   89.5598 C   0  0  0  0  0  0  0  0  0  0  0  0
   47.6326   40.6594   89.1510 C   0  0  0  0  0  0  0  0  0  0  0  0
   48.4692   41.2692   90.0698 C   0  0  0  0  0  0  0  0  0  0  0  0
  4  3  2  0  0  0
  4  5  1  0  0  0
  3  1  1  0  0  0
  7  5  1  0  0  0
  5  6  2  0  0  0
  8 11  1  0  0  0
  8  9  1  0  0  0
  1  9  1  0  0  0
  1  2  2  0  0  0
  9 10  2  0  0  0
  6  2  1  0  0  0
  6 15  1  0  0  0
 15 14  1  0  0  0
 14 16  2  0  0  0
 14 21  1  0  0  0
 21 22  2  0  0  0
 21 20  1  0  0  0
 22 23  1  0  0  0
 20 19  2  0  0  0
 23 18  2  0  0  0
 19 18  1  0  0  0
  8 12  1  0  0  0
 15 17  1  0  0  0
 11 13  1  0  0  0
M  END
> <minimizedAffinity>
-6.75592

$$$$
6HTG_T61_A_504


 23 24  0  0  0  0  0  0  0  0999 V2000
   46.0275   39.7807   89.5122 C   0  0  0  0  0  0  0  0  0  0  0  0
   45.4691   38.9316   88.5587 C   0  0  0  0  0  0  0  0  0  0  0  0
   45.4303   39.8752   90.7652 C   0  0  0  0  0  0  0  0  0  0  0  0
   44.2501   39.2030   91.0304 C   0  0  0  0  0  0  0  0  0  0  0  0
   43.6703   38.4200   90.0500 C   0  0  0  0  0  0  0  0  0  0  0  0
   44.2853   38.2325   88.8148 C   0  0  0  0  0  0  0  0  0  0  0  0
   42.1375   37.6760   90.3713 Cl  0  0  0  0  0  0  0  0  0  0  0  0
   48.1734   40.7636   90.0055 N   0  0  0  0  0  0  0  0  0  0  0  0
   47.1635   40.6889   89.1468 C   0  0  0  0  0  0  0  0  0  0  0  0
   47.1367   41.3617   88.1198 O   0  0  0  0  0  0  0  0  0  0  0  0
   49.1694   41.7175   89.7990 O   0  0  0  0  0  0  0  0  0  0  0  0
   48.2185   40.1539   90.7772 H   0  0  0  0  0  0  0  0  0  0  0  0
   48.9676   42.2277   88.9991 H   0  0  0  0  0  0  0  0  0  0  0  0
   44.2972   36.6289   86.9550 C   0  0  0  0  0  0  0  0  0  0  0  0
   43.6469   37.4288   87.8288 N   0  0  0  0  0  0  0  0  0  0  0  0
   45.3771   36.1189   87.2151 O   0  0  0  0  0  0  0  0  0  0  0  0
   42.6641   37.4575   87.7800 H   0  0  0  0  0  0  0  0  0  0  0  0
   42.6908   35.9241   83.0687 C   0  0  0  0  0  0  0  0  0  0  0  0
   43.8634   35.3317   83.4773 C   0  0  0  0  0  0  0  0  0  0  0  0
   44.3277   35.5212   84.7644 C   0  0  0  0  0  0  0  0  0  0  0  0
   43.6182   36.3168   85.6620 C   0  0  0  0  0  0  0  0  0  0  0  0
   42.4181   36.8809   85.2498 C   0  0  0  0  0  0  0  0  0  0  0  0
   41.9666   36.6922   83.9550 C   0  0  0  0  0  0  0  0  0  0  0  0
  4  3  2  0  0  0
  4  5  1  0  0  0
  3  1  1  0  0  0
  7  5  1  0  0  0
  5  6  2  0  0  0
  8 11  1  0  0  0
  8  9  1  0  0  0
  1  9  1  0  0  0
  1  2  2  0  0  0
  9 10  2  0  0  0
  6  2  1  0  0  0
  6 15  1  0  0  0
 15 14  1  0  0  0
 14 16  2  0  0  0
 14 21  1  0  0  0
 21 22  2  0  0  0
 21 20  1  0  0  0
 22 23  1  0  0  0
 20 19  2  0  0  0
 23 18  2  0  0  0
 19 18  1  0  0  0
  8 12  1  0  0  0
 15 17  1  0  0  0
 11 13  1  0  0  0
M  END
> <minimizedAffinity>
-6.07989

$$$$
6HTG_T61_A_504


 23 24  0  0  0  0  0  0  0  0999 V2000
   41.3787   36.2404   84.6609 C   0  0  0  0  0  0  0  0  0  0  0  0
   41.6901   36.9987   85.7877 C   0  0  0  0  0  0  0  0  0  0  0  0
   42.2189   35.1923   84.2985 C   0  0  0  0  0  0  0  0  0  0  0  0
   43.3920   34.9627   84.9956 C   0  0  0  0  0  0  0  0  0  0  0  0
   43.7225   35.7689   86.0686 C   0  0  0  0  0  0  0  0  0  0  0  0
   42.8636   36.7708   86.5135 C   0  0  0  0  0  0  0  0  0  0  0  0
   45.2481   35.5290   86.8567 Cl  0  0  0  0  0  0  0  0  0  0  0  0
   40.4748   36.6437   82.4621 N   0  0  0  0  0  0  0  0  0  0  0  0
   40.2409   36.6389   83.7690 C   0  0  0  0  0  0  0  0  0  0  0  0
   39.1576   36.9839   84.2335 O   0  0  0  0  0  0  0  0  0  0  0  0
   39.5099   37.1686   81.6029 O   0  0  0  0  0  0  0  0  0  0  0  0
   41.3176   36.2817   82.1046 H   0  0  0  0  0  0  0  0  0  0  0  0
   38.7501   37.4779   82.1204 H   0  0  0  0  0  0  0  0  0  0  0  0
   44.1382   38.6019   87.5397 C   0  0  0  0  0  0  0  0  0  0  0  0
   43.2492   37.5869   87.6139 N   0  0  0  0  0  0  0  0  0  0  0  0
   44.3110   39.2454   86.5150 O   0  0  0  0  0  0  0  0  0  0  0  0
   42.8400   37.3990   88.4895 H   0  0  0  0  0  0  0  0  0  0  0  0
   45.8717   39.8655   91.2245 C   0  0  0  0  0  0  0  0  0  0  0  0
   44.8172   38.9824   91.1947 C   0  0  0  0  0  0  0  0  0  0  0  0
   44.3174   38.5352   89.9871 C   0  0  0  0  0  0  0  0  0  0  0  0
   44.8709   38.9754   88.7863 C   0  0  0  0  0  0  0  0  0  0  0  0
   45.9575   39.8390   88.8290 C   0  0  0  0  0  0  0  0  0  0  0  0
   46.4445   40.2883   90.0442 C   0  0  0  0  0  0  0  0  0  0  0  0
  4  3  2  0  0  0
  4  5  1  0  0  0
  3  1  1  0  0  0
  7  5  1  0  0  0
  5  6  2  0  0  0
  8 11  1  0  0  0
  8  9  1  0  0  0
  1  9  1  0  0  0
  1  2  2  0  0  0
  9 10  2  0  0  0
  6  2  1  0  0  0
  6 15  1  0  0  0
 15 14  1  0  0  0
 14 16  2  0  0  0
 14 21  1  0  0  0
 21 22  2  0  0  0
 21 20  1  0  0  0
 22 23  1  0  0  0
 20 19  2  0  0  0
 23 18  2  0  0  0
 19 18  1  0  0  0
  8 12  1  0  0  0
 15 17  1  0  0  0
 11 13  1  0  0  0
M  END
> <minimizedAffinity>
-5.85185

$$$$
6HTG_T61_A_504


 23 24  0  0  0  0  0  0  0  0999 V2000
   40.9205   35.8200   86.4066 C   0  0  0  0  0  0  0  0  0  0  0  0
   41.8443   36.5658   87.1362 C   0  0  0  0  0  0  0  0  0  0  0  0
   40.8938   35.9460   85.0213 C   0  0  0  0  0  0  0  0  0  0  0  0
   41.7127   36.8630   84.3860 C   0  0  0  0  0  0  0  0  0  0  0  0
   42.5740   37.6465   85.1309 C   0  0  0  0  0  0  0  0  0  0  0  0
   42.6903   37.4861   86.5093 C   0  0  0  0  0  0  0  0  0  0  0  0
   43.5098   38.8620   84.3228 Cl  0  0  0  0  0  0  0  0  0  0  0  0
   39.3751   35.5155   88.2324 N   0  0  0  0  0  0  0  0  0  0  0  0
   39.8744   35.0088   87.1113 C   0  0  0  0  0  0  0  0  0  0  0  0
   39.5294   33.9085   86.6889 O   0  0  0  0  0  0  0  0  0  0  0  0
   38.5301   34.7286   89.0142 O   0  0  0  0  0  0  0  0  0  0  0  0
   39.5983   36.4339   88.5078 H   0  0  0  0  0  0  0  0  0  0  0  0
   38.4195   33.8599   88.5971 H   0  0  0  0  0  0  0  0  0  0  0  0
   44.7719   37.9246   87.7362 C   0  0  0  0  0  0  0  0  0  0  0  0
   43.5799   38.3232   87.2398 N   0  0  0  0  0  0  0  0  0  0  0  0
   45.4317   37.0363   87.2172 O   0  0  0  0  0  0  0  0  0  0  0  0
   43.3081   39.2568   87.3939 H   0  0  0  0  0  0  0  0  0  0  0  0
   45.9161   40.1691   91.1762 C   0  0  0  0  0  0  0  0  0  0  0  0
   45.0362   39.1155   91.2686 C   0  0  0  0  0  0  0  0  0  0  0  0
   44.7339   38.3608   90.1518 C   0  0  0  0  0  0  0  0  0  0  0  0
   45.3116   38.6592   88.9192 C   0  0  0  0  0  0  0  0  0  0  0  0
   46.2251   39.7025   88.8452 C   0  0  0  0  0  0  0  0  0  0  0  0
   46.5139   40.4582   89.9683 C   0  0  0  0  0  0  0  0  0  0  0  0
  4  3  2  0  0  0
  4  5  1  0  0  0
  3  1  1  0  0  0
  7  5  1  0  0  0
  5  6  2  0  0  0
  8 11  1  0  0  0
  8  9  1  0  0  0
  1  9  1  0  0  0
  1  2  2  0  0  0
  9 10  2  0  0  0
  6  2  1  0  0  0
  6 15  1  0  0  0
 15 14  1  0  0  0
 14 16  2  0  0  0
 14 21  1  0  0  0
 21 22  2  0  0  0
 21 20  1  0  0  0
 22 23  1  0  0  0
 20 19  2  0  0  0
 23 18  2  0  0  0
 19 18  1  0  0  0
  8 12  1  0  0  0
 15 17  1  0  0  0
 11 13  1  0  0  0
M  END
> <minimizedAffinity>
-5.75482

$$$$
6HTG_T61_A_504


 23 24  0  0  0  0  0  0  0  0999 V2000
   41.7417   35.6228   86.4195 C   0  0  0  0  0  0  0  0  0  0  0  0
   42.9780   35.0708   86.0894 C   0  0  0  0  0  0  0  0  0  0  0  0
   41.7026   36.8537   87.0667 C   0  0  0  0  0  0  0  0  0  0  0  0
   42.8751   37.4780   87.4547 C   0  0  0  0  0  0  0  0  0  0  0  0
   44.0927   36.8830   87.1826 C   0  0  0  0  0  0  0  0  0  0  0  0
   44.1731   35.6954   86.4599 C   0  0  0  0  0  0  0  0  0  0  0  0
   45.5404   37.6316   87.7740 Cl  0  0  0  0  0  0  0  0  0  0  0  0
   39.5832   35.3469   85.3807 N   0  0  0  0  0  0  0  0  0  0  0  0
   40.4811   34.8368   86.2152 C   0  0  0  0  0  0  0  0  0  0  0  0
   40.2759   33.7912   86.8258 O   0  0  0  0  0  0  0  0  0  0  0  0
   38.3277   34.7473   85.2868 O   0  0  0  0  0  0  0  0  0  0  0  0
   39.8008   36.1375   84.8358 H   0  0  0  0  0  0  0  0  0  0  0  0
   38.2864   33.9875   85.8884 H   0  0  0  0  0  0  0  0  0  0  0  0
   45.9373   34.8335   84.9849 C   0  0  0  0  0  0  0  0  0  0  0  0
   45.4467   35.1098   86.2134 N   0  0  0  0  0  0  0  0  0  0  0  0
   45.6210   35.4772   83.9952 O   0  0  0  0  0  0  0  0  0  0  0  0
   46.0089   34.8909   86.9914 H   0  0  0  0  0  0  0  0  0  0  0  0
   48.8440   31.7158   85.0902 C   0  0  0  0  0  0  0  0  0  0  0  0
   47.5702   31.5240   85.5734 C   0  0  0  0  0  0  0  0  0  0  0  0
   46.6264   32.5269   85.4660 C   0  0  0  0  0  0  0  0  0  0  0  0
   46.9531   33.7445   84.8720 C   0  0  0  0  0  0  0  0  0  0  0  0
   48.2312   33.9141   84.3562 C   0  0  0  0  0  0  0  0  0  0  0  0
   49.1720   32.9061   84.4774 C   0  0  0  0  0  0  0  0  0  0  0  0
  4  3  2  0  0  0
  4  5  1  0  0  0
  3  1  1  0  0  0
  7  5  1  0  0  0
  5  6  2  0  0  0
  8 11  1  0  0  0
  8  9  1  0  0  0
  1  9  1  0  0  0
  1  2  2  0  0  0
  9 10  2  0  0  0
  6  2  1  0  0  0
  6 15  1  0  0  0
 15 14  1  0  0  0
 14 16  2  0  0  0
 14 21  1  0  0  0
 21 22  2  0  0  0
 21 20  1  0  0  0
 22 23  1  0  0  0
 20 19  2  0  0  0
 23 18  2  0  0  0
 19 18  1  0  0  0
  8 12  1  0  0  0
 15 17  1  0  0  0
 11 13  1  0  0  0
M  END
> <minimizedAffinity>
-5.73097

$$$$
6HTG_T61_A_504


 23 24  0  0  0  0  0  0  0  0999 V2000
   41.7275   37.3438   85.1619 C   0  0  0  0  0  0  0  0  0  0  0  0
   42.5522   37.7627   86.2041 C   0  0  0  0  0  0  0  0  0  0  0  0
   41.8947   36.0648   84.6404 C   0  0  0  0  0  0  0  0  0  0  0  0
   42.9217   35.2540   85.0909 C   0  0  0  0  0  0  0  0  0  0  0  0
   43.7760   35.7114   86.0766 C   0  0  0  0  0  0  0  0  0  0  0  0
   43.5853   36.9506   86.6826 C   0  0  0  0  0  0  0  0  0  0  0  0
   45.1185   34.7199   86.5462 Cl  0  0  0  0  0  0  0  0  0  0  0  0
   41.2671   39.4858   84.1549 N   0  0  0  0  0  0  0  0  0  0  0  0
   40.7767   38.3052   84.5135 C   0  0  0  0  0  0  0  0  0  0  0  0
   39.5910   38.0241   84.3614 O   0  0  0  0  0  0  0  0  0  0  0  0
   40.3923   40.4754   83.7075 O   0  0  0  0  0  0  0  0  0  0  0  0
   42.2347   39.6602   84.2043 H   0  0  0  0  0  0  0  0  0  0  0  0
   39.4840   40.1352   83.7231 H   0  0  0  0  0  0  0  0  0  0  0  0
   44.1407   38.0576   88.8031 C   0  0  0  0  0  0  0  0  0  0  0  0
   44.4967   37.3886   87.6842 N   0  0  0  0  0  0  0  0  0  0  0  0
   43.0445   37.9199   89.3258 O   0  0  0  0  0  0  0  0  0  0  0  0
   45.4521   37.1906   87.5529 H   0  0  0  0  0  0  0  0  0  0  0  0
   46.7456   40.8243   90.7371 C   0  0  0  0  0  0  0  0  0  0  0  0
   45.7950   40.1227   91.4421 C   0  0  0  0  0  0  0  0  0  0  0  0
   45.0091   39.1820   90.8052 C   0  0  0  0  0  0  0  0  0  0  0  0
   45.1658   38.9356   89.4425 C   0  0  0  0  0  0  0  0  0  0  0  0
   46.1521   39.6240   88.7487 C   0  0  0  0  0  0  0  0  0  0  0  0
   46.9278   40.5711   89.3945 C   0  0  0  0  0  0  0  0  0  0  0  0
  4  3  2  0  0  0
  4  5  1  0  0  0
  3  1  1  0  0  0
  7  5  1  0  0  0
  5  6  2  0  0  0
  8 11  1  0  0  0
  8  9  1  0  0  0
  1  9  1  0  0  0
  1  2  2  0  0  0
  9 10  2  0  0  0
  6  2  1  0  0  0
  6 15  1  0  0  0
 15 14  1  0  0  0
 14 16  2  0  0  0
 14 21  1  0  0  0
 21 22  2  0  0  0
 21 20  1  0  0  0
 22 23  1  0  0  0
 20 19  2  0  0  0
 23 18  2  0  0  0
 19 18  1  0  0  0
  8 12  1  0  0  0
 15 17  1  0  0  0
 11 13  1  0  0  0
M  END
> <minimizedAffinity>
-5.71793

$$$$
6HTG_T61_A_504


 23 24  0  0  0  0  0  0  0  0999 V2000
   44.5595   36.2680   86.6444 C   0  0  0  0  0  0  0  0  0  0  0  0
   45.1991   37.0937   87.5669 C   0  0  0  0  0  0  0  0  0  0  0  0
   43.2027   36.4535   86.3984 C   0  0  0  0  0  0  0  0  0  0  0  0
   42.4811   37.3857   87.1233 C   0  0  0  0  0  0  0  0  0  0  0  0
   43.1158   38.1485   88.0855 C   0  0  0  0  0  0  0  0  0  0  0  0
   44.4887   38.0516   88.2974 C   0  0  0  0  0  0  0  0  0  0  0  0
   42.1688   39.2312   89.0535 Cl  0  0  0  0  0  0  0  0  0  0  0  0
   45.4830   35.1374   84.7252 N   0  0  0  0  0  0  0  0  0  0  0  0
   45.2845   35.1040   86.0376 C   0  0  0  0  0  0  0  0  0  0  0  0
   45.6393   34.1475   86.7212 O   0  0  0  0  0  0  0  0  0  0  0  0
   45.9963   34.0079   84.0884 O   0  0  0  0  0  0  0  0  0  0  0  0
   45.2708   35.9483   84.2088 H   0  0  0  0  0  0  0  0  0  0  0  0
   46.1460   33.3078   84.7429 H   0  0  0  0  0  0  0  0  0  0  0  0
   44.9051   38.6794   90.6347 C   0  0  0  0  0  0  0  0  0  0  0  0
   45.0998   38.8461   89.3079 N   0  0  0  0  0  0  0  0  0  0  0  0
   44.6324   37.5928   91.1236 O   0  0  0  0  0  0  0  0  0  0  0  0
   45.7060   39.5666   89.0204 H   0  0  0  0  0  0  0  0  0  0  0  0
   45.2419   42.2872   92.8819 C   0  0  0  0  0  0  0  0  0  0  0  0
   44.0269   41.6684   92.6986 C   0  0  0  0  0  0  0  0  0  0  0  0
   43.9531   40.4647   92.0250 C   0  0  0  0  0  0  0  0  0  0  0  0
   45.1054   39.8654   91.5199 C   0  0  0  0  0  0  0  0  0  0  0  0
   46.3302   40.4811   91.7417 C   0  0  0  0  0  0  0  0  0  0  0  0
   46.3919   41.6918   92.4097 C   0  0  0  0  0  0  0  0  0  0  0  0
  4  3  2  0  0  0
  4  5  1  0  0  0
  3  1  1  0  0  0
  7  5  1  0  0  0
  5  6  2  0  0  0
  8 11  1  0  0  0
  8  9  1  0  0  0
  1  9  1  0  0  0
  1  2  2  0  0  0
  9 10  2  0  0  0
  6  2  1  0  0  0
  6 15  1  0  0  0
 15 14  1  0  0  0
 14 16  2  0  0  0
 14 21  1  0  0  0
 21 22  2  0  0  0
 21 20  1  0  0  0
 22 23  1  0  0  0
 20 19  2  0  0  0
 23 18  2  0  0  0
 19 18  1  0  0  0
  8 12  1  0  0  0
 15 17  1  0  0  0
 11 13  1  0  0  0
M  END
> <minimizedAffinity>
-5.66479

$$$$
