3SUF_SUE_A_1201


 57 63  0  0  0  0  0  0  0  0999 V2000
   11.9109    9.1728   16.1224 C   0  0  0  0  0  0  0  0  0  0  0  0
   13.2163   11.0716   16.3283 N   0  0  0  0  0  0  0  0  0  0  0  0
   12.2537    8.9239   14.9937 O   0  0  0  0  0  0  0  0  0  0  0  0
   11.9052   10.4531   16.5802 C   0  0  0  0  0  0  0  0  0  0  0  0
   14.1594   11.2920   17.2483 C   0  0  0  0  0  0  0  0  0  0  0  0
   11.9897    5.2084   20.6737 N   0  0  0  0  0  0  0  0  0  0  0  0
   14.0561    2.6535   22.0344 C   0  0  0  0  0  0  0  0  0  0  0  0
   11.4507    3.5409   22.0921 C   0  0  0  0  0  0  0  0  0  0  0  0
   17.6618   12.0986   17.2906 C   0  0  0  0  0  0  0  0  0  0  0  0
   17.1886   10.7823   17.7596 C   0  0  0  0  0  0  0  0  0  0  0  0
   16.3082   11.9783   17.8105 C   0  0  0  0  0  0  0  0  0  0  0  0
   13.6889    3.7408   21.2947 C   0  0  0  0  0  0  0  0  0  0  0  0
   17.6862   10.2721   19.0901 C   0  0  0  0  0  0  0  0  0  0  0  0
   15.9427    8.4267   19.3878 C   0  0  0  0  0  0  0  0  0  0  0  0
   13.1019    2.0249   22.7917 C   0  0  0  0  0  0  0  0  0  0  0  0
   12.5099    6.8730   19.2146 O   0  0  0  0  0  0  0  0  0  0  0  0
   17.4429    8.7798   19.2299 C   0  0  0  0  0  0  0  0  0  0  0  0
   15.7311    7.0914   20.0189 C   0  0  0  0  0  0  0  0  0  0  0  0
   12.8646    5.8320   19.9332 C   0  0  0  0  0  0  0  0  0  0  0  0
   14.1776    5.4157   19.8692 C   0  0  0  0  0  0  0  0  0  0  0  0
   12.3759    4.1677   21.3379 C   0  0  0  0  0  0  0  0  0  0  0  0
   14.5701    4.3741   20.5692 N   0  0  0  0  0  0  0  0  0  0  0  0
   15.0881    6.0790   19.1278 C   0  0  0  0  0  0  0  0  0  0  0  0
   11.7954    2.4386   22.8192 C   0  0  0  0  0  0  0  0  0  0  0  0
   13.9018   10.8901   18.3465 O   0  0  0  0  0  0  0  0  0  0  0  0
   15.2971   11.9216   16.8861 O   0  0  0  0  0  0  0  0  0  0  0  0
   10.7049    6.1496   17.6529 C   0  0  0  0  0  0  0  0  0  0  0  0
   11.4057    6.7984   16.5090 C   0  0  0  0  0  0  0  0  0  0  0  0
   11.4566    8.2178   16.9020 N   0  0  0  0  0  0  0  0  0  0  0  0
   10.9688    8.3496   18.2619 C   0  0  0  0  0  0  0  0  0  0  0  0
   11.1172    7.0289   18.8373 C   0  0  0  0  0  0  0  0  0  0  0  0
   13.4151   11.3461   15.4040 H   0  0  0  0  0  0  0  0  0  0  0  0
   10.8194   11.3005   15.9188 C   0  0  0  0  0  0  0  0  0  0  0  0
   10.6604   12.5587   16.6550 C   0  0  0  0  0  0  0  0  0  0  0  0
    9.4885   10.6653   15.9553 C   0  0  0  0  0  0  0  0  0  0  0  0
   11.2020   11.6443   14.5010 C   0  0  0  0  0  0  0  0  0  0  0  0
    9.7234    7.2159   15.1357 O   0  0  0  0  0  0  0  0  0  0  0  0
   10.7682    6.6869   15.3042 C   0  0  0  0  0  0  0  0  0  0  0  0
   11.3777    6.0481   14.3642 N   0  0  0  0  0  0  0  0  0  0  0  0
   12.2247    5.5919   14.5731 H   0  0  0  0  0  0  0  0  0  0  0  0
   10.8652    5.9773   13.0203 C   0  0  0  0  0  0  0  0  0  0  0  0
   11.2569    7.2149   12.3030 C   0  0  0  0  0  0  0  0  0  0  0  0
   11.8504    5.9425   11.9011 C   0  0  0  0  0  0  0  0  0  0  0  0
    8.4934    5.2481   13.4664 N   0  0  0  0  0  0  0  0  0  0  0  0
    9.4699    4.7806   11.5671 O   0  0  0  0  0  0  0  0  0  0  0  0
    9.5146    5.3049   12.6365 C   0  0  0  0  0  0  0  0  0  0  0  0
    8.5845    5.6668   14.3528 H   0  0  0  0  0  0  0  0  0  0  0  0
    6.5749    5.1342   11.9566 O   0  0  0  0  0  0  0  0  0  0  0  0
    7.1746    4.5625   13.1165 S   0  0  0  0  0  0  0  0  0  0  0  0
    6.2395    4.7077   14.2057 O   0  0  0  0  0  0  0  0  0  0  0  0
    7.2645    1.9462   14.0391 C   0  0  0  0  0  0  0  0  0  0  0  0
    6.1977    1.9451   13.0447 C   0  0  0  0  0  0  0  0  0  0  0  0
    7.4190    2.6888   12.8129 C   0  0  0  0  0  0  0  0  0  0  0  0
   10.2301    7.8245   11.3956 C   0  0  0  0  0  0  0  0  0  0  0  0
   10.6539    9.0974   10.7572 C   0  0  0  0  0  0  0  0  0  0  0  0
    9.7733    1.2864   23.0708 C   0  0  0  0  0  0  0  0  0  0  0  0
   10.9338    1.7897   23.5935 O   0  0  0  0  0  0  0  0  0  0  0  0
 29  1  1  0  0  0
  4  1  1  0  0  0
  1  3  2  0  0  0
  5  2  1  0  0  0
  4  2  1  0  0  0
  4 33  1  0  0  0
 34 33  1  0  0  0
 35 33  1  0  0  0
 33 36  1  0  0  0
 25  5  2  0  0  0
  5 26  1  0  0  0
 21  6  2  0  0  0
  6 19  1  0  0  0
 15  7  2  0  0  0
  7 12  1  0  0  0
 24  8  2  0  0  0
  8 21  1  0  0  0
 10  9  1  0  0  0
 11  9  1  0  0  0
 13 10  1  0  0  0
 10 11  1  0  0  0
 11 26  1  0  0  0
 52 51  1  0  0  0
 53 51  1  0  0  0
 52 53  1  0  0  0
 49 48  2  0  0  0
 53 49  1  0  0  0
 44 49  1  0  0  0
 49 50  2  0  0  0
 39 41  1  0  0  0
 41 46  1  0  0  0
 41 43  1  0  0  0
 41 42  1  0  0  0
 38 37  2  0  0  0
 28 38  1  0  0  0
 38 39  1  0  0  0
 42 54  1  0  0  0
 54 55  2  0  0  0
 12 21  1  0  0  0
 12 22  2  0  0  0
 17 13  1  0  0  0
 44 46  1  0  0  0
 43 42  1  0  0  0
 18 14  1  0  0  0
 14 17  1  0  0  0
 15 24  1  0  0  0
 19 16  1  0  0  0
 16 31  1  0  0  0
 57 56  1  0  0  0
 57 24  1  0  0  0
 18 23  1  0  0  0
 20 19  2  0  0  0
 22 20  1  0  0  0
 20 23  1  0  0  0
 46 45  2  0  0  0
 31 27  1  0  0  0
 27 28  1  0  0  0
 28 29  1  0  0  0
 30 29  1  0  0  0
 31 30  1  0  0  0
  2 32  1  0  0  0
 44 47  1  0  0  0
 39 40  1  0  0  0
M  END
> <minimizedAffinity>
-11.60322

$$$$
