4WK1_2BA_A_201


 52 58  0  0  0  0  0  0  0  0999 V2000
   14.6676  -28.9026   12.0386 P   0  0  0  0  0  0  0  0  0  0  0  0
   15.2091  -29.4591   10.7510 O   0  0  0  0  0  0  0  0  0  0  0  0
   14.1799  -27.4428   11.7139 O   0  0  0  0  0  0  0  0  0  0  0  0
   13.4848  -29.8894   12.4489 O   0  0  0  0  0  0  0  0  0  0  0  0
   12.7214  -29.5807   13.5925 C   0  0  0  0  0  0  0  0  0  0  0  0
   11.7407  -30.7451   13.8015 C   0  0  0  0  0  0  0  0  0  0  0  0
   11.0427  -30.8416   12.6652 O   0  0  0  0  0  0  0  0  0  0  0  0
   12.5034  -32.0374   13.9760 C   0  0  0  0  0  0  0  0  0  0  0  0
   12.7534  -32.2761   15.3122 O   0  0  0  0  0  0  0  0  0  0  0  0
   11.4365  -33.0403   13.3882 C   0  0  0  0  0  0  0  0  0  0  0  0
   10.5127  -33.4101   14.4493 O   0  0  0  0  0  0  0  0  0  0  0  0
   10.7857  -32.4079   12.4456 C   0  0  0  0  0  0  0  0  0  0  0  0
   14.1842  -32.9453   15.6612 P   0  0  0  0  0  0  0  0  0  0  0  0
   14.2254  -34.3116   14.9921 O   0  0  0  0  0  0  0  0  0  0  0  0
   14.4537  -33.1819   17.1411 O   0  0  0  0  0  0  0  0  0  0  0  0
   15.3280  -32.0161   14.8458 O   0  0  0  0  0  0  0  0  0  0  0  0
   15.8594  -30.9944   15.6493 C   0  0  0  0  0  0  0  0  0  0  0  0
   16.9831  -30.3252   14.9081 C   0  0  0  0  0  0  0  0  0  0  0  0
   18.0579  -31.0371   14.9907 O   0  0  0  0  0  0  0  0  0  0  0  0
   16.6606  -30.1385   13.2821 C   0  0  0  0  0  0  0  0  0  0  0  0
   15.9902  -28.8457   13.0612 O   0  0  0  0  0  0  0  0  0  0  0  0
   17.8014  -30.1447   12.7272 C   0  0  0  0  0  0  0  0  0  0  0  0
   18.4217  -28.7669   12.8020 O   0  0  0  0  0  0  0  0  0  0  0  0
   18.7161  -31.0877   13.6044 C   0  0  0  0  0  0  0  0  0  0  0  0
   13.4132  -27.4825   11.1209 H   0  0  0  0  0  0  0  0  0  0  0  0
   10.0901  -32.6118   14.8030 H   0  0  0  0  0  0  0  0  0  0  0  0
   13.7423  -33.7239   17.5167 H   0  0  0  0  0  0  0  0  0  0  0  0
   18.4959  -28.4957   13.7303 H   0  0  0  0  0  0  0  0  0  0  0  0
   11.1958  -32.8424   11.1518 N   0  0  0  0  0  0  0  0  0  0  0  0
   12.0757  -32.0125   10.5418 C   0  0  0  0  0  0  0  0  0  0  0  0
   12.3945  -32.5485    9.3150 N   0  0  0  0  0  0  0  0  0  0  0  0
   11.6943  -33.7230    9.1951 C   0  0  0  0  0  0  0  0  0  0  0  0
   11.6096  -34.7141    8.1817 C   0  0  0  0  0  0  0  0  0  0  0  0
   12.2250  -34.8510    6.9079 N   0  0  0  0  0  0  0  0  0  0  0  0
   10.8250  -35.7767    8.3461 N   0  0  0  0  0  0  0  0  0  0  0  0
   10.0921  -35.9314    9.4827 C   0  0  0  0  0  0  0  0  0  0  0  0
   10.1648  -34.9749   10.4872 N   0  0  0  0  0  0  0  0  0  0  0  0
   10.9613  -33.8848   10.3061 C   0  0  0  0  0  0  0  0  0  0  0  0
   12.8517  -34.1626    6.5874 H   0  0  0  0  0  0  0  0  0  0  0  0
   12.0246  -35.6342    6.3460 H   0  0  0  0  0  0  0  0  0  0  0  0
   18.7775  -32.3347   13.1655 N   0  0  0  0  0  0  0  0  0  0  0  0
   17.7920  -33.2335   12.9133 C   0  0  0  0  0  0  0  0  0  0  0  0
   18.3821  -34.3910   12.4988 N   0  0  0  0  0  0  0  0  0  0  0  0
   19.7365  -34.2009   12.5057 C   0  0  0  0  0  0  0  0  0  0  0  0
   20.8028  -35.0527   12.1769 C   0  0  0  0  0  0  0  0  0  0  0  0
   20.6365  -36.4180   11.7282 N   0  0  0  0  0  0  0  0  0  0  0  0
   22.0872  -34.6022   12.2759 N   0  0  0  0  0  0  0  0  0  0  0  0
   22.3310  -33.3236   12.6971 C   0  0  0  0  0  0  0  0  0  0  0  0
   21.2817  -32.4880   13.0168 N   0  0  0  0  0  0  0  0  0  0  0  0
   19.9822  -32.9389   12.9229 C   0  0  0  0  0  0  0  0  0  0  0  0
   19.7335  -36.7996   11.6369 H   0  0  0  0  0  0  0  0  0  0  0  0
   21.4262  -36.9655   11.5141 H   0  0  0  0  0  0  0  0  0  0  0  0
  1  2  2  0  0  0
  1  3  1  0  0  0
  1  4  1  0  0  0
  1 21  1  0  0  0
  4  5  1  0  0  0
  5  6  1  0  0  0
  6  7  1  0  0  0
  6  8  1  0  0  0
  7 12  1  0  0  0
  8  9  1  0  0  0
  8 10  1  0  0  0
  9 13  1  0  0  0
 10 11  1  0  0  0
 10 12  1  0  0  0
 12 29  1  0  0  0
 29 30  1  0  0  0
 29 38  1  0  0  0
 30 31  2  0  0  0
 31 32  1  0  0  0
 32 33  2  0  0  0
 32 38  1  0  0  0
 33 34  1  0  0  0
 33 35  1  0  0  0
 35 36  2  0  0  0
 36 37  1  0  0  0
 37 38  2  0  0  0
 13 14  2  0  0  0
 13 15  1  0  0  0
 13 16  1  0  0  0
 16 17  1  0  0  0
 17 18  1  0  0  0
 18 19  1  0  0  0
 18 20  1  0  0  0
 19 24  1  0  0  0
 20 21  1  0  0  0
 20 22  1  0  0  0
 22 23  1  0  0  0
 22 24  1  0  0  0
 24 41  1  0  0  0
 41 42  1  0  0  0
 41 50  1  0  0  0
 42 43  2  0  0  0
 43 44  1  0  0  0
 44 45  2  0  0  0
 44 50  1  0  0  0
 45 46  1  0  0  0
 45 47  1  0  0  0
 47 48  2  0  0  0
 48 49  1  0  0  0
 49 50  2  0  0  0
  3 25  1  0  0  0
 11 26  1  0  0  0
 34 39  1  0  0  0
 34 40  1  0  0  0
 15 27  1  0  0  0
 23 28  1  0  0  0
 46 51  1  0  0  0
 46 52  1  0  0  0
M  END
> <minimizedAffinity>
-13.83876

$$$$
4WK1_2BA_A_201


 52 58  0  0  0  0  0  0  0  0999 V2000
   14.0269  -32.7104   15.8092 P   0  0  0  0  0  0  0  0  0  0  0  0
   14.2131  -34.0281   15.1092 O   0  0  0  0  0  0  0  0  0  0  0  0
   14.0496  -33.0260   17.3500 O   0  0  0  0  0  0  0  0  0  0  0  0
   15.2523  -31.8115   15.3283 O   0  0  0  0  0  0  0  0  0  0  0  0
   15.3967  -30.5240   15.8830 C   0  0  0  0  0  0  0  0  0  0  0  0
   16.5816  -29.8596   15.1648 C   0  0  0  0  0  0  0  0  0  0  0  0
   17.6243  -30.6754   15.3513 O   0  0  0  0  0  0  0  0  0  0  0  0
   16.3153  -29.7967   13.6791 C   0  0  0  0  0  0  0  0  0  0  0  0
   15.7074  -28.6034   13.3456 O   0  0  0  0  0  0  0  0  0  0  0  0
   17.8016  -29.8672   13.1541 C   0  0  0  0  0  0  0  0  0  0  0  0
   18.3536  -28.5213   13.1401 O   0  0  0  0  0  0  0  0  0  0  0  0
   18.4774  -30.6057   13.9967 C   0  0  0  0  0  0  0  0  0  0  0  0
   14.5811  -28.6766   12.1868 P   0  0  0  0  0  0  0  0  0  0  0  0
   15.2656  -29.1511   10.9130 O   0  0  0  0  0  0  0  0  0  0  0  0
   13.9043  -27.3558   11.8460 O   0  0  0  0  0  0  0  0  0  0  0  0
   13.5539  -29.9341   12.6344 O   0  0  0  0  0  0  0  0  0  0  0  0
   12.4476  -29.4847   13.3733 C   0  0  0  0  0  0  0  0  0  0  0  0
   11.5032  -30.6348   13.5862 C   0  0  0  0  0  0  0  0  0  0  0  0
   10.7949  -30.8324   12.5241 O   0  0  0  0  0  0  0  0  0  0  0  0
   12.2955  -32.0682   13.9025 C   0  0  0  0  0  0  0  0  0  0  0  0
   12.4982  -32.2055   15.3550 O   0  0  0  0  0  0  0  0  0  0  0  0
   11.5081  -32.9686   13.4796 C   0  0  0  0  0  0  0  0  0  0  0  0
   10.4587  -33.2728   14.5261 O   0  0  0  0  0  0  0  0  0  0  0  0
   10.7368  -32.3423   12.2515 C   0  0  0  0  0  0  0  0  0  0  0  0
   14.9381  -33.3181   17.6071 H   0  0  0  0  0  0  0  0  0  0  0  0
   18.3116  -28.1453   14.0332 H   0  0  0  0  0  0  0  0  0  0  0  0
   14.5773  -26.7010   11.6027 H   0  0  0  0  0  0  0  0  0  0  0  0
    9.9682  -32.4630   14.7370 H   0  0  0  0  0  0  0  0  0  0  0  0
   18.7365  -31.8999   13.4590 N   0  0  0  0  0  0  0  0  0  0  0  0
   17.6240  -32.6393   13.2342 C   0  0  0  0  0  0  0  0  0  0  0  0
   18.0109  -33.8520   12.7110 N   0  0  0  0  0  0  0  0  0  0  0  0
   19.3802  -33.8315   12.6179 C   0  0  0  0  0  0  0  0  0  0  0  0
   20.3451  -34.7660   12.1575 C   0  0  0  0  0  0  0  0  0  0  0  0
   20.2426  -36.0782   11.6210 N   0  0  0  0  0  0  0  0  0  0  0  0
   21.6408  -34.4627   12.1873 N   0  0  0  0  0  0  0  0  0  0  0  0
   22.0626  -33.2573   12.6585 C   0  0  0  0  0  0  0  0  0  0  0  0
   21.1337  -32.3282   13.1092 N   0  0  0  0  0  0  0  0  0  0  0  0
   19.8105  -32.6510   13.0860 C   0  0  0  0  0  0  0  0  0  0  0  0
   19.3587  -36.4979   11.5124 H   0  0  0  0  0  0  0  0  0  0  0  0
   21.0554  -36.5673   11.3579 H   0  0  0  0  0  0  0  0  0  0  0  0
   11.2799  -32.6228   11.0777 N   0  0  0  0  0  0  0  0  0  0  0  0
   12.1966  -31.9438   10.3420 C   0  0  0  0  0  0  0  0  0  0  0  0
   12.4076  -32.6454    9.1917 N   0  0  0  0  0  0  0  0  0  0  0  0
   11.6090  -33.7554    9.2212 C   0  0  0  0  0  0  0  0  0  0  0  0
   11.4293  -34.8037    8.3049 C   0  0  0  0  0  0  0  0  0  0  0  0
   12.1290  -34.9010    7.0424 N   0  0  0  0  0  0  0  0  0  0  0  0
   10.5489  -35.8079    8.5860 N   0  0  0  0  0  0  0  0  0  0  0  0
    9.8435  -35.7883    9.7581 C   0  0  0  0  0  0  0  0  0  0  0  0
   10.0240  -34.7589   10.6577 N   0  0  0  0  0  0  0  0  0  0  0  0
   10.9087  -33.7394   10.3772 C   0  0  0  0  0  0  0  0  0  0  0  0
   12.7770  -34.2064    6.7838 H   0  0  0  0  0  0  0  0  0  0  0  0
   11.9572  -35.6619    6.4417 H   0  0  0  0  0  0  0  0  0  0  0  0
  1  2  2  0  0  0
  1  3  1  0  0  0
  1  4  1  0  0  0
  1 21  1  0  0  0
  4  5  1  0  0  0
  5  6  1  0  0  0
  6  7  1  0  0  0
  6  8  1  0  0  0
  7 12  1  0  0  0
  8  9  1  0  0  0
  8 10  1  0  0  0
  9 13  1  0  0  0
 10 11  1  0  0  0
 10 12  1  0  0  0
 12 29  1  0  0  0
 29 30  1  0  0  0
 29 38  1  0  0  0
 30 31  2  0  0  0
 31 32  1  0  0  0
 32 33  2  0  0  0
 32 38  1  0  0  0
 33 34  1  0  0  0
 33 35  1  0  0  0
 35 36  2  0  0  0
 36 37  1  0  0  0
 37 38  2  0  0  0
 13 14  2  0  0  0
 13 15  1  0  0  0
 13 16  1  0  0  0
 16 17  1  0  0  0
 17 18  1  0  0  0
 18 19  1  0  0  0
 18 20  1  0  0  0
 19 24  1  0  0  0
 20 21  1  0  0  0
 20 22  1  0  0  0
 22 23  1  0  0  0
 22 24  1  0  0  0
 24 41  1  0  0  0
 41 42  1  0  0  0
 41 50  1  0  0  0
 42 43  2  0  0  0
 43 44  1  0  0  0
 44 45  2  0  0  0
 44 50  1  0  0  0
 45 46  1  0  0  0
 45 47  1  0  0  0
 47 48  2  0  0  0
 48 49  1  0  0  0
 49 50  2  0  0  0
  3 25  1  0  0  0
 11 26  1  0  0  0
 34 39  1  0  0  0
 34 40  1  0  0  0
 15 27  1  0  0  0
 23 28  1  0  0  0
 46 51  1  0  0  0
 46 52  1  0  0  0
M  END
> <minimizedAffinity>
-13.65546

$$$$
4WK1_2BA_A_201


 52 58  0  0  0  0  0  0  0  0999 V2000
   13.9856  -32.4863   15.9815 P   0  0  0  0  0  0  0  0  0  0  0  0
   14.2977  -33.7877   15.2959 O   0  0  0  0  0  0  0  0  0  0  0  0
   13.9996  -32.7902   17.5248 O   0  0  0  0  0  0  0  0  0  0  0  0
   15.1418  -31.4903   15.5211 O   0  0  0  0  0  0  0  0  0  0  0  0
   15.1649  -30.1922   16.0690 C   0  0  0  0  0  0  0  0  0  0  0  0
   16.3058  -29.4345   15.3724 C   0  0  0  0  0  0  0  0  0  0  0  0
   17.4089  -30.1587   15.5882 O   0  0  0  0  0  0  0  0  0  0  0  0
   16.0692  -29.4027   13.8807 C   0  0  0  0  0  0  0  0  0  0  0  0
   15.3709  -28.2667   13.5247 O   0  0  0  0  0  0  0  0  0  0  0  0
   17.5677  -29.3510   13.3893 C   0  0  0  0  0  0  0  0  0  0  0  0
   18.0049  -27.9635   13.3774 O   0  0  0  0  0  0  0  0  0  0  0  0
   18.2838  -30.0252   14.2523 C   0  0  0  0  0  0  0  0  0  0  0  0
   14.2814  -28.4410   12.3417 P   0  0  0  0  0  0  0  0  0  0  0  0
   15.0323  -28.8635   11.0871 O   0  0  0  0  0  0  0  0  0  0  0  0
   13.5041  -27.1838   11.9759 O   0  0  0  0  0  0  0  0  0  0  0  0
   13.3536  -29.7779   12.7760 O   0  0  0  0  0  0  0  0  0  0  0  0
   12.1969  -29.4189   13.4866 C   0  0  0  0  0  0  0  0  0  0  0  0
   11.3477  -30.6431   13.6872 C   0  0  0  0  0  0  0  0  0  0  0  0
   10.6829  -30.9056   12.6112 O   0  0  0  0  0  0  0  0  0  0  0  0
   12.2502  -32.0030   14.0319 C   0  0  0  0  0  0  0  0  0  0  0  0
   12.4306  -32.1144   15.4896 O   0  0  0  0  0  0  0  0  0  0  0  0
   11.5511  -32.9689   13.5985 C   0  0  0  0  0  0  0  0  0  0  0  0
   10.5074  -33.3542   14.6237 O   0  0  0  0  0  0  0  0  0  0  0  0
   10.7581  -32.4167   12.3489 C   0  0  0  0  0  0  0  0  0  0  0  0
   14.9034  -33.0050   17.8038 H   0  0  0  0  0  0  0  0  0  0  0  0
   17.9112  -27.5873   14.2665 H   0  0  0  0  0  0  0  0  0  0  0  0
   14.1250  -26.4761   11.7427 H   0  0  0  0  0  0  0  0  0  0  0  0
    9.9459  -32.5874   14.8175 H   0  0  0  0  0  0  0  0  0  0  0  0
   18.6628  -31.2960   13.7304 N   0  0  0  0  0  0  0  0  0  0  0  0
   19.9941  -31.4347   13.5222 C   0  0  0  0  0  0  0  0  0  0  0  0
   20.2241  -32.6991   13.0300 N   0  0  0  0  0  0  0  0  0  0  0  0
   19.0061  -33.3267   12.9486 C   0  0  0  0  0  0  0  0  0  0  0  0
   18.5965  -34.6207   12.5314 C   0  0  0  0  0  0  0  0  0  0  0  0
   19.3071  -35.7491   12.0393 N   0  0  0  0  0  0  0  0  0  0  0  0
   17.3097  -34.9599   12.5622 N   0  0  0  0  0  0  0  0  0  0  0  0
   16.3673  -34.0762   12.9910 C   0  0  0  0  0  0  0  0  0  0  0  0
   16.7487  -32.8072   13.4073 N   0  0  0  0  0  0  0  0  0  0  0  0
   18.0662  -32.4642   13.3617 C   0  0  0  0  0  0  0  0  0  0  0  0
   20.2854  -35.7085   11.9374 H   0  0  0  0  0  0  0  0  0  0  0  0
   18.8209  -36.5711   11.8004 H   0  0  0  0  0  0  0  0  0  0  0  0
   11.3494  -32.6572   11.1896 N   0  0  0  0  0  0  0  0  0  0  0  0
   12.3161  -31.9695   10.5299 C   0  0  0  0  0  0  0  0  0  0  0  0
   12.5645  -32.6228    9.3589 N   0  0  0  0  0  0  0  0  0  0  0  0
   11.7389  -33.7116    9.2991 C   0  0  0  0  0  0  0  0  0  0  0  0
   11.5778  -34.7116    8.3271 C   0  0  0  0  0  0  0  0  0  0  0  0
   12.3341  -34.7693    7.0951 N   0  0  0  0  0  0  0  0  0  0  0  0
   10.6611  -35.7042    8.5195 N   0  0  0  0  0  0  0  0  0  0  0  0
    9.9014  -35.7199    9.6573 C   0  0  0  0  0  0  0  0  0  0  0  0
   10.0638  -34.7380   10.6117 N   0  0  0  0  0  0  0  0  0  0  0  0
   10.9851  -33.7303   10.4209 C   0  0  0  0  0  0  0  0  0  0  0  0
   13.0102  -34.0808    6.8999 H   0  0  0  0  0  0  0  0  0  0  0  0
   12.1727  -35.4970    6.4520 H   0  0  0  0  0  0  0  0  0  0  0  0
  1  2  2  0  0  0
  1  3  1  0  0  0
  1  4  1  0  0  0
  1 21  1  0  0  0
  4  5  1  0  0  0
  5  6  1  0  0  0
  6  7  1  0  0  0
  6  8  1  0  0  0
  7 12  1  0  0  0
  8  9  1  0  0  0
  8 10  1  0  0  0
  9 13  1  0  0  0
 10 11  1  0  0  0
 10 12  1  0  0  0
 12 29  1  0  0  0
 29 30  1  0  0  0
 29 38  1  0  0  0
 30 31  2  0  0  0
 31 32  1  0  0  0
 32 33  2  0  0  0
 32 38  1  0  0  0
 33 34  1  0  0  0
 33 35  1  0  0  0
 35 36  2  0  0  0
 36 37  1  0  0  0
 37 38  2  0  0  0
 13 14  2  0  0  0
 13 15  1  0  0  0
 13 16  1  0  0  0
 16 17  1  0  0  0
 17 18  1  0  0  0
 18 19  1  0  0  0
 18 20  1  0  0  0
 19 24  1  0  0  0
 20 21  1  0  0  0
 20 22  1  0  0  0
 22 23  1  0  0  0
 22 24  1  0  0  0
 24 41  1  0  0  0
 41 42  1  0  0  0
 41 50  1  0  0  0
 42 43  2  0  0  0
 43 44  1  0  0  0
 44 45  2  0  0  0
 44 50  1  0  0  0
 45 46  1  0  0  0
 45 47  1  0  0  0
 47 48  2  0  0  0
 48 49  1  0  0  0
 49 50  2  0  0  0
  3 25  1  0  0  0
 11 26  1  0  0  0
 34 39  1  0  0  0
 34 40  1  0  0  0
 15 27  1  0  0  0
 23 28  1  0  0  0
 46 51  1  0  0  0
 46 52  1  0  0  0
M  END
> <minimizedAffinity>
-12.64340

$$$$
4WK1_2BA_A_201


 52 58  0  0  0  0  0  0  0  0999 V2000
   13.6267  -31.8504   15.7447 P   0  0  0  0  0  0  0  0  0  0  0  0
   14.5730  -32.7677   15.0209 O   0  0  0  0  0  0  0  0  0  0  0  0
   13.5840  -32.3524   17.2348 O   0  0  0  0  0  0  0  0  0  0  0  0
   14.2587  -30.3959   15.5837 O   0  0  0  0  0  0  0  0  0  0  0  0
   13.6273  -29.3159   16.2326 C   0  0  0  0  0  0  0  0  0  0  0  0
   14.3824  -28.0436   15.8176 C   0  0  0  0  0  0  0  0  0  0  0  0
   15.6569  -28.2460   16.1674 O   0  0  0  0  0  0  0  0  0  0  0  0
   14.3440  -27.8872   14.3155 C   0  0  0  0  0  0  0  0  0  0  0  0
   13.2598  -27.1226   13.9352 O   0  0  0  0  0  0  0  0  0  0  0  0
   15.7073  -27.1204   14.1076 C   0  0  0  0  0  0  0  0  0  0  0  0
   15.4716  -25.6964   14.2894 O   0  0  0  0  0  0  0  0  0  0  0  0
   16.5366  -27.5448   15.0264 C   0  0  0  0  0  0  0  0  0  0  0  0
   12.5215  -27.5644   12.5653 P   0  0  0  0  0  0  0  0  0  0  0  0
   13.5314  -27.4235   11.4355 O   0  0  0  0  0  0  0  0  0  0  0  0
   11.3140  -26.7245   12.1712 O   0  0  0  0  0  0  0  0  0  0  0  0
   12.2479  -29.2196   12.7134 O   0  0  0  0  0  0  0  0  0  0  0  0
   10.9751  -29.5078   13.2318 C   0  0  0  0  0  0  0  0  0  0  0  0
   10.7496  -30.9930   13.1744 C   0  0  0  0  0  0  0  0  0  0  0  0
   10.4133  -31.3468   11.9783 O   0  0  0  0  0  0  0  0  0  0  0  0
   12.1165  -31.8671   13.5618 C   0  0  0  0  0  0  0  0  0  0  0  0
   12.1451  -32.1132   15.0138 O   0  0  0  0  0  0  0  0  0  0  0  0
   11.9862  -32.9602   12.9313 C   0  0  0  0  0  0  0  0  0  0  0  0
   11.1090  -33.9102   13.7166 O   0  0  0  0  0  0  0  0  0  0  0  0
   11.1917  -32.6179   11.6095 C   0  0  0  0  0  0  0  0  0  0  0  0
   14.4454  -32.1974   17.6530 H   0  0  0  0  0  0  0  0  0  0  0  0
   15.1091  -25.5392   15.1753 H   0  0  0  0  0  0  0  0  0  0  0  0
   11.5740  -25.7918   12.1128 H   0  0  0  0  0  0  0  0  0  0  0  0
   10.2435  -33.4998   13.8691 H   0  0  0  0  0  0  0  0  0  0  0  0
   17.5082  -28.4314   14.4776 N   0  0  0  0  0  0  0  0  0  0  0  0
   18.7894  -28.0882   14.7526 C   0  0  0  0  0  0  0  0  0  0  0  0
   19.6191  -29.0233   14.1774 N   0  0  0  0  0  0  0  0  0  0  0  0
   18.8154  -29.9438   13.5522 C   0  0  0  0  0  0  0  0  0  0  0  0
   19.0740  -31.1240   12.8061 C   0  0  0  0  0  0  0  0  0  0  0  0
   20.2731  -31.7880   12.4299 N   0  0  0  0  0  0  0  0  0  0  0  0
   18.0668  -31.8361   12.3061 N   0  0  0  0  0  0  0  0  0  0  0  0
   16.7766  -31.4473   12.4989 C   0  0  0  0  0  0  0  0  0  0  0  0
   16.5032  -30.2982   13.2297 N   0  0  0  0  0  0  0  0  0  0  0  0
   17.5402  -29.5689   13.7281 C   0  0  0  0  0  0  0  0  0  0  0  0
   21.1452  -31.4212   12.7023 H   0  0  0  0  0  0  0  0  0  0  0  0
   20.2316  -32.6146   11.8968 H   0  0  0  0  0  0  0  0  0  0  0  0
   11.9669  -32.3986   10.5596 N   0  0  0  0  0  0  0  0  0  0  0  0
   12.8440  -31.3952   10.3014 C   0  0  0  0  0  0  0  0  0  0  0  0
   13.3759  -31.6167    9.0653 N   0  0  0  0  0  0  0  0  0  0  0  0
   12.8145  -32.7578    8.5620 C   0  0  0  0  0  0  0  0  0  0  0  0
   12.9970  -33.4322    7.3444 C   0  0  0  0  0  0  0  0  0  0  0  0
   13.9028  -32.9921    6.3057 N   0  0  0  0  0  0  0  0  0  0  0  0
   12.2940  -34.5736    7.0883 N   0  0  0  0  0  0  0  0  0  0  0  0
   11.4128  -35.0549    8.0176 C   0  0  0  0  0  0  0  0  0  0  0  0
   11.2375  -34.3920    9.2140 N   0  0  0  0  0  0  0  0  0  0  0  0
   11.9417  -33.2361    9.4765 C   0  0  0  0  0  0  0  0  0  0  0  0
   14.4375  -32.1753    6.4325 H   0  0  0  0  0  0  0  0  0  0  0  0
   13.9846  -33.5095    5.4721 H   0  0  0  0  0  0  0  0  0  0  0  0
  1  2  2  0  0  0
  1  3  1  0  0  0
  1  4  1  0  0  0
  1 21  1  0  0  0
  4  5  1  0  0  0
  5  6  1  0  0  0
  6  7  1  0  0  0
  6  8  1  0  0  0
  7 12  1  0  0  0
  8  9  1  0  0  0
  8 10  1  0  0  0
  9 13  1  0  0  0
 10 11  1  0  0  0
 10 12  1  0  0  0
 12 29  1  0  0  0
 29 30  1  0  0  0
 29 38  1  0  0  0
 30 31  2  0  0  0
 31 32  1  0  0  0
 32 33  2  0  0  0
 32 38  1  0  0  0
 33 34  1  0  0  0
 33 35  1  0  0  0
 35 36  2  0  0  0
 36 37  1  0  0  0
 37 38  2  0  0  0
 13 14  2  0  0  0
 13 15  1  0  0  0
 13 16  1  0  0  0
 16 17  1  0  0  0
 17 18  1  0  0  0
 18 19  1  0  0  0
 18 20  1  0  0  0
 19 24  1  0  0  0
 20 21  1  0  0  0
 20 22  1  0  0  0
 22 23  1  0  0  0
 22 24  1  0  0  0
 24 41  1  0  0  0
 41 42  1  0  0  0
 41 50  1  0  0  0
 42 43  2  0  0  0
 43 44  1  0  0  0
 44 45  2  0  0  0
 44 50  1  0  0  0
 45 46  1  0  0  0
 45 47  1  0  0  0
 47 48  2  0  0  0
 48 49  1  0  0  0
 49 50  2  0  0  0
  3 25  1  0  0  0
 11 26  1  0  0  0
 34 39  1  0  0  0
 34 40  1  0  0  0
 15 27  1  0  0  0
 23 28  1  0  0  0
 46 51  1  0  0  0
 46 52  1  0  0  0
M  END
> <minimizedAffinity>
-11.20066

$$$$
