4WK1_2BA_A_201
  RCSB PDB12061715593D
Coordinates from PDB:4WK1:A:201 Model:1 without hydrogens
 44 50  0  0  0  0            999 V2000
   14.2380  -28.8170   12.4460   P 0  0  0  0  0  0  0  0  0  0  0  0
   14.8480  -29.2450   11.1400   O 0  0  0  0  0  0  0  0  0  0  0  0
   13.5950  -27.4050   12.1870   O 0  0  0  0  0  0  0  0  0  0  0  0
   13.1680  -29.9470   12.7910   O 0  0  0  0  0  0  0  0  0  0  0  0
   12.3660  -29.7820   13.9380   C 0  0  0  0  0  0  0  0  0  0  0  0
   11.5180  -31.0560   14.0760   C 0  0  0  0  0  0  0  0  0  0  0  0
   10.8440  -31.1710   12.9270   O 0  0  0  0  0  0  0  0  0  0  0  0
   12.4170  -32.2640   14.1970   C 0  0  0  0  0  0  0  0  0  0  0  0
   12.6810  -32.5410   15.5230   O 0  0  0  0  0  0  0  0  0  0  0  0
   11.4720  -33.3470   13.5460   C 0  0  0  0  0  0  0  0  0  0  0  0
   10.5860  -33.8690   14.5750   O 0  0  0  0  0  0  0  0  0  0  0  0
   10.7630  -32.7430   12.6270   C 0  0  0  0  0  0  0  0  0  0  0  0
   11.2290  -33.0640   11.3190   N 0  0  0  0  0  0  0  0  0  0  0  0
   12.1160  -32.1740   10.8130   C 0  0  0  0  0  0  0  0  0  0  0  0
   12.4900  -32.6030    9.5600   N 0  0  0  0  0  0  0  0  0  0  0  0
   11.8160  -33.7740    9.3180   C 0  0  0  0  0  0  0  0  0  0  0  0
   11.7870  -34.6800    8.2250   C 0  0  0  0  0  0  0  0  0  0  0  0
   12.4520  -34.7030    6.9690   N 0  0  0  0  0  0  0  0  0  0  0  0
   11.0160  -35.7640    8.2720   N 0  0  0  0  0  0  0  0  0  0  0  0
   10.2440  -36.0220    9.3630   C 0  0  0  0  0  0  0  0  0  0  0  0
   10.2620  -35.1500   10.4440   N 0  0  0  0  0  0  0  0  0  0  0  0
   11.0450  -34.0370   10.3830   C 0  0  0  0  0  0  0  0  0  0  0  0
   14.1740  -33.0660   15.8580   P 0  0  0  0  0  0  0  0  0  0  0  0
   14.3710  -34.3840   15.1230   O 0  0  0  0  0  0  0  0  0  0  0  0
   14.4560  -33.3460   17.3280   O 0  0  0  0  0  0  0  0  0  0  0  0
   15.2150  -31.9770   15.1050   O 0  0  0  0  0  0  0  0  0  0  0  0
   15.6240  -30.9450   15.9650   C 0  0  0  0  0  0  0  0  0  0  0  0
   16.6730  -30.1200   15.2730   C 0  0  0  0  0  0  0  0  0  0  0  0
   17.8190  -30.7130   15.3350   O 0  0  0  0  0  0  0  0  0  0  0  0
   16.3450  -29.8880   13.6540   C 0  0  0  0  0  0  0  0  0  0  0  0
   15.5380  -28.6670   13.4880   O 0  0  0  0  0  0  0  0  0  0  0  0
   17.4840  -29.7410   13.1150   C 0  0  0  0  0  0  0  0  0  0  0  0
   17.9480  -28.3090   13.2660   O 0  0  0  0  0  0  0  0  0  0  0  0
   18.4900  -30.6210   13.9570   C 0  0  0  0  0  0  0  0  0  0  0  0
   18.6920  -31.8300   13.4580   N 0  0  0  0  0  0  0  0  0  0  0  0
   17.8390  -32.8730   13.2930   C 0  0  0  0  0  0  0  0  0  0  0  0
   18.5470  -33.9070   12.7550   N 0  0  0  0  0  0  0  0  0  0  0  0
   19.8420  -33.4960   12.5980   C 0  0  0  0  0  0  0  0  0  0  0  0
   20.9780  -34.1520   12.0980   C 0  0  0  0  0  0  0  0  0  0  0  0
   20.9750  -35.5150   11.6130   N 0  0  0  0  0  0  0  0  0  0  0  0
   22.1750  -33.4980   12.0530   N 0  0  0  0  0  0  0  0  0  0  0  0
   22.2640  -32.2070   12.4970   C 0  0  0  0  0  0  0  0  0  0  0  0
   21.1460  -31.5640   12.9850   N 0  0  0  0  0  0  0  0  0  0  0  0
   19.9350  -32.2210   13.0370   C 0  0  0  0  0  0  0  0  0  0  0  0
  1  2  2  0  0  0  0
  1  3  1  0  0  0  0
  1  4  1  0  0  0  0
  1 31  1  0  0  0  0
  4  5  1  0  0  0  0
  5  6  1  0  0  0  0
  6  7  1  0  0  0  0
  6  8  1  0  0  0  0
  7 12  1  0  0  0  0
  8  9  1  0  0  0  0
  8 10  1  0  0  0  0
  9 23  1  0  0  0  0
 10 11  1  0  0  0  0
 10 12  1  0  0  0  0
 12 13  1  0  0  0  0
 13 14  1  0  0  0  0
 13 22  1  0  0  0  0
 14 15  2  0  0  0  0
 15 16  1  0  0  0  0
 16 17  2  0  0  0  0
 16 22  1  0  0  0  0
 17 18  1  0  0  0  0
 17 19  1  0  0  0  0
 19 20  2  0  0  0  0
 20 21  1  0  0  0  0
 21 22  2  0  0  0  0
 23 24  2  0  0  0  0
 23 25  1  0  0  0  0
 23 26  1  0  0  0  0
 26 27  1  0  0  0  0
 27 28  1  0  0  0  0
 28 29  1  0  0  0  0
 28 30  1  0  0  0  0
 29 34  1  0  0  0  0
 30 31  1  0  0  0  0
 30 32  1  0  0  0  0
 32 33  1  0  0  0  0
 32 34  1  0  0  0  0
 34 35  1  0  0  0  0
 35 36  1  0  0  0  0
 35 44  1  0  0  0  0
 36 37  2  0  0  0  0
 37 38  1  0  0  0  0
 38 39  2  0  0  0  0
 38 44  1  0  0  0  0
 39 40  1  0  0  0  0
 39 41  1  0  0  0  0
 41 42  2  0  0  0  0
 42 43  1  0  0  0  0
 43 44  2  0  0  0  0
A    1
P
A    2
O1P
A    3
O2P
A    4
O5'
A    5
C5'
A    6
C4'
A    7
O4'
A    8
C3'
A    9
O3'
A   10
C2'
A   11
O2'
A   12
C1'
A   13
N9
A   14
C8
A   15
N7
A   16
C5
A   17
C6
A   18
N6
A   19
N1
A   20
C2
A   21
N3
A   22
C4
A   23
P1
A   24
O1P1
A   25
O2P1
A   26
O5'1
A   27
C5'1
A   28
C4'1
A   29
O4'1
A   30
C3'1
A   31
O3'1
A   32
C2'1
A   33
O2'1
A   34
C1'1
A   35
N91
A   36
C81
A   37
N71
A   38
C51
A   39
C61
A   40
N61
A   41
N11
A   42
C21
A   43
N31
A   44
C41
M  END
>  <InstanceId>
4WK1_2BA_A_201

>  <ChemCompId>
2BA

>  <PdbId>
4WK1

>  <ChainId>
A

>  <ResidueNumber>
201

>  <InsertionCode>


>  <Model>
1

>  <AltIds>


>  <MissingHeavyAtoms>
0

>  <ObservedFormula>
C20 N10 O12 P2

>  <Name>
(2R,3R,3aS,5R,7aR,9R,10R,10aS,12R,14aR)-2,9-bis(6-amino-9H-purin-9-yl)octahydro-2H,7H-difuro[3,2-d:3',2'-j][1,3,7,9,2,8]tetraoxadiphosphacyclododecine-3,5,10,12-tetrol 5,12-dioxide

>  <SystematicName>


>  <Synonyms>
bis-(3',5')-cyclic-dimeric-Adenosine-monophosphate

>  <Type>
NON-POLYMER

>  <Formula>
C20 H24 N10 O12 P2

>  <MolecularWeight>
658.412

>  <ModifiedDate>
2011-06-04

>  <Parent>


>  <OneLetterCode>


>  <SubcomponentList>


>  <AmbiguousFlag>
N

>  <InChI>
InChI=1S/C20H24N10O12P2/c21-15-9-17(25-3-23-15)29(5-27-9)19-11(31)13-7(39-19)1-37-43(33,34)42-14-8(2-38-44(35,36)41-13)40-20(12(14)32)30-6-28-10-16(22)24-4-26-18(10)30/h3-8,11-14,19-20,31-32H,1-2H2,(H,33,34)(H,35,36)(H2,21,23,25)(H2,22,24,26)/t7-,8-,11-,12-,13-,14-,19-,20-/m1/s1

>  <InChIKey>
PDXMFTWFFKBFIN-XPWFQUROSA-N

>  <SMILES>
c1nc(c2c(n1)n(cn2)[C@H]3[C@@H]([C@H]4[C@H](O3)CO[P@](=O)(O[C@@H]5[C@@H](CO[P@](=O)(O4)O)O[C@H]([C@@H]5O)n6cnc7c6ncnc7N)O)O)N

$$$$
