4RAK_652_A_503


 36 39  0  0  0  0  0  0  0  0999 V2000
  -23.2058   10.5104  -43.8034 N   0  0  0  0  0  0  0  0  0  0  0  0
  -23.0033   10.0526  -45.0251 C   0  0  0  0  0  0  0  0  0  0  0  0
  -23.4912    8.7551  -45.0779 C   0  0  0  0  0  0  0  0  0  0  0  0
  -23.9412    8.4793  -43.8623 N   0  0  0  0  0  0  0  0  0  0  0  0
  -23.7855    9.5340  -43.0861 C   0  0  0  0  0  0  0  0  0  0  0  0
  -22.0550   14.3395  -42.3561 C   0  0  0  0  0  0  0  0  0  0  0  0
  -21.1328   13.2929  -42.3477 C   0  0  0  0  0  0  0  0  0  0  0  0
  -21.5170   12.0469  -42.8433 C   0  0  0  0  0  0  0  0  0  0  0  0
  -23.3430   14.1409  -42.8585 C   0  0  0  0  0  0  0  0  0  0  0  0
  -23.7251   12.8865  -43.3548 C   0  0  0  0  0  0  0  0  0  0  0  0
  -22.8131   11.8354  -43.3346 C   0  0  0  0  0  0  0  0  0  0  0  0
  -21.5772   18.0912  -42.0794 C   0  0  0  0  0  0  0  0  0  0  0  0
  -21.9120   16.8398  -42.5906 C   0  0  0  0  0  0  0  0  0  0  0  0
  -21.0044   18.2283  -40.8071 C   0  0  0  0  0  0  0  0  0  0  0  0
  -20.7721   17.1005  -40.0327 C   0  0  0  0  0  0  0  0  0  0  0  0
  -21.1141   15.8458  -40.5396 C   0  0  0  0  0  0  0  0  0  0  0  0
  -21.6667   15.7148  -41.8218 C   0  0  0  0  0  0  0  0  0  0  0  0
  -23.2598   19.2705  -44.2552 C   0  0  0  0  0  0  0  0  0  0  0  0
  -21.8943   19.5508  -43.1087 S   0  0  0  0  0  0  0  0  0  0  0  0
  -20.4896   19.8824  -43.9163 O   0  0  0  0  0  0  0  0  0  0  0  0
  -22.2302   20.8193  -42.0994 O   0  0  0  0  0  0  0  0  0  0  0  0
  -23.5049    7.8280  -46.2857 C   0  0  0  0  0  0  0  0  0  0  0  0
  -24.6632    8.1983  -47.1977 C   0  0  0  0  0  0  0  0  0  0  0  0
  -23.6531    6.3861  -45.8301 C   0  0  0  0  0  0  0  0  0  0  0  0
  -22.3077    7.9556  -47.0008 O   0  0  0  0  0  0  0  0  0  0  0  0
  -22.3245    7.3622  -47.7679 H   0  0  0  0  0  0  0  0  0  0  0  0
  -24.2471    9.5854  -41.6152 C   0  0  0  0  0  0  0  0  0  0  0  0
  -25.4814   10.5066  -41.5582 C   0  0  0  0  0  0  0  0  0  0  0  0
  -24.7228    8.2123  -41.1283 C   0  0  0  0  0  0  0  0  0  0  0  0
  -23.1164   10.0648  -40.6689 C   0  0  0  0  0  0  0  0  0  0  0  0
  -23.3131   11.2128  -39.8964 C   0  0  0  0  0  0  0  0  0  0  0  0
  -22.3373   11.6842  -39.0345 C   0  0  0  0  0  0  0  0  0  0  0  0
  -21.1302   11.0021  -38.9365 C   0  0  0  0  0  0  0  0  0  0  0  0
  -20.9065    9.8554  -39.6938 C   0  0  0  0  0  0  0  0  0  0  0  0
  -21.8983    9.3752  -40.5562 C   0  0  0  0  0  0  0  0  0  0  0  0
  -21.5064    7.9132  -41.5206 Cl  0  0  0  0  0  0  0  0  0  0  0  0
 25 22  1  0  0  0
 24 22  1  0  0  0
 22 23  1  0  0  0
 22  3  1  0  0  0
  2  3  2  0  0  0
  2  1  1  0  0  0
  3  4  1  0  0  0
 21 19  2  0  0  0
 18 19  1  0  0  0
  1 11  1  0  0  0
  1  5  1  0  0  0
  4  5  2  0  0  0
 10 11  2  0  0  0
 10  9  1  0  0  0
 11  8  1  0  0  0
  5 27  1  0  0  0
 19 20  2  0  0  0
 19 12  1  0  0  0
  9  6  2  0  0  0
  8  7  2  0  0  0
 13 12  2  0  0  0
 13 17  1  0  0  0
  6  7  1  0  0  0
  6 17  1  0  0  0
 12 14  1  0  0  0
 17 16  2  0  0  0
 36 35  1  0  0  0
 27 28  1  0  0  0
 27 29  1  0  0  0
 27 30  1  0  0  0
 14 15  2  0  0  0
 30 35  2  0  0  0
 30 31  1  0  0  0
 35 34  1  0  0  0
 16 15  1  0  0  0
 31 32  2  0  0  0
 34 33  2  0  0  0
 32 33  1  0  0  0
 25 26  1  0  0  0
M  END
> <minimizedAffinity>
-12.82027

$$$$
4RAK_652_A_503


 36 39  0  0  0  0  0  0  0  0999 V2000
  -23.2389   10.3572  -43.8074 N   0  0  0  0  0  0  0  0  0  0  0  0
  -23.1389   10.0184  -45.0796 C   0  0  0  0  0  0  0  0  0  0  0  0
  -23.5847    8.7110  -45.2065 C   0  0  0  0  0  0  0  0  0  0  0  0
  -23.9064    8.3096  -43.9851 N   0  0  0  0  0  0  0  0  0  0  0  0
  -23.7133    9.2971  -43.1327 C   0  0  0  0  0  0  0  0  0  0  0  0
  -22.1138   14.1635  -42.2819 C   0  0  0  0  0  0  0  0  0  0  0  0
  -23.4289   13.9461  -42.6931 C   0  0  0  0  0  0  0  0  0  0  0  0
  -23.7898   12.6872  -43.1733 C   0  0  0  0  0  0  0  0  0  0  0  0
  -21.1745   13.1318  -42.3472 C   0  0  0  0  0  0  0  0  0  0  0  0
  -21.5415   11.8682  -42.8315 C   0  0  0  0  0  0  0  0  0  0  0  0
  -22.8488   11.6511  -43.2568 C   0  0  0  0  0  0  0  0  0  0  0  0
  -21.6624   17.9131  -41.9392 C   0  0  0  0  0  0  0  0  0  0  0  0
  -22.0359   16.6721  -42.4491 C   0  0  0  0  0  0  0  0  0  0  0  0
  -20.9478   18.0213  -40.7379 C   0  0  0  0  0  0  0  0  0  0  0  0
  -20.6106   16.8746  -40.0330 C   0  0  0  0  0  0  0  0  0  0  0  0
  -20.9907   15.6300  -40.5379 C   0  0  0  0  0  0  0  0  0  0  0  0
  -21.6864   15.5286  -41.7512 C   0  0  0  0  0  0  0  0  0  0  0  0
  -20.6921   20.1157  -43.7178 C   0  0  0  0  0  0  0  0  0  0  0  0
  -22.1184   19.3977  -42.8765 S   0  0  0  0  0  0  0  0  0  0  0  0
  -22.7783   20.4625  -41.7967 O   0  0  0  0  0  0  0  0  0  0  0  0
  -23.2859   18.9685  -43.9689 O   0  0  0  0  0  0  0  0  0  0  0  0
  -23.6823    7.8948  -46.4881 C   0  0  0  0  0  0  0  0  0  0  0  0
  -22.4580    8.1545  -47.3508 C   0  0  0  0  0  0  0  0  0  0  0  0
  -24.9379    8.2791  -47.2525 C   0  0  0  0  0  0  0  0  0  0  0  0
  -23.7389    6.5292  -46.1830 O   0  0  0  0  0  0  0  0  0  0  0  0
  -23.8009    6.0167  -47.0042 H   0  0  0  0  0  0  0  0  0  0  0  0
  -24.0332    9.1983  -41.6271 C   0  0  0  0  0  0  0  0  0  0  0  0
  -25.2644   10.0875  -41.3648 C   0  0  0  0  0  0  0  0  0  0  0  0
  -24.4486    7.7764  -41.2341 C   0  0  0  0  0  0  0  0  0  0  0  0
  -22.8218    9.6043  -40.7488 C   0  0  0  0  0  0  0  0  0  0  0  0
  -21.6252    8.8913  -40.8641 C   0  0  0  0  0  0  0  0  0  0  0  0
  -20.5127    9.2121  -40.1048 C   0  0  0  0  0  0  0  0  0  0  0  0
  -20.5869   10.2668  -39.2025 C   0  0  0  0  0  0  0  0  0  0  0  0
  -21.7658   10.9948  -39.0667 C   0  0  0  0  0  0  0  0  0  0  0  0
  -22.8855   10.6753  -39.8428 C   0  0  0  0  0  0  0  0  0  0  0  0
  -24.3722   11.6434  -39.5720 Cl  0  0  0  0  0  0  0  0  0  0  0  0
 25 22  1  0  0  0
 24 22  1  0  0  0
 22 23  1  0  0  0
 22  3  1  0  0  0
  2  3  2  0  0  0
  2  1  1  0  0  0
  3  4  1  0  0  0
 21 19  2  0  0  0
 18 19  1  0  0  0
  1 11  1  0  0  0
  1  5  1  0  0  0
  4  5  2  0  0  0
 10 11  2  0  0  0
 10  9  1  0  0  0
 11  8  1  0  0  0
  5 27  1  0  0  0
 19 20  2  0  0  0
 19 12  1  0  0  0
  9  6  2  0  0  0
  8  7  2  0  0  0
 13 12  2  0  0  0
 13 17  1  0  0  0
  6  7  1  0  0  0
  6 17  1  0  0  0
 12 14  1  0  0  0
 17 16  2  0  0  0
 36 35  1  0  0  0
 27 28  1  0  0  0
 27 29  1  0  0  0
 27 30  1  0  0  0
 14 15  2  0  0  0
 30 35  2  0  0  0
 30 31  1  0  0  0
 35 34  1  0  0  0
 16 15  1  0  0  0
 31 32  2  0  0  0
 34 33  2  0  0  0
 32 33  1  0  0  0
 25 26  1  0  0  0
M  END
> <minimizedAffinity>
-12.36475

$$$$
4RAK_652_A_503


 36 39  0  0  0  0  0  0  0  0999 V2000
  -23.2419   10.3834  -43.9115 N   0  0  0  0  0  0  0  0  0  0  0  0
  -23.2280   10.1039  -45.2019 C   0  0  0  0  0  0  0  0  0  0  0  0
  -23.6377    8.7874  -45.3550 C   0  0  0  0  0  0  0  0  0  0  0  0
  -23.8514    8.3220  -44.1327 N   0  0  0  0  0  0  0  0  0  0  0  0
  -23.6273    9.2782  -43.2527 C   0  0  0  0  0  0  0  0  0  0  0  0
  -22.1231   14.1576  -42.3040 C   0  0  0  0  0  0  0  0  0  0  0  0
  -23.4276   13.9596  -42.7564 C   0  0  0  0  0  0  0  0  0  0  0  0
  -23.7872   12.7109  -43.2635 C   0  0  0  0  0  0  0  0  0  0  0  0
  -21.1930   13.1168  -42.3552 C   0  0  0  0  0  0  0  0  0  0  0  0
  -21.5585   11.8636  -42.8665 C   0  0  0  0  0  0  0  0  0  0  0  0
  -22.8549   11.6659  -43.3328 C   0  0  0  0  0  0  0  0  0  0  0  0
  -21.6548   17.8982  -41.8921 C   0  0  0  0  0  0  0  0  0  0  0  0
  -22.0261   16.6680  -42.4291 C   0  0  0  0  0  0  0  0  0  0  0  0
  -20.9630   17.9824  -40.6756 C   0  0  0  0  0  0  0  0  0  0  0  0
  -20.6468   16.8223  -39.9830 C   0  0  0  0  0  0  0  0  0  0  0  0
  -21.0248   15.5885  -40.5151 C   0  0  0  0  0  0  0  0  0  0  0  0
  -21.6975   15.5112  -41.7431 C   0  0  0  0  0  0  0  0  0  0  0  0
  -20.6370   20.1205  -43.6189 C   0  0  0  0  0  0  0  0  0  0  0  0
  -22.0831   19.4006  -42.8139 S   0  0  0  0  0  0  0  0  0  0  0  0
  -22.7540   20.4537  -41.7293 O   0  0  0  0  0  0  0  0  0  0  0  0
  -23.2344   18.9974  -43.9331 O   0  0  0  0  0  0  0  0  0  0  0  0
  -23.8053    8.0243  -46.6618 C   0  0  0  0  0  0  0  0  0  0  0  0
  -25.1755    8.3188  -47.2505 C   0  0  0  0  0  0  0  0  0  0  0  0
  -23.6657    6.5322  -46.4118 C   0  0  0  0  0  0  0  0  0  0  0  0
  -22.8243    8.4230  -47.5783 O   0  0  0  0  0  0  0  0  0  0  0  0
  -22.9380    7.9326  -48.4074 H   0  0  0  0  0  0  0  0  0  0  0  0
  -23.8277    9.1026  -41.7334 C   0  0  0  0  0  0  0  0  0  0  0  0
  -22.5186    9.5413  -41.0486 C   0  0  0  0  0  0  0  0  0  0  0  0
  -24.9173   10.0389  -41.1995 C   0  0  0  0  0  0  0  0  0  0  0  0
  -24.2211    7.6490  -41.3645 C   0  0  0  0  0  0  0  0  0  0  0  0
  -25.3547    7.4270  -40.5776 C   0  0  0  0  0  0  0  0  0  0  0  0
  -25.7516    6.1497  -40.2198 C   0  0  0  0  0  0  0  0  0  0  0  0
  -25.0034    5.0602  -40.6498 C   0  0  0  0  0  0  0  0  0  0  0  0
  -23.8696    5.2511  -41.4350 C   0  0  0  0  0  0  0  0  0  0  0  0
  -23.4766    6.5425  -41.8040 C   0  0  0  0  0  0  0  0  0  0  0  0
  -21.9812    6.6939  -42.7847 Cl  0  0  0  0  0  0  0  0  0  0  0  0
 25 22  1  0  0  0
 24 22  1  0  0  0
 22 23  1  0  0  0
 22  3  1  0  0  0
  2  3  2  0  0  0
  2  1  1  0  0  0
  3  4  1  0  0  0
 21 19  2  0  0  0
 18 19  1  0  0  0
  1 11  1  0  0  0
  1  5  1  0  0  0
  4  5  2  0  0  0
 10 11  2  0  0  0
 10  9  1  0  0  0
 11  8  1  0  0  0
  5 27  1  0  0  0
 19 20  2  0  0  0
 19 12  1  0  0  0
  9  6  2  0  0  0
  8  7  2  0  0  0
 13 12  2  0  0  0
 13 17  1  0  0  0
  6  7  1  0  0  0
  6 17  1  0  0  0
 12 14  1  0  0  0
 17 16  2  0  0  0
 36 35  1  0  0  0
 27 28  1  0  0  0
 27 29  1  0  0  0
 27 30  1  0  0  0
 14 15  2  0  0  0
 30 35  2  0  0  0
 30 31  1  0  0  0
 35 34  1  0  0  0
 16 15  1  0  0  0
 31 32  2  0  0  0
 34 33  2  0  0  0
 32 33  1  0  0  0
 25 26  1  0  0  0
M  END
> <minimizedAffinity>
-11.46839

$$$$
