5F25_5TU_A_201


 20 21  0  0  0  0  0  0  0  0999 V2000
    9.2257   -3.9945    4.7005 C   0  0  0  0  0  0  0  0  0  0  0  0
    9.2123   -5.3994    4.6911 C   0  0  0  0  0  0  0  0  0  0  0  0
   11.6385   -5.4382    4.7276 C   0  0  0  0  0  0  0  0  0  0  0  0
   10.4144   -6.1189    4.6966 C   0  0  0  0  0  0  0  0  0  0  0  0
   11.6594   -4.0378    4.7538 C   0  0  0  0  0  0  0  0  0  0  0  0
   10.4581   -3.3228    4.7403 C   0  0  0  0  0  0  0  0  0  0  0  0
    5.8187   -2.6932    3.6757 C   0  0  0  0  0  0  0  0  0  0  0  0
    4.8254   -2.9416    2.5744 C   0  0  0  0  0  0  0  0  0  0  0  0
    5.5669   -1.6873    4.7442 C   0  0  0  0  0  0  0  0  0  0  0  0
    7.9439   -3.2167    4.7260 C   0  0  0  0  0  0  0  0  0  0  0  0
    7.6892   -2.2578    5.7208 C   0  0  0  0  0  0  0  0  0  0  0  0
    7.0103   -3.4126    3.7006 C   0  0  0  0  0  0  0  0  0  0  0  0
    4.5087   -1.0152    4.7343 O   0  0  0  0  0  0  0  0  0  0  0  0
    6.5623   -1.5144    5.7466 N   0  0  0  0  0  0  0  0  0  0  0  0
    6.3815   -0.5423    6.8309 C   0  0  0  0  0  0  0  0  0  0  0  0
   12.9537   -7.4579    4.2820 N   0  0  0  0  0  0  0  0  0  0  0  0
   12.9317   -6.2061    4.7452 C   0  0  0  0  0  0  0  0  0  0  0  0
   13.9420   -5.6671    5.1733 O   0  0  0  0  0  0  0  0  0  0  0  0
   12.1276   -7.8716    3.9421 H   0  0  0  0  0  0  0  0  0  0  0  0
   13.7962   -7.9674    4.2803 H   0  0  0  0  0  0  0  0  0  0  0  0
 16 17  1  0  0  0
 17  3  1  0  0  0
 17 18  2  0  0  0
  5  3  2  0  0  0
  5  6  1  0  0  0
  3  4  1  0  0  0
  6  1  2  0  0  0
  4  2  2  0  0  0
  1  2  1  0  0  0
  1 10  1  0  0  0
 12 10  1  0  0  0
 12  7  2  0  0  0
 10 11  2  0  0  0
  8  7  1  0  0  0
  7  9  1  0  0  0
 11 14  1  0  0  0
  9 14  1  0  0  0
  9 13  2  0  0  0
 14 15  1  0  0  0
 16 19  1  0  0  0
 16 20  1  0  0  0
M  END
> <minimizedAffinity>
-7.79818

$$$$
5F25_5TU_A_201


 20 21  0  0  0  0  0  0  0  0999 V2000
    9.2388   -3.9657    4.6696 C   0  0  0  0  0  0  0  0  0  0  0  0
    9.2026   -5.3700    4.6915 C   0  0  0  0  0  0  0  0  0  0  0  0
   11.6278   -5.4474    4.7274 C   0  0  0  0  0  0  0  0  0  0  0  0
   10.3928   -6.1087    4.7124 C   0  0  0  0  0  0  0  0  0  0  0  0
   11.6715   -4.0473    4.7223 C   0  0  0  0  0  0  0  0  0  0  0  0
   10.4820   -3.3133    4.6937 C   0  0  0  0  0  0  0  0  0  0  0  0
    6.5839   -1.4945    5.7633 C   0  0  0  0  0  0  0  0  0  0  0  0
    6.3955   -0.4896    6.8659 C   0  0  0  0  0  0  0  0  0  0  0  0
    5.5396   -1.7240    4.7270 C   0  0  0  0  0  0  0  0  0  0  0  0
    7.9698   -3.1668    4.6787 C   0  0  0  0  0  0  0  0  0  0  0  0
    6.9685   -3.3724    3.7147 C   0  0  0  0  0  0  0  0  0  0  0  0
    7.7589   -2.2391    5.7064 C   0  0  0  0  0  0  0  0  0  0  0  0
    4.4661   -1.0778    4.7663 O   0  0  0  0  0  0  0  0  0  0  0  0
    5.7994   -2.6967    3.7211 N   0  0  0  0  0  0  0  0  0  0  0  0
    4.8167   -2.9747    2.6675 C   0  0  0  0  0  0  0  0  0  0  0  0
   12.9217   -7.4802    4.2785 N   0  0  0  0  0  0  0  0  0  0  0  0
   12.9085   -6.2357    4.7613 C   0  0  0  0  0  0  0  0  0  0  0  0
   13.9170   -5.7193    5.2203 O   0  0  0  0  0  0  0  0  0  0  0  0
   12.0971   -7.8755    3.9137 H   0  0  0  0  0  0  0  0  0  0  0  0
   13.7561   -8.0027    4.2873 H   0  0  0  0  0  0  0  0  0  0  0  0
 16 17  1  0  0  0
 17  3  1  0  0  0
 17 18  2  0  0  0
  5  3  2  0  0  0
  5  6  1  0  0  0
  3  4  1  0  0  0
  6  1  2  0  0  0
  4  2  2  0  0  0
  1  2  1  0  0  0
  1 10  1  0  0  0
 12 10  1  0  0  0
 12  7  2  0  0  0
 10 11  2  0  0  0
  8  7  1  0  0  0
  7  9  1  0  0  0
 11 14  1  0  0  0
  9 14  1  0  0  0
  9 13  2  0  0  0
 14 15  1  0  0  0
 16 19  1  0  0  0
 16 20  1  0  0  0
M  END
> <minimizedAffinity>
-7.69437

$$$$
5F25_5TU_A_201


 20 21  0  0  0  0  0  0  0  0999 V2000
   10.5358   -4.4403    4.5811 C   0  0  0  0  0  0  0  0  0  0  0  0
   11.4931   -5.3805    4.9976 C   0  0  0  0  0  0  0  0  0  0  0  0
   13.1588   -3.6255    5.1833 C   0  0  0  0  0  0  0  0  0  0  0  0
   12.8021   -4.9761    5.2902 C   0  0  0  0  0  0  0  0  0  0  0  0
   12.2053   -2.6799    4.7846 C   0  0  0  0  0  0  0  0  0  0  0  0
   10.9019   -3.0881    4.4859 C   0  0  0  0  0  0  0  0  0  0  0  0
    6.8465   -4.2231    3.7488 C   0  0  0  0  0  0  0  0  0  0  0  0
    5.8510   -3.1489    3.4079 C   0  0  0  0  0  0  0  0  0  0  0  0
    6.4517   -5.6561    3.8371 C   0  0  0  0  0  0  0  0  0  0  0  0
    9.1246   -4.8593    4.2959 C   0  0  0  0  0  0  0  0  0  0  0  0
    8.7291   -6.2049    4.3805 C   0  0  0  0  0  0  0  0  0  0  0  0
    8.1720   -3.8772    3.9968 C   0  0  0  0  0  0  0  0  0  0  0  0
    5.2607   -5.9909    3.6342 O   0  0  0  0  0  0  0  0  0  0  0  0
    7.4576   -6.6067    4.1685 N   0  0  0  0  0  0  0  0  0  0  0  0
    7.1415   -8.0359    4.2719 C   0  0  0  0  0  0  0  0  0  0  0  0
   14.8035   -1.8892    5.7196 N   0  0  0  0  0  0  0  0  0  0  0  0
   14.5598   -3.1844    5.5073 C   0  0  0  0  0  0  0  0  0  0  0  0
   15.4485   -4.0206    5.5810 O   0  0  0  0  0  0  0  0  0  0  0  0
   14.0720   -1.2335    5.6547 H   0  0  0  0  0  0  0  0  0  0  0  0
   15.7148   -1.5896    5.9410 H   0  0  0  0  0  0  0  0  0  0  0  0
 16 17  1  0  0  0
 17  3  1  0  0  0
 17 18  2  0  0  0
  5  3  2  0  0  0
  5  6  1  0  0  0
  3  4  1  0  0  0
  6  1  2  0  0  0
  4  2  2  0  0  0
  1  2  1  0  0  0
  1 10  1  0  0  0
 12 10  1  0  0  0
 12  7  2  0  0  0
 10 11  2  0  0  0
  8  7  1  0  0  0
  7  9  1  0  0  0
 11 14  1  0  0  0
  9 14  1  0  0  0
  9 13  2  0  0  0
 14 15  1  0  0  0
 16 19  1  0  0  0
 16 20  1  0  0  0
M  END
> <minimizedAffinity>
-7.50380

$$$$
5F25_5TU_A_201


 20 21  0  0  0  0  0  0  0  0999 V2000
    9.6804   -4.9590    4.5707 C   0  0  0  0  0  0  0  0  0  0  0  0
   10.7530   -5.8524    4.7298 C   0  0  0  0  0  0  0  0  0  0  0  0
   12.3188   -3.9983    4.7216 C   0  0  0  0  0  0  0  0  0  0  0  0
   12.0683   -5.3747    4.7971 C   0  0  0  0  0  0  0  0  0  0  0  0
   11.2530   -3.1004    4.5796 C   0  0  0  0  0  0  0  0  0  0  0  0
    9.9423   -3.5810    4.5050 C   0  0  0  0  0  0  0  0  0  0  0  0
    6.7402   -7.3352    4.3263 C   0  0  0  0  0  0  0  0  0  0  0  0
    6.5240   -8.8181    4.2025 C   0  0  0  0  0  0  0  0  0  0  0  0
    5.5993   -6.3796    4.3732 C   0  0  0  0  0  0  0  0  0  0  0  0
    8.2673   -5.4589    4.5290 C   0  0  0  0  0  0  0  0  0  0  0  0
    7.1764   -4.5741    4.5646 C   0  0  0  0  0  0  0  0  0  0  0  0
    8.0371   -6.8336    4.3923 C   0  0  0  0  0  0  0  0  0  0  0  0
    4.4226   -6.8054    4.2989 O   0  0  0  0  0  0  0  0  0  0  0  0
    5.8947   -4.9921    4.4884 N   0  0  0  0  0  0  0  0  0  0  0  0
    4.8212   -3.9931    4.5415 C   0  0  0  0  0  0  0  0  0  0  0  0
   14.0183   -2.2904    4.2718 N   0  0  0  0  0  0  0  0  0  0  0  0
   13.7281   -3.4795    4.8047 C   0  0  0  0  0  0  0  0  0  0  0  0
   14.5806   -4.1505    5.3682 O   0  0  0  0  0  0  0  0  0  0  0  0
   13.3153   -1.7675    3.8227 H   0  0  0  0  0  0  0  0  0  0  0  0
   14.9352   -1.9364    4.3278 H   0  0  0  0  0  0  0  0  0  0  0  0
 16 17  1  0  0  0
 17  3  1  0  0  0
 17 18  2  0  0  0
  5  3  2  0  0  0
  5  6  1  0  0  0
  3  4  1  0  0  0
  6  1  2  0  0  0
  4  2  2  0  0  0
  1  2  1  0  0  0
  1 10  1  0  0  0
 12 10  1  0  0  0
 12  7  2  0  0  0
 10 11  2  0  0  0
  8  7  1  0  0  0
  7  9  1  0  0  0
 11 14  1  0  0  0
  9 14  1  0  0  0
  9 13  2  0  0  0
 14 15  1  0  0  0
 16 19  1  0  0  0
 16 20  1  0  0  0
M  END
> <minimizedAffinity>
-7.39727

$$$$
5F25_5TU_A_201


 20 21  0  0  0  0  0  0  0  0999 V2000
    8.7525   -4.3356    4.4460 C   0  0  0  0  0  0  0  0  0  0  0  0
    7.9362   -3.1925    4.4145 C   0  0  0  0  0  0  0  0  0  0  0  0
    5.9521   -4.5895    4.4458 C   0  0  0  0  0  0  0  0  0  0  0  0
    6.5409   -3.3189    4.4065 C   0  0  0  0  0  0  0  0  0  0  0  0
    6.7595   -5.7332    4.4940 C   0  0  0  0  0  0  0  0  0  0  0  0
    8.1515   -5.6038    4.4941 C   0  0  0  0  0  0  0  0  0  0  0  0
   12.4037   -5.2599    4.8525 C   0  0  0  0  0  0  0  0  0  0  0  0
   13.2048   -6.4971    5.1505 C   0  0  0  0  0  0  0  0  0  0  0  0
   13.0558   -3.9390    4.6356 C   0  0  0  0  0  0  0  0  0  0  0  0
   10.2461   -4.2091    4.4863 C   0  0  0  0  0  0  0  0  0  0  0  0
   10.8814   -2.9711    4.2916 C   0  0  0  0  0  0  0  0  0  0  0  0
   11.0157   -5.3410    4.7828 C   0  0  0  0  0  0  0  0  0  0  0  0
   14.3031   -3.8371    4.7094 O   0  0  0  0  0  0  0  0  0  0  0  0
   12.2213   -2.8192    4.3617 N   0  0  0  0  0  0  0  0  0  0  0  0
   12.7943   -1.4873    4.1361 C   0  0  0  0  0  0  0  0  0  0  0  0
    3.7192   -3.8964    3.7099 N   0  0  0  0  0  0  0  0  0  0  0  0
    4.4545   -4.7303    4.4488 C   0  0  0  0  0  0  0  0  0  0  0  0
    3.9378   -5.6123    5.1193 O   0  0  0  0  0  0  0  0  0  0  0  0
    4.1573   -3.1935    3.1779 H   0  0  0  0  0  0  0  0  0  0  0  0
    2.7387   -3.9845    3.6970 H   0  0  0  0  0  0  0  0  0  0  0  0
 16 17  1  0  0  0
 17  3  1  0  0  0
 17 18  2  0  0  0
  5  3  2  0  0  0
  5  6  1  0  0  0
  3  4  1  0  0  0
  6  1  2  0  0  0
  4  2  2  0  0  0
  1  2  1  0  0  0
  1 10  1  0  0  0
 12 10  1  0  0  0
 12  7  2  0  0  0
 10 11  2  0  0  0
  8  7  1  0  0  0
  7  9  1  0  0  0
 11 14  1  0  0  0
  9 14  1  0  0  0
  9 13  2  0  0  0
 14 15  1  0  0  0
 16 19  1  0  0  0
 16 20  1  0  0  0
M  END
> <minimizedAffinity>
-7.38169

$$$$
5F25_5TU_A_201


 20 21  0  0  0  0  0  0  0  0999 V2000
    8.5277   -3.3516    4.6518 C   0  0  0  0  0  0  0  0  0  0  0  0
    8.1749   -2.4971    5.7098 C   0  0  0  0  0  0  0  0  0  0  0  0
    6.0541   -2.0146    4.6336 C   0  0  0  0  0  0  0  0  0  0  0  0
    6.9459   -1.8247    5.6972 C   0  0  0  0  0  0  0  0  0  0  0  0
    6.3920   -2.8778    3.5833 C   0  0  0  0  0  0  0  0  0  0  0  0
    7.6225   -3.5412    3.5952 C   0  0  0  0  0  0  0  0  0  0  0  0
   12.2541   -4.0335    4.6462 C   0  0  0  0  0  0  0  0  0  0  0  0
   13.5253   -3.2304    4.6471 C   0  0  0  0  0  0  0  0  0  0  0  0
   12.2693   -5.5224    4.6319 C   0  0  0  0  0  0  0  0  0  0  0  0
    9.8274   -4.0992    4.6721 C   0  0  0  0  0  0  0  0  0  0  0  0
    9.8645   -5.5035    4.6517 C   0  0  0  0  0  0  0  0  0  0  0  0
   11.0268   -3.3763    4.6516 C   0  0  0  0  0  0  0  0  0  0  0  0
   13.3616   -6.1370    4.6103 O   0  0  0  0  0  0  0  0  0  0  0  0
   11.0194   -6.2029    4.6291 N   0  0  0  0  0  0  0  0  0  0  0  0
   10.9575   -7.6690    4.6165 C   0  0  0  0  0  0  0  0  0  0  0  0
    4.3871   -0.5787    3.5533 N   0  0  0  0  0  0  0  0  0  0  0  0
    4.7285   -1.3039    4.6208 C   0  0  0  0  0  0  0  0  0  0  0  0
    3.9825   -1.4116    5.5833 O   0  0  0  0  0  0  0  0  0  0  0  0
    5.0041   -0.5063    2.7896 H   0  0  0  0  0  0  0  0  0  0  0  0
    3.5183   -0.1162    3.5297 H   0  0  0  0  0  0  0  0  0  0  0  0
 16 17  1  0  0  0
 17  3  1  0  0  0
 17 18  2  0  0  0
  5  3  2  0  0  0
  5  6  1  0  0  0
  3  4  1  0  0  0
  6  1  2  0  0  0
  4  2  2  0  0  0
  1  2  1  0  0  0
  1 10  1  0  0  0
 12 10  1  0  0  0
 12  7  2  0  0  0
 10 11  2  0  0  0
  8  7  1  0  0  0
  7  9  1  0  0  0
 11 14  1  0  0  0
  9 14  1  0  0  0
  9 13  2  0  0  0
 14 15  1  0  0  0
 16 19  1  0  0  0
 16 20  1  0  0  0
M  END
> <minimizedAffinity>
-7.37495

$$$$
5F25_5TU_A_201


 20 21  0  0  0  0  0  0  0  0999 V2000
    9.7563   -4.3959    4.5003 C   0  0  0  0  0  0  0  0  0  0  0  0
   10.4344   -5.5690    4.8716 C   0  0  0  0  0  0  0  0  0  0  0  0
   12.5127   -4.3292    5.0522 C   0  0  0  0  0  0  0  0  0  0  0  0
   11.8093   -5.5377    5.1390 C   0  0  0  0  0  0  0  0  0  0  0  0
   11.8400   -3.1524    4.6986 C   0  0  0  0  0  0  0  0  0  0  0  0
   10.4695   -3.1887    4.4249 C   0  0  0  0  0  0  0  0  0  0  0  0
    6.2368   -3.1736    3.8145 C   0  0  0  0  0  0  0  0  0  0  0  0
    5.5508   -1.8578    3.5711 C   0  0  0  0  0  0  0  0  0  0  0  0
    5.4824   -4.4571    3.8355 C   0  0  0  0  0  0  0  0  0  0  0  0
    8.2792   -4.4142    4.2426 C   0  0  0  0  0  0  0  0  0  0  0  0
    7.5470   -5.6131    4.2649 C   0  0  0  0  0  0  0  0  0  0  0  0
    7.6113   -3.2010    4.0341 C   0  0  0  0  0  0  0  0  0  0  0  0
    4.2416   -4.4569    3.6569 O   0  0  0  0  0  0  0  0  0  0  0  0
    6.2107   -5.6559    4.0762 N   0  0  0  0  0  0  0  0  0  0  0  0
    5.5336   -6.9573    4.1096 C   0  0  0  0  0  0  0  0  0  0  0  0
   14.6000   -3.1062    5.4461 N   0  0  0  0  0  0  0  0  0  0  0  0
   13.9866   -4.2879    5.3493 C   0  0  0  0  0  0  0  0  0  0  0  0
   14.5947   -5.3365    5.5076 O   0  0  0  0  0  0  0  0  0  0  0  0
   14.0898   -2.2745    5.3147 H   0  0  0  0  0  0  0  0  0  0  0  0
   15.5625   -3.0663    5.6489 H   0  0  0  0  0  0  0  0  0  0  0  0
 16 17  1  0  0  0
 17  3  1  0  0  0
 17 18  2  0  0  0
  5  3  2  0  0  0
  5  6  1  0  0  0
  3  4  1  0  0  0
  6  1  2  0  0  0
  4  2  2  0  0  0
  1  2  1  0  0  0
  1 10  1  0  0  0
 12 10  1  0  0  0
 12  7  2  0  0  0
 10 11  2  0  0  0
  8  7  1  0  0  0
  7  9  1  0  0  0
 11 14  1  0  0  0
  9 14  1  0  0  0
  9 13  2  0  0  0
 14 15  1  0  0  0
 16 19  1  0  0  0
 16 20  1  0  0  0
M  END
> <minimizedAffinity>
-7.37272

$$$$
5F25_5TU_A_201


 20 21  0  0  0  0  0  0  0  0999 V2000
    8.6556   -4.3944    4.3770 C   0  0  0  0  0  0  0  0  0  0  0  0
    7.8775   -3.2297    4.2675 C   0  0  0  0  0  0  0  0  0  0  0  0
    5.8519   -4.5661    4.2494 C   0  0  0  0  0  0  0  0  0  0  0  0
    6.4809   -3.3154    4.1960 C   0  0  0  0  0  0  0  0  0  0  0  0
    6.6204   -5.7305    4.3751 C   0  0  0  0  0  0  0  0  0  0  0  0
    8.0142   -5.6420    4.4385 C   0  0  0  0  0  0  0  0  0  0  0  0
   12.1566   -2.9477    4.4082 C   0  0  0  0  0  0  0  0  0  0  0  0
   12.7949   -1.5934    4.2683 C   0  0  0  0  0  0  0  0  0  0  0  0
   12.9694   -4.1781    4.6143 C   0  0  0  0  0  0  0  0  0  0  0  0
   10.1488   -4.3102    4.4854 C   0  0  0  0  0  0  0  0  0  0  0  0
   10.9352   -5.4595    4.6725 C   0  0  0  0  0  0  0  0  0  0  0  0
   10.7712   -3.0643    4.3374 C   0  0  0  0  0  0  0  0  0  0  0  0
   14.2196   -4.1012    4.6651 O   0  0  0  0  0  0  0  0  0  0  0  0
   12.2835   -5.4193    4.7338 N   0  0  0  0  0  0  0  0  0  0  0  0
   13.0192   -6.6722    4.9395 C   0  0  0  0  0  0  0  0  0  0  0  0
    3.6406   -3.5748    3.8815 N   0  0  0  0  0  0  0  0  0  0  0  0
    4.3523   -4.6628    4.1845 C   0  0  0  0  0  0  0  0  0  0  0  0
    3.8121   -5.7382    4.3997 O   0  0  0  0  0  0  0  0  0  0  0  0
    4.0974   -2.7192    3.7121 H   0  0  0  0  0  0  0  0  0  0  0  0
    2.6591   -3.6279    3.8274 H   0  0  0  0  0  0  0  0  0  0  0  0
 16 17  1  0  0  0
 17  3  1  0  0  0
 17 18  2  0  0  0
  5  3  2  0  0  0
  5  6  1  0  0  0
  3  4  1  0  0  0
  6  1  2  0  0  0
  4  2  2  0  0  0
  1  2  1  0  0  0
  1 10  1  0  0  0
 12 10  1  0  0  0
 12  7  2  0  0  0
 10 11  2  0  0  0
  8  7  1  0  0  0
  7  9  1  0  0  0
 11 14  1  0  0  0
  9 14  1  0  0  0
  9 13  2  0  0  0
 14 15  1  0  0  0
 16 19  1  0  0  0
 16 20  1  0  0  0
M  END
> <minimizedAffinity>
-7.32977

$$$$
5F25_5TU_A_201


 20 21  0  0  0  0  0  0  0  0999 V2000
   10.8812   -5.7080    4.5609 C   0  0  0  0  0  0  0  0  0  0  0  0
   10.6799   -4.3183    4.6086 C   0  0  0  0  0  0  0  0  0  0  0  0
   13.0507   -3.9725    4.9940 C   0  0  0  0  0  0  0  0  0  0  0  0
   11.7594   -3.4538    4.8322 C   0  0  0  0  0  0  0  0  0  0  0  0
   13.2616   -5.3559    4.9312 C   0  0  0  0  0  0  0  0  0  0  0  0
   12.1809   -6.2163    4.7156 C   0  0  0  0  0  0  0  0  0  0  0  0
    7.3419   -7.0359    4.3137 C   0  0  0  0  0  0  0  0  0  0  0  0
    5.9491   -6.5239    4.5568 C   0  0  0  0  0  0  0  0  0  0  0  0
    7.5939   -8.4291    3.8527 C   0  0  0  0  0  0  0  0  0  0  0  0
    9.7367   -6.6386    4.2912 C   0  0  0  0  0  0  0  0  0  0  0  0
    9.9524   -7.9592    3.8627 C   0  0  0  0  0  0  0  0  0  0  0  0
    8.4300   -6.1947    4.5296 C   0  0  0  0  0  0  0  0  0  0  0  0
    6.6315   -9.2107    3.6671 O   0  0  0  0  0  0  0  0  0  0  0  0
    8.9439   -8.8316    3.6504 N   0  0  0  0  0  0  0  0  0  0  0  0
    9.2674  -10.1888    3.1958 C   0  0  0  0  0  0  0  0  0  0  0  0
   15.1497   -3.3842    6.1146 N   0  0  0  0  0  0  0  0  0  0  0  0
   14.2149   -3.0480    5.2230 C   0  0  0  0  0  0  0  0  0  0  0  0
   14.2903   -2.0104    4.5810 O   0  0  0  0  0  0  0  0  0  0  0  0
   15.0680   -4.2251    6.6202 H   0  0  0  0  0  0  0  0  0  0  0  0
   15.9209   -2.7914    6.2667 H   0  0  0  0  0  0  0  0  0  0  0  0
 16 17  1  0  0  0
 17  3  1  0  0  0
 17 18  2  0  0  0
  5  3  2  0  0  0
  5  6  1  0  0  0
  3  4  1  0  0  0
  6  1  2  0  0  0
  4  2  2  0  0  0
  1  2  1  0  0  0
  1 10  1  0  0  0
 12 10  1  0  0  0
 12  7  2  0  0  0
 10 11  2  0  0  0
  8  7  1  0  0  0
  7  9  1  0  0  0
 11 14  1  0  0  0
  9 14  1  0  0  0
  9 13  2  0  0  0
 14 15  1  0  0  0
 16 19  1  0  0  0
 16 20  1  0  0  0
M  END
> <minimizedAffinity>
-7.28550

$$$$
5F25_5TU_A_201


 20 21  0  0  0  0  0  0  0  0999 V2000
    8.8354   -3.2190    4.8582 C   0  0  0  0  0  0  0  0  0  0  0  0
    8.4414   -2.4972    5.9974 C   0  0  0  0  0  0  0  0  0  0  0  0
    6.2607   -2.0992    5.0099 C   0  0  0  0  0  0  0  0  0  0  0  0
    7.1613   -1.9324    6.0700 C   0  0  0  0  0  0  0  0  0  0  0  0
    6.6408   -2.8316    3.8780 C   0  0  0  0  0  0  0  0  0  0  0  0
    7.9216   -3.3873    3.8055 C   0  0  0  0  0  0  0  0  0  0  0  0
   11.5291   -5.8774    4.6898 C   0  0  0  0  0  0  0  0  0  0  0  0
   11.5992   -7.3775    4.6136 C   0  0  0  0  0  0  0  0  0  0  0  0
   12.7581   -5.0376    4.7261 C   0  0  0  0  0  0  0  0  0  0  0  0
   10.1923   -3.8531    4.7851 C   0  0  0  0  0  0  0  0  0  0  0  0
   11.3648   -3.0800    4.8251 C   0  0  0  0  0  0  0  0  0  0  0  0
   10.2874   -5.2495    4.7351 C   0  0  0  0  0  0  0  0  0  0  0  0
   13.8879   -5.5803    4.7031 O   0  0  0  0  0  0  0  0  0  0  0  0
   12.5999   -3.6253    4.8013 N   0  0  0  0  0  0  0  0  0  0  0  0
   13.7661   -2.7355    4.8394 C   0  0  0  0  0  0  0  0  0  0  0  0
    4.4989   -0.6199    4.1640 N   0  0  0  0  0  0  0  0  0  0  0  0
    4.8812   -1.5046    5.0877 C   0  0  0  0  0  0  0  0  0  0  0  0
    4.1307   -1.8498    5.9888 O   0  0  0  0  0  0  0  0  0  0  0  0
    5.1205   -0.3568    3.4473 H   0  0  0  0  0  0  0  0  0  0  0  0
    3.5954   -0.2306    4.1994 H   0  0  0  0  0  0  0  0  0  0  0  0
 16 17  1  0  0  0
 17  3  1  0  0  0
 17 18  2  0  0  0
  5  3  2  0  0  0
  5  6  1  0  0  0
  3  4  1  0  0  0
  6  1  2  0  0  0
  4  2  2  0  0  0
  1  2  1  0  0  0
  1 10  1  0  0  0
 12 10  1  0  0  0
 12  7  2  0  0  0
 10 11  2  0  0  0
  8  7  1  0  0  0
  7  9  1  0  0  0
 11 14  1  0  0  0
  9 14  1  0  0  0
  9 13  2  0  0  0
 14 15  1  0  0  0
 16 19  1  0  0  0
 16 20  1  0  0  0
M  END
> <minimizedAffinity>
-7.25238

$$$$
