3JUP_AKD_A_500
  RCSB PDB12061709203D
Coordinates from PDB:3JUP:A:500 Model:1 without hydrogens
 17 18  0  0  0  0            999 V2000
   38.9860    3.7530   94.8320   O 0  5  0  0  0  0  0  0  0  0  0  0
   38.9490    2.1830   93.3370   O 0  0  0  0  0  0  0  0  0  0  0  0
   43.9450    5.9970   93.9400  Br 0  0  0  0  0  0  0  0  0  0  0  0
   43.8240    3.2200   93.3410   C 0  0  0  0  0  0  0  0  0  0  0  0
   43.1630    2.0130   93.2110   C 0  0  0  0  0  0  0  0  0  0  0  0
   41.7270    4.2420   93.9670   C 0  0  0  0  0  0  0  0  0  0  0  0
   39.4830   -1.3520   92.1670   C 0  0  0  0  0  0  0  0  0  0  0  0
   39.4770   -0.8550   90.7090   C 0  0  0  0  0  0  0  0  0  0  0  0
   40.8550   -1.5510   92.6620   C 0  0  0  0  0  0  0  0  0  0  0  0
   41.7850    0.1140   91.0450   C 0  0  0  0  0  0  0  0  0  0  0  0
   40.3970    0.2650   90.5780   N 0  0  0  0  0  0  0  0  0  0  0  0
   41.2230    0.7380   93.2920   N 0  0  0  0  0  0  0  0  0  0  0  0
   39.5230    2.9870   94.0350   C 0  0  0  0  0  0  0  0  0  0  0  0
   43.0970    4.3160   93.7140   C 0  0  0  0  0  0  0  0  0  0  0  0
   41.7930    1.9460   93.4070   C 0  0  0  0  0  0  0  0  0  0  0  0
   41.0550    3.0490   93.7970   C 0  0  0  0  0  0  0  0  0  0  0  0
   41.7940   -0.3620   92.5130   C 0  0  0  0  0  0  0  0  0  0  0  0
  1 13  1  0  0  0  0
  2 13  2  0  0  0  0
  3 14  1  0  0  0  0
  4  5  2  0  0  0  0
  4 14  1  0  0  0  0
  5 15  1  0  0  0  0
  6 14  2  0  0  0  0
  6 16  1  0  0  0  0
  7  8  1  0  0  0  0
  7  9  1  0  0  0  0
  8 11  1  0  0  0  0
  9 17  1  0  0  0  0
 10 11  1  0  0  0  0
 10 17  1  0  0  0  0
 12 15  1  0  0  0  0
 12 17  1  0  0  0  0
 13 16  1  0  0  0  0
 15 16  2  0  0  0  0
M  CHG  1   1  -1
A    1
OAA
A    2
OAB
A    3
BRAC
A    4
CAD
A    5
CAE
A    6
CAF
A    7
CAG
A    8
CAH
A    9
CAI
A   10
CAJ
A   11
NAK
A   12
NAL
A   13
CAM
A   14
CAN
A   15
CAO
A   16
CAP
A   17
CAQ
M  END
>  <InstanceId>
3JUP_AKD_A_500

>  <ChemCompId>
AKD

>  <PdbId>
3JUP

>  <ChainId>
A

>  <ResidueNumber>
500

>  <InsertionCode>


>  <Model>
1

>  <AltIds>


>  <MissingHeavyAtoms>
0

>  <ObservedFormula>
C12 N2 O2 Br

>  <Name>
5-bromo-2-[(3S)-piperidin-3-ylamino]benzoate

>  <SystematicName>
5-bromo-2-[[(3S)-piperidin-3-yl]amino]benzoate

>  <Synonyms>


>  <Type>
NON-POLYMER

>  <Formula>
C12 H14 Br N2 O2

>  <MolecularWeight>
298.156

>  <ModifiedDate>
2011-06-04

>  <Parent>


>  <OneLetterCode>


>  <SubcomponentList>


>  <AmbiguousFlag>
N

>  <InChI>
InChI=1S/C12H15BrN2O2/c13-8-3-4-11(10(6-8)12(16)17)15-9-2-1-5-14-7-9/h3-4,6,9,14-15H,1-2,5,7H2,(H,16,17)/p-1/t9-/m0/s1

>  <InChIKey>
DFYNENBDVWMLFE-VIFPVBQESA-M

>  <SMILES>
c1cc(c(cc1Br)C(=O)[O-])N[C@H]2CCCNC2

$$$$
