5TFX_7B1_A_303


 25 27  0  0  0  0  0  0  0  0999 V2000
   -0.3664    3.4334   84.9848 C   0  0  0  0  0  0  0  0  0  0  0  0
   -1.0238    2.4991   85.7260 C   0  0  0  0  0  0  0  0  0  0  0  0
   -3.1708    3.5394   85.3364 C   0  0  0  0  0  0  0  0  0  0  0  0
   -2.4871    4.4554   84.5684 C   0  0  0  0  0  0  0  0  0  0  0  0
   -1.1214    4.4024   84.4112 C   0  0  0  0  0  0  0  0  0  0  0  0
   -2.3948    2.5433   85.8923 C   0  0  0  0  0  0  0  0  0  0  0  0
   -1.9647    6.1591   83.1838 C   0  0  0  0  0  0  0  0  0  0  0  0
   -3.0425    5.5521   83.9087 N   0  0  0  0  0  0  0  0  0  0  0  0
   -0.6861    5.3937   83.6528 O   0  0  0  0  0  0  0  0  0  0  0  0
   -2.7027    1.5745   88.4827 N   0  0  0  0  0  0  0  0  0  0  0  0
   -4.5476    1.3852   86.7847 O   0  0  0  0  0  0  0  0  0  0  0  0
   -2.4894    0.0316   86.4840 O   0  0  0  0  0  0  0  0  0  0  0  0
   -3.1049    1.2764   86.9258 S   0  0  0  0  0  0  0  0  0  0  0  0
   -1.6913    1.5006   88.5927 H   0  0  0  0  0  0  0  0  0  0  0  0
   -3.1612    0.8940   89.0886 H   0  0  0  0  0  0  0  0  0  0  0  0
   -2.6195    7.5067   81.3375 C   0  0  0  0  0  0  0  0  0  0  0  0
   -1.9262    7.3253   82.4510 N   0  0  0  0  0  0  0  0  0  0  0  0
   -3.2544    6.6294   80.8106 O   0  0  0  0  0  0  0  0  0  0  0  0
   -1.3549    8.0603   82.7712 H   0  0  0  0  0  0  0  0  0  0  0  0
   -2.3844   11.5421   80.2370 C   0  0  0  0  0  0  0  0  0  0  0  0
   -3.5998   10.9532   80.4725 C   0  0  0  0  0  0  0  0  0  0  0  0
   -1.2091   10.8248   80.3462 C   0  0  0  0  0  0  0  0  0  0  0  0
   -3.6540    9.6211   80.8305 C   0  0  0  0  0  0  0  0  0  0  0  0
   -1.2586    9.4966   80.6986 C   0  0  0  0  0  0  0  0  0  0  0  0
   -2.4962    8.9148   80.9360 C   0  0  0  0  0  0  0  0  0  0  0  0
 20 22  2  0  0  0
 20 21  1  0  0  0
 22 24  1  0  0  0
 21 23  2  0  0  0
 24 25  2  0  0  0
 23 25  1  0  0  0
 25 16  1  0  0  0
 18 16  2  0  0  0
 16 17  1  0  0  0
 17  7  1  0  0  0
  7  9  1  0  0  0
  7  8  2  0  0  0
  9  5  1  0  0  0
  8  4  1  0  0  0
  5  4  2  0  0  0
  5  1  1  0  0  0
  4  3  1  0  0  0
  1  2  2  0  0  0
  3  6  2  0  0  0
  2  6  1  0  0  0
  6 13  1  0  0  0
 10 13  1  0  0  0
 12 13  2  0  0  0
 13 11  2  0  0  0
 10 14  1  0  0  0
 10 15  1  0  0  0
 17 19  1  0  0  0
M  END
> <minimizedAffinity>
-8.30833

$$$$
5TFX_7B1_A_303


 25 27  0  0  0  0  0  0  0  0999 V2000
   -3.6599    4.4690   85.5484 C   0  0  0  0  0  0  0  0  0  0  0  0
   -3.0849    3.2839   85.8940 C   0  0  0  0  0  0  0  0  0  0  0  0
   -1.6276    3.3013   83.9653 C   0  0  0  0  0  0  0  0  0  0  0  0
   -2.2040    4.5122   83.6526 C   0  0  0  0  0  0  0  0  0  0  0  0
   -3.1994    5.0680   84.4226 C   0  0  0  0  0  0  0  0  0  0  0  0
   -2.0858    2.7153   85.1273 C   0  0  0  0  0  0  0  0  0  0  0  0
   -2.6992    6.4869   82.6790 C   0  0  0  0  0  0  0  0  0  0  0  0
   -1.9164    5.2947   82.5339 N   0  0  0  0  0  0  0  0  0  0  0  0
   -3.6132    6.2171   83.9170 O   0  0  0  0  0  0  0  0  0  0  0  0
   -2.4320    0.5796   86.8771 N   0  0  0  0  0  0  0  0  0  0  0  0
   -1.5434    0.2365   84.5500 O   0  0  0  0  0  0  0  0  0  0  0  0
   -0.1349    1.4202   86.2155 O   0  0  0  0  0  0  0  0  0  0  0  0
   -1.4632    1.1410   85.6851 S   0  0  0  0  0  0  0  0  0  0  0  0
   -2.3830    1.2077   87.6793 H   0  0  0  0  0  0  0  0  0  0  0  0
   -2.1237   -0.3520   87.1554 H   0  0  0  0  0  0  0  0  0  0  0  0
   -3.3427    7.4103   80.5845 C   0  0  0  0  0  0  0  0  0  0  0  0
   -2.8801    7.5470   81.8177 N   0  0  0  0  0  0  0  0  0  0  0  0
   -3.5382    6.3376   80.0733 O   0  0  0  0  0  0  0  0  0  0  0  0
   -2.6542    8.4512   82.1349 H   0  0  0  0  0  0  0  0  0  0  0  0
   -3.9683   11.2704   79.0814 C   0  0  0  0  0  0  0  0  0  0  0  0
   -3.3696   11.0854   80.3007 C   0  0  0  0  0  0  0  0  0  0  0  0
   -4.3885   10.1966   78.3209 C   0  0  0  0  0  0  0  0  0  0  0  0
   -3.1765    9.8046   80.7782 C   0  0  0  0  0  0  0  0  0  0  0  0
   -4.2020    8.9193   78.7944 C   0  0  0  0  0  0  0  0  0  0  0  0
   -3.5924    8.7477   80.0295 C   0  0  0  0  0  0  0  0  0  0  0  0
 20 22  2  0  0  0
 20 21  1  0  0  0
 22 24  1  0  0  0
 21 23  2  0  0  0
 24 25  2  0  0  0
 23 25  1  0  0  0
 25 16  1  0  0  0
 18 16  2  0  0  0
 16 17  1  0  0  0
 17  7  1  0  0  0
  7  9  1  0  0  0
  7  8  2  0  0  0
  9  5  1  0  0  0
  8  4  1  0  0  0
  5  4  2  0  0  0
  5  1  1  0  0  0
  4  3  1  0  0  0
  1  2  2  0  0  0
  3  6  2  0  0  0
  2  6  1  0  0  0
  6 13  1  0  0  0
 10 13  1  0  0  0
 12 13  2  0  0  0
 13 11  2  0  0  0
 10 14  1  0  0  0
 10 15  1  0  0  0
 17 19  1  0  0  0
M  END
> <minimizedAffinity>
-8.22332

$$$$
5TFX_7B1_A_303


 25 27  0  0  0  0  0  0  0  0999 V2000
   -2.6960    4.7660   84.7193 C   0  0  0  0  0  0  0  0  0  0  0  0
   -3.1815    3.9833   85.7224 C   0  0  0  0  0  0  0  0  0  0  0  0
   -1.7494    2.1311   85.1204 C   0  0  0  0  0  0  0  0  0  0  0  0
   -1.2542    2.9518   84.1317 C   0  0  0  0  0  0  0  0  0  0  0  0
   -1.7277    4.2288   83.9370 C   0  0  0  0  0  0  0  0  0  0  0  0
   -2.7148    2.6988   85.9262 C   0  0  0  0  0  0  0  0  0  0  0  0
   -0.0393    3.8014   82.4303 C   0  0  0  0  0  0  0  0  0  0  0  0
   -0.2818    2.6108   83.1911 N   0  0  0  0  0  0  0  0  0  0  0  0
   -1.1210    4.8165   82.9203 O   0  0  0  0  0  0  0  0  0  0  0  0
   -2.6348    0.4045   87.4988 N   0  0  0  0  0  0  0  0  0  0  0  0
   -3.3809    2.6135   88.4403 O   0  0  0  0  0  0  0  0  0  0  0  0
   -4.8189    1.4659   86.7748 O   0  0  0  0  0  0  0  0  0  0  0  0
   -3.4788    1.7833   87.2512 S   0  0  0  0  0  0  0  0  0  0  0  0
   -2.6971   -0.1859   86.6694 H   0  0  0  0  0  0  0  0  0  0  0  0
   -3.0235   -0.0927   88.3001 H   0  0  0  0  0  0  0  0  0  0  0  0
    0.2480    4.1286   80.0927 C   0  0  0  0  0  0  0  0  0  0  0  0
    0.7432    4.0045   81.3145 N   0  0  0  0  0  0  0  0  0  0  0  0
   -0.9173    3.9627   79.8381 O   0  0  0  0  0  0  0  0  0  0  0  0
    1.7191    4.0601   81.4315 H   0  0  0  0  0  0  0  0  0  0  0  0
    3.4213    5.1832   77.5691 C   0  0  0  0  0  0  0  0  0  0  0  0
    3.6571    4.5238   78.7477 C   0  0  0  0  0  0  0  0  0  0  0  0
    2.1394    5.5252   77.1852 C   0  0  0  0  0  0  0  0  0  0  0  0
    2.5967    4.1891   79.5657 C   0  0  0  0  0  0  0  0  0  0  0  0
    1.0805    5.1976   77.9989 C   0  0  0  0  0  0  0  0  0  0  0  0
    1.3346    4.5280   79.1879 C   0  0  0  0  0  0  0  0  0  0  0  0
 20 22  2  0  0  0
 20 21  1  0  0  0
 22 24  1  0  0  0
 21 23  2  0  0  0
 24 25  2  0  0  0
 23 25  1  0  0  0
 25 16  1  0  0  0
 18 16  2  0  0  0
 16 17  1  0  0  0
 17  7  1  0  0  0
  7  9  1  0  0  0
  7  8  2  0  0  0
  9  5  1  0  0  0
  8  4  1  0  0  0
  5  4  2  0  0  0
  5  1  1  0  0  0
  4  3  1  0  0  0
  1  2  2  0  0  0
  3  6  2  0  0  0
  2  6  1  0  0  0
  6 13  1  0  0  0
 10 13  1  0  0  0
 12 13  2  0  0  0
 13 11  2  0  0  0
 10 14  1  0  0  0
 10 15  1  0  0  0
 17 19  1  0  0  0
M  END
> <minimizedAffinity>
-7.85329

$$$$
5TFX_7B1_A_303


 25 27  0  0  0  0  0  0  0  0999 V2000
   -0.9879    3.0918   82.1911 C   0  0  0  0  0  0  0  0  0  0  0  0
   -0.9761    2.3327   83.3216 C   0  0  0  0  0  0  0  0  0  0  0  0
   -2.0613    4.0564   84.6235 C   0  0  0  0  0  0  0  0  0  0  0  0
   -2.0872    4.7933   83.4605 C   0  0  0  0  0  0  0  0  0  0  0  0
   -1.5534    4.3205   82.2840 C   0  0  0  0  0  0  0  0  0  0  0  0
   -1.5076    2.7979   84.5092 C   0  0  0  0  0  0  0  0  0  0  0  0
   -2.4715    6.4018   81.9250 C   0  0  0  0  0  0  0  0  0  0  0  0
   -2.5874    6.0881   83.3191 N   0  0  0  0  0  0  0  0  0  0  0  0
   -1.6731    5.2074   81.3112 O   0  0  0  0  0  0  0  0  0  0  0  0
   -1.7322    0.1828   85.4332 N   0  0  0  0  0  0  0  0  0  0  0  0
    0.0078    1.7509   86.3475 O   0  0  0  0  0  0  0  0  0  0  0  0
   -2.3837    2.1751   86.8570 O   0  0  0  0  0  0  0  0  0  0  0  0
   -1.3784    1.7059   85.9122 S   0  0  0  0  0  0  0  0  0  0  0  0
   -2.7037    0.1402   85.1254 H   0  0  0  0  0  0  0  0  0  0  0  0
   -1.5943   -0.4597   86.2134 H   0  0  0  0  0  0  0  0  0  0  0  0
   -3.5169    7.6592   80.1988 C   0  0  0  0  0  0  0  0  0  0  0  0
   -2.7168    7.5781   81.2508 N   0  0  0  0  0  0  0  0  0  0  0  0
   -4.0092    6.6935   79.6741 O   0  0  0  0  0  0  0  0  0  0  0  0
   -2.2752    8.3992   81.5669 H   0  0  0  0  0  0  0  0  0  0  0  0
   -4.1312   11.6698   79.1555 C   0  0  0  0  0  0  0  0  0  0  0  0
   -4.5835   10.6611   78.3446 C   0  0  0  0  0  0  0  0  0  0  0  0
   -3.4560   11.3956   80.3289 C   0  0  0  0  0  0  0  0  0  0  0  0
   -4.3669    9.3466   78.7062 C   0  0  0  0  0  0  0  0  0  0  0  0
   -3.2344   10.0878   80.6908 C   0  0  0  0  0  0  0  0  0  0  0  0
   -3.7001    9.0774   79.8609 C   0  0  0  0  0  0  0  0  0  0  0  0
 20 22  2  0  0  0
 20 21  1  0  0  0
 22 24  1  0  0  0
 21 23  2  0  0  0
 24 25  2  0  0  0
 23 25  1  0  0  0
 25 16  1  0  0  0
 18 16  2  0  0  0
 16 17  1  0  0  0
 17  7  1  0  0  0
  7  9  1  0  0  0
  7  8  2  0  0  0
  9  5  1  0  0  0
  8  4  1  0  0  0
  5  4  2  0  0  0
  5  1  1  0  0  0
  4  3  1  0  0  0
  1  2  2  0  0  0
  3  6  2  0  0  0
  2  6  1  0  0  0
  6 13  1  0  0  0
 10 13  1  0  0  0
 12 13  2  0  0  0
 13 11  2  0  0  0
 10 14  1  0  0  0
 10 15  1  0  0  0
 17 19  1  0  0  0
M  END
> <minimizedAffinity>
-7.75114

$$$$
5TFX_7B1_A_303


 25 27  0  0  0  0  0  0  0  0999 V2000
    2.9664    3.8538   81.1766 C   0  0  0  0  0  0  0  0  0  0  0  0
    3.1919    4.2479   79.8927 C   0  0  0  0  0  0  0  0  0  0  0  0
    0.8358    4.5751   79.4620 C   0  0  0  0  0  0  0  0  0  0  0  0
    0.6359    4.2011   80.7722 C   0  0  0  0  0  0  0  0  0  0  0  0
    1.6773    3.8417   81.5963 C   0  0  0  0  0  0  0  0  0  0  0  0
    2.1537    4.6092   79.0554 C   0  0  0  0  0  0  0  0  0  0  0  0
   -0.2983    3.7495   82.7761 C   0  0  0  0  0  0  0  0  0  0  0  0
   -0.5970    4.0854   81.4148 N   0  0  0  0  0  0  0  0  0  0  0  0
    1.2439    3.5010   82.7977 O   0  0  0  0  0  0  0  0  0  0  0  0
    3.6534    6.3123   77.4450 N   0  0  0  0  0  0  0  0  0  0  0  0
    3.2782    3.9068   76.8162 O   0  0  0  0  0  0  0  0  0  0  0  0
    1.3605    5.4809   76.7579 O   0  0  0  0  0  0  0  0  0  0  0  0
    2.6038    5.0594   77.3904 S   0  0  0  0  0  0  0  0  0  0  0  0
    3.1897    7.1271   77.8468 H   0  0  0  0  0  0  0  0  0  0  0  0
    3.9696    6.5324   76.5006 H   0  0  0  0  0  0  0  0  0  0  0  0
   -1.6240    2.2006   83.9998 C   0  0  0  0  0  0  0  0  0  0  0  0
   -1.1360    3.4182   83.8188 N   0  0  0  0  0  0  0  0  0  0  0  0
   -1.4681    1.3077   83.2070 O   0  0  0  0  0  0  0  0  0  0  0  0
   -1.3840    4.1218   84.4611 H   0  0  0  0  0  0  0  0  0  0  0  0
   -3.6550    2.1702   87.6638 C   0  0  0  0  0  0  0  0  0  0  0  0
   -3.8382    3.1964   86.7734 C   0  0  0  0  0  0  0  0  0  0  0  0
   -2.7940    1.1268   87.3850 C   0  0  0  0  0  0  0  0  0  0  0  0
   -3.1560    3.1879   85.5734 C   0  0  0  0  0  0  0  0  0  0  0  0
   -2.1093    1.1163   86.1927 C   0  0  0  0  0  0  0  0  0  0  0  0
   -2.3068    2.1609   85.3003 C   0  0  0  0  0  0  0  0  0  0  0  0
 20 22  2  0  0  0
 20 21  1  0  0  0
 22 24  1  0  0  0
 21 23  2  0  0  0
 24 25  2  0  0  0
 23 25  1  0  0  0
 25 16  1  0  0  0
 18 16  2  0  0  0
 16 17  1  0  0  0
 17  7  1  0  0  0
  7  9  1  0  0  0
  7  8  2  0  0  0
  9  5  1  0  0  0
  8  4  1  0  0  0
  5  4  2  0  0  0
  5  1  1  0  0  0
  4  3  1  0  0  0
  1  2  2  0  0  0
  3  6  2  0  0  0
  2  6  1  0  0  0
  6 13  1  0  0  0
 10 13  1  0  0  0
 12 13  2  0  0  0
 13 11  2  0  0  0
 10 14  1  0  0  0
 10 15  1  0  0  0
 17 19  1  0  0  0
M  END
> <minimizedAffinity>
-7.20419

$$$$
5TFX_7B1_A_303


 25 27  0  0  0  0  0  0  0  0999 V2000
   -0.7554    5.3537   79.4216 C   0  0  0  0  0  0  0  0  0  0  0  0
    0.3181    5.4600   78.5905 C   0  0  0  0  0  0  0  0  0  0  0  0
    1.6117    3.8741   79.8771 C   0  0  0  0  0  0  0  0  0  0  0  0
    0.5030    3.7624   80.6863 C   0  0  0  0  0  0  0  0  0  0  0  0
   -0.6407    4.4937   80.4635 C   0  0  0  0  0  0  0  0  0  0  0  0
    1.4727    4.7319   78.8056 C   0  0  0  0  0  0  0  0  0  0  0  0
   -0.9551    3.1186   82.2838 C   0  0  0  0  0  0  0  0  0  0  0  0
    0.3961    2.9686   81.8286 N   0  0  0  0  0  0  0  0  0  0  0  0
   -1.5604    4.2382   81.3779 O   0  0  0  0  0  0  0  0  0  0  0  0
    3.2151    3.5893   76.9612 N   0  0  0  0  0  0  0  0  0  0  0  0
    2.2922    5.9051   76.6321 O   0  0  0  0  0  0  0  0  0  0  0  0
    3.9136    5.5035   78.4675 O   0  0  0  0  0  0  0  0  0  0  0  0
    2.8068    5.0119   77.6570 S   0  0  0  0  0  0  0  0  0  0  0  0
    3.5777    2.9546   77.6725 H   0  0  0  0  0  0  0  0  0  0  0  0
    3.9308    3.7505   76.2525 H   0  0  0  0  0  0  0  0  0  0  0  0
   -1.1064    2.8563   84.6422 C   0  0  0  0  0  0  0  0  0  0  0  0
   -1.5723    2.6447   83.4209 N   0  0  0  0  0  0  0  0  0  0  0  0
   -0.0453    3.3839   84.8564 O   0  0  0  0  0  0  0  0  0  0  0  0
   -2.4010    2.1228   83.3203 H   0  0  0  0  0  0  0  0  0  0  0  0
   -4.0458    1.5892   87.3450 C   0  0  0  0  0  0  0  0  0  0  0  0
   -4.2247    2.7284   86.6036 C   0  0  0  0  0  0  0  0  0  0  0  0
   -2.8945    0.8347   87.2302 C   0  0  0  0  0  0  0  0  0  0  0  0
   -3.2415    3.1293   85.7216 C   0  0  0  0  0  0  0  0  0  0  0  0
   -1.9107    1.2326   86.3559 C   0  0  0  0  0  0  0  0  0  0  0  0
   -2.1070    2.3868   85.6104 C   0  0  0  0  0  0  0  0  0  0  0  0
 20 22  2  0  0  0
 20 21  1  0  0  0
 22 24  1  0  0  0
 21 23  2  0  0  0
 24 25  2  0  0  0
 23 25  1  0  0  0
 25 16  1  0  0  0
 18 16  2  0  0  0
 16 17  1  0  0  0
 17  7  1  0  0  0
  7  9  1  0  0  0
  7  8  2  0  0  0
  9  5  1  0  0  0
  8  4  1  0  0  0
  5  4  2  0  0  0
  5  1  1  0  0  0
  4  3  1  0  0  0
  1  2  2  0  0  0
  3  6  2  0  0  0
  2  6  1  0  0  0
  6 13  1  0  0  0
 10 13  1  0  0  0
 12 13  2  0  0  0
 13 11  2  0  0  0
 10 14  1  0  0  0
 10 15  1  0  0  0
 17 19  1  0  0  0
M  END
> <minimizedAffinity>
-7.19040

$$$$
5TFX_7B1_A_303


 25 27  0  0  0  0  0  0  0  0999 V2000
   -0.3484    2.5481   84.8893 C   0  0  0  0  0  0  0  0  0  0  0  0
   -1.1688    2.0418   85.8510 C   0  0  0  0  0  0  0  0  0  0  0  0
   -3.0353    3.3981   85.1294 C   0  0  0  0  0  0  0  0  0  0  0  0
   -2.1946    3.8736   84.1478 C   0  0  0  0  0  0  0  0  0  0  0  0
   -0.8858    3.4624   84.0447 C   0  0  0  0  0  0  0  0  0  0  0  0
   -2.4844    2.4487   85.9653 C   0  0  0  0  0  0  0  0  0  0  0  0
   -1.3576    4.9446   82.3465 C   0  0  0  0  0  0  0  0  0  0  0  0
   -2.5125    4.8360   83.1890 N   0  0  0  0  0  0  0  0  0  0  0  0
   -0.2690    4.0684   83.0449 O   0  0  0  0  0  0  0  0  0  0  0  0
   -2.7380    0.3004   87.7156 N   0  0  0  0  0  0  0  0  0  0  0  0
   -3.3117    2.6436   88.4249 O   0  0  0  0  0  0  0  0  0  0  0  0
   -4.7525    1.5023   86.7575 O   0  0  0  0  0  0  0  0  0  0  0  0
   -3.4194    1.7281   87.3009 S   0  0  0  0  0  0  0  0  0  0  0  0
   -2.8084   -0.3500   86.9330 H   0  0  0  0  0  0  0  0  0  0  0  0
   -3.2249   -0.0866   88.5241 H   0  0  0  0  0  0  0  0  0  0  0  0
   -1.0344    5.4376   80.0429 C   0  0  0  0  0  0  0  0  0  0  0  0
   -1.0854    5.8129   81.3118 N   0  0  0  0  0  0  0  0  0  0  0  0
   -1.1104    4.2868   79.6965 O   0  0  0  0  0  0  0  0  0  0  0  0
   -0.9206    6.7594   81.5266 H   0  0  0  0  0  0  0  0  0  0  0  0
   -0.8257    8.8431   77.6119 C   0  0  0  0  0  0  0  0  0  0  0  0
   -1.7445    7.8584   77.3554 C   0  0  0  0  0  0  0  0  0  0  0  0
    0.0589    8.7383   78.6676 C   0  0  0  0  0  0  0  0  0  0  0  0
   -1.7932    6.7431   78.1674 C   0  0  0  0  0  0  0  0  0  0  0  0
    0.0166    7.6272   79.4764 C   0  0  0  0  0  0  0  0  0  0  0  0
   -0.9204    6.6397   79.2057 C   0  0  0  0  0  0  0  0  0  0  0  0
 20 22  2  0  0  0
 20 21  1  0  0  0
 22 24  1  0  0  0
 21 23  2  0  0  0
 24 25  2  0  0  0
 23 25  1  0  0  0
 25 16  1  0  0  0
 18 16  2  0  0  0
 16 17  1  0  0  0
 17  7  1  0  0  0
  7  9  1  0  0  0
  7  8  2  0  0  0
  9  5  1  0  0  0
  8  4  1  0  0  0
  5  4  2  0  0  0
  5  1  1  0  0  0
  4  3  1  0  0  0
  1  2  2  0  0  0
  3  6  2  0  0  0
  2  6  1  0  0  0
  6 13  1  0  0  0
 10 13  1  0  0  0
 12 13  2  0  0  0
 13 11  2  0  0  0
 10 14  1  0  0  0
 10 15  1  0  0  0
 17 19  1  0  0  0
M  END
> <minimizedAffinity>
-6.88964

$$$$
5TFX_7B1_A_303


 25 27  0  0  0  0  0  0  0  0999 V2000
   -0.6148    3.2368   84.7689 C   0  0  0  0  0  0  0  0  0  0  0  0
   -1.2408    2.4524   85.6893 C   0  0  0  0  0  0  0  0  0  0  0  0
   -3.2871    3.7322   85.5521 C   0  0  0  0  0  0  0  0  0  0  0  0
   -2.6420    4.4931   84.6028 C   0  0  0  0  0  0  0  0  0  0  0  0
   -1.3385    4.2516   84.2352 C   0  0  0  0  0  0  0  0  0  0  0  0
   -2.5490    2.6866   86.0675 C   0  0  0  0  0  0  0  0  0  0  0  0
   -2.1680    6.0091   82.9998 C   0  0  0  0  0  0  0  0  0  0  0  0
   -3.1700    5.6020   83.9408 N   0  0  0  0  0  0  0  0  0  0  0  0
   -0.9261    5.1200   83.3280 O   0  0  0  0  0  0  0  0  0  0  0  0
   -3.4049    2.4430   88.7041 N   0  0  0  0  0  0  0  0  0  0  0  0
   -4.5229    1.1774   86.8410 O   0  0  0  0  0  0  0  0  0  0  0  0
   -2.2096    0.5630   87.4967 O   0  0  0  0  0  0  0  0  0  0  0  0
   -3.2156    1.6014   87.3147 S   0  0  0  0  0  0  0  0  0  0  0  0
   -2.4925    2.7455   89.0453 H   0  0  0  0  0  0  0  0  0  0  0  0
   -3.8496    1.8487   89.4037 H   0  0  0  0  0  0  0  0  0  0  0  0
   -1.0881    7.9331   82.1134 C   0  0  0  0  0  0  0  0  0  0  0  0
   -2.1193    7.1040   82.1647 N   0  0  0  0  0  0  0  0  0  0  0  0
   -0.1546    7.8654   82.8711 O   0  0  0  0  0  0  0  0  0  0  0  0
   -2.8895    7.2786   81.5769 H   0  0  0  0  0  0  0  0  0  0  0  0
   -1.5540   10.5210   78.8520 C   0  0  0  0  0  0  0  0  0  0  0  0
   -0.3391    9.9429   79.1156 C   0  0  0  0  0  0  0  0  0  0  0  0
   -2.6515   10.2758   79.6539 C   0  0  0  0  0  0  0  0  0  0  0  0
   -0.2074    9.0961   80.1978 C   0  0  0  0  0  0  0  0  0  0  0  0
   -2.5239    9.4362   80.7353 C   0  0  0  0  0  0  0  0  0  0  0  0
   -1.2883    8.8567   80.9882 C   0  0  0  0  0  0  0  0  0  0  0  0
 20 22  2  0  0  0
 20 21  1  0  0  0
 22 24  1  0  0  0
 21 23  2  0  0  0
 24 25  2  0  0  0
 23 25  1  0  0  0
 25 16  1  0  0  0
 18 16  2  0  0  0
 16 17  1  0  0  0
 17  7  1  0  0  0
  7  9  1  0  0  0
  7  8  2  0  0  0
  9  5  1  0  0  0
  8  4  1  0  0  0
  5  4  2  0  0  0
  5  1  1  0  0  0
  4  3  1  0  0  0
  1  2  2  0  0  0
  3  6  2  0  0  0
  2  6  1  0  0  0
  6 13  1  0  0  0
 10 13  1  0  0  0
 12 13  2  0  0  0
 13 11  2  0  0  0
 10 14  1  0  0  0
 10 15  1  0  0  0
 17 19  1  0  0  0
M  END
> <minimizedAffinity>
-6.82447

$$$$
5TFX_7B1_A_303


 25 27  0  0  0  0  0  0  0  0999 V2000
    2.0045    2.7905   80.8546 C   0  0  0  0  0  0  0  0  0  0  0  0
    1.2026    1.6900   80.8729 C   0  0  0  0  0  0  0  0  0  0  0  0
   -0.4288    2.7655   82.2961 C   0  0  0  0  0  0  0  0  0  0  0  0
    0.3848    3.8751   82.2387 C   0  0  0  0  0  0  0  0  0  0  0  0
    1.5720    3.8752   81.5435 C   0  0  0  0  0  0  0  0  0  0  0  0
    0.0091    1.6778   81.5691 C   0  0  0  0  0  0  0  0  0  0  0  0
    1.2276    5.9558   82.4687 C   0  0  0  0  0  0  0  0  0  0  0  0
    0.1645    5.0901   82.8879 N   0  0  0  0  0  0  0  0  0  0  0  0
    2.1906    5.0386   81.6489 O   0  0  0  0  0  0  0  0  0  0  0  0
   -2.1754    0.3151   80.5136 N   0  0  0  0  0  0  0  0  0  0  0  0
   -0.0092   -0.8629   81.0064 O   0  0  0  0  0  0  0  0  0  0  0  0
   -1.3901   -0.0390   82.8966 O   0  0  0  0  0  0  0  0  0  0  0  0
   -0.9084    0.1499   81.5344 S   0  0  0  0  0  0  0  0  0  0  0  0
   -2.8131    1.0242   80.8752 H   0  0  0  0  0  0  0  0  0  0  0  0
   -2.6665   -0.5754   80.4344 H   0  0  0  0  0  0  0  0  0  0  0  0
    0.7480    8.2684   82.7437 C   0  0  0  0  0  0  0  0  0  0  0  0
    1.5572    7.2291   82.8793 N   0  0  0  0  0  0  0  0  0  0  0  0
   -0.2978    8.2113   82.1493 O   0  0  0  0  0  0  0  0  0  0  0  0
    2.4383    7.3734   83.2941 H   0  0  0  0  0  0  0  0  0  0  0  0
    2.3326   11.6012   84.7266 C   0  0  0  0  0  0  0  0  0  0  0  0
    1.5922   11.7568   83.5833 C   0  0  0  0  0  0  0  0  0  0  0  0
    2.5841   10.3481   85.2505 C   0  0  0  0  0  0  0  0  0  0  0  0
    1.0826   10.6444   82.9443 C   0  0  0  0  0  0  0  0  0  0  0  0
    2.0820    9.2371   84.6150 C   0  0  0  0  0  0  0  0  0  0  0  0
    1.3324    9.4106   83.4598 C   0  0  0  0  0  0  0  0  0  0  0  0
 20 22  2  0  0  0
 20 21  1  0  0  0
 22 24  1  0  0  0
 21 23  2  0  0  0
 24 25  2  0  0  0
 23 25  1  0  0  0
 25 16  1  0  0  0
 18 16  2  0  0  0
 16 17  1  0  0  0
 17  7  1  0  0  0
  7  9  1  0  0  0
  7  8  2  0  0  0
  9  5  1  0  0  0
  8  4  1  0  0  0
  5  4  2  0  0  0
  5  1  1  0  0  0
  4  3  1  0  0  0
  1  2  2  0  0  0
  3  6  2  0  0  0
  2  6  1  0  0  0
  6 13  1  0  0  0
 10 13  1  0  0  0
 12 13  2  0  0  0
 13 11  2  0  0  0
 10 14  1  0  0  0
 10 15  1  0  0  0
 17 19  1  0  0  0
M  END
> <minimizedAffinity>
-6.81249

$$$$
5TFX_7B1_A_303


 25 27  0  0  0  0  0  0  0  0999 V2000
    1.0743    8.6798   84.0684 C   0  0  0  0  0  0  0  0  0  0  0  0
    1.3277    9.4886   83.0025 C   0  0  0  0  0  0  0  0  0  0  0  0
   -0.1988    8.2728   81.5758 C   0  0  0  0  0  0  0  0  0  0  0  0
   -0.4597    7.4868   82.6760 C   0  0  0  0  0  0  0  0  0  0  0  0
    0.1720    7.6853   83.8819 C   0  0  0  0  0  0  0  0  0  0  0  0
    0.7008    9.2975   81.7860 C   0  0  0  0  0  0  0  0  0  0  0  0
   -1.3265    5.9478   84.0806 C   0  0  0  0  0  0  0  0  0  0  0  0
   -1.3228    6.3914   82.7172 N   0  0  0  0  0  0  0  0  0  0  0  0
   -0.2199    6.7994   84.7813 O   0  0  0  0  0  0  0  0  0  0  0  0
    0.6639   11.9187   80.8526 N   0  0  0  0  0  0  0  0  0  0  0  0
    2.6217   10.4011   80.4207 O   0  0  0  0  0  0  0  0  0  0  0  0
    0.4610    9.9309   79.2942 O   0  0  0  0  0  0  0  0  0  0  0  0
    1.1691   10.4100   80.4743 S   0  0  0  0  0  0  0  0  0  0  0  0
   -0.3551   11.9359   80.8928 H   0  0  0  0  0  0  0  0  0  0  0  0
    0.9872   12.5739   80.1408 H   0  0  0  0  0  0  0  0  0  0  0  0
   -1.2737    3.7165   84.9004 C   0  0  0  0  0  0  0  0  0  0  0  0
   -1.9194    4.8474   84.6601 N   0  0  0  0  0  0  0  0  0  0  0  0
   -0.1453    3.5151   84.5311 O   0  0  0  0  0  0  0  0  0  0  0  0
   -2.8705    4.9047   84.9080 H   0  0  0  0  0  0  0  0  0  0  0  0
   -3.8616    1.2872   87.1258 C   0  0  0  0  0  0  0  0  0  0  0  0
   -4.2709    2.5172   86.6796 C   0  0  0  0  0  0  0  0  0  0  0  0
   -2.5888    0.8189   86.8641 C   0  0  0  0  0  0  0  0  0  0  0  0
   -3.4004    3.3026   85.9510 C   0  0  0  0  0  0  0  0  0  0  0  0
   -1.7170    1.5996   86.1423 C   0  0  0  0  0  0  0  0  0  0  0  0
   -2.1464    2.8415   85.6953 C   0  0  0  0  0  0  0  0  0  0  0  0
 20 22  2  0  0  0
 20 21  1  0  0  0
 22 24  1  0  0  0
 21 23  2  0  0  0
 24 25  2  0  0  0
 23 25  1  0  0  0
 25 16  1  0  0  0
 18 16  2  0  0  0
 16 17  1  0  0  0
 17  7  1  0  0  0
  7  9  1  0  0  0
  7  8  2  0  0  0
  9  5  1  0  0  0
  8  4  1  0  0  0
  5  4  2  0  0  0
  5  1  1  0  0  0
  4  3  1  0  0  0
  1  2  2  0  0  0
  3  6  2  0  0  0
  2  6  1  0  0  0
  6 13  1  0  0  0
 10 13  1  0  0  0
 12 13  2  0  0  0
 13 11  2  0  0  0
 10 14  1  0  0  0
 10 15  1  0  0  0
 17 19  1  0  0  0
M  END
> <minimizedAffinity>
-6.51993

$$$$
