3CCZ_5HI_A_876


 43 45  0  0  0  0  0  0  0  0999 V2000
   78.9106    8.5946   -5.2659 N   0  0  0  0  0  0  0  0  0  0  0  0
   77.5161   10.2103   -5.7700 N   0  0  0  0  0  0  0  0  0  0  0  0
   77.6181    8.9018   -5.4787 C   0  0  0  0  0  0  0  0  0  0  0  0
   78.7498   10.7343   -5.7478 C   0  0  0  0  0  0  0  0  0  0  0  0
   79.6498    9.7162   -5.4143 C   0  0  0  0  0  0  0  0  0  0  0  0
   74.6128    7.0232   -4.1811 C   0  0  0  0  0  0  0  0  0  0  0  0
   76.0639    7.2652   -6.5468 C   0  0  0  0  0  0  0  0  0  0  0  0
   74.9630    6.4162   -6.4902 C   0  0  0  0  0  0  0  0  0  0  0  0
   76.4352    7.9995   -5.4235 C   0  0  0  0  0  0  0  0  0  0  0  0
   74.2393    6.2941   -5.3074 C   0  0  0  0  0  0  0  0  0  0  0  0
   73.1787    5.4719   -5.2540 F   0  0  0  0  0  0  0  0  0  0  0  0
   75.7141    7.8742   -4.2385 C   0  0  0  0  0  0  0  0  0  0  0  0
   79.2638   12.9236   -5.0606 O   0  0  0  0  0  0  0  0  0  0  0  0
   79.0695   12.1731   -6.0008 C   0  0  0  0  0  0  0  0  0  0  0  0
   79.0802   12.5813   -7.2755 N   0  0  0  0  0  0  0  0  0  0  0  0
   78.9169   11.9002   -7.9673 H   0  0  0  0  0  0  0  0  0  0  0  0
   79.3144   13.9565   -7.7307 C   0  0  0  0  0  0  0  0  0  0  0  0
   80.9905   15.5531   -8.6088 C   0  0  0  0  0  0  0  0  0  0  0  0
   82.1966   15.8599   -9.2334 C   0  0  0  0  0  0  0  0  0  0  0  0
   81.4673   13.2003   -8.8145 C   0  0  0  0  0  0  0  0  0  0  0  0
   80.6212   14.2254   -8.3907 C   0  0  0  0  0  0  0  0  0  0  0  0
   82.6749   13.5102   -9.4401 C   0  0  0  0  0  0  0  0  0  0  0  0
   83.0427   14.8363   -9.6494 C   0  0  0  0  0  0  0  0  0  0  0  0
   78.1815   14.2697   -8.7116 C   0  0  0  0  0  0  0  0  0  0  0  0
   77.4436   15.4107   -8.3003 O   0  0  0  0  0  0  0  0  0  0  0  0
   77.0464   15.2429   -7.4314 H   0  0  0  0  0  0  0  0  0  0  0  0
   81.1314    9.7931   -5.2654 C   0  0  0  0  0  0  0  0  0  0  0  0
   81.5023   10.0601   -3.8068 C   0  0  0  0  0  0  0  0  0  0  0  0
   81.8127    8.5461   -5.8325 C   0  0  0  0  0  0  0  0  0  0  0  0
   79.4167    7.2617   -4.9149 C   0  0  0  0  0  0  0  0  0  0  0  0
   79.5131    7.1598   -3.3931 C   0  0  0  0  0  0  0  0  0  0  0  0
   78.6293    6.0563   -2.8159 C   0  0  0  0  0  0  0  0  0  0  0  0
   79.3912    4.8713   -2.6567 O   0  0  0  0  0  0  0  0  0  0  0  0
   80.1250    5.0385   -2.0448 H   0  0  0  0  0  0  0  0  0  0  0  0
   78.0939    6.4659   -1.4454 C   0  0  0  0  0  0  0  0  0  0  0  0
   76.6971    5.9166   -1.1733 C   0  0  0  0  0  0  0  0  0  0  0  0
   76.7636    4.5192   -0.9478 O   0  0  0  0  0  0  0  0  0  0  0  0
   77.3282    4.3422   -0.1792 H   0  0  0  0  0  0  0  0  0  0  0  0
   76.1110    6.6034    0.0552 C   0  0  0  0  0  0  0  0  0  0  0  0
   76.1122    5.6624    1.2360 C   0  0  0  0  0  0  0  0  0  0  0  0
   77.1889    5.4661    1.8372 O   0  0  0  0  0  0  0  0  0  0  0  0
   75.0359    5.1163    1.5683 O   0  0  0  0  0  0  0  0  0  0  0  0
   77.9702    5.8975    1.5519 H   0  0  0  0  0  0  0  0  0  0  0  0
  5  1  1  0  0  0
  3  1  1  0  0  0
  1 30  1  0  0  0
  4  2  1  0  0  0
  2  3  2  0  0  0
  3  9  1  0  0  0
 29 27  1  0  0  0
  5 27  1  0  0  0
 27 28  1  0  0  0
 31 30  1  0  0  0
 31 32  1  0  0  0
 36 35  1  0  0  0
 35 32  1  0  0  0
 10  6  2  0  0  0
 12  6  1  0  0  0
 18 19  2  0  0  0
 18 21  1  0  0  0
 19 23  1  0  0  0
  7  8  2  0  0  0
  7  9  1  0  0  0
  8 10  1  0  0  0
 21 20  2  0  0  0
 20 22  1  0  0  0
 13 14  2  0  0  0
 14 15  1  0  0  0
 14  4  1  0  0  0
 17 15  1  0  0  0
 17 24  1  0  0  0
 17 21  1  0  0  0
 24 25  1  0  0  0
 23 22  2  0  0  0
  4  5  2  0  0  0
  9 12  2  0  0  0
 10 11  1  0  0  0
 32 33  1  0  0  0
 39 36  1  0  0  0
 36 37  1  0  0  0
 40 39  1  0  0  0
 42 40  2  0  0  0
 41 40  1  0  0  0
 15 16  1  0  0  0
 25 26  1  0  0  0
 33 34  1  0  0  0
 37 38  1  0  0  0
 41 43  1  0  0  0
M  END
> <minimizedAffinity>
-9.13443

$$$$
3CCZ_5HI_A_876


 43 45  0  0  0  0  0  0  0  0999 V2000
   78.1988    5.9936   -4.9930 N   0  0  0  0  0  0  0  0  0  0  0  0
   76.7637    4.4525   -5.6048 N   0  0  0  0  0  0  0  0  0  0  0  0
   78.0410    4.6835   -5.2552 C   0  0  0  0  0  0  0  0  0  0  0  0
   76.1095    5.6221   -5.5702 C   0  0  0  0  0  0  0  0  0  0  0  0
   77.0110    6.6139   -5.1683 C   0  0  0  0  0  0  0  0  0  0  0  0
   80.1513    1.8268   -3.9779 C   0  0  0  0  0  0  0  0  0  0  0  0
   79.9038    3.3745   -6.2809 C   0  0  0  0  0  0  0  0  0  0  0  0
   80.8631    2.3688   -6.2190 C   0  0  0  0  0  0  0  0  0  0  0  0
   79.0624    3.6019   -5.1949 C   0  0  0  0  0  0  0  0  0  0  0  0
   80.9878    1.5968   -5.0673 C   0  0  0  0  0  0  0  0  0  0  0  0
   81.9164    0.6283   -5.0085 F   0  0  0  0  0  0  0  0  0  0  0  0
   79.1899    2.8329   -4.0407 C   0  0  0  0  0  0  0  0  0  0  0  0
   73.8212    5.2676   -5.1612 O   0  0  0  0  0  0  0  0  0  0  0  0
   74.6559    5.7953   -5.8754 C   0  0  0  0  0  0  0  0  0  0  0  0
   74.3411    6.4989   -6.9696 N   0  0  0  0  0  0  0  0  0  0  0  0
   75.0849    6.8916   -7.4812 H   0  0  0  0  0  0  0  0  0  0  0  0
   72.9830    6.7354   -7.4724 C   0  0  0  0  0  0  0  0  0  0  0  0
   71.3306    8.4965   -8.0179 C   0  0  0  0  0  0  0  0  0  0  0  0
   70.7673    9.7585   -7.8469 C   0  0  0  0  0  0  0  0  0  0  0  0
   72.9378    8.9646   -6.2849 C   0  0  0  0  0  0  0  0  0  0  0  0
   72.4127    8.0900   -7.2367 C   0  0  0  0  0  0  0  0  0  0  0  0
   72.3718   10.2282   -6.1156 C   0  0  0  0  0  0  0  0  0  0  0  0
   71.2877   10.6270   -6.8923 C   0  0  0  0  0  0  0  0  0  0  0  0
   73.0440    6.4704   -8.9790 C   0  0  0  0  0  0  0  0  0  0  0  0
   74.3671    6.6099   -9.4742 O   0  0  0  0  0  0  0  0  0  0  0  0
   74.6766    7.5160   -9.3191 H   0  0  0  0  0  0  0  0  0  0  0  0
   76.7694    8.0733   -4.9810 C   0  0  0  0  0  0  0  0  0  0  0  0
   76.6544    8.7678   -6.3378 C   0  0  0  0  0  0  0  0  0  0  0  0
   75.5586    8.3255   -4.0805 C   0  0  0  0  0  0  0  0  0  0  0  0
   79.4547    6.6268   -4.5712 C   0  0  0  0  0  0  0  0  0  0  0  0
   79.3274    7.0377   -3.1047 C   0  0  0  0  0  0  0  0  0  0  0  0
   79.1513    5.8446   -2.1681 C   0  0  0  0  0  0  0  0  0  0  0  0
   80.4232    5.3479   -1.7864 O   0  0  0  0  0  0  0  0  0  0  0  0
   80.9152    6.0426   -1.3213 H   0  0  0  0  0  0  0  0  0  0  0  0
   78.4057    6.2665   -0.9036 C   0  0  0  0  0  0  0  0  0  0  0  0
   76.9123    5.9638   -0.9748 C   0  0  0  0  0  0  0  0  0  0  0  0
   76.7007    4.5636   -0.9235 O   0  0  0  0  0  0  0  0  0  0  0  0
   77.0550    4.2133   -0.0912 H   0  0  0  0  0  0  0  0  0  0  0  0
   76.2021    6.6296    0.1985 C   0  0  0  0  0  0  0  0  0  0  0  0
   76.0868    5.6697    1.3583 C   0  0  0  0  0  0  0  0  0  0  0  0
   77.1102    5.4264    2.0313 O   0  0  0  0  0  0  0  0  0  0  0  0
   74.9717    5.1556    1.6023 O   0  0  0  0  0  0  0  0  0  0  0  0
   77.9239    5.8353    1.8109 H   0  0  0  0  0  0  0  0  0  0  0  0
  5  1  1  0  0  0
  3  1  1  0  0  0
  1 30  1  0  0  0
  4  2  1  0  0  0
  2  3  2  0  0  0
  3  9  1  0  0  0
 29 27  1  0  0  0
  5 27  1  0  0  0
 27 28  1  0  0  0
 31 30  1  0  0  0
 31 32  1  0  0  0
 36 35  1  0  0  0
 35 32  1  0  0  0
 10  6  2  0  0  0
 12  6  1  0  0  0
 18 19  2  0  0  0
 18 21  1  0  0  0
 19 23  1  0  0  0
  7  8  2  0  0  0
  7  9  1  0  0  0
  8 10  1  0  0  0
 21 20  2  0  0  0
 20 22  1  0  0  0
 13 14  2  0  0  0
 14 15  1  0  0  0
 14  4  1  0  0  0
 17 15  1  0  0  0
 17 24  1  0  0  0
 17 21  1  0  0  0
 24 25  1  0  0  0
 23 22  2  0  0  0
  4  5  2  0  0  0
  9 12  2  0  0  0
 10 11  1  0  0  0
 32 33  1  0  0  0
 39 36  1  0  0  0
 36 37  1  0  0  0
 40 39  1  0  0  0
 42 40  2  0  0  0
 41 40  1  0  0  0
 15 16  1  0  0  0
 25 26  1  0  0  0
 33 34  1  0  0  0
 37 38  1  0  0  0
 41 43  1  0  0  0
M  END
> <minimizedAffinity>
-8.88844

$$$$
3CCZ_5HI_A_876


 43 45  0  0  0  0  0  0  0  0999 V2000
   78.6000    8.6642   -4.9421 N   0  0  0  0  0  0  0  0  0  0  0  0
   77.5647    9.4413   -6.7122 N   0  0  0  0  0  0  0  0  0  0  0  0
   77.4681    8.6018   -5.6667 C   0  0  0  0  0  0  0  0  0  0  0  0
   78.7654   10.0346   -6.6541 C   0  0  0  0  0  0  0  0  0  0  0  0
   79.4330    9.5574   -5.5208 C   0  0  0  0  0  0  0  0  0  0  0  0
   74.8269    5.9350   -6.0628 C   0  0  0  0  0  0  0  0  0  0  0  0
   75.4239    8.0452   -4.3451 C   0  0  0  0  0  0  0  0  0  0  0  0
   74.2925    7.2667   -4.1228 C   0  0  0  0  0  0  0  0  0  0  0  0
   76.2617    7.7646   -5.4213 C   0  0  0  0  0  0  0  0  0  0  0  0
   73.9934    6.2134   -4.9824 C   0  0  0  0  0  0  0  0  0  0  0  0
   72.8992    5.4648   -4.7677 F   0  0  0  0  0  0  0  0  0  0  0  0
   75.9604    6.7137   -6.2843 C   0  0  0  0  0  0  0  0  0  0  0  0
   79.9341   10.7083   -8.5802 O   0  0  0  0  0  0  0  0  0  0  0  0
   79.2592   11.0570   -7.6273 C   0  0  0  0  0  0  0  0  0  0  0  0
   78.9662   12.3373   -7.3694 N   0  0  0  0  0  0  0  0  0  0  0  0
   78.4103   12.5209   -6.5779 H   0  0  0  0  0  0  0  0  0  0  0  0
   79.4021   13.4909   -8.1647 C   0  0  0  0  0  0  0  0  0  0  0  0
   78.7425   15.2447   -9.7831 C   0  0  0  0  0  0  0  0  0  0  0  0
   77.8106   15.9007  -10.5831 C   0  0  0  0  0  0  0  0  0  0  0  0
   77.0414   13.7101   -9.0370 C   0  0  0  0  0  0  0  0  0  0  0  0
   78.3668   14.1447   -9.0113 C   0  0  0  0  0  0  0  0  0  0  0  0
   76.1097   14.3691   -9.8390 C   0  0  0  0  0  0  0  0  0  0  0  0
   76.4904   15.4616  -10.6130 C   0  0  0  0  0  0  0  0  0  0  0  0
   79.9463   14.5090   -7.1592 C   0  0  0  0  0  0  0  0  0  0  0  0
   79.2494   14.4379   -5.9245 O   0  0  0  0  0  0  0  0  0  0  0  0
   78.3114   14.6369   -6.0707 H   0  0  0  0  0  0  0  0  0  0  0  0
   80.7937    9.9090   -5.0227 C   0  0  0  0  0  0  0  0  0  0  0  0
   80.7240   10.3438   -3.5590 C   0  0  0  0  0  0  0  0  0  0  0  0
   81.7839    8.7664   -5.2562 C   0  0  0  0  0  0  0  0  0  0  0  0
   78.8649    7.8964   -3.7188 C   0  0  0  0  0  0  0  0  0  0  0  0
   79.0625    6.4285   -4.0952 C   0  0  0  0  0  0  0  0  0  0  0  0
   78.7496    5.4744   -2.9447 C   0  0  0  0  0  0  0  0  0  0  0  0
   79.9234    4.7675   -2.5806 O   0  0  0  0  0  0  0  0  0  0  0  0
   80.6030    5.3964   -2.2914 H   0  0  0  0  0  0  0  0  0  0  0  0
   78.2653    6.2541   -1.7239 C   0  0  0  0  0  0  0  0  0  0  0  0
   76.8535    5.8620   -1.2998 C   0  0  0  0  0  0  0  0  0  0  0  0
   76.7920    4.4670   -1.0586 O   0  0  0  0  0  0  0  0  0  0  0  0
   77.4114    4.2338   -0.3495 H   0  0  0  0  0  0  0  0  0  0  0  0
   76.4764    6.6157   -0.0293 C   0  0  0  0  0  0  0  0  0  0  0  0
   76.3530    5.6602    1.1333 C   0  0  0  0  0  0  0  0  0  0  0  0
   77.3908    5.3354    1.7471 O   0  0  0  0  0  0  0  0  0  0  0  0
   75.2173    5.2313    1.4387 O   0  0  0  0  0  0  0  0  0  0  0  0
   78.2199    5.6823    1.4821 H   0  0  0  0  0  0  0  0  0  0  0  0
  5  1  1  0  0  0
  3  1  1  0  0  0
  1 30  1  0  0  0
  4  2  1  0  0  0
  2  3  2  0  0  0
  3  9  1  0  0  0
 29 27  1  0  0  0
  5 27  1  0  0  0
 27 28  1  0  0  0
 31 30  1  0  0  0
 31 32  1  0  0  0
 36 35  1  0  0  0
 35 32  1  0  0  0
 10  6  2  0  0  0
 12  6  1  0  0  0
 18 19  2  0  0  0
 18 21  1  0  0  0
 19 23  1  0  0  0
  7  8  2  0  0  0
  7  9  1  0  0  0
  8 10  1  0  0  0
 21 20  2  0  0  0
 20 22  1  0  0  0
 13 14  2  0  0  0
 14 15  1  0  0  0
 14  4  1  0  0  0
 17 15  1  0  0  0
 17 24  1  0  0  0
 17 21  1  0  0  0
 24 25  1  0  0  0
 23 22  2  0  0  0
  4  5  2  0  0  0
  9 12  2  0  0  0
 10 11  1  0  0  0
 32 33  1  0  0  0
 39 36  1  0  0  0
 36 37  1  0  0  0
 40 39  1  0  0  0
 42 40  2  0  0  0
 41 40  1  0  0  0
 15 16  1  0  0  0
 25 26  1  0  0  0
 33 34  1  0  0  0
 37 38  1  0  0  0
 41 43  1  0  0  0
M  END
> <minimizedAffinity>
-8.39166

$$$$
3CCZ_5HI_A_876


 43 45  0  0  0  0  0  0  0  0999 V2000
   78.1101    8.5024   -5.4604 N   0  0  0  0  0  0  0  0  0  0  0  0
   76.9716   10.2507   -6.1358 N   0  0  0  0  0  0  0  0  0  0  0  0
   76.9030    8.9352   -5.8674 C   0  0  0  0  0  0  0  0  0  0  0  0
   78.2291   10.6531   -5.9038 C   0  0  0  0  0  0  0  0  0  0  0  0
   78.9650    9.5492   -5.4591 C   0  0  0  0  0  0  0  0  0  0  0  0
   73.5105    7.4389   -5.1629 C   0  0  0  0  0  0  0  0  0  0  0  0
   75.4494    7.3712   -7.1620 C   0  0  0  0  0  0  0  0  0  0  0  0
   74.2791    6.6321   -7.3033 C   0  0  0  0  0  0  0  0  0  0  0  0
   75.6476    8.1505   -6.0252 C   0  0  0  0  0  0  0  0  0  0  0  0
   73.3112    6.6647   -6.3033 C   0  0  0  0  0  0  0  0  0  0  0  0
   72.1835    5.9484   -6.4403 F   0  0  0  0  0  0  0  0  0  0  0  0
   74.6816    8.1798   -5.0224 C   0  0  0  0  0  0  0  0  0  0  0  0
   79.0423   12.7003   -5.0808 O   0  0  0  0  0  0  0  0  0  0  0  0
   78.7182   12.0572   -6.0639 C   0  0  0  0  0  0  0  0  0  0  0  0
   78.7307   12.5619   -7.3035 N   0  0  0  0  0  0  0  0  0  0  0  0
   78.4557   11.9638   -8.0355 H   0  0  0  0  0  0  0  0  0  0  0  0
   79.1191   13.9299   -7.6655 C   0  0  0  0  0  0  0  0  0  0  0  0
   80.9776   15.3927   -8.3975 C   0  0  0  0  0  0  0  0  0  0  0  0
   82.2285   15.6088   -8.9699 C   0  0  0  0  0  0  0  0  0  0  0  0
   81.2172   13.0195   -8.7380 C   0  0  0  0  0  0  0  0  0  0  0  0
   80.4674   14.1001   -8.2729 C   0  0  0  0  0  0  0  0  0  0  0  0
   82.4700   13.2386   -9.3111 C   0  0  0  0  0  0  0  0  0  0  0  0
   82.9783   14.5293   -9.4270 C   0  0  0  0  0  0  0  0  0  0  0  0
   78.0567   14.4171   -8.6543 C   0  0  0  0  0  0  0  0  0  0  0  0
   77.2926   15.4815   -8.1077 O   0  0  0  0  0  0  0  0  0  0  0  0
   76.8364   15.1749   -7.3086 H   0  0  0  0  0  0  0  0  0  0  0  0
   80.4040    9.4811   -5.0747 C   0  0  0  0  0  0  0  0  0  0  0  0
   81.2734   10.0927   -6.1731 C   0  0  0  0  0  0  0  0  0  0  0  0
   80.6441   10.1174   -3.7042 C   0  0  0  0  0  0  0  0  0  0  0  0
   78.4267    7.1229   -5.0694 C   0  0  0  0  0  0  0  0  0  0  0  0
   78.2582    6.9920   -3.5561 C   0  0  0  0  0  0  0  0  0  0  0  0
   77.2012    5.9619   -3.1645 C   0  0  0  0  0  0  0  0  0  0  0  0
   76.6980    5.3303   -4.3298 O   0  0  0  0  0  0  0  0  0  0  0  0
   77.4219    4.8780   -4.7906 H   0  0  0  0  0  0  0  0  0  0  0  0
   77.8122    4.8878   -2.2667 C   0  0  0  0  0  0  0  0  0  0  0  0
   79.0530    4.2469   -2.8802 C   0  0  0  0  0  0  0  0  0  0  0  0
   80.1630    4.4204   -2.0166 O   0  0  0  0  0  0  0  0  0  0  0  0
   79.9779    3.9979   -1.1633 H   0  0  0  0  0  0  0  0  0  0  0  0
   78.8029    2.7584   -3.0954 C   0  0  0  0  0  0  0  0  0  0  0  0
   80.0691    1.9712   -2.8564 C   0  0  0  0  0  0  0  0  0  0  0  0
   81.0737    2.2390   -3.5479 O   0  0  0  0  0  0  0  0  0  0  0  0
   80.0648    1.0823   -1.9750 O   0  0  0  0  0  0  0  0  0  0  0  0
   81.0297    2.9136   -4.1967 H   0  0  0  0  0  0  0  0  0  0  0  0
  5  1  1  0  0  0
  3  1  1  0  0  0
  1 30  1  0  0  0
  4  2  1  0  0  0
  2  3  2  0  0  0
  3  9  1  0  0  0
 29 27  1  0  0  0
  5 27  1  0  0  0
 27 28  1  0  0  0
 31 30  1  0  0  0
 31 32  1  0  0  0
 36 35  1  0  0  0
 35 32  1  0  0  0
 10  6  2  0  0  0
 12  6  1  0  0  0
 18 19  2  0  0  0
 18 21  1  0  0  0
 19 23  1  0  0  0
  7  8  2  0  0  0
  7  9  1  0  0  0
  8 10  1  0  0  0
 21 20  2  0  0  0
 20 22  1  0  0  0
 13 14  2  0  0  0
 14 15  1  0  0  0
 14  4  1  0  0  0
 17 15  1  0  0  0
 17 24  1  0  0  0
 17 21  1  0  0  0
 24 25  1  0  0  0
 23 22  2  0  0  0
  4  5  2  0  0  0
  9 12  2  0  0  0
 10 11  1  0  0  0
 32 33  1  0  0  0
 39 36  1  0  0  0
 36 37  1  0  0  0
 40 39  1  0  0  0
 42 40  2  0  0  0
 41 40  1  0  0  0
 15 16  1  0  0  0
 25 26  1  0  0  0
 33 34  1  0  0  0
 37 38  1  0  0  0
 41 43  1  0  0  0
M  END
> <minimizedAffinity>
-8.17229

$$$$
3CCZ_5HI_A_876


 43 45  0  0  0  0  0  0  0  0999 V2000
   77.7008    7.8786   -6.1792 N   0  0  0  0  0  0  0  0  0  0  0  0
   77.1006    9.9662   -6.4802 N   0  0  0  0  0  0  0  0  0  0  0  0
   76.6623    8.6962   -6.4305 C   0  0  0  0  0  0  0  0  0  0  0  0
   78.4237    9.9537   -6.2654 C   0  0  0  0  0  0  0  0  0  0  0  0
   78.8192    8.6276   -6.0585 C   0  0  0  0  0  0  0  0  0  0  0  0
   72.9606    8.2709   -5.8294 C   0  0  0  0  0  0  0  0  0  0  0  0
   74.8360    7.6935   -7.8068 C   0  0  0  0  0  0  0  0  0  0  0  0
   73.5010    7.3487   -7.9928 C   0  0  0  0  0  0  0  0  0  0  0  0
   75.2329    8.3342   -6.6359 C   0  0  0  0  0  0  0  0  0  0  0  0
   72.5644    7.6356   -7.0037 C   0  0  0  0  0  0  0  0  0  0  0  0
   71.2767    7.2993   -7.1841 F   0  0  0  0  0  0  0  0  0  0  0  0
   74.2970    8.6174   -5.6441 C   0  0  0  0  0  0  0  0  0  0  0  0
   79.7607   11.5400   -5.1584 O   0  0  0  0  0  0  0  0  0  0  0  0
   79.2917   11.1706   -6.2207 C   0  0  0  0  0  0  0  0  0  0  0  0
   79.4745   11.8329   -7.3695 N   0  0  0  0  0  0  0  0  0  0  0  0
   79.0594   11.4543   -8.1779 H   0  0  0  0  0  0  0  0  0  0  0  0
   80.2404   13.0745   -7.5277 C   0  0  0  0  0  0  0  0  0  0  0  0
   80.0293   13.5162   -9.9547 C   0  0  0  0  0  0  0  0  0  0  0  0
   80.5627   13.7245  -11.2240 C   0  0  0  0  0  0  0  0  0  0  0  0
   82.2489   13.2927   -9.0442 C   0  0  0  0  0  0  0  0  0  0  0  0
   80.8662   13.3051   -8.8585 C   0  0  0  0  0  0  0  0  0  0  0  0
   82.7807   13.5014  -10.3167 C   0  0  0  0  0  0  0  0  0  0  0  0
   81.9422   13.7187  -11.4064 C   0  0  0  0  0  0  0  0  0  0  0  0
   79.2587   14.2108   -7.2297 C   0  0  0  0  0  0  0  0  0  0  0  0
   79.3053   14.5875   -5.8617 O   0  0  0  0  0  0  0  0  0  0  0  0
   79.0589   13.8294   -5.3090 H   0  0  0  0  0  0  0  0  0  0  0  0
   80.1838    8.0934   -5.7836 C   0  0  0  0  0  0  0  0  0  0  0  0
   80.3613    7.8438   -4.2861 C   0  0  0  0  0  0  0  0  0  0  0  0
   80.4768    6.8536   -6.6309 C   0  0  0  0  0  0  0  0  0  0  0  0
   77.6149    6.4189   -6.0441 C   0  0  0  0  0  0  0  0  0  0  0  0
   77.7215    6.0571   -4.5631 C   0  0  0  0  0  0  0  0  0  0  0  0
   76.7071    6.8005   -3.6970 C   0  0  0  0  0  0  0  0  0  0  0  0
   75.4906    6.0733   -3.6593 O   0  0  0  0  0  0  0  0  0  0  0  0
   75.6496    5.1970   -3.2750 H   0  0  0  0  0  0  0  0  0  0  0  0
   77.2261    6.9350   -2.2668 C   0  0  0  0  0  0  0  0  0  0  0  0
   76.3744    6.1690   -1.2595 C   0  0  0  0  0  0  0  0  0  0  0  0
   76.7331    4.7981   -1.2678 O   0  0  0  0  0  0  0  0  0  0  0  0
   77.6679    4.7070   -1.0255 H   0  0  0  0  0  0  0  0  0  0  0  0
   76.5952    6.7448    0.1349 C   0  0  0  0  0  0  0  0  0  0  0  0
   76.2937    5.7057    1.1880 C   0  0  0  0  0  0  0  0  0  0  0  0
   77.1792    5.4360    2.0262 O   0  0  0  0  0  0  0  0  0  0  0  0
   75.1693    5.1553    1.1825 O   0  0  0  0  0  0  0  0  0  0  0  0
   78.0067    5.8741    1.9909 H   0  0  0  0  0  0  0  0  0  0  0  0
  5  1  1  0  0  0
  3  1  1  0  0  0
  1 30  1  0  0  0
  4  2  1  0  0  0
  2  3  2  0  0  0
  3  9  1  0  0  0
 29 27  1  0  0  0
  5 27  1  0  0  0
 27 28  1  0  0  0
 31 30  1  0  0  0
 31 32  1  0  0  0
 36 35  1  0  0  0
 35 32  1  0  0  0
 10  6  2  0  0  0
 12  6  1  0  0  0
 18 19  2  0  0  0
 18 21  1  0  0  0
 19 23  1  0  0  0
  7  8  2  0  0  0
  7  9  1  0  0  0
  8 10  1  0  0  0
 21 20  2  0  0  0
 20 22  1  0  0  0
 13 14  2  0  0  0
 14 15  1  0  0  0
 14  4  1  0  0  0
 17 15  1  0  0  0
 17 24  1  0  0  0
 17 21  1  0  0  0
 24 25  1  0  0  0
 23 22  2  0  0  0
  4  5  2  0  0  0
  9 12  2  0  0  0
 10 11  1  0  0  0
 32 33  1  0  0  0
 39 36  1  0  0  0
 36 37  1  0  0  0
 40 39  1  0  0  0
 42 40  2  0  0  0
 41 40  1  0  0  0
 15 16  1  0  0  0
 25 26  1  0  0  0
 33 34  1  0  0  0
 37 38  1  0  0  0
 41 43  1  0  0  0
M  END
> <minimizedAffinity>
-7.78937

$$$$
3CCZ_5HI_A_876


 43 45  0  0  0  0  0  0  0  0999 V2000
   78.0924    6.6229   -4.2165 N   0  0  0  0  0  0  0  0  0  0  0  0
   76.0736    5.9457   -3.6923 N   0  0  0  0  0  0  0  0  0  0  0  0
   77.2987    6.2158   -3.2093 C   0  0  0  0  0  0  0  0  0  0  0  0
   76.0916    6.1766   -5.0127 C   0  0  0  0  0  0  0  0  0  0  0  0
   77.3717    6.6224   -5.3598 C   0  0  0  0  0  0  0  0  0  0  0  0
   79.2243    5.4297   -0.0598 C   0  0  0  0  0  0  0  0  0  0  0  0
   76.7032    6.3640   -0.7888 C   0  0  0  0  0  0  0  0  0  0  0  0
   77.0251    6.2092    0.5558 C   0  0  0  0  0  0  0  0  0  0  0  0
   77.6437    6.0595   -1.7694 C   0  0  0  0  0  0  0  0  0  0  0  0
   78.2844    5.7405    0.9197 C   0  0  0  0  0  0  0  0  0  0  0  0
   78.5922    5.5891    2.2182 F   0  0  0  0  0  0  0  0  0  0  0  0
   78.9022    5.5862   -1.4059 C   0  0  0  0  0  0  0  0  0  0  0  0
   74.6499    4.9152   -6.3765 O   0  0  0  0  0  0  0  0  0  0  0  0
   74.9160    6.0145   -5.9226 C   0  0  0  0  0  0  0  0  0  0  0  0
   74.2288    7.1196   -6.2355 N   0  0  0  0  0  0  0  0  0  0  0  0
   74.5161    7.9621   -5.8149 H   0  0  0  0  0  0  0  0  0  0  0  0
   73.0841    7.1837   -7.1513 C   0  0  0  0  0  0  0  0  0  0  0  0
   71.4755    8.7588   -8.1817 C   0  0  0  0  0  0  0  0  0  0  0  0
   70.6691    9.8937   -8.1576 C   0  0  0  0  0  0  0  0  0  0  0  0
   72.1793    9.1947   -5.9190 C   0  0  0  0  0  0  0  0  0  0  0  0
   72.2295    8.3994   -7.0641 C   0  0  0  0  0  0  0  0  0  0  0  0
   71.3708   10.3312   -5.8974 C   0  0  0  0  0  0  0  0  0  0  0  0
   70.6147   10.6821   -7.0122 C   0  0  0  0  0  0  0  0  0  0  0  0
   73.6718    7.0820   -8.5613 C   0  0  0  0  0  0  0  0  0  0  0  0
   73.3467    5.8402   -9.1675 O   0  0  0  0  0  0  0  0  0  0  0  0
   73.7160    5.1157   -8.6386 H   0  0  0  0  0  0  0  0  0  0  0  0
   77.8933    7.0063   -6.7028 C   0  0  0  0  0  0  0  0  0  0  0  0
   77.5965    5.9040   -7.7193 C   0  0  0  0  0  0  0  0  0  0  0  0
   77.3600    8.3730   -7.1366 C   0  0  0  0  0  0  0  0  0  0  0  0
   79.5005    7.0155   -4.0784 C   0  0  0  0  0  0  0  0  0  0  0  0
   79.5603    8.4800   -3.6460 C   0  0  0  0  0  0  0  0  0  0  0  0
   80.9894    8.9863   -3.4638 C   0  0  0  0  0  0  0  0  0  0  0  0
   81.8986    8.0585   -4.0318 O   0  0  0  0  0  0  0  0  0  0  0  0
   81.7163    7.9664   -4.9801 H   0  0  0  0  0  0  0  0  0  0  0  0
   81.1730   10.3272   -4.1717 C   0  0  0  0  0  0  0  0  0  0  0  0
   79.9464   10.7358   -4.9811 C   0  0  0  0  0  0  0  0  0  0  0  0
   79.5128   12.0248   -4.5828 O   0  0  0  0  0  0  0  0  0  0  0  0
   80.2227   12.6672   -4.7385 H   0  0  0  0  0  0  0  0  0  0  0  0
   80.2986   10.7527   -6.4644 C   0  0  0  0  0  0  0  0  0  0  0  0
   79.6404   11.9266   -7.1491 C   0  0  0  0  0  0  0  0  0  0  0  0
   80.3152   12.9611   -7.3326 O   0  0  0  0  0  0  0  0  0  0  0  0
   78.4459   11.8187   -7.5076 O   0  0  0  0  0  0  0  0  0  0  0  0
   81.2068   12.9958   -7.0468 H   0  0  0  0  0  0  0  0  0  0  0  0
  5  1  1  0  0  0
  3  1  1  0  0  0
  1 30  1  0  0  0
  4  2  1  0  0  0
  2  3  2  0  0  0
  3  9  1  0  0  0
 29 27  1  0  0  0
  5 27  1  0  0  0
 27 28  1  0  0  0
 31 30  1  0  0  0
 31 32  1  0  0  0
 36 35  1  0  0  0
 35 32  1  0  0  0
 10  6  2  0  0  0
 12  6  1  0  0  0
 18 19  2  0  0  0
 18 21  1  0  0  0
 19 23  1  0  0  0
  7  8  2  0  0  0
  7  9  1  0  0  0
  8 10  1  0  0  0
 21 20  2  0  0  0
 20 22  1  0  0  0
 13 14  2  0  0  0
 14 15  1  0  0  0
 14  4  1  0  0  0
 17 15  1  0  0  0
 17 24  1  0  0  0
 17 21  1  0  0  0
 24 25  1  0  0  0
 23 22  2  0  0  0
  4  5  2  0  0  0
  9 12  2  0  0  0
 10 11  1  0  0  0
 32 33  1  0  0  0
 39 36  1  0  0  0
 36 37  1  0  0  0
 40 39  1  0  0  0
 42 40  2  0  0  0
 41 40  1  0  0  0
 15 16  1  0  0  0
 25 26  1  0  0  0
 33 34  1  0  0  0
 37 38  1  0  0  0
 41 43  1  0  0  0
M  END
> <minimizedAffinity>
-7.52519

$$$$
3CCZ_5HI_A_876


 43 45  0  0  0  0  0  0  0  0999 V2000
   77.8191    7.4145   -6.3960 N   0  0  0  0  0  0  0  0  0  0  0  0
   77.7895    9.4381   -7.2406 N   0  0  0  0  0  0  0  0  0  0  0  0
   78.4411    8.6074   -6.4083 C   0  0  0  0  0  0  0  0  0  0  0  0
   76.7461    8.7712   -7.7541 C   0  0  0  0  0  0  0  0  0  0  0  0
   76.7598    7.4726   -7.2333 C   0  0  0  0  0  0  0  0  0  0  0  0
   82.0197    8.8158   -5.2273 C   0  0  0  0  0  0  0  0  0  0  0  0
   79.5556    9.9758   -4.6418 C   0  0  0  0  0  0  0  0  0  0  0  0
   80.6894   10.3555   -3.9303 C   0  0  0  0  0  0  0  0  0  0  0  0
   79.6543    9.0221   -5.6516 C   0  0  0  0  0  0  0  0  0  0  0  0
   81.9202    9.7742   -4.2219 C   0  0  0  0  0  0  0  0  0  0  0  0
   83.0129   10.1401   -3.5320 F   0  0  0  0  0  0  0  0  0  0  0  0
   80.8848    8.4369   -5.9405 C   0  0  0  0  0  0  0  0  0  0  0  0
   75.7859    8.9365   -9.8943 O   0  0  0  0  0  0  0  0  0  0  0  0
   75.7766    9.3357   -8.7429 C   0  0  0  0  0  0  0  0  0  0  0  0
   74.9611   10.3061   -8.3130 N   0  0  0  0  0  0  0  0  0  0  0  0
   75.0235   10.5583   -7.3633 H   0  0  0  0  0  0  0  0  0  0  0  0
   73.9821   11.0265   -9.1350 C   0  0  0  0  0  0  0  0  0  0  0  0
   71.9933   10.6769   -7.7025 C   0  0  0  0  0  0  0  0  0  0  0  0
   70.6684   10.3005   -7.4977 C   0  0  0  0  0  0  0  0  0  0  0  0
   71.7850   10.1808  -10.0511 C   0  0  0  0  0  0  0  0  0  0  0  0
   72.5573   10.6251   -8.9775 C   0  0  0  0  0  0  0  0  0  0  0  0
   70.4581    9.8042   -9.8433 C   0  0  0  0  0  0  0  0  0  0  0  0
   69.8972    9.8641   -8.5708 C   0  0  0  0  0  0  0  0  0  0  0  0
   74.1325   12.5041   -8.7636 C   0  0  0  0  0  0  0  0  0  0  0  0
   73.6056   13.3471   -9.7771 O   0  0  0  0  0  0  0  0  0  0  0  0
   74.0886   13.1981  -10.6050 H   0  0  0  0  0  0  0  0  0  0  0  0
   75.8107    6.3528   -7.4949 C   0  0  0  0  0  0  0  0  0  0  0  0
   74.3760    6.8009   -7.2171 C   0  0  0  0  0  0  0  0  0  0  0  0
   75.9934    5.7868   -8.9045 C   0  0  0  0  0  0  0  0  0  0  0  0
   78.2423    6.2477   -5.6116 C   0  0  0  0  0  0  0  0  0  0  0  0
   77.4700    6.2379   -4.2929 C   0  0  0  0  0  0  0  0  0  0  0  0
   78.3490    5.8895   -3.0938 C   0  0  0  0  0  0  0  0  0  0  0  0
   79.6890    6.2682   -3.3606 O   0  0  0  0  0  0  0  0  0  0  0  0
   79.7303    7.2253   -3.5130 H   0  0  0  0  0  0  0  0  0  0  0  0
   77.8789    6.6448   -1.8523 C   0  0  0  0  0  0  0  0  0  0  0  0
   76.6167    6.0430   -1.2427 C   0  0  0  0  0  0  0  0  0  0  0  0
   76.8057    4.6578   -1.0114 O   0  0  0  0  0  0  0  0  0  0  0  0
   77.5453    4.5306   -0.3968 H   0  0  0  0  0  0  0  0  0  0  0  0
   76.3060    6.7419    0.0762 C   0  0  0  0  0  0  0  0  0  0  0  0
   76.2286    5.7366    1.2000 C   0  0  0  0  0  0  0  0  0  0  0  0
   77.2695    5.4819    1.8411 O   0  0  0  0  0  0  0  0  0  0  0  0
   75.1260    5.1979    1.4475 O   0  0  0  0  0  0  0  0  0  0  0  0
   78.0729    5.9103    1.6195 H   0  0  0  0  0  0  0  0  0  0  0  0
  5  1  1  0  0  0
  3  1  1  0  0  0
  1 30  1  0  0  0
  4  2  1  0  0  0
  2  3  2  0  0  0
  3  9  1  0  0  0
 29 27  1  0  0  0
  5 27  1  0  0  0
 27 28  1  0  0  0
 31 30  1  0  0  0
 31 32  1  0  0  0
 36 35  1  0  0  0
 35 32  1  0  0  0
 10  6  2  0  0  0
 12  6  1  0  0  0
 18 19  2  0  0  0
 18 21  1  0  0  0
 19 23  1  0  0  0
  7  8  2  0  0  0
  7  9  1  0  0  0
  8 10  1  0  0  0
 21 20  2  0  0  0
 20 22  1  0  0  0
 13 14  2  0  0  0
 14 15  1  0  0  0
 14  4  1  0  0  0
 17 15  1  0  0  0
 17 24  1  0  0  0
 17 21  1  0  0  0
 24 25  1  0  0  0
 23 22  2  0  0  0
  4  5  2  0  0  0
  9 12  2  0  0  0
 10 11  1  0  0  0
 32 33  1  0  0  0
 39 36  1  0  0  0
 36 37  1  0  0  0
 40 39  1  0  0  0
 42 40  2  0  0  0
 41 40  1  0  0  0
 15 16  1  0  0  0
 25 26  1  0  0  0
 33 34  1  0  0  0
 37 38  1  0  0  0
 41 43  1  0  0  0
M  END
> <minimizedAffinity>
-7.48347

$$$$
3CCZ_5HI_A_876


 43 45  0  0  0  0  0  0  0  0999 V2000
   79.8943    8.0967   -4.9575 N   0  0  0  0  0  0  0  0  0  0  0  0
   78.8219    8.3900   -6.8477 N   0  0  0  0  0  0  0  0  0  0  0  0
   79.0316    7.5404   -5.8272 C   0  0  0  0  0  0  0  0  0  0  0  0
   79.5594    9.4877   -6.6277 C   0  0  0  0  0  0  0  0  0  0  0  0
   80.2401    9.3198   -5.4168 C   0  0  0  0  0  0  0  0  0  0  0  0
   78.5235    3.8005   -5.8183 C   0  0  0  0  0  0  0  0  0  0  0  0
   76.9971    6.1169   -5.5633 C   0  0  0  0  0  0  0  0  0  0  0  0
   76.3840    4.8696   -5.4980 C   0  0  0  0  0  0  0  0  0  0  0  0
   78.3743    6.2069   -5.7480 C   0  0  0  0  0  0  0  0  0  0  0  0
   77.1468    3.7124   -5.6274 C   0  0  0  0  0  0  0  0  0  0  0  0
   76.5526    2.5094   -5.5669 F   0  0  0  0  0  0  0  0  0  0  0  0
   79.1372    5.0494   -5.8821 C   0  0  0  0  0  0  0  0  0  0  0  0
   80.1161   10.6038   -8.6211 O   0  0  0  0  0  0  0  0  0  0  0  0
   79.5942   10.6850   -7.5229 C   0  0  0  0  0  0  0  0  0  0  0  0
   79.0793   11.8228   -7.0413 N   0  0  0  0  0  0  0  0  0  0  0  0
   78.6743   11.7891   -6.1446 H   0  0  0  0  0  0  0  0  0  0  0  0
   79.0665   13.1159   -7.7347 C   0  0  0  0  0  0  0  0  0  0  0  0
   77.5319   14.8726   -8.5648 C   0  0  0  0  0  0  0  0  0  0  0  0
   76.3427   15.2988   -9.1506 C   0  0  0  0  0  0  0  0  0  0  0  0
   76.8280   12.5778   -8.7742 C   0  0  0  0  0  0  0  0  0  0  0  0
   77.7844   13.5131   -8.3783 C   0  0  0  0  0  0  0  0  0  0  0  0
   75.6374   13.0073   -9.3607 C   0  0  0  0  0  0  0  0  0  0  0  0
   75.3927   14.3643   -9.5514 C   0  0  0  0  0  0  0  0  0  0  0  0
   79.4438   14.1588   -6.6793 C   0  0  0  0  0  0  0  0  0  0  0  0
   79.1425   13.7001   -5.3700 O   0  0  0  0  0  0  0  0  0  0  0  0
   78.1896   13.5345   -5.2967 H   0  0  0  0  0  0  0  0  0  0  0  0
   81.1840   10.2549   -4.7401 C   0  0  0  0  0  0  0  0  0  0  0  0
   80.5080   10.9060   -3.5336 C   0  0  0  0  0  0  0  0  0  0  0  0
   82.4964    9.5561   -4.3797 C   0  0  0  0  0  0  0  0  0  0  0  0
   80.3602    7.4736   -3.7122 C   0  0  0  0  0  0  0  0  0  0  0  0
   79.1430    7.0895   -2.8717 C   0  0  0  0  0  0  0  0  0  0  0  0
   79.1769    5.6344   -2.4100 C   0  0  0  0  0  0  0  0  0  0  0  0
   80.0288    5.5128   -1.2832 O   0  0  0  0  0  0  0  0  0  0  0  0
   79.6898    6.0640   -0.5606 H   0  0  0  0  0  0  0  0  0  0  0  0
   77.7792    5.1731   -2.0021 C   0  0  0  0  0  0  0  0  0  0  0  0
   76.9763    6.2724   -1.3139 C   0  0  0  0  0  0  0  0  0  0  0  0
   75.6036    6.1450   -1.6421 O   0  0  0  0  0  0  0  0  0  0  0  0
   75.2785    5.2815   -1.3429 H   0  0  0  0  0  0  0  0  0  0  0  0
   77.1514    6.1602    0.1965 C   0  0  0  0  0  0  0  0  0  0  0  0
   75.8104    6.2170    0.8882 C   0  0  0  0  0  0  0  0  0  0  0  0
   75.2283    5.1421    1.1432 O   0  0  0  0  0  0  0  0  0  0  0  0
   75.3339    7.3370    1.1807 O   0  0  0  0  0  0  0  0  0  0  0  0
   75.6242    4.3269    0.9050 H   0  0  0  0  0  0  0  0  0  0  0  0
  5  1  1  0  0  0
  3  1  1  0  0  0
  1 30  1  0  0  0
  4  2  1  0  0  0
  2  3  2  0  0  0
  3  9  1  0  0  0
 29 27  1  0  0  0
  5 27  1  0  0  0
 27 28  1  0  0  0
 31 30  1  0  0  0
 31 32  1  0  0  0
 36 35  1  0  0  0
 35 32  1  0  0  0
 10  6  2  0  0  0
 12  6  1  0  0  0
 18 19  2  0  0  0
 18 21  1  0  0  0
 19 23  1  0  0  0
  7  8  2  0  0  0
  7  9  1  0  0  0
  8 10  1  0  0  0
 21 20  2  0  0  0
 20 22  1  0  0  0
 13 14  2  0  0  0
 14 15  1  0  0  0
 14  4  1  0  0  0
 17 15  1  0  0  0
 17 24  1  0  0  0
 17 21  1  0  0  0
 24 25  1  0  0  0
 23 22  2  0  0  0
  4  5  2  0  0  0
  9 12  2  0  0  0
 10 11  1  0  0  0
 32 33  1  0  0  0
 39 36  1  0  0  0
 36 37  1  0  0  0
 40 39  1  0  0  0
 42 40  2  0  0  0
 41 40  1  0  0  0
 15 16  1  0  0  0
 25 26  1  0  0  0
 33 34  1  0  0  0
 37 38  1  0  0  0
 41 43  1  0  0  0
M  END
> <minimizedAffinity>
-7.37925

$$$$
3CCZ_5HI_A_876


 43 45  0  0  0  0  0  0  0  0999 V2000
   78.1638    6.2758   -3.7973 N   0  0  0  0  0  0  0  0  0  0  0  0
   76.0245    6.3165   -4.2778 N   0  0  0  0  0  0  0  0  0  0  0  0
   76.9240    6.3417   -3.2790 C   0  0  0  0  0  0  0  0  0  0  0  0
   76.6962    6.2282   -5.4345 C   0  0  0  0  0  0  0  0  0  0  0  0
   78.0648    6.2144   -5.1438 C   0  0  0  0  0  0  0  0  0  0  0  0
   76.5854    5.5285    0.3910 C   0  0  0  0  0  0  0  0  0  0  0  0
   75.7038    7.4619   -1.4104 C   0  0  0  0  0  0  0  0  0  0  0  0
   75.3275    7.5348   -0.0729 C   0  0  0  0  0  0  0  0  0  0  0  0
   76.5272    6.4271   -1.8466 C   0  0  0  0  0  0  0  0  0  0  0  0
   75.7667    6.5675    0.8266 C   0  0  0  0  0  0  0  0  0  0  0  0
   75.4001    6.6382    2.1167 F   0  0  0  0  0  0  0  0  0  0  0  0
   76.9631    5.4565   -0.9478 C   0  0  0  0  0  0  0  0  0  0  0  0
   76.0967    5.1683   -7.4461 O   0  0  0  0  0  0  0  0  0  0  0  0
   76.0618    6.1935   -6.7883 C   0  0  0  0  0  0  0  0  0  0  0  0
   75.5165    7.3307   -7.2365 N   0  0  0  0  0  0  0  0  0  0  0  0
   75.5319    8.1064   -6.6305 H   0  0  0  0  0  0  0  0  0  0  0  0
   74.8978    7.5209   -8.5534 C   0  0  0  0  0  0  0  0  0  0  0  0
   72.6937    7.8854   -7.4861 C   0  0  0  0  0  0  0  0  0  0  0  0
   71.4085    8.4204   -7.4559 C   0  0  0  0  0  0  0  0  0  0  0  0
   73.0834    8.9084   -9.6325 C   0  0  0  0  0  0  0  0  0  0  0  0
   73.5394    8.1296   -8.5686 C   0  0  0  0  0  0  0  0  0  0  0  0
   71.7955    9.4431   -9.6000 C   0  0  0  0  0  0  0  0  0  0  0  0
   70.9576    9.2028   -8.5147 C   0  0  0  0  0  0  0  0  0  0  0  0
   75.8589    8.4157   -9.3404 C   0  0  0  0  0  0  0  0  0  0  0  0
   76.4672    9.3845   -8.4998 O   0  0  0  0  0  0  0  0  0  0  0  0
   75.7825    9.9521   -8.1125 H   0  0  0  0  0  0  0  0  0  0  0  0
   79.2174    6.1255   -6.0855 C   0  0  0  0  0  0  0  0  0  0  0  0
   79.4066    4.6828   -6.5538 C   0  0  0  0  0  0  0  0  0  0  0  0
   79.0649    7.1111   -7.2457 C   0  0  0  0  0  0  0  0  0  0  0  0
   79.4083    6.2871   -3.0182 C   0  0  0  0  0  0  0  0  0  0  0  0
   79.6380    7.7000   -2.4828 C   0  0  0  0  0  0  0  0  0  0  0  0
   80.6660    8.4823   -3.2970 C   0  0  0  0  0  0  0  0  0  0  0  0
   81.5915    7.5831   -3.8843 O   0  0  0  0  0  0  0  0  0  0  0  0
   81.1206    6.9742   -4.4746 H   0  0  0  0  0  0  0  0  0  0  0  0
   79.9776    9.2574   -4.4188 C   0  0  0  0  0  0  0  0  0  0  0  0
   80.8556   10.3665   -4.9897 C   0  0  0  0  0  0  0  0  0  0  0  0
   82.1837    9.8980   -5.1470 O   0  0  0  0  0  0  0  0  0  0  0  0
   82.1904    9.1438   -5.7570 H   0  0  0  0  0  0  0  0  0  0  0  0
   80.3062   10.8041   -6.3429 C   0  0  0  0  0  0  0  0  0  0  0  0
   79.0771   11.6619   -6.1604 C   0  0  0  0  0  0  0  0  0  0  0  0
   79.1397   12.6283   -5.3720 O   0  0  0  0  0  0  0  0  0  0  0  0
   78.0439   11.3738   -6.8058 O   0  0  0  0  0  0  0  0  0  0  0  0
   79.9355   12.8054   -4.9102 H   0  0  0  0  0  0  0  0  0  0  0  0
  5  1  1  0  0  0
  3  1  1  0  0  0
  1 30  1  0  0  0
  4  2  1  0  0  0
  2  3  2  0  0  0
  3  9  1  0  0  0
 29 27  1  0  0  0
  5 27  1  0  0  0
 27 28  1  0  0  0
 31 30  1  0  0  0
 31 32  1  0  0  0
 36 35  1  0  0  0
 35 32  1  0  0  0
 10  6  2  0  0  0
 12  6  1  0  0  0
 18 19  2  0  0  0
 18 21  1  0  0  0
 19 23  1  0  0  0
  7  8  2  0  0  0
  7  9  1  0  0  0
  8 10  1  0  0  0
 21 20  2  0  0  0
 20 22  1  0  0  0
 13 14  2  0  0  0
 14 15  1  0  0  0
 14  4  1  0  0  0
 17 15  1  0  0  0
 17 24  1  0  0  0
 17 21  1  0  0  0
 24 25  1  0  0  0
 23 22  2  0  0  0
  4  5  2  0  0  0
  9 12  2  0  0  0
 10 11  1  0  0  0
 32 33  1  0  0  0
 39 36  1  0  0  0
 36 37  1  0  0  0
 40 39  1  0  0  0
 42 40  2  0  0  0
 41 40  1  0  0  0
 15 16  1  0  0  0
 25 26  1  0  0  0
 33 34  1  0  0  0
 37 38  1  0  0  0
 41 43  1  0  0  0
M  END
> <minimizedAffinity>
-7.28306

$$$$
3CCZ_5HI_A_876


 43 45  0  0  0  0  0  0  0  0999 V2000
   78.5280    9.3773   -6.5565 N   0  0  0  0  0  0  0  0  0  0  0  0
   79.9074    9.9684   -4.9575 N   0  0  0  0  0  0  0  0  0  0  0  0
   79.3318   10.3586   -6.1081 C   0  0  0  0  0  0  0  0  0  0  0  0
   79.4715    8.7320   -4.6778 C   0  0  0  0  0  0  0  0  0  0  0  0
   78.5793    8.3463   -5.6842 C   0  0  0  0  0  0  0  0  0  0  0  0
   80.7354   13.0287   -8.3764 C   0  0  0  0  0  0  0  0  0  0  0  0
   78.9884   12.8295   -6.2157 C   0  0  0  0  0  0  0  0  0  0  0  0
   79.2455   14.0705   -6.7898 C   0  0  0  0  0  0  0  0  0  0  0  0
   79.5982   11.6865   -6.7263 C   0  0  0  0  0  0  0  0  0  0  0  0
   80.1200   14.1699   -7.8683 C   0  0  0  0  0  0  0  0  0  0  0  0
   80.3689   15.3692   -8.4192 F   0  0  0  0  0  0  0  0  0  0  0  0
   80.4767   11.7861   -7.8024 C   0  0  0  0  0  0  0  0  0  0  0  0
   81.0392    7.7442   -3.2300 O   0  0  0  0  0  0  0  0  0  0  0  0
   79.8608    7.9442   -3.4678 C   0  0  0  0  0  0  0  0  0  0  0  0
   78.8699    7.4486   -2.7168 N   0  0  0  0  0  0  0  0  0  0  0  0
   77.9487    7.6681   -2.9858 H   0  0  0  0  0  0  0  0  0  0  0  0
   79.0383    6.6064   -1.5270 C   0  0  0  0  0  0  0  0  0  0  0  0
   78.0076    5.7693    0.5627 C   0  0  0  0  0  0  0  0  0  0  0  0
   76.9329    5.6127    1.4342 C   0  0  0  0  0  0  0  0  0  0  0  0
   76.6168    7.0318   -0.9464 C   0  0  0  0  0  0  0  0  0  0  0  0
   77.8589    6.4825   -0.6272 C   0  0  0  0  0  0  0  0  0  0  0  0
   75.5418    6.8734   -0.0718 C   0  0  0  0  0  0  0  0  0  0  0  0
   75.6964    6.1671    1.1177 C   0  0  0  0  0  0  0  0  0  0  0  0
   79.4208    5.2190   -2.0490 C   0  0  0  0  0  0  0  0  0  0  0  0
   80.8082    4.9690   -1.8813 O   0  0  0  0  0  0  0  0  0  0  0  0
   81.3177    5.6256   -2.3814 H   0  0  0  0  0  0  0  0  0  0  0  0
   77.8318    7.0640   -5.8268 C   0  0  0  0  0  0  0  0  0  0  0  0
   78.8063    5.8873   -5.8738 C   0  0  0  0  0  0  0  0  0  0  0  0
   76.7719    6.9137   -4.7338 C   0  0  0  0  0  0  0  0  0  0  0  0
   77.7221    9.4377   -7.7825 C   0  0  0  0  0  0  0  0  0  0  0  0
   76.3409    9.9911   -7.4337 C   0  0  0  0  0  0  0  0  0  0  0  0
   75.2199    9.3370   -8.2383 C   0  0  0  0  0  0  0  0  0  0  0  0
   75.6414    9.1545   -9.5796 O   0  0  0  0  0  0  0  0  0  0  0  0
   76.4201    8.5764   -9.5981 H   0  0  0  0  0  0  0  0  0  0  0  0
   74.8771    7.9671   -7.6563 C   0  0  0  0  0  0  0  0  0  0  0  0
   73.3988    7.8325   -7.3049 C   0  0  0  0  0  0  0  0  0  0  0  0
   72.7933    6.8541   -8.1321 O   0  0  0  0  0  0  0  0  0  0  0  0
   73.2301    5.9991   -7.9944 H   0  0  0  0  0  0  0  0  0  0  0  0
   73.2590    7.4212   -5.8435 C   0  0  0  0  0  0  0  0  0  0  0  0
   73.3809    5.9228   -5.7037 C   0  0  0  0  0  0  0  0  0  0  0  0
   72.6384    5.3408   -4.8855 O   0  0  0  0  0  0  0  0  0  0  0  0
   74.2190    5.3208   -6.4125 O   0  0  0  0  0  0  0  0  0  0  0  0
   72.0255    5.8336   -4.3761 H   0  0  0  0  0  0  0  0  0  0  0  0
  5  1  1  0  0  0
  3  1  1  0  0  0
  1 30  1  0  0  0
  4  2  1  0  0  0
  2  3  2  0  0  0
  3  9  1  0  0  0
 29 27  1  0  0  0
  5 27  1  0  0  0
 27 28  1  0  0  0
 31 30  1  0  0  0
 31 32  1  0  0  0
 36 35  1  0  0  0
 35 32  1  0  0  0
 10  6  2  0  0  0
 12  6  1  0  0  0
 18 19  2  0  0  0
 18 21  1  0  0  0
 19 23  1  0  0  0
  7  8  2  0  0  0
  7  9  1  0  0  0
  8 10  1  0  0  0
 21 20  2  0  0  0
 20 22  1  0  0  0
 13 14  2  0  0  0
 14 15  1  0  0  0
 14  4  1  0  0  0
 17 15  1  0  0  0
 17 24  1  0  0  0
 17 21  1  0  0  0
 24 25  1  0  0  0
 23 22  2  0  0  0
  4  5  2  0  0  0
  9 12  2  0  0  0
 10 11  1  0  0  0
 32 33  1  0  0  0
 39 36  1  0  0  0
 36 37  1  0  0  0
 40 39  1  0  0  0
 42 40  2  0  0  0
 41 40  1  0  0  0
 15 16  1  0  0  0
 25 26  1  0  0  0
 33 34  1  0  0  0
 37 38  1  0  0  0
 41 43  1  0  0  0
M  END
> <minimizedAffinity>
-7.17967

$$$$
