4P6W_MOF_A_801


 36 40  0  0  0  0  0  0  0  0999 V2000
   28.0168  -56.8817  -41.7591 O   0  0  0  0  0  0  0  0  0  0  0  0
   27.5562  -55.8019  -41.3331 C   0  0  0  0  0  0  0  0  0  0  0  0
   28.3442  -54.6524  -41.3405 C   0  0  0  0  0  0  0  0  0  0  0  0
   26.3278  -55.8193  -40.7022 C   0  0  0  0  0  0  0  0  0  0  0  0
   25.7978  -54.6631  -40.1683 C   0  0  0  0  0  0  0  0  0  0  0  0
   24.4495  -54.7445  -39.4850 C   0  0  0  0  0  0  0  0  0  0  0  0
   26.5520  -53.3610  -40.1685 C   0  0  0  0  0  0  0  0  0  0  0  0
   27.8717  -53.4717  -40.7842 C   0  0  0  0  0  0  0  0  0  0  0  0
   25.7190  -52.4143  -41.0503 C   0  0  0  0  0  0  0  0  0  0  0  0
   26.7484  -53.0050  -38.6759 C   0  0  0  0  0  0  0  0  0  0  0  0
   27.6551  -54.3644  -37.8854 Cl  0  0  0  0  0  0  0  0  0  0  0  0
   27.6854  -51.8134  -38.3990 C   0  0  0  0  0  0  0  0  0  0  0  0
   27.4081  -50.6415  -39.1754 O   0  0  0  0  0  0  0  0  0  0  0  0
   25.3710  -52.9057  -37.9818 C   0  0  0  0  0  0  0  0  0  0  0  0
   24.5954  -54.2177  -38.0622 C   0  0  0  0  0  0  0  0  0  0  0  0
   25.5584  -52.5655  -36.5091 C   0  0  0  0  0  0  0  0  0  0  0  0
   24.3329  -52.4555  -35.6148 C   0  0  0  0  0  0  0  0  0  0  0  0
   24.8696  -51.6881  -34.4114 C   0  0  0  0  0  0  0  0  0  0  0  0
   24.4756  -52.5065  -33.1858 C   0  0  0  0  0  0  0  0  0  0  0  0
   26.3489  -51.2920  -36.2610 C   0  0  0  0  0  0  0  0  0  0  0  0
   27.7292  -51.4472  -36.9139 C   0  0  0  0  0  0  0  0  0  0  0  0
   25.6284  -50.0093  -36.7260 C   0  0  0  0  0  0  0  0  0  0  0  0
   26.3566  -51.3413  -34.7264 C   0  0  0  0  0  0  0  0  0  0  0  0
   26.5407  -50.2860  -38.9259 H   0  0  0  0  0  0  0  0  0  0  0  0
   26.8536  -50.0094  -34.1941 C   0  0  0  0  0  0  0  0  0  0  0  0
   26.0134  -49.2262  -33.5403 O   0  0  0  0  0  0  0  0  0  0  0  0
   28.2560  -49.4539  -34.3484 C   0  0  0  0  0  0  0  0  0  0  0  0
   28.3213  -47.6039  -34.2749 Cl  0  0  0  0  0  0  0  0  0  0  0  0
   27.2614  -52.4032  -34.3368 O   0  0  0  0  0  0  0  0  0  0  0  0
   27.9414  -52.6945  -33.0591 C   0  0  0  0  0  0  0  0  0  0  0  0
   27.5990  -52.2643  -31.9574 O   0  0  0  0  0  0  0  0  0  0  0  0
   29.1143  -53.5664  -33.0685 C   0  0  0  0  0  0  0  0  0  0  0  0
   30.3660  -53.4383  -33.5967 C   0  0  0  0  0  0  0  0  0  0  0  0
   30.9912  -54.6082  -33.2345 C   0  0  0  0  0  0  0  0  0  0  0  0
   30.1073  -55.3961  -32.5292 C   0  0  0  0  0  0  0  0  0  0  0  0
   28.9161  -54.7366  -32.4142 O   0  0  0  0  0  0  0  0  0  0  0  0
  1  2  2  0  0  0
  2  3  1  0  0  0
  2  4  1  0  0  0
  3  8  2  0  0  0
  4  5  2  0  0  0
  5  6  1  0  0  0
  5  7  1  0  0  0
  6 15  1  0  0  0
  7  8  1  0  0  0
  7  9  1  0  0  0
  7 10  1  0  0  0
 10 11  1  0  0  0
 10 12  1  0  0  0
 10 14  1  0  0  0
 12 13  1  0  0  0
 12 21  1  0  0  0
 14 15  1  0  0  0
 14 16  1  0  0  0
 16 17  1  0  0  0
 16 20  1  0  0  0
 17 18  1  0  0  0
 18 19  1  0  0  0
 18 23  1  0  0  0
 20 21  1  0  0  0
 20 22  1  0  0  0
 20 23  1  0  0  0
 23 25  1  0  0  0
 23 29  1  0  0  0
 25 26  2  0  0  0
 25 27  1  0  0  0
 27 28  1  0  0  0
 29 30  1  0  0  0
 30 31  2  0  0  0
 30 32  1  0  0  0
 32 33  2  0  0  0
 32 36  1  0  0  0
 33 34  1  0  0  0
 34 35  2  0  0  0
 35 36  1  0  0  0
 13 24  1  0  0  0
M  END
> <minimizedAffinity>
-12.92473

$$$$
