3NU9_478_A_401
  RCSB PDB12061709583D
Coordinates from PDB:3NU9:A:401 Model:1 without hydrogens
 35 37  0  0  0  0            999 V2000
   17.1050   25.3570   18.6600   C 0  0  0  0  0  0  0  0  0  0  0  0
   15.1580   24.5540   19.8520   C 0  0  0  0  0  0  0  0  0  0  0  0
   14.8220   22.7010   17.4170   C 0  0  0  0  0  0  0  0  0  0  0  0
   15.7230   24.7330   18.4450   C 0  0  0  0  0  0  0  0  0  0  0  0
   14.1860   20.5200   16.4720   C 0  0  0  0  0  0  0  0  0  0  0  0
   13.7730   19.4420   17.4770   C 0  0  0  0  0  0  0  0  0  0  0  0
   14.8270   19.9860   15.1780   C 0  0  0  0  0  0  0  0  0  0  0  0
   15.1930   21.1350   14.2640   C 0  0  0  0  0  0  0  0  0  0  0  0
   16.4970   21.6270   14.2470   C 0  0  0  0  0  0  0  0  0  0  0  0
   14.2200   21.7130   13.4400   C 0  0  0  0  0  0  0  0  0  0  0  0
   16.8420   22.6940   13.4160   C 0  0  0  0  0  0  0  0  0  0  0  0
   14.5450   22.7920   12.6110   C 0  0  0  0  0  0  0  0  0  0  0  0
   15.8570   23.2750   12.6040   C 0  0  0  0  0  0  0  0  0  0  0  0
   12.6420   18.5160   17.0120   C 0  0  0  0  0  0  0  0  0  0  0  0
   10.4250   19.1550   18.1220   C 0  0  0  0  0  0  0  0  0  0  0  0
   11.0040   19.7630   19.3990   C 0  0  0  0  0  0  0  0  0  0  0  0
    9.9340   18.1410   15.0860   C 0  0  0  0  0  0  0  0  0  0  0  0
   10.5890   17.1810   14.3070   C 0  0  0  0  0  0  0  0  0  0  0  0
    9.9470   16.0090   13.8900   C 0  0  0  0  0  0  0  0  0  0  0  0
    8.6350   15.7530   14.2700   C 0  0  0  0  0  0  0  0  0  0  0  0
    7.9550   16.7100   15.0280   C 0  0  0  0  0  0  0  0  0  0  0  0
    8.6080   17.8940   15.4350   C 0  0  0  0  0  0  0  0  0  0  0  0
   11.1940   21.2720   19.3110   C 0  0  0  0  0  0  0  0  0  0  0  0
    9.9950   19.4420   20.4900   C 0  0  0  0  0  0  0  0  0  0  0  0
   16.2990   24.9320   20.8000   C 0  0  0  0  0  0  0  0  0  0  0  0
   15.0990   21.4320   17.1390   N 0  0  0  0  0  0  0  0  0  0  0  0
   11.3000   19.1120   16.9590   N 0  0  0  0  0  0  0  0  0  0  0  0
    8.0050   14.6090   13.8580   N 0  0  0  0  0  0  0  0  0  0  0  0
   15.9820   23.4470   17.8920   O 0  0  0  0  0  0  0  0  0  0  0  0
   13.7190   23.2350   17.3230   O 0  0  0  0  0  0  0  0  0  0  0  0
   14.9210   18.6190   17.7610   O 0  0  0  0  0  0  0  0  0  0  0  0
   11.7900   19.7810   14.6570   O 0  0  0  0  0  0  0  0  0  0  0  0
    9.7180   20.5240   15.6980   O 0  0  0  0  0  0  0  0  0  0  0  0
   17.4780   24.9720   19.9860   O 0  0  0  0  0  0  0  0  0  0  0  0
   10.7060   19.4960   15.5710   S 0  0  0  0  0  0  0  0  0  0  0  0
  1  4  1  0  0  0  0
  1 34  1  0  0  0  0
  2  4  1  0  0  0  0
  2 25  1  0  0  0  0
  3 26  1  0  0  0  0
  3 29  1  0  0  0  0
  3 30  2  0  0  0  0
  4 29  1  0  0  0  0
  5  6  1  0  0  0  0
  5  7  1  0  0  0  0
  5 26  1  0  0  0  0
  6 14  1  0  0  0  0
  6 31  1  0  0  0  0
  7  8  1  0  0  0  0
  8  9  2  0  0  0  0
  8 10  1  0  0  0  0
  9 11  1  0  0  0  0
 10 12  2  0  0  0  0
 11 13  2  0  0  0  0
 12 13  1  0  0  0  0
 14 27  1  0  0  0  0
 15 16  1  0  0  0  0
 15 27  1  0  0  0  0
 16 23  1  0  0  0  0
 16 24  1  0  0  0  0
 17 18  2  0  0  0  0
 17 22  1  0  0  0  0
 17 35  1  0  0  0  0
 18 19  1  0  0  0  0
 19 20  2  0  0  0  0
 20 21  1  0  0  0  0
 20 28  1  0  0  0  0
 21 22  2  0  0  0  0
 25 34  1  0  0  0  0
 27 35  1  0  0  0  0
 32 35  2  0  0  0  0
 33 35  2  0  0  0  0
A    1
C1
A    2
C2
A    3
C3
A    4
C4
A    5
C5
A    6
C6
A    7
C7
A    8
C8
A    9
C9
A   10
C10
A   11
C11
A   12
C12
A   13
C13
A   14
C14
A   15
C15
A   16
C16
A   17
C17
A   18
C18
A   19
C19
A   20
C20
A   21
C21
A   22
C22
A   23
C23
A   24
C24
A   25
C25
A   26
N1
A   27
N2
A   28
N3
A   29
O1
A   30
O2
A   31
O3
A   32
O4
A   33
O5
A   34
O6
A   35
S1
M  END
>  <InstanceId>
3NU9_478_A_401

>  <ChemCompId>
478

>  <PdbId>
3NU9

>  <ChainId>
A

>  <ResidueNumber>
401

>  <InsertionCode>


>  <Model>
1

>  <AltIds>


>  <MissingHeavyAtoms>
0

>  <ObservedFormula>
C25 N3 O6 S

>  <Name>
{3-[(4-AMINO-BENZENESULFONYL)-ISOBUTYL-AMINO]-1-BENZYL-2-HYDROXY-PROPYL}-CARBAMIC ACID TETRAHYDRO-FURAN-3-YL ESTER

>  <SystematicName>
[(3S)-oxolan-3-yl] N-[(2S,3R)-4-[(4-aminophenyl)sulfonyl-(2-methylpropyl)amino]-3-hydroxy-1-phenyl-butan-2-yl]carbamate

>  <Synonyms>
Amprenavir

>  <Type>
NON-POLYMER

>  <Formula>
C25 H35 N3 O6 S

>  <MolecularWeight>
505.627

>  <ModifiedDate>
2011-06-04

>  <Parent>


>  <OneLetterCode>


>  <SubcomponentList>


>  <AmbiguousFlag>
N

>  <InChI>
InChI=1S/C25H35N3O6S/c1-18(2)15-28(35(31,32)22-10-8-20(26)9-11-22)16-24(29)23(14-19-6-4-3-5-7-19)27-25(30)34-21-12-13-33-17-21/h3-11,18,21,23-24,29H,12-17,26H2,1-2H3,(H,27,30)/t21-,23-,24+/m0/s1

>  <InChIKey>
YMARZQAQMVYCKC-OEMFJLHTSA-N

>  <SMILES>
CC(C)C[N@](C[C@H]([C@H](Cc1ccccc1)NC(=O)O[C@H]2CCOC2)O)S(=O)(=O)c3ccc(cc3)N

$$$$
