5TY9_7QV_A_302
  RCSB PDB12061719463D
Coordinates from PDB:5TY9:A:302 Model:1 without hydrogens
 17 18  0  0  0  0            999 V2000
   -3.0090    3.8860   14.7270   C 0  0  0  0  0  0  0  0  0  0  0  0
   -3.1010    5.1380   14.1500   C 0  0  0  0  0  0  0  0  0  0  0  0
   -5.4560    5.0770   14.4710   C 0  0  0  0  0  0  0  0  0  0  0  0
   -4.1170    3.2100   15.1760   C 0  0  0  0  0  0  0  0  0  0  0  0
   -4.3400    5.7420   14.0290   C 0  0  0  0  0  0  0  0  0  0  0  0
   -5.3620    3.8230   15.0250   C 0  0  0  0  0  0  0  0  0  0  0  0
   -4.6490    0.7730   14.9650   C 0  0  0  0  0  0  0  0  0  0  0  0
   -5.4920    0.7250   16.9590   C 0  0  0  0  0  0  0  0  0  0  0  0
   -3.9190    1.8230   15.7440   C 0  0  0  0  0  0  0  0  0  0  0  0
   -3.3840    7.5730   12.8350   C 0  0  0  0  0  0  0  0  0  0  0  0
   -7.0430    3.6090   16.6830   C 0  0  0  0  0  0  0  0  0  0  0  0
   -5.5290    0.1540   15.7720   N 0  0  0  0  0  0  0  0  0  0  0  0
   -4.4710    0.5680   13.7630   O 0  0  0  0  0  0  0  0  0  0  0  0
   -6.1270    0.5110   17.9570   O 0  0  0  0  0  0  0  0  0  0  0  0
   -4.4930    1.6430   17.0440   O 0  0  0  0  0  0  0  0  0  0  0  0
   -4.5670    7.0130   13.4750   O 0  0  0  0  0  0  0  0  0  0  0  0
   -6.4940    3.1100   15.4260   O 0  0  0  0  0  0  0  0  0  0  0  0
 10 16  1  0  0  0  0
 16  5  1  0  0  0  0
 13  7  2  0  0  0  0
  5  2  2  0  0  0  0
  5  3  1  0  0  0  0
  2  1  1  0  0  0  0
  3  6  2  0  0  0  0
  1  4  2  0  0  0  0
  7  9  1  0  0  0  0
  7 12  1  0  0  0  0
  6  4  1  0  0  0  0
  6 17  1  0  0  0  0
  4  9  1  0  0  0  0
 17 11  1  0  0  0  0
  9 15  1  0  0  0  0
 12  8  1  0  0  0  0
  8 15  1  0  0  0  0
  8 14  2  0  0  0  0
A    1
C17
A    2
C16
A    3
C12
A    4
C8
A    5
C13
A    6
C9
A    7
C2
A    8
C4
A    9
C7
A   10
C15
A   11
C11
A   12
N3
A   13
O1
A   14
O6
A   15
O5
A   16
O14
A   17
O10
M  END
>  <InstanceId>
5TY9_7QV_A_302

>  <ChemCompId>
7QV

>  <PdbId>
5TY9

>  <ChainId>
A

>  <ResidueNumber>
302

>  <InsertionCode>


>  <Model>
1

>  <AltIds>


>  <MissingHeavyAtoms>
0

>  <ObservedFormula>
C11 N O5

>  <Name>
(5R)-5-(2,4-dimethoxyphenyl)-1,3-oxazolidine-2,4-dione

>  <SystematicName>
(5~{R})-5-(2,4-dimethoxyphenyl)-1,3-oxazolidine-2,4-dione

>  <Synonyms>


>  <Type>
NON-POLYMER

>  <Formula>
C11 H11 N O5

>  <MolecularWeight>
237.209

>  <ModifiedDate>
2017-08-25

>  <Parent>


>  <OneLetterCode>


>  <SubcomponentList>


>  <AmbiguousFlag>
N

>  <InChI>
InChI=1S/C11H11NO5/c1-15-6-3-4-7(8(5-6)16-2)9-10(13)12-11(14)17-9/h3-5,9H,1-2H3,(H,12,13,14)/t9-/m1/s1

>  <InChIKey>
DYQPYOADVGRZGW-SECBINFHSA-N

>  <SMILES>
COc1ccc(c(c1)OC)[C@@H]2C(=O)NC(=O)O2

$$$$
