5WLO_GR7_B_201


 46 50  0  0  0  0  0  0  0  0999 V2000
   15.4197  -19.0256   -4.8876 C   0  0  0  0  0  0  0  0  0  0  0  0
   14.2586  -18.2798   -4.4673 O   0  0  0  0  0  0  0  0  0  0  0  0
   13.8627  -17.8382   -5.2349 H   0  0  0  0  0  0  0  0  0  0  0  0
   16.4749  -18.0713   -5.4567 C   0  0  0  0  0  0  0  0  0  0  0  0
   20.9264  -15.0909   -8.0549 C   0  0  0  0  0  0  0  0  0  0  0  0
   21.5866  -16.0111   -7.2522 C   0  0  0  0  0  0  0  0  0  0  0  0
   20.9523  -17.1913   -6.7969 C   0  0  0  0  0  0  0  0  0  0  0  0
   19.6412  -17.4768   -7.1360 C   0  0  0  0  0  0  0  0  0  0  0  0
   18.9991  -16.5380   -7.9437 C   0  0  0  0  0  0  0  0  0  0  0  0
   19.6128  -15.3875   -8.3896 C   0  0  0  0  0  0  0  0  0  0  0  0
   18.7235  -18.9070   -6.6432 S   0  0  0  0  0  0  0  0  0  0  0  0
   17.7452  -19.0931   -7.8272 O   0  0  0  0  0  0  0  0  0  0  0  0
   19.6739  -19.9910   -6.4210 O   0  0  0  0  0  0  0  0  0  0  0  0
   17.8018  -18.6346   -5.3584 N   0  0  0  0  0  0  0  0  0  0  0  0
   18.4389  -18.7213   -4.0820 C   0  0  0  0  0  0  0  0  0  0  0  0
   18.5958  -20.1428   -3.5639 C   0  0  0  0  0  0  0  0  0  0  0  0
   18.8555  -20.1095   -2.0811 C   0  0  0  0  0  0  0  0  0  0  0  0
   20.2821  -20.0082   -1.6887 C   0  0  0  0  0  0  0  0  0  0  0  0
   21.7584  -18.0156   -5.9944 C   0  0  0  0  0  0  0  0  0  0  0  0
   21.9592  -17.1968   -4.7781 O   0  0  0  0  0  0  0  0  0  0  0  0
   22.6381  -17.8071   -3.6693 C   0  0  0  0  0  0  0  0  0  0  0  0
   21.7188  -18.2315   -2.7004 C   0  0  0  0  0  0  0  0  0  0  0  0
   21.2279  -19.4957   -2.5492 C   0  0  0  0  0  0  0  0  0  0  0  0
   21.4834  -13.9368   -8.5248 O   0  0  0  0  0  0  0  0  0  0  0  0
   22.8679  -13.8403   -8.2154 C   0  0  0  0  0  0  0  0  0  0  0  0
   14.9940  -20.1012   -5.8797 C   0  0  0  0  0  0  0  0  0  0  0  0
   14.0430  -21.0073   -5.2193 N   0  0  0  0  0  0  0  0  0  0  0  0
   14.3697  -21.9893   -4.3884 C   0  0  0  0  0  0  0  0  0  0  0  0
   15.5069  -22.3673   -4.0008 O   0  0  0  0  0  0  0  0  0  0  0  0
   13.0860  -20.8749   -5.4088 H   0  0  0  0  0  0  0  0  0  0  0  0
   13.3001  -22.6218   -3.8605 O   0  0  0  0  0  0  0  0  0  0  0  0
   13.4807  -24.0191   -3.5878 C   0  0  0  0  0  0  0  0  0  0  0  0
   12.8092  -24.2630   -2.2167 C   0  0  0  0  0  0  0  0  0  0  0  0
   11.4067  -24.2267   -2.5555 O   0  0  0  0  0  0  0  0  0  0  0  0
   11.2108  -24.8361   -3.8310 C   0  0  0  0  0  0  0  0  0  0  0  0
   10.3771  -23.9938   -4.6271 O   0  0  0  0  0  0  0  0  0  0  0  0
   11.1221  -23.3967   -5.6966 C   0  0  0  0  0  0  0  0  0  0  0  0
   12.2965  -24.3445   -5.8955 C   0  0  0  0  0  0  0  0  0  0  0  0
   12.5770  -24.8557   -4.4939 C   0  0  0  0  0  0  0  0  0  0  0  0
   14.3056  -19.5111   -7.1201 C   0  0  0  0  0  0  0  0  0  0  0  0
   12.5683  -20.9979   -8.2289 C   0  0  0  0  0  0  0  0  0  0  0  0
   12.1731  -22.0487   -9.0739 C   0  0  0  0  0  0  0  0  0  0  0  0
   13.1786  -22.7943   -9.6744 C   0  0  0  0  0  0  0  0  0  0  0  0
   14.5084  -22.4158   -9.6049 C   0  0  0  0  0  0  0  0  0  0  0  0
   14.9032  -21.3843   -8.7484 C   0  0  0  0  0  0  0  0  0  0  0  0
   13.9005  -20.6295   -8.0926 C   0  0  0  0  0  0  0  0  0  0  0  0
 43 44  2  0  0  0
 43 42  1  0  0  0
 44 45  1  0  0  0
 42 41  2  0  0  0
 45 46  2  0  0  0
 24 25  1  0  0  0
 24  5  1  0  0  0
 10  5  2  0  0  0
 10  9  1  0  0  0
 41 46  1  0  0  0
 46 40  1  0  0  0
  5  6  1  0  0  0
  9  8  2  0  0  0
 12 11  2  0  0  0
 40 26  1  0  0  0
  6  7  2  0  0  0
  8  7  1  0  0  0
  8 11  1  0  0  0
  7 19  1  0  0  0
 11 13  2  0  0  0
 11 14  1  0  0  0
 38 37  1  0  0  0
 38 39  1  0  0  0
 19 20  1  0  0  0
 26 27  1  0  0  0
 26  1  1  0  0  0
 37 36  1  0  0  0
  4 14  1  0  0  0
  4  1  1  0  0  0
 14 15  1  0  0  0
 27 28  1  0  0  0
  1  2  1  0  0  0
 29 28  2  0  0  0
 28 31  1  0  0  0
 39 35  1  0  0  0
 39 32  1  0  0  0
 20 21  1  0  0  0
 36 35  1  0  0  0
 31 32  1  0  0  0
 15 16  1  0  0  0
 35 34  1  0  0  0
 32 33  1  0  0  0
 16 17  1  0  0  0
 21 22  1  0  0  0
 34 33  1  0  0  0
 22 23  2  0  0  0
 23 18  1  0  0  0
 17 18  1  0  0  0
  2  3  1  0  0  0
 27 30  1  0  0  0
M  END
> <minimizedAffinity>
-12.32329

$$$$
5WLO_GR7_B_201


 46 50  0  0  0  0  0  0  0  0999 V2000
   15.8319  -18.7232   -4.8093 C   0  0  0  0  0  0  0  0  0  0  0  0
   14.6592  -17.9788   -4.4198 O   0  0  0  0  0  0  0  0  0  0  0  0
   14.2947  -17.5214   -5.1937 H   0  0  0  0  0  0  0  0  0  0  0  0
   16.9124  -17.7645   -5.3207 C   0  0  0  0  0  0  0  0  0  0  0  0
   21.4549  -14.7106   -7.6633 C   0  0  0  0  0  0  0  0  0  0  0  0
   22.0862  -15.7102   -6.9358 C   0  0  0  0  0  0  0  0  0  0  0  0
   21.4177  -16.9050   -6.5778 C   0  0  0  0  0  0  0  0  0  0  0  0
   20.1006  -17.1258   -6.9411 C   0  0  0  0  0  0  0  0  0  0  0  0
   19.4879  -16.1077   -7.6721 C   0  0  0  0  0  0  0  0  0  0  0  0
   20.1350  -14.9427   -8.0231 C   0  0  0  0  0  0  0  0  0  0  0  0
   19.1418  -18.5647   -6.5664 S   0  0  0  0  0  0  0  0  0  0  0  0
   18.1635  -18.6280   -7.7632 O   0  0  0  0  0  0  0  0  0  0  0  0
   20.0610  -19.6891   -6.4302 O   0  0  0  0  0  0  0  0  0  0  0  0
   18.2228  -18.3707   -5.2655 N   0  0  0  0  0  0  0  0  0  0  0  0
   18.8521  -18.5771   -3.9990 C   0  0  0  0  0  0  0  0  0  0  0  0
   18.9676  -20.0394   -3.5964 C   0  0  0  0  0  0  0  0  0  0  0  0
   19.2221  -20.1323   -2.1152 C   0  0  0  0  0  0  0  0  0  0  0  0
   20.6494  -20.1025   -1.7134 C   0  0  0  0  0  0  0  0  0  0  0  0
   22.1975  -17.8131   -5.8426 C   0  0  0  0  0  0  0  0  0  0  0  0
   22.4159  -17.1003   -4.5642 O   0  0  0  0  0  0  0  0  0  0  0  0
   23.0732  -17.8163   -3.5068 C   0  0  0  0  0  0  0  0  0  0  0  0
   22.1386  -18.2912   -2.5766 C   0  0  0  0  0  0  0  0  0  0  0  0
   21.6124  -19.5493   -2.5283 C   0  0  0  0  0  0  0  0  0  0  0  0
   22.0455  -13.5385   -8.0380 O   0  0  0  0  0  0  0  0  0  0  0  0
   23.4412  -13.5260   -7.7667 C   0  0  0  0  0  0  0  0  0  0  0  0
   15.4390  -19.7785   -5.8360 C   0  0  0  0  0  0  0  0  0  0  0  0
   14.5192  -20.7363   -5.2050 N   0  0  0  0  0  0  0  0  0  0  0  0
   14.8811  -21.7491   -4.4274 C   0  0  0  0  0  0  0  0  0  0  0  0
   16.0325  -22.1194   -4.0763 O   0  0  0  0  0  0  0  0  0  0  0  0
   13.5565  -20.6166   -5.3730 H   0  0  0  0  0  0  0  0  0  0  0  0
   13.8344  -22.4300   -3.9138 O   0  0  0  0  0  0  0  0  0  0  0  0
   12.8445  -22.8507   -4.8639 C   0  0  0  0  0  0  0  0  0  0  0  0
   13.6317  -23.5307   -6.0076 C   0  0  0  0  0  0  0  0  0  0  0  0
   13.9988  -24.7938   -5.4135 O   0  0  0  0  0  0  0  0  0  0  0  0
   12.9311  -25.2581   -4.5883 C   0  0  0  0  0  0  0  0  0  0  0  0
   13.4615  -25.6756   -3.3303 O   0  0  0  0  0  0  0  0  0  0  0  0
   13.0765  -24.7729   -2.2854 C   0  0  0  0  0  0  0  0  0  0  0  0
   11.8131  -24.1140   -2.8208 C   0  0  0  0  0  0  0  0  0  0  0  0
   12.0602  -24.0438   -4.3170 C   0  0  0  0  0  0  0  0  0  0  0  0
   14.7293  -19.1703   -7.0554 C   0  0  0  0  0  0  0  0  0  0  0  0
   15.2320  -20.9449   -8.8036 C   0  0  0  0  0  0  0  0  0  0  0  0
   14.8581  -21.9262   -9.7374 C   0  0  0  0  0  0  0  0  0  0  0  0
   13.4995  -22.1146   -9.9524 C   0  0  0  0  0  0  0  0  0  0  0  0
   12.5436  -21.5071   -9.1566 C   0  0  0  0  0  0  0  0  0  0  0  0
   12.9140  -20.5164   -8.2429 C   0  0  0  0  0  0  0  0  0  0  0  0
   14.2930  -20.2756   -8.0295 C   0  0  0  0  0  0  0  0  0  0  0  0
 43 44  2  0  0  0
 43 42  1  0  0  0
 44 45  1  0  0  0
 42 41  2  0  0  0
 45 46  2  0  0  0
 24 25  1  0  0  0
 24  5  1  0  0  0
 10  5  2  0  0  0
 10  9  1  0  0  0
 41 46  1  0  0  0
 46 40  1  0  0  0
  5  6  1  0  0  0
  9  8  2  0  0  0
 12 11  2  0  0  0
 40 26  1  0  0  0
  6  7  2  0  0  0
  8  7  1  0  0  0
  8 11  1  0  0  0
  7 19  1  0  0  0
 11 13  2  0  0  0
 11 14  1  0  0  0
 38 37  1  0  0  0
 38 39  1  0  0  0
 19 20  1  0  0  0
 26 27  1  0  0  0
 26  1  1  0  0  0
 37 36  1  0  0  0
  4 14  1  0  0  0
  4  1  1  0  0  0
 14 15  1  0  0  0
 27 28  1  0  0  0
  1  2  1  0  0  0
 29 28  2  0  0  0
 28 31  1  0  0  0
 39 35  1  0  0  0
 39 32  1  0  0  0
 20 21  1  0  0  0
 36 35  1  0  0  0
 31 32  1  0  0  0
 15 16  1  0  0  0
 35 34  1  0  0  0
 32 33  1  0  0  0
 16 17  1  0  0  0
 21 22  1  0  0  0
 34 33  1  0  0  0
 22 23  2  0  0  0
 23 18  1  0  0  0
 17 18  1  0  0  0
  2  3  1  0  0  0
 27 30  1  0  0  0
M  END
> <minimizedAffinity>
-11.33692

$$$$
5WLO_GR7_B_201


 46 50  0  0  0  0  0  0  0  0999 V2000
   17.7395  -20.0085   -4.0086 C   0  0  0  0  0  0  0  0  0  0  0  0
   17.2488  -18.7228   -3.5757 O   0  0  0  0  0  0  0  0  0  0  0  0
   17.3904  -18.0694   -4.2784 H   0  0  0  0  0  0  0  0  0  0  0  0
   19.2489  -19.9328   -4.2611 C   0  0  0  0  0  0  0  0  0  0  0  0
   24.9041  -18.3962   -3.2091 C   0  0  0  0  0  0  0  0  0  0  0  0
   24.4502  -17.3840   -4.0436 C   0  0  0  0  0  0  0  0  0  0  0  0
   23.0710  -17.1037   -4.1910 C   0  0  0  0  0  0  0  0  0  0  0  0
   22.1144  -17.8315   -3.5048 C   0  0  0  0  0  0  0  0  0  0  0  0
   22.5947  -18.8425   -2.6721 C   0  0  0  0  0  0  0  0  0  0  0  0
   23.9368  -19.1188   -2.5254 C   0  0  0  0  0  0  0  0  0  0  0  0
   20.3632  -17.5941   -3.5894 S   0  0  0  0  0  0  0  0  0  0  0  0
   19.9020  -18.0511   -2.1852 O   0  0  0  0  0  0  0  0  0  0  0  0
   20.1191  -16.1945   -3.9199 O   0  0  0  0  0  0  0  0  0  0  0  0
   19.6555  -18.5949   -4.6248 N   0  0  0  0  0  0  0  0  0  0  0  0
   19.6775  -18.2139   -6.0021 C   0  0  0  0  0  0  0  0  0  0  0  0
   18.6087  -17.2000   -6.3809 C   0  0  0  0  0  0  0  0  0  0  0  0
   18.4272  -17.1988   -7.8757 C   0  0  0  0  0  0  0  0  0  0  0  0
   19.3092  -16.2684   -8.6214 C   0  0  0  0  0  0  0  0  0  0  0  0
   22.7798  -16.0493   -5.0724 C   0  0  0  0  0  0  0  0  0  0  0  0
   23.2016  -16.5903   -6.3838 O   0  0  0  0  0  0  0  0  0  0  0  0
   22.9094  -15.8073   -7.5519 C   0  0  0  0  0  0  0  0  0  0  0  0
   21.7730  -16.3017   -8.2063 C   0  0  0  0  0  0  0  0  0  0  0  0
   20.4996  -15.8260   -8.0877 C   0  0  0  0  0  0  0  0  0  0  0  0
   26.2188  -18.7137   -3.0254 O   0  0  0  0  0  0  0  0  0  0  0  0
   26.8702  -19.0440   -4.2454 C   0  0  0  0  0  0  0  0  0  0  0  0
   16.9536  -20.4595   -5.2340 C   0  0  0  0  0  0  0  0  0  0  0  0
   16.0417  -21.5438   -4.8411 N   0  0  0  0  0  0  0  0  0  0  0  0
   14.9523  -21.3982   -4.0971 C   0  0  0  0  0  0  0  0  0  0  0  0
   14.4749  -20.3597   -3.5682 O   0  0  0  0  0  0  0  0  0  0  0  0
   16.2566  -22.4516   -5.1556 H   0  0  0  0  0  0  0  0  0  0  0  0
   14.2496  -22.5414   -3.9479 O   0  0  0  0  0  0  0  0  0  0  0  0
   12.9527  -22.5544   -4.5622 C   0  0  0  0  0  0  0  0  0  0  0  0
   13.1886  -23.0237   -6.0162 C   0  0  0  0  0  0  0  0  0  0  0  0
   13.4267  -24.4367   -5.8437 O   0  0  0  0  0  0  0  0  0  0  0  0
   12.5806  -24.9375   -4.8093 C   0  0  0  0  0  0  0  0  0  0  0  0
   13.3574  -25.7377   -3.9180 O   0  0  0  0  0  0  0  0  0  0  0  0
   13.5145  -25.0887   -2.6494 C   0  0  0  0  0  0  0  0  0  0  0  0
   12.3283  -24.1375   -2.5779 C   0  0  0  0  0  0  0  0  0  0  0  0
   12.1241  -23.7209   -4.0233 C   0  0  0  0  0  0  0  0  0  0  0  0
   16.1113  -19.3247   -5.8369 C   0  0  0  0  0  0  0  0  0  0  0  0
   14.0384  -19.6499   -7.2707 C   0  0  0  0  0  0  0  0  0  0  0  0
   13.3637  -20.1171   -8.4113 C   0  0  0  0  0  0  0  0  0  0  0  0
   14.1014  -20.8510   -9.3304 C   0  0  0  0  0  0  0  0  0  0  0  0
   15.4778  -20.9649   -9.2371 C   0  0  0  0  0  0  0  0  0  0  0  0
   16.1455  -20.5188   -8.0931 C   0  0  0  0  0  0  0  0  0  0  0  0
   15.4110  -19.7989   -7.1197 C   0  0  0  0  0  0  0  0  0  0  0  0
 43 44  2  0  0  0
 43 42  1  0  0  0
 44 45  1  0  0  0
 42 41  2  0  0  0
 45 46  2  0  0  0
 24 25  1  0  0  0
 24  5  1  0  0  0
 10  5  2  0  0  0
 10  9  1  0  0  0
 41 46  1  0  0  0
 46 40  1  0  0  0
  5  6  1  0  0  0
  9  8  2  0  0  0
 12 11  2  0  0  0
 40 26  1  0  0  0
  6  7  2  0  0  0
  8  7  1  0  0  0
  8 11  1  0  0  0
  7 19  1  0  0  0
 11 13  2  0  0  0
 11 14  1  0  0  0
 38 37  1  0  0  0
 38 39  1  0  0  0
 19 20  1  0  0  0
 26 27  1  0  0  0
 26  1  1  0  0  0
 37 36  1  0  0  0
  4 14  1  0  0  0
  4  1  1  0  0  0
 14 15  1  0  0  0
 27 28  1  0  0  0
  1  2  1  0  0  0
 29 28  2  0  0  0
 28 31  1  0  0  0
 39 35  1  0  0  0
 39 32  1  0  0  0
 20 21  1  0  0  0
 36 35  1  0  0  0
 31 32  1  0  0  0
 15 16  1  0  0  0
 35 34  1  0  0  0
 32 33  1  0  0  0
 16 17  1  0  0  0
 21 22  1  0  0  0
 34 33  1  0  0  0
 22 23  2  0  0  0
 23 18  1  0  0  0
 17 18  1  0  0  0
  2  3  1  0  0  0
 27 30  1  0  0  0
M  END
> <minimizedAffinity>
-10.48038

$$$$
5WLO_GR7_B_201


 46 50  0  0  0  0  0  0  0  0999 V2000
   15.1897  -20.5808   -7.1966 C   0  0  0  0  0  0  0  0  0  0  0  0
   14.0656  -19.8265   -6.6980 O   0  0  0  0  0  0  0  0  0  0  0  0
   13.6834  -20.2836   -5.9326 H   0  0  0  0  0  0  0  0  0  0  0  0
   14.7216  -21.9584   -7.6775 C   0  0  0  0  0  0  0  0  0  0  0  0
   11.1205  -25.8911  -10.3260 C   0  0  0  0  0  0  0  0  0  0  0  0
   10.7102  -25.9277   -9.0005 C   0  0  0  0  0  0  0  0  0  0  0  0
   10.9807  -24.8632   -8.1083 C   0  0  0  0  0  0  0  0  0  0  0  0
   11.6688  -23.7367   -8.5243 C   0  0  0  0  0  0  0  0  0  0  0  0
   12.0701  -23.7226   -9.8603 C   0  0  0  0  0  0  0  0  0  0  0  0
   11.8087  -24.7569  -10.7328 C   0  0  0  0  0  0  0  0  0  0  0  0
   12.0762  -22.3344   -7.5253 S   0  0  0  0  0  0  0  0  0  0  0  0
   12.0952  -21.1869   -8.5628 O   0  0  0  0  0  0  0  0  0  0  0  0
   11.0713  -22.2302   -6.4732 O   0  0  0  0  0  0  0  0  0  0  0  0
   13.5667  -22.4104   -6.9360 N   0  0  0  0  0  0  0  0  0  0  0  0
   13.7489  -23.1877   -5.7507 C   0  0  0  0  0  0  0  0  0  0  0  0
   13.3693  -22.4608   -4.4695 C   0  0  0  0  0  0  0  0  0  0  0  0
   13.9918  -23.1634   -3.2921 C   0  0  0  0  0  0  0  0  0  0  0  0
   13.1756  -24.2493   -2.6969 C   0  0  0  0  0  0  0  0  0  0  0  0
   10.4976  -25.0571   -6.8035 C   0  0  0  0  0  0  0  0  0  0  0  0
   11.3198  -26.1852   -6.3120 O   0  0  0  0  0  0  0  0  0  0  0  0
   11.1797  -26.5595   -4.9325 C   0  0  0  0  0  0  0  0  0  0  0  0
   12.2309  -26.0338   -4.1690 C   0  0  0  0  0  0  0  0  0  0  0  0
   12.1971  -24.8915   -3.4233 C   0  0  0  0  0  0  0  0  0  0  0  0
   10.8899  -26.8846  -11.2332 O   0  0  0  0  0  0  0  0  0  0  0  0
   12.0703  -27.2660  -11.9282 C   0  0  0  0  0  0  0  0  0  0  0  0
   16.2604  -20.6608   -6.1152 C   0  0  0  0  0  0  0  0  0  0  0  0
   17.4659  -19.9642   -6.5875 N   0  0  0  0  0  0  0  0  0  0  0  0
   17.4989  -18.7265   -7.0657 C   0  0  0  0  0  0  0  0  0  0  0  0
   16.5584  -17.9058   -7.2332 O   0  0  0  0  0  0  0  0  0  0  0  0
   18.3179  -20.4557   -6.5457 H   0  0  0  0  0  0  0  0  0  0  0  0
   18.7458  -18.2988   -7.3576 O   0  0  0  0  0  0  0  0  0  0  0  0
   19.0638  -16.9717   -6.9135 C   0  0  0  0  0  0  0  0  0  0  0  0
   19.2807  -17.0872   -5.3872 C   0  0  0  0  0  0  0  0  0  0  0  0
   20.5751  -17.7212   -5.3121 O   0  0  0  0  0  0  0  0  0  0  0  0
   21.4102  -17.2195   -6.3550 C   0  0  0  0  0  0  0  0  0  0  0  0
   22.0463  -18.3161   -7.0114 O   0  0  0  0  0  0  0  0  0  0  0  0
   21.5246  -18.4954   -8.3346 C   0  0  0  0  0  0  0  0  0  0  0  0
   20.9699  -17.1247   -8.6959 C   0  0  0  0  0  0  0  0  0  0  0  0
   20.4719  -16.5856   -7.3671 C   0  0  0  0  0  0  0  0  0  0  0  0
   15.8135  -20.0006   -4.8018 C   0  0  0  0  0  0  0  0  0  0  0  0
   17.4592  -18.9862   -3.1523 C   0  0  0  0  0  0  0  0  0  0  0  0
   18.5005  -19.0639   -2.2120 C   0  0  0  0  0  0  0  0  0  0  0  0
   19.0570  -20.3148   -1.9814 C   0  0  0  0  0  0  0  0  0  0  0  0
   18.4989  -21.4692   -2.5031 C   0  0  0  0  0  0  0  0  0  0  0  0
   17.4775  -21.3903   -3.4538 C   0  0  0  0  0  0  0  0  0  0  0  0
   16.9150  -20.1221   -3.7376 C   0  0  0  0  0  0  0  0  0  0  0  0
 43 44  2  0  0  0
 43 42  1  0  0  0
 44 45  1  0  0  0
 42 41  2  0  0  0
 45 46  2  0  0  0
 24 25  1  0  0  0
 24  5  1  0  0  0
 10  5  2  0  0  0
 10  9  1  0  0  0
 41 46  1  0  0  0
 46 40  1  0  0  0
  5  6  1  0  0  0
  9  8  2  0  0  0
 12 11  2  0  0  0
 40 26  1  0  0  0
  6  7  2  0  0  0
  8  7  1  0  0  0
  8 11  1  0  0  0
  7 19  1  0  0  0
 11 13  2  0  0  0
 11 14  1  0  0  0
 38 37  1  0  0  0
 38 39  1  0  0  0
 19 20  1  0  0  0
 26 27  1  0  0  0
 26  1  1  0  0  0
 37 36  1  0  0  0
  4 14  1  0  0  0
  4  1  1  0  0  0
 14 15  1  0  0  0
 27 28  1  0  0  0
  1  2  1  0  0  0
 29 28  2  0  0  0
 28 31  1  0  0  0
 39 35  1  0  0  0
 39 32  1  0  0  0
 20 21  1  0  0  0
 36 35  1  0  0  0
 31 32  1  0  0  0
 15 16  1  0  0  0
 35 34  1  0  0  0
 32 33  1  0  0  0
 16 17  1  0  0  0
 21 22  1  0  0  0
 34 33  1  0  0  0
 22 23  2  0  0  0
 23 18  1  0  0  0
 17 18  1  0  0  0
  2  3  1  0  0  0
 27 30  1  0  0  0
M  END
> <minimizedAffinity>
-10.04534

$$$$
5WLO_GR7_B_201


 46 50  0  0  0  0  0  0  0  0999 V2000
   16.2940  -21.6487   -5.5169 C   0  0  0  0  0  0  0  0  0  0  0  0
   17.3685  -22.5745   -5.2536 O   0  0  0  0  0  0  0  0  0  0  0  0
   17.9133  -22.6726   -6.0501 H   0  0  0  0  0  0  0  0  0  0  0  0
   15.3876  -22.2019   -6.6217 C   0  0  0  0  0  0  0  0  0  0  0  0
   11.5701  -24.8219  -10.3647 C   0  0  0  0  0  0  0  0  0  0  0  0
   10.9889  -25.0302   -9.1215 C   0  0  0  0  0  0  0  0  0  0  0  0
   11.3107  -24.2225   -8.0050 C   0  0  0  0  0  0  0  0  0  0  0  0
   12.2227  -23.1865   -8.1090 C   0  0  0  0  0  0  0  0  0  0  0  0
   12.7926  -22.9963   -9.3680 C   0  0  0  0  0  0  0  0  0  0  0  0
   12.4821  -23.7803  -10.4581 C   0  0  0  0  0  0  0  0  0  0  0  0
   12.7196  -22.0988   -6.8051 S   0  0  0  0  0  0  0  0  0  0  0  0
   13.0624  -20.8006   -7.5736 O   0  0  0  0  0  0  0  0  0  0  0  0
   11.6161  -22.0088   -5.8555 O   0  0  0  0  0  0  0  0  0  0  0  0
   14.0872  -22.5615   -6.1048 N   0  0  0  0  0  0  0  0  0  0  0  0
   13.9824  -23.5683   -5.0959 C   0  0  0  0  0  0  0  0  0  0  0  0
   13.5622  -23.0379   -3.7336 C   0  0  0  0  0  0  0  0  0  0  0  0
   13.9012  -24.0534   -2.6747 C   0  0  0  0  0  0  0  0  0  0  0  0
   12.8472  -25.0601   -2.4002 C   0  0  0  0  0  0  0  0  0  0  0  0
   10.6354  -24.5649   -6.8218 C   0  0  0  0  0  0  0  0  0  0  0  0
   11.1900  -25.8988   -6.5002 O   0  0  0  0  0  0  0  0  0  0  0  0
   10.8107  -26.4934   -5.2490 C   0  0  0  0  0  0  0  0  0  0  0  0
   11.8244  -26.3267   -4.2957 C   0  0  0  0  0  0  0  0  0  0  0  0
   11.8807  -25.3595   -3.3348 C   0  0  0  0  0  0  0  0  0  0  0  0
   11.3009  -25.5659  -11.4770 O   0  0  0  0  0  0  0  0  0  0  0  0
   11.6296  -26.9381  -11.3015 C   0  0  0  0  0  0  0  0  0  0  0  0
   16.8793  -20.2832   -5.8561 C   0  0  0  0  0  0  0  0  0  0  0  0
   17.8243  -19.8952   -4.7988 N   0  0  0  0  0  0  0  0  0  0  0  0
   17.6048  -18.9659   -3.8770 C   0  0  0  0  0  0  0  0  0  0  0  0
   16.5994  -18.2270   -3.7061 O   0  0  0  0  0  0  0  0  0  0  0  0
   18.6903  -20.3627   -4.7724 H   0  0  0  0  0  0  0  0  0  0  0  0
   18.6050  -18.8589   -2.9763 O   0  0  0  0  0  0  0  0  0  0  0  0
   19.9329  -18.9112   -3.5181 C   0  0  0  0  0  0  0  0  0  0  0  0
   20.7273  -17.8147   -2.7721 C   0  0  0  0  0  0  0  0  0  0  0  0
   20.9334  -18.4177   -1.4771 O   0  0  0  0  0  0  0  0  0  0  0  0
   21.1657  -19.8167   -1.6368 C   0  0  0  0  0  0  0  0  0  0  0  0
   20.3537  -20.5334   -0.7067 O   0  0  0  0  0  0  0  0  0  0  0  0
   19.3045  -21.2415   -1.3798 C   0  0  0  0  0  0  0  0  0  0  0  0
   19.8364  -21.4214   -2.7946 C   0  0  0  0  0  0  0  0  0  0  0  0
   20.6562  -20.1646   -3.0245 C   0  0  0  0  0  0  0  0  0  0  0  0
   17.6371  -20.2890   -7.1926 C   0  0  0  0  0  0  0  0  0  0  0  0
   17.7320  -17.8269   -7.8151 C   0  0  0  0  0  0  0  0  0  0  0  0
   18.4090  -16.6173   -8.0457 C   0  0  0  0  0  0  0  0  0  0  0  0
   19.7940  -16.6356   -7.9507 C   0  0  0  0  0  0  0  0  0  0  0  0
   20.4778  -17.7380   -7.4676 C   0  0  0  0  0  0  0  0  0  0  0  0
   19.8076  -18.9465   -7.2585 C   0  0  0  0  0  0  0  0  0  0  0  0
   18.3973  -18.9676   -7.3847 C   0  0  0  0  0  0  0  0  0  0  0  0
 43 44  2  0  0  0
 43 42  1  0  0  0
 44 45  1  0  0  0
 42 41  2  0  0  0
 45 46  2  0  0  0
 24 25  1  0  0  0
 24  5  1  0  0  0
 10  5  2  0  0  0
 10  9  1  0  0  0
 41 46  1  0  0  0
 46 40  1  0  0  0
  5  6  1  0  0  0
  9  8  2  0  0  0
 12 11  2  0  0  0
 40 26  1  0  0  0
  6  7  2  0  0  0
  8  7  1  0  0  0
  8 11  1  0  0  0
  7 19  1  0  0  0
 11 13  2  0  0  0
 11 14  1  0  0  0
 38 37  1  0  0  0
 38 39  1  0  0  0
 19 20  1  0  0  0
 26 27  1  0  0  0
 26  1  1  0  0  0
 37 36  1  0  0  0
  4 14  1  0  0  0
  4  1  1  0  0  0
 14 15  1  0  0  0
 27 28  1  0  0  0
  1  2  1  0  0  0
 29 28  2  0  0  0
 28 31  1  0  0  0
 39 35  1  0  0  0
 39 32  1  0  0  0
 20 21  1  0  0  0
 36 35  1  0  0  0
 31 32  1  0  0  0
 15 16  1  0  0  0
 35 34  1  0  0  0
 32 33  1  0  0  0
 16 17  1  0  0  0
 21 22  1  0  0  0
 34 33  1  0  0  0
 22 23  2  0  0  0
 23 18  1  0  0  0
 17 18  1  0  0  0
  2  3  1  0  0  0
 27 30  1  0  0  0
M  END
> <minimizedAffinity>
-9.77953

$$$$
5WLO_GR7_B_201


 46 50  0  0  0  0  0  0  0  0999 V2000
   16.1433  -18.3976   -4.9137 C   0  0  0  0  0  0  0  0  0  0  0  0
   15.6003  -17.1673   -4.3917 O   0  0  0  0  0  0  0  0  0  0  0  0
   15.5904  -17.2039   -3.4224 H   0  0  0  0  0  0  0  0  0  0  0  0
   15.2480  -19.5747   -4.5128 C   0  0  0  0  0  0  0  0  0  0  0  0
   13.0399  -24.9961   -3.4257 C   0  0  0  0  0  0  0  0  0  0  0  0
   12.7966  -24.8203   -4.7810 C   0  0  0  0  0  0  0  0  0  0  0  0
   13.5250  -23.8839   -5.5523 C   0  0  0  0  0  0  0  0  0  0  0  0
   14.5149  -23.1018   -4.9828 C   0  0  0  0  0  0  0  0  0  0  0  0
   14.7416  -23.2969   -3.6202 C   0  0  0  0  0  0  0  0  0  0  0  0
   14.0348  -24.2078   -2.8653 C   0  0  0  0  0  0  0  0  0  0  0  0
   15.5031  -21.8962   -5.8197 S   0  0  0  0  0  0  0  0  0  0  0  0
   16.8205  -21.9321   -5.0094 O   0  0  0  0  0  0  0  0  0  0  0  0
   15.6008  -22.2947   -7.2195 O   0  0  0  0  0  0  0  0  0  0  0  0
   14.9311  -20.4066   -5.6509 N   0  0  0  0  0  0  0  0  0  0  0  0
   13.8787  -20.0194   -6.5370 C   0  0  0  0  0  0  0  0  0  0  0  0
   14.3570  -19.5897   -7.9155 C   0  0  0  0  0  0  0  0  0  0  0  0
   13.2696  -18.8051   -8.6006 C   0  0  0  0  0  0  0  0  0  0  0  0
   12.3074  -19.6108   -9.3909 C   0  0  0  0  0  0  0  0  0  0  0  0
   13.1562  -23.8293   -6.9066 C   0  0  0  0  0  0  0  0  0  0  0  0
   11.7793  -23.2896   -6.8517 O   0  0  0  0  0  0  0  0  0  0  0  0
   11.1397  -22.9694   -8.0971 C   0  0  0  0  0  0  0  0  0  0  0  0
   11.2006  -21.5911   -8.3435 C   0  0  0  0  0  0  0  0  0  0  0  0
   12.1105  -20.9494   -9.1323 C   0  0  0  0  0  0  0  0  0  0  0  0
   12.3721  -25.8816   -2.6301 O   0  0  0  0  0  0  0  0  0  0  0  0
   12.5766  -25.6252   -1.2466 C   0  0  0  0  0  0  0  0  0  0  0  0
   17.5817  -18.5548   -4.4355 C   0  0  0  0  0  0  0  0  0  0  0  0
   18.4077  -17.5129   -5.0629 N   0  0  0  0  0  0  0  0  0  0  0  0
   19.5167  -17.7290   -5.7593 C   0  0  0  0  0  0  0  0  0  0  0  0
   20.1007  -18.8135   -6.0218 O   0  0  0  0  0  0  0  0  0  0  0  0
   18.1144  -16.5790   -4.9578 H   0  0  0  0  0  0  0  0  0  0  0  0
   20.0410  -16.6050   -6.2928 O   0  0  0  0  0  0  0  0  0  0  0  0
   20.2748  -16.6434   -7.7083 C   0  0  0  0  0  0  0  0  0  0  0  0
   19.5008  -15.4373   -8.2881 C   0  0  0  0  0  0  0  0  0  0  0  0
   20.3362  -14.3262   -7.9002 O   0  0  0  0  0  0  0  0  0  0  0  0
   21.7079  -14.7086   -7.9941 C   0  0  0  0  0  0  0  0  0  0  0  0
   22.3854  -14.3118   -6.8017 O   0  0  0  0  0  0  0  0  0  0  0  0
   22.7443  -15.4525   -6.0110 C   0  0  0  0  0  0  0  0  0  0  0  0
   22.7958  -16.5922   -7.0187 C   0  0  0  0  0  0  0  0  0  0  0  0
   21.7130  -16.2271   -8.0181 C   0  0  0  0  0  0  0  0  0  0  0  0
   17.7089  -18.4089   -2.9113 C   0  0  0  0  0  0  0  0  0  0  0  0
   18.4719  -20.6782   -2.0591 C   0  0  0  0  0  0  0  0  0  0  0  0
   19.4234  -21.5584   -1.5164 C   0  0  0  0  0  0  0  0  0  0  0  0
   20.6612  -21.0276   -1.1791 C   0  0  0  0  0  0  0  0  0  0  0  0
   21.0219  -19.7377   -1.5290 C   0  0  0  0  0  0  0  0  0  0  0  0
   20.0698  -18.8567   -2.0493 C   0  0  0  0  0  0  0  0  0  0  0  0
   18.7857  -19.3611   -2.3686 C   0  0  0  0  0  0  0  0  0  0  0  0
 43 44  2  0  0  0
 43 42  1  0  0  0
 44 45  1  0  0  0
 42 41  2  0  0  0
 45 46  2  0  0  0
 24 25  1  0  0  0
 24  5  1  0  0  0
 10  5  2  0  0  0
 10  9  1  0  0  0
 41 46  1  0  0  0
 46 40  1  0  0  0
  5  6  1  0  0  0
  9  8  2  0  0  0
 12 11  2  0  0  0
 40 26  1  0  0  0
  6  7  2  0  0  0
  8  7  1  0  0  0
  8 11  1  0  0  0
  7 19  1  0  0  0
 11 13  2  0  0  0
 11 14  1  0  0  0
 38 37  1  0  0  0
 38 39  1  0  0  0
 19 20  1  0  0  0
 26 27  1  0  0  0
 26  1  1  0  0  0
 37 36  1  0  0  0
  4 14  1  0  0  0
  4  1  1  0  0  0
 14 15  1  0  0  0
 27 28  1  0  0  0
  1  2  1  0  0  0
 29 28  2  0  0  0
 28 31  1  0  0  0
 39 35  1  0  0  0
 39 32  1  0  0  0
 20 21  1  0  0  0
 36 35  1  0  0  0
 31 32  1  0  0  0
 15 16  1  0  0  0
 35 34  1  0  0  0
 32 33  1  0  0  0
 16 17  1  0  0  0
 21 22  1  0  0  0
 34 33  1  0  0  0
 22 23  2  0  0  0
 23 18  1  0  0  0
 17 18  1  0  0  0
  2  3  1  0  0  0
 27 30  1  0  0  0
M  END
> <minimizedAffinity>
-9.58244

$$$$
5WLO_GR7_B_201


 46 50  0  0  0  0  0  0  0  0999 V2000
   15.6021  -19.2718   -4.4655 C   0  0  0  0  0  0  0  0  0  0  0  0
   14.7447  -18.1133   -4.4030 O   0  0  0  0  0  0  0  0  0  0  0  0
   14.1953  -18.0742   -5.2015 H   0  0  0  0  0  0  0  0  0  0  0  0
   16.5500  -19.1553   -5.6637 C   0  0  0  0  0  0  0  0  0  0  0  0
   20.6894  -15.1949   -7.2854 C   0  0  0  0  0  0  0  0  0  0  0  0
   21.3513  -15.9820   -6.3530 C   0  0  0  0  0  0  0  0  0  0  0  0
   20.9079  -17.2869   -6.0322 C   0  0  0  0  0  0  0  0  0  0  0  0
   19.7905  -17.8336   -6.6390 C   0  0  0  0  0  0  0  0  0  0  0  0
   19.1428  -17.0243   -7.5726 C   0  0  0  0  0  0  0  0  0  0  0  0
   19.5712  -15.7530   -7.8883 C   0  0  0  0  0  0  0  0  0  0  0  0
   19.1234  -19.4447   -6.3394 S   0  0  0  0  0  0  0  0  0  0  0  0
   18.4781  -19.7911   -7.7022 O   0  0  0  0  0  0  0  0  0  0  0  0
   20.2188  -20.3076   -5.9115 O   0  0  0  0  0  0  0  0  0  0  0  0
   17.9172  -19.4247   -5.2815 N   0  0  0  0  0  0  0  0  0  0  0  0
   18.2771  -19.4211   -3.8984 C   0  0  0  0  0  0  0  0  0  0  0  0
   18.6274  -20.7946   -3.3465 C   0  0  0  0  0  0  0  0  0  0  0  0
   18.5583  -20.7623   -1.8426 C   0  0  0  0  0  0  0  0  0  0  0  0
   19.8147  -20.3727   -1.1578 C   0  0  0  0  0  0  0  0  0  0  0  0
   21.6881  -17.9493   -5.0700 C   0  0  0  0  0  0  0  0  0  0  0  0
   21.4478  -17.1529   -3.8459 O   0  0  0  0  0  0  0  0  0  0  0  0
   21.9964  -17.6451   -2.6132 C   0  0  0  0  0  0  0  0  0  0  0  0
   21.0098  -18.2928   -1.8574 C   0  0  0  0  0  0  0  0  0  0  0  0
   20.7848  -19.6375   -1.8027 C   0  0  0  0  0  0  0  0  0  0  0  0
   21.0678  -13.9314   -7.6366 O   0  0  0  0  0  0  0  0  0  0  0  0
   22.4646  -13.8353   -7.8847 C   0  0  0  0  0  0  0  0  0  0  0  0
   14.7438  -20.5304   -4.5065 C   0  0  0  0  0  0  0  0  0  0  0  0
   14.6549  -21.0000   -5.8968 N   0  0  0  0  0  0  0  0  0  0  0  0
   14.0469  -20.3573   -6.8862 C   0  0  0  0  0  0  0  0  0  0  0  0
   13.4244  -19.2626   -6.8688 O   0  0  0  0  0  0  0  0  0  0  0  0
   15.0809  -21.8612   -6.1114 H   0  0  0  0  0  0  0  0  0  0  0  0
   14.1782  -20.9694   -8.0824 O   0  0  0  0  0  0  0  0  0  0  0  0
   13.2739  -20.5277   -9.1054 C   0  0  0  0  0  0  0  0  0  0  0  0
   13.9386  -20.9234  -10.4439 C   0  0  0  0  0  0  0  0  0  0  0  0
   13.7213  -22.3497  -10.4802 O   0  0  0  0  0  0  0  0  0  0  0  0
   12.4378  -22.6482   -9.9322 C   0  0  0  0  0  0  0  0  0  0  0  0
   12.5670  -23.7218   -9.0000 O   0  0  0  0  0  0  0  0  0  0  0  0
   12.3681  -23.2623   -7.6566 C   0  0  0  0  0  0  0  0  0  0  0  0
   11.5348  -21.9995   -7.8236 C   0  0  0  0  0  0  0  0  0  0  0  0
   12.0329  -21.4204   -9.1354 C   0  0  0  0  0  0  0  0  0  0  0  0
   15.3340  -21.6668   -3.6575 C   0  0  0  0  0  0  0  0  0  0  0  0
   15.0886  -23.9876   -4.6633 C   0  0  0  0  0  0  0  0  0  0  0  0
   14.3773  -25.1700   -4.9292 C   0  0  0  0  0  0  0  0  0  0  0  0
   13.0613  -25.2324   -4.4912 C   0  0  0  0  0  0  0  0  0  0  0  0
   12.5200  -24.2619   -3.6657 C   0  0  0  0  0  0  0  0  0  0  0  0
   13.2195  -23.0773   -3.4188 C   0  0  0  0  0  0  0  0  0  0  0  0
   14.5520  -22.9696   -3.8858 C   0  0  0  0  0  0  0  0  0  0  0  0
 43 44  2  0  0  0
 43 42  1  0  0  0
 44 45  1  0  0  0
 42 41  2  0  0  0
 45 46  2  0  0  0
 24 25  1  0  0  0
 24  5  1  0  0  0
 10  5  2  0  0  0
 10  9  1  0  0  0
 41 46  1  0  0  0
 46 40  1  0  0  0
  5  6  1  0  0  0
  9  8  2  0  0  0
 12 11  2  0  0  0
 40 26  1  0  0  0
  6  7  2  0  0  0
  8  7  1  0  0  0
  8 11  1  0  0  0
  7 19  1  0  0  0
 11 13  2  0  0  0
 11 14  1  0  0  0
 38 37  1  0  0  0
 38 39  1  0  0  0
 19 20  1  0  0  0
 26 27  1  0  0  0
 26  1  1  0  0  0
 37 36  1  0  0  0
  4 14  1  0  0  0
  4  1  1  0  0  0
 14 15  1  0  0  0
 27 28  1  0  0  0
  1  2  1  0  0  0
 29 28  2  0  0  0
 28 31  1  0  0  0
 39 35  1  0  0  0
 39 32  1  0  0  0
 20 21  1  0  0  0
 36 35  1  0  0  0
 31 32  1  0  0  0
 15 16  1  0  0  0
 35 34  1  0  0  0
 32 33  1  0  0  0
 16 17  1  0  0  0
 21 22  1  0  0  0
 34 33  1  0  0  0
 22 23  2  0  0  0
 23 18  1  0  0  0
 17 18  1  0  0  0
  2  3  1  0  0  0
 27 30  1  0  0  0
M  END
> <minimizedAffinity>
-9.42810

$$$$
