5WLO_GR7_B_201
  RCSB PDB12061720093D
Coordinates from PDB:5WLO:B:201 Model:1 without hydrogens
 44 48  0  0  0  0            999 V2000
   20.9950  -15.0610   -8.0150   C 0  0  0  0  0  0  0  0  0  0  0  0
   21.5960  -16.0370   -7.2320   C 0  0  0  0  0  0  0  0  0  0  0  0
   20.9000  -17.2020   -6.8310   C 0  0  0  0  0  0  0  0  0  0  0  0
   19.5850  -17.4160   -7.2060   C 0  0  0  0  0  0  0  0  0  0  0  0
   19.0030  -16.4220   -7.9930   C 0  0  0  0  0  0  0  0  0  0  0  0
   19.6770  -15.2860   -8.3860   C 0  0  0  0  0  0  0  0  0  0  0  0
   18.5940  -18.8190   -6.7820   S 0  0  0  0  0  0  0  0  0  0  0  0
   17.6340  -18.9200   -7.9910   O 0  0  0  0  0  0  0  0  0  0  0  0
   19.4900  -19.9520   -6.5790   O 0  0  0  0  0  0  0  0  0  0  0  0
   17.6580  -18.5490   -5.5070   N 0  0  0  0  0  0  0  0  0  0  0  0
   16.3600  -17.9230   -5.6120   C 0  0  0  0  0  0  0  0  0  0  0  0
   15.2560  -18.8310   -5.0600   C 0  0  0  0  0  0  0  0  0  0  0  0
   14.0820  -18.0490   -4.7580   O 0  0  0  0  0  0  0  0  0  0  0  0
   14.8780  -19.9560   -6.0160   C 0  0  0  0  0  0  0  0  0  0  0  0
   13.9560  -20.8730   -5.3300   N 0  0  0  0  0  0  0  0  0  0  0  0
   14.2520  -22.1050   -4.9350   C 0  0  0  0  0  0  0  0  0  0  0  0
   15.3260  -22.7510   -5.0590   O 0  0  0  0  0  0  0  0  0  0  0  0
   13.2490  -22.7060   -4.2600   O 0  0  0  0  0  0  0  0  0  0  0  0
   13.4190  -24.1110   -4.0220   C 0  0  0  0  0  0  0  0  0  0  0  0
   12.8680  -24.3590   -2.5990   C 0  0  0  0  0  0  0  0  0  0  0  0
   11.4420  -24.2850   -2.8090   O 0  0  0  0  0  0  0  0  0  0  0  0
   11.1170  -24.8710   -4.0690   C 0  0  0  0  0  0  0  0  0  0  0  0
   10.2360  -23.9980   -4.7760   O 0  0  0  0  0  0  0  0  0  0  0  0
   10.8960  -23.4030   -5.9010   C 0  0  0  0  0  0  0  0  0  0  0  0
   12.0240  -24.3750   -6.2170   C 0  0  0  0  0  0  0  0  0  0  0  0
   12.4170  -24.9130   -4.8530   C 0  0  0  0  0  0  0  0  0  0  0  0
   14.1780  -19.4360   -7.2810   C 0  0  0  0  0  0  0  0  0  0  0  0
   12.4910  -21.0460   -8.2910   C 0  0  0  0  0  0  0  0  0  0  0  0
   12.1280  -22.1420   -9.0920   C 0  0  0  0  0  0  0  0  0  0  0  0
   13.1540  -22.8520   -9.7010   C 0  0  0  0  0  0  0  0  0  0  0  0
   14.4630  -22.4020   -9.6840   C 0  0  0  0  0  0  0  0  0  0  0  0
   14.8270  -21.3250   -8.8710   C 0  0  0  0  0  0  0  0  0  0  0  0
   13.8050  -20.6040   -8.2070   C 0  0  0  0  0  0  0  0  0  0  0  0
   21.6130  -13.9180   -8.4330   O 0  0  0  0  0  0  0  0  0  0  0  0
   22.9770  -13.8650   -8.0350   C 0  0  0  0  0  0  0  0  0  0  0  0
   18.2630  -18.7080   -4.2220   C 0  0  0  0  0  0  0  0  0  0  0  0
   18.3450  -20.1520   -3.7510   C 0  0  0  0  0  0  0  0  0  0  0  0
   18.5740  -20.1810   -2.2630   C 0  0  0  0  0  0  0  0  0  0  0  0
   19.9950  -20.1580   -1.8390   C 0  0  0  0  0  0  0  0  0  0  0  0
   21.6510  -18.0890   -6.0420   C 0  0  0  0  0  0  0  0  0  0  0  0
   21.8620  -17.3220   -4.7940   O 0  0  0  0  0  0  0  0  0  0  0  0
   22.4890  -18.0000   -3.6940   C 0  0  0  0  0  0  0  0  0  0  0  0
   21.5310  -18.4150   -2.7590   C 0  0  0  0  0  0  0  0  0  0  0  0
   20.9810  -19.6600   -2.6620   C 0  0  0  0  0  0  0  0  0  0  0  0
 30 31  2  0  0  0  0
 30 29  1  0  0  0  0
 31 32  1  0  0  0  0
 29 28  2  0  0  0  0
 32 33  2  0  0  0  0
 34 35  1  0  0  0  0
 34  1  1  0  0  0  0
  6  1  2  0  0  0  0
  6  5  1  0  0  0  0
 28 33  1  0  0  0  0
 33 27  1  0  0  0  0
  1  2  1  0  0  0  0
  5  4  2  0  0  0  0
  8  7  2  0  0  0  0
 27 14  1  0  0  0  0
  2  3  2  0  0  0  0
  4  3  1  0  0  0  0
  4  7  1  0  0  0  0
  3 40  1  0  0  0  0
  7  9  2  0  0  0  0
  7 10  1  0  0  0  0
 25 24  1  0  0  0  0
 25 26  1  0  0  0  0
 40 41  1  0  0  0  0
 14 15  1  0  0  0  0
 14 12  1  0  0  0  0
 24 23  1  0  0  0  0
 11 10  1  0  0  0  0
 11 12  1  0  0  0  0
 10 36  1  0  0  0  0
 15 16  1  0  0  0  0
 12 13  1  0  0  0  0
 17 16  2  0  0  0  0
 16 18  1  0  0  0  0
 26 22  1  0  0  0  0
 26 19  1  0  0  0  0
 41 42  1  0  0  0  0
 23 22  1  0  0  0  0
 18 19  1  0  0  0  0
 36 37  1  0  0  0  0
 22 21  1  0  0  0  0
 19 20  1  0  0  0  0
 37 38  1  0  0  0  0
 42 43  1  0  0  0  0
 21 20  1  0  0  0  0
 43 44  2  0  0  0  0
 44 39  1  0  0  0  0
 38 39  1  0  0  0  0
A    1
C1
A    2
C2
A    3
C3
A    4
C4
A    5
C5
A    6
C6
A    7
S7
A    8
O8
A    9
O9
A   10
N10
A   11
C15
A   12
C16
A   13
O17
A   14
C18
A   15
N19
A   16
C20
A   17
O21
A   18
O22
A   19
C23
A   20
C24
A   21
O25
A   22
C26
A   23
O27
A   24
C28
A   25
C29
A   26
C30
A   27
C31
A   28
C32
A   29
C33
A   30
C34
A   31
C35
A   32
C36
A   33
C37
A   34
O38
A   35
C39
A   36
C11
A   37
C12
A   38
C13
A   39
C14
A   40
C40
A   41
O41
A   42
C42
A   43
C43
A   44
C44
M  END
>  <InstanceId>
5WLO_GR7_B_201

>  <ChemCompId>
GR7

>  <PdbId>
5WLO

>  <ChainId>
B

>  <ResidueNumber>
201

>  <InsertionCode>


>  <Model>
1

>  <AltIds>


>  <MissingHeavyAtoms>
0

>  <ObservedFormula>
C32 N2 O9 S

>  <Name>
(3R,3aS,6aR)-hexahydrofuro[2,3-b]furan-3-yl {(2S,3R)-3-hydroxy-4-[(7E)-13-methoxy-1,1-dioxo-1,4,5,6,9,11-hexahydro-10,1lambda~6~,2-benzoxathiazacyclotridecin-2(3H)-yl]-1-phenylbutan-2-yl}carbamate

>  <SystematicName>
[(3~{a}~{S},4~{R},6~{a}~{R})-2,3,3~{a},4,5,6~{a}-hexahydrofuro[2,3-b]furan-4-yl] ~{N}-[(2~{S},3~{R})-4-[(8~{E})-15-methoxy-2,2-bis(oxidanylidene)-11-oxa-2$l^{6}-thia-3-azabicyclo[11.4.0]heptadeca-1(17),8,13,15-tetraen-3-yl]-3-oxidanyl-1-phenyl-butan-2-yl]carbamate

>  <Synonyms>


>  <Type>
NON-POLYMER

>  <Formula>
C32 H42 N2 O9 S

>  <MolecularWeight>
630.749

>  <ModifiedDate>
2017-10-06

>  <Parent>


>  <OneLetterCode>


>  <SubcomponentList>


>  <AmbiguousFlag>
N

>  <InChI>
InChI=1S/C32H42N2O9S/c1-39-25-12-13-30-24(19-25)21-40-16-9-4-2-3-8-15-34(44(30,37)38)20-28(35)27(18-23-10-6-5-7-11-23)33-32(36)43-29-22-42-31-26(29)14-17-41-31/h4-7,9-13,19,26-29,31,35H,2-3,8,14-18,20-22H2,1H3,(H,33,36)/b9-4+/t26-,27-,28+,29-,31+/m0/s1

>  <InChIKey>
QVQZOHIOYHJWJV-RSNMJCISSA-N

>  <SMILES>
COc1ccc2c(c1)COC/C=C/CCCCN(S2(=O)=O)C[C@H]([C@H](Cc3ccccc3)NC(=O)O[C@H]4CO[C@@H]5[C@H]4CCO5)O

$$$$
