4GZT_G39_A_501
  RCSB PDB12061712473D
Coordinates from PDB:4GZT:A:501 Model:1 without hydrogens
 20 20  0  0  0  0            999 V2000
   11.4330   24.2910   17.4950   C 0  0  0  0  0  0  0  0  0  0  0  0
   11.5100   23.0350   17.8090   O 0  0  0  0  0  0  0  0  0  0  0  0
   10.8330   25.1390   18.2100   O 0  0  0  0  0  0  0  0  0  0  0  0
   12.0390   24.8120   16.2530   C 0  0  0  0  0  0  0  0  0  0  0  0
   12.0830   26.3240   15.9360   C 0  0  0  0  0  0  0  0  0  0  0  0
   13.4730   26.6890   15.2890   C 0  0  0  0  0  0  0  0  0  0  0  0
   13.6260   25.7600   14.0960   C 0  0  0  0  0  0  0  0  0  0  0  0
   14.6490   26.2920   13.2110   N 0  0  0  0  0  0  0  0  0  0  0  0
   14.3880   26.4010   11.9310   C 0  0  0  0  0  0  0  0  0  0  0  0
   13.3310   25.9970   11.3790   O 0  0  0  0  0  0  0  0  0  0  0  0
   15.5210   26.8960   11.1770   C 0  0  0  0  0  0  0  0  0  0  0  0
   13.8030   24.3270   14.5730   C 0  0  0  0  0  0  0  0  0  0  0  0
   12.5950   23.9300   15.4090   C 0  0  0  0  0  0  0  0  0  0  0  0
   13.7270   23.4450   13.4740   O 0  0  0  0  0  0  0  0  0  0  0  0
   14.9010   22.6190   13.3790   C 0  0  0  0  0  0  0  0  0  0  0  0
   14.7000   21.5760   14.4940   C 0  0  0  0  0  0  0  0  0  0  0  0
   14.9260   21.9230   12.0220   C 0  0  0  0  0  0  0  0  0  0  0  0
   14.9050   22.9180   10.9030   C 0  0  0  0  0  0  0  0  0  0  0  0
   15.7880   20.5630   14.5780   C 0  0  0  0  0  0  0  0  0  0  0  0
   13.5450   28.0410   14.7570   N 0  0  0  0  0  0  0  0  0  0  0  0
  1  2  2  0  0  0  0
  1  3  1  0  0  0  0
  1  4  1  0  0  0  0
  4  5  1  0  0  0  0
  4 13  2  0  0  0  0
  5  6  1  0  0  0  0
  6  7  1  0  0  0  0
  6 20  1  0  0  0  0
  7  8  1  0  0  0  0
  7 12  1  0  0  0  0
  8  9  1  0  0  0  0
  9 10  2  0  0  0  0
  9 11  1  0  0  0  0
 12 13  1  0  0  0  0
 12 14  1  0  0  0  0
 14 15  1  0  0  0  0
 15 16  1  0  0  0  0
 15 17  1  0  0  0  0
 16 19  1  0  0  0  0
 17 18  1  0  0  0  0
A    1
C1
A    2
O1A
A    3
O1B
A    4
C2
A    5
C3
A    6
C4
A    7
C5
A    8
N5
A    9
C10
A   10
O10
A   11
C11
A   12
C6
A   13
C7
A   14
O7
A   15
C8
A   16
C9
A   17
C81
A   18
C82
A   19
C91
A   20
N4
M  END
>  <InstanceId>
4GZT_G39_A_501

>  <ChemCompId>
G39

>  <PdbId>
4GZT

>  <ChainId>
A

>  <ResidueNumber>
501

>  <InsertionCode>


>  <Model>
1

>  <AltIds>


>  <MissingHeavyAtoms>
0

>  <ObservedFormula>
C14 N2 O4

>  <Name>
(3R,4R,5S)-4-(acetylamino)-5-amino-3-(pentan-3-yloxy)cyclohex-1-ene-1-carboxylic acid

>  <SystematicName>
(3R,4R,5S)-4-acetamido-5-azanyl-3-pentan-3-yloxy-cyclohexene-1-carboxylic acid

>  <Synonyms>
Oseltamivir carboxylate

>  <Type>
NON-POLYMER

>  <Formula>
C14 H24 N2 O4

>  <MolecularWeight>
284.351

>  <ModifiedDate>
2011-06-04

>  <Parent>


>  <OneLetterCode>


>  <SubcomponentList>


>  <AmbiguousFlag>
N

>  <InChI>
InChI=1S/C14H24N2O4/c1-4-10(5-2)20-12-7-9(14(18)19)6-11(15)13(12)16-8(3)17/h7,10-13H,4-6,15H2,1-3H3,(H,16,17)(H,18,19)/t11-,12+,13+/m0/s1

>  <InChIKey>
NENPYTRHICXVCS-YNEHKIRRSA-N

>  <SMILES>
CCC(CC)O[C@@H]1C=C(C[C@@H]([C@H]1NC(=O)C)N)C(=O)O

$$$$
