4GZT_G39_A_501


 24 24  0  0  0  0  0  0  0  0999 V2000
   15.4482   26.8257   14.0583 C   0  0  0  0  0  0  0  0  0  0  0  0
   14.8263   27.1773   15.4287 C   0  0  0  0  0  0  0  0  0  0  0  0
   13.2769   26.8906   15.3962 C   0  0  0  0  0  0  0  0  0  0  0  0
   13.1377   25.4412   14.9609 C   0  0  0  0  0  0  0  0  0  0  0  0
   13.5741   25.2899   13.5121 C   0  0  0  0  0  0  0  0  0  0  0  0
   15.0176   25.7526   13.3782 C   0  0  0  0  0  0  0  0  0  0  0  0
   12.6270   26.9842   16.6943 N   0  0  0  0  0  0  0  0  0  0  0  0
   13.0405   26.3034   17.3314 H   0  0  0  0  0  0  0  0  0  0  0  0
   11.6308   26.7914   16.5905 H   0  0  0  0  0  0  0  0  0  0  0  0
   11.8048   24.9716   15.3010 N   0  0  0  0  0  0  0  0  0  0  0  0
   11.6764   23.8441   15.9574 C   0  0  0  0  0  0  0  0  0  0  0  0
   12.6286   23.0749   16.2520 O   0  0  0  0  0  0  0  0  0  0  0  0
   10.2899   23.4867   16.1743 C   0  0  0  0  0  0  0  0  0  0  0  0
   11.0104   25.4924   15.0423 H   0  0  0  0  0  0  0  0  0  0  0  0
   16.4910   27.6652   13.4345 C   0  0  0  0  0  0  0  0  0  0  0  0
   17.1697   27.2497   12.4104 O   0  0  0  0  0  0  0  0  0  0  0  0
   16.6806   28.7915   13.9691 O   0  0  0  0  0  0  0  0  0  0  0  0
   16.1669   29.0517   14.7083 H   0  0  0  0  0  0  0  0  0  0  0  0
   13.6515   23.9212   13.1771 O   0  0  0  0  0  0  0  0  0  0  0  0
   14.8699   23.6186   12.4746 C   0  0  0  0  0  0  0  0  0  0  0  0
   15.2946   22.2580   13.0576 C   0  0  0  0  0  0  0  0  0  0  0  0
   15.9900   22.3531   14.3707 C   0  0  0  0  0  0  0  0  0  0  0  0
   14.5762   23.4710   10.9851 C   0  0  0  0  0  0  0  0  0  0  0  0
   14.5932   22.0322   10.5702 C   0  0  0  0  0  0  0  0  0  0  0  0
 15 16  2  0  0  0
 15 17  1  0  0  0
 15  1  1  0  0  0
  1  2  1  0  0  0
  1  6  2  0  0  0
  2  3  1  0  0  0
  3  4  1  0  0  0
  3  7  1  0  0  0
  4 10  1  0  0  0
  4  5  1  0  0  0
 10 11  1  0  0  0
 11 12  2  0  0  0
 11 13  1  0  0  0
  5  6  1  0  0  0
  5 19  1  0  0  0
 19 20  1  0  0  0
 20 21  1  0  0  0
 20 23  1  0  0  0
 21 22  1  0  0  0
 23 24  1  0  0  0
 17 18  1  0  0  0
 10 14  1  0  0  0
  7  8  1  0  0  0
  7  9  1  0  0  0
M  END
> <minimizedAffinity>
-7.14535

$$$$
4GZT_G39_A_501


 24 24  0  0  0  0  0  0  0  0999 V2000
   14.3257   22.1621   14.3992 C   0  0  0  0  0  0  0  0  0  0  0  0
   12.7936   22.2444   14.5847 C   0  0  0  0  0  0  0  0  0  0  0  0
   12.4131   23.6264   15.2398 C   0  0  0  0  0  0  0  0  0  0  0  0
   13.0270   24.6880   14.3421 C   0  0  0  0  0  0  0  0  0  0  0  0
   14.5437   24.6360   14.4386 C   0  0  0  0  0  0  0  0  0  0  0  0
   15.0192   23.2494   14.0301 C   0  0  0  0  0  0  0  0  0  0  0  0
   10.9845   23.8995   15.2656 N   0  0  0  0  0  0  0  0  0  0  0  0
   10.6241   23.9152   14.3115 H   0  0  0  0  0  0  0  0  0  0  0  0
   10.8192   24.8043   15.7064 H   0  0  0  0  0  0  0  0  0  0  0  0
   12.3916   25.9657   14.6186 N   0  0  0  0  0  0  0  0  0  0  0  0
   11.9577   26.6900   13.6158 C   0  0  0  0  0  0  0  0  0  0  0  0
   12.1235   26.4031   12.4011 O   0  0  0  0  0  0  0  0  0  0  0  0
   11.3991   27.9539   14.0490 C   0  0  0  0  0  0  0  0  0  0  0  0
   12.2886   26.2825   15.5451 H   0  0  0  0  0  0  0  0  0  0  0  0
   15.0787   20.9183   14.6579 C   0  0  0  0  0  0  0  0  0  0  0  0
   14.9889   19.8966   13.8640 O   0  0  0  0  0  0  0  0  0  0  0  0
   15.7932   20.9159   15.6971 O   0  0  0  0  0  0  0  0  0  0  0  0
   15.8289   21.6767   16.2428 H   0  0  0  0  0  0  0  0  0  0  0  0
   15.1139   25.4666   13.4504 O   0  0  0  0  0  0  0  0  0  0  0  0
   16.2419   26.1975   13.9630 C   0  0  0  0  0  0  0  0  0  0  0  0
   16.7429   26.9914   12.7423 C   0  0  0  0  0  0  0  0  0  0  0  0
   16.2015   26.5075   11.4424 C   0  0  0  0  0  0  0  0  0  0  0  0
   15.7737   27.1626   15.0474 C   0  0  0  0  0  0  0  0  0  0  0  0
   15.2014   28.4111   14.4504 C   0  0  0  0  0  0  0  0  0  0  0  0
 15 16  2  0  0  0
 15 17  1  0  0  0
 15  1  1  0  0  0
  1  2  1  0  0  0
  1  6  2  0  0  0
  2  3  1  0  0  0
  3  4  1  0  0  0
  3  7  1  0  0  0
  4 10  1  0  0  0
  4  5  1  0  0  0
 10 11  1  0  0  0
 11 12  2  0  0  0
 11 13  1  0  0  0
  5  6  1  0  0  0
  5 19  1  0  0  0
 19 20  1  0  0  0
 20 21  1  0  0  0
 20 23  1  0  0  0
 21 22  1  0  0  0
 23 24  1  0  0  0
 17 18  1  0  0  0
 10 14  1  0  0  0
  7  8  1  0  0  0
  7  9  1  0  0  0
M  END
> <minimizedAffinity>
-6.65970

$$$$
4GZT_G39_A_501


 24 24  0  0  0  0  0  0  0  0999 V2000
   11.8709   25.1788   15.9401 C   0  0  0  0  0  0  0  0  0  0  0  0
   12.2626   26.6572   15.7173 C   0  0  0  0  0  0  0  0  0  0  0  0
   13.7945   26.7508   15.3592 C   0  0  0  0  0  0  0  0  0  0  0  0
   13.9936   25.8287   14.1677 C   0  0  0  0  0  0  0  0  0  0  0  0
   13.7990   24.3816   14.5926 C   0  0  0  0  0  0  0  0  0  0  0  0
   12.3999   24.2178   15.1682 C   0  0  0  0  0  0  0  0  0  0  0  0
   14.2239   28.0701   14.9222 N   0  0  0  0  0  0  0  0  0  0  0  0
   13.7074   28.3353   14.0835 H   0  0  0  0  0  0  0  0  0  0  0  0
   15.2224   28.0513   14.7147 H   0  0  0  0  0  0  0  0  0  0  0  0
   15.2498   26.1621   13.5169 N   0  0  0  0  0  0  0  0  0  0  0  0
   15.2398   26.4971   12.2496 C   0  0  0  0  0  0  0  0  0  0  0  0
   14.2204   26.4735   11.5109 O   0  0  0  0  0  0  0  0  0  0  0  0
   16.5697   26.7486   11.7347 C   0  0  0  0  0  0  0  0  0  0  0  0
   16.0955   26.1367   14.0203 H   0  0  0  0  0  0  0  0  0  0  0  0
   10.9497   24.7683   17.0190 C   0  0  0  0  0  0  0  0  0  0  0  0
   10.9750   25.3399   18.1829 O   0  0  0  0  0  0  0  0  0  0  0  0
   10.1587   23.8277   16.7363 O   0  0  0  0  0  0  0  0  0  0  0  0
   10.1744   23.4431   15.8820 H   0  0  0  0  0  0  0  0  0  0  0  0
   13.7686   23.5493   13.4533 O   0  0  0  0  0  0  0  0  0  0  0  0
   15.0403   22.9148   13.2301 C   0  0  0  0  0  0  0  0  0  0  0  0
   15.2285   22.0337   14.4789 C   0  0  0  0  0  0  0  0  0  0  0  0
   14.6847   20.6551   14.3341 C   0  0  0  0  0  0  0  0  0  0  0  0
   14.9594   22.0347   11.9869 C   0  0  0  0  0  0  0  0  0  0  0  0
   14.7348   22.8568   10.7555 C   0  0  0  0  0  0  0  0  0  0  0  0
 15 16  2  0  0  0
 15 17  1  0  0  0
 15  1  1  0  0  0
  1  2  1  0  0  0
  1  6  2  0  0  0
  2  3  1  0  0  0
  3  4  1  0  0  0
  3  7  1  0  0  0
  4 10  1  0  0  0
  4  5  1  0  0  0
 10 11  1  0  0  0
 11 12  2  0  0  0
 11 13  1  0  0  0
  5  6  1  0  0  0
  5 19  1  0  0  0
 19 20  1  0  0  0
 20 21  1  0  0  0
 20 23  1  0  0  0
 21 22  1  0  0  0
 23 24  1  0  0  0
 17 18  1  0  0  0
 10 14  1  0  0  0
  7  8  1  0  0  0
  7  9  1  0  0  0
M  END
> <minimizedAffinity>
-6.48787

$$$$
4GZT_G39_A_501


 24 24  0  0  0  0  0  0  0  0999 V2000
   14.8571   22.5132   14.6183 C   0  0  0  0  0  0  0  0  0  0  0  0
   15.9244   23.2816   13.8066 C   0  0  0  0  0  0  0  0  0  0  0  0
   15.2455   24.4799   13.0404 C   0  0  0  0  0  0  0  0  0  0  0  0
   14.5181   25.2863   14.1035 C   0  0  0  0  0  0  0  0  0  0  0  0
   13.3477   24.4855   14.6525 C   0  0  0  0  0  0  0  0  0  0  0  0
   13.8699   23.1801   15.2348 C   0  0  0  0  0  0  0  0  0  0  0  0
   16.1868   25.3962   12.4154 N   0  0  0  0  0  0  0  0  0  0  0  0
   16.7886   25.8052   13.1302 H   0  0  0  0  0  0  0  0  0  0  0  0
   15.6738   26.1374   11.9380 H   0  0  0  0  0  0  0  0  0  0  0  0
   14.2233   26.6078   13.5750 N   0  0  0  0  0  0  0  0  0  0  0  0
   14.5699   27.6628   14.2716 C   0  0  0  0  0  0  0  0  0  0  0  0
   15.0740   27.6252   15.4247 O   0  0  0  0  0  0  0  0  0  0  0  0
   14.1624   28.9001   13.6390 C   0  0  0  0  0  0  0  0  0  0  0  0
   13.7701   26.7091   12.7069 H   0  0  0  0  0  0  0  0  0  0  0  0
   14.8563   21.0391   14.7100 C   0  0  0  0  0  0  0  0  0  0  0  0
   14.1096   20.3145   13.9358 O   0  0  0  0  0  0  0  0  0  0  0  0
   15.6113   20.5441   15.5905 O   0  0  0  0  0  0  0  0  0  0  0  0
   16.1342   21.1053   16.1286 H   0  0  0  0  0  0  0  0  0  0  0  0
   12.8096   25.1391   15.7815 O   0  0  0  0  0  0  0  0  0  0  0  0
   11.4007   25.3852   15.6262 C   0  0  0  0  0  0  0  0  0  0  0  0
   10.8044   24.9326   16.9719 C   0  0  0  0  0  0  0  0  0  0  0  0
   10.4293   23.4923   17.0135 C   0  0  0  0  0  0  0  0  0  0  0  0
   11.1625   26.8796   15.4346 C   0  0  0  0  0  0  0  0  0  0  0  0
   10.6144   27.1698   14.0715 C   0  0  0  0  0  0  0  0  0  0  0  0
 15 16  2  0  0  0
 15 17  1  0  0  0
 15  1  1  0  0  0
  1  2  1  0  0  0
  1  6  2  0  0  0
  2  3  1  0  0  0
  3  4  1  0  0  0
  3  7  1  0  0  0
  4 10  1  0  0  0
  4  5  1  0  0  0
 10 11  1  0  0  0
 11 12  2  0  0  0
 11 13  1  0  0  0
  5  6  1  0  0  0
  5 19  1  0  0  0
 19 20  1  0  0  0
 20 21  1  0  0  0
 20 23  1  0  0  0
 21 22  1  0  0  0
 23 24  1  0  0  0
 17 18  1  0  0  0
 10 14  1  0  0  0
  7  8  1  0  0  0
  7  9  1  0  0  0
M  END
> <minimizedAffinity>
-6.45682

$$$$
4GZT_G39_A_501


 24 24  0  0  0  0  0  0  0  0999 V2000
   11.8279   24.9599   16.0675 C   0  0  0  0  0  0  0  0  0  0  0  0
   12.3093   26.4257   15.9762 C   0  0  0  0  0  0  0  0  0  0  0  0
   13.7526   26.4705   15.3446 C   0  0  0  0  0  0  0  0  0  0  0  0
   13.6445   25.7279   14.0230 C   0  0  0  0  0  0  0  0  0  0  0  0
   13.3957   24.2494   14.2769 C   0  0  0  0  0  0  0  0  0  0  0  0
   12.1154   24.0936   15.0845 C   0  0  0  0  0  0  0  0  0  0  0  0
   14.2171   27.8093   15.0161 N   0  0  0  0  0  0  0  0  0  0  0  0
   13.5839   28.2318   14.3372 H   0  0  0  0  0  0  0  0  0  0  0  0
   15.1551   27.7559   14.6189 H   0  0  0  0  0  0  0  0  0  0  0  0
   14.7872   26.0718   13.1930 N   0  0  0  0  0  0  0  0  0  0  0  0
   14.6093   26.8625   12.1627 C   0  0  0  0  0  0  0  0  0  0  0  0
   13.4912   27.2923   11.7748 O   0  0  0  0  0  0  0  0  0  0  0  0
   15.8279   27.0677   11.4077 C   0  0  0  0  0  0  0  0  0  0  0  0
   15.6812   25.7161   13.4014 H   0  0  0  0  0  0  0  0  0  0  0  0
   11.0838   24.4530   17.2382 C   0  0  0  0  0  0  0  0  0  0  0  0
   10.1513   25.1562   17.8022 O   0  0  0  0  0  0  0  0  0  0  0  0
   11.4242   23.3114   17.6521 O   0  0  0  0  0  0  0  0  0  0  0  0
   12.1036   22.8377   17.2140 H   0  0  0  0  0  0  0  0  0  0  0  0
   13.0809   23.6027   13.0627 O   0  0  0  0  0  0  0  0  0  0  0  0
   13.9608   22.4922   12.8135 C   0  0  0  0  0  0  0  0  0  0  0  0
   14.7711   22.9423   11.5837 C   0  0  0  0  0  0  0  0  0  0  0  0
   14.4956   22.1487   10.3543 C   0  0  0  0  0  0  0  0  0  0  0  0
   14.8951   22.3049   14.0045 C   0  0  0  0  0  0  0  0  0  0  0  0
   14.9441   20.8710   14.4337 C   0  0  0  0  0  0  0  0  0  0  0  0
 15 16  2  0  0  0
 15 17  1  0  0  0
 15  1  1  0  0  0
  1  2  1  0  0  0
  1  6  2  0  0  0
  2  3  1  0  0  0
  3  4  1  0  0  0
  3  7  1  0  0  0
  4 10  1  0  0  0
  4  5  1  0  0  0
 10 11  1  0  0  0
 11 12  2  0  0  0
 11 13  1  0  0  0
  5  6  1  0  0  0
  5 19  1  0  0  0
 19 20  1  0  0  0
 20 21  1  0  0  0
 20 23  1  0  0  0
 21 22  1  0  0  0
 23 24  1  0  0  0
 17 18  1  0  0  0
 10 14  1  0  0  0
  7  8  1  0  0  0
  7  9  1  0  0  0
M  END
> <minimizedAffinity>
-6.43447

$$$$
4GZT_G39_A_501


 24 24  0  0  0  0  0  0  0  0999 V2000
   15.2217   22.4961   13.7684 C   0  0  0  0  0  0  0  0  0  0  0  0
   16.5276   23.0946   14.3387 C   0  0  0  0  0  0  0  0  0  0  0  0
   16.7303   24.5535   13.7782 C   0  0  0  0  0  0  0  0  0  0  0  0
   15.4549   25.3052   14.1218 C   0  0  0  0  0  0  0  0  0  0  0  0
   14.2927   24.7538   13.3109 C   0  0  0  0  0  0  0  0  0  0  0  0
   14.1374   23.2703   13.6125 C   0  0  0  0  0  0  0  0  0  0  0  0
   17.8133   25.2894   14.4122 N   0  0  0  0  0  0  0  0  0  0  0  0
   17.6242   25.3796   15.4105 H   0  0  0  0  0  0  0  0  0  0  0  0
   17.8842   26.2171   13.9943 H   0  0  0  0  0  0  0  0  0  0  0  0
   15.7077   26.7334   14.0257 N   0  0  0  0  0  0  0  0  0  0  0  0
   15.3938   27.5038   15.0388 C   0  0  0  0  0  0  0  0  0  0  0  0
   14.8020   27.1130   16.0791 O   0  0  0  0  0  0  0  0  0  0  0  0
   15.6568   28.9025   14.7706 C   0  0  0  0  0  0  0  0  0  0  0  0
   16.1086   27.1162   13.2122 H   0  0  0  0  0  0  0  0  0  0  0  0
   15.1301   21.0858   13.3398 C   0  0  0  0  0  0  0  0  0  0  0  0
   14.4048   20.2284   13.9886 O   0  0  0  0  0  0  0  0  0  0  0  0
   15.8077   20.7768   12.3222 O   0  0  0  0  0  0  0  0  0  0  0  0
   16.3182   21.4287   11.8836 H   0  0  0  0  0  0  0  0  0  0  0  0
   13.0796   25.2983   13.7836 O   0  0  0  0  0  0  0  0  0  0  0  0
   11.9976   24.3578   13.6637 C   0  0  0  0  0  0  0  0  0  0  0  0
   11.2630   24.4786   15.0117 C   0  0  0  0  0  0  0  0  0  0  0  0
   11.4600   25.7879   15.6928 C   0  0  0  0  0  0  0  0  0  0  0  0
   11.0704   24.7893   12.5321 C   0  0  0  0  0  0  0  0  0  0  0  0
   10.9043   23.6963   11.5219 C   0  0  0  0  0  0  0  0  0  0  0  0
 15 16  2  0  0  0
 15 17  1  0  0  0
 15  1  1  0  0  0
  1  2  1  0  0  0
  1  6  2  0  0  0
  2  3  1  0  0  0
  3  4  1  0  0  0
  3  7  1  0  0  0
  4 10  1  0  0  0
  4  5  1  0  0  0
 10 11  1  0  0  0
 11 12  2  0  0  0
 11 13  1  0  0  0
  5  6  1  0  0  0
  5 19  1  0  0  0
 19 20  1  0  0  0
 20 21  1  0  0  0
 20 23  1  0  0  0
 21 22  1  0  0  0
 23 24  1  0  0  0
 17 18  1  0  0  0
 10 14  1  0  0  0
  7  8  1  0  0  0
  7  9  1  0  0  0
M  END
> <minimizedAffinity>
-5.91997

$$$$
4GZT_G39_A_501


 24 24  0  0  0  0  0  0  0  0999 V2000
   11.9327   24.8087   15.9419 C   0  0  0  0  0  0  0  0  0  0  0  0
   12.0823   23.2804   15.7675 C   0  0  0  0  0  0  0  0  0  0  0  0
   12.4761   22.9537   14.2769 C   0  0  0  0  0  0  0  0  0  0  0  0
   13.7228   23.7753   13.9932 C   0  0  0  0  0  0  0  0  0  0  0  0
   13.3751   25.2555   13.9698 C   0  0  0  0  0  0  0  0  0  0  0  0
   12.7718   25.6443   15.3117 C   0  0  0  0  0  0  0  0  0  0  0  0
   12.8495   21.5661   14.0505 N   0  0  0  0  0  0  0  0  0  0  0  0
   13.6575   21.3330   14.6278 H   0  0  0  0  0  0  0  0  0  0  0  0
   13.0848   21.4334   13.0669 H   0  0  0  0  0  0  0  0  0  0  0  0
   14.3877   23.2351   12.8190 N   0  0  0  0  0  0  0  0  0  0  0  0
   13.9326   23.5487   11.6303 C   0  0  0  0  0  0  0  0  0  0  0  0
   12.8938   24.2274   11.4176 O   0  0  0  0  0  0  0  0  0  0  0  0
   14.6660   22.8925   10.5679 C   0  0  0  0  0  0  0  0  0  0  0  0
   15.1680   22.6425   12.9149 H   0  0  0  0  0  0  0  0  0  0  0  0
   10.8540   25.4004   16.7590 C   0  0  0  0  0  0  0  0  0  0  0  0
    9.8047   25.9303   16.2110 O   0  0  0  0  0  0  0  0  0  0  0  0
   11.0301   25.3664   18.0073 O   0  0  0  0  0  0  0  0  0  0  0  0
   11.8037   24.9733   18.3607 H   0  0  0  0  0  0  0  0  0  0  0  0
   14.5582   26.0233   13.9240 O   0  0  0  0  0  0  0  0  0  0  0  0
   14.3455   27.2799   13.2567 C   0  0  0  0  0  0  0  0  0  0  0  0
   15.1864   28.2731   14.0801 C   0  0  0  0  0  0  0  0  0  0  0  0
   15.7027   27.7132   15.3594 C   0  0  0  0  0  0  0  0  0  0  0  0
   14.8904   27.2002   11.8343 C   0  0  0  0  0  0  0  0  0  0  0  0
   16.2089   26.4910   11.7988 C   0  0  0  0  0  0  0  0  0  0  0  0
 15 16  2  0  0  0
 15 17  1  0  0  0
 15  1  1  0  0  0
  1  2  1  0  0  0
  1  6  2  0  0  0
  2  3  1  0  0  0
  3  4  1  0  0  0
  3  7  1  0  0  0
  4 10  1  0  0  0
  4  5  1  0  0  0
 10 11  1  0  0  0
 11 12  2  0  0  0
 11 13  1  0  0  0
  5  6  1  0  0  0
  5 19  1  0  0  0
 19 20  1  0  0  0
 20 21  1  0  0  0
 20 23  1  0  0  0
 21 22  1  0  0  0
 23 24  1  0  0  0
 17 18  1  0  0  0
 10 14  1  0  0  0
  7  8  1  0  0  0
  7  9  1  0  0  0
M  END
> <minimizedAffinity>
-5.71701

$$$$
4GZT_G39_A_501


 24 24  0  0  0  0  0  0  0  0999 V2000
   10.8549   24.6062   16.2858 C   0  0  0  0  0  0  0  0  0  0  0  0
   10.8312   23.0610   16.2700 C   0  0  0  0  0  0  0  0  0  0  0  0
   11.4964   22.5350   14.9415 C   0  0  0  0  0  0  0  0  0  0  0  0
   12.8743   23.1743   14.8925 C   0  0  0  0  0  0  0  0  0  0  0  0
   12.7438   24.6735   14.6743 C   0  0  0  0  0  0  0  0  0  0  0  0
   11.9175   25.2689   15.8050 C   0  0  0  0  0  0  0  0  0  0  0  0
   11.7195   21.0977   14.9164 N   0  0  0  0  0  0  0  0  0  0  0  0
   12.3410   20.8366   15.6819 H   0  0  0  0  0  0  0  0  0  0  0  0
   12.1458   20.8353   14.0277 H   0  0  0  0  0  0  0  0  0  0  0  0
   13.7026   22.4400   13.9504 N   0  0  0  0  0  0  0  0  0  0  0  0
   14.6806   21.6972   14.4086 C   0  0  0  0  0  0  0  0  0  0  0  0
   15.0224   21.6302   15.6186 O   0  0  0  0  0  0  0  0  0  0  0  0
   15.4437   21.0735   13.3476 C   0  0  0  0  0  0  0  0  0  0  0  0
   13.5317   22.4997   12.9826 H   0  0  0  0  0  0  0  0  0  0  0  0
    9.7127   25.4005   16.7815 C   0  0  0  0  0  0  0  0  0  0  0  0
    9.1475   26.3046   16.0431 O   0  0  0  0  0  0  0  0  0  0  0  0
    9.3412   25.1501   17.9603 O   0  0  0  0  0  0  0  0  0  0  0  0
    9.7783   24.4878   18.4586 H   0  0  0  0  0  0  0  0  0  0  0  0
   14.0005   25.2922   14.8452 O   0  0  0  0  0  0  0  0  0  0  0  0
   14.3630   26.0760   13.6946 C   0  0  0  0  0  0  0  0  0  0  0  0
   15.0030   27.3372   14.3037 C   0  0  0  0  0  0  0  0  0  0  0  0
   15.0148   27.3508   15.7925 C   0  0  0  0  0  0  0  0  0  0  0  0
   15.3995   25.3204   12.8693 C   0  0  0  0  0  0  0  0  0  0  0  0
   16.5536   24.8841   13.7181 C   0  0  0  0  0  0  0  0  0  0  0  0
 15 16  2  0  0  0
 15 17  1  0  0  0
 15  1  1  0  0  0
  1  2  1  0  0  0
  1  6  2  0  0  0
  2  3  1  0  0  0
  3  4  1  0  0  0
  3  7  1  0  0  0
  4 10  1  0  0  0
  4  5  1  0  0  0
 10 11  1  0  0  0
 11 12  2  0  0  0
 11 13  1  0  0  0
  5  6  1  0  0  0
  5 19  1  0  0  0
 19 20  1  0  0  0
 20 21  1  0  0  0
 20 23  1  0  0  0
 21 22  1  0  0  0
 23 24  1  0  0  0
 17 18  1  0  0  0
 10 14  1  0  0  0
  7  8  1  0  0  0
  7  9  1  0  0  0
M  END
> <minimizedAffinity>
-5.69036

$$$$
4GZT_G39_A_501


 24 24  0  0  0  0  0  0  0  0999 V2000
   12.2598   21.6996   14.0268 C   0  0  0  0  0  0  0  0  0  0  0  0
   13.4739   21.2729   13.1709 C   0  0  0  0  0  0  0  0  0  0  0  0
   13.7882   22.3896   12.1041 C   0  0  0  0  0  0  0  0  0  0  0  0
   13.9583   23.6758   12.8955 C   0  0  0  0  0  0  0  0  0  0  0  0
   12.6253   24.0978   13.4935 C   0  0  0  0  0  0  0  0  0  0  0  0
   12.1088   22.9821   14.3901 C   0  0  0  0  0  0  0  0  0  0  0  0
   15.0377   22.1917   11.3860 N   0  0  0  0  0  0  0  0  0  0  0  0
   15.8136   22.1885   12.0482 H   0  0  0  0  0  0  0  0  0  0  0  0
   15.1673   22.9481   10.7142 H   0  0  0  0  0  0  0  0  0  0  0  0
   14.6491   24.6515   12.0687 N   0  0  0  0  0  0  0  0  0  0  0  0
   15.6881   25.2805   12.5618 C   0  0  0  0  0  0  0  0  0  0  0  0
   16.0968   25.1680   13.7473 O   0  0  0  0  0  0  0  0  0  0  0  0
   16.2327   26.2545   11.6387 C   0  0  0  0  0  0  0  0  0  0  0  0
   14.3412   24.8372   11.1522 H   0  0  0  0  0  0  0  0  0  0  0  0
   11.2146   20.7392   14.4346 C   0  0  0  0  0  0  0  0  0  0  0  0
    9.9569   20.9839   14.2339 O   0  0  0  0  0  0  0  0  0  0  0  0
   11.6254   19.6870   14.9954 O   0  0  0  0  0  0  0  0  0  0  0  0
   12.5440   19.5508   15.1203 H   0  0  0  0  0  0  0  0  0  0  0  0
   12.8236   25.1614   14.3995 O   0  0  0  0  0  0  0  0  0  0  0  0
   12.0861   26.3326   14.0069 C   0  0  0  0  0  0  0  0  0  0  0  0
   11.1161   26.5591   15.1814 C   0  0  0  0  0  0  0  0  0  0  0  0
   10.1348   27.6553   14.9526 C   0  0  0  0  0  0  0  0  0  0  0  0
   13.0379   27.5187   13.8897 C   0  0  0  0  0  0  0  0  0  0  0  0
   13.0847   28.0384   12.4860 C   0  0  0  0  0  0  0  0  0  0  0  0
 15 16  2  0  0  0
 15 17  1  0  0  0
 15  1  1  0  0  0
  1  2  1  0  0  0
  1  6  2  0  0  0
  2  3  1  0  0  0
  3  4  1  0  0  0
  3  7  1  0  0  0
  4 10  1  0  0  0
  4  5  1  0  0  0
 10 11  1  0  0  0
 11 12  2  0  0  0
 11 13  1  0  0  0
  5  6  1  0  0  0
  5 19  1  0  0  0
 19 20  1  0  0  0
 20 21  1  0  0  0
 20 23  1  0  0  0
 21 22  1  0  0  0
 23 24  1  0  0  0
 17 18  1  0  0  0
 10 14  1  0  0  0
  7  8  1  0  0  0
  7  9  1  0  0  0
M  END
> <minimizedAffinity>
-5.62000

$$$$
4GZT_G39_A_501


 24 24  0  0  0  0  0  0  0  0999 V2000
   10.6792   24.7666   16.0341 C   0  0  0  0  0  0  0  0  0  0  0  0
    9.1987   24.8848   15.6066 C   0  0  0  0  0  0  0  0  0  0  0  0
    9.0133   26.1495   14.6846 C   0  0  0  0  0  0  0  0  0  0  0  0
   10.0152   25.9825   13.5540 C   0  0  0  0  0  0  0  0  0  0  0  0
   11.4314   26.1184   14.0909 C   0  0  0  0  0  0  0  0  0  0  0  0
   11.6572   25.0654   15.1660 C   0  0  0  0  0  0  0  0  0  0  0  0
    7.7060   26.2386   14.0527 N   0  0  0  0  0  0  0  0  0  0  0  0
    7.5561   25.4190   13.4643 H   0  0  0  0  0  0  0  0  0  0  0  0
    7.6621   27.0813   13.4796 H   0  0  0  0  0  0  0  0  0  0  0  0
    9.6388   26.8575   12.4561 N   0  0  0  0  0  0  0  0  0  0  0  0
    9.6074   26.3722   11.2387 C   0  0  0  0  0  0  0  0  0  0  0  0
    9.9642   25.2067   10.9233 O   0  0  0  0  0  0  0  0  0  0  0  0
    9.2668   27.3768   10.2528 C   0  0  0  0  0  0  0  0  0  0  0  0
    9.4109   27.8004   12.6241 H   0  0  0  0  0  0  0  0  0  0  0  0
   11.0685   24.3694   17.4023 C   0  0  0  0  0  0  0  0  0  0  0  0
   11.5251   23.1825   17.6570 O   0  0  0  0  0  0  0  0  0  0  0  0
   10.9145   25.2485   18.2932 O   0  0  0  0  0  0  0  0  0  0  0  0
   10.5812   26.0939   18.0646 H   0  0  0  0  0  0  0  0  0  0  0  0
   12.3580   25.7504   13.0922 O   0  0  0  0  0  0  0  0  0  0  0  0
   13.5583   26.5396   13.1703 C   0  0  0  0  0  0  0  0  0  0  0  0
   14.5491   25.7805   12.2684 C   0  0  0  0  0  0  0  0  0  0  0  0
   15.9318   25.7077   12.8158 C   0  0  0  0  0  0  0  0  0  0  0  0
   13.2949   27.9263   12.5922 C   0  0  0  0  0  0  0  0  0  0  0  0
   13.9355   28.9915   13.4275 C   0  0  0  0  0  0  0  0  0  0  0  0
 15 16  2  0  0  0
 15 17  1  0  0  0
 15  1  1  0  0  0
  1  2  1  0  0  0
  1  6  2  0  0  0
  2  3  1  0  0  0
  3  4  1  0  0  0
  3  7  1  0  0  0
  4 10  1  0  0  0
  4  5  1  0  0  0
 10 11  1  0  0  0
 11 12  2  0  0  0
 11 13  1  0  0  0
  5  6  1  0  0  0
  5 19  1  0  0  0
 19 20  1  0  0  0
 20 21  1  0  0  0
 20 23  1  0  0  0
 21 22  1  0  0  0
 23 24  1  0  0  0
 17 18  1  0  0  0
 10 14  1  0  0  0
  7  8  1  0  0  0
  7  9  1  0  0  0
M  END
> <minimizedAffinity>
-5.59095

$$$$
