1V11_TDP_A_601
  RCSB PDB12061704173D
Coordinates from PDB:1V11:A:601 Model:1 without hydrogens
 26 27  0  0  0  0            999 V2000
   77.0940    0.6000   11.1890   N 0  0  0  0  0  0  0  0  0  0  0  0
   77.3550    1.7860   11.7580   C 0  0  0  0  0  0  0  0  0  0  0  0
   77.4600    1.9740   13.2600   C 0  0  0  0  0  0  0  0  0  0  0  0
   77.4460    2.8960   10.9710   N 0  0  0  0  0  0  0  0  0  0  0  0
   77.3340    2.8570    9.6150   C 0  0  0  0  0  0  0  0  0  0  0  0
   77.5390    4.0350    8.9390   N 0  0  0  0  0  0  0  0  0  0  0  0
   77.1030    1.5880    8.9950   C 0  0  0  0  0  0  0  0  0  0  0  0
   76.9460    0.4970    9.8490   C 0  0  0  0  0  0  0  0  0  0  0  0
   76.9640    1.4180    7.4700   C 0  0  0  0  0  0  0  0  0  0  0  0
   75.6730    1.9780    7.0130   N 0  3  0  0  0  0  0  0  0  0  0  0
   75.7960    3.2460    6.3450   C 0  0  0  0  0  0  0  0  0  0  0  0
   74.0630    3.6270    5.9090   S 0  0  0  0  0  0  0  0  0  0  0  0
   73.3750    2.1240    6.5320   C 0  0  0  0  0  0  0  0  0  0  0  0
   74.4510    1.3760    7.0430   C 0  0  0  0  0  0  0  0  0  0  0  0
   74.2630    0.0230    7.6330   C 0  0  0  0  0  0  0  0  0  0  0  0
   71.9080    1.8660    6.4200   C 0  0  0  0  0  0  0  0  0  0  0  0
   71.1190    2.8860    7.2480   C 0  0  0  0  0  0  0  0  0  0  0  0
   69.7730    2.6770    7.1320   O 0  0  0  0  0  0  0  0  0  0  0  0
   68.7020    3.6990    7.6490   P 0  0  0  0  0  0  0  0  0  0  0  0
   68.7790    5.0250    6.7250   O 0  0  0  0  0  0  0  0  0  0  0  0
   69.1020    4.1640    8.9760   O 0  0  0  0  0  0  0  0  0  0  0  0
   67.3230    3.0360    7.5420   O 0  0  0  0  0  0  0  0  0  0  0  0
   68.5080    5.1730    5.1260   P 0  0  0  0  0  0  0  0  0  0  0  0
   69.8360    4.8430    4.4200   O 0  0  0  0  0  0  0  0  0  0  0  0
   67.4630    4.1030    4.7390   O 0  5  0  0  0  0  0  0  0  0  0  0
   68.0890    6.5980    4.8690   O 0  0  0  0  0  0  0  0  0  0  0  0
  1  2  2  0  0  0  0
  1  8  1  0  0  0  0
  2  3  1  0  0  0  0
  2  4  1  0  0  0  0
  4  5  2  0  0  0  0
  5  6  1  0  0  0  0
  5  7  1  0  0  0  0
  7  8  2  0  0  0  0
  7  9  1  0  0  0  0
  9 10  1  0  0  0  0
 10 11  2  0  0  0  0
 10 14  1  0  0  0  0
 11 12  1  0  0  0  0
 12 13  1  0  0  0  0
 13 14  2  0  0  0  0
 13 16  1  0  0  0  0
 14 15  1  0  0  0  0
 16 17  1  0  0  0  0
 17 18  1  0  0  0  0
 18 19  1  0  0  0  0
 19 20  1  0  0  0  0
 19 21  2  0  0  0  0
 19 22  1  0  0  0  0
 20 23  1  0  0  0  0
 23 24  2  0  0  0  0
 23 25  1  0  0  0  0
 23 26  1  0  0  0  0
M  CHG  2  10   1  25  -1
A    1
N1'
A    2
C2'
A    3
C2A
A    4
N3'
A    5
C4'
A    6
N4'
A    7
C5'
A    8
C6'
A    9
C35
A   10
N3
A   11
C2
A   12
S1
A   13
C5
A   14
C4
A   15
C4A
A   16
C5A
A   17
C5B
A   18
O5G
A   19
P1
A   20
O11
A   21
O12
A   22
O13
A   23
P2
A   24
O21
A   25
O22
A   26
O23
M  END
>  <InstanceId>
1V11_TDP_A_601

>  <ChemCompId>
TDP

>  <PdbId>
1V11

>  <ChainId>
A

>  <ResidueNumber>
601

>  <InsertionCode>


>  <Model>
1

>  <AltIds>


>  <MissingHeavyAtoms>
0

>  <ObservedFormula>
C12 N4 O7 P2 S

>  <Name>
THIAMIN DIPHOSPHATE

>  <SystematicName>
[2-[3-[(4-amino-2-methyl-pyrimidin-5-yl)methyl]-4-methyl-1,3-thiazol-3-ium-5-yl]ethoxy-hydroxy-phosphoryl] hydrogen phosphate

>  <Synonyms>


>  <Type>
NON-POLYMER

>  <Formula>
C12 H18 N4 O7 P2 S

>  <MolecularWeight>
424.306

>  <ModifiedDate>
2011-06-04

>  <Parent>


>  <OneLetterCode>


>  <SubcomponentList>


>  <AmbiguousFlag>
N

>  <InChI>
InChI=1S/C12H18N4O7P2S/c1-8-11(3-4-22-25(20,21)23-24(17,18)19)26-7-16(8)6-10-5-14-9(2)15-12(10)13/h5,7H,3-4,6H2,1-2H3,(H4-,13,14,15,17,18,19,20,21)

>  <InChIKey>
AYEKOFBPNLCAJY-UHFFFAOYSA-N

>  <SMILES>
Cc1c(sc[n+]1Cc2cnc(nc2N)C)CCO[P@@](=O)(O)O[P@](=O)(O)[O-]

$$$$
