5LLI_6Z3_C_301


 40 43  0  0  0  0  0  0  0  0999 V2000
   12.2080   54.7605   92.9207 C   0  0  0  0  0  0  0  0  0  0  0  0
   11.0466   54.5159   92.6310 O   0  0  0  0  0  0  0  0  0  0  0  0
   13.1444   55.0571   92.0022 N   0  0  0  0  0  0  0  0  0  0  0  0
   14.5622   55.4056   92.2418 C   0  0  0  0  0  0  0  0  0  0  0  0
   14.9655   56.1723   90.9976 C   0  0  0  0  0  0  0  0  0  0  0  0
   14.5584   57.5454   91.0812 O   0  0  0  0  0  0  0  0  0  0  0  0
   14.1941   55.5032   89.8959 C   0  0  0  0  0  0  0  0  0  0  0  0
   12.8685   55.1164   90.5236 C   0  0  0  0  0  0  0  0  0  0  0  0
   13.5985   57.5906   91.2133 H   0  0  0  0  0  0  0  0  0  0  0  0
   12.4729   53.8805   89.9702 C   0  0  0  0  0  0  0  0  0  0  0  0
   12.9519   52.8258   90.3921 O   0  0  0  0  0  0  0  0  0  0  0  0
   11.6126   53.9690   88.9254 N   0  0  0  0  0  0  0  0  0  0  0  0
   11.2755   54.8598   88.6763 H   0  0  0  0  0  0  0  0  0  0  0  0
   11.1490   52.7982   88.1345 C   0  0  0  0  0  0  0  0  0  0  0  0
   11.9512   52.5558   86.9657 C   0  0  0  0  0  0  0  0  0  0  0  0
   12.0223   51.3081   86.3333 C   0  0  0  0  0  0  0  0  0  0  0  0
   12.8175   51.1091   85.1884 C   0  0  0  0  0  0  0  0  0  0  0  0
   12.7163   53.5856   86.4073 C   0  0  0  0  0  0  0  0  0  0  0  0
   13.4983   53.3828   85.2645 C   0  0  0  0  0  0  0  0  0  0  0  0
   13.5742   52.1303   84.6426 C   0  0  0  0  0  0  0  0  0  0  0  0
   14.3265   51.9052   83.5540 C   0  0  0  0  0  0  0  0  0  0  0  0
   13.9520   50.9014   82.2557 S   0  0  0  0  0  0  0  0  0  0  0  0
   15.3373   51.2039   81.4180 C   0  0  0  0  0  0  0  0  0  0  0  0
   16.0932   52.0470   82.1255 N   0  0  0  0  0  0  0  0  0  0  0  0
   15.5373   52.4189   83.2869 C   0  0  0  0  0  0  0  0  0  0  0  0
   16.2791   53.3739   84.1894 C   0  0  0  0  0  0  0  0  0  0  0  0
   12.6162   54.7632   94.4015 C   0  0  0  0  0  0  0  0  0  0  0  0
   11.5832   56.4619   95.8502 C   0  0  0  0  0  0  0  0  0  0  0  0
   12.6292   57.0754   96.0307 O   0  0  0  0  0  0  0  0  0  0  0  0
   11.4821   55.3425   95.1209 N   0  0  0  0  0  0  0  0  0  0  0  0
   10.6087   54.8914   95.0671 H   0  0  0  0  0  0  0  0  0  0  0  0
   10.4014   57.3377   98.0128 C   0  0  0  0  0  0  0  0  0  0  0  0
   10.1393   58.3856   96.9347 C   0  0  0  0  0  0  0  0  0  0  0  0
   10.3061   56.9496   96.5484 C   0  0  0  0  0  0  0  0  0  0  0  0
    9.1771   56.3385   96.1985 C   0  0  0  0  0  0  0  0  0  0  0  0
    8.3878   55.9041   95.9629 N   0  0  0  0  0  0  0  0  0  0  0  0
   12.8731   53.3439   94.9418 C   0  0  0  0  0  0  0  0  0  0  0  0
   11.5736   52.6405   95.3907 C   0  0  0  0  0  0  0  0  0  0  0  0
   13.7632   53.4694   96.1807 C   0  0  0  0  0  0  0  0  0  0  0  0
   13.6031   52.4597   93.9013 C   0  0  0  0  0  0  0  0  0  0  0  0
 24 23  2  0  0  0
 24 25  1  0  0  0
 23 22  1  0  0  0
 26 25  1  0  0  0
 25 21  2  0  0  0
 22 21  1  0  0  0
 21 20  1  0  0  0
 20 19  2  0  0  0
 20 17  1  0  0  0
 19 18  1  0  0  0
 17 16  2  0  0  0
 18 15  2  0  0  0
 16 15  1  0  0  0
 15 14  1  0  0  0
 14 12  1  0  0  0
 12 10  1  0  0  0
 10 11  2  0  0  0
 10  8  1  0  0  0
  7  8  1  0  0  0
  7  5  1  0  0  0
  8  3  1  0  0  0
  5  6  1  0  0  0
  5  4  1  0  0  0
  3  4  1  0  0  0
  3  1  1  0  0  0
  2  1  2  0  0  0
  1 27  1  0  0  0
 40 37  1  0  0  0
 27 37  1  0  0  0
 27 30  1  0  0  0
 37 38  1  0  0  0
 37 39  1  0  0  0
 30 28  1  0  0  0
 28 29  2  0  0  0
 28 34  1  0  0  0
 36 35  3  0  0  0
 35 34  1  0  0  0
 34 33  1  0  0  0
 34 32  1  0  0  0
 33 32  1  0  0  0
 30 31  1  0  0  0
  6  9  1  0  0  0
 12 13  1  0  0  0
M  END
> <minimizedAffinity>
-9.23742

$$$$
5LLI_6Z3_C_301


 40 43  0  0  0  0  0  0  0  0999 V2000
   12.2437   54.6406   92.8249 C   0  0  0  0  0  0  0  0  0  0  0  0
   11.0862   54.4016   92.5157 O   0  0  0  0  0  0  0  0  0  0  0  0
   13.1869   54.9754   91.9268 N   0  0  0  0  0  0  0  0  0  0  0  0
   14.6007   55.3213   92.1922 C   0  0  0  0  0  0  0  0  0  0  0  0
   15.0115   56.1356   90.9811 C   0  0  0  0  0  0  0  0  0  0  0  0
   14.5970   57.5027   91.1119 O   0  0  0  0  0  0  0  0  0  0  0  0
   14.2534   55.5044   89.8482 C   0  0  0  0  0  0  0  0  0  0  0  0
   12.9241   55.0885   90.4488 C   0  0  0  0  0  0  0  0  0  0  0  0
   13.6357   57.5386   91.2368 H   0  0  0  0  0  0  0  0  0  0  0  0
   12.5396   53.8722   89.8463 C   0  0  0  0  0  0  0  0  0  0  0  0
   12.9381   52.7974   90.3001 O   0  0  0  0  0  0  0  0  0  0  0  0
   11.7870   54.0002   88.7252 N   0  0  0  0  0  0  0  0  0  0  0  0
   11.5073   54.9047   88.4551 H   0  0  0  0  0  0  0  0  0  0  0  0
   11.3600   52.8533   87.8805 C   0  0  0  0  0  0  0  0  0  0  0  0
   12.1997   52.6594   86.7292 C   0  0  0  0  0  0  0  0  0  0  0  0
   13.1024   53.6272   86.2704 C   0  0  0  0  0  0  0  0  0  0  0  0
   13.9106   53.4004   85.1398 C   0  0  0  0  0  0  0  0  0  0  0  0
   12.1377   51.4657   86.0018 C   0  0  0  0  0  0  0  0  0  0  0  0
   12.9497   51.2441   84.8838 C   0  0  0  0  0  0  0  0  0  0  0  0
   13.8428   52.2194   84.4229 C   0  0  0  0  0  0  0  0  0  0  0  0
   14.6229   52.0379   83.3459 C   0  0  0  0  0  0  0  0  0  0  0  0
   16.2318   52.5015   83.1728 S   0  0  0  0  0  0  0  0  0  0  0  0
   16.3988   51.9219   81.6403 C   0  0  0  0  0  0  0  0  0  0  0  0
   15.2355   51.3956   81.2497 N   0  0  0  0  0  0  0  0  0  0  0  0
   14.2752   51.4675   82.1818 C   0  0  0  0  0  0  0  0  0  0  0  0
   12.9073   50.9074   81.8789 C   0  0  0  0  0  0  0  0  0  0  0  0
   12.6385   54.5901   94.3085 C   0  0  0  0  0  0  0  0  0  0  0  0
   11.5643   56.0586   95.9641 C   0  0  0  0  0  0  0  0  0  0  0  0
   12.6161   56.5777   96.3207 O   0  0  0  0  0  0  0  0  0  0  0  0
   11.4763   55.0906   95.0419 N   0  0  0  0  0  0  0  0  0  0  0  0
   10.5931   54.7002   94.8501 H   0  0  0  0  0  0  0  0  0  0  0  0
    9.0201   55.6373   96.4002 C   0  0  0  0  0  0  0  0  0  0  0  0
    9.6833   55.6755   97.7742 C   0  0  0  0  0  0  0  0  0  0  0  0
   10.2577   56.4799   96.6508 C   0  0  0  0  0  0  0  0  0  0  0  0
   10.0401   57.7893   96.7433 C   0  0  0  0  0  0  0  0  0  0  0  0
    9.8928   58.7072   96.7978 N   0  0  0  0  0  0  0  0  0  0  0  0
   12.9464   53.1582   94.7852 C   0  0  0  0  0  0  0  0  0  0  0  0
   11.6687   52.3723   95.1524 C   0  0  0  0  0  0  0  0  0  0  0  0
   13.7885   53.2605   96.0592 C   0  0  0  0  0  0  0  0  0  0  0  0
   13.7518   52.3645   93.7276 C   0  0  0  0  0  0  0  0  0  0  0  0
 24 23  2  0  0  0
 24 25  1  0  0  0
 23 22  1  0  0  0
 26 25  1  0  0  0
 25 21  2  0  0  0
 22 21  1  0  0  0
 21 20  1  0  0  0
 20 19  2  0  0  0
 20 17  1  0  0  0
 19 18  1  0  0  0
 17 16  2  0  0  0
 18 15  2  0  0  0
 16 15  1  0  0  0
 15 14  1  0  0  0
 14 12  1  0  0  0
 12 10  1  0  0  0
 10 11  2  0  0  0
 10  8  1  0  0  0
  7  8  1  0  0  0
  7  5  1  0  0  0
  8  3  1  0  0  0
  5  6  1  0  0  0
  5  4  1  0  0  0
  3  4  1  0  0  0
  3  1  1  0  0  0
  2  1  2  0  0  0
  1 27  1  0  0  0
 40 37  1  0  0  0
 27 37  1  0  0  0
 27 30  1  0  0  0
 37 38  1  0  0  0
 37 39  1  0  0  0
 30 28  1  0  0  0
 28 29  2  0  0  0
 28 34  1  0  0  0
 36 35  3  0  0  0
 35 34  1  0  0  0
 34 33  1  0  0  0
 34 32  1  0  0  0
 33 32  1  0  0  0
 30 31  1  0  0  0
  6  9  1  0  0  0
 12 13  1  0  0  0
M  END
> <minimizedAffinity>
-8.39188

$$$$
5LLI_6Z3_C_301


 40 43  0  0  0  0  0  0  0  0999 V2000
   10.8634   52.0159   84.3641 C   0  0  0  0  0  0  0  0  0  0  0  0
   11.2027   52.7354   85.2913 O   0  0  0  0  0  0  0  0  0  0  0  0
    9.6599   52.1055   83.7708 N   0  0  0  0  0  0  0  0  0  0  0  0
    9.1610   51.3171   82.6226 C   0  0  0  0  0  0  0  0  0  0  0  0
    8.0628   52.1814   82.0350 C   0  0  0  0  0  0  0  0  0  0  0  0
    8.6049   53.1924   81.1736 O   0  0  0  0  0  0  0  0  0  0  0  0
    7.4456   52.8443   83.2335 C   0  0  0  0  0  0  0  0  0  0  0  0
    8.6018   53.0937   84.1830 C   0  0  0  0  0  0  0  0  0  0  0  0
    9.2372   53.7352   81.6701 H   0  0  0  0  0  0  0  0  0  0  0  0
    8.1291   52.9030   85.4986 C   0  0  0  0  0  0  0  0  0  0  0  0
    7.2121   52.1103   85.7235 O   0  0  0  0  0  0  0  0  0  0  0  0
    8.7038   53.6978   86.4354 N   0  0  0  0  0  0  0  0  0  0  0  0
    9.4413   54.2866   86.1549 H   0  0  0  0  0  0  0  0  0  0  0  0
    8.2844   53.7311   87.8616 C   0  0  0  0  0  0  0  0  0  0  0  0
    9.3893   53.8846   88.7693 C   0  0  0  0  0  0  0  0  0  0  0  0
    9.4266   54.8658   89.7682 C   0  0  0  0  0  0  0  0  0  0  0  0
   10.5254   54.9843   90.6407 C   0  0  0  0  0  0  0  0  0  0  0  0
   10.5009   53.0396   88.6794 C   0  0  0  0  0  0  0  0  0  0  0  0
   11.5861   53.1580   89.5551 C   0  0  0  0  0  0  0  0  0  0  0  0
   11.6230   54.1478   90.5451 C   0  0  0  0  0  0  0  0  0  0  0  0
   12.6569   54.2919   91.3888 C   0  0  0  0  0  0  0  0  0  0  0  0
   12.7765   53.6858   92.9547 S   0  0  0  0  0  0  0  0  0  0  0  0
   14.2828   54.2867   93.2416 C   0  0  0  0  0  0  0  0  0  0  0  0
   14.6896   54.9622   92.1640 N   0  0  0  0  0  0  0  0  0  0  0  0
   13.7972   54.9631   91.1641 C   0  0  0  0  0  0  0  0  0  0  0  0
   14.1253   55.6859   89.8809 C   0  0  0  0  0  0  0  0  0  0  0  0
   11.8637   50.9822   83.8255 C   0  0  0  0  0  0  0  0  0  0  0  0
   13.9510   51.7712   82.7901 C   0  0  0  0  0  0  0  0  0  0  0  0
   13.6808   51.3170   81.6838 O   0  0  0  0  0  0  0  0  0  0  0  0
   13.1700   51.6386   83.8706 N   0  0  0  0  0  0  0  0  0  0  0  0
   13.4884   51.9976   84.7302 H   0  0  0  0  0  0  0  0  0  0  0  0
   16.5637   51.7067   82.6884 C   0  0  0  0  0  0  0  0  0  0  0  0
   16.1367   52.8890   81.8230 C   0  0  0  0  0  0  0  0  0  0  0  0
   15.2956   52.4836   82.9924 C   0  0  0  0  0  0  0  0  0  0  0  0
   15.3727   53.3040   84.0371 C   0  0  0  0  0  0  0  0  0  0  0  0
   15.4186   53.8719   84.7738 N   0  0  0  0  0  0  0  0  0  0  0  0
   11.9177   49.7107   84.6930 C   0  0  0  0  0  0  0  0  0  0  0  0
   13.1109   49.7170   85.6735 C   0  0  0  0  0  0  0  0  0  0  0  0
   12.1151   48.5149   83.7581 C   0  0  0  0  0  0  0  0  0  0  0  0
   10.6033   49.5025   85.4844 C   0  0  0  0  0  0  0  0  0  0  0  0
 24 23  2  0  0  0
 24 25  1  0  0  0
 23 22  1  0  0  0
 26 25  1  0  0  0
 25 21  2  0  0  0
 22 21  1  0  0  0
 21 20  1  0  0  0
 20 19  2  0  0  0
 20 17  1  0  0  0
 19 18  1  0  0  0
 17 16  2  0  0  0
 18 15  2  0  0  0
 16 15  1  0  0  0
 15 14  1  0  0  0
 14 12  1  0  0  0
 12 10  1  0  0  0
 10 11  2  0  0  0
 10  8  1  0  0  0
  7  8  1  0  0  0
  7  5  1  0  0  0
  8  3  1  0  0  0
  5  6  1  0  0  0
  5  4  1  0  0  0
  3  4  1  0  0  0
  3  1  1  0  0  0
  2  1  2  0  0  0
  1 27  1  0  0  0
 40 37  1  0  0  0
 27 37  1  0  0  0
 27 30  1  0  0  0
 37 38  1  0  0  0
 37 39  1  0  0  0
 30 28  1  0  0  0
 28 29  2  0  0  0
 28 34  1  0  0  0
 36 35  3  0  0  0
 35 34  1  0  0  0
 34 33  1  0  0  0
 34 32  1  0  0  0
 33 32  1  0  0  0
 30 31  1  0  0  0
  6  9  1  0  0  0
 12 13  1  0  0  0
M  END
> <minimizedAffinity>
-7.35116

$$$$
5LLI_6Z3_C_301


 40 43  0  0  0  0  0  0  0  0999 V2000
   12.3817   53.4677   90.3839 C   0  0  0  0  0  0  0  0  0  0  0  0
   12.7071   52.3321   90.6951 O   0  0  0  0  0  0  0  0  0  0  0  0
   12.9002   54.5632   90.9664 N   0  0  0  0  0  0  0  0  0  0  0  0
   12.6097   55.9776   90.6439 C   0  0  0  0  0  0  0  0  0  0  0  0
   13.8252   56.7262   91.1544 C   0  0  0  0  0  0  0  0  0  0  0  0
   14.9004   56.6753   90.2061 O   0  0  0  0  0  0  0  0  0  0  0  0
   14.2268   55.9647   92.3854 C   0  0  0  0  0  0  0  0  0  0  0  0
   13.9303   54.5125   92.0630 C   0  0  0  0  0  0  0  0  0  0  0  0
   15.1234   55.7499   90.0195 H   0  0  0  0  0  0  0  0  0  0  0  0
   13.4714   53.8928   93.2443 C   0  0  0  0  0  0  0  0  0  0  0  0
   14.0848   52.9388   93.7276 O   0  0  0  0  0  0  0  0  0  0  0  0
   12.3014   54.3780   93.7293 N   0  0  0  0  0  0  0  0  0  0  0  0
   11.8991   55.1552   93.2783 H   0  0  0  0  0  0  0  0  0  0  0  0
   11.5912   53.8040   94.9029 C   0  0  0  0  0  0  0  0  0  0  0  0
   10.6777   54.7304   95.5158 C   0  0  0  0  0  0  0  0  0  0  0  0
    9.2935   54.5214   95.5610 C   0  0  0  0  0  0  0  0  0  0  0  0
    8.4299   55.4505   96.1724 C   0  0  0  0  0  0  0  0  0  0  0  0
   11.1524   55.9104   96.0990 C   0  0  0  0  0  0  0  0  0  0  0  0
   10.2892   56.8255   96.7119 C   0  0  0  0  0  0  0  0  0  0  0  0
    8.9048   56.6168   96.7448 C   0  0  0  0  0  0  0  0  0  0  0  0
    8.0535   57.4845   97.3139 C   0  0  0  0  0  0  0  0  0  0  0  0
    7.3718   58.8482   96.6002 S   0  0  0  0  0  0  0  0  0  0  0  0
    6.5007   59.2995   97.9230 C   0  0  0  0  0  0  0  0  0  0  0  0
    6.7381   58.4335   98.9112 N   0  0  0  0  0  0  0  0  0  0  0  0
    7.5868   57.4533   98.5719 C   0  0  0  0  0  0  0  0  0  0  0  0
    7.9442   56.3991   99.5905 C   0  0  0  0  0  0  0  0  0  0  0  0
   11.3586   53.6607   89.2545 C   0  0  0  0  0  0  0  0  0  0  0  0
   11.8587   53.1280   86.9056 C   0  0  0  0  0  0  0  0  0  0  0  0
   11.5513   54.2408   86.4928 O   0  0  0  0  0  0  0  0  0  0  0  0
   11.7737   52.7499   88.1881 N   0  0  0  0  0  0  0  0  0  0  0  0
   11.9999   51.8208   88.4223 H   0  0  0  0  0  0  0  0  0  0  0  0
   11.8650   52.2135   84.4552 C   0  0  0  0  0  0  0  0  0  0  0  0
   13.3305   52.3722   84.8503 C   0  0  0  0  0  0  0  0  0  0  0  0
   12.3092   52.0606   85.8986 C   0  0  0  0  0  0  0  0  0  0  0  0
   12.3459   50.8089   86.3486 C   0  0  0  0  0  0  0  0  0  0  0  0
   12.3795   49.9304   86.6555 N   0  0  0  0  0  0  0  0  0  0  0  0
    9.9275   53.2941   89.6904 C   0  0  0  0  0  0  0  0  0  0  0  0
    9.5935   51.8096   89.4261 C   0  0  0  0  0  0  0  0  0  0  0  0
    8.9554   54.1262   88.8504 C   0  0  0  0  0  0  0  0  0  0  0  0
    9.6847   53.6174   91.1849 C   0  0  0  0  0  0  0  0  0  0  0  0
 24 23  2  0  0  0
 24 25  1  0  0  0
 23 22  1  0  0  0
 26 25  1  0  0  0
 25 21  2  0  0  0
 22 21  1  0  0  0
 21 20  1  0  0  0
 20 19  2  0  0  0
 20 17  1  0  0  0
 19 18  1  0  0  0
 17 16  2  0  0  0
 18 15  2  0  0  0
 16 15  1  0  0  0
 15 14  1  0  0  0
 14 12  1  0  0  0
 12 10  1  0  0  0
 10 11  2  0  0  0
 10  8  1  0  0  0
  7  8  1  0  0  0
  7  5  1  0  0  0
  8  3  1  0  0  0
  5  6  1  0  0  0
  5  4  1  0  0  0
  3  4  1  0  0  0
  3  1  1  0  0  0
  2  1  2  0  0  0
  1 27  1  0  0  0
 40 37  1  0  0  0
 27 37  1  0  0  0
 27 30  1  0  0  0
 37 38  1  0  0  0
 37 39  1  0  0  0
 30 28  1  0  0  0
 28 29  2  0  0  0
 28 34  1  0  0  0
 36 35  3  0  0  0
 35 34  1  0  0  0
 34 33  1  0  0  0
 34 32  1  0  0  0
 33 32  1  0  0  0
 30 31  1  0  0  0
  6  9  1  0  0  0
 12 13  1  0  0  0
M  END
> <minimizedAffinity>
-6.76186

$$$$
5LLI_6Z3_C_301


 40 43  0  0  0  0  0  0  0  0999 V2000
   12.3817   53.3782   90.2715 C   0  0  0  0  0  0  0  0  0  0  0  0
   12.6615   52.2247   90.5606 O   0  0  0  0  0  0  0  0  0  0  0  0
   12.8745   54.4391   90.9349 N   0  0  0  0  0  0  0  0  0  0  0  0
   12.6355   55.8708   90.6483 C   0  0  0  0  0  0  0  0  0  0  0  0
   13.8223   56.5729   91.2786 C   0  0  0  0  0  0  0  0  0  0  0  0
   14.9654   56.5355   90.4126 O   0  0  0  0  0  0  0  0  0  0  0  0
   14.1149   55.7560   92.5048 C   0  0  0  0  0  0  0  0  0  0  0  0
   13.8170   54.3241   92.1030 C   0  0  0  0  0  0  0  0  0  0  0  0
   15.1849   55.6134   90.2065 H   0  0  0  0  0  0  0  0  0  0  0  0
   13.2581   53.6692   93.2206 C   0  0  0  0  0  0  0  0  0  0  0  0
   12.5478   54.2880   94.0159 O   0  0  0  0  0  0  0  0  0  0  0  0
   13.6257   52.3721   93.3684 N   0  0  0  0  0  0  0  0  0  0  0  0
   14.1843   51.9655   92.6670 H   0  0  0  0  0  0  0  0  0  0  0  0
   13.2337   51.5285   94.5286 C   0  0  0  0  0  0  0  0  0  0  0  0
   14.2411   51.4791   95.5538 C   0  0  0  0  0  0  0  0  0  0  0  0
   15.3351   50.6058   95.5083 C   0  0  0  0  0  0  0  0  0  0  0  0
   16.3035   50.5876   96.5304 C   0  0  0  0  0  0  0  0  0  0  0  0
   14.1575   52.3210   96.6684 C   0  0  0  0  0  0  0  0  0  0  0  0
   15.1278   52.3030   97.6766 C   0  0  0  0  0  0  0  0  0  0  0  0
   16.2139   51.4202   97.6314 C   0  0  0  0  0  0  0  0  0  0  0  0
   17.1510   51.3729   98.5912 C   0  0  0  0  0  0  0  0  0  0  0  0
   17.9584   52.6787   99.2814 S   0  0  0  0  0  0  0  0  0  0  0  0
   18.8694   51.7735  100.3125 C   0  0  0  0  0  0  0  0  0  0  0  0
   18.5803   50.4837  100.1237 N   0  0  0  0  0  0  0  0  0  0  0  0
   17.6485   50.2759   99.1830 C   0  0  0  0  0  0  0  0  0  0  0  0
   17.2196   48.8643   98.8663 C   0  0  0  0  0  0  0  0  0  0  0  0
   11.4513   53.6366   89.0769 C   0  0  0  0  0  0  0  0  0  0  0  0
   12.0354   53.1068   86.7467 C   0  0  0  0  0  0  0  0  0  0  0  0
   11.7492   54.2222   86.3257 O   0  0  0  0  0  0  0  0  0  0  0  0
   11.9010   52.7261   88.0242 N   0  0  0  0  0  0  0  0  0  0  0  0
   12.1136   51.7953   88.2643 H   0  0  0  0  0  0  0  0  0  0  0  0
   12.0601   52.1531   84.3115 C   0  0  0  0  0  0  0  0  0  0  0  0
   13.5213   52.3694   84.6949 C   0  0  0  0  0  0  0  0  0  0  0  0
   12.5174   52.0395   85.7544 C   0  0  0  0  0  0  0  0  0  0  0  0
   12.6005   50.7974   86.2243 C   0  0  0  0  0  0  0  0  0  0  0  0
   12.6481   49.9259   86.5491 N   0  0  0  0  0  0  0  0  0  0  0  0
    9.9780   53.3278   89.4032 C   0  0  0  0  0  0  0  0  0  0  0  0
    8.9984   54.1393   88.5275 C   0  0  0  0  0  0  0  0  0  0  0  0
    9.7245   53.7401   90.8553 C   0  0  0  0  0  0  0  0  0  0  0  0
    9.6652   51.8182   89.2605 C   0  0  0  0  0  0  0  0  0  0  0  0
 24 23  2  0  0  0
 24 25  1  0  0  0
 23 22  1  0  0  0
 26 25  1  0  0  0
 25 21  2  0  0  0
 22 21  1  0  0  0
 21 20  1  0  0  0
 20 19  2  0  0  0
 20 17  1  0  0  0
 19 18  1  0  0  0
 17 16  2  0  0  0
 18 15  2  0  0  0
 16 15  1  0  0  0
 15 14  1  0  0  0
 14 12  1  0  0  0
 12 10  1  0  0  0
 10 11  2  0  0  0
 10  8  1  0  0  0
  7  8  1  0  0  0
  7  5  1  0  0  0
  8  3  1  0  0  0
  5  6  1  0  0  0
  5  4  1  0  0  0
  3  4  1  0  0  0
  3  1  1  0  0  0
  2  1  2  0  0  0
  1 27  1  0  0  0
 40 37  1  0  0  0
 27 37  1  0  0  0
 27 30  1  0  0  0
 37 38  1  0  0  0
 37 39  1  0  0  0
 30 28  1  0  0  0
 28 29  2  0  0  0
 28 34  1  0  0  0
 36 35  3  0  0  0
 35 34  1  0  0  0
 34 33  1  0  0  0
 34 32  1  0  0  0
 33 32  1  0  0  0
 30 31  1  0  0  0
  6  9  1  0  0  0
 12 13  1  0  0  0
M  END
> <minimizedAffinity>
-6.59046

$$$$
5LLI_6Z3_C_301


 40 43  0  0  0  0  0  0  0  0999 V2000
   12.9702   52.2425   92.4861 C   0  0  0  0  0  0  0  0  0  0  0  0
   14.1294   52.2279   92.8714 O   0  0  0  0  0  0  0  0  0  0  0  0
   12.4236   53.2938   91.8501 N   0  0  0  0  0  0  0  0  0  0  0  0
   11.0511   53.4047   91.3089 C   0  0  0  0  0  0  0  0  0  0  0  0
   11.1616   54.4842   90.2502 C   0  0  0  0  0  0  0  0  0  0  0  0
   11.6621   53.9499   89.0165 O   0  0  0  0  0  0  0  0  0  0  0  0
   12.1758   55.4387   90.8131 C   0  0  0  0  0  0  0  0  0  0  0  0
   13.1735   54.5635   91.5475 C   0  0  0  0  0  0  0  0  0  0  0  0
   12.5248   53.5340   89.1707 H   0  0  0  0  0  0  0  0  0  0  0  0
   13.5950   55.2615   92.6988 C   0  0  0  0  0  0  0  0  0  0  0  0
   14.7499   55.6844   92.7844 O   0  0  0  0  0  0  0  0  0  0  0  0
   12.6703   55.3492   93.6871 N   0  0  0  0  0  0  0  0  0  0  0  0
   11.7693   54.9929   93.5122 H   0  0  0  0  0  0  0  0  0  0  0  0
   12.9387   55.9524   95.0195 C   0  0  0  0  0  0  0  0  0  0  0  0
   11.7544   56.4668   95.6528 C   0  0  0  0  0  0  0  0  0  0  0  0
   11.7114   57.7092   96.2980 C   0  0  0  0  0  0  0  0  0  0  0  0
   10.5319   58.1810   96.9055 C   0  0  0  0  0  0  0  0  0  0  0  0
   10.5713   55.7196   95.6529 C   0  0  0  0  0  0  0  0  0  0  0  0
    9.4006   56.1982   96.2518 C   0  0  0  0  0  0  0  0  0  0  0  0
    9.3661   57.4365   96.9050 C   0  0  0  0  0  0  0  0  0  0  0  0
    8.2608   57.9131   97.4989 C   0  0  0  0  0  0  0  0  0  0  0  0
    7.2098   59.0797   96.8923 S   0  0  0  0  0  0  0  0  0  0  0  0
    6.1879   59.0578   98.1837 C   0  0  0  0  0  0  0  0  0  0  0  0
    6.6487   58.1850   99.0829 N   0  0  0  0  0  0  0  0  0  0  0  0
    7.7782   57.5712   98.7036 C   0  0  0  0  0  0  0  0  0  0  0  0
    8.4112   56.5545   99.6214 C   0  0  0  0  0  0  0  0  0  0  0  0
   12.1020   50.9946   92.7057 C   0  0  0  0  0  0  0  0  0  0  0  0
   12.9078   49.4916   90.9328 C   0  0  0  0  0  0  0  0  0  0  0  0
   12.2190   50.0055   90.0583 O   0  0  0  0  0  0  0  0  0  0  0  0
   12.8997   49.8698   92.2181 N   0  0  0  0  0  0  0  0  0  0  0  0
   13.4533   49.3701   92.8607 H   0  0  0  0  0  0  0  0  0  0  0  0
   13.3871   47.4402   89.3828 C   0  0  0  0  0  0  0  0  0  0  0  0
   14.6432   48.3057   89.3379 C   0  0  0  0  0  0  0  0  0  0  0  0
   13.7952   48.2926   90.5707 C   0  0  0  0  0  0  0  0  0  0  0  0
   14.3199   47.6220   91.5932 C   0  0  0  0  0  0  0  0  0  0  0  0
   14.6766   47.1494   92.3119 N   0  0  0  0  0  0  0  0  0  0  0  0
   11.7743   50.7621   94.1926 C   0  0  0  0  0  0  0  0  0  0  0  0
   12.8723   49.9541   94.9182 C   0  0  0  0  0  0  0  0  0  0  0  0
   10.4897   49.9330   94.2642 C   0  0  0  0  0  0  0  0  0  0  0  0
   11.5387   52.0967   94.9414 C   0  0  0  0  0  0  0  0  0  0  0  0
 24 23  2  0  0  0
 24 25  1  0  0  0
 23 22  1  0  0  0
 26 25  1  0  0  0
 25 21  2  0  0  0
 22 21  1  0  0  0
 21 20  1  0  0  0
 20 19  2  0  0  0
 20 17  1  0  0  0
 19 18  1  0  0  0
 17 16  2  0  0  0
 18 15  2  0  0  0
 16 15  1  0  0  0
 15 14  1  0  0  0
 14 12  1  0  0  0
 12 10  1  0  0  0
 10 11  2  0  0  0
 10  8  1  0  0  0
  7  8  1  0  0  0
  7  5  1  0  0  0
  8  3  1  0  0  0
  5  6  1  0  0  0
  5  4  1  0  0  0
  3  4  1  0  0  0
  3  1  1  0  0  0
  2  1  2  0  0  0
  1 27  1  0  0  0
 40 37  1  0  0  0
 27 37  1  0  0  0
 27 30  1  0  0  0
 37 38  1  0  0  0
 37 39  1  0  0  0
 30 28  1  0  0  0
 28 29  2  0  0  0
 28 34  1  0  0  0
 36 35  3  0  0  0
 35 34  1  0  0  0
 34 33  1  0  0  0
 34 32  1  0  0  0
 33 32  1  0  0  0
 30 31  1  0  0  0
  6  9  1  0  0  0
 12 13  1  0  0  0
M  END
> <minimizedAffinity>
-6.58207

$$$$
5LLI_6Z3_C_301


 40 43  0  0  0  0  0  0  0  0999 V2000
   10.8812   54.5315   92.2389 C   0  0  0  0  0  0  0  0  0  0  0  0
   10.9460   55.0638   91.1412 O   0  0  0  0  0  0  0  0  0  0  0  0
   11.8159   54.7010   93.1907 N   0  0  0  0  0  0  0  0  0  0  0  0
   11.8191   54.1399   94.5597 C   0  0  0  0  0  0  0  0  0  0  0  0
   12.7316   55.0705   95.3341 C   0  0  0  0  0  0  0  0  0  0  0  0
   12.0299   56.2469   95.7605 O   0  0  0  0  0  0  0  0  0  0  0  0
   13.7782   55.4659   94.3317 C   0  0  0  0  0  0  0  0  0  0  0  0
   13.0408   55.5571   93.0094 C   0  0  0  0  0  0  0  0  0  0  0  0
   11.6579   56.6995   94.9874 H   0  0  0  0  0  0  0  0  0  0  0  0
   13.9097   55.0971   91.9976 C   0  0  0  0  0  0  0  0  0  0  0  0
   14.8538   54.3547   92.2756 O   0  0  0  0  0  0  0  0  0  0  0  0
   13.6610   55.5917   90.7594 N   0  0  0  0  0  0  0  0  0  0  0  0
   12.8701   56.1656   90.6394 H   0  0  0  0  0  0  0  0  0  0  0  0
   14.5140   55.3173   89.5727 C   0  0  0  0  0  0  0  0  0  0  0  0
   13.7964   54.6852   88.4984 C   0  0  0  0  0  0  0  0  0  0  0  0
   12.7189   53.8152   88.7074 C   0  0  0  0  0  0  0  0  0  0  0  0
   12.0385   53.2164   87.6297 C   0  0  0  0  0  0  0  0  0  0  0  0
   14.1646   54.9184   87.1688 C   0  0  0  0  0  0  0  0  0  0  0  0
   13.4788   54.3260   86.1023 C   0  0  0  0  0  0  0  0  0  0  0  0
   12.4089   53.4484   86.3174 C   0  0  0  0  0  0  0  0  0  0  0  0
   11.7430   52.8565   85.3135 C   0  0  0  0  0  0  0  0  0  0  0  0
   10.2474   53.3083   84.6870 S   0  0  0  0  0  0  0  0  0  0  0  0
   10.1880   52.1200   83.5483 C   0  0  0  0  0  0  0  0  0  0  0  0
   11.2869   51.3687   83.6520 N   0  0  0  0  0  0  0  0  0  0  0  0
   12.1238   51.7742   84.6172 C   0  0  0  0  0  0  0  0  0  0  0  0
   13.4101   51.0193   84.8457 C   0  0  0  0  0  0  0  0  0  0  0  0
    9.6633   53.6540   92.5647 C   0  0  0  0  0  0  0  0  0  0  0  0
    7.3787   54.5660   92.5641 C   0  0  0  0  0  0  0  0  0  0  0  0
    7.1507   54.2404   93.7239 O   0  0  0  0  0  0  0  0  0  0  0  0
    8.5244   54.3069   91.9198 N   0  0  0  0  0  0  0  0  0  0  0  0
    8.6030   54.5666   90.9734 H   0  0  0  0  0  0  0  0  0  0  0  0
    4.9147   54.5803   91.6870 C   0  0  0  0  0  0  0  0  0  0  0  0
    5.1033   55.8958   92.4374 C   0  0  0  0  0  0  0  0  0  0  0  0
    6.2719   55.2568   91.7553 C   0  0  0  0  0  0  0  0  0  0  0  0
    6.6566   55.8651   90.6362 C   0  0  0  0  0  0  0  0  0  0  0  0
    6.9183   56.2993   89.8550 N   0  0  0  0  0  0  0  0  0  0  0  0
    9.8008   52.2271   92.0013 C   0  0  0  0  0  0  0  0  0  0  0  0
   11.2754   51.8016   91.8290 C   0  0  0  0  0  0  0  0  0  0  0  0
    9.1665   52.2113   90.6084 C   0  0  0  0  0  0  0  0  0  0  0  0
    9.0667   51.1901   92.8861 C   0  0  0  0  0  0  0  0  0  0  0  0
 24 23  2  0  0  0
 24 25  1  0  0  0
 23 22  1  0  0  0
 26 25  1  0  0  0
 25 21  2  0  0  0
 22 21  1  0  0  0
 21 20  1  0  0  0
 20 19  2  0  0  0
 20 17  1  0  0  0
 19 18  1  0  0  0
 17 16  2  0  0  0
 18 15  2  0  0  0
 16 15  1  0  0  0
 15 14  1  0  0  0
 14 12  1  0  0  0
 12 10  1  0  0  0
 10 11  2  0  0  0
 10  8  1  0  0  0
  7  8  1  0  0  0
  7  5  1  0  0  0
  8  3  1  0  0  0
  5  6  1  0  0  0
  5  4  1  0  0  0
  3  4  1  0  0  0
  3  1  1  0  0  0
  2  1  2  0  0  0
  1 27  1  0  0  0
 40 37  1  0  0  0
 27 37  1  0  0  0
 27 30  1  0  0  0
 37 38  1  0  0  0
 37 39  1  0  0  0
 30 28  1  0  0  0
 28 29  2  0  0  0
 28 34  1  0  0  0
 36 35  3  0  0  0
 35 34  1  0  0  0
 34 33  1  0  0  0
 34 32  1  0  0  0
 33 32  1  0  0  0
 30 31  1  0  0  0
  6  9  1  0  0  0
 12 13  1  0  0  0
M  END
> <minimizedAffinity>
-6.55116

$$$$
5LLI_6Z3_C_301


 40 43  0  0  0  0  0  0  0  0999 V2000
   11.6028   51.1209   84.1761 C   0  0  0  0  0  0  0  0  0  0  0  0
   12.5178   51.0254   84.9800 O   0  0  0  0  0  0  0  0  0  0  0  0
   10.4804   51.8188   84.4244 N   0  0  0  0  0  0  0  0  0  0  0  0
    9.3331   52.0324   83.5149 C   0  0  0  0  0  0  0  0  0  0  0  0
    8.6762   53.2918   84.0446 C   0  0  0  0  0  0  0  0  0  0  0  0
    9.3450   54.4661   83.5631 O   0  0  0  0  0  0  0  0  0  0  0  0
    8.8667   53.1998   85.5318 C   0  0  0  0  0  0  0  0  0  0  0  0
   10.2262   52.5522   85.7141 C   0  0  0  0  0  0  0  0  0  0  0  0
   10.2795   54.4347   83.8211 H   0  0  0  0  0  0  0  0  0  0  0  0
   10.1547   51.7081   86.8423 C   0  0  0  0  0  0  0  0  0  0  0  0
    9.1594   51.0067   87.0350 O   0  0  0  0  0  0  0  0  0  0  0  0
   11.2064   51.7987   87.6939 N   0  0  0  0  0  0  0  0  0  0  0  0
   11.9610   52.3774   87.4392 H   0  0  0  0  0  0  0  0  0  0  0  0
   11.2855   51.0743   88.9902 C   0  0  0  0  0  0  0  0  0  0  0  0
   11.5264   51.9464   90.1080 C   0  0  0  0  0  0  0  0  0  0  0  0
   12.0617   51.5007   91.3232 C   0  0  0  0  0  0  0  0  0  0  0  0
   12.2859   52.3853   92.3955 C   0  0  0  0  0  0  0  0  0  0  0  0
   11.2190   53.3087   90.0211 C   0  0  0  0  0  0  0  0  0  0  0  0
   11.4519   54.1836   91.0882 C   0  0  0  0  0  0  0  0  0  0  0  0
   11.9773   53.7306   92.3047 C   0  0  0  0  0  0  0  0  0  0  0  0
   12.1978   54.5456   93.3481 C   0  0  0  0  0  0  0  0  0  0  0  0
   11.1959   54.7754   94.6811 S   0  0  0  0  0  0  0  0  0  0  0  0
   12.1756   55.8684   95.4280 C   0  0  0  0  0  0  0  0  0  0  0  0
   13.2504   56.0765   94.6635 N   0  0  0  0  0  0  0  0  0  0  0  0
   13.2511   55.3564   93.5332 C   0  0  0  0  0  0  0  0  0  0  0  0
   14.4079   55.4880   92.5734 C   0  0  0  0  0  0  0  0  0  0  0  0
   11.7486   50.4430   82.8055 C   0  0  0  0  0  0  0  0  0  0  0  0
   13.5629   51.4895   81.5154 C   0  0  0  0  0  0  0  0  0  0  0  0
   12.8099   52.2046   80.8637 O   0  0  0  0  0  0  0  0  0  0  0  0
   13.1541   50.6044   82.4344 N   0  0  0  0  0  0  0  0  0  0  0  0
   13.8273   50.0395   82.8782 H   0  0  0  0  0  0  0  0  0  0  0  0
   15.7712   52.8838   81.3751 C   0  0  0  0  0  0  0  0  0  0  0  0
   16.0568   51.7370   82.3406 C   0  0  0  0  0  0  0  0  0  0  0  0
   15.0705   51.5449   81.2318 C   0  0  0  0  0  0  0  0  0  0  0  0
   15.5070   50.7832   80.2320 C   0  0  0  0  0  0  0  0  0  0  0  0
   15.8233   50.2539   79.5341 N   0  0  0  0  0  0  0  0  0  0  0  0
   11.4191   48.9392   82.8569 C   0  0  0  0  0  0  0  0  0  0  0  0
   12.0221   48.2463   84.0984 C   0  0  0  0  0  0  0  0  0  0  0  0
   12.0501   48.2802   81.6279 C   0  0  0  0  0  0  0  0  0  0  0  0
    9.8920   48.6871   82.8185 C   0  0  0  0  0  0  0  0  0  0  0  0
 24 23  2  0  0  0
 24 25  1  0  0  0
 23 22  1  0  0  0
 26 25  1  0  0  0
 25 21  2  0  0  0
 22 21  1  0  0  0
 21 20  1  0  0  0
 20 19  2  0  0  0
 20 17  1  0  0  0
 19 18  1  0  0  0
 17 16  2  0  0  0
 18 15  2  0  0  0
 16 15  1  0  0  0
 15 14  1  0  0  0
 14 12  1  0  0  0
 12 10  1  0  0  0
 10 11  2  0  0  0
 10  8  1  0  0  0
  7  8  1  0  0  0
  7  5  1  0  0  0
  8  3  1  0  0  0
  5  6  1  0  0  0
  5  4  1  0  0  0
  3  4  1  0  0  0
  3  1  1  0  0  0
  2  1  2  0  0  0
  1 27  1  0  0  0
 40 37  1  0  0  0
 27 37  1  0  0  0
 27 30  1  0  0  0
 37 38  1  0  0  0
 37 39  1  0  0  0
 30 28  1  0  0  0
 28 29  2  0  0  0
 28 34  1  0  0  0
 36 35  3  0  0  0
 35 34  1  0  0  0
 34 33  1  0  0  0
 34 32  1  0  0  0
 33 32  1  0  0  0
 30 31  1  0  0  0
  6  9  1  0  0  0
 12 13  1  0  0  0
M  END
> <minimizedAffinity>
-6.51000

$$$$
5LLI_6Z3_C_301


 40 43  0  0  0  0  0  0  0  0999 V2000
   12.1050   53.7285   92.1993 C   0  0  0  0  0  0  0  0  0  0  0  0
   13.0550   52.9731   92.0605 O   0  0  0  0  0  0  0  0  0  0  0  0
   11.2875   54.0699   91.1876 N   0  0  0  0  0  0  0  0  0  0  0  0
   10.0923   54.9398   91.2499 C   0  0  0  0  0  0  0  0  0  0  0  0
    9.2743   54.5241   90.0431 C   0  0  0  0  0  0  0  0  0  0  0  0
    8.4997   53.3494   90.3227 O   0  0  0  0  0  0  0  0  0  0  0  0
   10.3073   54.1890   89.0053 C   0  0  0  0  0  0  0  0  0  0  0  0
   11.4533   53.5656   89.7790 C   0  0  0  0  0  0  0  0  0  0  0  0
    9.0901   52.6308   90.5983 H   0  0  0  0  0  0  0  0  0  0  0  0
   12.6584   53.9727   89.1688 C   0  0  0  0  0  0  0  0  0  0  0  0
   13.6121   54.3435   89.8564 O   0  0  0  0  0  0  0  0  0  0  0  0
   12.6378   53.9885   87.8127 N   0  0  0  0  0  0  0  0  0  0  0  0
   11.8308   53.6562   87.3572 H   0  0  0  0  0  0  0  0  0  0  0  0
   13.7638   54.4790   86.9743 C   0  0  0  0  0  0  0  0  0  0  0  0
   13.9427   53.7141   85.7697 C   0  0  0  0  0  0  0  0  0  0  0  0
   15.0764   53.8263   84.9548 C   0  0  0  0  0  0  0  0  0  0  0  0
   15.2176   53.0585   83.7830 C   0  0  0  0  0  0  0  0  0  0  0  0
   12.9592   52.8100   85.3536 C   0  0  0  0  0  0  0  0  0  0  0  0
   13.1098   52.0443   84.1919 C   0  0  0  0  0  0  0  0  0  0  0  0
   14.2406   52.1684   83.3751 C   0  0  0  0  0  0  0  0  0  0  0  0
   14.4039   51.4564   82.2490 C   0  0  0  0  0  0  0  0  0  0  0  0
   13.4746   50.1505   81.7345 S   0  0  0  0  0  0  0  0  0  0  0  0
   14.3129   49.9007   80.3391 C   0  0  0  0  0  0  0  0  0  0  0  0
   15.3070   50.7893   80.2688 N   0  0  0  0  0  0  0  0  0  0  0  0
   15.3510   51.6275   81.3137 C   0  0  0  0  0  0  0  0  0  0  0  0
   16.4225   52.6885   81.3658 C   0  0  0  0  0  0  0  0  0  0  0  0
   11.8057   54.2914   93.5968 C   0  0  0  0  0  0  0  0  0  0  0  0
   10.2310   53.0888   95.0547 C   0  0  0  0  0  0  0  0  0  0  0  0
    9.4153   54.0038   95.0814 O   0  0  0  0  0  0  0  0  0  0  0  0
   11.4019   53.1417   94.4056 N   0  0  0  0  0  0  0  0  0  0  0  0
   12.0156   52.3751   94.4760 H   0  0  0  0  0  0  0  0  0  0  0  0
   11.0397   50.7664   95.9449 C   0  0  0  0  0  0  0  0  0  0  0  0
   10.6233   51.5681   97.1749 C   0  0  0  0  0  0  0  0  0  0  0  0
    9.9460   51.8158   95.8638 C   0  0  0  0  0  0  0  0  0  0  0  0
    8.7076   51.3358   95.7841 C   0  0  0  0  0  0  0  0  0  0  0  0
    7.8367   51.0107   95.7289 N   0  0  0  0  0  0  0  0  0  0  0  0
   13.0422   54.9429   94.2441 C   0  0  0  0  0  0  0  0  0  0  0  0
   14.0278   55.5053   93.1964 C   0  0  0  0  0  0  0  0  0  0  0  0
   13.7897   53.8569   95.0216 C   0  0  0  0  0  0  0  0  0  0  0  0
   12.6449   56.0673   95.2315 C   0  0  0  0  0  0  0  0  0  0  0  0
 24 23  2  0  0  0
 24 25  1  0  0  0
 23 22  1  0  0  0
 26 25  1  0  0  0
 25 21  2  0  0  0
 22 21  1  0  0  0
 21 20  1  0  0  0
 20 19  2  0  0  0
 20 17  1  0  0  0
 19 18  1  0  0  0
 17 16  2  0  0  0
 18 15  2  0  0  0
 16 15  1  0  0  0
 15 14  1  0  0  0
 14 12  1  0  0  0
 12 10  1  0  0  0
 10 11  2  0  0  0
 10  8  1  0  0  0
  7  8  1  0  0  0
  7  5  1  0  0  0
  8  3  1  0  0  0
  5  6  1  0  0  0
  5  4  1  0  0  0
  3  4  1  0  0  0
  3  1  1  0  0  0
  2  1  2  0  0  0
  1 27  1  0  0  0
 40 37  1  0  0  0
 27 37  1  0  0  0
 27 30  1  0  0  0
 37 38  1  0  0  0
 37 39  1  0  0  0
 30 28  1  0  0  0
 28 29  2  0  0  0
 28 34  1  0  0  0
 36 35  3  0  0  0
 35 34  1  0  0  0
 34 33  1  0  0  0
 34 32  1  0  0  0
 33 32  1  0  0  0
 30 31  1  0  0  0
  6  9  1  0  0  0
 12 13  1  0  0  0
M  END
> <minimizedAffinity>
-6.45735

$$$$
5LLI_6Z3_C_301


 40 43  0  0  0  0  0  0  0  0999 V2000
   11.0040   52.1021   83.9450 C   0  0  0  0  0  0  0  0  0  0  0  0
   11.4596   52.8216   84.8209 O   0  0  0  0  0  0  0  0  0  0  0  0
    9.7655   52.2542   83.4436 N   0  0  0  0  0  0  0  0  0  0  0  0
    9.1294   51.4704   82.3619 C   0  0  0  0  0  0  0  0  0  0  0  0
    8.0446   52.3888   81.8343 C   0  0  0  0  0  0  0  0  0  0  0  0
    8.5795   53.3400   80.9031 O   0  0  0  0  0  0  0  0  0  0  0  0
    7.5664   53.1208   83.0557 C   0  0  0  0  0  0  0  0  0  0  0  0
    8.8071   53.3191   83.9055 C   0  0  0  0  0  0  0  0  0  0  0  0
    9.2816   53.8533   81.3326 H   0  0  0  0  0  0  0  0  0  0  0  0
    8.4284   53.1933   85.2587 C   0  0  0  0  0  0  0  0  0  0  0  0
    7.4091   52.5718   85.5664 O   0  0  0  0  0  0  0  0  0  0  0  0
    9.2172   53.8581   86.1392 N   0  0  0  0  0  0  0  0  0  0  0  0
   10.0193   54.3117   85.7926 H   0  0  0  0  0  0  0  0  0  0  0  0
    8.9405   53.9414   87.5979 C   0  0  0  0  0  0  0  0  0  0  0  0
    9.8253   53.1260   88.3857 C   0  0  0  0  0  0  0  0  0  0  0  0
   11.1945   53.3909   88.5166 C   0  0  0  0  0  0  0  0  0  0  0  0
   12.0297   52.5708   89.2991 C   0  0  0  0  0  0  0  0  0  0  0  0
    9.3370   52.0032   89.0628 C   0  0  0  0  0  0  0  0  0  0  0  0
   10.1714   51.1970   89.8452 C   0  0  0  0  0  0  0  0  0  0  0  0
   11.5417   51.4602   89.9639 C   0  0  0  0  0  0  0  0  0  0  0  0
   12.3666   50.6957   90.6966 C   0  0  0  0  0  0  0  0  0  0  0  0
   12.7189   50.8689   92.3334 S   0  0  0  0  0  0  0  0  0  0  0  0
   13.7486   49.5859   92.4096 C   0  0  0  0  0  0  0  0  0  0  0  0
   13.8436   49.0371   91.1960 N   0  0  0  0  0  0  0  0  0  0  0  0
   13.0923   49.6501   90.2708 C   0  0  0  0  0  0  0  0  0  0  0  0
   13.0983   49.1340   88.8530 C   0  0  0  0  0  0  0  0  0  0  0  0
   11.8921   50.9922   83.3630 C   0  0  0  0  0  0  0  0  0  0  0  0
   13.8716   51.6221   82.0453 C   0  0  0  0  0  0  0  0  0  0  0  0
   13.4539   51.1191   81.0082 O   0  0  0  0  0  0  0  0  0  0  0  0
   13.2198   51.5879   83.2153 N   0  0  0  0  0  0  0  0  0  0  0  0
   13.6521   51.9799   84.0082 H   0  0  0  0  0  0  0  0  0  0  0  0
   16.3182   51.7047   81.1245 C   0  0  0  0  0  0  0  0  0  0  0  0
   15.7272   53.0899   80.8773 C   0  0  0  0  0  0  0  0  0  0  0  0
   15.2581   52.2809   82.0455 C   0  0  0  0  0  0  0  0  0  0  0  0
   15.7049   52.7056   83.2247 C   0  0  0  0  0  0  0  0  0  0  0  0
   16.0267   53.0075   84.0447 N   0  0  0  0  0  0  0  0  0  0  0  0
   11.9971   49.7734   84.2989 C   0  0  0  0  0  0  0  0  0  0  0  0
   10.7731   49.6397   85.2312 C   0  0  0  0  0  0  0  0  0  0  0  0
   13.2207   49.9767   85.1958 C   0  0  0  0  0  0  0  0  0  0  0  0
   12.1845   48.4575   83.5049 C   0  0  0  0  0  0  0  0  0  0  0  0
 24 23  2  0  0  0
 24 25  1  0  0  0
 23 22  1  0  0  0
 26 25  1  0  0  0
 25 21  2  0  0  0
 22 21  1  0  0  0
 21 20  1  0  0  0
 20 19  2  0  0  0
 20 17  1  0  0  0
 19 18  1  0  0  0
 17 16  2  0  0  0
 18 15  2  0  0  0
 16 15  1  0  0  0
 15 14  1  0  0  0
 14 12  1  0  0  0
 12 10  1  0  0  0
 10 11  2  0  0  0
 10  8  1  0  0  0
  7  8  1  0  0  0
  7  5  1  0  0  0
  8  3  1  0  0  0
  5  6  1  0  0  0
  5  4  1  0  0  0
  3  4  1  0  0  0
  3  1  1  0  0  0
  2  1  2  0  0  0
  1 27  1  0  0  0
 40 37  1  0  0  0
 27 37  1  0  0  0
 27 30  1  0  0  0
 37 38  1  0  0  0
 37 39  1  0  0  0
 30 28  1  0  0  0
 28 29  2  0  0  0
 28 34  1  0  0  0
 36 35  3  0  0  0
 35 34  1  0  0  0
 34 33  1  0  0  0
 34 32  1  0  0  0
 33 32  1  0  0  0
 30 31  1  0  0  0
  6  9  1  0  0  0
 12 13  1  0  0  0
M  END
> <minimizedAffinity>
-6.42933

$$$$
