4QAC_KK3_A_304


 26 28  0  0  0  0  0  0  0  0999 V2000
  -48.8378  -47.6096   29.4492 C   0  0  0  0  0  0  0  0  0  0  0  0
  -49.7000  -47.4358   30.5767 C   0  0  0  0  0  0  0  0  0  0  0  0
  -49.2874  -47.4269   28.1709 N   0  0  0  0  0  0  0  0  0  0  0  0
  -50.6314  -47.0974   28.0485 C   0  0  0  0  0  0  0  0  0  0  0  0
  -51.1175  -46.9202   26.7532 N   0  0  0  0  0  0  0  0  0  0  0  0
  -51.5150  -46.9193   29.0495 N   0  0  0  0  0  0  0  0  0  0  0  0
  -51.0519  -47.0911   30.3092 C   0  0  0  0  0  0  0  0  0  0  0  0
  -50.5171  -47.0373   25.9819 H   0  0  0  0  0  0  0  0  0  0  0  0
  -52.0610  -46.6781   26.6104 H   0  0  0  0  0  0  0  0  0  0  0  0
  -46.5521  -47.1697   28.5262 C   0  0  0  0  0  0  0  0  0  0  0  0
  -45.0950  -47.2252   28.9727 C   0  0  0  0  0  0  0  0  0  0  0  0
  -44.8762  -46.6474   30.3860 C   0  0  0  0  0  0  0  0  0  0  0  0
  -44.5362  -45.1640   30.3105 C   0  0  0  0  0  0  0  0  0  0  0  0
  -46.1322  -46.8759   31.2306 C   0  0  0  0  0  0  0  0  0  0  0  0
  -46.8856  -48.1203   30.8007 C   0  0  0  0  0  0  0  0  0  0  0  0
  -47.4618  -47.9223   29.4605 N   0  0  0  0  0  0  0  0  0  0  0  0
  -52.1005  -46.8806   31.3601 C   0  0  0  0  0  0  0  0  0  0  0  0
  -52.8680  -47.9682   31.8243 C   0  0  0  0  0  0  0  0  0  0  0  0
  -53.9010  -47.7861   32.7673 C   0  0  0  0  0  0  0  0  0  0  0  0
  -54.1812  -46.5054   33.2448 C   0  0  0  0  0  0  0  0  0  0  0  0
  -53.4569  -45.4175   32.7801 C   0  0  0  0  0  0  0  0  0  0  0  0
  -52.4358  -45.5991   31.8405 C   0  0  0  0  0  0  0  0  0  0  0  0
  -55.3022  -46.2681   34.2542 C   0  0  0  0  0  0  0  0  0  0  0  0
  -55.2482  -45.1051   34.9387 F   0  0  0  0  0  0  0  0  0  0  0  0
  -55.4555  -47.2502   35.1855 F   0  0  0  0  0  0  0  0  0  0  0  0
  -56.4934  -46.1952   33.6313 F   0  0  0  0  0  0  0  0  0  0  0  0
  5  4  1  0  0  0
  4  3  2  0  0  0
  4  6  1  0  0  0
  3  1  1  0  0  0
 10 11  1  0  0  0
 10 16  1  0  0  0
  6  7  2  0  0  0
 11 12  1  0  0  0
  1 16  1  0  0  0
  1  2  2  0  0  0
 16 15  1  0  0  0
  7  2  1  0  0  0
  7 17  1  0  0  0
 12 13  1  0  0  0
 12 14  1  0  0  0
 15 14  1  0  0  0
 17 18  2  0  0  0
 17 22  1  0  0  0
 18 19  1  0  0  0
 22 21  2  0  0  0
 19 20  2  0  0  0
 21 20  1  0  0  0
 20 23  1  0  0  0
 26 23  1  0  0  0
 23 25  1  0  0  0
 23 24  1  0  0  0
  5  8  1  0  0  0
  5  9  1  0  0  0
M  END
> <minimizedAffinity>
-11.82986

$$$$
4QAC_KK3_A_304


 26 28  0  0  0  0  0  0  0  0999 V2000
  -43.3899  -47.6039   27.8834 C   0  0  0  0  0  0  0  0  0  0  0  0
  -44.7597  -47.9429   28.1151 C   0  0  0  0  0  0  0  0  0  0  0  0
  -42.8454  -46.4515   28.3783 N   0  0  0  0  0  0  0  0  0  0  0  0
  -43.7161  -45.6307   29.0841 C   0  0  0  0  0  0  0  0  0  0  0  0
  -43.1877  -44.4419   29.5865 N   0  0  0  0  0  0  0  0  0  0  0  0
  -45.0165  -45.8658   29.3452 N   0  0  0  0  0  0  0  0  0  0  0  0
  -45.5376  -47.0163   28.8596 C   0  0  0  0  0  0  0  0  0  0  0  0
  -42.2426  -44.2170   29.4269 H   0  0  0  0  0  0  0  0  0  0  0  0
  -43.7597  -43.8275   30.1009 H   0  0  0  0  0  0  0  0  0  0  0  0
  -41.9518  -49.6530   27.8333 C   0  0  0  0  0  0  0  0  0  0  0  0
  -41.3227  -50.5989   26.8159 C   0  0  0  0  0  0  0  0  0  0  0  0
  -42.2845  -50.9776   25.6711 C   0  0  0  0  0  0  0  0  0  0  0  0
  -43.0464  -52.2523   26.0123 C   0  0  0  0  0  0  0  0  0  0  0  0
  -43.2504  -49.8186   25.4121 C   0  0  0  0  0  0  0  0  0  0  0  0
  -42.6286  -48.4767   25.7486 C   0  0  0  0  0  0  0  0  0  0  0  0
  -42.4194  -48.3688   27.2018 N   0  0  0  0  0  0  0  0  0  0  0  0
  -46.9892  -47.1954   29.1898 C   0  0  0  0  0  0  0  0  0  0  0  0
  -47.9496  -47.2501   28.1592 C   0  0  0  0  0  0  0  0  0  0  0  0
  -49.3265  -47.3568   28.4461 C   0  0  0  0  0  0  0  0  0  0  0  0
  -49.7533  -47.3976   29.7739 C   0  0  0  0  0  0  0  0  0  0  0  0
  -48.8272  -47.3167   30.8035 C   0  0  0  0  0  0  0  0  0  0  0  0
  -47.4619  -47.2055   30.5172 C   0  0  0  0  0  0  0  0  0  0  0  0
  -51.2367  -47.4971   30.1225 C   0  0  0  0  0  0  0  0  0  0  0  0
  -51.7736  -46.4248   30.7436 F   0  0  0  0  0  0  0  0  0  0  0  0
  -51.5803  -48.5815   30.8716 F   0  0  0  0  0  0  0  0  0  0  0  0
  -51.9803  -47.6008   29.0051 F   0  0  0  0  0  0  0  0  0  0  0  0
  5  4  1  0  0  0
  4  3  2  0  0  0
  4  6  1  0  0  0
  3  1  1  0  0  0
 10 11  1  0  0  0
 10 16  1  0  0  0
  6  7  2  0  0  0
 11 12  1  0  0  0
  1 16  1  0  0  0
  1  2  2  0  0  0
 16 15  1  0  0  0
  7  2  1  0  0  0
  7 17  1  0  0  0
 12 13  1  0  0  0
 12 14  1  0  0  0
 15 14  1  0  0  0
 17 18  2  0  0  0
 17 22  1  0  0  0
 18 19  1  0  0  0
 22 21  2  0  0  0
 19 20  2  0  0  0
 21 20  1  0  0  0
 20 23  1  0  0  0
 26 23  1  0  0  0
 23 25  1  0  0  0
 23 24  1  0  0  0
  5  8  1  0  0  0
  5  9  1  0  0  0
M  END
> <minimizedAffinity>
-10.57634

$$$$
4QAC_KK3_A_304


 26 28  0  0  0  0  0  0  0  0999 V2000
  -43.4136  -46.0259   28.8047 C   0  0  0  0  0  0  0  0  0  0  0  0
  -44.6455  -46.7435   28.9173 C   0  0  0  0  0  0  0  0  0  0  0  0
  -43.2889  -44.7439   29.2635 N   0  0  0  0  0  0  0  0  0  0  0  0
  -44.4388  -44.1868   29.8089 C   0  0  0  0  0  0  0  0  0  0  0  0
  -44.3407  -42.8745   30.2707 N   0  0  0  0  0  0  0  0  0  0  0  0
  -45.6382  -44.7835   29.9500 N   0  0  0  0  0  0  0  0  0  0  0  0
  -45.7423  -46.0563   29.5028 C   0  0  0  0  0  0  0  0  0  0  0  0
  -43.4883  -42.3880   30.1938 H   0  0  0  0  0  0  0  0  0  0  0  0
  -45.1239  -42.4346   30.6735 H   0  0  0  0  0  0  0  0  0  0  0  0
  -41.8358  -47.9469   28.5052 C   0  0  0  0  0  0  0  0  0  0  0  0
  -40.7897  -48.4391   27.5107 C   0  0  0  0  0  0  0  0  0  0  0  0
  -41.2395  -48.2933   26.0425 C   0  0  0  0  0  0  0  0  0  0  0  0
  -41.9290  -49.5657   25.5655 C   0  0  0  0  0  0  0  0  0  0  0  0
  -42.1725  -47.0868   25.9123 C   0  0  0  0  0  0  0  0  0  0  0  0
  -41.8592  -46.0148   26.9386 C   0  0  0  0  0  0  0  0  0  0  0  0
  -42.1882  -46.4992   28.2893 N   0  0  0  0  0  0  0  0  0  0  0  0
  -47.1098  -46.6412   29.6922 C   0  0  0  0  0  0  0  0  0  0  0  0
  -47.8918  -46.9937   28.5734 C   0  0  0  0  0  0  0  0  0  0  0  0
  -49.2041  -47.4886   28.7236 C   0  0  0  0  0  0  0  0  0  0  0  0
  -49.7487  -47.6229   30.0012 C   0  0  0  0  0  0  0  0  0  0  0  0
  -49.0067  -47.2553   31.1141 C   0  0  0  0  0  0  0  0  0  0  0  0
  -47.7068  -46.7595   30.9631 C   0  0  0  0  0  0  0  0  0  0  0  0
  -51.1713  -48.1404   30.2015 C   0  0  0  0  0  0  0  0  0  0  0  0
  -51.3300  -49.4801   30.1377 F   0  0  0  0  0  0  0  0  0  0  0  0
  -52.1012  -47.6073   29.3611 F   0  0  0  0  0  0  0  0  0  0  0  0
  -51.6139  -47.8439   31.4377 F   0  0  0  0  0  0  0  0  0  0  0  0
  5  4  1  0  0  0
  4  3  2  0  0  0
  4  6  1  0  0  0
  3  1  1  0  0  0
 10 11  1  0  0  0
 10 16  1  0  0  0
  6  7  2  0  0  0
 11 12  1  0  0  0
  1 16  1  0  0  0
  1  2  2  0  0  0
 16 15  1  0  0  0
  7  2  1  0  0  0
  7 17  1  0  0  0
 12 13  1  0  0  0
 12 14  1  0  0  0
 15 14  1  0  0  0
 17 18  2  0  0  0
 17 22  1  0  0  0
 18 19  1  0  0  0
 22 21  2  0  0  0
 19 20  2  0  0  0
 21 20  1  0  0  0
 20 23  1  0  0  0
 26 23  1  0  0  0
 23 25  1  0  0  0
 23 24  1  0  0  0
  5  8  1  0  0  0
  5  9  1  0  0  0
M  END
> <minimizedAffinity>
-9.69993

$$$$
4QAC_KK3_A_304


 26 28  0  0  0  0  0  0  0  0999 V2000
  -51.0850  -46.7890   30.8390 C   0  0  0  0  0  0  0  0  0  0  0  0
  -49.6800  -47.0507   30.8903 C   0  0  0  0  0  0  0  0  0  0  0  0
  -51.7612  -46.7474   29.6513 N   0  0  0  0  0  0  0  0  0  0  0  0
  -50.9886  -46.9424   28.5133 C   0  0  0  0  0  0  0  0  0  0  0  0
  -51.6533  -46.8899   27.2883 N   0  0  0  0  0  0  0  0  0  0  0  0
  -49.6651  -47.1883   28.4666 N   0  0  0  0  0  0  0  0  0  0  0  0
  -49.0122  -47.2391   29.6507 C   0  0  0  0  0  0  0  0  0  0  0  0
  -52.6215  -46.7135   27.2608 H   0  0  0  0  0  0  0  0  0  0  0  0
  -51.1544  -47.0292   26.4511 H   0  0  0  0  0  0  0  0  0  0  0  0
  -52.9673  -45.4786   31.8437 C   0  0  0  0  0  0  0  0  0  0  0  0
  -54.1387  -45.6847   32.7981 C   0  0  0  0  0  0  0  0  0  0  0  0
  -54.9003  -47.0011   32.5409 C   0  0  0  0  0  0  0  0  0  0  0  0
  -56.0538  -46.7712   31.5723 C   0  0  0  0  0  0  0  0  0  0  0  0
  -53.9313  -48.0524   31.9941 C   0  0  0  0  0  0  0  0  0  0  0  0
  -52.5170  -47.8360   32.4978 C   0  0  0  0  0  0  0  0  0  0  0  0
  -51.9631  -46.5973   31.9269 N   0  0  0  0  0  0  0  0  0  0  0  0
  -47.5446  -47.5103   29.5073 C   0  0  0  0  0  0  0  0  0  0  0  0
  -46.7535  -47.7546   30.6484 C   0  0  0  0  0  0  0  0  0  0  0  0
  -45.3607  -47.9519   30.5454 C   0  0  0  0  0  0  0  0  0  0  0  0
  -44.7464  -47.8938   29.2939 C   0  0  0  0  0  0  0  0  0  0  0  0
  -45.5019  -47.6267   28.1616 C   0  0  0  0  0  0  0  0  0  0  0  0
  -46.8829  -47.4258   28.2661 C   0  0  0  0  0  0  0  0  0  0  0  0
  -43.2389  -48.0871   29.1459 C   0  0  0  0  0  0  0  0  0  0  0  0
  -42.7172  -47.7823   27.9380 F   0  0  0  0  0  0  0  0  0  0  0  0
  -42.7859  -49.3347   29.4514 F   0  0  0  0  0  0  0  0  0  0  0  0
  -42.5717  -47.2652   29.9774 F   0  0  0  0  0  0  0  0  0  0  0  0
  5  4  1  0  0  0
  4  3  2  0  0  0
  4  6  1  0  0  0
  3  1  1  0  0  0
 10 11  1  0  0  0
 10 16  1  0  0  0
  6  7  2  0  0  0
 11 12  1  0  0  0
  1 16  1  0  0  0
  1  2  2  0  0  0
 16 15  1  0  0  0
  7  2  1  0  0  0
  7 17  1  0  0  0
 12 13  1  0  0  0
 12 14  1  0  0  0
 15 14  1  0  0  0
 17 18  2  0  0  0
 17 22  1  0  0  0
 18 19  1  0  0  0
 22 21  2  0  0  0
 19 20  2  0  0  0
 21 20  1  0  0  0
 20 23  1  0  0  0
 26 23  1  0  0  0
 23 25  1  0  0  0
 23 24  1  0  0  0
  5  8  1  0  0  0
  5  9  1  0  0  0
M  END
> <minimizedAffinity>
-9.01785

$$$$
4QAC_KK3_A_304


 26 28  0  0  0  0  0  0  0  0999 V2000
  -47.8694  -47.4506   30.0994 C   0  0  0  0  0  0  0  0  0  0  0  0
  -48.9866  -47.2114   30.9595 C   0  0  0  0  0  0  0  0  0  0  0  0
  -48.0343  -47.6876   28.7630 N   0  0  0  0  0  0  0  0  0  0  0  0
  -49.3492  -47.7114   28.3151 C   0  0  0  0  0  0  0  0  0  0  0  0
  -49.5441  -47.9660   26.9578 N   0  0  0  0  0  0  0  0  0  0  0  0
  -50.4581  -47.5035   29.0509 N   0  0  0  0  0  0  0  0  0  0  0  0
  -50.2779  -47.2576   30.3692 C   0  0  0  0  0  0  0  0  0  0  0  0
  -48.7700  -48.1255   26.3707 H   0  0  0  0  0  0  0  0  0  0  0  0
  -50.4557  -47.9862   26.5867 H   0  0  0  0  0  0  0  0  0  0  0  0
  -45.5632  -48.3355   29.6900 C   0  0  0  0  0  0  0  0  0  0  0  0
  -44.1134  -47.8732   29.7892 C   0  0  0  0  0  0  0  0  0  0  0  0
  -43.8991  -46.4440   29.2500 C   0  0  0  0  0  0  0  0  0  0  0  0
  -43.5250  -46.4800   27.7734 C   0  0  0  0  0  0  0  0  0  0  0  0
  -45.1704  -45.6201   29.4698 C   0  0  0  0  0  0  0  0  0  0  0  0
  -45.9461  -46.0886   30.6862 C   0  0  0  0  0  0  0  0  0  0  0  0
  -46.5010  -47.4303   30.4435 N   0  0  0  0  0  0  0  0  0  0  0  0
  -51.5620  -47.0446   31.1135 C   0  0  0  0  0  0  0  0  0  0  0  0
  -51.9339  -45.7503   31.5306 C   0  0  0  0  0  0  0  0  0  0  0  0
  -53.1058  -45.5323   32.2846 C   0  0  0  0  0  0  0  0  0  0  0  0
  -53.9106  -46.6161   32.6376 C   0  0  0  0  0  0  0  0  0  0  0  0
  -53.5482  -47.9012   32.2615 C   0  0  0  0  0  0  0  0  0  0  0  0
  -52.3823  -48.1164   31.5180 C   0  0  0  0  0  0  0  0  0  0  0  0
  -55.1782  -46.4200   33.4663 C   0  0  0  0  0  0  0  0  0  0  0  0
  -55.6171  -47.5021   34.1446 F   0  0  0  0  0  0  0  0  0  0  0  0
  -56.2506  -45.9450   32.7739 F   0  0  0  0  0  0  0  0  0  0  0  0
  -54.9711  -45.5168   34.4428 F   0  0  0  0  0  0  0  0  0  0  0  0
  5  4  1  0  0  0
  4  3  2  0  0  0
  4  6  1  0  0  0
  3  1  1  0  0  0
 10 11  1  0  0  0
 10 16  1  0  0  0
  6  7  2  0  0  0
 11 12  1  0  0  0
  1 16  1  0  0  0
  1  2  2  0  0  0
 16 15  1  0  0  0
  7  2  1  0  0  0
  7 17  1  0  0  0
 12 13  1  0  0  0
 12 14  1  0  0  0
 15 14  1  0  0  0
 17 18  2  0  0  0
 17 22  1  0  0  0
 18 19  1  0  0  0
 22 21  2  0  0  0
 19 20  2  0  0  0
 21 20  1  0  0  0
 20 23  1  0  0  0
 26 23  1  0  0  0
 23 25  1  0  0  0
 23 24  1  0  0  0
  5  8  1  0  0  0
  5  9  1  0  0  0
M  END
> <minimizedAffinity>
-8.99669

$$$$
