3PO6_DT9_A_262
  RCSB PDB12061710173D
Coordinates from PDB:3PO6:A:262 Model:1 without hydrogens
 19 20  0  0  0  0            999 V2000
   -3.4630    4.7380    9.5310   C 0  0  0  0  0  0  0  0  0  0  0  0
   -7.3150    7.2130   12.0570   C 0  0  0  0  0  0  0  0  0  0  0  0
   -5.6020    4.2000   16.1210   C 0  0  0  0  0  0  0  0  0  0  0  0
   -5.3570   -0.6010   16.2180   N 0  0  0  0  0  0  0  0  0  0  0  0
   -5.1810    1.4280   17.7960   O 0  0  0  0  0  0  0  0  0  0  0  0
   -7.3630    1.2110   16.8330   O 0  0  0  0  0  0  0  0  0  0  0  0
   -4.5890    3.3020   11.6010   C 0  0  0  0  0  0  0  0  0  0  0  0
   -6.3630    4.7990   13.1350   C 0  0  0  0  0  0  0  0  0  0  0  0
   -4.1670    1.6360   13.4140   C 0  0  0  0  0  0  0  0  0  0  0  0
   -4.1920    1.6420   14.9470   C 0  0  0  0  0  0  0  0  0  0  0  0
   -4.8780    4.8630    9.7830   O 0  0  0  0  0  0  0  0  0  0  0  0
   -6.5970    6.3240   11.2080   O 0  0  0  0  0  0  0  0  0  0  0  0
   -4.8850    2.8850   12.8950   C 0  0  0  0  0  0  0  0  0  0  0  0
   -5.1700    4.4520   11.0660   C 0  0  0  0  0  0  0  0  0  0  0  0
   -6.0530    5.2180   11.8250   C 0  0  0  0  0  0  0  0  0  0  0  0
   -5.7720    3.6500   13.6670   C 0  0  0  0  0  0  0  0  0  0  0  0
   -6.1250    3.2080   15.0950   C 0  0  0  0  0  0  0  0  0  0  0  0
   -5.6230    1.8200   15.2950   N 0  0  0  0  0  0  0  0  0  0  0  0
   -5.9130    0.9810   16.6140   S 0  0  0  0  0  0  0  0  0  0  0  0
  1 11  1  0  0  0  0
  2 12  1  0  0  0  0
  3 17  1  0  0  0  0
  4 19  1  0  0  0  0
  5 19  2  0  0  0  0
  6 19  2  0  0  0  0
  7 13  2  0  0  0  0
  7 14  1  0  0  0  0
  8 15  1  0  0  0  0
  8 16  2  0  0  0  0
  9 10  1  0  0  0  0
  9 13  1  0  0  0  0
 10 18  1  0  0  0  0
 11 14  1  0  0  0  0
 12 15  1  0  0  0  0
 13 16  1  0  0  0  0
 14 15  2  0  0  0  0
 16 17  1  0  0  0  0
 17 18  1  0  0  0  0
 18 19  1  0  0  0  0
A    1
CAA
A    2
CAB
A    3
CAC
A    4
NAD
A    5
OAE
A    6
OAF
A    7
CAG
A    8
CAH
A    9
CAI
A   10
CAJ
A   11
OAK
A   12
OAL
A   13
CAM
A   14
CAN
A   15
CAO
A   16
CAP
A   17
CAQ
A   18
NAR
A   19
SAS
M  END
>  <InstanceId>
3PO6_DT9_A_262

>  <ChemCompId>
DT9

>  <PdbId>
3PO6

>  <ChainId>
A

>  <ResidueNumber>
262

>  <InsertionCode>


>  <Model>
1

>  <AltIds>


>  <MissingHeavyAtoms>
0

>  <ObservedFormula>
C12 N2 O4 S

>  <Name>
(1S)-6,7-dimethoxy-1-methyl-3,4-dihydroisoquinoline-2(1H)-sulfonamide

>  <SystematicName>
(1S,2R)-6,7-dimethoxy-1-methyl-3,4-dihydro-1H-isoquinoline-2-sulfonamide

>  <Synonyms>


>  <Type>
NON-POLYMER

>  <Formula>
C12 H18 N2 O4 S

>  <MolecularWeight>
286.347

>  <ModifiedDate>
2011-06-04

>  <Parent>


>  <OneLetterCode>


>  <SubcomponentList>


>  <AmbiguousFlag>
N

>  <InChI>
InChI=1S/C12H18N2O4S/c1-8-10-7-12(18-3)11(17-2)6-9(10)4-5-14(8)19(13,15)16/h6-8H,4-5H2,1-3H3,(H2,13,15,16)/t8-/m0/s1

>  <InChIKey>
GUJQIHRSATWPQA-QMMMGPOBSA-N

>  <SMILES>
C[C@H]1c2cc(c(cc2CC[N@]1S(=O)(=O)N)OC)OC

$$$$
