3TAY_MN0_A_1000
  RCSB PDB12061710513D
Coordinates from PDB:3TAY:A:1000 Model:1 without hydrogens
 23 23  0  0  0  0            999 V2000
  -33.0300   39.1750   21.9960   C 0  0  0  0  0  0  0  0  0  0  0  0
  -32.9430   40.7070   21.8010   C 0  0  0  0  0  0  0  0  0  0  0  0
  -33.5240   41.0360   20.5190   O 0  0  0  0  0  0  0  0  0  0  0  0
  -33.7840   41.4780   22.8470   C 0  0  0  0  0  0  0  0  0  0  0  0
  -33.0640   41.6730   24.2000   C 0  0  0  0  0  0  0  0  0  0  0  0
  -33.7510   42.6740   24.9500   O 0  0  0  0  0  0  0  0  0  0  0  0
  -31.5870   42.0920   24.0570   C 0  0  0  0  0  0  0  0  0  0  0  0
  -30.9630   42.1400   25.4010   N 0  0  0  0  0  0  0  0  0  0  0  0
  -30.8580   41.1390   23.0990   C 0  0  0  0  0  0  0  0  0  0  0  0
  -31.5680   41.1690   21.8130   O 0  0  0  0  0  0  0  0  0  0  0  0
  -29.3980   41.4580   22.7390   C 0  0  0  0  0  0  0  0  0  0  0  0
  -29.2970   42.8390   22.3530   O 0  0  0  0  0  0  0  0  0  0  0  0
  -28.9030   40.5570   21.5950   C 0  0  0  0  0  0  0  0  0  0  0  0
  -29.3290   39.2050   21.8000   O 0  0  0  0  0  0  0  0  0  0  0  0
  -27.3820   40.5780   21.4730   C 0  0  0  0  0  0  0  0  0  0  0  0
  -27.0150   39.7480   20.3720   O 0  0  0  0  0  0  0  0  0  0  0  0
  -30.0060   43.0140   25.7480   C 0  0  0  0  0  0  0  0  0  0  0  0
  -29.5170   43.8460   24.9890   O 0  0  0  0  0  0  0  0  0  0  0  0
  -29.4990   42.9240   27.1940   C 0  0  0  0  0  0  0  0  0  0  0  0
  -30.1850   41.9260   27.9510   O 0  0  0  0  0  0  0  0  0  0  0  0
  -32.9670   40.2900   19.4210   C 0  0  0  0  0  0  0  0  0  0  0  0
  -31.9570   38.5340   22.0650   O 0  0  0  0  0  0  0  0  0  0  0  0
  -34.1700   38.6740   22.0320   O 0  0  0  0  0  0  0  0  0  0  0  0
  1  2  1  0  0  0  0
  2  3  1  0  0  0  0
  3 21  1  0  0  0  0
  4  2  1  0  0  0  0
  5  4  1  0  0  0  0
  6  5  1  0  0  0  0
  7  5  1  0  0  0  0
  7  9  1  0  0  0  0
  8  7  1  0  0  0  0
  9 11  1  0  0  0  0
  9 10  1  0  0  0  0
 10  2  1  0  0  0  0
 11 12  1  0  0  0  0
 11 13  1  0  0  0  0
 14 13  1  0  0  0  0
 15 13  1  0  0  0  0
 15 16  1  0  0  0  0
 17  8  1  0  0  0  0
 17 18  2  0  0  0  0
 19 17  1  0  0  0  0
 20 19  1  0  0  0  0
 22  1  1  0  0  0  0
 23  1  2  0  0  0  0
A    1
C1
A    2
C2
A    3
O2
A    4
C3
A    5
C4
A    6
O4
A    7
C5
A    8
N5
A    9
C6
A   10
O6
A   11
C7
A   12
O7
A   13
C8
A   14
O8
A   15
C9
A   16
O9
A   17
C10
A   18
O10
A   19
C11
A   20
O11
A   21
C12
A   22
O1B
A   23
O1A
M  END
>  <InstanceId>
3TAY_MN0_A_1000

>  <ChemCompId>
MN0

>  <PdbId>
3TAY

>  <ChainId>
A

>  <ResidueNumber>
1000

>  <InsertionCode>


>  <Model>
1

>  <AltIds>


>  <MissingHeavyAtoms>
0

>  <ObservedFormula>
C12 N O10

>  <Name>
methyl 3,5-dideoxy-5-[(hydroxyacetyl)amino]-D-glycero-alpha-D-galacto-non-2-ulopyranosidonic acid

>  <SystematicName>
(2R,4S,5R,6R)-2-methoxy-4-oxidanyl-5-(2-oxidanylethanoylamino)-6-[(1R,2R)-1,2,3-tris(oxidanyl)propyl]oxane-2-carboxylic acid

>  <Synonyms>


>  <Type>
D-saccharide

>  <Formula>
C12 H21 N O10

>  <MolecularWeight>
339.296

>  <ModifiedDate>
2011-09-23

>  <Parent>


>  <OneLetterCode>


>  <SubcomponentList>


>  <AmbiguousFlag>
N

>  <InChI>
InChI=1S/C12H21NO10/c1-22-12(11(20)21)2-5(16)8(13-7(18)4-15)10(23-12)9(19)6(17)3-14/h5-6,8-10,14-17,19H,2-4H2,1H3,(H,13,18)(H,20,21)/t5-,6+,8+,9+,10+,12+/m0/s1

>  <InChIKey>
NFUCYHODBBSMAK-BLMTXZDNSA-N

>  <SMILES>
CO[C@@]1(C[C@@H]([C@H]([C@@H](O1)[C@@H]([C@@H](CO)O)O)NC(=O)CO)O)C(=O)O

$$$$
