4KO8_AGS_A_800
  RCSB PDB12061713243D
Coordinates from PDB:4KO8:A:800 Model:1 without hydrogens
 31 33  0  0  0  0            999 V2000
   18.1480   52.8820  -12.0820   P 0  0  0  0  0  0  0  0  0  0  0  0
   16.2460   52.5280  -12.8350   S 0  0  0  0  0  0  0  0  0  0  0  0
   17.9520   53.2240  -10.6270   O 0  0  0  0  0  0  0  0  0  0  0  0
   18.8630   53.8690  -12.9660   O 0  0  0  0  0  0  0  0  0  0  0  0
   20.4050   51.1600  -11.5270   P 0  0  0  0  0  0  0  0  0  0  0  0
   20.4890   51.7820  -10.1560   O 0  0  0  0  0  0  0  0  0  0  0  0
   21.4890   51.3770  -12.5530   O 0  0  0  0  0  0  0  0  0  0  0  0
   18.9820   51.5070  -12.2120   O 0  0  0  0  0  0  0  0  0  0  0  0
   20.4380   48.7310  -10.0640   P 0  0  0  0  0  0  0  0  0  0  0  0
   21.8570   49.0370   -9.6660   O 0  0  0  0  0  0  0  0  0  0  0  0
   19.3070   48.9780   -9.1050   O 0  0  0  0  0  0  0  0  0  0  0  0
   20.1600   49.5780  -11.3980   O 0  0  0  0  0  0  0  0  0  0  0  0
   20.3380   47.2570  -10.6940   O 0  0  0  0  0  0  0  0  0  0  0  0
   19.1970   46.4290  -10.4830   C 0  0  0  0  0  0  0  0  0  0  0  0
   19.6580   44.9890  -10.3300   C 0  0  0  0  0  0  0  0  0  0  0  0
   20.1480   44.4870  -11.5840   O 0  0  0  0  0  0  0  0  0  0  0  0
   20.8100   44.8580   -9.3460   C 0  0  0  0  0  0  0  0  0  0  0  0
   20.3800   44.6290   -8.0000   O 0  0  0  0  0  0  0  0  0  0  0  0
   21.5770   43.6800   -9.8900   C 0  0  0  0  0  0  0  0  0  0  0  0
   20.9840   42.4750   -9.3980   O 0  0  0  0  0  0  0  0  0  0  0  0
   21.3670   43.7530  -11.3970   C 0  0  0  0  0  0  0  0  0  0  0  0
   22.5230   44.4400  -12.0360   N 0  0  0  0  0  0  0  0  0  0  0  0
   22.4700   45.6240  -12.6730   C 0  0  0  0  0  0  0  0  0  0  0  0
   23.6860   45.9880  -13.1410   N 0  0  0  0  0  0  0  0  0  0  0  0
   24.5640   45.0330  -12.7970   C 0  0  0  0  0  0  0  0  0  0  0  0
   26.0220   44.8050  -12.9840   C 0  0  0  0  0  0  0  0  0  0  0  0
   26.7870   45.7030  -13.6470   N 0  0  0  0  0  0  0  0  0  0  0  0
   26.5550   43.6720  -12.4710   N 0  0  0  0  0  0  0  0  0  0  0  0
   25.7940   42.7710  -11.8100   C 0  0  0  0  0  0  0  0  0  0  0  0
   24.4680   42.9180  -11.6070   N 0  0  0  0  0  0  0  0  0  0  0  0
   23.7970   44.0070  -12.0700   C 0  0  0  0  0  0  0  0  0  0  0  0
  1  2  2  0  0  0  0
  1  3  1  0  0  0  0
  1  4  1  0  0  0  0
  1  8  1  0  0  0  0
  5  6  2  0  0  0  0
  5  7  1  0  0  0  0
  5  8  1  0  0  0  0
  5 12  1  0  0  0  0
  9 10  2  0  0  0  0
  9 11  1  0  0  0  0
  9 12  1  0  0  0  0
  9 13  1  0  0  0  0
 13 14  1  0  0  0  0
 14 15  1  0  0  0  0
 15 16  1  0  0  0  0
 15 17  1  0  0  0  0
 16 21  1  0  0  0  0
 17 18  1  0  0  0  0
 17 19  1  0  0  0  0
 19 20  1  0  0  0  0
 19 21  1  0  0  0  0
 21 22  1  0  0  0  0
 22 23  1  0  0  0  0
 22 31  1  0  0  0  0
 23 24  2  0  0  0  0
 24 25  1  0  0  0  0
 25 26  1  0  0  0  0
 25 31  2  0  0  0  0
 26 27  1  0  0  0  0
 26 28  2  0  0  0  0
 28 29  1  0  0  0  0
 29 30  2  0  0  0  0
 30 31  1  0  0  0  0
A    1
PG
A    2
S1G
A    3
O2G
A    4
O3G
A    5
PB
A    6
O1B
A    7
O2B
A    8
O3B
A    9
PA
A   10
O1A
A   11
O2A
A   12
O3A
A   13
O5'
A   14
C5'
A   15
C4'
A   16
O4'
A   17
C3'
A   18
O3'
A   19
C2'
A   20
O2'
A   21
C1'
A   22
N9
A   23
C8
A   24
N7
A   25
C5
A   26
C6
A   27
N6
A   28
N1
A   29
C2
A   30
N3
A   31
C4
M  END
>  <InstanceId>
4KO8_AGS_A_800

>  <ChemCompId>
AGS

>  <PdbId>
4KO8

>  <ChainId>
A

>  <ResidueNumber>
800

>  <InsertionCode>


>  <Model>
1

>  <AltIds>


>  <MissingHeavyAtoms>
0

>  <ObservedFormula>
C10 N5 O12 P3 S

>  <Name>
PHOSPHOTHIOPHOSPHORIC ACID-ADENYLATE ESTER

>  <SystematicName>
[[(2R,3S,4R,5R)-5-(6-aminopurin-9-yl)-3,4-bis(oxidanyl)oxolan-2-yl]methoxy-oxidanyl-phosphoryl] bis(oxidanyl)phosphinothioyl hydrogen phosphate

>  <Synonyms>
ATP-GAMMA-S; ADENOSINE 5'-(3-THIOTRIPHOSPHATE); ADENOSINE 5'-(GAMMA-THIOTRIPHOSPHATE); ADENOSINE-5'-DIPHOSPHATE MONOTHIOPHOSPHATE

>  <Type>
NON-POLYMER

>  <Formula>
C10 H16 N5 O12 P3 S

>  <MolecularWeight>
523.247

>  <ModifiedDate>
2013-02-04

>  <Parent>


>  <OneLetterCode>


>  <SubcomponentList>


>  <AmbiguousFlag>
N

>  <InChI>
InChI=1S/C10H16N5O12P3S/c11-8-5-9(13-2-12-8)15(3-14-5)10-7(17)6(16)4(25-10)1-24-28(18,19)26-29(20,21)27-30(22,23)31/h2-4,6-7,10,16-17H,1H2,(H,18,19)(H,20,21)(H2,11,12,13)(H2,22,23,31)/t4-,6-,7-,10-/m1/s1

>  <InChIKey>
NLTUCYMLOPLUHL-KQYNXXCUSA-N

>  <SMILES>
c1nc(c2c(n1)n(cn2)[C@H]3[C@@H]([C@@H]([C@H](O3)COP(=O)(O)OP(=O)(O)OP(=S)(O)O)O)O)N

$$$$
