4KO8_AGS_A_800


 39 41  0  0  0  0  0  0  0  0999 V2000
   19.7312   45.0374   -9.9079 C   0  0  0  0  0  0  0  0  0  0  0  0
   20.1641   44.4072  -11.1244 O   0  0  0  0  0  0  0  0  0  0  0  0
   20.9646   45.1362   -9.0239 C   0  0  0  0  0  0  0  0  0  0  0  0
   20.6652   45.0623   -7.6260 O   0  0  0  0  0  0  0  0  0  0  0  0
   21.7904   43.9591   -9.4760 C   0  0  0  0  0  0  0  0  0  0  0  0
   21.3506   42.7905   -8.7783 O   0  0  0  0  0  0  0  0  0  0  0  0
   21.4560   43.8057  -10.9542 C   0  0  0  0  0  0  0  0  0  0  0  0
   20.2074   44.2283   -7.4371 H   0  0  0  0  0  0  0  0  0  0  0  0
   20.4020   42.6597   -8.9326 H   0  0  0  0  0  0  0  0  0  0  0  0
   22.4903   44.4875  -11.7801 N   0  0  0  0  0  0  0  0  0  0  0  0
   22.3275   45.6602  -12.4192 C   0  0  0  0  0  0  0  0  0  0  0  0
   23.4507   46.0223  -13.0808 N   0  0  0  0  0  0  0  0  0  0  0  0
   24.3795   45.0776  -12.8659 C   0  0  0  0  0  0  0  0  0  0  0  0
   25.7908   44.8536  -13.2792 C   0  0  0  0  0  0  0  0  0  0  0  0
   26.4336   45.7440  -14.0698 N   0  0  0  0  0  0  0  0  0  0  0  0
   26.4072   43.7321  -12.8397 N   0  0  0  0  0  0  0  0  0  0  0  0
   25.7680   42.8387  -12.0516 C   0  0  0  0  0  0  0  0  0  0  0  0
   24.4902   42.9826  -11.6423 N   0  0  0  0  0  0  0  0  0  0  0  0
   23.7458   44.0602  -12.0097 C   0  0  0  0  0  0  0  0  0  0  0  0
   25.9674   46.5541  -14.3791 H   0  0  0  0  0  0  0  0  0  0  0  0
   27.3675   45.5818  -14.3357 H   0  0  0  0  0  0  0  0  0  0  0  0
   19.1300   46.4009  -10.2060 C   0  0  0  0  0  0  0  0  0  0  0  0
   20.1736   47.2860  -10.6054 O   0  0  0  0  0  0  0  0  0  0  0  0
   20.2724   48.7844  -10.0354 P   0  0  0  0  0  0  0  0  0  0  0  0
   21.5054   48.9433   -9.1869 O   0  0  0  0  0  0  0  0  0  0  0  0
   18.9352   49.2519   -9.5324 O   0  0  0  0  0  0  0  0  0  0  0  0
   19.0158   50.1571   -9.1931 H   0  0  0  0  0  0  0  0  0  0  0  0
   20.5837   49.5424  -11.4149 O   0  0  0  0  0  0  0  0  0  0  0  0
   20.4594   51.1308  -11.6168 P   0  0  0  0  0  0  0  0  0  0  0  0
   20.7253   51.8386  -10.3122 O   0  0  0  0  0  0  0  0  0  0  0  0
   21.2097   51.4964  -12.8731 O   0  0  0  0  0  0  0  0  0  0  0  0
   21.1500   52.4536  -13.0184 H   0  0  0  0  0  0  0  0  0  0  0  0
   18.8770   51.1465  -11.9489 O   0  0  0  0  0  0  0  0  0  0  0  0
   17.7783   52.1960  -11.4062 P   0  0  0  0  0  0  0  0  0  0  0  0
   16.2216   52.2307  -12.7793 S   0  0  0  0  0  0  0  0  0  0  0  0
   17.1762   51.6855  -10.1219 O   0  0  0  0  0  0  0  0  0  0  0  0
   18.4712   53.5326  -11.3979 O   0  0  0  0  0  0  0  0  0  0  0  0
   16.5166   52.3195   -9.7996 H   0  0  0  0  0  0  0  0  0  0  0  0
   17.8579   54.2128  -11.0783 H   0  0  0  0  0  0  0  0  0  0  0  0
 34 35  2  0  0  0
 34 36  1  0  0  0
 34 37  1  0  0  0
 34 33  1  0  0  0
 29 30  2  0  0  0
 29 31  1  0  0  0
 29 33  1  0  0  0
 29 28  1  0  0  0
 24 25  2  0  0  0
 24 26  1  0  0  0
 24 28  1  0  0  0
 24 23  1  0  0  0
 23 22  1  0  0  0
 22  1  1  0  0  0
  1  2  1  0  0  0
  1  3  1  0  0  0
  2  7  1  0  0  0
  3  4  1  0  0  0
  3  5  1  0  0  0
  5  6  1  0  0  0
  5  7  1  0  0  0
  7 10  1  0  0  0
 10 11  1  0  0  0
 10 19  1  0  0  0
 11 12  2  0  0  0
 12 13  1  0  0  0
 13 14  1  0  0  0
 13 19  2  0  0  0
 14 15  1  0  0  0
 14 16  2  0  0  0
 16 17  1  0  0  0
 17 18  2  0  0  0
 18 19  1  0  0  0
 36 38  1  0  0  0
 37 39  1  0  0  0
 31 32  1  0  0  0
 26 27  1  0  0  0
  4  8  1  0  0  0
  6  9  1  0  0  0
 15 20  1  0  0  0
 15 21  1  0  0  0
M  END
> <minimizedAffinity>
-10.75371

$$$$
4KO8_AGS_A_800


 39 41  0  0  0  0  0  0  0  0999 V2000
   16.2758   49.4708   -8.0668 C   0  0  0  0  0  0  0  0  0  0  0  0
   16.1578   48.0424   -8.1685 O   0  0  0  0  0  0  0  0  0  0  0  0
   16.2588   49.7889   -6.5798 C   0  0  0  0  0  0  0  0  0  0  0  0
   15.6809   51.0641   -6.2815 O   0  0  0  0  0  0  0  0  0  0  0  0
   15.4363   48.6616   -6.0101 C   0  0  0  0  0  0  0  0  0  0  0  0
   14.0504   48.9962   -6.1252 O   0  0  0  0  0  0  0  0  0  0  0  0
   15.7343   47.4764   -6.9195 C   0  0  0  0  0  0  0  0  0  0  0  0
   14.7729   51.0951   -6.6213 H   0  0  0  0  0  0  0  0  0  0  0  0
   13.8379   49.1784   -7.0539 H   0  0  0  0  0  0  0  0  0  0  0  0
   16.7983   46.6292   -6.3139 N   0  0  0  0  0  0  0  0  0  0  0  0
   16.8183   46.1969   -5.0398 C   0  0  0  0  0  0  0  0  0  0  0  0
   17.9127   45.4413   -4.7918 N   0  0  0  0  0  0  0  0  0  0  0  0
   18.6253   45.3610   -5.9262 C   0  0  0  0  0  0  0  0  0  0  0  0
   19.8938   44.7079   -6.3469 C   0  0  0  0  0  0  0  0  0  0  0  0
   20.6213   43.9740   -5.4731 N   0  0  0  0  0  0  0  0  0  0  0  0
   20.2946   44.8732   -7.6287 N   0  0  0  0  0  0  0  0  0  0  0  0
   19.5721   45.6075   -8.5043 C   0  0  0  0  0  0  0  0  0  0  0  0
   18.4151   46.2250   -8.1863 N   0  0  0  0  0  0  0  0  0  0  0  0
   17.8928   46.1486   -6.9326 C   0  0  0  0  0  0  0  0  0  0  0  0
   20.3125   43.8658   -4.5446 H   0  0  0  0  0  0  0  0  0  0  0  0
   21.4593   43.5484   -5.7659 H   0  0  0  0  0  0  0  0  0  0  0  0
   17.5548   49.9428   -8.7383 C   0  0  0  0  0  0  0  0  0  0  0  0
   17.5040   51.3604   -8.8789 O   0  0  0  0  0  0  0  0  0  0  0  0
   16.5278   52.0679   -9.9400 P   0  0  0  0  0  0  0  0  0  0  0  0
   15.5897   53.0149   -9.2408 O   0  0  0  0  0  0  0  0  0  0  0  0
   16.0020   51.0663  -10.9300 O   0  0  0  0  0  0  0  0  0  0  0  0
   15.4157   51.5124  -11.5610 H   0  0  0  0  0  0  0  0  0  0  0  0
   17.6124   52.9875  -10.6831 O   0  0  0  0  0  0  0  0  0  0  0  0
   18.0065   52.8403  -12.2331 P   0  0  0  0  0  0  0  0  0  0  0  0
   16.7619   52.6745  -13.0679 O   0  0  0  0  0  0  0  0  0  0  0  0
   19.0277   53.9033  -12.5526 O   0  0  0  0  0  0  0  0  0  0  0  0
   19.2833   53.8360  -13.4859 H   0  0  0  0  0  0  0  0  0  0  0  0
   18.7758   51.4254  -12.0894 O   0  0  0  0  0  0  0  0  0  0  0  0
   20.2785   51.1837  -11.5539 P   0  0  0  0  0  0  0  0  0  0  0  0
   20.3959   49.2166  -10.9007 S   0  0  0  0  0  0  0  0  0  0  0  0
   21.2517   51.2902  -12.7001 O   0  0  0  0  0  0  0  0  0  0  0  0
   20.4397   52.1135  -10.3807 O   0  0  0  0  0  0  0  0  0  0  0  0
   22.1533   51.1442  -12.3734 H   0  0  0  0  0  0  0  0  0  0  0  0
   21.3309   52.0153  -10.0104 H   0  0  0  0  0  0  0  0  0  0  0  0
 34 35  2  0  0  0
 34 36  1  0  0  0
 34 37  1  0  0  0
 34 33  1  0  0  0
 29 30  2  0  0  0
 29 31  1  0  0  0
 29 33  1  0  0  0
 29 28  1  0  0  0
 24 25  2  0  0  0
 24 26  1  0  0  0
 24 28  1  0  0  0
 24 23  1  0  0  0
 23 22  1  0  0  0
 22  1  1  0  0  0
  1  2  1  0  0  0
  1  3  1  0  0  0
  2  7  1  0  0  0
  3  4  1  0  0  0
  3  5  1  0  0  0
  5  6  1  0  0  0
  5  7  1  0  0  0
  7 10  1  0  0  0
 10 11  1  0  0  0
 10 19  1  0  0  0
 11 12  2  0  0  0
 12 13  1  0  0  0
 13 14  1  0  0  0
 13 19  2  0  0  0
 14 15  1  0  0  0
 14 16  2  0  0  0
 16 17  1  0  0  0
 17 18  2  0  0  0
 18 19  1  0  0  0
 36 38  1  0  0  0
 37 39  1  0  0  0
 31 32  1  0  0  0
 26 27  1  0  0  0
  4  8  1  0  0  0
  6  9  1  0  0  0
 15 20  1  0  0  0
 15 21  1  0  0  0
M  END
> <minimizedAffinity>
-9.75339

$$$$
4KO8_AGS_A_800


 39 41  0  0  0  0  0  0  0  0999 V2000
   20.9162   47.7828   -9.7278 C   0  0  0  0  0  0  0  0  0  0  0  0
   20.6286   47.4755   -8.3540 O   0  0  0  0  0  0  0  0  0  0  0  0
   19.7380   47.2558  -10.5318 C   0  0  0  0  0  0  0  0  0  0  0  0
   20.0989   46.8297  -11.8499 O   0  0  0  0  0  0  0  0  0  0  0  0
   19.2532   46.1028   -9.6907 C   0  0  0  0  0  0  0  0  0  0  0  0
   20.0250   44.9414  -10.0092 O   0  0  0  0  0  0  0  0  0  0  0  0
   19.5608   46.5214   -8.2587 C   0  0  0  0  0  0  0  0  0  0  0  0
   20.7762   46.1378  -11.7919 H   0  0  0  0  0  0  0  0  0  0  0  0
   20.9663   45.1312   -9.8721 H   0  0  0  0  0  0  0  0  0  0  0  0
   18.3478   47.1180   -7.6346 N   0  0  0  0  0  0  0  0  0  0  0  0
   17.1633   47.2944   -8.2481 C   0  0  0  0  0  0  0  0  0  0  0  0
   16.2552   47.8549   -7.4167 N   0  0  0  0  0  0  0  0  0  0  0  0
   16.8453   48.0422   -6.2259 C   0  0  0  0  0  0  0  0  0  0  0  0
   16.4366   48.5938   -4.9062 C   0  0  0  0  0  0  0  0  0  0  0  0
   15.1823   49.0602   -4.7056 N   0  0  0  0  0  0  0  0  0  0  0  0
   17.3595   48.6139   -3.9169 N   0  0  0  0  0  0  0  0  0  0  0  0
   18.6145   48.1511   -4.1136 C   0  0  0  0  0  0  0  0  0  0  0  0
   19.0477   47.6395   -5.2848 N   0  0  0  0  0  0  0  0  0  0  0  0
   18.2295   47.5595   -6.3686 C   0  0  0  0  0  0  0  0  0  0  0  0
   14.5253   49.0368   -5.4385 H   0  0  0  0  0  0  0  0  0  0  0  0
   14.9267   49.4231   -3.8269 H   0  0  0  0  0  0  0  0  0  0  0  0
   21.1053   49.2804   -9.9041 C   0  0  0  0  0  0  0  0  0  0  0  0
   20.3198   49.7157  -11.0111 O   0  0  0  0  0  0  0  0  0  0  0  0
   20.3633   51.2350  -11.5301 P   0  0  0  0  0  0  0  0  0  0  0  0
   21.1919   51.3388  -12.7824 O   0  0  0  0  0  0  0  0  0  0  0  0
   20.5901   52.1825  -10.3852 O   0  0  0  0  0  0  0  0  0  0  0  0
   20.6132   53.0930  -10.7187 H   0  0  0  0  0  0  0  0  0  0  0  0
   18.8346   51.3692  -11.9984 O   0  0  0  0  0  0  0  0  0  0  0  0
   17.5889   50.7566  -11.1907 P   0  0  0  0  0  0  0  0  0  0  0  0
   17.0928   49.5092  -11.8773 O   0  0  0  0  0  0  0  0  0  0  0  0
   17.9450   50.7549   -9.7251 O   0  0  0  0  0  0  0  0  0  0  0  0
   17.2069   50.3884   -9.2135 H   0  0  0  0  0  0  0  0  0  0  0  0
   16.5751   51.9862  -11.4645 O   0  0  0  0  0  0  0  0  0  0  0  0
   16.6786   53.4839  -10.8736 P   0  0  0  0  0  0  0  0  0  0  0  0
   14.8655   54.4245  -11.2452 S   0  0  0  0  0  0  0  0  0  0  0  0
   16.8096   53.4322   -9.3727 O   0  0  0  0  0  0  0  0  0  0  0  0
   17.7655   54.1546  -11.6708 O   0  0  0  0  0  0  0  0  0  0  0  0
   16.8714   54.3345   -9.0223 H   0  0  0  0  0  0  0  0  0  0  0  0
   17.8777   55.0669  -11.3610 H   0  0  0  0  0  0  0  0  0  0  0  0
 34 35  2  0  0  0
 34 36  1  0  0  0
 34 37  1  0  0  0
 34 33  1  0  0  0
 29 30  2  0  0  0
 29 31  1  0  0  0
 29 33  1  0  0  0
 29 28  1  0  0  0
 24 25  2  0  0  0
 24 26  1  0  0  0
 24 28  1  0  0  0
 24 23  1  0  0  0
 23 22  1  0  0  0
 22  1  1  0  0  0
  1  2  1  0  0  0
  1  3  1  0  0  0
  2  7  1  0  0  0
  3  4  1  0  0  0
  3  5  1  0  0  0
  5  6  1  0  0  0
  5  7  1  0  0  0
  7 10  1  0  0  0
 10 11  1  0  0  0
 10 19  1  0  0  0
 11 12  2  0  0  0
 12 13  1  0  0  0
 13 14  1  0  0  0
 13 19  2  0  0  0
 14 15  1  0  0  0
 14 16  2  0  0  0
 16 17  1  0  0  0
 17 18  2  0  0  0
 18 19  1  0  0  0
 36 38  1  0  0  0
 37 39  1  0  0  0
 31 32  1  0  0  0
 26 27  1  0  0  0
  4  8  1  0  0  0
  6  9  1  0  0  0
 15 20  1  0  0  0
 15 21  1  0  0  0
M  END
> <minimizedAffinity>
-9.74961

$$$$
4KO8_AGS_A_800


 39 41  0  0  0  0  0  0  0  0999 V2000
   20.9400   48.5578   -9.6893 C   0  0  0  0  0  0  0  0  0  0  0  0
   20.8630   48.1086   -8.3266 O   0  0  0  0  0  0  0  0  0  0  0  0
   20.3458   47.4415  -10.5338 C   0  0  0  0  0  0  0  0  0  0  0  0
   20.9252   47.3514  -11.8397 O   0  0  0  0  0  0  0  0  0  0  0  0
   20.6399   46.2128   -9.7118 C   0  0  0  0  0  0  0  0  0  0  0  0
   21.9664   45.7662  -10.0062 O   0  0  0  0  0  0  0  0  0  0  0  0
   20.5927   46.7003   -8.2694 C   0  0  0  0  0  0  0  0  0  0  0  0
   21.8818   47.2119  -11.7600 H   0  0  0  0  0  0  0  0  0  0  0  0
   22.5948   46.4854   -9.8368 H   0  0  0  0  0  0  0  0  0  0  0  0
   19.2512   46.4238   -7.6858 N   0  0  0  0  0  0  0  0  0  0  0  0
   18.2644   47.3268   -7.5401 C   0  0  0  0  0  0  0  0  0  0  0  0
   17.1638   46.7703   -6.9839 N   0  0  0  0  0  0  0  0  0  0  0  0
   17.4219   45.4710   -6.7681 C   0  0  0  0  0  0  0  0  0  0  0  0
   16.6770   44.3133   -6.2045 C   0  0  0  0  0  0  0  0  0  0  0  0
   15.4073   44.4540   -5.7580 N   0  0  0  0  0  0  0  0  0  0  0  0
   17.3110   43.1190   -6.1528 N   0  0  0  0  0  0  0  0  0  0  0  0
   18.5802   42.9746   -6.5956 C   0  0  0  0  0  0  0  0  0  0  0  0
   19.3097   43.9833   -7.1166 N   0  0  0  0  0  0  0  0  0  0  0  0
   18.8022   45.2405   -7.2276 C   0  0  0  0  0  0  0  0  0  0  0  0
   14.9636   45.3316   -5.8044 H   0  0  0  0  0  0  0  0  0  0  0  0
   14.9273   43.6787   -5.3868 H   0  0  0  0  0  0  0  0  0  0  0  0
   20.1846   49.8659   -9.8563 C   0  0  0  0  0  0  0  0  0  0  0  0
   20.0697   50.1560  -11.2472 O   0  0  0  0  0  0  0  0  0  0  0  0
   20.4975   51.5824  -11.8489 P   0  0  0  0  0  0  0  0  0  0  0  0
   21.5448   51.4096  -12.9161 O   0  0  0  0  0  0  0  0  0  0  0  0
   20.6888   52.5887  -10.7487 O   0  0  0  0  0  0  0  0  0  0  0  0
   20.9463   53.4417  -11.1319 H   0  0  0  0  0  0  0  0  0  0  0  0
   19.1343   51.9328  -12.6192 O   0  0  0  0  0  0  0  0  0  0  0  0
   18.1006   53.0681  -12.1480 P   0  0  0  0  0  0  0  0  0  0  0  0
   18.8177   54.3852  -11.9918 O   0  0  0  0  0  0  0  0  0  0  0  0
   16.8622   52.9471  -13.0003 O   0  0  0  0  0  0  0  0  0  0  0  0
   16.2198   53.6238  -12.7351 H   0  0  0  0  0  0  0  0  0  0  0  0
   17.7817   52.4297  -10.6970 O   0  0  0  0  0  0  0  0  0  0  0  0
   16.3352   52.0264  -10.1071 P   0  0  0  0  0  0  0  0  0  0  0  0
   16.6552   50.9465   -8.3631 S   0  0  0  0  0  0  0  0  0  0  0  0
   15.5919   53.2683   -9.6856 O   0  0  0  0  0  0  0  0  0  0  0  0
   15.7146   51.1309  -11.1462 O   0  0  0  0  0  0  0  0  0  0  0  0
   14.7233   53.0208   -9.3317 H   0  0  0  0  0  0  0  0  0  0  0  0
   14.8347   50.8515  -10.8484 H   0  0  0  0  0  0  0  0  0  0  0  0
 34 35  2  0  0  0
 34 36  1  0  0  0
 34 37  1  0  0  0
 34 33  1  0  0  0
 29 30  2  0  0  0
 29 31  1  0  0  0
 29 33  1  0  0  0
 29 28  1  0  0  0
 24 25  2  0  0  0
 24 26  1  0  0  0
 24 28  1  0  0  0
 24 23  1  0  0  0
 23 22  1  0  0  0
 22  1  1  0  0  0
  1  2  1  0  0  0
  1  3  1  0  0  0
  2  7  1  0  0  0
  3  4  1  0  0  0
  3  5  1  0  0  0
  5  6  1  0  0  0
  5  7  1  0  0  0
  7 10  1  0  0  0
 10 11  1  0  0  0
 10 19  1  0  0  0
 11 12  2  0  0  0
 12 13  1  0  0  0
 13 14  1  0  0  0
 13 19  2  0  0  0
 14 15  1  0  0  0
 14 16  2  0  0  0
 16 17  1  0  0  0
 17 18  2  0  0  0
 18 19  1  0  0  0
 36 38  1  0  0  0
 37 39  1  0  0  0
 31 32  1  0  0  0
 26 27  1  0  0  0
  4  8  1  0  0  0
  6  9  1  0  0  0
 15 20  1  0  0  0
 15 21  1  0  0  0
M  END
> <minimizedAffinity>
-9.74077

$$$$
4KO8_AGS_A_800


 39 41  0  0  0  0  0  0  0  0999 V2000
   16.7165   49.5476   -8.1841 C   0  0  0  0  0  0  0  0  0  0  0  0
   16.2909   48.4731   -7.3303 O   0  0  0  0  0  0  0  0  0  0  0  0
   17.5295   50.4855   -7.3055 C   0  0  0  0  0  0  0  0  0  0  0  0
   17.4457   51.8553   -7.7125 O   0  0  0  0  0  0  0  0  0  0  0  0
   16.9195   50.2744   -5.9435 C   0  0  0  0  0  0  0  0  0  0  0  0
   15.7670   51.1122   -5.8181 O   0  0  0  0  0  0  0  0  0  0  0  0
   16.4720   48.8183   -5.9491 C   0  0  0  0  0  0  0  0  0  0  0  0
   16.5182   52.1391   -7.7034 H   0  0  0  0  0  0  0  0  0  0  0  0
   15.1460   50.9175   -6.5374 H   0  0  0  0  0  0  0  0  0  0  0  0
   17.5099   47.9678   -5.3040 N   0  0  0  0  0  0  0  0  0  0  0  0
   18.4026   48.3881   -4.3892 C   0  0  0  0  0  0  0  0  0  0  0  0
   19.2098   47.3797   -3.9870 N   0  0  0  0  0  0  0  0  0  0  0  0
   18.8370   46.2672   -4.6385 C   0  0  0  0  0  0  0  0  0  0  0  0
   19.2815   44.8480   -4.6696 C   0  0  0  0  0  0  0  0  0  0  0  0
   20.3086   44.4238   -3.8973 N   0  0  0  0  0  0  0  0  0  0  0  0
   18.6264   43.9988   -5.4946 N   0  0  0  0  0  0  0  0  0  0  0  0
   17.6014   44.4189   -6.2696 C   0  0  0  0  0  0  0  0  0  0  0  0
   17.1505   45.6907   -6.2883 N   0  0  0  0  0  0  0  0  0  0  0  0
   17.7163   46.6542   -5.5124 C   0  0  0  0  0  0  0  0  0  0  0  0
   20.7724   45.0574   -3.3035 H   0  0  0  0  0  0  0  0  0  0  0  0
   20.5920   43.4815   -3.9293 H   0  0  0  0  0  0  0  0  0  0  0  0
   17.5294   49.0052   -9.3479 C   0  0  0  0  0  0  0  0  0  0  0  0
   18.8007   49.6498   -9.3606 O   0  0  0  0  0  0  0  0  0  0  0  0
   19.9519   49.2231  -10.3961 P   0  0  0  0  0  0  0  0  0  0  0  0
   19.6712   47.8559  -10.9596 O   0  0  0  0  0  0  0  0  0  0  0  0
   21.3114   49.5576   -9.8485 O   0  0  0  0  0  0  0  0  0  0  0  0
   21.9915   49.2927  -10.4873 H   0  0  0  0  0  0  0  0  0  0  0  0
   19.6126   50.2636  -11.5693 O   0  0  0  0  0  0  0  0  0  0  0  0
   20.4011   51.6428  -11.8049 P   0  0  0  0  0  0  0  0  0  0  0  0
   20.7457   52.2725  -10.4789 O   0  0  0  0  0  0  0  0  0  0  0  0
   21.4574   51.3973  -12.8532 O   0  0  0  0  0  0  0  0  0  0  0  0
   21.9496   52.2174  -13.0145 H   0  0  0  0  0  0  0  0  0  0  0  0
   19.1739   52.4354  -12.4979 O   0  0  0  0  0  0  0  0  0  0  0  0
   17.8511   53.0080  -11.7731 P   0  0  0  0  0  0  0  0  0  0  0  0
   18.2878   54.9260  -11.1095 S   0  0  0  0  0  0  0  0  0  0  0  0
   16.7449   53.1697  -12.7843 O   0  0  0  0  0  0  0  0  0  0  0  0
   17.6213   52.1066  -10.5892 O   0  0  0  0  0  0  0  0  0  0  0  0
   15.9521   53.5141  -12.3440 H   0  0  0  0  0  0  0  0  0  0  0  0
   16.8327   52.4007  -10.1071 H   0  0  0  0  0  0  0  0  0  0  0  0
 34 35  2  0  0  0
 34 36  1  0  0  0
 34 37  1  0  0  0
 34 33  1  0  0  0
 29 30  2  0  0  0
 29 31  1  0  0  0
 29 33  1  0  0  0
 29 28  1  0  0  0
 24 25  2  0  0  0
 24 26  1  0  0  0
 24 28  1  0  0  0
 24 23  1  0  0  0
 23 22  1  0  0  0
 22  1  1  0  0  0
  1  2  1  0  0  0
  1  3  1  0  0  0
  2  7  1  0  0  0
  3  4  1  0  0  0
  3  5  1  0  0  0
  5  6  1  0  0  0
  5  7  1  0  0  0
  7 10  1  0  0  0
 10 11  1  0  0  0
 10 19  1  0  0  0
 11 12  2  0  0  0
 12 13  1  0  0  0
 13 14  1  0  0  0
 13 19  2  0  0  0
 14 15  1  0  0  0
 14 16  2  0  0  0
 16 17  1  0  0  0
 17 18  2  0  0  0
 18 19  1  0  0  0
 36 38  1  0  0  0
 37 39  1  0  0  0
 31 32  1  0  0  0
 26 27  1  0  0  0
  4  8  1  0  0  0
  6  9  1  0  0  0
 15 20  1  0  0  0
 15 21  1  0  0  0
M  END
> <minimizedAffinity>
-9.69258

$$$$
4KO8_AGS_A_800


 39 41  0  0  0  0  0  0  0  0999 V2000
   16.0181   50.5781   -8.0883 C   0  0  0  0  0  0  0  0  0  0  0  0
   15.5612   49.3469   -7.5053 O   0  0  0  0  0  0  0  0  0  0  0  0
   17.2947   50.9452   -7.3480 C   0  0  0  0  0  0  0  0  0  0  0  0
   17.5086   52.3576   -7.2567 O   0  0  0  0  0  0  0  0  0  0  0  0
   17.0777   50.3294   -5.9894 C   0  0  0  0  0  0  0  0  0  0  0  0
   16.3186   51.2372   -5.1861 O   0  0  0  0  0  0  0  0  0  0  0  0
   16.2345   49.0908   -6.2640 C   0  0  0  0  0  0  0  0  0  0  0  0
   16.7540   52.7707   -6.8085 H   0  0  0  0  0  0  0  0  0  0  0  0
   15.4853   51.4477   -5.6358 H   0  0  0  0  0  0  0  0  0  0  0  0
   17.1120   47.8915   -6.3547 N   0  0  0  0  0  0  0  0  0  0  0  0
   18.4439   47.9138   -6.5445 C   0  0  0  0  0  0  0  0  0  0  0  0
   18.9595   46.6635   -6.5757 N   0  0  0  0  0  0  0  0  0  0  0  0
   17.9519   45.7963   -6.3908 C   0  0  0  0  0  0  0  0  0  0  0  0
   17.8166   44.3170   -6.3131 C   0  0  0  0  0  0  0  0  0  0  0  0
   18.8968   43.5121   -6.4412 N   0  0  0  0  0  0  0  0  0  0  0  0
   16.5801   43.8057   -6.1117 N   0  0  0  0  0  0  0  0  0  0  0  0
   15.4978   44.6060   -5.9855 C   0  0  0  0  0  0  0  0  0  0  0  0
   15.5529   45.9530   -6.0467 N   0  0  0  0  0  0  0  0  0  0  0  0
   16.7294   46.6054   -6.2483 C   0  0  0  0  0  0  0  0  0  0  0  0
   19.7881   43.9039   -6.5873 H   0  0  0  0  0  0  0  0  0  0  0  0
   18.7914   42.5347   -6.3883 H   0  0  0  0  0  0  0  0  0  0  0  0
   16.2522   50.4001   -9.5792 C   0  0  0  0  0  0  0  0  0  0  0  0
   17.4608   51.0656   -9.9375 O   0  0  0  0  0  0  0  0  0  0  0  0
   17.6683   51.7104  -11.3938 P   0  0  0  0  0  0  0  0  0  0  0  0
   18.2928   53.0751  -11.2799 O   0  0  0  0  0  0  0  0  0  0  0  0
   16.4499   51.4983  -12.2485 O   0  0  0  0  0  0  0  0  0  0  0  0
   16.5949   51.8942  -13.1221 H   0  0  0  0  0  0  0  0  0  0  0  0
   18.8282   50.7354  -11.9213 O   0  0  0  0  0  0  0  0  0  0  0  0
   20.3765   50.8790  -11.5193 P   0  0  0  0  0  0  0  0  0  0  0  0
   21.1538   51.4734  -12.6665 O   0  0  0  0  0  0  0  0  0  0  0  0
   20.4407   51.4776  -10.1365 O   0  0  0  0  0  0  0  0  0  0  0  0
   21.3680   51.5751   -9.8691 H   0  0  0  0  0  0  0  0  0  0  0  0
   20.6790   49.2950  -11.4005 O   0  0  0  0  0  0  0  0  0  0  0  0
   20.3763   48.3377  -10.1375 P   0  0  0  0  0  0  0  0  0  0  0  0
   21.0347   46.4318  -10.6313 S   0  0  0  0  0  0  0  0  0  0  0  0
   21.2155   48.7655   -8.9606 O   0  0  0  0  0  0  0  0  0  0  0  0
   18.8778   48.3298   -9.9913 O   0  0  0  0  0  0  0  0  0  0  0  0
   21.0302   48.1873   -8.2042 H   0  0  0  0  0  0  0  0  0  0  0  0
   18.6291   47.7665   -9.2417 H   0  0  0  0  0  0  0  0  0  0  0  0
 34 35  2  0  0  0
 34 36  1  0  0  0
 34 37  1  0  0  0
 34 33  1  0  0  0
 29 30  2  0  0  0
 29 31  1  0  0  0
 29 33  1  0  0  0
 29 28  1  0  0  0
 24 25  2  0  0  0
 24 26  1  0  0  0
 24 28  1  0  0  0
 24 23  1  0  0  0
 23 22  1  0  0  0
 22  1  1  0  0  0
  1  2  1  0  0  0
  1  3  1  0  0  0
  2  7  1  0  0  0
  3  4  1  0  0  0
  3  5  1  0  0  0
  5  6  1  0  0  0
  5  7  1  0  0  0
  7 10  1  0  0  0
 10 11  1  0  0  0
 10 19  1  0  0  0
 11 12  2  0  0  0
 12 13  1  0  0  0
 13 14  1  0  0  0
 13 19  2  0  0  0
 14 15  1  0  0  0
 14 16  2  0  0  0
 16 17  1  0  0  0
 17 18  2  0  0  0
 18 19  1  0  0  0
 36 38  1  0  0  0
 37 39  1  0  0  0
 31 32  1  0  0  0
 26 27  1  0  0  0
  4  8  1  0  0  0
  6  9  1  0  0  0
 15 20  1  0  0  0
 15 21  1  0  0  0
M  END
> <minimizedAffinity>
-9.64652

$$$$
4KO8_AGS_A_800


 39 41  0  0  0  0  0  0  0  0999 V2000
   20.9431   47.7797  -10.6695 C   0  0  0  0  0  0  0  0  0  0  0  0
   21.1406   47.6677   -9.2507 O   0  0  0  0  0  0  0  0  0  0  0  0
   20.4190   46.4281  -11.1287 C   0  0  0  0  0  0  0  0  0  0  0  0
   20.8071   46.0964  -12.4660 O   0  0  0  0  0  0  0  0  0  0  0  0
   21.0248   45.4804  -10.1254 C   0  0  0  0  0  0  0  0  0  0  0  0
   22.3481   45.1418  -10.5496 O   0  0  0  0  0  0  0  0  0  0  0  0
   21.1121   46.2929   -8.8398 C   0  0  0  0  0  0  0  0  0  0  0  0
   21.7749   46.0985  -12.5318 H   0  0  0  0  0  0  0  0  0  0  0  0
   22.8704   45.9521  -10.6574 H   0  0  0  0  0  0  0  0  0  0  0  0
   19.9333   46.0036   -7.9777 N   0  0  0  0  0  0  0  0  0  0  0  0
   19.5194   44.7771   -7.6107 C   0  0  0  0  0  0  0  0  0  0  0  0
   18.4234   44.8416   -6.8202 N   0  0  0  0  0  0  0  0  0  0  0  0
   18.1122   46.1360   -6.6500 C   0  0  0  0  0  0  0  0  0  0  0  0
   17.0618   46.8950   -5.9198 C   0  0  0  0  0  0  0  0  0  0  0  0
   16.1133   46.2524   -5.1996 N   0  0  0  0  0  0  0  0  0  0  0  0
   17.0866   48.2454   -6.0011 N   0  0  0  0  0  0  0  0  0  0  0  0
   18.0309   48.8913   -6.7214 C   0  0  0  0  0  0  0  0  0  0  0  0
   19.0094   48.2626   -7.4058 N   0  0  0  0  0  0  0  0  0  0  0  0
   19.1064   46.9057   -7.4172 C   0  0  0  0  0  0  0  0  0  0  0  0
   16.1125   45.2690   -5.1530 H   0  0  0  0  0  0  0  0  0  0  0  0
   15.4239   46.7684   -4.7223 H   0  0  0  0  0  0  0  0  0  0  0  0
   19.9706   48.9058  -10.9787 C   0  0  0  0  0  0  0  0  0  0  0  0
   20.5546   50.1416  -10.5744 O   0  0  0  0  0  0  0  0  0  0  0  0
   20.4490   51.4614  -11.4836 P   0  0  0  0  0  0  0  0  0  0  0  0
   21.2954   51.3167  -12.7198 O   0  0  0  0  0  0  0  0  0  0  0  0
   20.5415   52.7001  -10.6369 O   0  0  0  0  0  0  0  0  0  0  0  0
   20.4757   53.4847  -11.2035 H   0  0  0  0  0  0  0  0  0  0  0  0
   18.9280   51.2950  -11.9666 O   0  0  0  0  0  0  0  0  0  0  0  0
   17.9498   52.5246  -12.2993 P   0  0  0  0  0  0  0  0  0  0  0  0
   18.7300   53.6454  -12.9386 O   0  0  0  0  0  0  0  0  0  0  0  0
   16.7090   51.9646  -12.9485 O   0  0  0  0  0  0  0  0  0  0  0  0
   16.0997   52.6891  -13.1602 H   0  0  0  0  0  0  0  0  0  0  0  0
   17.5967   52.8935  -10.7651 O   0  0  0  0  0  0  0  0  0  0  0  0
   16.2968   52.4337   -9.9272 P   0  0  0  0  0  0  0  0  0  0  0  0
   16.2851   50.3580   -9.8892 S   0  0  0  0  0  0  0  0  0  0  0  0
   16.4374   52.8657   -8.4899 O   0  0  0  0  0  0  0  0  0  0  0  0
   15.1151   52.9287  -10.7180 O   0  0  0  0  0  0  0  0  0  0  0  0
   15.6540   52.5872   -7.9904 H   0  0  0  0  0  0  0  0  0  0  0  0
   14.2950   52.6816  -10.2626 H   0  0  0  0  0  0  0  0  0  0  0  0
 34 35  2  0  0  0
 34 36  1  0  0  0
 34 37  1  0  0  0
 34 33  1  0  0  0
 29 30  2  0  0  0
 29 31  1  0  0  0
 29 33  1  0  0  0
 29 28  1  0  0  0
 24 25  2  0  0  0
 24 26  1  0  0  0
 24 28  1  0  0  0
 24 23  1  0  0  0
 23 22  1  0  0  0
 22  1  1  0  0  0
  1  2  1  0  0  0
  1  3  1  0  0  0
  2  7  1  0  0  0
  3  4  1  0  0  0
  3  5  1  0  0  0
  5  6  1  0  0  0
  5  7  1  0  0  0
  7 10  1  0  0  0
 10 11  1  0  0  0
 10 19  1  0  0  0
 11 12  2  0  0  0
 12 13  1  0  0  0
 13 14  1  0  0  0
 13 19  2  0  0  0
 14 15  1  0  0  0
 14 16  2  0  0  0
 16 17  1  0  0  0
 17 18  2  0  0  0
 18 19  1  0  0  0
 36 38  1  0  0  0
 37 39  1  0  0  0
 31 32  1  0  0  0
 26 27  1  0  0  0
  4  8  1  0  0  0
  6  9  1  0  0  0
 15 20  1  0  0  0
 15 21  1  0  0  0
M  END
> <minimizedAffinity>
-9.59198

$$$$
4KO8_AGS_A_800


 39 41  0  0  0  0  0  0  0  0999 V2000
   20.6778   47.8999   -9.5784 C   0  0  0  0  0  0  0  0  0  0  0  0
   20.4060   47.4429   -8.2435 O   0  0  0  0  0  0  0  0  0  0  0  0
   19.5818   47.3136  -10.4545 C   0  0  0  0  0  0  0  0  0  0  0  0
   20.0107   47.0483  -11.7942 O   0  0  0  0  0  0  0  0  0  0  0  0
   19.2210   46.0438   -9.7271 C   0  0  0  0  0  0  0  0  0  0  0  0
   20.1275   45.0106  -10.1229 O   0  0  0  0  0  0  0  0  0  0  0  0
   19.4549   46.3682   -8.2573 C   0  0  0  0  0  0  0  0  0  0  0  0
   20.7628   46.4360  -11.7776 H   0  0  0  0  0  0  0  0  0  0  0  0
   21.0380   45.2941   -9.9458 H   0  0  0  0  0  0  0  0  0  0  0  0
   18.1711   46.7654   -7.6165 N   0  0  0  0  0  0  0  0  0  0  0  0
   17.2431   45.9155   -7.1400 C   0  0  0  0  0  0  0  0  0  0  0  0
   16.1900   46.5799   -6.6111 N   0  0  0  0  0  0  0  0  0  0  0  0
   16.4301   47.8952   -6.7282 C   0  0  0  0  0  0  0  0  0  0  0  0
   15.7150   49.1480   -6.3651 C   0  0  0  0  0  0  0  0  0  0  0  0
   14.5078   49.1079   -5.7549 N   0  0  0  0  0  0  0  0  0  0  0  0
   16.3107   50.3251   -6.6659 N   0  0  0  0  0  0  0  0  0  0  0  0
   17.5155   50.3698   -7.2776 C   0  0  0  0  0  0  0  0  0  0  0  0
   18.2148   49.2717   -7.6330 N   0  0  0  0  0  0  0  0  0  0  0  0
   17.7370   48.0203   -7.3958 C   0  0  0  0  0  0  0  0  0  0  0  0
   14.0911   48.2411   -5.5445 H   0  0  0  0  0  0  0  0  0  0  0  0
   14.0462   49.9456   -5.5214 H   0  0  0  0  0  0  0  0  0  0  0  0
   20.6943   49.4189   -9.6221 C   0  0  0  0  0  0  0  0  0  0  0  0
   20.1543   49.8488  -10.8694 O   0  0  0  0  0  0  0  0  0  0  0  0
   20.4177   51.3279  -11.4371 P   0  0  0  0  0  0  0  0  0  0  0  0
   21.1723   51.2646  -12.7379 O   0  0  0  0  0  0  0  0  0  0  0  0
   20.8699   52.2476  -10.3373 O   0  0  0  0  0  0  0  0  0  0  0  0
   21.0234   53.1341  -10.6998 H   0  0  0  0  0  0  0  0  0  0  0  0
   18.9065   51.7072  -11.8200 O   0  0  0  0  0  0  0  0  0  0  0  0
   18.4265   53.1825  -12.2352 P   0  0  0  0  0  0  0  0  0  0  0  0
   18.8910   54.1838  -11.2080 O   0  0  0  0  0  0  0  0  0  0  0  0
   18.7252   53.3693  -13.7017 O   0  0  0  0  0  0  0  0  0  0  0  0
   18.4439   54.2554  -13.9787 H   0  0  0  0  0  0  0  0  0  0  0  0
   16.8413   52.9084  -12.0717 O   0  0  0  0  0  0  0  0  0  0  0  0
   16.0285   52.6835  -10.6963 P   0  0  0  0  0  0  0  0  0  0  0  0
   15.6611   50.6481  -10.5180 S   0  0  0  0  0  0  0  0  0  0  0  0
   16.9032   53.0431   -9.5224 O   0  0  0  0  0  0  0  0  0  0  0  0
   14.7254   53.4157  -10.8770 O   0  0  0  0  0  0  0  0  0  0  0  0
   16.4105   52.9063   -8.6981 H   0  0  0  0  0  0  0  0  0  0  0  0
   14.1860   53.3180  -10.0768 H   0  0  0  0  0  0  0  0  0  0  0  0
 34 35  2  0  0  0
 34 36  1  0  0  0
 34 37  1  0  0  0
 34 33  1  0  0  0
 29 30  2  0  0  0
 29 31  1  0  0  0
 29 33  1  0  0  0
 29 28  1  0  0  0
 24 25  2  0  0  0
 24 26  1  0  0  0
 24 28  1  0  0  0
 24 23  1  0  0  0
 23 22  1  0  0  0
 22  1  1  0  0  0
  1  2  1  0  0  0
  1  3  1  0  0  0
  2  7  1  0  0  0
  3  4  1  0  0  0
  3  5  1  0  0  0
  5  6  1  0  0  0
  5  7  1  0  0  0
  7 10  1  0  0  0
 10 11  1  0  0  0
 10 19  1  0  0  0
 11 12  2  0  0  0
 12 13  1  0  0  0
 13 14  1  0  0  0
 13 19  2  0  0  0
 14 15  1  0  0  0
 14 16  2  0  0  0
 16 17  1  0  0  0
 17 18  2  0  0  0
 18 19  1  0  0  0
 36 38  1  0  0  0
 37 39  1  0  0  0
 31 32  1  0  0  0
 26 27  1  0  0  0
  4  8  1  0  0  0
  6  9  1  0  0  0
 15 20  1  0  0  0
 15 21  1  0  0  0
M  END
> <minimizedAffinity>
-9.26191

$$$$
4KO8_AGS_A_800


 39 41  0  0  0  0  0  0  0  0999 V2000
   16.4960   49.2768   -8.0568 C   0  0  0  0  0  0  0  0  0  0  0  0
   16.6284   47.8710   -8.3230 O   0  0  0  0  0  0  0  0  0  0  0  0
   16.0718   49.3905   -6.6009 C   0  0  0  0  0  0  0  0  0  0  0  0
   15.2489   50.5324   -6.3397 O   0  0  0  0  0  0  0  0  0  0  0  0
   15.3208   48.1035   -6.3739 C   0  0  0  0  0  0  0  0  0  0  0  0
   13.9691   48.2739   -6.8093 O   0  0  0  0  0  0  0  0  0  0  0  0
   16.0091   47.0961   -7.2859 C   0  0  0  0  0  0  0  0  0  0  0  0
   14.4562   50.4939   -6.8974 H   0  0  0  0  0  0  0  0  0  0  0  0
   13.9613   48.5493   -7.7393 H   0  0  0  0  0  0  0  0  0  0  0  0
   17.0134   46.3164   -6.5113 N   0  0  0  0  0  0  0  0  0  0  0  0
   16.8674   45.9062   -5.2382 C   0  0  0  0  0  0  0  0  0  0  0  0
   17.9498   45.2138   -4.8151 N   0  0  0  0  0  0  0  0  0  0  0  0
   18.8248   45.1533   -5.8309 C   0  0  0  0  0  0  0  0  0  0  0  0
   20.1726   44.5619   -6.0460 C   0  0  0  0  0  0  0  0  0  0  0  0
   20.7994   43.8818   -5.0582 N   0  0  0  0  0  0  0  0  0  0  0  0
   20.7489   44.7277   -7.2590 N   0  0  0  0  0  0  0  0  0  0  0  0
   20.1273   45.4085   -8.2480 C   0  0  0  0  0  0  0  0  0  0  0  0
   18.9065   45.9686   -8.1172 N   0  0  0  0  0  0  0  0  0  0  0  0
   18.2098   45.8847   -6.9519 C   0  0  0  0  0  0  0  0  0  0  0  0
   20.3631   43.7721   -4.1825 H   0  0  0  0  0  0  0  0  0  0  0  0
   21.6917   43.4966   -5.2152 H   0  0  0  0  0  0  0  0  0  0  0  0
   17.8102   49.9903   -8.3274 C   0  0  0  0  0  0  0  0  0  0  0  0
   18.3241   49.5473   -9.5810 O   0  0  0  0  0  0  0  0  0  0  0  0
   19.8897   49.2609   -9.7966 P   0  0  0  0  0  0  0  0  0  0  0  0
   20.1091   48.4590  -11.0514 O   0  0  0  0  0  0  0  0  0  0  0  0
   20.5382   48.8480   -8.5048 O   0  0  0  0  0  0  0  0  0  0  0  0
   21.4815   48.6799   -8.6558 H   0  0  0  0  0  0  0  0  0  0  0  0
   20.3591   50.7564  -10.1392 O   0  0  0  0  0  0  0  0  0  0  0  0
   20.1204   51.4719  -11.5571 P   0  0  0  0  0  0  0  0  0  0  0  0
   21.3510   51.3345  -12.4174 O   0  0  0  0  0  0  0  0  0  0  0  0
   18.7617   51.0546  -12.0617 O   0  0  0  0  0  0  0  0  0  0  0  0
   18.5924   51.4745  -12.9196 H   0  0  0  0  0  0  0  0  0  0  0  0
   20.0063   52.9785  -10.9811 O   0  0  0  0  0  0  0  0  0  0  0  0
   18.8751   54.0733  -11.3345 P   0  0  0  0  0  0  0  0  0  0  0  0
   19.5976   55.9266  -10.7403 S   0  0  0  0  0  0  0  0  0  0  0  0
   18.7027   54.1644  -12.8293 O   0  0  0  0  0  0  0  0  0  0  0  0
   17.6836   53.7043  -10.4912 O   0  0  0  0  0  0  0  0  0  0  0  0
   18.0220   54.8235  -13.0367 H   0  0  0  0  0  0  0  0  0  0  0  0
   16.9622   54.3306  -10.6592 H   0  0  0  0  0  0  0  0  0  0  0  0
 34 35  2  0  0  0
 34 36  1  0  0  0
 34 37  1  0  0  0
 34 33  1  0  0  0
 29 30  2  0  0  0
 29 31  1  0  0  0
 29 33  1  0  0  0
 29 28  1  0  0  0
 24 25  2  0  0  0
 24 26  1  0  0  0
 24 28  1  0  0  0
 24 23  1  0  0  0
 23 22  1  0  0  0
 22  1  1  0  0  0
  1  2  1  0  0  0
  1  3  1  0  0  0
  2  7  1  0  0  0
  3  4  1  0  0  0
  3  5  1  0  0  0
  5  6  1  0  0  0
  5  7  1  0  0  0
  7 10  1  0  0  0
 10 11  1  0  0  0
 10 19  1  0  0  0
 11 12  2  0  0  0
 12 13  1  0  0  0
 13 14  1  0  0  0
 13 19  2  0  0  0
 14 15  1  0  0  0
 14 16  2  0  0  0
 16 17  1  0  0  0
 17 18  2  0  0  0
 18 19  1  0  0  0
 36 38  1  0  0  0
 37 39  1  0  0  0
 31 32  1  0  0  0
 26 27  1  0  0  0
  4  8  1  0  0  0
  6  9  1  0  0  0
 15 20  1  0  0  0
 15 21  1  0  0  0
M  END
> <minimizedAffinity>
-9.02519

$$$$
4KO8_AGS_A_800


 39 41  0  0  0  0  0  0  0  0999 V2000
   19.6886   49.1816  -10.5594 C   0  0  0  0  0  0  0  0  0  0  0  0
   19.9156   49.5542   -9.1903 O   0  0  0  0  0  0  0  0  0  0  0  0
   19.2947   47.7130  -10.5354 C   0  0  0  0  0  0  0  0  0  0  0  0
   19.6953   47.0013  -11.7110 O   0  0  0  0  0  0  0  0  0  0  0  0
   20.0051   47.2002   -9.3089 C   0  0  0  0  0  0  0  0  0  0  0  0
   21.3495   46.8618   -9.6608 O   0  0  0  0  0  0  0  0  0  0  0  0
   20.0291   48.3903   -8.3583 C   0  0  0  0  0  0  0  0  0  0  0  0
   20.6571   47.0684  -11.8175 H   0  0  0  0  0  0  0  0  0  0  0  0
   21.7874   47.6365  -10.0469 H   0  0  0  0  0  0  0  0  0  0  0  0
   18.8966   48.2925   -7.3968 N   0  0  0  0  0  0  0  0  0  0  0  0
   18.6255   47.2287   -6.6188 C   0  0  0  0  0  0  0  0  0  0  0  0
   17.5352   47.4456   -5.8478 N   0  0  0  0  0  0  0  0  0  0  0  0
   17.0823   48.6813   -6.1109 C   0  0  0  0  0  0  0  0  0  0  0  0
   15.9590   49.5314   -5.6332 C   0  0  0  0  0  0  0  0  0  0  0  0
   15.0939   49.0787   -4.6962 N   0  0  0  0  0  0  0  0  0  0  0  0
   15.8317   50.7683   -6.1668 N   0  0  0  0  0  0  0  0  0  0  0  0
   16.6923   51.2237   -7.1048 C   0  0  0  0  0  0  0  0  0  0  0  0
   17.7299   50.5035   -7.5801 N   0  0  0  0  0  0  0  0  0  0  0  0
   17.9781   49.2415   -7.1371 C   0  0  0  0  0  0  0  0  0  0  0  0
   15.2036   48.1755   -4.3203 H   0  0  0  0  0  0  0  0  0  0  0  0
   14.3547   49.6527   -4.3905 H   0  0  0  0  0  0  0  0  0  0  0  0
   18.6052   50.0549  -11.1703 C   0  0  0  0  0  0  0  0  0  0  0  0
   18.7939   51.3973  -10.7295 O   0  0  0  0  0  0  0  0  0  0  0  0
   18.7844   52.6313  -11.7575 P   0  0  0  0  0  0  0  0  0  0  0  0
   19.5161   52.2675  -13.0216 O   0  0  0  0  0  0  0  0  0  0  0  0
   19.0873   53.9200  -11.0452 O   0  0  0  0  0  0  0  0  0  0  0  0
   19.0768   54.6516  -11.6821 H   0  0  0  0  0  0  0  0  0  0  0  0
   17.2238   52.6173  -12.1297 O   0  0  0  0  0  0  0  0  0  0  0  0
   16.0425   52.8373  -11.0642 P   0  0  0  0  0  0  0  0  0  0  0  0
   15.2562   51.5618  -10.8958 O   0  0  0  0  0  0  0  0  0  0  0  0
   16.6222   53.5624   -9.8755 O   0  0  0  0  0  0  0  0  0  0  0  0
   15.9269   53.7081   -9.2150 H   0  0  0  0  0  0  0  0  0  0  0  0
   15.2012   53.9004  -11.9454 O   0  0  0  0  0  0  0  0  0  0  0  0
   14.5940   55.3110  -11.4511 P   0  0  0  0  0  0  0  0  0  0  0  0
   13.3162   55.9924  -12.9387 S   0  0  0  0  0  0  0  0  0  0  0  0
   13.7264   55.0956  -10.2373 O   0  0  0  0  0  0  0  0  0  0  0  0
   15.7750   56.2381  -11.3394 O   0  0  0  0  0  0  0  0  0  0  0  0
   13.3638   55.9461   -9.9440 H   0  0  0  0  0  0  0  0  0  0  0  0
   15.4737   57.1114  -11.0434 H   0  0  0  0  0  0  0  0  0  0  0  0
 34 35  2  0  0  0
 34 36  1  0  0  0
 34 37  1  0  0  0
 34 33  1  0  0  0
 29 30  2  0  0  0
 29 31  1  0  0  0
 29 33  1  0  0  0
 29 28  1  0  0  0
 24 25  2  0  0  0
 24 26  1  0  0  0
 24 28  1  0  0  0
 24 23  1  0  0  0
 23 22  1  0  0  0
 22  1  1  0  0  0
  1  2  1  0  0  0
  1  3  1  0  0  0
  2  7  1  0  0  0
  3  4  1  0  0  0
  3  5  1  0  0  0
  5  6  1  0  0  0
  5  7  1  0  0  0
  7 10  1  0  0  0
 10 11  1  0  0  0
 10 19  1  0  0  0
 11 12  2  0  0  0
 12 13  1  0  0  0
 13 14  1  0  0  0
 13 19  2  0  0  0
 14 15  1  0  0  0
 14 16  2  0  0  0
 16 17  1  0  0  0
 17 18  2  0  0  0
 18 19  1  0  0  0
 36 38  1  0  0  0
 37 39  1  0  0  0
 31 32  1  0  0  0
 26 27  1  0  0  0
  4  8  1  0  0  0
  6  9  1  0  0  0
 15 20  1  0  0  0
 15 21  1  0  0  0
M  END
> <minimizedAffinity>
-8.79202

$$$$
