3ST5_G89_B_201
  RCSB PDB12061710463D
Coordinates from PDB:3ST5:B:201 Model:1 without hydrogens
 40 43  0  0  0  0            999 V2000
   14.4150   20.9620   18.1820   C 0  0  0  0  0  0  0  0  0  0  0  0
   15.5330   20.4550   18.0540   O 0  0  0  0  0  0  0  0  0  0  0  0
   13.4320   20.2870   18.8270   O 0  0  0  0  0  0  0  0  0  0  0  0
   13.7380   18.9240   19.1370   C 0  0  0  0  0  0  0  0  0  0  0  0
   12.6040   18.3670   20.0140   C 0  0  0  0  0  0  0  0  0  0  0  0
   11.5310   17.9550   19.0080   C 0  0  0  0  0  0  0  0  0  0  0  0
   10.8600   19.1430   18.6130   O 0  0  0  0  0  0  0  0  0  0  0  0
   10.9240   19.3400   17.2130   C 0  0  0  0  0  0  0  0  0  0  0  0
   11.5020   18.0550   16.5970   C 0  0  0  0  0  0  0  0  0  0  0  0
   12.2780   17.4740   17.7750   C 0  0  0  0  0  0  0  0  0  0  0  0
   13.6880   18.0360   17.8950   C 0  0  0  0  0  0  0  0  0  0  0  0
   10.3420   17.2900   16.2010   O 0  0  0  0  0  0  0  0  0  0  0  0
   17.7750   24.3590   17.4450   N 0  0  0  0  0  0  0  0  0  0  0  0
   18.7320   24.7000   18.4920   C 0  0  0  0  0  0  0  0  0  0  0  0
   18.3590   24.0590   19.8340   C 0  0  0  0  0  0  0  0  0  0  0  0
   18.3990   22.5230   19.7450   C 0  0  0  0  0  0  0  0  0  0  0  0
   19.3430   24.4580   20.9400   C 0  0  0  0  0  0  0  0  0  0  0  0
   16.5180   25.0850   17.4030   C 0  0  0  0  0  0  0  0  0  0  0  0
   15.3770   24.2200   17.9180   C 0  0  0  0  0  0  0  0  0  0  0  0
   14.2280   24.9750   18.2860   O 0  0  0  0  0  0  0  0  0  0  0  0
   15.0010   23.0740   16.9860   C 0  0  0  0  0  0  0  0  0  0  0  0
   14.1020   22.1690   17.7300   N 0  0  0  0  0  0  0  0  0  0  0  0
   14.2510   23.5320   15.7290   C 0  0  0  0  0  0  0  0  0  0  0  0
   12.6510   21.8760   14.6830   C 0  0  0  0  0  0  0  0  0  0  0  0
   12.3800   20.7480   13.9430   C 0  0  0  0  0  0  0  0  0  0  0  0
   13.3830   20.1090   13.2160   C 0  0  0  0  0  0  0  0  0  0  0  0
   14.6790   20.5870   13.3630   C 0  0  0  0  0  0  0  0  0  0  0  0
   14.9680   21.6900   14.1540   C 0  0  0  0  0  0  0  0  0  0  0  0
   13.9510   22.3330   14.8340   C 0  0  0  0  0  0  0  0  0  0  0  0
   18.4630   24.1540   15.9720   S 0  0  0  0  0  0  0  0  0  0  0  0
   17.3650   24.0040   14.9650   O 0  0  0  0  0  0  0  0  0  0  0  0
   19.3810   22.9740   16.0730   O 0  0  0  0  0  0  0  0  0  0  0  0
   19.4330   25.5380   15.5260   C 0  0  0  0  0  0  0  0  0  0  0  0
   18.8380   26.6510   14.9570   C 0  0  0  0  0  0  0  0  0  0  0  0
   20.7910   25.5450   15.8140   C 0  0  0  0  0  0  0  0  0  0  0  0
   19.5700   27.7860   14.6250   C 0  0  0  0  0  0  0  0  0  0  0  0
   21.5280   26.6990   15.5300   C 0  0  0  0  0  0  0  0  0  0  0  0
   20.9330   27.8080   14.9370   C 0  0  0  0  0  0  0  0  0  0  0  0
   21.5970   28.9600   14.6630   O 0  0  0  0  0  0  0  0  0  0  0  0
   22.9720   28.8560   14.9670   C 0  0  0  0  0  0  0  0  0  0  0  0
 38 37  2  0  0  0  0
 38 36  1  0  0  0  0
 38 39  1  0  0  0  0
 37 35  1  0  0  0  0
 35 33  2  0  0  0  0
 33 34  1  0  0  0  0
 33 30  1  0  0  0  0
 34 36  2  0  0  0  0
 30 31  2  0  0  0  0
 30 32  2  0  0  0  0
 30 13  1  0  0  0  0
 13 14  1  0  0  0  0
 13 18  1  0  0  0  0
 14 15  1  0  0  0  0
 15 16  1  0  0  0  0
 15 17  1  0  0  0  0
 18 19  1  0  0  0  0
 19 20  1  0  0  0  0
 19 21  1  0  0  0  0
 21 22  1  0  0  0  0
 21 23  1  0  0  0  0
 22  1  1  0  0  0  0
  1  2  2  0  0  0  0
  1  3  1  0  0  0  0
  3  4  1  0  0  0  0
  4  5  1  0  0  0  0
  4 11  1  0  0  0  0
  5  6  1  0  0  0  0
  6  7  1  0  0  0  0
  6 10  1  0  0  0  0
  7  8  1  0  0  0  0
  8  9  1  0  0  0  0
  9 10  1  0  0  0  0
  9 12  1  0  0  0  0
 10 11  1  0  0  0  0
 23 29  1  0  0  0  0
 24 25  2  0  0  0  0
 24 29  1  0  0  0  0
 25 26  1  0  0  0  0
 26 27  2  0  0  0  0
 27 28  1  0  0  0  0
 28 29  2  0  0  0  0
 39 40  1  0  0  0  0
A    1
C21
A    2
O22
A    3
O23
A    4
C24
A    5
C25
A    6
C26
A    7
O27
A    8
C28
A    9
C29
A   10
C30
A   11
C31
A   12
O41
A   13
N11
A   14
C12
A   15
C13
A   16
C14
A   17
C15
A   18
C16
A   19
C17
A   20
O18
A   21
C19
A   22
N20
A   23
C32
A   24
C33
A   25
C34
A   26
C35
A   27
C36
A   28
C37
A   29
C38
A   30
S8
A   31
O9
A   32
O10
A   33
C5
A   34
C6
A   35
C4
A   36
C7
A   37
C3
A   38
C2
A   39
O39
A   40
C40
M  END
>  <InstanceId>
3ST5_G89_B_201

>  <ChemCompId>
G89

>  <PdbId>
3ST5

>  <ChainId>
B

>  <ResidueNumber>
201

>  <InsertionCode>


>  <Model>
1

>  <AltIds>


>  <MissingHeavyAtoms>
0

>  <ObservedFormula>
C29 N2 O8 S

>  <Name>
(3R,3aR,5R,6aR)-3-hydroxyhexahydro-2H-cyclopenta[b]furan-5-yl [(2S,3R)-3-hydroxy-4-{[(4-methoxyphenyl)sulfonyl](2-methylpropyl)amino}-1-phenylbutan-2-yl]carbamate

>  <SystematicName>
[(3R,3aR,5R,6aR)-3-oxidanyl-3,3a,4,5,6,6a-hexahydro-2H-cyclopenta[b]furan-5-yl] N-[(2S,3R)-4-[(4-methoxyphenyl)sulfonyl-(2-methylpropyl)amino]-3-oxidanyl-1-phenyl-butan-2-yl]carbamate

>  <Synonyms>


>  <Type>
peptide-like

>  <Formula>
C29 H40 N2 O8 S

>  <MolecularWeight>
576.701

>  <ModifiedDate>
2011-08-12

>  <Parent>


>  <OneLetterCode>


>  <SubcomponentList>
030 FV0 4OS

>  <AmbiguousFlag>
N

>  <InChI>
InChI=1S/C29H40N2O8S/c1-19(2)16-31(40(35,36)23-11-9-21(37-3)10-12-23)17-26(32)25(13-20-7-5-4-6-8-20)30-29(34)39-22-14-24-27(33)18-38-28(24)15-22/h4-12,19,22,24-28,32-33H,13-18H2,1-3H3,(H,30,34)/t22-,24-,25+,26-,27+,28-/m1/s1

>  <InChIKey>
LJPOEDMTSRUIGG-RVSUYJHDSA-N

>  <SMILES>
CC(C)C[N@@](C[C@H]([C@H](Cc1ccccc1)NC(=O)O[C@@H]2C[C@H]3[C@@H](C2)OC[C@@H]3O)O)S(=O)(=O)c4ccc(cc4)OC

$$$$
