3WTN_N2Y_A_301


 16 17  0  0  0  0  0  0  0  0999 V2000
    1.2468   22.5633   16.5672 N   0  0  0  0  0  0  0  0  0  0  0  0
    2.1546   22.4205   14.3714 N   0  0  0  0  0  0  0  0  0  0  0  0
    1.8493   23.1012   15.5825 C   0  0  0  0  0  0  0  0  0  0  0  0
    2.2997   24.4288   15.5333 N   0  0  0  0  0  0  0  0  0  0  0  0
    2.9388   24.6795   14.2472 C   0  0  0  0  0  0  0  0  0  0  0  0
    2.8440   23.3594   13.4738 C   0  0  0  0  0  0  0  0  0  0  0  0
    0.9645   21.6215   16.5166 H   0  0  0  0  0  0  0  0  0  0  0  0
    2.1996   25.0897   16.2561 H   0  0  0  0  0  0  0  0  0  0  0  0
    1.8510   21.0163   14.0113 C   0  0  0  0  0  0  0  0  0  0  0  0
    5.0247   18.0783   14.3485 C   0  0  0  0  0  0  0  0  0  0  0  0
    6.2981   16.9136   14.4817 Cl  0  0  0  0  0  0  0  0  0  0  0  0
    5.2718   19.3763   14.6378 N   0  0  0  0  0  0  0  0  0  0  0  0
    4.3106   20.3173   14.5458 C   0  0  0  0  0  0  0  0  0  0  0  0
    2.9782   19.9736   14.1314 C   0  0  0  0  0  0  0  0  0  0  0  0
    2.7143   18.6101   13.8271 C   0  0  0  0  0  0  0  0  0  0  0  0
    3.7365   17.6451   13.9314 C   0  0  0  0  0  0  0  0  0  0  0  0
 16 15  1  0  0  0
 16 10  2  0  0  0
  6  5  1  0  0  0
  6  2  1  0  0  0
 15 14  2  0  0  0
 11 10  1  0  0  0
 10 12  1  0  0  0
  5  4  1  0  0  0
 14  9  1  0  0  0
 14 13  1  0  0  0
  9  2  1  0  0  0
  2  3  1  0  0  0
 12 13  2  0  0  0
  4  3  1  0  0  0
  3  1  2  0  0  0
  1  7  1  0  0  0
  4  8  1  0  0  0
M  END
> <minimizedAffinity>
-7.45030

$$$$
3WTN_N2Y_A_301


 16 17  0  0  0  0  0  0  0  0999 V2000
    2.3645   16.4839   14.5669 N   0  0  0  0  0  0  0  0  0  0  0  0
    3.6103   18.3759   13.8360 N   0  0  0  0  0  0  0  0  0  0  0  0
    3.4809   17.0662   14.3758 C   0  0  0  0  0  0  0  0  0  0  0  0
    4.7409   16.5207   14.6633 N   0  0  0  0  0  0  0  0  0  0  0  0
    5.7798   17.4813   14.3120 C   0  0  0  0  0  0  0  0  0  0  0  0
    5.0410   18.7093   13.7682 C   0  0  0  0  0  0  0  0  0  0  0  0
    1.5244   16.9421   14.3358 H   0  0  0  0  0  0  0  0  0  0  0  0
    4.8993   15.6266   15.0437 H   0  0  0  0  0  0  0  0  0  0  0  0
    2.5333   19.2973   13.4063 C   0  0  0  0  0  0  0  0  0  0  0  0
    2.6501   23.3951   14.8251 C   0  0  0  0  0  0  0  0  0  0  0  0
    2.7055   25.0279   15.3963 Cl  0  0  0  0  0  0  0  0  0  0  0  0
    3.7922   22.6750   14.7442 N   0  0  0  0  0  0  0  0  0  0  0  0
    3.7954   21.3997   14.3070 C   0  0  0  0  0  0  0  0  0  0  0  0
    2.5755   20.7522   13.9099 C   0  0  0  0  0  0  0  0  0  0  0  0
    1.3728   21.5061   13.9928 C   0  0  0  0  0  0  0  0  0  0  0  0
    1.3960   22.8381   14.4530 C   0  0  0  0  0  0  0  0  0  0  0  0
 16 15  1  0  0  0
 16 10  2  0  0  0
  6  5  1  0  0  0
  6  2  1  0  0  0
 15 14  2  0  0  0
 11 10  1  0  0  0
 10 12  1  0  0  0
  5  4  1  0  0  0
 14  9  1  0  0  0
 14 13  1  0  0  0
  9  2  1  0  0  0
  2  3  1  0  0  0
 12 13  2  0  0  0
  4  3  1  0  0  0
  3  1  2  0  0  0
  1  7  1  0  0  0
  4  8  1  0  0  0
M  END
> <minimizedAffinity>
-6.38053

$$$$
3WTN_N2Y_A_301


 16 17  0  0  0  0  0  0  0  0999 V2000
   -0.2655   15.8051   14.5173 N   0  0  0  0  0  0  0  0  0  0  0  0
    1.6257   16.5001   13.2497 N   0  0  0  0  0  0  0  0  0  0  0  0
    0.3167   15.9627   13.3956 C   0  0  0  0  0  0  0  0  0  0  0  0
   -0.2285   15.6363   12.1450 N   0  0  0  0  0  0  0  0  0  0  0  0
    0.7316   15.9570   11.0958 C   0  0  0  0  0  0  0  0  0  0  0  0
    1.9590   16.5247   11.8177 C   0  0  0  0  0  0  0  0  0  0  0  0
    0.1924   16.0623   15.3500 H   0  0  0  0  0  0  0  0  0  0  0  0
   -1.1221   15.2500   11.9983 H   0  0  0  0  0  0  0  0  0  0  0  0
    2.5464   16.9637   14.3131 C   0  0  0  0  0  0  0  0  0  0  0  0
    3.7002   21.1453   14.3466 C   0  0  0  0  0  0  0  0  0  0  0  0
    4.1677   22.8116   14.3671 Cl  0  0  0  0  0  0  0  0  0  0  0  0
    4.5891   20.1960   14.7182 N   0  0  0  0  0  0  0  0  0  0  0  0
    4.2672   18.8867   14.7193 C   0  0  0  0  0  0  0  0  0  0  0  0
    2.9567   18.4482   14.3251 C   0  0  0  0  0  0  0  0  0  0  0  0
    2.0197   19.4431   13.9330 C   0  0  0  0  0  0  0  0  0  0  0  0
    2.3808   20.8055   13.9402 C   0  0  0  0  0  0  0  0  0  0  0  0
 16 15  1  0  0  0
 16 10  2  0  0  0
  6  5  1  0  0  0
  6  2  1  0  0  0
 15 14  2  0  0  0
 11 10  1  0  0  0
 10 12  1  0  0  0
  5  4  1  0  0  0
 14  9  1  0  0  0
 14 13  1  0  0  0
  9  2  1  0  0  0
  2  3  1  0  0  0
 12 13  2  0  0  0
  4  3  1  0  0  0
  3  1  2  0  0  0
  1  7  1  0  0  0
  4  8  1  0  0  0
M  END
> <minimizedAffinity>
-6.24534

$$$$
3WTN_N2Y_A_301


 16 17  0  0  0  0  0  0  0  0999 V2000
    2.1112   22.7085   16.6735 N   0  0  0  0  0  0  0  0  0  0  0  0
    3.5748   22.7199   14.7962 N   0  0  0  0  0  0  0  0  0  0  0  0
    2.5609   23.2752   15.6253 C   0  0  0  0  0  0  0  0  0  0  0  0
    2.1357   24.5156   15.1270 N   0  0  0  0  0  0  0  0  0  0  0  0
    2.8775   24.8334   13.9128 C   0  0  0  0  0  0  0  0  0  0  0  0
    3.8269   23.6514   13.6866 C   0  0  0  0  0  0  0  0  0  0  0  0
    2.4679   21.8342   16.9520 H   0  0  0  0  0  0  0  0  0  0  0  0
    1.4429   25.0841   15.5345 H   0  0  0  0  0  0  0  0  0  0  0  0
    4.2854   21.4310   14.9612 C   0  0  0  0  0  0  0  0  0  0  0  0
    2.4335   17.8470   13.3661 C   0  0  0  0  0  0  0  0  0  0  0  0
    1.6853   16.4212   12.7313 Cl  0  0  0  0  0  0  0  0  0  0  0  0
    1.7740   19.0269   13.3188 N   0  0  0  0  0  0  0  0  0  0  0  0
    2.3177   20.1616   13.8031 C   0  0  0  0  0  0  0  0  0  0  0  0
    3.6274   20.1589   14.3945 C   0  0  0  0  0  0  0  0  0  0  0  0
    4.3243   18.9206   14.4455 C   0  0  0  0  0  0  0  0  0  0  0  0
    3.7341   17.7481   13.9320 C   0  0  0  0  0  0  0  0  0  0  0  0
 16 15  1  0  0  0
 16 10  2  0  0  0
  6  5  1  0  0  0
  6  2  1  0  0  0
 15 14  2  0  0  0
 11 10  1  0  0  0
 10 12  1  0  0  0
  5  4  1  0  0  0
 14  9  1  0  0  0
 14 13  1  0  0  0
  9  2  1  0  0  0
  2  3  1  0  0  0
 12 13  2  0  0  0
  4  3  1  0  0  0
  3  1  2  0  0  0
  1  7  1  0  0  0
  4  8  1  0  0  0
M  END
> <minimizedAffinity>
-5.99834

$$$$
3WTN_N2Y_A_301


 16 17  0  0  0  0  0  0  0  0999 V2000
    3.1054   23.6628   12.4639 N   0  0  0  0  0  0  0  0  0  0  0  0
    2.1239   22.5152   14.3040 N   0  0  0  0  0  0  0  0  0  0  0  0
    2.7017   23.6509   13.6717 C   0  0  0  0  0  0  0  0  0  0  0  0
    2.7618   24.7362   14.5586 N   0  0  0  0  0  0  0  0  0  0  0  0
    2.2081   24.3429   15.8486 C   0  0  0  0  0  0  0  0  0  0  0  0
    1.7879   22.8775   15.6890 C   0  0  0  0  0  0  0  0  0  0  0  0
    3.0248   22.8529   11.9100 H   0  0  0  0  0  0  0  0  0  0  0  0
    3.1225   25.6265   14.3430 H   0  0  0  0  0  0  0  0  0  0  0  0
    1.8835   21.1724   13.7272 C   0  0  0  0  0  0  0  0  0  0  0  0
    4.8716   18.0949   14.3744 C   0  0  0  0  0  0  0  0  0  0  0  0
    6.0713   16.8742   14.6317 Cl  0  0  0  0  0  0  0  0  0  0  0  0
    5.1568   19.3852   14.6629 N   0  0  0  0  0  0  0  0  0  0  0  0
    4.2535   20.3686   14.4763 C   0  0  0  0  0  0  0  0  0  0  0  0
    2.9448   20.0802   13.9574 C   0  0  0  0  0  0  0  0  0  0  0  0
    2.6409   18.7249   13.6535 C   0  0  0  0  0  0  0  0  0  0  0  0
    3.6027   17.7150   13.8579 C   0  0  0  0  0  0  0  0  0  0  0  0
 16 15  1  0  0  0
 16 10  2  0  0  0
  6  5  1  0  0  0
  6  2  1  0  0  0
 15 14  2  0  0  0
 11 10  1  0  0  0
 10 12  1  0  0  0
  5  4  1  0  0  0
 14  9  1  0  0  0
 14 13  1  0  0  0
  9  2  1  0  0  0
  2  3  1  0  0  0
 12 13  2  0  0  0
  4  3  1  0  0  0
  3  1  2  0  0  0
  1  7  1  0  0  0
  4  8  1  0  0  0
M  END
> <minimizedAffinity>
-5.82098

$$$$
3WTN_N2Y_A_301


 16 17  0  0  0  0  0  0  0  0999 V2000
   -1.6913   15.0952   13.0995 N   0  0  0  0  0  0  0  0  0  0  0  0
    0.4449   15.9872   12.5453 N   0  0  0  0  0  0  0  0  0  0  0  0
   -0.8471   15.4832   12.2285 C   0  0  0  0  0  0  0  0  0  0  0  0
   -1.0504   15.4750   10.8405 N   0  0  0  0  0  0  0  0  0  0  0  0
    0.1376   15.9898   10.1706 C   0  0  0  0  0  0  0  0  0  0  0  0
    1.1299   16.3271   11.2893 C   0  0  0  0  0  0  0  0  0  0  0  0
   -1.4650   15.1357   14.0567 H   0  0  0  0  0  0  0  0  0  0  0  0
   -1.8695   15.1686   10.3884 H   0  0  0  0  0  0  0  0  0  0  0  0
    1.0561   16.1569   13.8837 C   0  0  0  0  0  0  0  0  0  0  0  0
    4.4667   18.8112   14.2593 C   0  0  0  0  0  0  0  0  0  0  0  0
    5.8222   19.8776   14.4041 Cl  0  0  0  0  0  0  0  0  0  0  0  0
    3.2256   19.3242   14.0983 N   0  0  0  0  0  0  0  0  0  0  0  0
    2.1418   18.5310   13.9794 C   0  0  0  0  0  0  0  0  0  0  0  0
    2.2666   17.0999   14.0172 C   0  0  0  0  0  0  0  0  0  0  0  0
    3.5696   16.5568   14.1871 C   0  0  0  0  0  0  0  0  0  0  0  0
    4.6867   17.4075   14.3093 C   0  0  0  0  0  0  0  0  0  0  0  0
 16 15  1  0  0  0
 16 10  2  0  0  0
  6  5  1  0  0  0
  6  2  1  0  0  0
 15 14  2  0  0  0
 11 10  1  0  0  0
 10 12  1  0  0  0
  5  4  1  0  0  0
 14  9  1  0  0  0
 14 13  1  0  0  0
  9  2  1  0  0  0
  2  3  1  0  0  0
 12 13  2  0  0  0
  4  3  1  0  0  0
  3  1  2  0  0  0
  1  7  1  0  0  0
  4  8  1  0  0  0
M  END
> <minimizedAffinity>
-5.18382

$$$$
3WTN_N2Y_A_301


 16 17  0  0  0  0  0  0  0  0999 V2000
    2.0724   19.7010   14.1717 N   0  0  0  0  0  0  0  0  0  0  0  0
    3.1619   17.5874   14.2812 N   0  0  0  0  0  0  0  0  0  0  0  0
    3.1393   19.0055   14.1716 C   0  0  0  0  0  0  0  0  0  0  0  0
    4.4413   19.5162   14.0637 N   0  0  0  0  0  0  0  0  0  0  0  0
    5.4001   18.4186   14.0996 C   0  0  0  0  0  0  0  0  0  0  0  0
    4.5629   17.1423   14.2399 C   0  0  0  0  0  0  0  0  0  0  0  0
    1.1965   19.2587   14.2521 H   0  0  0  0  0  0  0  0  0  0  0  0
    4.6721   20.4694   13.9770 H   0  0  0  0  0  0  0  0  0  0  0  0
    2.0120   16.6626   14.4082 C   0  0  0  0  0  0  0  0  0  0  0  0
   -0.2764   15.7350   10.8415 C   0  0  0  0  0  0  0  0  0  0  0  0
   -1.1956   15.3587    9.4241 Cl  0  0  0  0  0  0  0  0  0  0  0  0
   -0.8499   15.6212   12.0612 N   0  0  0  0  0  0  0  0  0  0  0  0
   -0.1709   15.9018   13.1916 C   0  0  0  0  0  0  0  0  0  0  0  0
    1.1989   16.3333   13.1423 C   0  0  0  0  0  0  0  0  0  0  0  0
    1.8052   16.4550   11.8620 C   0  0  0  0  0  0  0  0  0  0  0  0
    1.0737   16.1558   10.6949 C   0  0  0  0  0  0  0  0  0  0  0  0
 16 15  1  0  0  0
 16 10  2  0  0  0
  6  5  1  0  0  0
  6  2  1  0  0  0
 15 14  2  0  0  0
 11 10  1  0  0  0
 10 12  1  0  0  0
  5  4  1  0  0  0
 14  9  1  0  0  0
 14 13  1  0  0  0
  9  2  1  0  0  0
  2  3  1  0  0  0
 12 13  2  0  0  0
  4  3  1  0  0  0
  3  1  2  0  0  0
  1  7  1  0  0  0
  4  8  1  0  0  0
M  END
> <minimizedAffinity>
-5.17674

$$$$
3WTN_N2Y_A_301


 16 17  0  0  0  0  0  0  0  0999 V2000
    4.6988   23.9365   13.3739 N   0  0  0  0  0  0  0  0  0  0  0  0
    3.5547   22.5185   14.9057 N   0  0  0  0  0  0  0  0  0  0  0  0
    3.7572   23.7421   14.2091 C   0  0  0  0  0  0  0  0  0  0  0  0
    2.7858   24.6868   14.5718 N   0  0  0  0  0  0  0  0  0  0  0  0
    1.8786   24.1018   15.5517 C   0  0  0  0  0  0  0  0  0  0  0  0
    2.3817   22.6718   15.7792 C   0  0  0  0  0  0  0  0  0  0  0  0
    5.3394   23.2152   13.1776 H   0  0  0  0  0  0  0  0  0  0  0  0
    2.7259   25.6040   14.2190 H   0  0  0  0  0  0  0  0  0  0  0  0
    4.3539   21.2746   14.8183 C   0  0  0  0  0  0  0  0  0  0  0  0
    2.3740   17.6518   13.4864 C   0  0  0  0  0  0  0  0  0  0  0  0
    1.5750   16.2114   12.9550 Cl  0  0  0  0  0  0  0  0  0  0  0  0
    1.8153   18.8581   13.2371 N   0  0  0  0  0  0  0  0  0  0  0  0
    2.4017   20.0054   13.6343 C   0  0  0  0  0  0  0  0  0  0  0  0
    3.6506   19.9887   14.3449 C   0  0  0  0  0  0  0  0  0  0  0  0
    4.2415   18.7226   14.6082 C   0  0  0  0  0  0  0  0  0  0  0  0
    3.6086   17.5375   14.1822 C   0  0  0  0  0  0  0  0  0  0  0  0
 16 15  1  0  0  0
 16 10  2  0  0  0
  6  5  1  0  0  0
  6  2  1  0  0  0
 15 14  2  0  0  0
 11 10  1  0  0  0
 10 12  1  0  0  0
  5  4  1  0  0  0
 14  9  1  0  0  0
 14 13  1  0  0  0
  9  2  1  0  0  0
  2  3  1  0  0  0
 12 13  2  0  0  0
  4  3  1  0  0  0
  3  1  2  0  0  0
  1  7  1  0  0  0
  4  8  1  0  0  0
M  END
> <minimizedAffinity>
-5.17246

$$$$
