2R3T_G4G_B_2501


 50 54  0  0  0  0  0  0  0  0999 V2000
  -11.4493   17.3336  -17.9958 C   0  0  0  0  0  0  0  0  0  0  0  0
  -12.8927   17.3762  -18.3666 N   0  0  0  0  0  0  0  0  0  0  0  0
  -11.2323   18.5534  -17.0884 C   0  0  0  0  0  0  0  0  0  0  0  0
  -12.2612   19.6175  -17.6457 C   0  0  0  0  0  0  0  0  0  0  0  0
  -13.3694   18.7849  -18.3623 C   0  0  0  0  0  0  0  0  0  0  0  0
  -13.4323   16.8335  -17.6923 H   0  0  0  0  0  0  0  0  0  0  0  0
  -11.5491   18.3492  -15.6374 N   0  0  0  0  0  0  0  0  0  0  0  0
  -10.1915   18.5027  -14.6207 S   0  0  0  0  0  0  0  0  0  0  0  0
   -9.5659   19.7610  -15.0142 O   0  0  0  0  0  0  0  0  0  0  0  0
  -10.6500   18.3361  -13.2198 O   0  0  0  0  0  0  0  0  0  0  0  0
   -8.4458   14.7958  -14.5291 C   0  0  0  0  0  0  0  0  0  0  0  0
   -7.0502   16.2867  -15.9347 C   0  0  0  0  0  0  0  0  0  0  0  0
   -7.2866   15.0134  -15.3510 C   0  0  0  0  0  0  0  0  0  0  0  0
   -9.3622   15.8635  -14.3021 C   0  0  0  0  0  0  0  0  0  0  0  0
   -7.9607   17.3484  -15.6904 C   0  0  0  0  0  0  0  0  0  0  0  0
   -9.1136   17.1428  -14.8746 C   0  0  0  0  0  0  0  0  0  0  0  0
   -5.3595   14.0647  -16.4924 N   0  0  0  0  0  0  0  0  0  0  0  0
   -6.4686   12.8776  -14.9307 O   0  0  0  0  0  0  0  0  0  0  0  0
   -6.3442   13.9095  -15.5844 C   0  0  0  0  0  0  0  0  0  0  0  0
   -4.7223   13.3326  -16.6575 H   0  0  0  0  0  0  0  0  0  0  0  0
   -5.2777   14.9101  -16.9902 H   0  0  0  0  0  0  0  0  0  0  0  0
  -12.8716   18.1102  -15.0064 C   0  0  0  0  0  0  0  0  0  0  0  0
  -13.5509   19.4730  -14.7097 C   0  0  0  0  0  0  0  0  0  0  0  0
  -12.9005   20.4074  -13.8364 C   0  0  0  0  0  0  0  0  0  0  0  0
  -14.8180   19.7981  -15.2853 C   0  0  0  0  0  0  0  0  0  0  0  0
  -13.5644   21.6582  -13.6101 C   0  0  0  0  0  0  0  0  0  0  0  0
  -15.4751   21.0472  -15.0630 C   0  0  0  0  0  0  0  0  0  0  0  0
  -14.8212   21.9749  -14.2010 C   0  0  0  0  0  0  0  0  0  0  0  0
  -11.5857   20.5619  -18.5988 N   0  0  0  0  0  0  0  0  0  0  0  0
  -11.4497   22.1548  -17.9981 S   0  0  0  0  0  0  0  0  0  0  0  0
  -11.6685   22.2314  -16.5719 O   0  0  0  0  0  0  0  0  0  0  0  0
  -10.3744   22.8059  -18.7376 O   0  0  0  0  0  0  0  0  0  0  0  0
  -14.0632   24.0427  -20.5158 C   0  0  0  0  0  0  0  0  0  0  0  0
  -15.3552   23.1910  -18.6013 C   0  0  0  0  0  0  0  0  0  0  0  0
  -15.2673   23.9151  -19.8037 C   0  0  0  0  0  0  0  0  0  0  0  0
  -12.8605   23.5196  -19.9689 C   0  0  0  0  0  0  0  0  0  0  0  0
  -14.1532   22.6752  -18.0444 C   0  0  0  0  0  0  0  0  0  0  0  0
  -12.9237   22.8347  -18.7338 C   0  0  0  0  0  0  0  0  0  0  0  0
  -16.8097   24.0539  -21.5818 O   0  0  0  0  0  0  0  0  0  0  0  0
  -17.3014   25.2813  -19.7903 N   0  0  0  0  0  0  0  0  0  0  0  0
  -16.5275   24.4286  -20.4593 C   0  0  0  0  0  0  0  0  0  0  0  0
  -18.1261   25.6255  -20.2032 H   0  0  0  0  0  0  0  0  0  0  0  0
  -17.0486   25.5674  -18.8828 H   0  0  0  0  0  0  0  0  0  0  0  0
  -11.1312   20.2153  -19.9696 C   0  0  0  0  0  0  0  0  0  0  0  0
   -9.8254   19.4412  -20.0731 C   0  0  0  0  0  0  0  0  0  0  0  0
   -8.7958   19.6586  -19.1305 C   0  0  0  0  0  0  0  0  0  0  0  0
   -7.6000   18.8938  -19.2863 C   0  0  0  0  0  0  0  0  0  0  0  0
   -7.4630   17.9914  -20.3766 C   0  0  0  0  0  0  0  0  0  0  0  0
   -9.7066   18.5124  -21.1444 C   0  0  0  0  0  0  0  0  0  0  0  0
   -8.5171   17.7541  -21.2930 C   0  0  0  0  0  0  0  0  0  0  0  0
 11 13  2  0  0  0
 11 14  1  0  0  0
 39 41  2  0  0  0
 17 19  1  0  0  0
 33 36  2  0  0  0
 33 35  1  0  0  0
 18 19  2  0  0  0
 40 41  1  0  0  0
 12 15  2  0  0  0
 12 13  1  0  0  0
 13 19  1  0  0  0
 34 35  2  0  0  0
 34 37  1  0  0  0
 35 41  1  0  0  0
 22  7  1  0  0  0
 22 23  1  0  0  0
  8  7  1  0  0  0
  8  9  2  0  0  0
  8 16  1  0  0  0
  8 10  2  0  0  0
 30 32  2  0  0  0
 30 38  1  0  0  0
 30 29  1  0  0  0
 30 31  2  0  0  0
 23 25  1  0  0  0
 23 24  2  0  0  0
 24 26  1  0  0  0
 25 27  2  0  0  0
 14 16  2  0  0  0
 36 38  1  0  0  0
 15 16  1  0  0  0
 37 38  2  0  0  0
  1  2  1  0  0  0
  1  3  1  0  0  0
  2  5  1  0  0  0
  3  4  1  0  0  0
  3  7  1  0  0  0
  4 29  1  0  0  0
  4  5  1  0  0  0
 26 28  2  0  0  0
 27 28  1  0  0  0
 29 44  1  0  0  0
 44 45  1  0  0  0
 45 49  1  0  0  0
 45 46  2  0  0  0
 46 47  1  0  0  0
 47 48  2  0  0  0
 48 50  1  0  0  0
 49 50  2  0  0  0
 17 20  1  0  0  0
 17 21  1  0  0  0
 40 42  1  0  0  0
 40 43  1  0  0  0
  2  6  1  0  0  0
M  END
> <minimizedAffinity>
-11.73749

$$$$
2R3T_G4G_B_2501


 50 54  0  0  0  0  0  0  0  0999 V2000
  -13.9495   19.3058  -18.5627 C   0  0  0  0  0  0  0  0  0  0  0  0
  -13.1254   18.0646  -18.6164 N   0  0  0  0  0  0  0  0  0  0  0  0
  -13.0720   20.3390  -17.8411 C   0  0  0  0  0  0  0  0  0  0  0  0
  -12.2174   19.4635  -16.8387 C   0  0  0  0  0  0  0  0  0  0  0  0
  -12.1947   18.0310  -17.4569 C   0  0  0  0  0  0  0  0  0  0  0  0
  -12.5879   18.0517  -19.4832 H   0  0  0  0  0  0  0  0  0  0  0  0
  -12.1059   21.0900  -18.7071 N   0  0  0  0  0  0  0  0  0  0  0  0
  -12.8485   21.8823  -20.0190 S   0  0  0  0  0  0  0  0  0  0  0  0
  -11.8333   22.7971  -20.5309 O   0  0  0  0  0  0  0  0  0  0  0  0
  -13.4023   20.8453  -20.9236 O   0  0  0  0  0  0  0  0  0  0  0  0
  -16.2225   22.9969  -17.9767 C   0  0  0  0  0  0  0  0  0  0  0  0
  -15.7302   24.7264  -19.6834 C   0  0  0  0  0  0  0  0  0  0  0  0
  -16.5474   24.2354  -18.6303 C   0  0  0  0  0  0  0  0  0  0  0  0
  -15.0731   22.2610  -18.3872 C   0  0  0  0  0  0  0  0  0  0  0  0
  -14.5959   23.9787  -20.0956 C   0  0  0  0  0  0  0  0  0  0  0  0
  -14.2657   22.7472  -19.4539 C   0  0  0  0  0  0  0  0  0  0  0  0
  -18.3388   25.8180  -19.0809 N   0  0  0  0  0  0  0  0  0  0  0  0
  -18.1522   24.8395  -17.0595 O   0  0  0  0  0  0  0  0  0  0  0  0
  -17.7329   24.9928  -18.2033 C   0  0  0  0  0  0  0  0  0  0  0  0
  -19.1334   26.3304  -18.8067 H   0  0  0  0  0  0  0  0  0  0  0  0
  -17.9865   25.9080  -19.9958 H   0  0  0  0  0  0  0  0  0  0  0  0
  -10.6450   21.2731  -18.5159 C   0  0  0  0  0  0  0  0  0  0  0  0
   -9.8918   20.0736  -19.1487 C   0  0  0  0  0  0  0  0  0  0  0  0
   -8.8262   19.4483  -18.4190 C   0  0  0  0  0  0  0  0  0  0  0  0
  -10.2398   19.5972  -20.4505 C   0  0  0  0  0  0  0  0  0  0  0  0
   -8.1755   18.3335  -19.0437 C   0  0  0  0  0  0  0  0  0  0  0  0
   -9.5939   18.4827  -21.0687 C   0  0  0  0  0  0  0  0  0  0  0  0
   -8.5414   17.8604  -20.3365 C   0  0  0  0  0  0  0  0  0  0  0  0
  -12.8411   19.4585  -15.4721 N   0  0  0  0  0  0  0  0  0  0  0  0
  -11.7305   19.7795  -14.2150 S   0  0  0  0  0  0  0  0  0  0  0  0
  -10.8256   20.8594  -14.5352 O   0  0  0  0  0  0  0  0  0  0  0  0
  -12.4408   19.6002  -12.9538 O   0  0  0  0  0  0  0  0  0  0  0  0
  -10.4736   15.8883  -14.1035 C   0  0  0  0  0  0  0  0  0  0  0  0
   -8.6126   17.2489  -14.9671 C   0  0  0  0  0  0  0  0  0  0  0  0
   -9.1456   16.0185  -14.5426 C   0  0  0  0  0  0  0  0  0  0  0  0
  -11.2920   17.0430  -13.9769 C   0  0  0  0  0  0  0  0  0  0  0  0
   -9.4235   18.4087  -14.8320 C   0  0  0  0  0  0  0  0  0  0  0  0
  -10.7527   18.2956  -14.3496 C   0  0  0  0  0  0  0  0  0  0  0  0
   -8.0321   14.3999  -15.8463 O   0  0  0  0  0  0  0  0  0  0  0  0
   -7.9844   14.0556  -13.6470 N   0  0  0  0  0  0  0  0  0  0  0  0
   -8.3398   14.7540  -14.7238 C   0  0  0  0  0  0  0  0  0  0  0  0
   -7.4590   13.2291  -13.7476 H   0  0  0  0  0  0  0  0  0  0  0  0
   -8.2470   14.3658  -12.7503 H   0  0  0  0  0  0  0  0  0  0  0  0
  -14.2614   19.1369  -15.1804 C   0  0  0  0  0  0  0  0  0  0  0  0
  -15.1830   20.3197  -14.9228 C   0  0  0  0  0  0  0  0  0  0  0  0
  -16.5815   20.1716  -15.0585 C   0  0  0  0  0  0  0  0  0  0  0  0
  -17.3852   21.3225  -14.7967 C   0  0  0  0  0  0  0  0  0  0  0  0
  -16.7750   22.5613  -14.4577 C   0  0  0  0  0  0  0  0  0  0  0  0
  -14.5704   21.5480  -14.5481 C   0  0  0  0  0  0  0  0  0  0  0  0
  -15.3741   22.6874  -14.2874 C   0  0  0  0  0  0  0  0  0  0  0  0
 11 13  2  0  0  0
 11 14  1  0  0  0
 39 41  2  0  0  0
 17 19  1  0  0  0
 33 36  2  0  0  0
 33 35  1  0  0  0
 18 19  2  0  0  0
 40 41  1  0  0  0
 12 15  2  0  0  0
 12 13  1  0  0  0
 13 19  1  0  0  0
 34 35  2  0  0  0
 34 37  1  0  0  0
 35 41  1  0  0  0
 22  7  1  0  0  0
 22 23  1  0  0  0
  8  7  1  0  0  0
  8  9  2  0  0  0
  8 16  1  0  0  0
  8 10  2  0  0  0
 30 32  2  0  0  0
 30 38  1  0  0  0
 30 29  1  0  0  0
 30 31  2  0  0  0
 23 25  1  0  0  0
 23 24  2  0  0  0
 24 26  1  0  0  0
 25 27  2  0  0  0
 14 16  2  0  0  0
 36 38  1  0  0  0
 15 16  1  0  0  0
 37 38  2  0  0  0
  1  2  1  0  0  0
  1  3  1  0  0  0
  2  5  1  0  0  0
  3  4  1  0  0  0
  3  7  1  0  0  0
  4 29  1  0  0  0
  4  5  1  0  0  0
 26 28  2  0  0  0
 27 28  1  0  0  0
 29 44  1  0  0  0
 44 45  1  0  0  0
 45 49  1  0  0  0
 45 46  2  0  0  0
 46 47  1  0  0  0
 47 48  2  0  0  0
 48 50  1  0  0  0
 49 50  2  0  0  0
 17 20  1  0  0  0
 17 21  1  0  0  0
 40 42  1  0  0  0
 40 43  1  0  0  0
  2  6  1  0  0  0
M  END
> <minimizedAffinity>
-10.20640

$$$$
2R3T_G4G_B_2501


 50 54  0  0  0  0  0  0  0  0999 V2000
  -13.5941   18.8562  -18.3274 C   0  0  0  0  0  0  0  0  0  0  0  0
  -12.9058   17.5363  -18.4084 N   0  0  0  0  0  0  0  0  0  0  0  0
  -12.4864   19.8663  -17.9940 C   0  0  0  0  0  0  0  0  0  0  0  0
  -11.4702   19.0265  -17.1200 C   0  0  0  0  0  0  0  0  0  0  0  0
  -11.7135   17.5379  -17.5195 C   0  0  0  0  0  0  0  0  0  0  0  0
  -12.6116   17.3656  -19.3700 H   0  0  0  0  0  0  0  0  0  0  0  0
  -11.7225   20.4044  -19.1662 N   0  0  0  0  0  0  0  0  0  0  0  0
  -11.5006   22.0920  -19.1117 S   0  0  0  0  0  0  0  0  0  0  0  0
  -11.0587   22.3706  -17.7491 O   0  0  0  0  0  0  0  0  0  0  0  0
  -10.6210   22.4729  -20.2438 O   0  0  0  0  0  0  0  0  0  0  0  0
  -14.4619   24.2913  -20.8981 C   0  0  0  0  0  0  0  0  0  0  0  0
  -15.3344   23.3895  -18.7600 C   0  0  0  0  0  0  0  0  0  0  0  0
  -15.5251   24.1571  -19.9399 C   0  0  0  0  0  0  0  0  0  0  0  0
  -13.2121   23.6482  -20.6622 C   0  0  0  0  0  0  0  0  0  0  0  0
  -14.0809   22.7651  -18.5264 C   0  0  0  0  0  0  0  0  0  0  0  0
  -13.0186   22.8936  -19.4709 C   0  0  0  0  0  0  0  0  0  0  0  0
  -17.2592   25.7420  -19.3095 N   0  0  0  0  0  0  0  0  0  0  0  0
  -17.4439   24.5293  -21.1998 O   0  0  0  0  0  0  0  0  0  0  0  0
  -16.8136   24.8204  -20.1871 C   0  0  0  0  0  0  0  0  0  0  0  0
  -18.1205   26.1930  -19.4641 H   0  0  0  0  0  0  0  0  0  0  0  0
  -16.7232   25.9638  -18.5140 H   0  0  0  0  0  0  0  0  0  0  0  0
  -11.1006   19.6533  -20.2858 C   0  0  0  0  0  0  0  0  0  0  0  0
   -9.7481   19.0578  -19.8136 C   0  0  0  0  0  0  0  0  0  0  0  0
   -8.9149   19.8200  -18.9284 C   0  0  0  0  0  0  0  0  0  0  0  0
   -9.3216   17.7691  -20.2609 C   0  0  0  0  0  0  0  0  0  0  0  0
   -7.6840   19.2149  -18.5102 C   0  0  0  0  0  0  0  0  0  0  0  0
   -8.0973   17.1657  -19.8385 C   0  0  0  0  0  0  0  0  0  0  0  0
   -7.2771   17.9237  -18.9533 C   0  0  0  0  0  0  0  0  0  0  0  0
  -11.7203   19.2466  -15.6552 N   0  0  0  0  0  0  0  0  0  0  0  0
  -11.6060   17.8205  -14.7226 S   0  0  0  0  0  0  0  0  0  0  0  0
  -11.6889   18.0767  -13.3030 O   0  0  0  0  0  0  0  0  0  0  0  0
  -12.3127   16.7711  -15.4481 O   0  0  0  0  0  0  0  0  0  0  0  0
   -8.1315   15.9455  -15.7931 C   0  0  0  0  0  0  0  0  0  0  0  0
   -7.5439   18.1864  -14.9602 C   0  0  0  0  0  0  0  0  0  0  0  0
   -7.1789   16.9164  -15.4419 C   0  0  0  0  0  0  0  0  0  0  0  0
   -9.5116   16.1950  -15.5641 C   0  0  0  0  0  0  0  0  0  0  0  0
   -8.9223   18.4369  -14.7191 C   0  0  0  0  0  0  0  0  0  0  0  0
   -9.8905   17.4479  -15.0302 C   0  0  0  0  0  0  0  0  0  0  0  0
   -4.9831   17.5549  -16.0166 O   0  0  0  0  0  0  0  0  0  0  0  0
   -5.3108   15.3660  -15.7737 N   0  0  0  0  0  0  0  0  0  0  0  0
   -5.7322   16.6293  -15.7675 C   0  0  0  0  0  0  0  0  0  0  0  0
   -4.3709   15.1616  -15.9839 H   0  0  0  0  0  0  0  0  0  0  0  0
   -5.9391   14.6365  -15.5681 H   0  0  0  0  0  0  0  0  0  0  0  0
  -12.1078   20.5406  -15.0378 C   0  0  0  0  0  0  0  0  0  0  0  0
  -13.5955   20.8583  -15.0116 C   0  0  0  0  0  0  0  0  0  0  0  0
  -14.0329   22.1923  -14.8533 C   0  0  0  0  0  0  0  0  0  0  0  0
  -15.4431   22.4168  -14.8426 C   0  0  0  0  0  0  0  0  0  0  0  0
  -16.3443   21.3218  -14.9458 C   0  0  0  0  0  0  0  0  0  0  0  0
  -14.4937   19.7638  -15.1519 C   0  0  0  0  0  0  0  0  0  0  0  0
  -15.8934   19.9931  -15.1424 C   0  0  0  0  0  0  0  0  0  0  0  0
 11 13  2  0  0  0
 11 14  1  0  0  0
 39 41  2  0  0  0
 17 19  1  0  0  0
 33 36  2  0  0  0
 33 35  1  0  0  0
 18 19  2  0  0  0
 40 41  1  0  0  0
 12 15  2  0  0  0
 12 13  1  0  0  0
 13 19  1  0  0  0
 34 35  2  0  0  0
 34 37  1  0  0  0
 35 41  1  0  0  0
 22  7  1  0  0  0
 22 23  1  0  0  0
  8  7  1  0  0  0
  8  9  2  0  0  0
  8 16  1  0  0  0
  8 10  2  0  0  0
 30 32  2  0  0  0
 30 38  1  0  0  0
 30 29  1  0  0  0
 30 31  2  0  0  0
 23 25  1  0  0  0
 23 24  2  0  0  0
 24 26  1  0  0  0
 25 27  2  0  0  0
 14 16  2  0  0  0
 36 38  1  0  0  0
 15 16  1  0  0  0
 37 38  2  0  0  0
  1  2  1  0  0  0
  1  3  1  0  0  0
  2  5  1  0  0  0
  3  4  1  0  0  0
  3  7  1  0  0  0
  4 29  1  0  0  0
  4  5  1  0  0  0
 26 28  2  0  0  0
 27 28  1  0  0  0
 29 44  1  0  0  0
 44 45  1  0  0  0
 45 49  1  0  0  0
 45 46  2  0  0  0
 46 47  1  0  0  0
 47 48  2  0  0  0
 48 50  1  0  0  0
 49 50  2  0  0  0
 17 20  1  0  0  0
 17 21  1  0  0  0
 40 42  1  0  0  0
 40 43  1  0  0  0
  2  6  1  0  0  0
M  END
> <minimizedAffinity>
-10.17527

$$$$
2R3T_G4G_B_2501


 50 54  0  0  0  0  0  0  0  0999 V2000
  -11.4614   17.8390  -18.6519 C   0  0  0  0  0  0  0  0  0  0  0  0
  -10.9138   18.5053  -19.8679 N   0  0  0  0  0  0  0  0  0  0  0  0
  -11.0177   18.7220  -17.4765 C   0  0  0  0  0  0  0  0  0  0  0  0
   -9.6308   19.3103  -17.9581 C   0  0  0  0  0  0  0  0  0  0  0  0
   -9.6741   19.2478  -19.5166 C   0  0  0  0  0  0  0  0  0  0  0  0
  -11.6058   19.1567  -20.2383 H   0  0  0  0  0  0  0  0  0  0  0  0
  -11.9086   19.8870  -17.1656 N   0  0  0  0  0  0  0  0  0  0  0  0
  -13.4481   19.4289  -16.5997 S   0  0  0  0  0  0  0  0  0  0  0  0
  -14.2661   19.2922  -17.8004 O   0  0  0  0  0  0  0  0  0  0  0  0
  -13.2760   18.2540  -15.7106 O   0  0  0  0  0  0  0  0  0  0  0  0
  -13.9712   22.0509  -13.4935 C   0  0  0  0  0  0  0  0  0  0  0  0
  -15.8420   22.3453  -15.0932 C   0  0  0  0  0  0  0  0  0  0  0  0
  -15.1917   22.7033  -13.8821 C   0  0  0  0  0  0  0  0  0  0  0  0
  -13.4112   21.0419  -14.3300 C   0  0  0  0  0  0  0  0  0  0  0  0
  -15.2848   21.3283  -15.9125 C   0  0  0  0  0  0  0  0  0  0  0  0
  -14.0741   20.6737  -15.5346 C   0  0  0  0  0  0  0  0  0  0  0  0
  -15.1946   24.9658  -12.9889 N   0  0  0  0  0  0  0  0  0  0  0  0
  -16.7651   23.4790  -12.3555 O   0  0  0  0  0  0  0  0  0  0  0  0
  -15.7658   23.7447  -13.0177 C   0  0  0  0  0  0  0  0  0  0  0  0
  -15.5699   25.6714  -12.4140 H   0  0  0  0  0  0  0  0  0  0  0  0
  -14.4022   25.1517  -13.5429 H   0  0  0  0  0  0  0  0  0  0  0  0
  -11.5877   21.3354  -17.2241 C   0  0  0  0  0  0  0  0  0  0  0  0
  -12.4099   21.9962  -18.3617 C   0  0  0  0  0  0  0  0  0  0  0  0
  -12.3967   21.4093  -19.6710 C   0  0  0  0  0  0  0  0  0  0  0  0
  -13.1654   23.1852  -18.1210 C   0  0  0  0  0  0  0  0  0  0  0  0
  -13.1875   22.0512  -20.6805 C   0  0  0  0  0  0  0  0  0  0  0  0
  -13.9571   23.8200  -19.1268 C   0  0  0  0  0  0  0  0  0  0  0  0
  -13.9467   23.2287  -20.4236 C   0  0  0  0  0  0  0  0  0  0  0  0
   -8.4905   18.4999  -17.4107 N   0  0  0  0  0  0  0  0  0  0  0  0
   -7.6475   17.6165  -18.6047 S   0  0  0  0  0  0  0  0  0  0  0  0
   -8.5137   16.7486  -19.3691 O   0  0  0  0  0  0  0  0  0  0  0  0
   -6.6178   18.4954  -19.1471 O   0  0  0  0  0  0  0  0  0  0  0  0
   -4.8072   16.0395  -16.1188 C   0  0  0  0  0  0  0  0  0  0  0  0
   -6.5875   14.3592  -16.3782 C   0  0  0  0  0  0  0  0  0  0  0  0
   -5.3344   14.7594  -15.8806 C   0  0  0  0  0  0  0  0  0  0  0  0
   -5.4976   16.9396  -16.9746 C   0  0  0  0  0  0  0  0  0  0  0  0
   -7.2769   15.2516  -17.2437 C   0  0  0  0  0  0  0  0  0  0  0  0
   -6.7338   16.5314  -17.5257 C   0  0  0  0  0  0  0  0  0  0  0  0
   -3.3887   13.9688  -14.8086 O   0  0  0  0  0  0  0  0  0  0  0  0
   -5.2888   12.9866  -14.1898 N   0  0  0  0  0  0  0  0  0  0  0  0
   -4.5966   13.8665  -14.9111 C   0  0  0  0  0  0  0  0  0  0  0  0
   -4.8233   12.3972  -13.5533 H   0  0  0  0  0  0  0  0  0  0  0  0
   -6.2659   12.9256  -14.2930 H   0  0  0  0  0  0  0  0  0  0  0  0
   -8.1361   18.3825  -15.9732 C   0  0  0  0  0  0  0  0  0  0  0  0
   -9.2130   17.8237  -15.0551 C   0  0  0  0  0  0  0  0  0  0  0  0
   -9.4724   16.4351  -15.0297 C   0  0  0  0  0  0  0  0  0  0  0  0
  -10.4936   15.9811  -14.1408 C   0  0  0  0  0  0  0  0  0  0  0  0
  -11.2300   16.9129  -13.3589 C   0  0  0  0  0  0  0  0  0  0  0  0
   -9.9225   18.7556  -14.2474 C   0  0  0  0  0  0  0  0  0  0  0  0
  -10.9346   18.2985  -13.3650 C   0  0  0  0  0  0  0  0  0  0  0  0
 11 13  2  0  0  0
 11 14  1  0  0  0
 39 41  2  0  0  0
 17 19  1  0  0  0
 33 36  2  0  0  0
 33 35  1  0  0  0
 18 19  2  0  0  0
 40 41  1  0  0  0
 12 15  2  0  0  0
 12 13  1  0  0  0
 13 19  1  0  0  0
 34 35  2  0  0  0
 34 37  1  0  0  0
 35 41  1  0  0  0
 22  7  1  0  0  0
 22 23  1  0  0  0
  8  7  1  0  0  0
  8  9  2  0  0  0
  8 16  1  0  0  0
  8 10  2  0  0  0
 30 32  2  0  0  0
 30 38  1  0  0  0
 30 29  1  0  0  0
 30 31  2  0  0  0
 23 25  1  0  0  0
 23 24  2  0  0  0
 24 26  1  0  0  0
 25 27  2  0  0  0
 14 16  2  0  0  0
 36 38  1  0  0  0
 15 16  1  0  0  0
 37 38  2  0  0  0
  1  2  1  0  0  0
  1  3  1  0  0  0
  2  5  1  0  0  0
  3  4  1  0  0  0
  3  7  1  0  0  0
  4 29  1  0  0  0
  4  5  1  0  0  0
 26 28  2  0  0  0
 27 28  1  0  0  0
 29 44  1  0  0  0
 44 45  1  0  0  0
 45 49  1  0  0  0
 45 46  2  0  0  0
 46 47  1  0  0  0
 47 48  2  0  0  0
 48 50  1  0  0  0
 49 50  2  0  0  0
 17 20  1  0  0  0
 17 21  1  0  0  0
 40 42  1  0  0  0
 40 43  1  0  0  0
  2  6  1  0  0  0
M  END
> <minimizedAffinity>
-9.89641

$$$$
2R3T_G4G_B_2501


 50 54  0  0  0  0  0  0  0  0999 V2000
   -9.1750   20.0013  -17.9232 C   0  0  0  0  0  0  0  0  0  0  0  0
  -10.1383   19.5634  -18.9734 N   0  0  0  0  0  0  0  0  0  0  0  0
   -9.5021   19.1400  -16.6946 C   0  0  0  0  0  0  0  0  0  0  0  0
  -11.0598   18.8954  -16.8179 C   0  0  0  0  0  0  0  0  0  0  0  0
  -11.3873   19.0714  -18.3333 C   0  0  0  0  0  0  0  0  0  0  0  0
   -9.7213   18.8132  -19.5244 H   0  0  0  0  0  0  0  0  0  0  0  0
   -8.8448   17.7934  -16.6508 N   0  0  0  0  0  0  0  0  0  0  0  0
   -8.1666   17.4210  -15.1336 S   0  0  0  0  0  0  0  0  0  0  0  0
   -7.4004   18.6060  -14.7618 O   0  0  0  0  0  0  0  0  0  0  0  0
   -9.2626   16.9661  -14.2436 O   0  0  0  0  0  0  0  0  0  0  0  0
   -6.7200   13.5863  -15.1297 C   0  0  0  0  0  0  0  0  0  0  0  0
   -4.9027   15.1106  -15.8509 C   0  0  0  0  0  0  0  0  0  0  0  0
   -5.3639   13.7997  -15.5564 C   0  0  0  0  0  0  0  0  0  0  0  0
   -7.6049   14.6965  -15.0046 C   0  0  0  0  0  0  0  0  0  0  0  0
   -5.7872   16.2120  -15.7087 C   0  0  0  0  0  0  0  0  0  0  0  0
   -7.1350   16.0107  -15.2843 C   0  0  0  0  0  0  0  0  0  0  0  0
   -4.6642   11.5562  -14.9290 N   0  0  0  0  0  0  0  0  0  0  0  0
   -3.5339   12.7156  -16.4963 O   0  0  0  0  0  0  0  0  0  0  0  0
   -4.4542   12.6522  -15.6859 C   0  0  0  0  0  0  0  0  0  0  0  0
   -4.0618   10.7814  -15.0068 H   0  0  0  0  0  0  0  0  0  0  0  0
   -5.4199   11.5308  -14.2986 H   0  0  0  0  0  0  0  0  0  0  0  0
   -8.7849   16.7606  -17.7158 C   0  0  0  0  0  0  0  0  0  0  0  0
   -7.7712   17.2048  -18.8029 C   0  0  0  0  0  0  0  0  0  0  0  0
   -8.1944   17.2753  -20.1722 C   0  0  0  0  0  0  0  0  0  0  0  0
   -6.4235   17.5300  -18.4556 C   0  0  0  0  0  0  0  0  0  0  0  0
   -7.2218   17.7079  -21.1330 C   0  0  0  0  0  0  0  0  0  0  0  0
   -5.4576   17.9662  -19.4138 C   0  0  0  0  0  0  0  0  0  0  0  0
   -5.8851   18.0418  -20.7713 C   0  0  0  0  0  0  0  0  0  0  0  0
  -11.8209   19.8804  -15.9769 N   0  0  0  0  0  0  0  0  0  0  0  0
  -12.6735   19.1581  -14.6854 S   0  0  0  0  0  0  0  0  0  0  0  0
  -13.3645   17.9524  -15.0809 O   0  0  0  0  0  0  0  0  0  0  0  0
  -11.8649   19.3290  -13.4837 O   0  0  0  0  0  0  0  0  0  0  0  0
  -16.1856   21.2372  -14.9615 C   0  0  0  0  0  0  0  0  0  0  0  0
  -14.6685   22.5248  -13.5122 C   0  0  0  0  0  0  0  0  0  0  0  0
  -15.8864   22.3792  -14.2003 C   0  0  0  0  0  0  0  0  0  0  0  0
  -15.1993   20.2302  -15.1416 C   0  0  0  0  0  0  0  0  0  0  0  0
  -13.6745   21.5256  -13.6979 C   0  0  0  0  0  0  0  0  0  0  0  0
  -13.9499   20.3878  -14.4991 C   0  0  0  0  0  0  0  0  0  0  0  0
  -17.8759   23.1383  -13.1877 O   0  0  0  0  0  0  0  0  0  0  0  0
  -16.9677   24.5267  -14.6727 N   0  0  0  0  0  0  0  0  0  0  0  0
  -16.9906   23.3870  -13.9841 C   0  0  0  0  0  0  0  0  0  0  0  0
  -17.6798   25.1941  -14.5437 H   0  0  0  0  0  0  0  0  0  0  0  0
  -16.2386   24.7017  -15.3107 H   0  0  0  0  0  0  0  0  0  0  0  0
  -11.9185   21.3382  -16.2433 C   0  0  0  0  0  0  0  0  0  0  0  0
  -12.5638   21.7428  -17.5603 C   0  0  0  0  0  0  0  0  0  0  0  0
  -13.8461   21.2570  -17.9002 C   0  0  0  0  0  0  0  0  0  0  0  0
  -14.3918   21.6819  -19.1495 C   0  0  0  0  0  0  0  0  0  0  0  0
  -13.6373   22.5231  -20.0127 C   0  0  0  0  0  0  0  0  0  0  0  0
  -11.8205   22.6141  -18.4046 C   0  0  0  0  0  0  0  0  0  0  0  0
  -12.3685   23.0343  -19.6436 C   0  0  0  0  0  0  0  0  0  0  0  0
 11 13  2  0  0  0
 11 14  1  0  0  0
 39 41  2  0  0  0
 17 19  1  0  0  0
 33 36  2  0  0  0
 33 35  1  0  0  0
 18 19  2  0  0  0
 40 41  1  0  0  0
 12 15  2  0  0  0
 12 13  1  0  0  0
 13 19  1  0  0  0
 34 35  2  0  0  0
 34 37  1  0  0  0
 35 41  1  0  0  0
 22  7  1  0  0  0
 22 23  1  0  0  0
  8  7  1  0  0  0
  8  9  2  0  0  0
  8 16  1  0  0  0
  8 10  2  0  0  0
 30 32  2  0  0  0
 30 38  1  0  0  0
 30 29  1  0  0  0
 30 31  2  0  0  0
 23 25  1  0  0  0
 23 24  2  0  0  0
 24 26  1  0  0  0
 25 27  2  0  0  0
 14 16  2  0  0  0
 36 38  1  0  0  0
 15 16  1  0  0  0
 37 38  2  0  0  0
  1  2  1  0  0  0
  1  3  1  0  0  0
  2  5  1  0  0  0
  3  4  1  0  0  0
  3  7  1  0  0  0
  4 29  1  0  0  0
  4  5  1  0  0  0
 26 28  2  0  0  0
 27 28  1  0  0  0
 29 44  1  0  0  0
 44 45  1  0  0  0
 45 49  1  0  0  0
 45 46  2  0  0  0
 46 47  1  0  0  0
 47 48  2  0  0  0
 48 50  1  0  0  0
 49 50  2  0  0  0
 17 20  1  0  0  0
 17 21  1  0  0  0
 40 42  1  0  0  0
 40 43  1  0  0  0
  2  6  1  0  0  0
M  END
> <minimizedAffinity>
-9.81428

$$$$
2R3T_G4G_B_2501


 50 54  0  0  0  0  0  0  0  0999 V2000
  -11.3812   18.6988  -18.3620 C   0  0  0  0  0  0  0  0  0  0  0  0
  -10.3825   19.6192  -18.9771 N   0  0  0  0  0  0  0  0  0  0  0  0
  -11.1346   18.7926  -16.8492 C   0  0  0  0  0  0  0  0  0  0  0  0
   -9.5799   19.0638  -16.7435 C   0  0  0  0  0  0  0  0  0  0  0  0
   -9.1781   19.7037  -18.1087 C   0  0  0  0  0  0  0  0  0  0  0  0
  -10.7936   20.5472  -19.0781 H   0  0  0  0  0  0  0  0  0  0  0  0
  -11.8292   19.9194  -16.1456 N   0  0  0  0  0  0  0  0  0  0  0  0
  -12.8420   19.4029  -14.8776 S   0  0  0  0  0  0  0  0  0  0  0  0
  -13.3939   18.1300  -15.3302 O   0  0  0  0  0  0  0  0  0  0  0  0
  -12.0538   19.4377  -13.6215 O   0  0  0  0  0  0  0  0  0  0  0  0
  -16.3795   21.4707  -14.9654 C   0  0  0  0  0  0  0  0  0  0  0  0
  -14.7830   22.7063  -13.5265 C   0  0  0  0  0  0  0  0  0  0  0  0
  -16.0673   22.5928  -14.1227 C   0  0  0  0  0  0  0  0  0  0  0  0
  -15.3950   20.4673  -15.2004 C   0  0  0  0  0  0  0  0  0  0  0  0
  -13.8038   21.7096  -13.7787 C   0  0  0  0  0  0  0  0  0  0  0  0
  -14.1036   20.5925  -14.6150 C   0  0  0  0  0  0  0  0  0  0  0  0
  -17.0085   24.7951  -14.5471 N   0  0  0  0  0  0  0  0  0  0  0  0
  -17.9931   23.3868  -13.0892 O   0  0  0  0  0  0  0  0  0  0  0  0
  -17.0856   23.6252  -13.8812 C   0  0  0  0  0  0  0  0  0  0  0  0
  -17.6846   25.4942  -14.3939 H   0  0  0  0  0  0  0  0  0  0  0  0
  -16.2763   24.9502  -15.1867 H   0  0  0  0  0  0  0  0  0  0  0  0
  -11.6832   21.3793  -16.3733 C   0  0  0  0  0  0  0  0  0  0  0  0
  -12.4031   21.7661  -17.6919 C   0  0  0  0  0  0  0  0  0  0  0  0
  -13.7004   21.2204  -17.9709 C   0  0  0  0  0  0  0  0  0  0  0  0
  -11.7827   22.6461  -18.6317 C   0  0  0  0  0  0  0  0  0  0  0  0
  -14.3273   21.6245  -19.1957 C   0  0  0  0  0  0  0  0  0  0  0  0
  -12.4114   23.0519  -19.8488 C   0  0  0  0  0  0  0  0  0  0  0  0
  -13.7032   22.5131  -20.1176 C   0  0  0  0  0  0  0  0  0  0  0  0
   -8.8322   17.7839  -16.4994 N   0  0  0  0  0  0  0  0  0  0  0  0
   -8.2246   17.6423  -14.9096 S   0  0  0  0  0  0  0  0  0  0  0  0
   -7.3345   18.7243  -14.5564 O   0  0  0  0  0  0  0  0  0  0  0  0
   -9.3005   17.1108  -14.0807 O   0  0  0  0  0  0  0  0  0  0  0  0
   -6.7824   13.8259  -15.2072 C   0  0  0  0  0  0  0  0  0  0  0  0
   -4.9402   15.3643  -15.7546 C   0  0  0  0  0  0  0  0  0  0  0  0
   -5.4369   14.0678  -15.5301 C   0  0  0  0  0  0  0  0  0  0  0  0
   -7.6647   14.9190  -14.9927 C   0  0  0  0  0  0  0  0  0  0  0  0
   -5.8158   16.4616  -15.5306 C   0  0  0  0  0  0  0  0  0  0  0  0
   -7.1663   16.2309  -15.1627 C   0  0  0  0  0  0  0  0  0  0  0  0
   -3.7885   12.9095  -16.7552 O   0  0  0  0  0  0  0  0  0  0  0  0
   -4.6470   11.8044  -15.0233 N   0  0  0  0  0  0  0  0  0  0  0  0
   -4.5580   12.8726  -15.8136 C   0  0  0  0  0  0  0  0  0  0  0  0
   -4.0812   11.0171  -15.1942 H   0  0  0  0  0  0  0  0  0  0  0  0
   -5.2785   11.8022  -14.2680 H   0  0  0  0  0  0  0  0  0  0  0  0
   -8.5540   16.7460  -17.5246 C   0  0  0  0  0  0  0  0  0  0  0  0
   -7.7139   17.1812  -18.7161 C   0  0  0  0  0  0  0  0  0  0  0  0
   -8.2772   17.2002  -20.0116 C   0  0  0  0  0  0  0  0  0  0  0  0
   -7.4319   17.6240  -21.0816 C   0  0  0  0  0  0  0  0  0  0  0  0
   -6.0744   17.9653  -20.8310 C   0  0  0  0  0  0  0  0  0  0  0  0
   -6.3666   17.5569  -18.4555 C   0  0  0  0  0  0  0  0  0  0  0  0
   -5.5321   17.9788  -19.5221 C   0  0  0  0  0  0  0  0  0  0  0  0
 11 13  2  0  0  0
 11 14  1  0  0  0
 39 41  2  0  0  0
 17 19  1  0  0  0
 33 36  2  0  0  0
 33 35  1  0  0  0
 18 19  2  0  0  0
 40 41  1  0  0  0
 12 15  2  0  0  0
 12 13  1  0  0  0
 13 19  1  0  0  0
 34 35  2  0  0  0
 34 37  1  0  0  0
 35 41  1  0  0  0
 22  7  1  0  0  0
 22 23  1  0  0  0
  8  7  1  0  0  0
  8  9  2  0  0  0
  8 16  1  0  0  0
  8 10  2  0  0  0
 30 32  2  0  0  0
 30 38  1  0  0  0
 30 29  1  0  0  0
 30 31  2  0  0  0
 23 25  1  0  0  0
 23 24  2  0  0  0
 24 26  1  0  0  0
 25 27  2  0  0  0
 14 16  2  0  0  0
 36 38  1  0  0  0
 15 16  1  0  0  0
 37 38  2  0  0  0
  1  2  1  0  0  0
  1  3  1  0  0  0
  2  5  1  0  0  0
  3  4  1  0  0  0
  3  7  1  0  0  0
  4 29  1  0  0  0
  4  5  1  0  0  0
 26 28  2  0  0  0
 27 28  1  0  0  0
 29 44  1  0  0  0
 44 45  1  0  0  0
 45 49  1  0  0  0
 45 46  2  0  0  0
 46 47  1  0  0  0
 47 48  2  0  0  0
 48 50  1  0  0  0
 49 50  2  0  0  0
 17 20  1  0  0  0
 17 21  1  0  0  0
 40 42  1  0  0  0
 40 43  1  0  0  0
  2  6  1  0  0  0
M  END
> <minimizedAffinity>
-9.73893

$$$$
2R3T_G4G_B_2501


 50 54  0  0  0  0  0  0  0  0999 V2000
  -10.7025   19.2198  -19.4489 C   0  0  0  0  0  0  0  0  0  0  0  0
   -9.5432   20.1557  -19.5010 N   0  0  0  0  0  0  0  0  0  0  0  0
  -11.0700   19.1190  -17.9612 C   0  0  0  0  0  0  0  0  0  0  0  0
   -9.6820   19.2969  -17.2240 C   0  0  0  0  0  0  0  0  0  0  0  0
   -8.7767   20.0747  -18.2290 C   0  0  0  0  0  0  0  0  0  0  0  0
   -9.8822   21.1086  -19.6326 H   0  0  0  0  0  0  0  0  0  0  0  0
  -11.9860   20.1869  -17.4438 N   0  0  0  0  0  0  0  0  0  0  0  0
  -13.4000   19.5727  -16.7202 S   0  0  0  0  0  0  0  0  0  0  0  0
  -14.3057   19.3020  -17.8320 O   0  0  0  0  0  0  0  0  0  0  0  0
  -13.0067   18.4561  -15.8263 O   0  0  0  0  0  0  0  0  0  0  0  0
  -14.0069   22.1043  -13.5548 C   0  0  0  0  0  0  0  0  0  0  0  0
  -15.8876   22.3734  -15.1474 C   0  0  0  0  0  0  0  0  0  0  0  0
  -15.2486   22.7249  -13.9284 C   0  0  0  0  0  0  0  0  0  0  0  0
  -13.4146   21.1338  -14.4142 C   0  0  0  0  0  0  0  0  0  0  0  0
  -15.2978   21.3944  -15.9897 C   0  0  0  0  0  0  0  0  0  0  0  0
  -14.0659   20.7715  -15.6269 C   0  0  0  0  0  0  0  0  0  0  0  0
  -15.3042   24.9543  -12.9572 N   0  0  0  0  0  0  0  0  0  0  0  0
  -16.8643   23.4234  -12.4088 O   0  0  0  0  0  0  0  0  0  0  0  0
  -15.8559   23.7268  -13.0404 C   0  0  0  0  0  0  0  0  0  0  0  0
  -15.7019   25.6337  -12.3660 H   0  0  0  0  0  0  0  0  0  0  0  0
  -14.5037   25.1712  -13.4877 H   0  0  0  0  0  0  0  0  0  0  0  0
  -11.7736   21.6563  -17.4268 C   0  0  0  0  0  0  0  0  0  0  0  0
  -12.6372   22.3111  -18.5368 C   0  0  0  0  0  0  0  0  0  0  0  0
  -13.4465   23.4520  -18.2169 C   0  0  0  0  0  0  0  0  0  0  0  0
  -12.6434   21.7824  -19.8646 C   0  0  0  0  0  0  0  0  0  0  0  0
  -14.2116   24.0277  -19.2843 C   0  0  0  0  0  0  0  0  0  0  0  0
  -13.4022   22.3610  -20.9280 C   0  0  0  0  0  0  0  0  0  0  0  0
  -14.1983   23.4986  -20.6068 C   0  0  0  0  0  0  0  0  0  0  0  0
   -9.0894   17.9610  -16.8765 N   0  0  0  0  0  0  0  0  0  0  0  0
   -8.7564   17.7754  -15.2118 S   0  0  0  0  0  0  0  0  0  0  0  0
   -7.9774   18.8678  -14.6757 O   0  0  0  0  0  0  0  0  0  0  0  0
   -9.9385   17.1818  -14.5975 O   0  0  0  0  0  0  0  0  0  0  0  0
   -5.3826   15.5043  -15.6517 C   0  0  0  0  0  0  0  0  0  0  0  0
   -7.2660   13.9717  -15.2465 C   0  0  0  0  0  0  0  0  0  0  0  0
   -5.9112   14.2075  -15.5414 C   0  0  0  0  0  0  0  0  0  0  0  0
   -6.2476   16.6288  -15.5699 C   0  0  0  0  0  0  0  0  0  0  0  0
   -8.1374   15.0926  -15.1746 C   0  0  0  0  0  0  0  0  0  0  0  0
   -7.6222   16.4055  -15.3266 C   0  0  0  0  0  0  0  0  0  0  0  0
   -4.0534   13.0366  -16.4000 O   0  0  0  0  0  0  0  0  0  0  0  0
   -5.0810   12.0703  -14.6772 N   0  0  0  0  0  0  0  0  0  0  0  0
   -4.9409   13.0502  -15.5681 C   0  0  0  0  0  0  0  0  0  0  0  0
   -4.4571   11.3087  -14.6810 H   0  0  0  0  0  0  0  0  0  0  0  0
   -5.8085   12.1074  -14.0149 H   0  0  0  0  0  0  0  0  0  0  0  0
   -8.7367   16.9003  -17.8545 C   0  0  0  0  0  0  0  0  0  0  0  0
   -7.7155   17.2747  -18.9184 C   0  0  0  0  0  0  0  0  0  0  0  0
   -6.3997   17.6285  -18.5448 C   0  0  0  0  0  0  0  0  0  0  0  0
   -5.4936   17.9637  -19.5963 C   0  0  0  0  0  0  0  0  0  0  0  0
   -5.9356   17.9739  -20.9478 C   0  0  0  0  0  0  0  0  0  0  0  0
   -8.1519   17.2481  -20.2723 C   0  0  0  0  0  0  0  0  0  0  0  0
   -7.2468   17.5803  -21.3128 C   0  0  0  0  0  0  0  0  0  0  0  0
 11 13  2  0  0  0
 11 14  1  0  0  0
 39 41  2  0  0  0
 17 19  1  0  0  0
 33 36  2  0  0  0
 33 35  1  0  0  0
 18 19  2  0  0  0
 40 41  1  0  0  0
 12 15  2  0  0  0
 12 13  1  0  0  0
 13 19  1  0  0  0
 34 35  2  0  0  0
 34 37  1  0  0  0
 35 41  1  0  0  0
 22  7  1  0  0  0
 22 23  1  0  0  0
  8  7  1  0  0  0
  8  9  2  0  0  0
  8 16  1  0  0  0
  8 10  2  0  0  0
 30 32  2  0  0  0
 30 38  1  0  0  0
 30 29  1  0  0  0
 30 31  2  0  0  0
 23 25  1  0  0  0
 23 24  2  0  0  0
 24 26  1  0  0  0
 25 27  2  0  0  0
 14 16  2  0  0  0
 36 38  1  0  0  0
 15 16  1  0  0  0
 37 38  2  0  0  0
  1  2  1  0  0  0
  1  3  1  0  0  0
  2  5  1  0  0  0
  3  4  1  0  0  0
  3  7  1  0  0  0
  4 29  1  0  0  0
  4  5  1  0  0  0
 26 28  2  0  0  0
 27 28  1  0  0  0
 29 44  1  0  0  0
 44 45  1  0  0  0
 45 49  1  0  0  0
 45 46  2  0  0  0
 46 47  1  0  0  0
 47 48  2  0  0  0
 48 50  1  0  0  0
 49 50  2  0  0  0
 17 20  1  0  0  0
 17 21  1  0  0  0
 40 42  1  0  0  0
 40 43  1  0  0  0
  2  6  1  0  0  0
M  END
> <minimizedAffinity>
-9.65736

$$$$
2R3T_G4G_B_2501


 50 54  0  0  0  0  0  0  0  0999 V2000
  -11.8659   17.5755  -17.8366 C   0  0  0  0  0  0  0  0  0  0  0  0
  -13.2335   18.1678  -17.7998 N   0  0  0  0  0  0  0  0  0  0  0  0
  -10.9454   18.6549  -17.2487 C   0  0  0  0  0  0  0  0  0  0  0  0
  -11.6407   20.0089  -17.6786 C   0  0  0  0  0  0  0  0  0  0  0  0
  -13.1412   19.6481  -17.9091 C   0  0  0  0  0  0  0  0  0  0  0  0
  -13.6867   17.9203  -16.9201 H   0  0  0  0  0  0  0  0  0  0  0  0
  -10.8330   18.6703  -15.7539 N   0  0  0  0  0  0  0  0  0  0  0  0
  -12.2660   18.1993  -14.9632 S   0  0  0  0  0  0  0  0  0  0  0  0
  -12.8179   17.1295  -15.7880 O   0  0  0  0  0  0  0  0  0  0  0  0
  -11.9321   17.9141  -13.5462 O   0  0  0  0  0  0  0  0  0  0  0  0
  -13.8392   21.9522  -14.4750 C   0  0  0  0  0  0  0  0  0  0  0  0
  -15.6783   20.4014  -15.0737 C   0  0  0  0  0  0  0  0  0  0  0  0
  -15.2308   21.7075  -14.7396 C   0  0  0  0  0  0  0  0  0  0  0  0
  -12.9053   20.8782  -14.5513 C   0  0  0  0  0  0  0  0  0  0  0  0
  -14.7430   19.3348  -15.1323 C   0  0  0  0  0  0  0  0  0  0  0  0
  -13.3594   19.5674  -14.8699 C   0  0  0  0  0  0  0  0  0  0  0  0
  -16.0115   23.7804  -13.7345 N   0  0  0  0  0  0  0  0  0  0  0  0
  -17.1254   22.8487  -15.4578 O   0  0  0  0  0  0  0  0  0  0  0  0
  -16.1912   22.8178  -14.6615 C   0  0  0  0  0  0  0  0  0  0  0  0
  -16.6479   24.5290  -13.6725 H   0  0  0  0  0  0  0  0  0  0  0  0
  -15.2440   23.7345  -13.1197 H   0  0  0  0  0  0  0  0  0  0  0  0
   -9.6403   18.9675  -14.9212 C   0  0  0  0  0  0  0  0  0  0  0  0
   -8.6768   17.7521  -14.9551 C   0  0  0  0  0  0  0  0  0  0  0  0
   -7.4646   17.8368  -15.7181 C   0  0  0  0  0  0  0  0  0  0  0  0
   -8.9911   16.5510  -14.2472 C   0  0  0  0  0  0  0  0  0  0  0  0
   -6.6027   16.6909  -15.7009 C   0  0  0  0  0  0  0  0  0  0  0  0
   -8.1282   15.4123  -14.2268 C   0  0  0  0  0  0  0  0  0  0  0  0
   -6.9218   15.5044  -14.9801 C   0  0  0  0  0  0  0  0  0  0  0  0
  -11.0125   20.5558  -18.9288 N   0  0  0  0  0  0  0  0  0  0  0  0
  -10.6892   22.2310  -18.8523 S   0  0  0  0  0  0  0  0  0  0  0  0
  -10.4800   22.6955  -17.5002 O   0  0  0  0  0  0  0  0  0  0  0  0
   -9.8706   22.5672  -20.0116 O   0  0  0  0  0  0  0  0  0  0  0  0
  -14.5265   23.6424  -18.7224 C   0  0  0  0  0  0  0  0  0  0  0  0
  -13.8928   23.4213  -21.0908 C   0  0  0  0  0  0  0  0  0  0  0  0
  -14.8385   23.7088  -20.0904 C   0  0  0  0  0  0  0  0  0  0  0  0
  -13.2507   23.1708  -18.3111 C   0  0  0  0  0  0  0  0  0  0  0  0
  -12.6188   22.9386  -20.6848 C   0  0  0  0  0  0  0  0  0  0  0  0
  -12.3065   22.8269  -19.3055 C   0  0  0  0  0  0  0  0  0  0  0  0
  -17.1667   23.9754  -19.8290 O   0  0  0  0  0  0  0  0  0  0  0  0
  -16.2575   25.1057  -21.5182 N   0  0  0  0  0  0  0  0  0  0  0  0
  -16.1826   24.2799  -20.4761 C   0  0  0  0  0  0  0  0  0  0  0  0
  -17.1259   25.4867  -21.7829 H   0  0  0  0  0  0  0  0  0  0  0  0
  -15.4446   25.3352  -22.0239 H   0  0  0  0  0  0  0  0  0  0  0  0
  -10.7479   19.7770  -20.1654 C   0  0  0  0  0  0  0  0  0  0  0  0
   -9.3732   19.1349  -20.2784 C   0  0  0  0  0  0  0  0  0  0  0  0
   -8.4400   19.2679  -19.2261 C   0  0  0  0  0  0  0  0  0  0  0  0
   -7.1714   18.6353  -19.3988 C   0  0  0  0  0  0  0  0  0  0  0  0
   -6.8729   17.9446  -20.6053 C   0  0  0  0  0  0  0  0  0  0  0  0
   -9.0918   18.4137  -21.4721 C   0  0  0  0  0  0  0  0  0  0  0  0
   -7.8306   17.7858  -21.6373 C   0  0  0  0  0  0  0  0  0  0  0  0
 11 13  2  0  0  0
 11 14  1  0  0  0
 39 41  2  0  0  0
 17 19  1  0  0  0
 33 36  2  0  0  0
 33 35  1  0  0  0
 18 19  2  0  0  0
 40 41  1  0  0  0
 12 15  2  0  0  0
 12 13  1  0  0  0
 13 19  1  0  0  0
 34 35  2  0  0  0
 34 37  1  0  0  0
 35 41  1  0  0  0
 22  7  1  0  0  0
 22 23  1  0  0  0
  8  7  1  0  0  0
  8  9  2  0  0  0
  8 16  1  0  0  0
  8 10  2  0  0  0
 30 32  2  0  0  0
 30 38  1  0  0  0
 30 29  1  0  0  0
 30 31  2  0  0  0
 23 25  1  0  0  0
 23 24  2  0  0  0
 24 26  1  0  0  0
 25 27  2  0  0  0
 14 16  2  0  0  0
 36 38  1  0  0  0
 15 16  1  0  0  0
 37 38  2  0  0  0
  1  2  1  0  0  0
  1  3  1  0  0  0
  2  5  1  0  0  0
  3  4  1  0  0  0
  3  7  1  0  0  0
  4 29  1  0  0  0
  4  5  1  0  0  0
 26 28  2  0  0  0
 27 28  1  0  0  0
 29 44  1  0  0  0
 44 45  1  0  0  0
 45 49  1  0  0  0
 45 46  2  0  0  0
 46 47  1  0  0  0
 47 48  2  0  0  0
 48 50  1  0  0  0
 49 50  2  0  0  0
 17 20  1  0  0  0
 17 21  1  0  0  0
 40 42  1  0  0  0
 40 43  1  0  0  0
  2  6  1  0  0  0
M  END
> <minimizedAffinity>
-9.56329

$$$$
2R3T_G4G_B_2501


 50 54  0  0  0  0  0  0  0  0999 V2000
  -13.0066   19.6612  -18.8280 C   0  0  0  0  0  0  0  0  0  0  0  0
  -12.6539   18.2128  -18.8128 N   0  0  0  0  0  0  0  0  0  0  0  0
  -12.1689   20.2897  -17.7048 C   0  0  0  0  0  0  0  0  0  0  0  0
  -12.0530   19.1298  -16.6358 C   0  0  0  0  0  0  0  0  0  0  0  0
  -12.2624   17.8071  -17.4366 C   0  0  0  0  0  0  0  0  0  0  0  0
  -11.8747   18.0468  -19.4499 H   0  0  0  0  0  0  0  0  0  0  0  0
  -10.7729   20.6875  -18.0792 N   0  0  0  0  0  0  0  0  0  0  0  0
  -10.6555   22.2884  -18.6482 S   0  0  0  0  0  0  0  0  0  0  0  0
  -10.3292   23.0847  -17.4696 O   0  0  0  0  0  0  0  0  0  0  0  0
   -9.7215   22.2954  -19.8005 O   0  0  0  0  0  0  0  0  0  0  0  0
  -13.8086   22.8643  -21.2023 C   0  0  0  0  0  0  0  0  0  0  0  0
  -14.3395   23.9557  -19.0406 C   0  0  0  0  0  0  0  0  0  0  0  0
  -14.7015   23.6288  -20.3747 C   0  0  0  0  0  0  0  0  0  0  0  0
  -12.5557   22.4313  -20.6789 C   0  0  0  0  0  0  0  0  0  0  0  0
  -13.0828   23.5329  -18.5329 C   0  0  0  0  0  0  0  0  0  0  0  0
  -12.1887   22.7748  -19.3472 C   0  0  0  0  0  0  0  0  0  0  0  0
  -16.0953   24.3515  -22.2326 N   0  0  0  0  0  0  0  0  0  0  0  0
  -16.9549   24.1607  -20.1583 O   0  0  0  0  0  0  0  0  0  0  0  0
  -15.9938   24.0726  -20.9173 C   0  0  0  0  0  0  0  0  0  0  0  0
  -16.9553   24.6496  -22.6076 H   0  0  0  0  0  0  0  0  0  0  0  0
  -15.3093   24.2571  -22.8179 H   0  0  0  0  0  0  0  0  0  0  0  0
   -9.5217   19.8992  -17.9466 C   0  0  0  0  0  0  0  0  0  0  0  0
   -9.1838   19.2423  -19.3108 C   0  0  0  0  0  0  0  0  0  0  0  0
  -10.1591   19.2648  -20.3629 C   0  0  0  0  0  0  0  0  0  0  0  0
   -7.9211   18.6072  -19.5227 C   0  0  0  0  0  0  0  0  0  0  0  0
   -9.7881   18.6580  -21.6081 C   0  0  0  0  0  0  0  0  0  0  0  0
   -7.5513   18.0082  -20.7660 C   0  0  0  0  0  0  0  0  0  0  0  0
   -8.5207   18.0400  -21.8102 C   0  0  0  0  0  0  0  0  0  0  0  0
  -13.0928   19.2891  -15.5633 N   0  0  0  0  0  0  0  0  0  0  0  0
  -12.4345   19.5565  -14.0103 S   0  0  0  0  0  0  0  0  0  0  0  0
  -11.7887   20.8439  -13.8945 O   0  0  0  0  0  0  0  0  0  0  0  0
  -13.3537   18.9674  -13.0433 O   0  0  0  0  0  0  0  0  0  0  0  0
   -8.7567   17.8107  -14.4098 C   0  0  0  0  0  0  0  0  0  0  0  0
  -10.3787   16.0274  -13.9107 C   0  0  0  0  0  0  0  0  0  0  0  0
   -9.0790   16.4544  -14.2370 C   0  0  0  0  0  0  0  0  0  0  0  0
   -9.7831   18.7923  -14.3609 C   0  0  0  0  0  0  0  0  0  0  0  0
  -11.4110   17.0040  -13.8715 C   0  0  0  0  0  0  0  0  0  0  0  0
  -11.1048   18.3724  -14.0864 C   0  0  0  0  0  0  0  0  0  0  0  0
   -6.9081   15.7334  -14.8086 O   0  0  0  0  0  0  0  0  0  0  0  0
   -8.1027   14.3017  -13.5918 N   0  0  0  0  0  0  0  0  0  0  0  0
   -7.9431   15.4590  -14.2312 C   0  0  0  0  0  0  0  0  0  0  0  0
   -7.3722   13.6419  -13.5783 H   0  0  0  0  0  0  0  0  0  0  0  0
   -8.9513   14.1060  -13.1326 H   0  0  0  0  0  0  0  0  0  0  0  0
  -14.5584   19.1596  -15.7658 C   0  0  0  0  0  0  0  0  0  0  0  0
  -15.3793   20.4288  -15.5921 C   0  0  0  0  0  0  0  0  0  0  0  0
  -16.1641   20.6123  -14.4318 C   0  0  0  0  0  0  0  0  0  0  0  0
  -16.9047   21.8293  -14.3341 C   0  0  0  0  0  0  0  0  0  0  0  0
  -16.8686   22.7778  -15.3928 C   0  0  0  0  0  0  0  0  0  0  0  0
  -15.3115   21.3916  -16.6375 C   0  0  0  0  0  0  0  0  0  0  0  0
  -16.0480   22.5995  -16.5340 C   0  0  0  0  0  0  0  0  0  0  0  0
 11 13  2  0  0  0
 11 14  1  0  0  0
 39 41  2  0  0  0
 17 19  1  0  0  0
 33 36  2  0  0  0
 33 35  1  0  0  0
 18 19  2  0  0  0
 40 41  1  0  0  0
 12 15  2  0  0  0
 12 13  1  0  0  0
 13 19  1  0  0  0
 34 35  2  0  0  0
 34 37  1  0  0  0
 35 41  1  0  0  0
 22  7  1  0  0  0
 22 23  1  0  0  0
  8  7  1  0  0  0
  8  9  2  0  0  0
  8 16  1  0  0  0
  8 10  2  0  0  0
 30 32  2  0  0  0
 30 38  1  0  0  0
 30 29  1  0  0  0
 30 31  2  0  0  0
 23 25  1  0  0  0
 23 24  2  0  0  0
 24 26  1  0  0  0
 25 27  2  0  0  0
 14 16  2  0  0  0
 36 38  1  0  0  0
 15 16  1  0  0  0
 37 38  2  0  0  0
  1  2  1  0  0  0
  1  3  1  0  0  0
  2  5  1  0  0  0
  3  4  1  0  0  0
  3  7  1  0  0  0
  4 29  1  0  0  0
  4  5  1  0  0  0
 26 28  2  0  0  0
 27 28  1  0  0  0
 29 44  1  0  0  0
 44 45  1  0  0  0
 45 49  1  0  0  0
 45 46  2  0  0  0
 46 47  1  0  0  0
 47 48  2  0  0  0
 48 50  1  0  0  0
 49 50  2  0  0  0
 17 20  1  0  0  0
 17 21  1  0  0  0
 40 42  1  0  0  0
 40 43  1  0  0  0
  2  6  1  0  0  0
M  END
> <minimizedAffinity>
-9.42684

$$$$
2R3T_G4G_B_2501


 50 54  0  0  0  0  0  0  0  0999 V2000
  -11.1609   19.8649  -14.5876 C   0  0  0  0  0  0  0  0  0  0  0  0
  -12.1847   18.8560  -14.1924 N   0  0  0  0  0  0  0  0  0  0  0  0
  -10.9141   19.6212  -16.0836 C   0  0  0  0  0  0  0  0  0  0  0  0
  -11.1397   18.0642  -16.2472 C   0  0  0  0  0  0  0  0  0  0  0  0
  -12.0626   17.6530  -15.0582 C   0  0  0  0  0  0  0  0  0  0  0  0
  -13.1160   19.2579  -14.2997 H   0  0  0  0  0  0  0  0  0  0  0  0
  -11.8635   20.3066  -17.0195 N   0  0  0  0  0  0  0  0  0  0  0  0
  -11.1640   21.6170  -17.8526 S   0  0  0  0  0  0  0  0  0  0  0  0
  -10.7062   22.5271  -16.8078 O   0  0  0  0  0  0  0  0  0  0  0  0
  -10.1744   21.0705  -18.8131 O   0  0  0  0  0  0  0  0  0  0  0  0
  -13.5966   22.5908  -21.0040 C   0  0  0  0  0  0  0  0  0  0  0  0
  -14.1216   24.1022  -19.1103 C   0  0  0  0  0  0  0  0  0  0  0  0
  -14.3527   23.6789  -20.4464 C   0  0  0  0  0  0  0  0  0  0  0  0
  -12.6125   21.9334  -20.2098 C   0  0  0  0  0  0  0  0  0  0  0  0
  -13.1286   23.4512  -18.3319 C   0  0  0  0  0  0  0  0  0  0  0  0
  -12.3716   22.3708  -18.8769 C   0  0  0  0  0  0  0  0  0  0  0  0
  -15.8395   23.7375  -22.3706 N   0  0  0  0  0  0  0  0  0  0  0  0
  -15.7747   25.4578  -20.9165 O   0  0  0  0  0  0  0  0  0  0  0  0
  -15.3681   24.3538  -21.2678 C   0  0  0  0  0  0  0  0  0  0  0  0
  -16.5196   24.1793  -22.9287 H   0  0  0  0  0  0  0  0  0  0  0  0
  -15.5036   22.8456  -22.6177 H   0  0  0  0  0  0  0  0  0  0  0  0
  -13.2659   19.9414  -17.3425 C   0  0  0  0  0  0  0  0  0  0  0  0
  -14.2135   20.5627  -16.2830 C   0  0  0  0  0  0  0  0  0  0  0  0
  -15.4411   19.8941  -15.9592 C   0  0  0  0  0  0  0  0  0  0  0  0
  -13.8820   21.7952  -15.6398 C   0  0  0  0  0  0  0  0  0  0  0  0
  -16.2711   20.5034  -14.9611 C   0  0  0  0  0  0  0  0  0  0  0  0
  -14.7077   22.3977  -14.6415 C   0  0  0  0  0  0  0  0  0  0  0  0
  -15.9222   21.7256  -14.3181 C   0  0  0  0  0  0  0  0  0  0  0  0
   -9.8302   17.3295  -16.2014 N   0  0  0  0  0  0  0  0  0  0  0  0
   -8.9678   17.5640  -14.7461 S   0  0  0  0  0  0  0  0  0  0  0  0
   -8.1687   18.7677  -14.7614 O   0  0  0  0  0  0  0  0  0  0  0  0
   -9.8290   17.1193  -13.6562 O   0  0  0  0  0  0  0  0  0  0  0  0
   -7.1453   13.9052  -14.5870 C   0  0  0  0  0  0  0  0  0  0  0  0
   -5.6096   15.4546  -15.7278 C   0  0  0  0  0  0  0  0  0  0  0  0
   -5.9062   14.1922  -15.1833 C   0  0  0  0  0  0  0  0  0  0  0  0
   -8.1068   14.9387  -14.4240 C   0  0  0  0  0  0  0  0  0  0  0  0
   -6.5636   16.4947  -15.5576 C   0  0  0  0  0  0  0  0  0  0  0  0
   -7.8018   16.2273  -14.9189 C   0  0  0  0  0  0  0  0  0  0  0  0
   -4.1528   13.0937  -16.3140 O   0  0  0  0  0  0  0  0  0  0  0  0
   -4.9931   12.0046  -14.5631 N   0  0  0  0  0  0  0  0  0  0  0  0
   -4.9467   13.0448  -15.3935 C   0  0  0  0  0  0  0  0  0  0  0  0
   -4.3747   11.2485  -14.6861 H   0  0  0  0  0  0  0  0  0  0  0  0
   -5.6459   11.9917  -13.8263 H   0  0  0  0  0  0  0  0  0  0  0  0
   -9.2592   16.5273  -17.3133 C   0  0  0  0  0  0  0  0  0  0  0  0
   -9.0403   17.2573  -18.6301 C   0  0  0  0  0  0  0  0  0  0  0  0
  -10.1473   17.6588  -19.4107 C   0  0  0  0  0  0  0  0  0  0  0  0
   -9.8671   18.3432  -20.6322 C   0  0  0  0  0  0  0  0  0  0  0  0
   -8.5224   18.5597  -21.0407 C   0  0  0  0  0  0  0  0  0  0  0  0
   -7.6936   17.5042  -19.0173 C   0  0  0  0  0  0  0  0  0  0  0  0
   -7.4214   18.1862  -20.2309 C   0  0  0  0  0  0  0  0  0  0  0  0
 11 13  2  0  0  0
 11 14  1  0  0  0
 39 41  2  0  0  0
 17 19  1  0  0  0
 33 36  2  0  0  0
 33 35  1  0  0  0
 18 19  2  0  0  0
 40 41  1  0  0  0
 12 15  2  0  0  0
 12 13  1  0  0  0
 13 19  1  0  0  0
 34 35  2  0  0  0
 34 37  1  0  0  0
 35 41  1  0  0  0
 22  7  1  0  0  0
 22 23  1  0  0  0
  8  7  1  0  0  0
  8  9  2  0  0  0
  8 16  1  0  0  0
  8 10  2  0  0  0
 30 32  2  0  0  0
 30 38  1  0  0  0
 30 29  1  0  0  0
 30 31  2  0  0  0
 23 25  1  0  0  0
 23 24  2  0  0  0
 24 26  1  0  0  0
 25 27  2  0  0  0
 14 16  2  0  0  0
 36 38  1  0  0  0
 15 16  1  0  0  0
 37 38  2  0  0  0
  1  2  1  0  0  0
  1  3  1  0  0  0
  2  5  1  0  0  0
  3  4  1  0  0  0
  3  7  1  0  0  0
  4 29  1  0  0  0
  4  5  1  0  0  0
 26 28  2  0  0  0
 27 28  1  0  0  0
 29 44  1  0  0  0
 44 45  1  0  0  0
 45 49  1  0  0  0
 45 46  2  0  0  0
 46 47  1  0  0  0
 47 48  2  0  0  0
 48 50  1  0  0  0
 49 50  2  0  0  0
 17 20  1  0  0  0
 17 21  1  0  0  0
 40 42  1  0  0  0
 40 43  1  0  0  0
  2  6  1  0  0  0
M  END
> <minimizedAffinity>
-9.32993

$$$$
