2R3T_G4G_B_2501
  RCSB PDB12061706533D
Coordinates from PDB:2R3T:B:2501 Model:1 without hydrogens
 45 49  0  0  0  0            999 V2000
   -8.8560   15.2040  -14.5190   C 0  0  0  0  0  0  0  0  0  0  0  0
  -16.6750   24.2070  -22.0810   O 0  0  0  0  0  0  0  0  0  0  0  0
   -5.3090   14.6220  -15.4730   N 0  0  0  0  0  0  0  0  0  0  0  0
  -14.0280   23.7510  -21.1890   C 0  0  0  0  0  0  0  0  0  0  0  0
   -6.9840   13.1880  -15.0080   O 0  0  0  0  0  0  0  0  0  0  0  0
  -17.1320   25.4280  -20.2760   N 0  0  0  0  0  0  0  0  0  0  0  0
   -7.2560   16.7100  -15.6670   C 0  0  0  0  0  0  0  0  0  0  0  0
   -7.5770   15.4330  -15.1340   C 0  0  0  0  0  0  0  0  0  0  0  0
  -15.0750   23.7590  -18.9610   C 0  0  0  0  0  0  0  0  0  0  0  0
  -15.0980   24.0630  -20.3340   C 0  0  0  0  0  0  0  0  0  0  0  0
  -13.2480   18.2880  -15.1280   C 0  0  0  0  0  0  0  0  0  0  0  0
  -16.3710   24.5780  -20.9630   C 0  0  0  0  0  0  0  0  0  0  0  0
  -10.5910   18.8980  -14.8950   S 0  0  0  0  0  0  0  0  0  0  0  0
   -6.6000   14.3370  -15.2080   C 0  0  0  0  0  0  0  0  0  0  0  0
  -11.3000   22.2570  -18.5320   S 0  0  0  0  0  0  0  0  0  0  0  0
  -10.0180   20.0970  -15.4980   O 0  0  0  0  0  0  0  0  0  0  0  0
  -11.4040   22.5550  -17.1220   O 0  0  0  0  0  0  0  0  0  0  0  0
  -14.0340   19.6180  -14.9870   C 0  0  0  0  0  0  0  0  0  0  0  0
  -13.3550   20.7890  -14.5110   C 0  0  0  0  0  0  0  0  0  0  0  0
  -15.4240   19.6830  -15.3130   C 0  0  0  0  0  0  0  0  0  0  0  0
   -9.8060   16.2640  -14.4470   C 0  0  0  0  0  0  0  0  0  0  0  0
  -12.8310   23.2050  -20.6520   C 0  0  0  0  0  0  0  0  0  0  0  0
   -8.2030   17.7640  -15.5770   C 0  0  0  0  0  0  0  0  0  0  0  0
  -13.8760   23.2230  -18.4170   C 0  0  0  0  0  0  0  0  0  0  0  0
  -12.3390   17.4940  -18.1480   C 0  0  0  0  0  0  0  0  0  0  0  0
  -13.7340   17.9410  -18.4250   N 0  0  0  0  0  0  0  0  0  0  0  0
  -11.7160   18.6200  -17.3100   C 0  0  0  0  0  0  0  0  0  0  0  0
  -12.4380   19.9220  -17.8440   C 0  0  0  0  0  0  0  0  0  0  0  0
  -13.7880   19.4270  -18.4500   C 0  0  0  0  0  0  0  0  0  0  0  0
   -9.4750   17.5470  -14.9670   C 0  0  0  0  0  0  0  0  0  0  0  0
  -12.7730   22.9430  -19.2640   C 0  0  0  0  0  0  0  0  0  0  0  0
  -11.9680   18.5480  -15.8340   N 0  0  0  0  0  0  0  0  0  0  0  0
  -14.1250   21.9950  -14.4160   C 0  0  0  0  0  0  0  0  0  0  0  0
  -16.1880   20.8870  -15.2230   C 0  0  0  0  0  0  0  0  0  0  0  0
  -15.5070   22.0490  -14.7570   C 0  0  0  0  0  0  0  0  0  0  0  0
  -11.5950   20.6110  -18.8790   N 0  0  0  0  0  0  0  0  0  0  0  0
  -11.1050   19.9900  -20.1360   C 0  0  0  0  0  0  0  0  0  0  0  0
   -9.7930   19.2250  -20.0450   C 0  0  0  0  0  0  0  0  0  0  0  0
   -8.8670   19.5250  -19.0210   C 0  0  0  0  0  0  0  0  0  0  0  0
   -7.6590   18.7640  -18.9940   C 0  0  0  0  0  0  0  0  0  0  0  0
   -7.4070   17.7830  -19.9920   C 0  0  0  0  0  0  0  0  0  0  0  0
   -9.5610   18.2190  -21.0240   C 0  0  0  0  0  0  0  0  0  0  0  0
   -8.3600   17.4650  -20.9910   C 0  0  0  0  0  0  0  0  0  0  0  0
  -10.2400   22.7050  -19.4280   O 0  0  0  0  0  0  0  0  0  0  0  0
  -11.0080   18.9390  -13.4720   O 0  0  0  0  0  0  0  0  0  0  0  0
  1  8  2  0  0  0  0
  1 21  1  0  0  0  0
  2 12  2  0  0  0  0
  3 14  1  0  0  0  0
  4 22  2  0  0  0  0
  4 10  1  0  0  0  0
  5 14  2  0  0  0  0
  6 12  1  0  0  0  0
  7 23  2  0  0  0  0
  7  8  1  0  0  0  0
  8 14  1  0  0  0  0
  9 10  2  0  0  0  0
  9 24  1  0  0  0  0
 10 12  1  0  0  0  0
 11 32  1  0  0  0  0
 11 18  1  0  0  0  0
 13 32  1  0  0  0  0
 13 16  2  0  0  0  0
 13 30  1  0  0  0  0
 13 45  2  0  0  0  0
 15 44  2  0  0  0  0
 15 31  1  0  0  0  0
 15 36  1  0  0  0  0
 15 17  2  0  0  0  0
 18 20  1  0  0  0  0
 18 19  2  0  0  0  0
 19 33  1  0  0  0  0
 20 34  2  0  0  0  0
 21 30  2  0  0  0  0
 22 31  1  0  0  0  0
 23 30  1  0  0  0  0
 24 31  2  0  0  0  0
 25 26  1  0  0  0  0
 25 27  1  0  0  0  0
 26 29  1  0  0  0  0
 27 28  1  0  0  0  0
 27 32  1  0  0  0  0
 28 36  1  0  0  0  0
 28 29  1  0  0  0  0
 33 35  2  0  0  0  0
 34 35  1  0  0  0  0
 36 37  1  0  0  0  0
 37 38  1  0  0  0  0
 38 42  1  0  0  0  0
 38 39  2  0  0  0  0
 39 40  1  0  0  0  0
 40 41  2  0  0  0  0
 41 43  1  0  0  0  0
 42 43  2  0  0  0  0
A    1
C1
A    2
O2
A    3
N2
A    4
C2
A    5
O1
A    6
N1
A    7
C3
A    8
C4
A    9
C5
A   10
C6
A   11
C7
A   12
C8
A   13
S8
A   14
C9
A   15
S9
A   16
O10
A   17
O11
A   18
C12
A   19
C13
A   20
C14
A   21
C17
A   22
C18
A   23
C19
A   24
C20
A   25
C21
A   26
N22
A   27
C23
A   28
C24
A   29
C25
A   30
C26
A   31
C27
A   32
N28
A   33
C29
A   34
C30
A   35
C31
A   36
N32
A   37
C33
A   38
C34
A   39
C35
A   40
C36
A   41
C37
A   42
C38
A   43
C39
A   44
O40
A   45
O41
M  END
>  <InstanceId>
2R3T_G4G_B_2501

>  <ChemCompId>
G4G

>  <PdbId>
2R3T

>  <ChainId>
B

>  <ResidueNumber>
2501

>  <InsertionCode>


>  <Model>
1

>  <AltIds>


>  <MissingHeavyAtoms>
0

>  <ObservedFormula>
C32 N5 O6 S2

>  <Name>
4,4'-{(3S,4S)-PYRROLIDINE-3,4-DIYLBIS[(BENZYLIMINO)SULFONYL]}DIBENZAMIDE

>  <SystematicName>
4-[[(3S,4S)-4-[(4-aminocarbonylphenyl)sulfonyl-(phenylmethyl)amino]pyrrolidin-3-yl]-(phenylmethyl)sulfamoyl]benzamide

>  <Synonyms>


>  <Type>
NON-POLYMER

>  <Formula>
C32 H33 N5 O6 S2

>  <MolecularWeight>
647.764

>  <ModifiedDate>
2011-06-04

>  <Parent>


>  <OneLetterCode>


>  <SubcomponentList>


>  <AmbiguousFlag>


>  <InChI>
InChI=1S/C32H33N5O6S2/c33-31(38)25-11-15-27(16-12-25)44(40,41)36(21-23-7-3-1-4-8-23)29-19-35-20-30(29)37(22-24-9-5-2-6-10-24)45(42,43)28-17-13-26(14-18-28)32(34)39/h1-18,29-30,35H,19-22H2,(H2,33,38)(H2,34,39)/t29-,30-/m0/s1

>  <InChIKey>
SSQKDDJMCKLBOH-KYJUHHDHSA-N

>  <SMILES>
c1ccc(cc1)CN([C@H]2CNC[C@@H]2N(Cc3ccccc3)S(=O)(=O)c4ccc(cc4)C(=O)N)S(=O)(=O)c5ccc(cc5)C(=O)N

$$$$
