3D7K_D7K_A_572


 46 48  0  0  0  0  0  0  0  0999 V2000
  -39.1221   19.5515    6.6876 C   0  0  0  0  0  0  0  0  0  0  0  0
  -39.3391   20.8607    6.9185 C   0  0  0  0  0  0  0  0  0  0  0  0
  -40.5134   21.6219    6.3623 C   0  0  0  0  0  0  0  0  0  0  0  0
  -37.7783   18.9954    7.4670 S   0  0  0  0  0  0  0  0  0  0  0  0
  -37.1848   20.5833    7.9202 C   0  0  0  0  0  0  0  0  0  0  0  0
  -38.3628   21.4267    7.6767 N   0  0  0  0  0  0  0  0  0  0  0  0
  -36.3378   20.6335    9.2367 C   0  0  0  0  0  0  0  0  0  0  0  0
  -37.2680   20.6641   10.3164 O   0  0  0  0  0  0  0  0  0  0  0  0
  -37.7407   19.8182   10.3600 H   0  0  0  0  0  0  0  0  0  0  0  0
  -35.6203   21.9625    9.1969 C   0  0  0  0  0  0  0  0  0  0  0  0
  -35.7020   22.8190   10.3080 C   0  0  0  0  0  0  0  0  0  0  0  0
  -35.0678   24.0738   10.2824 C   0  0  0  0  0  0  0  0  0  0  0  0
  -34.3673   24.4894    9.1296 C   0  0  0  0  0  0  0  0  0  0  0  0
  -34.2922   23.6411    8.0234 C   0  0  0  0  0  0  0  0  0  0  0  0
  -34.9118   22.3905    8.0634 C   0  0  0  0  0  0  0  0  0  0  0  0
  -35.9616   17.9601    9.7283 O   0  0  0  0  0  0  0  0  0  0  0  0
  -35.2138   19.2785    9.6820 P   0  0  0  0  0  0  0  0  0  0  0  0
  -34.0944   19.3973    8.6706 O   0  0  0  0  0  0  0  0  0  0  0  0
  -34.4390   19.2100    7.7834 H   0  0  0  0  0  0  0  0  0  0  0  0
  -34.7689   19.5704   11.2261 O   0  0  0  0  0  0  0  0  0  0  0  0
  -34.7441   18.5687   12.2428 C   0  0  0  0  0  0  0  0  0  0  0  0
  -39.9533   18.6098    5.8070 C   0  0  0  0  0  0  0  0  0  0  0  0
  -40.6970   19.2950    4.6311 C   0  0  0  0  0  0  0  0  0  0  0  0
  -42.1327   19.2652    4.7969 O   0  0  0  0  0  0  0  0  0  0  0  0
  -43.1938   19.5974    3.6168 P   0  0  0  0  0  0  0  0  0  0  0  0
  -42.6272   20.7409    2.8002 O   0  0  0  0  0  0  0  0  0  0  0  0
  -43.5490   18.3803    2.7878 O   0  0  0  0  0  0  0  0  0  0  0  0
  -44.1838   18.6323    2.0991 H   0  0  0  0  0  0  0  0  0  0  0  0
  -44.5805   19.9637    4.3179 O   0  0  0  0  0  0  0  0  0  0  0  0
  -44.6100   19.8645    6.6522 O   0  0  0  0  0  0  0  0  0  0  0  0
  -45.4177   19.2582    5.5122 P   0  0  0  0  0  0  0  0  0  0  0  0
  -45.3172   17.7750    5.1973 O   0  0  0  0  0  0  0  0  0  0  0  0
  -46.8546   19.7244    5.5378 O   0  0  0  0  0  0  0  0  0  0  0  0
  -44.7952   20.8149    6.7100 H   0  0  0  0  0  0  0  0  0  0  0  0
  -46.8834   20.6725    5.7409 H   0  0  0  0  0  0  0  0  0  0  0  0
  -38.2312   22.7650    8.2341 C   0  0  0  0  0  0  0  0  0  0  0  0
  -39.2920   22.9690    9.2676 C   0  0  0  0  0  0  0  0  0  0  0  0
  -40.1856   21.9452    9.5466 C   0  0  0  0  0  0  0  0  0  0  0  0
  -39.3604   24.1574    9.9776 C   0  0  0  0  0  0  0  0  0  0  0  0
  -38.5043   25.1910    9.7838 N   0  0  0  0  0  0  0  0  0  0  0  0
  -40.3095   24.3145   10.9097 N   0  0  0  0  0  0  0  0  0  0  0  0
  -41.1866   23.3231   11.1915 C   0  0  0  0  0  0  0  0  0  0  0  0
  -41.1041   22.1549   10.5175 N   0  0  0  0  0  0  0  0  0  0  0  0
  -42.2165   23.5788   12.2674 C   0  0  0  0  0  0  0  0  0  0  0  0
  -37.7910   25.1195    9.1090 H   0  0  0  0  0  0  0  0  0  0  0  0
  -38.5959   26.0128   10.3180 H   0  0  0  0  0  0  0  0  0  0  0  0
 25 27  1  0  0  0
 25 29  1  0  0  0
 26 25  2  0  0  0
 31 30  1  0  0  0
 31 29  1  0  0  0
 31 33  1  0  0  0
 32 31  2  0  0  0
 24 25  1  0  0  0
 24 23  1  0  0  0
 22 23  1  0  0  0
 22  1  1  0  0  0
  1  4  1  0  0  0
  2  1  2  0  0  0
  2  6  1  0  0  0
  3  2  1  0  0  0
  4  5  1  0  0  0
  5  7  1  0  0  0
  6  5  2  0  0  0
  6 36  1  0  0  0
 37 36  1  0  0  0
 37 39  1  0  0  0
 38 37  2  0  0  0
 38 43  1  0  0  0
 39 40  1  0  0  0
 41 39  2  0  0  0
 42 41  1  0  0  0
 42 44  1  0  0  0
 43 42  2  0  0  0
 16 17  2  0  0  0
 17  7  1  0  0  0
 17 20  1  0  0  0
 18 17  1  0  0  0
 20 21  1  0  0  0
  7  8  1  0  0  0
  7 10  1  0  0  0
 10 11  1  0  0  0
 11 12  2  0  0  0
 13 12  1  0  0  0
 14 13  2  0  0  0
 15 10  2  0  0  0
 15 14  1  0  0  0
 27 28  1  0  0  0
 30 34  1  0  0  0
 33 35  1  0  0  0
 40 45  1  0  0  0
 40 46  1  0  0  0
 18 19  1  0  0  0
  8  9  1  0  0  0
M  CHG 1   6   1
M  END
> <minimizedAffinity>
-8.46006

$$$$
3D7K_D7K_A_572


 46 48  0  0  0  0  0  0  0  0999 V2000
  -38.1329   21.4098    7.2927 C   0  0  0  0  0  0  0  0  0  0  0  0
  -36.7959   21.4776    7.1434 C   0  0  0  0  0  0  0  0  0  0  0  0
  -36.0589   20.9039    5.9621 C   0  0  0  0  0  0  0  0  0  0  0  0
  -38.6457   22.1657    8.6669 S   0  0  0  0  0  0  0  0  0  0  0  0
  -37.0424   22.3623    9.3520 C   0  0  0  0  0  0  0  0  0  0  0  0
  -36.1829   22.0869    8.1928 N   0  0  0  0  0  0  0  0  0  0  0  0
  -36.8609   23.6011   10.2930 C   0  0  0  0  0  0  0  0  0  0  0  0
  -36.1854   24.5960    9.5278 O   0  0  0  0  0  0  0  0  0  0  0  0
  -36.7680   24.9091    8.8183 H   0  0  0  0  0  0  0  0  0  0  0  0
  -35.9283   23.1358   11.3868 C   0  0  0  0  0  0  0  0  0  0  0  0
  -36.1636   21.8971   12.0071 C   0  0  0  0  0  0  0  0  0  0  0  0
  -35.3271   21.4567   13.0482 C   0  0  0  0  0  0  0  0  0  0  0  0
  -34.2620   22.2696   13.4921 C   0  0  0  0  0  0  0  0  0  0  0  0
  -34.0327   23.5032   12.8802 C   0  0  0  0  0  0  0  0  0  0  0  0
  -34.8588   23.9256   11.8369 C   0  0  0  0  0  0  0  0  0  0  0  0
  -37.9270   25.1945   12.2564 O   0  0  0  0  0  0  0  0  0  0  0  0
  -38.2963   24.4854   10.9679 P   0  0  0  0  0  0  0  0  0  0  0  0
  -38.7552   25.3518    9.8151 O   0  0  0  0  0  0  0  0  0  0  0  0
  -38.0735   26.0125    9.6158 H   0  0  0  0  0  0  0  0  0  0  0  0
  -39.3561   23.3239   11.4095 O   0  0  0  0  0  0  0  0  0  0  0  0
  -40.7652   23.4218   11.2034 C   0  0  0  0  0  0  0  0  0  0  0  0
  -39.1409   20.7201    6.3647 C   0  0  0  0  0  0  0  0  0  0  0  0
  -40.1601   21.6679    5.6806 C   0  0  0  0  0  0  0  0  0  0  0  0
  -41.4465   21.0395    5.4804 O   0  0  0  0  0  0  0  0  0  0  0  0
  -42.0209   19.8279    6.3918 P   0  0  0  0  0  0  0  0  0  0  0  0
  -41.2957   18.5626    5.9813 O   0  0  0  0  0  0  0  0  0  0  0  0
  -41.9358   20.1191    7.8760 O   0  0  0  0  0  0  0  0  0  0  0  0
  -42.2906   19.3662    8.3741 H   0  0  0  0  0  0  0  0  0  0  0  0
  -43.5950   19.7507    6.1371 O   0  0  0  0  0  0  0  0  0  0  0  0
  -43.2906   18.8394    4.0073 O   0  0  0  0  0  0  0  0  0  0  0  0
  -44.4732   19.1494    4.9156 P   0  0  0  0  0  0  0  0  0  0  0  0
  -45.4359   20.2744    4.5740 O   0  0  0  0  0  0  0  0  0  0  0  0
  -45.2083   17.8934    5.3216 O   0  0  0  0  0  0  0  0  0  0  0  0
  -42.7860   18.0972    4.3754 H   0  0  0  0  0  0  0  0  0  0  0  0
  -44.5667   17.1971    5.5324 H   0  0  0  0  0  0  0  0  0  0  0  0
  -34.7910   22.4505    8.4155 C   0  0  0  0  0  0  0  0  0  0  0  0
  -34.1408   21.3983    9.2551 C   0  0  0  0  0  0  0  0  0  0  0  0
  -34.7468   20.1581    9.3939 C   0  0  0  0  0  0  0  0  0  0  0  0
  -32.9170   21.6400    9.8594 C   0  0  0  0  0  0  0  0  0  0  0  0
  -32.2489   22.8144    9.7448 N   0  0  0  0  0  0  0  0  0  0  0  0
  -32.3443   20.6787   10.5957 N   0  0  0  0  0  0  0  0  0  0  0  0
  -32.9251   19.4645   10.7381 C   0  0  0  0  0  0  0  0  0  0  0  0
  -34.1057   19.2199   10.1281 N   0  0  0  0  0  0  0  0  0  0  0  0
  -32.2042   18.4327   11.5744 C   0  0  0  0  0  0  0  0  0  0  0  0
  -32.6323   23.5490    9.2132 H   0  0  0  0  0  0  0  0  0  0  0  0
  -31.3804   22.9324   10.1931 H   0  0  0  0  0  0  0  0  0  0  0  0
 25 27  1  0  0  0
 25 29  1  0  0  0
 26 25  2  0  0  0
 31 30  1  0  0  0
 31 29  1  0  0  0
 31 33  1  0  0  0
 32 31  2  0  0  0
 24 25  1  0  0  0
 24 23  1  0  0  0
 22 23  1  0  0  0
 22  1  1  0  0  0
  1  4  1  0  0  0
  2  1  2  0  0  0
  2  6  1  0  0  0
  3  2  1  0  0  0
  4  5  1  0  0  0
  5  7  1  0  0  0
  6  5  2  0  0  0
  6 36  1  0  0  0
 37 36  1  0  0  0
 37 39  1  0  0  0
 38 37  2  0  0  0
 38 43  1  0  0  0
 39 40  1  0  0  0
 41 39  2  0  0  0
 42 41  1  0  0  0
 42 44  1  0  0  0
 43 42  2  0  0  0
 16 17  2  0  0  0
 17  7  1  0  0  0
 17 20  1  0  0  0
 18 17  1  0  0  0
 20 21  1  0  0  0
  7  8  1  0  0  0
  7 10  1  0  0  0
 10 11  1  0  0  0
 11 12  2  0  0  0
 13 12  1  0  0  0
 14 13  2  0  0  0
 15 10  2  0  0  0
 15 14  1  0  0  0
 27 28  1  0  0  0
 30 34  1  0  0  0
 33 35  1  0  0  0
 40 45  1  0  0  0
 40 46  1  0  0  0
 18 19  1  0  0  0
  8  9  1  0  0  0
M  CHG 1   6   1
M  END
> <minimizedAffinity>
-8.38113

$$$$
3D7K_D7K_A_572


 46 48  0  0  0  0  0  0  0  0999 V2000
  -37.9173   20.9269    8.5324 C   0  0  0  0  0  0  0  0  0  0  0  0
  -36.9293   20.0779    8.8756 C   0  0  0  0  0  0  0  0  0  0  0  0
  -36.8004   18.6824    8.3246 C   0  0  0  0  0  0  0  0  0  0  0  0
  -37.7626   22.3943    9.2708 S   0  0  0  0  0  0  0  0  0  0  0  0
  -36.5115   21.8822   10.3894 C   0  0  0  0  0  0  0  0  0  0  0  0
  -36.0844   20.6057    9.8008 N   0  0  0  0  0  0  0  0  0  0  0  0
  -35.5181   23.0037   10.8459 C   0  0  0  0  0  0  0  0  0  0  0  0
  -34.2877   22.3540   11.1555 O   0  0  0  0  0  0  0  0  0  0  0  0
  -33.8978   21.9957   10.3428 H   0  0  0  0  0  0  0  0  0  0  0  0
  -36.0976   23.5491   12.1301 C   0  0  0  0  0  0  0  0  0  0  0  0
  -37.1336   22.8455   12.7676 C   0  0  0  0  0  0  0  0  0  0  0  0
  -37.7095   23.3490   13.9475 C   0  0  0  0  0  0  0  0  0  0  0  0
  -37.2664   24.5776   14.4829 C   0  0  0  0  0  0  0  0  0  0  0  0
  -36.2419   25.2797   13.8455 C   0  0  0  0  0  0  0  0  0  0  0  0
  -35.6652   24.7646   12.6831 C   0  0  0  0  0  0  0  0  0  0  0  0
  -36.2064   25.2274    9.3926 O   0  0  0  0  0  0  0  0  0  0  0  0
  -35.0229   24.3360    9.7156 P   0  0  0  0  0  0  0  0  0  0  0  0
  -33.8491   24.9821   10.4191 O   0  0  0  0  0  0  0  0  0  0  0  0
  -34.1533   25.3963   11.2417 H   0  0  0  0  0  0  0  0  0  0  0  0
  -34.6492   23.5972    8.3077 O   0  0  0  0  0  0  0  0  0  0  0  0
  -33.3372   23.1399    7.9806 C   0  0  0  0  0  0  0  0  0  0  0  0
  -39.0985   20.6518    7.5932 C   0  0  0  0  0  0  0  0  0  0  0  0
  -40.4111   21.3955    7.9525 C   0  0  0  0  0  0  0  0  0  0  0  0
  -41.5743   20.5452    7.8356 O   0  0  0  0  0  0  0  0  0  0  0  0
  -42.1050   19.9133    6.4400 P   0  0  0  0  0  0  0  0  0  0  0  0
  -41.6259   20.8125    5.3187 O   0  0  0  0  0  0  0  0  0  0  0  0
  -41.7061   18.4625    6.2639 O   0  0  0  0  0  0  0  0  0  0  0  0
  -42.0468   18.1340    5.4171 H   0  0  0  0  0  0  0  0  0  0  0  0
  -43.6967   19.8328    6.5330 O   0  0  0  0  0  0  0  0  0  0  0  0
  -44.3597   17.7155    7.2658 O   0  0  0  0  0  0  0  0  0  0  0  0
  -44.7536   18.6680    6.1445 P   0  0  0  0  0  0  0  0  0  0  0  0
  -44.4169   18.3413    4.6991 O   0  0  0  0  0  0  0  0  0  0  0  0
  -46.1819   19.1389    6.2893 O   0  0  0  0  0  0  0  0  0  0  0  0
  -44.6512   18.0794    8.1164 H   0  0  0  0  0  0  0  0  0  0  0  0
  -46.3637   19.3384    7.2210 H   0  0  0  0  0  0  0  0  0  0  0  0
  -34.8539   20.0918   10.3846 C   0  0  0  0  0  0  0  0  0  0  0  0
  -35.1965   19.0937   11.4435 C   0  0  0  0  0  0  0  0  0  0  0  0
  -35.8515   17.9210   11.0965 C   0  0  0  0  0  0  0  0  0  0  0  0
  -34.8259   19.3134   12.7609 C   0  0  0  0  0  0  0  0  0  0  0  0
  -34.1571   20.4190   13.1719 N   0  0  0  0  0  0  0  0  0  0  0  0
  -35.1297   18.3996   13.6921 N   0  0  0  0  0  0  0  0  0  0  0  0
  -35.7677   17.2514   13.3661 C   0  0  0  0  0  0  0  0  0  0  0  0
  -36.1065   17.0252   12.0777 N   0  0  0  0  0  0  0  0  0  0  0  0
  -36.0595   16.2683   14.4760 C   0  0  0  0  0  0  0  0  0  0  0  0
  -33.9132   21.1169   12.5217 H   0  0  0  0  0  0  0  0  0  0  0  0
  -33.9156   20.5240   14.1205 H   0  0  0  0  0  0  0  0  0  0  0  0
 25 27  1  0  0  0
 25 29  1  0  0  0
 26 25  2  0  0  0
 31 30  1  0  0  0
 31 29  1  0  0  0
 31 33  1  0  0  0
 32 31  2  0  0  0
 24 25  1  0  0  0
 24 23  1  0  0  0
 22 23  1  0  0  0
 22  1  1  0  0  0
  1  4  1  0  0  0
  2  1  2  0  0  0
  2  6  1  0  0  0
  3  2  1  0  0  0
  4  5  1  0  0  0
  5  7  1  0  0  0
  6  5  2  0  0  0
  6 36  1  0  0  0
 37 36  1  0  0  0
 37 39  1  0  0  0
 38 37  2  0  0  0
 38 43  1  0  0  0
 39 40  1  0  0  0
 41 39  2  0  0  0
 42 41  1  0  0  0
 42 44  1  0  0  0
 43 42  2  0  0  0
 16 17  2  0  0  0
 17  7  1  0  0  0
 17 20  1  0  0  0
 18 17  1  0  0  0
 20 21  1  0  0  0
  7  8  1  0  0  0
  7 10  1  0  0  0
 10 11  1  0  0  0
 11 12  2  0  0  0
 13 12  1  0  0  0
 14 13  2  0  0  0
 15 10  2  0  0  0
 15 14  1  0  0  0
 27 28  1  0  0  0
 30 34  1  0  0  0
 33 35  1  0  0  0
 40 45  1  0  0  0
 40 46  1  0  0  0
 18 19  1  0  0  0
  8  9  1  0  0  0
M  CHG 1   6   1
M  END
> <minimizedAffinity>
-8.35088

$$$$
3D7K_D7K_A_572


 46 48  0  0  0  0  0  0  0  0999 V2000
  -37.4536   20.0365    8.5169 C   0  0  0  0  0  0  0  0  0  0  0  0
  -36.1953   20.1535    8.9833 C   0  0  0  0  0  0  0  0  0  0  0  0
  -35.0963   19.1721    8.6722 C   0  0  0  0  0  0  0  0  0  0  0  0
  -38.4151   21.2887    8.9965 S   0  0  0  0  0  0  0  0  0  0  0  0
  -37.2756   21.9293   10.1670 C   0  0  0  0  0  0  0  0  0  0  0  0
  -36.0368   21.2329    9.7946 N   0  0  0  0  0  0  0  0  0  0  0  0
  -37.3632   23.4733   10.4146 C   0  0  0  0  0  0  0  0  0  0  0  0
  -36.3985   24.0770    9.5562 O   0  0  0  0  0  0  0  0  0  0  0  0
  -36.6697   23.9601    8.6323 H   0  0  0  0  0  0  0  0  0  0  0  0
  -36.9117   23.6728   11.8425 C   0  0  0  0  0  0  0  0  0  0  0  0
  -35.9294   24.6380   12.1222 C   0  0  0  0  0  0  0  0  0  0  0  0
  -35.4715   24.8207   13.4392 C   0  0  0  0  0  0  0  0  0  0  0  0
  -35.9786   24.0168   14.4827 C   0  0  0  0  0  0  0  0  0  0  0  0
  -36.9495   23.0534   14.2033 C   0  0  0  0  0  0  0  0  0  0  0  0
  -37.4097   22.8895   12.8954 C   0  0  0  0  0  0  0  0  0  0  0  0
  -38.6844   25.8766   10.3182 O   0  0  0  0  0  0  0  0  0  0  0  0
  -38.8860   24.3962   10.0584 P   0  0  0  0  0  0  0  0  0  0  0  0
  -39.2264   23.9885    8.6413 O   0  0  0  0  0  0  0  0  0  0  0  0
  -38.5406   24.3142    8.0376 H   0  0  0  0  0  0  0  0  0  0  0  0
  -39.9646   23.9092   11.1838 O   0  0  0  0  0  0  0  0  0  0  0  0
  -41.1293   23.1416   10.8805 C   0  0  0  0  0  0  0  0  0  0  0  0
  -38.0266   18.9049    7.6542 C   0  0  0  0  0  0  0  0  0  0  0  0
  -38.9204   19.3662    6.4738 C   0  0  0  0  0  0  0  0  0  0  0  0
  -40.2709   18.8608    6.5766 O   0  0  0  0  0  0  0  0  0  0  0  0
  -41.5505   19.5208    5.8311 P   0  0  0  0  0  0  0  0  0  0  0  0
  -41.3420   21.0212    5.8056 O   0  0  0  0  0  0  0  0  0  0  0  0
  -41.8051   18.9224    4.4629 O   0  0  0  0  0  0  0  0  0  0  0  0
  -42.5777   19.3501    4.0617 H   0  0  0  0  0  0  0  0  0  0  0  0
  -42.8498   19.0892    6.6523 O   0  0  0  0  0  0  0  0  0  0  0  0
  -44.9208   20.0370    6.1304 O   0  0  0  0  0  0  0  0  0  0  0  0
  -44.3326   18.6332    6.1852 P   0  0  0  0  0  0  0  0  0  0  0  0
  -44.7668   17.6549    7.2638 O   0  0  0  0  0  0  0  0  0  0  0  0
  -44.3132   17.9835    4.8212 O   0  0  0  0  0  0  0  0  0  0  0  0
  -44.5335   20.5209    5.3843 H   0  0  0  0  0  0  0  0  0  0  0  0
  -44.0327   18.6330    4.1577 H   0  0  0  0  0  0  0  0  0  0  0  0
  -34.8549   21.7876   10.4385 C   0  0  0  0  0  0  0  0  0  0  0  0
  -34.2747   20.7623   11.3587 C   0  0  0  0  0  0  0  0  0  0  0  0
  -35.0349   20.2755   12.4122 C   0  0  0  0  0  0  0  0  0  0  0  0
  -32.9996   20.2647   11.1400 C   0  0  0  0  0  0  0  0  0  0  0  0
  -32.2087   20.6676   10.1150 N   0  0  0  0  0  0  0  0  0  0  0  0
  -32.5038   19.3356   11.9678 N   0  0  0  0  0  0  0  0  0  0  0  0
  -33.2357   18.8523   12.9986 C   0  0  0  0  0  0  0  0  0  0  0  0
  -34.4883   19.3185   13.1969 N   0  0  0  0  0  0  0  0  0  0  0  0
  -32.6052   17.7954   13.8755 C   0  0  0  0  0  0  0  0  0  0  0  0
  -32.5322   21.3486    9.4818 H   0  0  0  0  0  0  0  0  0  0  0  0
  -31.3109   20.2792   10.0039 H   0  0  0  0  0  0  0  0  0  0  0  0
 25 27  1  0  0  0
 25 29  1  0  0  0
 26 25  2  0  0  0
 31 30  1  0  0  0
 31 29  1  0  0  0
 31 33  1  0  0  0
 32 31  2  0  0  0
 24 25  1  0  0  0
 24 23  1  0  0  0
 22 23  1  0  0  0
 22  1  1  0  0  0
  1  4  1  0  0  0
  2  1  2  0  0  0
  2  6  1  0  0  0
  3  2  1  0  0  0
  4  5  1  0  0  0
  5  7  1  0  0  0
  6  5  2  0  0  0
  6 36  1  0  0  0
 37 36  1  0  0  0
 37 39  1  0  0  0
 38 37  2  0  0  0
 38 43  1  0  0  0
 39 40  1  0  0  0
 41 39  2  0  0  0
 42 41  1  0  0  0
 42 44  1  0  0  0
 43 42  2  0  0  0
 16 17  2  0  0  0
 17  7  1  0  0  0
 17 20  1  0  0  0
 18 17  1  0  0  0
 20 21  1  0  0  0
  7  8  1  0  0  0
  7 10  1  0  0  0
 10 11  1  0  0  0
 11 12  2  0  0  0
 13 12  1  0  0  0
 14 13  2  0  0  0
 15 10  2  0  0  0
 15 14  1  0  0  0
 27 28  1  0  0  0
 30 34  1  0  0  0
 33 35  1  0  0  0
 40 45  1  0  0  0
 40 46  1  0  0  0
 18 19  1  0  0  0
  8  9  1  0  0  0
M  CHG 1   6   1
M  END
> <minimizedAffinity>
-8.32183

$$$$
3D7K_D7K_A_572


 46 48  0  0  0  0  0  0  0  0999 V2000
  -38.2180   21.2042    8.8696 C   0  0  0  0  0  0  0  0  0  0  0  0
  -37.2163   20.3035    8.8715 C   0  0  0  0  0  0  0  0  0  0  0  0
  -37.2793   18.9853    8.1463 C   0  0  0  0  0  0  0  0  0  0  0  0
  -37.8332   22.5660    9.7181 S   0  0  0  0  0  0  0  0  0  0  0  0
  -36.3831   21.8991   10.4467 C   0  0  0  0  0  0  0  0  0  0  0  0
  -36.1593   20.6988    9.6297 N   0  0  0  0  0  0  0  0  0  0  0  0
  -35.2627   22.9392   10.7872 C   0  0  0  0  0  0  0  0  0  0  0  0
  -34.1088   22.1868   11.1539 O   0  0  0  0  0  0  0  0  0  0  0  0
  -33.7742   21.7095   10.3785 H   0  0  0  0  0  0  0  0  0  0  0  0
  -35.7575   23.6686   12.0143 C   0  0  0  0  0  0  0  0  0  0  0  0
  -35.0300   24.7698   12.4968 C   0  0  0  0  0  0  0  0  0  0  0  0
  -35.4542   25.4457   13.6547 C   0  0  0  0  0  0  0  0  0  0  0  0
  -36.5992   25.0045   14.3523 C   0  0  0  0  0  0  0  0  0  0  0  0
  -37.3177   23.9062   13.8765 C   0  0  0  0  0  0  0  0  0  0  0  0
  -36.8982   23.2507   12.7174 C   0  0  0  0  0  0  0  0  0  0  0  0
  -35.6478   25.1906    9.2663 O   0  0  0  0  0  0  0  0  0  0  0  0
  -34.6375   24.0908    9.5300 P   0  0  0  0  0  0  0  0  0  0  0  0
  -33.2895   24.5132   10.0727 O   0  0  0  0  0  0  0  0  0  0  0  0
  -33.4142   25.0167   10.8924 H   0  0  0  0  0  0  0  0  0  0  0  0
  -34.5731   23.2301    8.1435 O   0  0  0  0  0  0  0  0  0  0  0  0
  -33.3840   22.6103    7.6541 C   0  0  0  0  0  0  0  0  0  0  0  0
  -39.5940   21.0668    8.2058 C   0  0  0  0  0  0  0  0  0  0  0  0
  -39.6284   21.3937    6.6902 C   0  0  0  0  0  0  0  0  0  0  0  0
  -40.9362   21.1824    6.1118 O   0  0  0  0  0  0  0  0  0  0  0  0
  -41.7798   19.8041    6.2444 P   0  0  0  0  0  0  0  0  0  0  0  0
  -40.8381   18.6591    5.9323 O   0  0  0  0  0  0  0  0  0  0  0  0
  -42.4741   19.6680    7.5838 O   0  0  0  0  0  0  0  0  0  0  0  0
  -42.9624   18.8303    7.6113 H   0  0  0  0  0  0  0  0  0  0  0  0
  -43.0019   19.8982    5.2214 O   0  0  0  0  0  0  0  0  0  0  0  0
  -41.6627   20.2389    3.3373 O   0  0  0  0  0  0  0  0  0  0  0  0
  -43.0856   19.7683    3.6087 P   0  0  0  0  0  0  0  0  0  0  0  0
  -44.2724   20.6412    3.2365 O   0  0  0  0  0  0  0  0  0  0  0  0
  -43.2914   18.3361    3.1737 O   0  0  0  0  0  0  0  0  0  0  0  0
  -41.0357   19.5618    3.6361 H   0  0  0  0  0  0  0  0  0  0  0  0
  -42.5181   17.8074    3.4255 H   0  0  0  0  0  0  0  0  0  0  0  0
  -34.8518   20.0967    9.8465 C   0  0  0  0  0  0  0  0  0  0  0  0
  -34.9277   19.1772   11.0228 C   0  0  0  0  0  0  0  0  0  0  0  0
  -36.0422   18.3687   11.1924 C   0  0  0  0  0  0  0  0  0  0  0  0
  -33.8739   19.0969   11.9196 C   0  0  0  0  0  0  0  0  0  0  0  0
  -32.7398   19.8311   11.8037 N   0  0  0  0  0  0  0  0  0  0  0  0
  -33.9557   18.2559   12.9590 N   0  0  0  0  0  0  0  0  0  0  0  0
  -35.0372   17.4615   13.1349 C   0  0  0  0  0  0  0  0  0  0  0  0
  -36.0537   17.5210   12.2466 N   0  0  0  0  0  0  0  0  0  0  0  0
  -35.0419   16.5317   14.3262 C   0  0  0  0  0  0  0  0  0  0  0  0
  -32.6363   20.4622   11.0552 H   0  0  0  0  0  0  0  0  0  0  0  0
  -32.0200   19.7332   12.4682 H   0  0  0  0  0  0  0  0  0  0  0  0
 25 27  1  0  0  0
 25 29  1  0  0  0
 26 25  2  0  0  0
 31 30  1  0  0  0
 31 29  1  0  0  0
 31 33  1  0  0  0
 32 31  2  0  0  0
 24 25  1  0  0  0
 24 23  1  0  0  0
 22 23  1  0  0  0
 22  1  1  0  0  0
  1  4  1  0  0  0
  2  1  2  0  0  0
  2  6  1  0  0  0
  3  2  1  0  0  0
  4  5  1  0  0  0
  5  7  1  0  0  0
  6  5  2  0  0  0
  6 36  1  0  0  0
 37 36  1  0  0  0
 37 39  1  0  0  0
 38 37  2  0  0  0
 38 43  1  0  0  0
 39 40  1  0  0  0
 41 39  2  0  0  0
 42 41  1  0  0  0
 42 44  1  0  0  0
 43 42  2  0  0  0
 16 17  2  0  0  0
 17  7  1  0  0  0
 17 20  1  0  0  0
 18 17  1  0  0  0
 20 21  1  0  0  0
  7  8  1  0  0  0
  7 10  1  0  0  0
 10 11  1  0  0  0
 11 12  2  0  0  0
 13 12  1  0  0  0
 14 13  2  0  0  0
 15 10  2  0  0  0
 15 14  1  0  0  0
 27 28  1  0  0  0
 30 34  1  0  0  0
 33 35  1  0  0  0
 40 45  1  0  0  0
 40 46  1  0  0  0
 18 19  1  0  0  0
  8  9  1  0  0  0
M  CHG 1   6   1
M  END
> <minimizedAffinity>
-8.10341

$$$$
3D7K_D7K_A_572


 46 48  0  0  0  0  0  0  0  0999 V2000
  -38.3168   21.2575    8.7299 C   0  0  0  0  0  0  0  0  0  0  0  0
  -37.3347   20.3672    8.4900 C   0  0  0  0  0  0  0  0  0  0  0  0
  -37.4959   19.1706    7.5901 C   0  0  0  0  0  0  0  0  0  0  0  0
  -37.8217   22.4793    9.7223 S   0  0  0  0  0  0  0  0  0  0  0  0
  -36.3116   21.7131   10.1821 C   0  0  0  0  0  0  0  0  0  0  0  0
  -36.1960   20.6470    9.1780 N   0  0  0  0  0  0  0  0  0  0  0  0
  -35.1452   22.6925   10.5474 C   0  0  0  0  0  0  0  0  0  0  0  0
  -34.0790   22.4075    9.6453 O   0  0  0  0  0  0  0  0  0  0  0  0
  -34.3401   22.6602    8.7459 H   0  0  0  0  0  0  0  0  0  0  0  0
  -34.7070   22.2880   11.9355 C   0  0  0  0  0  0  0  0  0  0  0  0
  -33.3746   22.5072   12.3247 C   0  0  0  0  0  0  0  0  0  0  0  0
  -32.9358   22.1115   13.6007 C   0  0  0  0  0  0  0  0  0  0  0  0
  -33.8262   21.4687   14.4875 C   0  0  0  0  0  0  0  0  0  0  0  0
  -35.1480   21.2450   14.0980 C   0  0  0  0  0  0  0  0  0  0  0  0
  -35.5792   21.6551   12.8350 C   0  0  0  0  0  0  0  0  0  0  0  0
  -34.0042   25.1712   10.2567 O   0  0  0  0  0  0  0  0  0  0  0  0
  -35.3512   24.4913   10.4075 P   0  0  0  0  0  0  0  0  0  0  0  0
  -36.3315   24.6498    9.2655 O   0  0  0  0  0  0  0  0  0  0  0  0
  -35.9224   24.3388    8.4427 H   0  0  0  0  0  0  0  0  0  0  0  0
  -35.9149   24.9801   11.8603 O   0  0  0  0  0  0  0  0  0  0  0  0
  -37.2744   24.8321   12.2696 C   0  0  0  0  0  0  0  0  0  0  0  0
  -39.7585   21.2186    8.2075 C   0  0  0  0  0  0  0  0  0  0  0  0
  -39.9260   21.5922    6.7116 C   0  0  0  0  0  0  0  0  0  0  0  0
  -41.2304   21.2377    6.1993 O   0  0  0  0  0  0  0  0  0  0  0  0
  -41.9039   19.7713    6.3565 P   0  0  0  0  0  0  0  0  0  0  0  0
  -40.8163   18.7412    6.1301 O   0  0  0  0  0  0  0  0  0  0  0  0
  -42.6348   19.5996    7.6723 O   0  0  0  0  0  0  0  0  0  0  0  0
  -43.0175   18.7094    7.7158 H   0  0  0  0  0  0  0  0  0  0  0  0
  -43.0820   19.6751    5.2834 O   0  0  0  0  0  0  0  0  0  0  0  0
  -41.6278   20.0925    3.5028 O   0  0  0  0  0  0  0  0  0  0  0  0
  -43.0828   19.6720    3.6633 P   0  0  0  0  0  0  0  0  0  0  0  0
  -44.2077   20.6269    3.3001 O   0  0  0  0  0  0  0  0  0  0  0  0
  -43.3275   18.2885    3.1077 O   0  0  0  0  0  0  0  0  0  0  0  0
  -41.0487   19.3652    3.7795 H   0  0  0  0  0  0  0  0  0  0  0  0
  -42.5934   17.7055    3.3567 H   0  0  0  0  0  0  0  0  0  0  0  0
  -34.8821   20.0206    9.1598 C   0  0  0  0  0  0  0  0  0  0  0  0
  -34.6715   19.2922   10.4482 C   0  0  0  0  0  0  0  0  0  0  0  0
  -35.7319   18.6207   11.0392 C   0  0  0  0  0  0  0  0  0  0  0  0
  -33.4152   19.2481   11.0320 C   0  0  0  0  0  0  0  0  0  0  0  0
  -32.3247   19.8525   10.4990 N   0  0  0  0  0  0  0  0  0  0  0  0
  -33.2447   18.5777   12.1791 N   0  0  0  0  0  0  0  0  0  0  0  0
  -34.2710   17.9181   12.7651 C   0  0  0  0  0  0  0  0  0  0  0  0
  -35.4901   17.9394   12.1828 N   0  0  0  0  0  0  0  0  0  0  0  0
  -33.9884   17.1752   14.0504 C   0  0  0  0  0  0  0  0  0  0  0  0
  -32.4035   20.3563    9.6568 H   0  0  0  0  0  0  0  0  0  0  0  0
  -31.4541   19.7875   10.9541 H   0  0  0  0  0  0  0  0  0  0  0  0
 25 27  1  0  0  0
 25 29  1  0  0  0
 26 25  2  0  0  0
 31 30  1  0  0  0
 31 29  1  0  0  0
 31 33  1  0  0  0
 32 31  2  0  0  0
 24 25  1  0  0  0
 24 23  1  0  0  0
 22 23  1  0  0  0
 22  1  1  0  0  0
  1  4  1  0  0  0
  2  1  2  0  0  0
  2  6  1  0  0  0
  3  2  1  0  0  0
  4  5  1  0  0  0
  5  7  1  0  0  0
  6  5  2  0  0  0
  6 36  1  0  0  0
 37 36  1  0  0  0
 37 39  1  0  0  0
 38 37  2  0  0  0
 38 43  1  0  0  0
 39 40  1  0  0  0
 41 39  2  0  0  0
 42 41  1  0  0  0
 42 44  1  0  0  0
 43 42  2  0  0  0
 16 17  2  0  0  0
 17  7  1  0  0  0
 17 20  1  0  0  0
 18 17  1  0  0  0
 20 21  1  0  0  0
  7  8  1  0  0  0
  7 10  1  0  0  0
 10 11  1  0  0  0
 11 12  2  0  0  0
 13 12  1  0  0  0
 14 13  2  0  0  0
 15 10  2  0  0  0
 15 14  1  0  0  0
 27 28  1  0  0  0
 30 34  1  0  0  0
 33 35  1  0  0  0
 40 45  1  0  0  0
 40 46  1  0  0  0
 18 19  1  0  0  0
  8  9  1  0  0  0
M  CHG 1   6   1
M  END
> <minimizedAffinity>
-7.89222

$$$$
3D7K_D7K_A_572


 46 48  0  0  0  0  0  0  0  0999 V2000
  -37.9806   22.1176    7.9338 C   0  0  0  0  0  0  0  0  0  0  0  0
  -37.1030   21.0958    7.9159 C   0  0  0  0  0  0  0  0  0  0  0  0
  -37.1859   19.9426    6.9511 C   0  0  0  0  0  0  0  0  0  0  0  0
  -37.5998   23.2463    9.0755 S   0  0  0  0  0  0  0  0  0  0  0  0
  -36.3848   22.2650    9.8751 C   0  0  0  0  0  0  0  0  0  0  0  0
  -36.1578   21.2014    8.8874 N   0  0  0  0  0  0  0  0  0  0  0  0
  -35.2316   23.0612   10.5746 C   0  0  0  0  0  0  0  0  0  0  0  0
  -34.2460   22.1020   10.9493 O   0  0  0  0  0  0  0  0  0  0  0  0
  -33.8388   21.7284   10.1521 H   0  0  0  0  0  0  0  0  0  0  0  0
  -35.8447   23.6224   11.8362 C   0  0  0  0  0  0  0  0  0  0  0  0
  -37.0267   23.0504   12.3368 C   0  0  0  0  0  0  0  0  0  0  0  0
  -37.6325   23.5749   13.4924 C   0  0  0  0  0  0  0  0  0  0  0  0
  -37.0693   24.6954   14.1402 C   0  0  0  0  0  0  0  0  0  0  0  0
  -35.8989   25.2676   13.6386 C   0  0  0  0  0  0  0  0  0  0  0  0
  -35.2956   24.7306   12.4998 C   0  0  0  0  0  0  0  0  0  0  0  0
  -35.1305   25.5490    9.4208 O   0  0  0  0  0  0  0  0  0  0  0  0
  -34.2800   24.3195    9.6752 P   0  0  0  0  0  0  0  0  0  0  0  0
  -33.0422   24.5055   10.5257 O   0  0  0  0  0  0  0  0  0  0  0  0
  -33.2925   24.8865   11.3819 H   0  0  0  0  0  0  0  0  0  0  0  0
  -34.0005   23.6818    8.1979 O   0  0  0  0  0  0  0  0  0  0  0  0
  -32.7701   23.0606    7.8265 C   0  0  0  0  0  0  0  0  0  0  0  0
  -39.2253   22.2930    7.0546 C   0  0  0  0  0  0  0  0  0  0  0  0
  -38.9663   22.9438    5.6709 C   0  0  0  0  0  0  0  0  0  0  0  0
  -40.1917   23.3169    5.0009 O   0  0  0  0  0  0  0  0  0  0  0  0
  -40.2547   24.0296    3.5460 P   0  0  0  0  0  0  0  0  0  0  0  0
  -38.8887   24.6227    3.2671 O   0  0  0  0  0  0  0  0  0  0  0  0
  -40.7427   23.0968    2.4566 O   0  0  0  0  0  0  0  0  0  0  0  0
  -40.7617   23.5702    1.6102 H   0  0  0  0  0  0  0  0  0  0  0  0
  -41.4079   25.1318    3.6095 O   0  0  0  0  0  0  0  0  0  0  0  0
  -40.4385   27.2543    3.4895 O   0  0  0  0  0  0  0  0  0  0  0  0
  -41.6135   26.5398    2.8350 P   0  0  0  0  0  0  0  0  0  0  0  0
  -43.0421   26.9330    3.1721 O   0  0  0  0  0  0  0  0  0  0  0  0
  -41.4153   26.3914    1.3445 O   0  0  0  0  0  0  0  0  0  0  0  0
  -39.6073   26.8778    3.1607 H   0  0  0  0  0  0  0  0  0  0  0  0
  -40.4958   26.1407    1.1640 H   0  0  0  0  0  0  0  0  0  0  0  0
  -34.9852   20.3906    9.1815 C   0  0  0  0  0  0  0  0  0  0  0  0
  -35.3388   19.3838   10.2285 C   0  0  0  0  0  0  0  0  0  0  0  0
  -36.5402   18.6954   10.1420 C   0  0  0  0  0  0  0  0  0  0  0  0
  -34.4556   19.1037   11.2592 C   0  0  0  0  0  0  0  0  0  0  0  0
  -33.2509   19.7115   11.3935 N   0  0  0  0  0  0  0  0  0  0  0  0
  -34.7854   18.1875   12.1791 N   0  0  0  0  0  0  0  0  0  0  0  0
  -35.9540   17.5088   12.1053 C   0  0  0  0  0  0  0  0  0  0  0  0
  -36.8040   17.7632   11.0863 N   0  0  0  0  0  0  0  0  0  0  0  0
  -36.2411   16.4823   13.1765 C   0  0  0  0  0  0  0  0  0  0  0  0
  -32.9671   20.3914   10.7405 H   0  0  0  0  0  0  0  0  0  0  0  0
  -32.6601   19.4730   12.1440 H   0  0  0  0  0  0  0  0  0  0  0  0
 25 27  1  0  0  0
 25 29  1  0  0  0
 26 25  2  0  0  0
 31 30  1  0  0  0
 31 29  1  0  0  0
 31 33  1  0  0  0
 32 31  2  0  0  0
 24 25  1  0  0  0
 24 23  1  0  0  0
 22 23  1  0  0  0
 22  1  1  0  0  0
  1  4  1  0  0  0
  2  1  2  0  0  0
  2  6  1  0  0  0
  3  2  1  0  0  0
  4  5  1  0  0  0
  5  7  1  0  0  0
  6  5  2  0  0  0
  6 36  1  0  0  0
 37 36  1  0  0  0
 37 39  1  0  0  0
 38 37  2  0  0  0
 38 43  1  0  0  0
 39 40  1  0  0  0
 41 39  2  0  0  0
 42 41  1  0  0  0
 42 44  1  0  0  0
 43 42  2  0  0  0
 16 17  2  0  0  0
 17  7  1  0  0  0
 17 20  1  0  0  0
 18 17  1  0  0  0
 20 21  1  0  0  0
  7  8  1  0  0  0
  7 10  1  0  0  0
 10 11  1  0  0  0
 11 12  2  0  0  0
 13 12  1  0  0  0
 14 13  2  0  0  0
 15 10  2  0  0  0
 15 14  1  0  0  0
 27 28  1  0  0  0
 30 34  1  0  0  0
 33 35  1  0  0  0
 40 45  1  0  0  0
 40 46  1  0  0  0
 18 19  1  0  0  0
  8  9  1  0  0  0
M  CHG 1   6   1
M  END
> <minimizedAffinity>
-7.48337

$$$$
3D7K_D7K_A_572


 46 48  0  0  0  0  0  0  0  0999 V2000
  -38.3886   19.7090    6.8364 C   0  0  0  0  0  0  0  0  0  0  0  0
  -38.6911   21.0053    7.0429 C   0  0  0  0  0  0  0  0  0  0  0  0
  -39.8312   21.7142    6.3607 C   0  0  0  0  0  0  0  0  0  0  0  0
  -37.1147   19.2115    7.7595 S   0  0  0  0  0  0  0  0  0  0  0  0
  -36.6502   20.8225    8.2769 C   0  0  0  0  0  0  0  0  0  0  0  0
  -37.8323   21.6116    7.9051 N   0  0  0  0  0  0  0  0  0  0  0  0
  -35.9573   20.9043    9.6792 C   0  0  0  0  0  0  0  0  0  0  0  0
  -36.9934   20.7857   10.6509 O   0  0  0  0  0  0  0  0  0  0  0  0
  -37.3703   19.8927   10.6143 H   0  0  0  0  0  0  0  0  0  0  0  0
  -35.3929   22.3033    9.7623 C   0  0  0  0  0  0  0  0  0  0  0  0
  -34.5745   22.7751    8.7220 C   0  0  0  0  0  0  0  0  0  0  0  0
  -34.0131   24.0625    8.7915 C   0  0  0  0  0  0  0  0  0  0  0  0
  -34.2487   24.8773    9.9198 C   0  0  0  0  0  0  0  0  0  0  0  0
  -35.0563   24.4056   10.9562 C   0  0  0  0  0  0  0  0  0  0  0  0
  -35.6222   23.1321   10.8717 C   0  0  0  0  0  0  0  0  0  0  0  0
  -35.4400   18.4333   10.7548 O   0  0  0  0  0  0  0  0  0  0  0  0
  -34.7417   19.6596   10.1995 P   0  0  0  0  0  0  0  0  0  0  0  0
  -33.8844   19.4623    8.9681 O   0  0  0  0  0  0  0  0  0  0  0  0
  -34.4196   19.0689    8.2612 H   0  0  0  0  0  0  0  0  0  0  0  0
  -33.9607   20.3186   11.4735 O   0  0  0  0  0  0  0  0  0  0  0  0
  -32.5678   20.6307   11.4696 C   0  0  0  0  0  0  0  0  0  0  0  0
  -39.0722   18.7350    5.8684 C   0  0  0  0  0  0  0  0  0  0  0  0
  -40.4740   18.2422    6.3124 C   0  0  0  0  0  0  0  0  0  0  0  0
  -41.5339   18.7952    5.4997 O   0  0  0  0  0  0  0  0  0  0  0  0
  -42.9403   19.3473    6.0880 P   0  0  0  0  0  0  0  0  0  0  0  0
  -43.6969   18.1626    6.6531 O   0  0  0  0  0  0  0  0  0  0  0  0
  -42.7577   20.4772    7.0803 O   0  0  0  0  0  0  0  0  0  0  0  0
  -43.6254   20.7697    7.4005 H   0  0  0  0  0  0  0  0  0  0  0  0
  -43.7102   20.0570    4.8829 O   0  0  0  0  0  0  0  0  0  0  0  0
  -44.5266   21.0859    2.9505 O   0  0  0  0  0  0  0  0  0  0  0  0
  -43.5019   20.0075    3.2769 P   0  0  0  0  0  0  0  0  0  0  0  0
  -43.7694   18.5544    2.9220 O   0  0  0  0  0  0  0  0  0  0  0  0
  -42.1055   20.4278    2.8818 O   0  0  0  0  0  0  0  0  0  0  0  0
  -44.1938   21.9480    3.2450 H   0  0  0  0  0  0  0  0  0  0  0  0
  -41.9676   21.3576    3.1215 H   0  0  0  0  0  0  0  0  0  0  0  0
  -37.8262   22.9512    8.4747 C   0  0  0  0  0  0  0  0  0  0  0  0
  -39.0113   23.1043    9.3731 C   0  0  0  0  0  0  0  0  0  0  0  0
  -39.8471   22.0203    9.5988 C   0  0  0  0  0  0  0  0  0  0  0  0
  -39.2545   24.3087   10.0145 C   0  0  0  0  0  0  0  0  0  0  0  0
  -38.4663   25.4024    9.8689 N   0  0  0  0  0  0  0  0  0  0  0  0
  -40.3136   24.4205   10.8269 N   0  0  0  0  0  0  0  0  0  0  0  0
  -41.1360   23.3703   11.0557 C   0  0  0  0  0  0  0  0  0  0  0  0
  -40.8846   22.1886   10.4506 N   0  0  0  0  0  0  0  0  0  0  0  0
  -42.2995   23.5789   11.9972 C   0  0  0  0  0  0  0  0  0  0  0  0
  -37.6770   25.3657    9.2816 H   0  0  0  0  0  0  0  0  0  0  0  0
  -38.6834   26.2332   10.3504 H   0  0  0  0  0  0  0  0  0  0  0  0
 25 27  1  0  0  0
 25 29  1  0  0  0
 26 25  2  0  0  0
 31 30  1  0  0  0
 31 29  1  0  0  0
 31 33  1  0  0  0
 32 31  2  0  0  0
 24 25  1  0  0  0
 24 23  1  0  0  0
 22 23  1  0  0  0
 22  1  1  0  0  0
  1  4  1  0  0  0
  2  1  2  0  0  0
  2  6  1  0  0  0
  3  2  1  0  0  0
  4  5  1  0  0  0
  5  7  1  0  0  0
  6  5  2  0  0  0
  6 36  1  0  0  0
 37 36  1  0  0  0
 37 39  1  0  0  0
 38 37  2  0  0  0
 38 43  1  0  0  0
 39 40  1  0  0  0
 41 39  2  0  0  0
 42 41  1  0  0  0
 42 44  1  0  0  0
 43 42  2  0  0  0
 16 17  2  0  0  0
 17  7  1  0  0  0
 17 20  1  0  0  0
 18 17  1  0  0  0
 20 21  1  0  0  0
  7  8  1  0  0  0
  7 10  1  0  0  0
 10 11  1  0  0  0
 11 12  2  0  0  0
 13 12  1  0  0  0
 14 13  2  0  0  0
 15 10  2  0  0  0
 15 14  1  0  0  0
 27 28  1  0  0  0
 30 34  1  0  0  0
 33 35  1  0  0  0
 40 45  1  0  0  0
 40 46  1  0  0  0
 18 19  1  0  0  0
  8  9  1  0  0  0
M  CHG 1   6   1
M  END
> <minimizedAffinity>
-7.29241

$$$$
3D7K_D7K_A_572


 46 48  0  0  0  0  0  0  0  0999 V2000
  -35.1003   21.1402    8.7085 C   0  0  0  0  0  0  0  0  0  0  0  0
  -34.2805   20.3257    9.4008 C   0  0  0  0  0  0  0  0  0  0  0  0
  -33.3842   19.3014    8.7564 C   0  0  0  0  0  0  0  0  0  0  0  0
  -35.9217   22.1799    9.6918 S   0  0  0  0  0  0  0  0  0  0  0  0
  -35.4758   21.3763   11.1865 C   0  0  0  0  0  0  0  0  0  0  0  0
  -34.3790   20.5044   10.7449 N   0  0  0  0  0  0  0  0  0  0  0  0
  -35.3963   22.3005   12.4485 C   0  0  0  0  0  0  0  0  0  0  0  0
  -34.8258   21.5142   13.4916 O   0  0  0  0  0  0  0  0  0  0  0  0
  -33.9019   21.3122   13.2759 H   0  0  0  0  0  0  0  0  0  0  0  0
  -36.8317   22.5969   12.8148 C   0  0  0  0  0  0  0  0  0  0  0  0
  -37.7438   22.9291   11.7987 C   0  0  0  0  0  0  0  0  0  0  0  0
  -39.0778   23.2385   12.1184 C   0  0  0  0  0  0  0  0  0  0  0  0
  -39.5002   23.2417   13.4652 C   0  0  0  0  0  0  0  0  0  0  0  0
  -38.5922   22.9183   14.4750 C   0  0  0  0  0  0  0  0  0  0  0  0
  -37.2736   22.5972   14.1471 C   0  0  0  0  0  0  0  0  0  0  0  0
  -33.4874   23.8442   11.2223 O   0  0  0  0  0  0  0  0  0  0  0  0
  -34.3808   23.8061   12.4469 P   0  0  0  0  0  0  0  0  0  0  0  0
  -35.3951   24.9199   12.5913 O   0  0  0  0  0  0  0  0  0  0  0  0
  -35.9588   24.9482   11.8024 H   0  0  0  0  0  0  0  0  0  0  0  0
  -33.3616   23.6461   13.7130 O   0  0  0  0  0  0  0  0  0  0  0  0
  -32.2061   22.8082   13.6947 C   0  0  0  0  0  0  0  0  0  0  0  0
  -35.3282   21.1635    7.1918 C   0  0  0  0  0  0  0  0  0  0  0  0
  -36.7491   21.5978    6.7471 C   0  0  0  0  0  0  0  0  0  0  0  0
  -37.6223   20.4688    6.5180 O   0  0  0  0  0  0  0  0  0  0  0  0
  -38.5846   19.8165    7.6481 P   0  0  0  0  0  0  0  0  0  0  0  0
  -37.7770   18.7703    8.3888 O   0  0  0  0  0  0  0  0  0  0  0  0
  -39.2082   20.8548    8.5579 O   0  0  0  0  0  0  0  0  0  0  0  0
  -39.7719   20.4142    9.2129 H   0  0  0  0  0  0  0  0  0  0  0  0
  -39.8506   19.2028    6.8934 O   0  0  0  0  0  0  0  0  0  0  0  0
  -40.3160   21.2331    5.8349 O   0  0  0  0  0  0  0  0  0  0  0  0
  -40.9858   19.8701    5.9497 P   0  0  0  0  0  0  0  0  0  0  0  0
  -42.2662   19.7033    6.7508 O   0  0  0  0  0  0  0  0  0  0  0  0
  -41.0751   19.1784    4.6094 O   0  0  0  0  0  0  0  0  0  0  0  0
  -39.5164   21.1557    5.2913 H   0  0  0  0  0  0  0  0  0  0  0  0
  -40.2442   19.3039    4.1248 H   0  0  0  0  0  0  0  0  0  0  0  0
  -33.6361   19.9177   11.8508 C   0  0  0  0  0  0  0  0  0  0  0  0
  -34.4250   18.7827   12.4202 C   0  0  0  0  0  0  0  0  0  0  0  0
  -35.4339   18.2007   11.6666 C   0  0  0  0  0  0  0  0  0  0  0  0
  -34.1259   18.2816   13.6774 C   0  0  0  0  0  0  0  0  0  0  0  0
  -33.1353   18.7764   14.4601 N   0  0  0  0  0  0  0  0  0  0  0  0
  -34.8354   17.2545   14.1634 N   0  0  0  0  0  0  0  0  0  0  0  0
  -35.8215   16.6778   13.4378 C   0  0  0  0  0  0  0  0  0  0  0  0
  -36.0964   17.1495   12.2018 N   0  0  0  0  0  0  0  0  0  0  0  0
  -36.5628   15.5149   14.0559 C   0  0  0  0  0  0  0  0  0  0  0  0
  -32.5882   19.5311   14.1433 H   0  0  0  0  0  0  0  0  0  0  0  0
  -32.9632   18.3810   15.3451 H   0  0  0  0  0  0  0  0  0  0  0  0
 25 27  1  0  0  0
 25 29  1  0  0  0
 26 25  2  0  0  0
 31 30  1  0  0  0
 31 29  1  0  0  0
 31 33  1  0  0  0
 32 31  2  0  0  0
 24 25  1  0  0  0
 24 23  1  0  0  0
 22 23  1  0  0  0
 22  1  1  0  0  0
  1  4  1  0  0  0
  2  1  2  0  0  0
  2  6  1  0  0  0
  3  2  1  0  0  0
  4  5  1  0  0  0
  5  7  1  0  0  0
  6  5  2  0  0  0
  6 36  1  0  0  0
 37 36  1  0  0  0
 37 39  1  0  0  0
 38 37  2  0  0  0
 38 43  1  0  0  0
 39 40  1  0  0  0
 41 39  2  0  0  0
 42 41  1  0  0  0
 42 44  1  0  0  0
 43 42  2  0  0  0
 16 17  2  0  0  0
 17  7  1  0  0  0
 17 20  1  0  0  0
 18 17  1  0  0  0
 20 21  1  0  0  0
  7  8  1  0  0  0
  7 10  1  0  0  0
 10 11  1  0  0  0
 11 12  2  0  0  0
 13 12  1  0  0  0
 14 13  2  0  0  0
 15 10  2  0  0  0
 15 14  1  0  0  0
 27 28  1  0  0  0
 30 34  1  0  0  0
 33 35  1  0  0  0
 40 45  1  0  0  0
 40 46  1  0  0  0
 18 19  1  0  0  0
  8  9  1  0  0  0
M  CHG 1   6   1
M  END
> <minimizedAffinity>
-7.13346

$$$$
3D7K_D7K_A_572


 46 48  0  0  0  0  0  0  0  0999 V2000
  -37.5500   24.1479    9.5190 C   0  0  0  0  0  0  0  0  0  0  0  0
  -36.3601   23.7292    9.0463 C   0  0  0  0  0  0  0  0  0  0  0  0
  -35.0359   24.1973    9.5895 C   0  0  0  0  0  0  0  0  0  0  0  0
  -38.8166   23.4235    8.7485 S   0  0  0  0  0  0  0  0  0  0  0  0
  -37.8462   22.7207    7.4666 C   0  0  0  0  0  0  0  0  0  0  0  0
  -36.4862   22.8676    8.0022 N   0  0  0  0  0  0  0  0  0  0  0  0
  -38.4006   21.3884    6.8575 C   0  0  0  0  0  0  0  0  0  0  0  0
  -37.2948   20.7334    6.2411 O   0  0  0  0  0  0  0  0  0  0  0  0
  -36.6662   20.4494    6.9231 H   0  0  0  0  0  0  0  0  0  0  0  0
  -39.3583   21.8170    5.7705 C   0  0  0  0  0  0  0  0  0  0  0  0
  -39.3289   23.1465    5.3161 C   0  0  0  0  0  0  0  0  0  0  0  0
  -40.2310   23.5764    4.3268 C   0  0  0  0  0  0  0  0  0  0  0  0
  -41.1878   22.6801    3.8038 C   0  0  0  0  0  0  0  0  0  0  0  0
  -41.2212   21.3613    4.2603 C   0  0  0  0  0  0  0  0  0  0  0  0
  -40.3116   20.9388    5.2316 C   0  0  0  0  0  0  0  0  0  0  0  0
  -38.4668   20.1083    9.2838 O   0  0  0  0  0  0  0  0  0  0  0  0
  -39.1215   20.1010    7.9160 P   0  0  0  0  0  0  0  0  0  0  0  0
  -40.6065   20.3876    7.8645 O   0  0  0  0  0  0  0  0  0  0  0  0
  -40.7853   21.2436    8.2844 H   0  0  0  0  0  0  0  0  0  0  0  0
  -38.6790   18.6818    7.2396 O   0  0  0  0  0  0  0  0  0  0  0  0
  -39.5754   17.8395    6.5153 C   0  0  0  0  0  0  0  0  0  0  0  0
  -37.8029   25.1827   10.6227 C   0  0  0  0  0  0  0  0  0  0  0  0
  -37.8490   24.6096   12.0631 C   0  0  0  0  0  0  0  0  0  0  0  0
  -36.5331   24.2949   12.5719 O   0  0  0  0  0  0  0  0  0  0  0  0
  -36.0843   22.8266   13.0928 P   0  0  0  0  0  0  0  0  0  0  0  0
  -37.1134   22.3652   14.1044 O   0  0  0  0  0  0  0  0  0  0  0  0
  -35.8665   21.8439   11.9606 O   0  0  0  0  0  0  0  0  0  0  0  0
  -35.6007   20.9850   12.3247 H   0  0  0  0  0  0  0  0  0  0  0  0
  -34.6228   22.9737   13.7182 O   0  0  0  0  0  0  0  0  0  0  0  0
  -33.5595   20.9005   13.5432 O   0  0  0  0  0  0  0  0  0  0  0  0
  -33.1873   22.3557   13.2911 P   0  0  0  0  0  0  0  0  0  0  0  0
  -32.2010   23.0698   14.2002 O   0  0  0  0  0  0  0  0  0  0  0  0
  -32.8821   22.6083   11.8331 O   0  0  0  0  0  0  0  0  0  0  0  0
  -34.1959   20.6086   12.8719 H   0  0  0  0  0  0  0  0  0  0  0  0
  -33.5281   22.1398   11.2817 H   0  0  0  0  0  0  0  0  0  0  0  0
  -35.4931   22.1122    7.2524 C   0  0  0  0  0  0  0  0  0  0  0  0
  -34.6597   21.3201    8.2080 C   0  0  0  0  0  0  0  0  0  0  0  0
  -35.2423   20.2996    8.9453 C   0  0  0  0  0  0  0  0  0  0  0  0
  -33.3020   21.5709    8.3292 C   0  0  0  0  0  0  0  0  0  0  0  0
  -32.6554   22.5292    7.6205 N   0  0  0  0  0  0  0  0  0  0  0  0
  -32.5703   20.8400    9.1805 N   0  0  0  0  0  0  0  0  0  0  0  0
  -33.1267   19.8413    9.9048 C   0  0  0  0  0  0  0  0  0  0  0  0
  -34.4453   19.5797    9.7679 N   0  0  0  0  0  0  0  0  0  0  0  0
  -32.2264   19.0569   10.8310 C   0  0  0  0  0  0  0  0  0  0  0  0
  -33.1535   23.0903    6.9831 H   0  0  0  0  0  0  0  0  0  0  0  0
  -31.6880   22.6639    7.7434 H   0  0  0  0  0  0  0  0  0  0  0  0
 25 27  1  0  0  0
 25 29  1  0  0  0
 26 25  2  0  0  0
 31 30  1  0  0  0
 31 29  1  0  0  0
 31 33  1  0  0  0
 32 31  2  0  0  0
 24 25  1  0  0  0
 24 23  1  0  0  0
 22 23  1  0  0  0
 22  1  1  0  0  0
  1  4  1  0  0  0
  2  1  2  0  0  0
  2  6  1  0  0  0
  3  2  1  0  0  0
  4  5  1  0  0  0
  5  7  1  0  0  0
  6  5  2  0  0  0
  6 36  1  0  0  0
 37 36  1  0  0  0
 37 39  1  0  0  0
 38 37  2  0  0  0
 38 43  1  0  0  0
 39 40  1  0  0  0
 41 39  2  0  0  0
 42 41  1  0  0  0
 42 44  1  0  0  0
 43 42  2  0  0  0
 16 17  2  0  0  0
 17  7  1  0  0  0
 17 20  1  0  0  0
 18 17  1  0  0  0
 20 21  1  0  0  0
  7  8  1  0  0  0
  7 10  1  0  0  0
 10 11  1  0  0  0
 11 12  2  0  0  0
 13 12  1  0  0  0
 14 13  2  0  0  0
 15 10  2  0  0  0
 15 14  1  0  0  0
 27 28  1  0  0  0
 30 34  1  0  0  0
 33 35  1  0  0  0
 40 45  1  0  0  0
 40 46  1  0  0  0
 18 19  1  0  0  0
  8  9  1  0  0  0
M  CHG 1   6   1
M  END
> <minimizedAffinity>
-7.11996

$$$$
