6F1N_C8W_A_302
  RCSB PDB05261800313D
Coordinates from PDB:6F1N:A:302 Model:1 without hydrogens
 31 33  0  0  0  0            999 V2000
   67.9910   38.5030   27.0670   C 0  0  0  0  0  0  0  0  0  0  0  0
   64.9600   37.5300   19.3790   N 0  0  0  0  0  0  0  0  0  0  0  0
   63.3120   33.8250   25.0400   C 0  0  0  0  0  0  0  0  0  0  0  0
   64.6390   33.9000   25.5520   C 0  0  0  0  0  0  0  0  0  0  0  0
   65.0040   33.2640   26.8000   C 0  0  0  0  0  0  0  0  0  0  0  0
   63.8820   35.0790   23.1600   C 0  0  0  0  0  0  0  0  0  0  0  0
   65.2100   35.2700   23.5900   C 0  0  0  0  0  0  0  0  0  0  0  0
   65.9680   36.0870   22.6340   C 0  0  0  0  0  0  0  0  0  0  0  0
   69.1850   33.9460   25.8870   C 0  0  0  0  0  0  0  0  0  0  0  0
   67.9180   33.7440   25.3510   C 0  0  0  0  0  0  0  0  0  0  0  0
   66.9820   34.7920   25.3630   C 0  0  0  0  0  0  0  0  0  0  0  0
   67.3370   36.0160   25.9460   C 0  0  0  0  0  0  0  0  0  0  0  0
   68.3900   39.5670   28.0990   C 0  0  0  0  0  0  0  0  0  0  0  0
   68.9470   37.4240   27.0300   O 0  0  0  0  0  0  0  0  0  0  0  0
   63.6060   35.8960   21.6340   S 0  0  0  0  0  0  0  0  0  0  0  0
   65.2540   36.4880   21.5350   C 0  0  0  0  0  0  0  0  0  0  0  0
   65.7530   37.2610   20.4340   C 0  0  0  0  0  0  0  0  0  0  0  0
   62.3120   33.1600   25.7100   N 0  0  0  0  0  0  0  0  0  0  0  0
   62.9990   34.3720   23.8860   N 0  0  0  0  0  0  0  0  0  0  0  0
   65.3310   32.7680   27.7730   N 0  0  0  0  0  0  0  0  0  0  0  0
   67.3100   36.4370   22.7970   N 0  0  0  0  0  0  0  0  0  0  0  0
   68.6130   36.2220   26.4710   C 0  0  0  0  0  0  0  0  0  0  0  0
   69.5570   35.1800   26.4350   C 0  0  0  0  0  0  0  0  0  0  0  0
   65.6040   34.6410   24.8260   C 0  0  0  0  0  0  0  0  0  0  0  0
   70.8120   35.3990   26.9590   O 0  0  0  0  0  0  0  0  0  0  0  0
   71.8470   34.4060   26.9160   C 0  0  0  0  0  0  0  0  0  0  0  0
   66.9140   37.6480   20.3940   O 0  0  0  0  0  0  0  0  0  0  0  0
   69.5570   40.4340   27.6000   C 0  0  0  0  0  0  0  0  0  0  0  0
   69.1450   41.3760   26.4870   C 0  0  0  0  0  0  0  0  0  0  0  0
   68.5610   42.4080   26.7460   O 0  0  0  0  0  0  0  0  0  0  0  0
   69.4330   41.0750   25.2050   O 0  0  0  0  0  0  0  0  0  0  0  0
  2 17  1  0  0  0  0
 27 17  2  0  0  0  0
 17 16  1  0  0  0  0
 16 15  1  0  0  0  0
 16  8  2  0  0  0  0
 15  6  1  0  0  0  0
  8 21  1  0  0  0  0
  8  7  1  0  0  0  0
  6  7  2  0  0  0  0
  6 19  1  0  0  0  0
  7 24  1  0  0  0  0
 19  3  2  0  0  0  0
 24 11  1  0  0  0  0
 24  4  2  0  0  0  0
  3  4  1  0  0  0  0
  3 18  1  0  0  0  0
 31 29  2  0  0  0  0
 10 11  2  0  0  0  0
 10  9  1  0  0  0  0
 11 12  1  0  0  0  0
  4  5  1  0  0  0  0
  9 23  2  0  0  0  0
 12 22  2  0  0  0  0
 23 22  1  0  0  0  0
 23 25  1  0  0  0  0
 22 14  1  0  0  0  0
 29 30  1  0  0  0  0
 29 28  1  0  0  0  0
  5 20  3  0  0  0  0
 26 25  1  0  0  0  0
 14  1  1  0  0  0  0
  1 13  1  0  0  0  0
 28 13  1  0  0  0  0
A    1
C1
A    2
N6
A    3
C8
A    4
C9
A    5
C11
A    6
C13
A    7
C14
A    8
C15
A    9
C19
A   10
C20
A   11
C21
A   12
C22
A   13
C27
A   14
O2
A   15
S3
A   16
C4
A   17
C5
A   18
N7
A   19
N10
A   20
N12
A   21
N16
A   22
C17
A   23
C18
A   24
C23
A   25
O24
A   26
C25
A   27
O26
A   28
C28
A   29
C29
A   30
O30
A   31
O31
M  END
>  <InstanceId>
6F1N_C8W_A_302

>  <ChemCompId>
C8W

>  <PdbId>
6F1N

>  <ChainId>
A

>  <ResidueNumber>
302

>  <InsertionCode>


>  <Model>
1

>  <AltIds>


>  <MissingHeavyAtoms>
0

>  <ObservedFormula>
C20 N5 O5 S

>  <Name>
4-[5-[2-aminocarbonyl-3,6-bis(azanyl)-5-cyano-thieno[2,3-b]pyridin-4-yl]-2-methoxy-phenoxy]butanoic acid

>  <SystematicName>
4-[5-[2-aminocarbonyl-3,6-bis(azanyl)-5-cyano-thieno[2,3-b]pyridin-4-yl]-2-methoxy-phenoxy]butanoic acid

>  <Synonyms>


>  <Type>
NON-POLYMER

>  <Formula>
C20 H19 N5 O5 S

>  <MolecularWeight>
441.46

>  <ModifiedDate>
2018-05-25

>  <Parent>


>  <OneLetterCode>


>  <SubcomponentList>


>  <AmbiguousFlag>
N

>  <InChI>
InChI=1S/C20H19N5O5S/c1-29-11-5-4-9(7-12(11)30-6-2-3-13(26)27)14-10(8-21)18(23)25-20-15(14)16(22)17(31-20)19(24)28/h4-5,7H,2-3,6,22H2,1H3,(H2,23,25)(H2,24,28)(H,26,27)

>  <InChIKey>
AOCGBLZWUILERQ-UHFFFAOYSA-N

>  <SMILES>
COc1ccc(cc1OCCCC(=O)O)c2c(c(nc3c2c(c(s3)C(=O)N)N)N)C#N

$$$$
