5EDB_5M8_A_201


 22 24  0  0  0  0  0  0  0  0999 V2000
    6.4141    7.5034   19.3631 C   0  0  0  0  0  0  0  0  0  0  0  0
    5.8582    7.3405   21.6884 C   0  0  0  0  0  0  0  0  0  0  0  0
    3.7167    6.5019   22.3975 C   0  0  0  0  0  0  0  0  0  0  0  0
    5.1365    6.9500   18.9687 C   0  0  0  0  0  0  0  0  0  0  0  0
    4.2374    6.6284   19.9554 C   0  0  0  0  0  0  0  0  0  0  0  0
    4.5652    6.8049   21.3279 C   0  0  0  0  0  0  0  0  0  0  0  0
    6.7357    7.6662   20.6659 N   0  0  0  0  0  0  0  0  0  0  0  0
    6.1925    7.5158   23.0431 C   0  0  0  0  0  0  0  0  0  0  0  0
    4.1054    6.6796   23.7247 C   0  0  0  0  0  0  0  0  0  0  0  0
    5.3682    7.2143   24.0523 C   0  0  0  0  0  0  0  0  0  0  0  0
    3.0863    6.2568   24.9878 Cl  0  0  0  0  0  0  0  0  0  0  0  0
    7.3529    7.8625   18.2331 C   0  0  0  0  0  0  0  0  0  0  0  0
    2.6734    4.6785   19.6532 C   0  0  0  0  0  0  0  0  0  0  0  0
    1.4344    4.1045   19.3879 C   0  0  0  0  0  0  0  0  0  0  0  0
    0.3847    4.9014   18.9629 C   0  0  0  0  0  0  0  0  0  0  0  0
    2.8982    6.0779   19.6081 C   0  0  0  0  0  0  0  0  0  0  0  0
    1.7838    6.8736   19.2151 C   0  0  0  0  0  0  0  0  0  0  0  0
    0.5576    6.2872   18.8816 C   0  0  0  0  0  0  0  0  0  0  0  0
    4.7769    6.8036   17.5531 C   0  0  0  0  0  0  0  0  0  0  0  0
    4.9926    5.8351   16.8356 O   0  0  0  0  0  0  0  0  0  0  0  0
    4.2503    7.9167   17.0097 O   0  0  0  0  0  0  0  0  0  0  0  0
    4.0801    8.6651   17.5472 H   0  0  0  0  0  0  0  0  0  0  0  0
 20 19  2  0  0  0
 21 19  1  0  0  0
 19  4  1  0  0  0
 12  1  1  0  0  0
 18 15  2  0  0  0
 18 17  1  0  0  0
  4  1  2  0  0  0
  4  5  1  0  0  0
 15 14  1  0  0  0
 17 16  2  0  0  0
  1  7  1  0  0  0
 14 13  2  0  0  0
 16 13  1  0  0  0
 16  5  1  0  0  0
  5  6  2  0  0  0
  7  2  2  0  0  0
  6  2  1  0  0  0
  6  3  1  0  0  0
  2  8  1  0  0  0
  3  9  2  0  0  0
  8 10  2  0  0  0
  9 10  1  0  0  0
  9 11  1  0  0  0
 21 22  1  0  0  0
M  END
> <minimizedAffinity>
-9.51254

$$$$
5EDB_5M8_A_201


 22 24  0  0  0  0  0  0  0  0999 V2000
    2.1747    6.0499   19.8513 C   0  0  0  0  0  0  0  0  0  0  0  0
    3.5035    6.4422   21.8065 C   0  0  0  0  0  0  0  0  0  0  0  0
    5.7060    7.3979   21.6399 C   0  0  0  0  0  0  0  0  0  0  0  0
    3.1979    6.5971   18.9865 C   0  0  0  0  0  0  0  0  0  0  0  0
    4.3669    7.0319   19.5606 C   0  0  0  0  0  0  0  0  0  0  0  0
    4.5540    6.9752   20.9692 C   0  0  0  0  0  0  0  0  0  0  0  0
    2.3423    6.0005   21.1917 N   0  0  0  0  0  0  0  0  0  0  0  0
    3.6782    6.3849   23.2008 C   0  0  0  0  0  0  0  0  0  0  0  0
    5.8203    7.3342   23.0282 C   0  0  0  0  0  0  0  0  0  0  0  0
    4.7864    6.7999   23.8240 C   0  0  0  0  0  0  0  0  0  0  0  0
    7.1930    7.8985   23.8092 Cl  0  0  0  0  0  0  0  0  0  0  0  0
    0.9203    5.5634   19.1607 C   0  0  0  0  0  0  0  0  0  0  0  0
    6.4507    6.7149   18.1833 C   0  0  0  0  0  0  0  0  0  0  0  0
    7.4730    7.1575   17.3504 C   0  0  0  0  0  0  0  0  0  0  0  0
    7.6152    8.5115   17.0968 C   0  0  0  0  0  0  0  0  0  0  0  0
    5.4643    7.5821   18.7180 C   0  0  0  0  0  0  0  0  0  0  0  0
    5.6113    8.9624   18.3975 C   0  0  0  0  0  0  0  0  0  0  0  0
    6.6809    9.4140   17.6160 C   0  0  0  0  0  0  0  0  0  0  0  0
    3.0269    6.6207   17.5288 C   0  0  0  0  0  0  0  0  0  0  0  0
    3.4142    5.7785   16.7289 O   0  0  0  0  0  0  0  0  0  0  0  0
    2.4718    7.7564   17.0665 O   0  0  0  0  0  0  0  0  0  0  0  0
    2.1711    8.4093   17.6676 H   0  0  0  0  0  0  0  0  0  0  0  0
 20 19  2  0  0  0
 21 19  1  0  0  0
 19  4  1  0  0  0
 12  1  1  0  0  0
 18 15  2  0  0  0
 18 17  1  0  0  0
  4  1  2  0  0  0
  4  5  1  0  0  0
 15 14  1  0  0  0
 17 16  2  0  0  0
  1  7  1  0  0  0
 14 13  2  0  0  0
 16 13  1  0  0  0
 16  5  1  0  0  0
  5  6  2  0  0  0
  7  2  2  0  0  0
  6  2  1  0  0  0
  6  3  1  0  0  0
  2  8  1  0  0  0
  3  9  2  0  0  0
  8 10  2  0  0  0
  9 10  1  0  0  0
  9 11  1  0  0  0
 21 22  1  0  0  0
M  END
> <minimizedAffinity>
-9.07983

$$$$
5EDB_5M8_A_201


 22 24  0  0  0  0  0  0  0  0999 V2000
    5.9770    7.8412   18.0465 C   0  0  0  0  0  0  0  0  0  0  0  0
    5.9665    7.7706   20.4418 C   0  0  0  0  0  0  0  0  0  0  0  0
    4.1213    6.8044   21.6476 C   0  0  0  0  0  0  0  0  0  0  0  0
    4.7004    7.1639   17.9722 C   0  0  0  0  0  0  0  0  0  0  0  0
    4.0752    6.8291   19.1479 C   0  0  0  0  0  0  0  0  0  0  0  0
    4.6807    7.1118   20.4033 C   0  0  0  0  0  0  0  0  0  0  0  0
    6.5624    8.1057   19.2359 N   0  0  0  0  0  0  0  0  0  0  0  0
    6.5745    8.0516   21.6784 C   0  0  0  0  0  0  0  0  0  0  0  0
    4.7758    7.0906   22.8450 C   0  0  0  0  0  0  0  0  0  0  0  0
    6.0250    7.7441   22.8584 C   0  0  0  0  0  0  0  0  0  0  0  0
    4.1046    6.6616   24.3209 Cl  0  0  0  0  0  0  0  0  0  0  0  0
    6.6056    8.2081   16.7208 C   0  0  0  0  0  0  0  0  0  0  0  0
    1.5666    6.9137   18.9499 C   0  0  0  0  0  0  0  0  0  0  0  0
    0.3023    6.3383   18.8781 C   0  0  0  0  0  0  0  0  0  0  0  0
    0.1533    4.9780   19.0907 C   0  0  0  0  0  0  0  0  0  0  0  0
    2.7489    6.1526   19.1333 C   0  0  0  0  0  0  0  0  0  0  0  0
    2.5648    4.7498   19.2995 C   0  0  0  0  0  0  0  0  0  0  0  0
    1.2854    4.1823   19.2961 C   0  0  0  0  0  0  0  0  0  0  0  0
    4.0518    6.9060   16.6809 C   0  0  0  0  0  0  0  0  0  0  0  0
    3.2622    7.6360   16.0954 O   0  0  0  0  0  0  0  0  0  0  0  0
    4.3061    5.6823   16.1815 O   0  0  0  0  0  0  0  0  0  0  0  0
    4.9082    5.1134   16.6194 H   0  0  0  0  0  0  0  0  0  0  0  0
 20 19  2  0  0  0
 21 19  1  0  0  0
 19  4  1  0  0  0
 12  1  1  0  0  0
 18 15  2  0  0  0
 18 17  1  0  0  0
  4  1  2  0  0  0
  4  5  1  0  0  0
 15 14  1  0  0  0
 17 16  2  0  0  0
  1  7  1  0  0  0
 14 13  2  0  0  0
 16 13  1  0  0  0
 16  5  1  0  0  0
  5  6  2  0  0  0
  7  2  2  0  0  0
  6  2  1  0  0  0
  6  3  1  0  0  0
  2  8  1  0  0  0
  3  9  2  0  0  0
  8 10  2  0  0  0
  9 10  1  0  0  0
  9 11  1  0  0  0
 21 22  1  0  0  0
M  END
> <minimizedAffinity>
-8.99067

$$$$
5EDB_5M8_A_201


 22 24  0  0  0  0  0  0  0  0999 V2000
    1.9980    6.5291   19.5663 C   0  0  0  0  0  0  0  0  0  0  0  0
    3.4410    6.4899   21.4791 C   0  0  0  0  0  0  0  0  0  0  0  0
    5.3253    7.9780   21.6438 C   0  0  0  0  0  0  0  0  0  0  0  0
    2.7486    7.6082   18.9611 C   0  0  0  0  0  0  0  0  0  0  0  0
    3.8504    8.0844   19.6278 C   0  0  0  0  0  0  0  0  0  0  0  0
    4.2247    7.5532   20.8928 C   0  0  0  0  0  0  0  0  0  0  0  0
    2.3430    6.0249   20.7721 N   0  0  0  0  0  0  0  0  0  0  0  0
    3.8016    5.9603   22.7310 C   0  0  0  0  0  0  0  0  0  0  0  0
    5.6283    7.4292   22.8893 C   0  0  0  0  0  0  0  0  0  0  0  0
    4.8556    6.3846   23.4365 C   0  0  0  0  0  0  0  0  0  0  0  0
    6.9235    7.9960   23.7915 Cl  0  0  0  0  0  0  0  0  0  0  0  0
    0.8107    6.0284   18.7746 C   0  0  0  0  0  0  0  0  0  0  0  0
    4.3918   10.5292   19.3635 C   0  0  0  0  0  0  0  0  0  0  0  0
    5.1527   11.5927   18.8894 C   0  0  0  0  0  0  0  0  0  0  0  0
    6.1742   11.3572   17.9846 C   0  0  0  0  0  0  0  0  0  0  0  0
    4.6748    9.1773   19.0422 C   0  0  0  0  0  0  0  0  0  0  0  0
    5.7634    8.9665   18.1478 C   0  0  0  0  0  0  0  0  0  0  0  0
    6.4835   10.0431   17.6177 C   0  0  0  0  0  0  0  0  0  0  0  0
    2.3912    8.1327   17.6376 C   0  0  0  0  0  0  0  0  0  0  0  0
    1.6479    9.0751   17.3958 O   0  0  0  0  0  0  0  0  0  0  0  0
    2.8758    7.4023   16.6162 O   0  0  0  0  0  0  0  0  0  0  0  0
    3.4457    6.6783   16.7869 H   0  0  0  0  0  0  0  0  0  0  0  0
 20 19  2  0  0  0
 21 19  1  0  0  0
 19  4  1  0  0  0
 12  1  1  0  0  0
 18 15  2  0  0  0
 18 17  1  0  0  0
  4  1  2  0  0  0
  4  5  1  0  0  0
 15 14  1  0  0  0
 17 16  2  0  0  0
  1  7  1  0  0  0
 14 13  2  0  0  0
 16 13  1  0  0  0
 16  5  1  0  0  0
  5  6  2  0  0  0
  7  2  2  0  0  0
  6  2  1  0  0  0
  6  3  1  0  0  0
  2  8  1  0  0  0
  3  9  2  0  0  0
  8 10  2  0  0  0
  9 10  1  0  0  0
  9 11  1  0  0  0
 21 22  1  0  0  0
M  END
> <minimizedAffinity>
-8.43102

$$$$
5EDB_5M8_A_201


 22 24  0  0  0  0  0  0  0  0999 V2000
    3.8875    7.4350   16.5938 C   0  0  0  0  0  0  0  0  0  0  0  0
    3.1253    6.5002   18.6645 C   0  0  0  0  0  0  0  0  0  0  0  0
    4.1770    7.0794   20.7503 C   0  0  0  0  0  0  0  0  0  0  0  0
    4.8987    8.2228   17.2653 C   0  0  0  0  0  0  0  0  0  0  0  0
    5.0117    8.1056   18.6287 C   0  0  0  0  0  0  0  0  0  0  0  0
    4.1383    7.2574   19.3637 C   0  0  0  0  0  0  0  0  0  0  0  0
    3.0484    6.6331   17.2868 N   0  0  0  0  0  0  0  0  0  0  0  0
    2.2550    5.6612   19.3832 C   0  0  0  0  0  0  0  0  0  0  0  0
    3.2779    6.2467   21.4155 C   0  0  0  0  0  0  0  0  0  0  0  0
    2.3047    5.5089   20.7110 C   0  0  0  0  0  0  0  0  0  0  0  0
    3.3139    6.0944   23.0853 Cl  0  0  0  0  0  0  0  0  0  0  0  0
    3.8269    7.5854   15.0902 C   0  0  0  0  0  0  0  0  0  0  0  0
    7.3018    8.2750   19.6614 C   0  0  0  0  0  0  0  0  0  0  0  0
    8.3303    8.9531   20.3073 C   0  0  0  0  0  0  0  0  0  0  0  0
    8.1144   10.2348   20.7853 C   0  0  0  0  0  0  0  0  0  0  0  0
    6.0496    8.8735   19.3704 C   0  0  0  0  0  0  0  0  0  0  0  0
    5.8778   10.2100   19.8326 C   0  0  0  0  0  0  0  0  0  0  0  0
    6.8896   10.8658   20.5432 C   0  0  0  0  0  0  0  0  0  0  0  0
    5.8293    9.0684   16.5081 C   0  0  0  0  0  0  0  0  0  0  0  0
    6.9352    8.7525   16.0882 O   0  0  0  0  0  0  0  0  0  0  0  0
    5.4194   10.3439   16.3781 O   0  0  0  0  0  0  0  0  0  0  0  0
    4.5754   10.5993   16.6950 H   0  0  0  0  0  0  0  0  0  0  0  0
 20 19  2  0  0  0
 21 19  1  0  0  0
 19  4  1  0  0  0
 12  1  1  0  0  0
 18 15  2  0  0  0
 18 17  1  0  0  0
  4  1  2  0  0  0
  4  5  1  0  0  0
 15 14  1  0  0  0
 17 16  2  0  0  0
  1  7  1  0  0  0
 14 13  2  0  0  0
 16 13  1  0  0  0
 16  5  1  0  0  0
  5  6  2  0  0  0
  7  2  2  0  0  0
  6  2  1  0  0  0
  6  3  1  0  0  0
  2  8  1  0  0  0
  3  9  2  0  0  0
  8 10  2  0  0  0
  9 10  1  0  0  0
  9 11  1  0  0  0
 21 22  1  0  0  0
M  END
> <minimizedAffinity>
-8.18486

$$$$
5EDB_5M8_A_201


 22 24  0  0  0  0  0  0  0  0999 V2000
    5.2137    7.2809   22.0754 C   0  0  0  0  0  0  0  0  0  0  0  0
    3.3910    6.1792   20.9772 C   0  0  0  0  0  0  0  0  0  0  0  0
    2.4381    7.0704   18.9548 C   0  0  0  0  0  0  0  0  0  0  0  0
    5.2644    8.3129   21.0622 C   0  0  0  0  0  0  0  0  0  0  0  0
    4.3504    8.2616   20.0389 C   0  0  0  0  0  0  0  0  0  0  0  0
    3.4009    7.2058   19.9601 C   0  0  0  0  0  0  0  0  0  0  0  0
    4.3195    6.2699   22.0024 N   0  0  0  0  0  0  0  0  0  0  0  0
    2.4577    5.1295   20.9059 C   0  0  0  0  0  0  0  0  0  0  0  0
    1.5463    5.9990   18.9228 C   0  0  0  0  0  0  0  0  0  0  0  0
    1.5479    5.0149   19.9323 C   0  0  0  0  0  0  0  0  0  0  0  0
    0.4379    5.8341   17.6751 Cl  0  0  0  0  0  0  0  0  0  0  0  0
    6.2273    7.4036   23.1911 C   0  0  0  0  0  0  0  0  0  0  0  0
    3.5190   10.4568   19.1283 C   0  0  0  0  0  0  0  0  0  0  0  0
    3.4990   11.4940   18.2015 C   0  0  0  0  0  0  0  0  0  0  0  0
    4.2263   11.3813   17.0284 C   0  0  0  0  0  0  0  0  0  0  0  0
    4.3395    9.3096   18.9813 C   0  0  0  0  0  0  0  0  0  0  0  0
    5.1127    9.2481   17.7864 C   0  0  0  0  0  0  0  0  0  0  0  0
    5.0378   10.2605   16.8230 C   0  0  0  0  0  0  0  0  0  0  0  0
    6.2151    9.4270   21.1602 C   0  0  0  0  0  0  0  0  0  0  0  0
    7.3688    9.4478   20.7507 O   0  0  0  0  0  0  0  0  0  0  0  0
    5.7544   10.4715   21.8732 O   0  0  0  0  0  0  0  0  0  0  0  0
    4.8736   10.4687   22.1927 H   0  0  0  0  0  0  0  0  0  0  0  0
 20 19  2  0  0  0
 21 19  1  0  0  0
 19  4  1  0  0  0
 12  1  1  0  0  0
 18 15  2  0  0  0
 18 17  1  0  0  0
  4  1  2  0  0  0
  4  5  1  0  0  0
 15 14  1  0  0  0
 17 16  2  0  0  0
  1  7  1  0  0  0
 14 13  2  0  0  0
 16 13  1  0  0  0
 16  5  1  0  0  0
  5  6  2  0  0  0
  7  2  2  0  0  0
  6  2  1  0  0  0
  6  3  1  0  0  0
  2  8  1  0  0  0
  3  9  2  0  0  0
  8 10  2  0  0  0
  9 10  1  0  0  0
  9 11  1  0  0  0
 21 22  1  0  0  0
M  END
> <minimizedAffinity>
-8.13370

$$$$
5EDB_5M8_A_201


 22 24  0  0  0  0  0  0  0  0999 V2000
    3.3424   10.2577   17.8509 C   0  0  0  0  0  0  0  0  0  0  0  0
    2.1635    8.1928   18.1493 C   0  0  0  0  0  0  0  0  0  0  0  0
    2.8746    6.5828   19.7908 C   0  0  0  0  0  0  0  0  0  0  0  0
    4.2761    9.9339   18.9080 C   0  0  0  0  0  0  0  0  0  0  0  0
    4.1403    8.7248   19.5444 C   0  0  0  0  0  0  0  0  0  0  0  0
    3.0918    7.8296   19.1956 C   0  0  0  0  0  0  0  0  0  0  0  0
    2.3384    9.4153   17.5196 N   0  0  0  0  0  0  0  0  0  0  0  0
    1.1216    7.3153   17.7995 C   0  0  0  0  0  0  0  0  0  0  0  0
    1.8143    5.7582   19.4166 C   0  0  0  0  0  0  0  0  0  0  0  0
    0.9274    6.1288   18.3852 C   0  0  0  0  0  0  0  0  0  0  0  0
    1.5468    4.2919   20.1854 Cl  0  0  0  0  0  0  0  0  0  0  0  0
    3.5566   11.5904   17.1690 C   0  0  0  0  0  0  0  0  0  0  0  0
    6.3419    7.7578   20.2912 C   0  0  0  0  0  0  0  0  0  0  0  0
    7.2896    7.4103   21.2482 C   0  0  0  0  0  0  0  0  0  0  0  0
    6.9809    7.5225   22.5935 C   0  0  0  0  0  0  0  0  0  0  0  0
    5.0865    8.3276   20.6233 C   0  0  0  0  0  0  0  0  0  0  0  0
    4.8202    8.4752   22.0149 C   0  0  0  0  0  0  0  0  0  0  0  0
    5.7478    8.0603   22.9773 C   0  0  0  0  0  0  0  0  0  0  0  0
    5.3843   10.8356   19.2446 C   0  0  0  0  0  0  0  0  0  0  0  0
    5.3744   11.7355   20.0748 O   0  0  0  0  0  0  0  0  0  0  0  0
    6.4662   10.6816   18.4588 O   0  0  0  0  0  0  0  0  0  0  0  0
    6.4871    9.9971   17.8193 H   0  0  0  0  0  0  0  0  0  0  0  0
 20 19  2  0  0  0
 21 19  1  0  0  0
 19  4  1  0  0  0
 12  1  1  0  0  0
 18 15  2  0  0  0
 18 17  1  0  0  0
  4  1  2  0  0  0
  4  5  1  0  0  0
 15 14  1  0  0  0
 17 16  2  0  0  0
  1  7  1  0  0  0
 14 13  2  0  0  0
 16 13  1  0  0  0
 16  5  1  0  0  0
  5  6  2  0  0  0
  7  2  2  0  0  0
  6  2  1  0  0  0
  6  3  1  0  0  0
  2  8  1  0  0  0
  3  9  2  0  0  0
  8 10  2  0  0  0
  9 10  1  0  0  0
  9 11  1  0  0  0
 21 22  1  0  0  0
M  END
> <minimizedAffinity>
-7.95559

$$$$
5EDB_5M8_A_201


 22 24  0  0  0  0  0  0  0  0999 V2000
    2.9135    6.5425   19.9920 C   0  0  0  0  0  0  0  0  0  0  0  0
    4.9517    7.3876   20.9270 C   0  0  0  0  0  0  0  0  0  0  0  0
    6.0656    9.2903   19.9620 C   0  0  0  0  0  0  0  0  0  0  0  0
    2.8969    7.5709   18.9740 C   0  0  0  0  0  0  0  0  0  0  0  0
    3.9327    8.4718   18.9462 C   0  0  0  0  0  0  0  0  0  0  0  0
    4.9763    8.4148   19.9107 C   0  0  0  0  0  0  0  0  0  0  0  0
    3.8977    6.4873   20.9170 N   0  0  0  0  0  0  0  0  0  0  0  0
    5.9777    7.3252   21.8869 C   0  0  0  0  0  0  0  0  0  0  0  0
    7.0477    9.1937   20.9471 C   0  0  0  0  0  0  0  0  0  0  0  0
    7.0088    8.1762   21.9223 C   0  0  0  0  0  0  0  0  0  0  0  0
    8.3140   10.2912   21.0157 Cl  0  0  0  0  0  0  0  0  0  0  0  0
    1.7613    5.5636   19.9575 C   0  0  0  0  0  0  0  0  0  0  0  0
    3.5100   10.8407   18.2052 C   0  0  0  0  0  0  0  0  0  0  0  0
    3.5717   11.8917   17.2960 C   0  0  0  0  0  0  0  0  0  0  0  0
    4.0153   11.6584   16.0051 C   0  0  0  0  0  0  0  0  0  0  0  0
    3.9811    9.5369   17.9068 C   0  0  0  0  0  0  0  0  0  0  0  0
    4.4769    9.3430   16.5855 C   0  0  0  0  0  0  0  0  0  0  0  0
    4.4734   10.3848   15.6510 C   0  0  0  0  0  0  0  0  0  0  0  0
    1.8445    7.6101   17.9515 C   0  0  0  0  0  0  0  0  0  0  0  0
    0.7980    8.2441   17.9967 O   0  0  0  0  0  0  0  0  0  0  0  0
    2.0539    6.7643   16.9256 O   0  0  0  0  0  0  0  0  0  0  0  0
    2.8503    6.2729   16.8786 H   0  0  0  0  0  0  0  0  0  0  0  0
 20 19  2  0  0  0
 21 19  1  0  0  0
 19  4  1  0  0  0
 12  1  1  0  0  0
 18 15  2  0  0  0
 18 17  1  0  0  0
  4  1  2  0  0  0
  4  5  1  0  0  0
 15 14  1  0  0  0
 17 16  2  0  0  0
  1  7  1  0  0  0
 14 13  2  0  0  0
 16 13  1  0  0  0
 16  5  1  0  0  0
  5  6  2  0  0  0
  7  2  2  0  0  0
  6  2  1  0  0  0
  6  3  1  0  0  0
  2  8  1  0  0  0
  3  9  2  0  0  0
  8 10  2  0  0  0
  9 10  1  0  0  0
  9 11  1  0  0  0
 21 22  1  0  0  0
M  END
> <minimizedAffinity>
-7.82058

$$$$
5EDB_5M8_A_201


 22 24  0  0  0  0  0  0  0  0999 V2000
    6.1892    7.7687   22.0048 C   0  0  0  0  0  0  0  0  0  0  0  0
    4.2186    6.5559   21.3817 C   0  0  0  0  0  0  0  0  0  0  0  0
    3.6565    6.2042   19.0681 C   0  0  0  0  0  0  0  0  0  0  0  0
    6.5669    7.9621   20.6214 C   0  0  0  0  0  0  0  0  0  0  0  0
    5.7372    7.4635   19.6475 C   0  0  0  0  0  0  0  0  0  0  0  0
    4.5559    6.7495   19.9898 C   0  0  0  0  0  0  0  0  0  0  0  0
    5.0723    7.0839   22.3377 N   0  0  0  0  0  0  0  0  0  0  0  0
    3.0541    5.8485   21.7299 C   0  0  0  0  0  0  0  0  0  0  0  0
    2.5239    5.4962   19.4684 C   0  0  0  0  0  0  0  0  0  0  0  0
    2.2091    5.3294   20.8325 C   0  0  0  0  0  0  0  0  0  0  0  0
    1.4918    4.8072   18.3402 Cl  0  0  0  0  0  0  0  0  0  0  0  0
    7.1274    8.3615   23.0322 C   0  0  0  0  0  0  0  0  0  0  0  0
    6.8880    6.7150   17.5369 C   0  0  0  0  0  0  0  0  0  0  0  0
    7.1899    6.8077   16.1822 C   0  0  0  0  0  0  0  0  0  0  0  0
    6.7610    7.9062   15.4562 C   0  0  0  0  0  0  0  0  0  0  0  0
    6.0624    7.6532   18.2070 C   0  0  0  0  0  0  0  0  0  0  0  0
    5.5972    8.7451   17.4191 C   0  0  0  0  0  0  0  0  0  0  0  0
    5.9596    8.8728   16.0733 C   0  0  0  0  0  0  0  0  0  0  0  0
    7.7631    8.7330   20.2615 C   0  0  0  0  0  0  0  0  0  0  0  0
    8.8874    8.2935   20.0563 O   0  0  0  0  0  0  0  0  0  0  0  0
    7.5727   10.0654   20.2723 O   0  0  0  0  0  0  0  0  0  0  0  0
    6.7176   10.4152   20.4281 H   0  0  0  0  0  0  0  0  0  0  0  0
 20 19  2  0  0  0
 21 19  1  0  0  0
 19  4  1  0  0  0
 12  1  1  0  0  0
 18 15  2  0  0  0
 18 17  1  0  0  0
  4  1  2  0  0  0
  4  5  1  0  0  0
 15 14  1  0  0  0
 17 16  2  0  0  0
  1  7  1  0  0  0
 14 13  2  0  0  0
 16 13  1  0  0  0
 16  5  1  0  0  0
  5  6  2  0  0  0
  7  2  2  0  0  0
  6  2  1  0  0  0
  6  3  1  0  0  0
  2  8  1  0  0  0
  3  9  2  0  0  0
  8 10  2  0  0  0
  9 10  1  0  0  0
  9 11  1  0  0  0
 21 22  1  0  0  0
M  END
> <minimizedAffinity>
-7.72840

$$$$
5EDB_5M8_A_201


 22 24  0  0  0  0  0  0  0  0999 V2000
    5.3542    9.7582   18.1995 C   0  0  0  0  0  0  0  0  0  0  0  0
    3.8792    7.8837   17.9693 C   0  0  0  0  0  0  0  0  0  0  0  0
    3.5681    6.3195   19.7718 C   0  0  0  0  0  0  0  0  0  0  0  0
    5.6795    9.3970   19.5625 C   0  0  0  0  0  0  0  0  0  0  0  0
    5.1088    8.2633   20.0862 C   0  0  0  0  0  0  0  0  0  0  0  0
    4.1988    7.4833   19.3207 C   0  0  0  0  0  0  0  0  0  0  0  0
    4.4837    9.0263   17.4688 N   0  0  0  0  0  0  0  0  0  0  0  0
    2.9780    7.1204   17.2057 C   0  0  0  0  0  0  0  0  0  0  0  0
    2.6687    5.6091   18.9777 C   0  0  0  0  0  0  0  0  0  0  0  0
    2.3805    6.0125   17.6579 C   0  0  0  0  0  0  0  0  0  0  0  0
    1.8864    4.2467   19.5648 Cl  0  0  0  0  0  0  0  0  0  0  0  0
    6.0322   11.0013   17.6683 C   0  0  0  0  0  0  0  0  0  0  0  0
    4.4163    7.8486   22.4711 C   0  0  0  0  0  0  0  0  0  0  0  0
    4.6335    7.4112   23.7736 C   0  0  0  0  0  0  0  0  0  0  0  0
    5.9050    7.0292   24.1671 C   0  0  0  0  0  0  0  0  0  0  0  0
    5.4253    7.8295   21.4749 C   0  0  0  0  0  0  0  0  0  0  0  0
    6.7098    7.3842   21.9006 C   0  0  0  0  0  0  0  0  0  0  0  0
    6.9427    7.0104   23.2290 C   0  0  0  0  0  0  0  0  0  0  0  0
    6.6489   10.1750   20.3433 C   0  0  0  0  0  0  0  0  0  0  0  0
    7.8622   10.0144   20.3800 O   0  0  0  0  0  0  0  0  0  0  0  0
    6.0829   11.0786   21.1647 O   0  0  0  0  0  0  0  0  0  0  0  0
    5.1555   11.2116   21.1471 H   0  0  0  0  0  0  0  0  0  0  0  0
 20 19  2  0  0  0
 21 19  1  0  0  0
 19  4  1  0  0  0
 12  1  1  0  0  0
 18 15  2  0  0  0
 18 17  1  0  0  0
  4  1  2  0  0  0
  4  5  1  0  0  0
 15 14  1  0  0  0
 17 16  2  0  0  0
  1  7  1  0  0  0
 14 13  2  0  0  0
 16 13  1  0  0  0
 16  5  1  0  0  0
  5  6  2  0  0  0
  7  2  2  0  0  0
  6  2  1  0  0  0
  6  3  1  0  0  0
  2  8  1  0  0  0
  3  9  2  0  0  0
  8 10  2  0  0  0
  9 10  1  0  0  0
  9 11  1  0  0  0
 21 22  1  0  0  0
M  END
> <minimizedAffinity>
-7.68957

$$$$
