5D25_56M_A_201


 31 32  0  0  0  0  0  0  0  0999 V2000
    3.1120   55.8617   22.1010 C   0  0  0  0  0  0  0  0  0  0  0  0
    3.0373   54.7515   21.2499 C   0  0  0  0  0  0  0  0  0  0  0  0
    2.1356   53.7026   21.5264 C   0  0  0  0  0  0  0  0  0  0  0  0
    1.3306   53.7777   22.6639 C   0  0  0  0  0  0  0  0  0  0  0  0
    1.4078   54.8725   23.5195 C   0  0  0  0  0  0  0  0  0  0  0  0
    2.2965   55.9063   23.2275 C   0  0  0  0  0  0  0  0  0  0  0  0
    2.3759   56.9901   24.0452 O   0  0  0  0  0  0  0  0  0  0  0  0
    2.9738   57.6837   23.8471 H   0  0  0  0  0  0  0  0  0  0  0  0
    3.9971   57.7040   20.8361 C   0  0  0  0  0  0  0  0  0  0  0  0
    3.9425   56.9248   21.9156 N   0  0  0  0  0  0  0  0  0  0  0  0
    3.4435   57.4015   19.7895 O   0  0  0  0  0  0  0  0  0  0  0  0
    4.5624   57.1383   22.6501 H   0  0  0  0  0  0  0  0  0  0  0  0
    5.4561   61.1023   21.2672 C   0  0  0  0  0  0  0  0  0  0  0  0
    4.4336   60.2295   21.6100 C   0  0  0  0  0  0  0  0  0  0  0  0
    4.7623   58.9849   20.8406 C   0  0  0  0  0  0  0  0  0  0  0  0
    6.3624   60.4110   20.3269 C   0  0  0  0  0  0  0  0  0  0  0  0
    7.6146   60.9385   19.6697 C   0  0  0  0  0  0  0  0  0  0  0  0
    3.2684   60.4867   22.5392 C   0  0  0  0  0  0  0  0  0  0  0  0
    5.8803   59.1748   20.1357 N   0  0  0  0  0  0  0  0  0  0  0  0
    6.2950   58.4977   19.5536 H   0  0  0  0  0  0  0  0  0  0  0  0
    5.6591   62.5238   21.6943 C   0  0  0  0  0  0  0  0  0  0  0  0
    4.5303   63.4827   21.4627 C   0  0  0  0  0  0  0  0  0  0  0  0
    6.7272   62.8901   22.1806 O   0  0  0  0  0  0  0  0  0  0  0  0
    2.1766   52.8347   19.2092 O   0  0  0  0  0  0  0  0  0  0  0  0
    0.6542   51.8734   20.7211 O   0  0  0  0  0  0  0  0  0  0  0  0
    1.9820   52.4077   20.5669 S   0  0  0  0  0  0  0  0  0  0  0  0
    2.9888   51.3118   20.9381 N   0  0  0  0  0  0  0  0  0  0  0  0
    4.6380   49.9154   19.8649 C   0  0  0  0  0  0  0  0  0  0  0  0
    4.3335   51.3099   20.3639 C   0  0  0  0  0  0  0  0  0  0  0  0
    3.1159   50.5299   23.2431 C   0  0  0  0  0  0  0  0  0  0  0  0
    2.5916   50.2485   21.8613 C   0  0  0  0  0  0  0  0  0  0  0  0
 17 16  1  0  0  0
 28 29  1  0  0  0
 24 26  2  0  0  0
 16 19  1  0  0  0
 16 13  2  0  0  0
 19 15  1  0  0  0
 29 27  1  0  0  0
 11  9  2  0  0  0
 23 21  2  0  0  0
 13 21  1  0  0  0
 13 14  1  0  0  0
 15  9  1  0  0  0
 15 14  2  0  0  0
 21 22  1  0  0  0
 27 26  1  0  0  0
 27 31  1  0  0  0
 26 25  2  0  0  0
 26  3  1  0  0  0
  9 10  1  0  0  0
 14 18  1  0  0  0
  2  3  2  0  0  0
  2  1  1  0  0  0
 31 30  1  0  0  0
  3  4  1  0  0  0
 10  1  1  0  0  0
  1  6  2  0  0  0
  4  5  2  0  0  0
  6  5  1  0  0  0
  6  7  1  0  0  0
 19 20  1  0  0  0
 10 12  1  0  0  0
  7  8  1  0  0  0
M  END
> <minimizedAffinity>
-7.29684

$$$$
5D25_56M_A_201


 31 32  0  0  0  0  0  0  0  0999 V2000
    3.2856   55.7580   21.8979 C   0  0  0  0  0  0  0  0  0  0  0  0
    3.3470   54.6020   21.1091 C   0  0  0  0  0  0  0  0  0  0  0  0
    2.4620   53.5298   21.3482 C   0  0  0  0  0  0  0  0  0  0  0  0
    1.5359   53.6292   22.3874 C   0  0  0  0  0  0  0  0  0  0  0  0
    1.4771   54.7702   23.1819 C   0  0  0  0  0  0  0  0  0  0  0  0
    2.3515   55.8259   22.9268 C   0  0  0  0  0  0  0  0  0  0  0  0
    2.2993   56.9541   23.6845 O   0  0  0  0  0  0  0  0  0  0  0  0
    2.8879   57.6623   23.5114 H   0  0  0  0  0  0  0  0  0  0  0  0
    4.0568   57.7107   20.7277 C   0  0  0  0  0  0  0  0  0  0  0  0
    4.0894   56.8459   21.7408 N   0  0  0  0  0  0  0  0  0  0  0  0
    3.4312   57.4851   19.7025 O   0  0  0  0  0  0  0  0  0  0  0  0
    4.7592   57.0092   22.4437 H   0  0  0  0  0  0  0  0  0  0  0  0
    5.4647   61.1140   21.2740 C   0  0  0  0  0  0  0  0  0  0  0  0
    4.4427   60.2232   21.5683 C   0  0  0  0  0  0  0  0  0  0  0  0
    4.8072   58.9993   20.7819 C   0  0  0  0  0  0  0  0  0  0  0  0
    6.4052   60.4532   20.3456 C   0  0  0  0  0  0  0  0  0  0  0  0
    7.6697   61.0082   19.7363 C   0  0  0  0  0  0  0  0  0  0  0  0
    3.2486   60.4475   22.4688 C   0  0  0  0  0  0  0  0  0  0  0  0
    5.9427   59.2165   20.1138 N   0  0  0  0  0  0  0  0  0  0  0  0
    6.3814   58.5568   19.5294 H   0  0  0  0  0  0  0  0  0  0  0  0
    5.6395   62.5279   21.7374 C   0  0  0  0  0  0  0  0  0  0  0  0
    4.5645   63.5099   21.3805 C   0  0  0  0  0  0  0  0  0  0  0  0
    6.6468   62.8699   22.3537 O   0  0  0  0  0  0  0  0  0  0  0  0
    2.0338   51.0932   21.2888 O   0  0  0  0  0  0  0  0  0  0  0  0
    3.8047   51.9344   19.9914 O   0  0  0  0  0  0  0  0  0  0  0  0
    2.4639   52.1802   20.4541 S   0  0  0  0  0  0  0  0  0  0  0  0
    1.5490   52.3166   19.2306 N   0  0  0  0  0  0  0  0  0  0  0  0
    0.2328   53.4651   17.5662 C   0  0  0  0  0  0  0  0  0  0  0  0
    1.2844   53.6279   18.6405 C   0  0  0  0  0  0  0  0  0  0  0  0
    1.9058   50.3658   17.8136 C   0  0  0  0  0  0  0  0  0  0  0  0
    0.9210   51.1239   18.6617 C   0  0  0  0  0  0  0  0  0  0  0  0
 17 16  1  0  0  0
 28 29  1  0  0  0
 24 26  2  0  0  0
 16 19  1  0  0  0
 16 13  2  0  0  0
 19 15  1  0  0  0
 29 27  1  0  0  0
 11  9  2  0  0  0
 23 21  2  0  0  0
 13 21  1  0  0  0
 13 14  1  0  0  0
 15  9  1  0  0  0
 15 14  2  0  0  0
 21 22  1  0  0  0
 27 26  1  0  0  0
 27 31  1  0  0  0
 26 25  2  0  0  0
 26  3  1  0  0  0
  9 10  1  0  0  0
 14 18  1  0  0  0
  2  3  2  0  0  0
  2  1  1  0  0  0
 31 30  1  0  0  0
  3  4  1  0  0  0
 10  1  1  0  0  0
  1  6  2  0  0  0
  4  5  2  0  0  0
  6  5  1  0  0  0
  6  7  1  0  0  0
 19 20  1  0  0  0
 10 12  1  0  0  0
  7  8  1  0  0  0
M  END
> <minimizedAffinity>
-7.28034

$$$$
5D25_56M_A_201


 31 32  0  0  0  0  0  0  0  0999 V2000
    1.7384   54.7308   19.7805 C   0  0  0  0  0  0  0  0  0  0  0  0
    1.5765   53.4378   20.2947 C   0  0  0  0  0  0  0  0  0  0  0  0
    0.9989   52.4241   19.5019 C   0  0  0  0  0  0  0  0  0  0  0  0
    0.5787   52.7283   18.2063 C   0  0  0  0  0  0  0  0  0  0  0  0
    0.7264   54.0134   17.6933 C   0  0  0  0  0  0  0  0  0  0  0  0
    1.3084   55.0023   18.4853 C   0  0  0  0  0  0  0  0  0  0  0  0
    1.4729   56.2604   17.9958 O   0  0  0  0  0  0  0  0  0  0  0  0
    1.8643   56.9235   18.5298 H   0  0  0  0  0  0  0  0  0  0  0  0
    3.5808   55.9286   20.7542 C   0  0  0  0  0  0  0  0  0  0  0  0
    2.2900   55.7720   20.4631 N   0  0  0  0  0  0  0  0  0  0  0  0
    4.3897   55.0220   20.6228 O   0  0  0  0  0  0  0  0  0  0  0  0
    1.6759   56.4770   20.7713 H   0  0  0  0  0  0  0  0  0  0  0  0
    4.5980   58.9838   22.6234 C   0  0  0  0  0  0  0  0  0  0  0  0
    3.9002   57.7851   22.6565 C   0  0  0  0  0  0  0  0  0  0  0  0
    4.1067   57.2212   21.2823 C   0  0  0  0  0  0  0  0  0  0  0  0
    5.1982   59.1360   21.2818 C   0  0  0  0  0  0  0  0  0  0  0  0
    6.0453   60.2685   20.7545 C   0  0  0  0  0  0  0  0  0  0  0  0
    3.1188   57.1995   23.8113 C   0  0  0  0  0  0  0  0  0  0  0  0
    4.8609   58.0558   20.5630 N   0  0  0  0  0  0  0  0  0  0  0  0
    5.1327   57.8991   19.6299 H   0  0  0  0  0  0  0  0  0  0  0  0
    4.7354   60.0196   23.6970 C   0  0  0  0  0  0  0  0  0  0  0  0
    4.0140   61.3188   23.4999 C   0  0  0  0  0  0  0  0  0  0  0  0
    5.4449   59.8184   24.6807 O   0  0  0  0  0  0  0  0  0  0  0  0
    0.2802   50.1220   18.9470 O   0  0  0  0  0  0  0  0  0  0  0  0
   -0.1196   50.9079   21.1264 O   0  0  0  0  0  0  0  0  0  0  0  0
    0.8111   50.9047   20.0282 S   0  0  0  0  0  0  0  0  0  0  0  0
    2.1376   50.3140   20.5221 N   0  0  0  0  0  0  0  0  0  0  0  0
    4.4469   50.9658   20.2693 C   0  0  0  0  0  0  0  0  0  0  0  0
    3.2927   50.2273   19.6299 C   0  0  0  0  0  0  0  0  0  0  0  0
    2.2987   48.3124   21.9035 C   0  0  0  0  0  0  0  0  0  0  0  0
    2.2403   49.8158   21.8939 C   0  0  0  0  0  0  0  0  0  0  0  0
 17 16  1  0  0  0
 28 29  1  0  0  0
 24 26  2  0  0  0
 16 19  1  0  0  0
 16 13  2  0  0  0
 19 15  1  0  0  0
 29 27  1  0  0  0
 11  9  2  0  0  0
 23 21  2  0  0  0
 13 21  1  0  0  0
 13 14  1  0  0  0
 15  9  1  0  0  0
 15 14  2  0  0  0
 21 22  1  0  0  0
 27 26  1  0  0  0
 27 31  1  0  0  0
 26 25  2  0  0  0
 26  3  1  0  0  0
  9 10  1  0  0  0
 14 18  1  0  0  0
  2  3  2  0  0  0
  2  1  1  0  0  0
 31 30  1  0  0  0
  3  4  1  0  0  0
 10  1  1  0  0  0
  1  6  2  0  0  0
  4  5  2  0  0  0
  6  5  1  0  0  0
  6  7  1  0  0  0
 19 20  1  0  0  0
 10 12  1  0  0  0
  7  8  1  0  0  0
M  END
> <minimizedAffinity>
-6.98843

$$$$
5D25_56M_A_201


 31 32  0  0  0  0  0  0  0  0999 V2000
    3.7373   56.4097   20.9737 C   0  0  0  0  0  0  0  0  0  0  0  0
    3.7688   56.7944   22.3203 C   0  0  0  0  0  0  0  0  0  0  0  0
    4.1591   58.1020   22.6776 C   0  0  0  0  0  0  0  0  0  0  0  0
    4.5264   59.0015   21.6758 C   0  0  0  0  0  0  0  0  0  0  0  0
    4.5081   58.6223   20.3370 C   0  0  0  0  0  0  0  0  0  0  0  0
    4.1101   57.3295   19.9986 C   0  0  0  0  0  0  0  0  0  0  0  0
    4.0733   56.9456   18.6944 O   0  0  0  0  0  0  0  0  0  0  0  0
    3.8055   56.0764   18.4693 H   0  0  0  0  0  0  0  0  0  0  0  0
    2.1256   54.7682   20.2771 C   0  0  0  0  0  0  0  0  0  0  0  0
    3.3686   55.1764   20.5294 N   0  0  0  0  0  0  0  0  0  0  0  0
    1.1478   55.4074   20.6358 O   0  0  0  0  0  0  0  0  0  0  0  0
    4.0901   54.5234   20.3802 H   0  0  0  0  0  0  0  0  0  0  0  0
    1.8473   51.3075   18.9321 C   0  0  0  0  0  0  0  0  0  0  0  0
    2.4095   52.1336   19.8945 C   0  0  0  0  0  0  0  0  0  0  0  0
    1.8593   53.4878   19.5588 C   0  0  0  0  0  0  0  0  0  0  0  0
    0.9949   52.1322   18.0510 C   0  0  0  0  0  0  0  0  0  0  0  0
    0.1761   51.6969   16.8601 C   0  0  0  0  0  0  0  0  0  0  0  0
    3.3539   51.7469   21.0106 C   0  0  0  0  0  0  0  0  0  0  0  0
    1.0594   53.3960   18.4936 N   0  0  0  0  0  0  0  0  0  0  0  0
    0.5810   54.1548   18.0877 H   0  0  0  0  0  0  0  0  0  0  0  0
    2.0480   49.8375   18.7241 C   0  0  0  0  0  0  0  0  0  0  0  0
    1.1796   48.9034   19.5119 C   0  0  0  0  0  0  0  0  0  0  0  0
    2.9192   49.4210   17.9631 O   0  0  0  0  0  0  0  0  0  0  0  0
    5.5053   58.3787   24.7356 O   0  0  0  0  0  0  0  0  0  0  0  0
    3.2237   57.8626   24.9703 O   0  0  0  0  0  0  0  0  0  0  0  0
    4.1886   58.6156   24.2126 S   0  0  0  0  0  0  0  0  0  0  0  0
    3.8267   60.1027   24.3136 N   0  0  0  0  0  0  0  0  0  0  0  0
    5.2350   61.9235   23.5903 C   0  0  0  0  0  0  0  0  0  0  0  0
    4.8128   61.0800   24.7722 C   0  0  0  0  0  0  0  0  0  0  0  0
    1.7895   61.1333   25.1670 C   0  0  0  0  0  0  0  0  0  0  0  0
    2.4755   60.5427   23.9652 C   0  0  0  0  0  0  0  0  0  0  0  0
 17 16  1  0  0  0
 28 29  1  0  0  0
 24 26  2  0  0  0
 16 19  1  0  0  0
 16 13  2  0  0  0
 19 15  1  0  0  0
 29 27  1  0  0  0
 11  9  2  0  0  0
 23 21  2  0  0  0
 13 21  1  0  0  0
 13 14  1  0  0  0
 15  9  1  0  0  0
 15 14  2  0  0  0
 21 22  1  0  0  0
 27 26  1  0  0  0
 27 31  1  0  0  0
 26 25  2  0  0  0
 26  3  1  0  0  0
  9 10  1  0  0  0
 14 18  1  0  0  0
  2  3  2  0  0  0
  2  1  1  0  0  0
 31 30  1  0  0  0
  3  4  1  0  0  0
 10  1  1  0  0  0
  1  6  2  0  0  0
  4  5  2  0  0  0
  6  5  1  0  0  0
  6  7  1  0  0  0
 19 20  1  0  0  0
 10 12  1  0  0  0
  7  8  1  0  0  0
M  END
> <minimizedAffinity>
-6.72689

$$$$
5D25_56M_A_201


 31 32  0  0  0  0  0  0  0  0999 V2000
    2.4732   55.5770   19.9702 C   0  0  0  0  0  0  0  0  0  0  0  0
    2.6294   54.4806   20.8280 C   0  0  0  0  0  0  0  0  0  0  0  0
    2.0755   53.2282   20.4898 C   0  0  0  0  0  0  0  0  0  0  0  0
    1.3592   53.0988   19.2990 C   0  0  0  0  0  0  0  0  0  0  0  0
    1.1908   54.1867   18.4478 C   0  0  0  0  0  0  0  0  0  0  0  0
    1.7529   55.4157   18.7908 C   0  0  0  0  0  0  0  0  0  0  0  0
    1.6098   56.4865   17.9646 O   0  0  0  0  0  0  0  0  0  0  0  0
    1.9883   57.3115   18.1970 H   0  0  0  0  0  0  0  0  0  0  0  0
    3.8322   57.1568   21.1680 C   0  0  0  0  0  0  0  0  0  0  0  0
    2.9754   56.8209   20.2044 N   0  0  0  0  0  0  0  0  0  0  0  0
    4.0914   56.4052   22.0961 O   0  0  0  0  0  0  0  0  0  0  0  0
    2.6767   57.5415   19.6038 H   0  0  0  0  0  0  0  0  0  0  0  0
    5.0854   60.6294   21.6512 C   0  0  0  0  0  0  0  0  0  0  0  0
    4.1514   59.6735   22.0236 C   0  0  0  0  0  0  0  0  0  0  0  0
    4.5074   58.4873   21.1779 C   0  0  0  0  0  0  0  0  0  0  0  0
    5.9665   60.0425   20.6206 C   0  0  0  0  0  0  0  0  0  0  0  0
    7.1299   60.6831   19.9034 C   0  0  0  0  0  0  0  0  0  0  0  0
    3.0411   59.8100   23.0413 C   0  0  0  0  0  0  0  0  0  0  0  0
    5.5566   58.7840   20.4071 N   0  0  0  0  0  0  0  0  0  0  0  0
    5.9733   58.1620   19.7678 H   0  0  0  0  0  0  0  0  0  0  0  0
    5.2219   62.0433   22.1272 C   0  0  0  0  0  0  0  0  0  0  0  0
    4.4098   63.0900   21.4258 C   0  0  0  0  0  0  0  0  0  0  0  0
    6.0007   62.3313   23.0339 O   0  0  0  0  0  0  0  0  0  0  0  0
    3.6504   51.6931   21.6245 O   0  0  0  0  0  0  0  0  0  0  0  0
    1.6669   50.7875   20.7453 O   0  0  0  0  0  0  0  0  0  0  0  0
    2.2457   51.9172   21.4243 S   0  0  0  0  0  0  0  0  0  0  0  0
    1.5293   52.0903   22.7694 N   0  0  0  0  0  0  0  0  0  0  0  0
    0.2929   53.9336   23.7154 C   0  0  0  0  0  0  0  0  0  0  0  0
    0.2055   52.7078   22.8344 C   0  0  0  0  0  0  0  0  0  0  0  0
    1.8621   50.2078   24.2813 C   0  0  0  0  0  0  0  0  0  0  0  0
    2.1867   51.6497   24.0000 C   0  0  0  0  0  0  0  0  0  0  0  0
 17 16  1  0  0  0
 28 29  1  0  0  0
 24 26  2  0  0  0
 16 19  1  0  0  0
 16 13  2  0  0  0
 19 15  1  0  0  0
 29 27  1  0  0  0
 11  9  2  0  0  0
 23 21  2  0  0  0
 13 21  1  0  0  0
 13 14  1  0  0  0
 15  9  1  0  0  0
 15 14  2  0  0  0
 21 22  1  0  0  0
 27 26  1  0  0  0
 27 31  1  0  0  0
 26 25  2  0  0  0
 26  3  1  0  0  0
  9 10  1  0  0  0
 14 18  1  0  0  0
  2  3  2  0  0  0
  2  1  1  0  0  0
 31 30  1  0  0  0
  3  4  1  0  0  0
 10  1  1  0  0  0
  1  6  2  0  0  0
  4  5  2  0  0  0
  6  5  1  0  0  0
  6  7  1  0  0  0
 19 20  1  0  0  0
 10 12  1  0  0  0
  7  8  1  0  0  0
M  END
> <minimizedAffinity>
-6.67069

$$$$
5D25_56M_A_201


 31 32  0  0  0  0  0  0  0  0999 V2000
    4.1993   60.3127   22.6149 C   0  0  0  0  0  0  0  0  0  0  0  0
    3.7157   60.8417   23.8185 C   0  0  0  0  0  0  0  0  0  0  0  0
    4.2536   62.0382   24.3368 C   0  0  0  0  0  0  0  0  0  0  0  0
    5.2815   62.6797   23.6442 C   0  0  0  0  0  0  0  0  0  0  0  0
    5.7742   62.1536   22.4538 C   0  0  0  0  0  0  0  0  0  0  0  0
    5.2253   60.9756   21.9488 C   0  0  0  0  0  0  0  0  0  0  0  0
    5.6853   60.4541   20.7799 O   0  0  0  0  0  0  0  0  0  0  0  0
    5.3150   59.6624   20.4423 H   0  0  0  0  0  0  0  0  0  0  0  0
    3.9964   57.9249   22.4288 C   0  0  0  0  0  0  0  0  0  0  0  0
    3.7409   59.1708   22.0316 N   0  0  0  0  0  0  0  0  0  0  0  0
    4.8670   57.6712   23.2480 O   0  0  0  0  0  0  0  0  0  0  0  0
    3.1652   59.2760   21.2399 H   0  0  0  0  0  0  0  0  0  0  0  0
    2.3485   55.2219   20.4689 C   0  0  0  0  0  0  0  0  0  0  0  0
    3.1498   56.3539   20.4331 C   0  0  0  0  0  0  0  0  0  0  0  0
    3.2438   56.7627   21.8729 C   0  0  0  0  0  0  0  0  0  0  0  0
    1.9733   54.9615   21.8741 C   0  0  0  0  0  0  0  0  0  0  0  0
    1.1141   53.8505   22.4267 C   0  0  0  0  0  0  0  0  0  0  0  0
    3.7724   57.0105   19.2212 C   0  0  0  0  0  0  0  0  0  0  0  0
    2.5441   55.9121   22.6278 N   0  0  0  0  0  0  0  0  0  0  0  0
    2.4588   55.9745   23.6066 H   0  0  0  0  0  0  0  0  0  0  0  0
    1.8658   54.3775   19.3294 C   0  0  0  0  0  0  0  0  0  0  0  0
    1.0194   55.0432   18.2865 C   0  0  0  0  0  0  0  0  0  0  0  0
    2.1266   53.1771   19.2789 O   0  0  0  0  0  0  0  0  0  0  0  0
    2.4395   62.1388   26.0170 O   0  0  0  0  0  0  0  0  0  0  0  0
    3.5735   64.1314   25.4964 O   0  0  0  0  0  0  0  0  0  0  0  0
    3.7184   62.7148   25.7067 S   0  0  0  0  0  0  0  0  0  0  0  0
    4.7034   62.4971   26.8620 N   0  0  0  0  0  0  0  0  0  0  0  0
    5.1910   64.0066   28.6801 C   0  0  0  0  0  0  0  0  0  0  0  0
    5.5984   63.5711   27.2906 C   0  0  0  0  0  0  0  0  0  0  0  0
    6.0681   60.5125   27.2358 C   0  0  0  0  0  0  0  0  0  0  0  0
    4.7597   61.1955   27.5279 C   0  0  0  0  0  0  0  0  0  0  0  0
 17 16  1  0  0  0
 28 29  1  0  0  0
 24 26  2  0  0  0
 16 19  1  0  0  0
 16 13  2  0  0  0
 19 15  1  0  0  0
 29 27  1  0  0  0
 11  9  2  0  0  0
 23 21  2  0  0  0
 13 21  1  0  0  0
 13 14  1  0  0  0
 15  9  1  0  0  0
 15 14  2  0  0  0
 21 22  1  0  0  0
 27 26  1  0  0  0
 27 31  1  0  0  0
 26 25  2  0  0  0
 26  3  1  0  0  0
  9 10  1  0  0  0
 14 18  1  0  0  0
  2  3  2  0  0  0
  2  1  1  0  0  0
 31 30  1  0  0  0
  3  4  1  0  0  0
 10  1  1  0  0  0
  1  6  2  0  0  0
  4  5  2  0  0  0
  6  5  1  0  0  0
  6  7  1  0  0  0
 19 20  1  0  0  0
 10 12  1  0  0  0
  7  8  1  0  0  0
M  END
> <minimizedAffinity>
-6.64328

$$$$
5D25_56M_A_201


 31 32  0  0  0  0  0  0  0  0999 V2000
    3.8962   56.6335   21.2275 C   0  0  0  0  0  0  0  0  0  0  0  0
    3.9211   57.2395   22.4903 C   0  0  0  0  0  0  0  0  0  0  0  0
    4.1714   58.6224   22.6109 C   0  0  0  0  0  0  0  0  0  0  0  0
    4.4074   59.3754   21.4599 C   0  0  0  0  0  0  0  0  0  0  0  0
    4.3951   58.7776   20.2032 C   0  0  0  0  0  0  0  0  0  0  0  0
    4.1361   57.4116   20.0992 C   0  0  0  0  0  0  0  0  0  0  0  0
    4.1070   56.8131   18.8783 O   0  0  0  0  0  0  0  0  0  0  0  0
    3.9327   55.8949   18.8107 H   0  0  0  0  0  0  0  0  0  0  0  0
    2.4668   54.7495   20.7977 C   0  0  0  0  0  0  0  0  0  0  0  0
    3.6567   55.3111   21.0079 N   0  0  0  0  0  0  0  0  0  0  0  0
    1.4217   55.3490   21.0019 O   0  0  0  0  0  0  0  0  0  0  0  0
    4.4381   54.7123   21.0042 H   0  0  0  0  0  0  0  0  0  0  0  0
    1.7986   51.4851   19.1364 C   0  0  0  0  0  0  0  0  0  0  0  0
    1.5700   52.8535   19.1338 C   0  0  0  0  0  0  0  0  0  0  0  0
    2.3462   53.3408   20.3209 C   0  0  0  0  0  0  0  0  0  0  0  0
    2.6753   51.1618   20.2810 C   0  0  0  0  0  0  0  0  0  0  0  0
    3.2039   49.8142   20.7083 C   0  0  0  0  0  0  0  0  0  0  0  0
    0.7321   53.6511   18.1596 C   0  0  0  0  0  0  0  0  0  0  0  0
    2.9484   52.3094   20.9179 N   0  0  0  0  0  0  0  0  0  0  0  0
    3.5167   52.3820   21.7185 H   0  0  0  0  0  0  0  0  0  0  0  0
    1.2581   50.4417   18.2071 C   0  0  0  0  0  0  0  0  0  0  0  0
    1.8988   50.3200   16.8573 C   0  0  0  0  0  0  0  0  0  0  0  0
    0.3011   49.7418   18.5324 O   0  0  0  0  0  0  0  0  0  0  0  0
    2.8754   59.9318   24.2632 O   0  0  0  0  0  0  0  0  0  0  0  0
    5.1510   60.4516   23.9832 O   0  0  0  0  0  0  0  0  0  0  0  0
    4.1849   59.3859   24.0384 S   0  0  0  0  0  0  0  0  0  0  0  0
    4.5778   58.4376   25.1781 N   0  0  0  0  0  0  0  0  0  0  0  0
    6.6815   58.3091   26.3527 C   0  0  0  0  0  0  0  0  0  0  0  0
    5.8833   57.7791   25.1830 C   0  0  0  0  0  0  0  0  0  0  0  0
    3.1539   56.7492   26.2089 C   0  0  0  0  0  0  0  0  0  0  0  0
    3.6282   58.1761   26.2601 C   0  0  0  0  0  0  0  0  0  0  0  0
 17 16  1  0  0  0
 28 29  1  0  0  0
 24 26  2  0  0  0
 16 19  1  0  0  0
 16 13  2  0  0  0
 19 15  1  0  0  0
 29 27  1  0  0  0
 11  9  2  0  0  0
 23 21  2  0  0  0
 13 21  1  0  0  0
 13 14  1  0  0  0
 15  9  1  0  0  0
 15 14  2  0  0  0
 21 22  1  0  0  0
 27 26  1  0  0  0
 27 31  1  0  0  0
 26 25  2  0  0  0
 26  3  1  0  0  0
  9 10  1  0  0  0
 14 18  1  0  0  0
  2  3  2  0  0  0
  2  1  1  0  0  0
 31 30  1  0  0  0
  3  4  1  0  0  0
 10  1  1  0  0  0
  1  6  2  0  0  0
  4  5  2  0  0  0
  6  5  1  0  0  0
  6  7  1  0  0  0
 19 20  1  0  0  0
 10 12  1  0  0  0
  7  8  1  0  0  0
M  END
> <minimizedAffinity>
-6.59365

$$$$
5D25_56M_A_201


 31 32  0  0  0  0  0  0  0  0999 V2000
    4.9741   62.0415   22.6625 C   0  0  0  0  0  0  0  0  0  0  0  0
    5.2973   61.1925   23.7289 C   0  0  0  0  0  0  0  0  0  0  0  0
    4.7383   61.4096   25.0056 C   0  0  0  0  0  0  0  0  0  0  0  0
    3.8720   62.4870   25.1962 C   0  0  0  0  0  0  0  0  0  0  0  0
    3.5555   63.3408   24.1439 C   0  0  0  0  0  0  0  0  0  0  0  0
    4.1079   63.1073   22.8851 C   0  0  0  0  0  0  0  0  0  0  0  0
    3.7993   63.9235   21.8419 O   0  0  0  0  0  0  0  0  0  0  0  0
    4.1717   63.7647   20.9968 H   0  0  0  0  0  0  0  0  0  0  0  0
    6.6476   62.3129   20.9587 C   0  0  0  0  0  0  0  0  0  0  0  0
    5.4549   61.9101   21.3952 N   0  0  0  0  0  0  0  0  0  0  0  0
    7.3622   63.0547   21.6163 O   0  0  0  0  0  0  0  0  0  0  0  0
    4.8643   61.4756   20.7383 H   0  0  0  0  0  0  0  0  0  0  0  0
    7.7243   60.6845   17.7882 C   0  0  0  0  0  0  0  0  0  0  0  0
    7.1235   60.5204   19.0279 C   0  0  0  0  0  0  0  0  0  0  0  0
    7.1676   61.8959   19.6237 C   0  0  0  0  0  0  0  0  0  0  0  0
    8.1166   62.1018   17.6451 C   0  0  0  0  0  0  0  0  0  0  0  0
    8.8025   62.7738   16.4806 C   0  0  0  0  0  0  0  0  0  0  0  0
    6.5632   59.2488   19.6250 C   0  0  0  0  0  0  0  0  0  0  0  0
    7.7496   62.7381   18.7666 N   0  0  0  0  0  0  0  0  0  0  0  0
    7.8904   63.6978   18.9355 H   0  0  0  0  0  0  0  0  0  0  0  0
    8.0042   59.6541   16.7373 C   0  0  0  0  0  0  0  0  0  0  0  0
    6.8336   59.1057   15.9783 C   0  0  0  0  0  0  0  0  0  0  0  0
    9.1485   59.2515   16.5374 O   0  0  0  0  0  0  0  0  0  0  0  0
    3.9017   60.4624   27.1333 O   0  0  0  0  0  0  0  0  0  0  0  0
    6.1924   60.9670   26.9750 O   0  0  0  0  0  0  0  0  0  0  0  0
    5.0497   60.4478   26.2701 S   0  0  0  0  0  0  0  0  0  0  0  0
    5.3697   59.0166   25.8209 N   0  0  0  0  0  0  0  0  0  0  0  0
    6.6690   57.4404   27.1050 C   0  0  0  0  0  0  0  0  0  0  0  0
    6.7125   58.4642   25.9931 C   0  0  0  0  0  0  0  0  0  0  0  0
    4.8274   57.5955   23.9164 C   0  0  0  0  0  0  0  0  0  0  0  0
    4.3247   58.2046   25.1971 C   0  0  0  0  0  0  0  0  0  0  0  0
 17 16  1  0  0  0
 28 29  1  0  0  0
 24 26  2  0  0  0
 16 19  1  0  0  0
 16 13  2  0  0  0
 19 15  1  0  0  0
 29 27  1  0  0  0
 11  9  2  0  0  0
 23 21  2  0  0  0
 13 21  1  0  0  0
 13 14  1  0  0  0
 15  9  1  0  0  0
 15 14  2  0  0  0
 21 22  1  0  0  0
 27 26  1  0  0  0
 27 31  1  0  0  0
 26 25  2  0  0  0
 26  3  1  0  0  0
  9 10  1  0  0  0
 14 18  1  0  0  0
  2  3  2  0  0  0
  2  1  1  0  0  0
 31 30  1  0  0  0
  3  4  1  0  0  0
 10  1  1  0  0  0
  1  6  2  0  0  0
  4  5  2  0  0  0
  6  5  1  0  0  0
  6  7  1  0  0  0
 19 20  1  0  0  0
 10 12  1  0  0  0
  7  8  1  0  0  0
M  END
> <minimizedAffinity>
-6.47017

$$$$
5D25_56M_A_201


 31 32  0  0  0  0  0  0  0  0999 V2000
    3.9949   57.0824   21.4259 C   0  0  0  0  0  0  0  0  0  0  0  0
    3.1352   55.9765   21.4079 C   0  0  0  0  0  0  0  0  0  0  0  0
    2.5636   55.5395   20.1946 C   0  0  0  0  0  0  0  0  0  0  0  0
    2.8534   56.2300   19.0169 C   0  0  0  0  0  0  0  0  0  0  0  0
    3.6976   57.3362   19.0296 C   0  0  0  0  0  0  0  0  0  0  0  0
    4.2632   57.7499   20.2350 C   0  0  0  0  0  0  0  0  0  0  0  0
    5.1012   58.8207   20.2642 O   0  0  0  0  0  0  0  0  0  0  0  0
    5.4802   59.0971   21.0753 H   0  0  0  0  0  0  0  0  0  0  0  0
    3.9885   58.0821   23.6117 C   0  0  0  0  0  0  0  0  0  0  0  0
    4.5999   57.5745   22.5422 N   0  0  0  0  0  0  0  0  0  0  0  0
    2.7993   58.3634   23.6062 O   0  0  0  0  0  0  0  0  0  0  0  0
    5.5840   57.5531   22.5608 H   0  0  0  0  0  0  0  0  0  0  0  0
    5.5648   59.3532   26.7363 C   0  0  0  0  0  0  0  0  0  0  0  0
    4.7231   59.6303   25.6688 C   0  0  0  0  0  0  0  0  0  0  0  0
    4.7340   58.3583   24.8744 C   0  0  0  0  0  0  0  0  0  0  0  0
    6.0641   57.9705   26.5886 C   0  0  0  0  0  0  0  0  0  0  0  0
    7.0056   57.2102   27.4907 C   0  0  0  0  0  0  0  0  0  0  0  0
    3.9791   60.9161   25.3848 C   0  0  0  0  0  0  0  0  0  0  0  0
    5.5239   57.4626   25.4717 N   0  0  0  0  0  0  0  0  0  0  0  0
    5.6876   56.5514   25.1368 H   0  0  0  0  0  0  0  0  0  0  0  0
    5.9817   60.2517   27.8603 C   0  0  0  0  0  0  0  0  0  0  0  0
    5.3585   60.0135   29.2027 C   0  0  0  0  0  0  0  0  0  0  0  0
    6.7764   61.1707   27.6719 O   0  0  0  0  0  0  0  0  0  0  0  0
    0.7004   54.4441   18.9892 O   0  0  0  0  0  0  0  0  0  0  0  0
    0.8222   54.1653   21.3205 O   0  0  0  0  0  0  0  0  0  0  0  0
    1.5863   54.2521   20.1036 S   0  0  0  0  0  0  0  0  0  0  0  0
    2.3843   52.9523   19.9416 N   0  0  0  0  0  0  0  0  0  0  0  0
    0.8774   51.1359   19.4403 C   0  0  0  0  0  0  0  0  0  0  0  0
    2.0192   51.9768   18.9155 C   0  0  0  0  0  0  0  0  0  0  0  0
    4.2134   51.4151   20.4233 C   0  0  0  0  0  0  0  0  0  0  0  0
    3.5097   52.6793   20.8359 C   0  0  0  0  0  0  0  0  0  0  0  0
 17 16  1  0  0  0
 28 29  1  0  0  0
 24 26  2  0  0  0
 16 19  1  0  0  0
 16 13  2  0  0  0
 19 15  1  0  0  0
 29 27  1  0  0  0
 11  9  2  0  0  0
 23 21  2  0  0  0
 13 21  1  0  0  0
 13 14  1  0  0  0
 15  9  1  0  0  0
 15 14  2  0  0  0
 21 22  1  0  0  0
 27 26  1  0  0  0
 27 31  1  0  0  0
 26 25  2  0  0  0
 26  3  1  0  0  0
  9 10  1  0  0  0
 14 18  1  0  0  0
  2  3  2  0  0  0
  2  1  1  0  0  0
 31 30  1  0  0  0
  3  4  1  0  0  0
 10  1  1  0  0  0
  1  6  2  0  0  0
  4  5  2  0  0  0
  6  5  1  0  0  0
  6  7  1  0  0  0
 19 20  1  0  0  0
 10 12  1  0  0  0
  7  8  1  0  0  0
M  END
> <minimizedAffinity>
-6.44285

$$$$
5D25_56M_A_201


 31 32  0  0  0  0  0  0  0  0999 V2000
    5.2895   59.0266   24.9849 C   0  0  0  0  0  0  0  0  0  0  0  0
    4.6850   60.2419   25.3314 C   0  0  0  0  0  0  0  0  0  0  0  0
    5.0367   60.8947   26.5314 C   0  0  0  0  0  0  0  0  0  0  0  0
    5.9822   60.3089   27.3742 C   0  0  0  0  0  0  0  0  0  0  0  0
    6.5783   59.0963   27.0414 C   0  0  0  0  0  0  0  0  0  0  0  0
    6.2279   58.4680   25.8470 C   0  0  0  0  0  0  0  0  0  0  0  0
    6.8101   57.2892   25.4990 O   0  0  0  0  0  0  0  0  0  0  0  0
    6.5732   56.8687   24.6959 H   0  0  0  0  0  0  0  0  0  0  0  0
    3.9450   57.5774   23.6175 C   0  0  0  0  0  0  0  0  0  0  0  0
    5.0230   58.3259   23.8481 N   0  0  0  0  0  0  0  0  0  0  0  0
    3.1714   57.2625   24.5096 O   0  0  0  0  0  0  0  0  0  0  0  0
    5.6913   58.3772   23.1270 H   0  0  0  0  0  0  0  0  0  0  0  0
    2.7914   55.8645   20.5194 C   0  0  0  0  0  0  0  0  0  0  0  0
    2.7310   55.9163   21.9045 C   0  0  0  0  0  0  0  0  0  0  0  0
    3.6358   57.0605   22.2524 C   0  0  0  0  0  0  0  0  0  0  0  0
    3.6985   56.9334   20.0529 C   0  0  0  0  0  0  0  0  0  0  0  0
    4.0901   57.2820   18.6375 C   0  0  0  0  0  0  0  0  0  0  0  0
    1.9379   55.0224   22.8315 C   0  0  0  0  0  0  0  0  0  0  0  0
    4.1453   57.5857   21.1355 N   0  0  0  0  0  0  0  0  0  0  0  0
    4.7660   58.3496   21.1105 H   0  0  0  0  0  0  0  0  0  0  0  0
    2.1220   54.9025   19.5863 C   0  0  0  0  0  0  0  0  0  0  0  0
    1.1405   55.4640   18.6022 C   0  0  0  0  0  0  0  0  0  0  0  0
    2.3462   53.6957   19.6567 O   0  0  0  0  0  0  0  0  0  0  0  0
    5.3582   63.3430   26.6946 O   0  0  0  0  0  0  0  0  0  0  0  0
    4.1214   62.2770   28.3861 O   0  0  0  0  0  0  0  0  0  0  0  0
    4.3955   62.3140   26.9735 S   0  0  0  0  0  0  0  0  0  0  0  0
    3.0803   62.5900   26.2342 N   0  0  0  0  0  0  0  0  0  0  0  0
    1.1581   61.3837   25.4146 C   0  0  0  0  0  0  0  0  0  0  0  0
    1.8413   61.9323   26.6469 C   0  0  0  0  0  0  0  0  0  0  0  0
    2.4220   64.8094   25.4718 C   0  0  0  0  0  0  0  0  0  0  0  0
    3.0713   63.5060   25.0934 C   0  0  0  0  0  0  0  0  0  0  0  0
 17 16  1  0  0  0
 28 29  1  0  0  0
 24 26  2  0  0  0
 16 19  1  0  0  0
 16 13  2  0  0  0
 19 15  1  0  0  0
 29 27  1  0  0  0
 11  9  2  0  0  0
 23 21  2  0  0  0
 13 21  1  0  0  0
 13 14  1  0  0  0
 15  9  1  0  0  0
 15 14  2  0  0  0
 21 22  1  0  0  0
 27 26  1  0  0  0
 27 31  1  0  0  0
 26 25  2  0  0  0
 26  3  1  0  0  0
  9 10  1  0  0  0
 14 18  1  0  0  0
  2  3  2  0  0  0
  2  1  1  0  0  0
 31 30  1  0  0  0
  3  4  1  0  0  0
 10  1  1  0  0  0
  1  6  2  0  0  0
  4  5  2  0  0  0
  6  5  1  0  0  0
  6  7  1  0  0  0
 19 20  1  0  0  0
 10 12  1  0  0  0
  7  8  1  0  0  0
M  END
> <minimizedAffinity>
-6.43608

$$$$
