3MFV_Z70_A_0


 19 19  0  0  0  0  0  0  0  0999 V2000
  -19.2665   15.1010   -5.0739 C   0  0  0  0  0  0  0  0  0  0  0  0
  -19.6184   13.6637   -5.4420 C   0  0  0  0  0  0  0  0  0  0  0  0
  -20.4749   11.6757   -5.5850 C   0  0  0  0  0  0  0  0  0  0  0  0
  -18.9130   12.9911   -6.5503 C   0  0  0  0  0  0  0  0  0  0  0  0
  -20.5595   12.8261   -4.8834 N   0  0  0  0  0  0  0  0  0  0  0  0
  -19.5041   11.7306   -6.5901 N   0  0  0  0  0  0  0  0  0  0  0  0
  -21.2662   10.5683   -5.3367 N   0  0  0  0  0  0  0  0  0  0  0  0
  -21.1646   13.0244   -4.1326 H   0  0  0  0  0  0  0  0  0  0  0  0
  -21.1600    9.7552   -5.8816 H   0  0  0  0  0  0  0  0  0  0  0  0
  -21.9354   10.5933   -4.6150 H   0  0  0  0  0  0  0  0  0  0  0  0
  -20.1891   16.1380   -5.7122 C   0  0  0  0  0  0  0  0  0  0  0  0
  -21.2092   16.7735   -4.7344 C   0  0  0  0  0  0  0  0  0  0  0  0
  -21.1762   15.9778   -3.5554 N   0  0  0  0  0  0  0  0  0  0  0  0
  -21.4591   15.0241   -3.7809 H   0  0  0  0  0  0  0  0  0  0  0  0
  -21.8165   16.3679   -2.8639 H   0  0  0  0  0  0  0  0  0  0  0  0
  -22.6652   16.8295   -5.2506 C   0  0  0  0  0  0  0  0  0  0  0  0
  -23.0253   16.1595   -6.2959 O   0  0  0  0  0  0  0  0  0  0  0  0
  -23.5353   17.5528   -4.6471 O   0  0  0  0  0  0  0  0  0  0  0  0
  -22.4017   15.6263   -6.7483 H   0  0  0  0  0  0  0  0  0  0  0  0
 16 12  1  0  0  0
 11 12  1  0  0  0
 12 13  1  0  0  0
 18 16  2  0  0  0
 16 17  1  0  0  0
  4  2  2  0  0  0
  2  1  1  0  0  0
  2  5  1  0  0  0
  6  3  2  0  0  0
  3  7  1  0  0  0
  3  5  1  0  0  0
  6  4  1  0  0  0
  1 11  1  0  0  0
 13 14  1  0  0  0
 13 15  1  0  0  0
  5  8  1  0  0  0
  7  9  1  0  0  0
  7 10  1  0  0  0
 17 19  1  0  0  0
M  END
> <minimizedAffinity>
-7.53014

$$$$
3MFV_Z70_A_0


 19 19  0  0  0  0  0  0  0  0999 V2000
  -20.0185   14.9151   -5.7191 C   0  0  0  0  0  0  0  0  0  0  0  0
  -20.0958   13.3943   -5.7972 C   0  0  0  0  0  0  0  0  0  0  0  0
  -20.6472   11.3024   -5.6350 C   0  0  0  0  0  0  0  0  0  0  0  0
  -19.0681   12.6396   -6.5405 C   0  0  0  0  0  0  0  0  0  0  0  0
  -21.0363   12.5405   -5.2627 N   0  0  0  0  0  0  0  0  0  0  0  0
  -19.4762   11.3154   -6.3994 N   0  0  0  0  0  0  0  0  0  0  0  0
  -21.3361   10.1506   -5.2989 N   0  0  0  0  0  0  0  0  0  0  0  0
  -21.8242   12.7819   -4.7240 H   0  0  0  0  0  0  0  0  0  0  0  0
  -21.0045    9.2735   -5.5989 H   0  0  0  0  0  0  0  0  0  0  0  0
  -22.1578   10.2081   -4.7597 H   0  0  0  0  0  0  0  0  0  0  0  0
  -18.7708   15.4270   -5.0014 C   0  0  0  0  0  0  0  0  0  0  0  0
  -19.0483   16.0771   -3.6226 C   0  0  0  0  0  0  0  0  0  0  0  0
  -17.8486   15.9376   -2.8705 N   0  0  0  0  0  0  0  0  0  0  0  0
  -17.6356   14.9474   -2.7508 H   0  0  0  0  0  0  0  0  0  0  0  0
  -17.9684   16.3727   -1.9557 H   0  0  0  0  0  0  0  0  0  0  0  0
  -20.2089   15.4447   -2.8211 C   0  0  0  0  0  0  0  0  0  0  0  0
  -21.3966   15.9536   -2.8588 O   0  0  0  0  0  0  0  0  0  0  0  0
  -20.0018   14.4055   -2.0988 O   0  0  0  0  0  0  0  0  0  0  0  0
  -21.5646   16.7128   -3.3817 H   0  0  0  0  0  0  0  0  0  0  0  0
 16 12  1  0  0  0
 11 12  1  0  0  0
 12 13  1  0  0  0
 18 16  2  0  0  0
 16 17  1  0  0  0
  4  2  2  0  0  0
  2  1  1  0  0  0
  2  5  1  0  0  0
  6  3  2  0  0  0
  3  7  1  0  0  0
  3  5  1  0  0  0
  6  4  1  0  0  0
  1 11  1  0  0  0
 13 14  1  0  0  0
 13 15  1  0  0  0
  5  8  1  0  0  0
  7  9  1  0  0  0
  7 10  1  0  0  0
 17 19  1  0  0  0
M  END
> <minimizedAffinity>
-7.16101

$$$$
3MFV_Z70_A_0


 19 19  0  0  0  0  0  0  0  0999 V2000
  -20.5867   14.7246   -5.6374 C   0  0  0  0  0  0  0  0  0  0  0  0
  -20.4001   13.2139   -5.7262 C   0  0  0  0  0  0  0  0  0  0  0  0
  -20.5793   11.0572   -5.5748 C   0  0  0  0  0  0  0  0  0  0  0  0
  -19.2645   12.6530   -6.4839 C   0  0  0  0  0  0  0  0  0  0  0  0
  -21.1733   12.2069   -5.1900 N   0  0  0  0  0  0  0  0  0  0  0  0
  -19.4358   11.2774   -6.3491 N   0  0  0  0  0  0  0  0  0  0  0  0
  -21.0550    9.8015   -5.2414 N   0  0  0  0  0  0  0  0  0  0  0  0
  -21.9858   12.3051   -4.6428 H   0  0  0  0  0  0  0  0  0  0  0  0
  -20.5795    8.9969   -5.5508 H   0  0  0  0  0  0  0  0  0  0  0  0
  -21.8689    9.7126   -4.6947 H   0  0  0  0  0  0  0  0  0  0  0  0
  -19.2889   15.4854   -5.3707 C   0  0  0  0  0  0  0  0  0  0  0  0
  -18.8964   15.5745   -3.8745 C   0  0  0  0  0  0  0  0  0  0  0  0
  -19.9277   16.3202   -3.2384 N   0  0  0  0  0  0  0  0  0  0  0  0
  -19.9696   17.2558   -3.6426 H   0  0  0  0  0  0  0  0  0  0  0  0
  -19.7307   16.3897   -2.2400 H   0  0  0  0  0  0  0  0  0  0  0  0
  -17.5427   16.2650   -3.5916 C   0  0  0  0  0  0  0  0  0  0  0  0
  -17.2961   16.7957   -2.4390 O   0  0  0  0  0  0  0  0  0  0  0  0
  -16.6467   16.3256   -4.5072 O   0  0  0  0  0  0  0  0  0  0  0  0
  -17.9401   16.7601   -1.7594 H   0  0  0  0  0  0  0  0  0  0  0  0
 16 12  1  0  0  0
 11 12  1  0  0  0
 12 13  1  0  0  0
 18 16  2  0  0  0
 16 17  1  0  0  0
  4  2  2  0  0  0
  2  1  1  0  0  0
  2  5  1  0  0  0
  6  3  2  0  0  0
  3  7  1  0  0  0
  3  5  1  0  0  0
  6  4  1  0  0  0
  1 11  1  0  0  0
 13 14  1  0  0  0
 13 15  1  0  0  0
  5  8  1  0  0  0
  7  9  1  0  0  0
  7 10  1  0  0  0
 17 19  1  0  0  0
M  END
> <minimizedAffinity>
-7.10511

$$$$
3MFV_Z70_A_0


 19 19  0  0  0  0  0  0  0  0999 V2000
  -19.3253   16.4520   -6.0400 C   0  0  0  0  0  0  0  0  0  0  0  0
  -20.6873   17.0502   -5.7052 C   0  0  0  0  0  0  0  0  0  0  0  0
  -22.7645   17.3980   -5.1851 C   0  0  0  0  0  0  0  0  0  0  0  0
  -20.8538   18.5150   -5.6356 C   0  0  0  0  0  0  0  0  0  0  0  0
  -21.8753   16.4106   -5.4245 N   0  0  0  0  0  0  0  0  0  0  0  0
  -22.1967   18.6708   -5.3006 N   0  0  0  0  0  0  0  0  0  0  0  0
  -24.0895   17.1714   -4.8577 N   0  0  0  0  0  0  0  0  0  0  0  0
  -22.0404   15.4403   -5.4031 H   0  0  0  0  0  0  0  0  0  0  0  0
  -24.6930   17.9317   -4.6936 H   0  0  0  0  0  0  0  0  0  0  0  0
  -24.4289   16.2498   -4.7887 H   0  0  0  0  0  0  0  0  0  0  0  0
  -18.7954   15.5018   -4.9674 C   0  0  0  0  0  0  0  0  0  0  0  0
  -19.1390   15.9213   -3.5161 C   0  0  0  0  0  0  0  0  0  0  0  0
  -17.8944   16.1313   -2.8594 N   0  0  0  0  0  0  0  0  0  0  0  0
  -17.3625   15.2610   -2.8525 H   0  0  0  0  0  0  0  0  0  0  0  0
  -18.0630   16.4344   -1.9002 H   0  0  0  0  0  0  0  0  0  0  0  0
  -19.9532   14.8843   -2.7090 C   0  0  0  0  0  0  0  0  0  0  0  0
  -21.1490   14.5520   -3.0706 O   0  0  0  0  0  0  0  0  0  0  0  0
  -19.4497   14.3450   -1.6601 O   0  0  0  0  0  0  0  0  0  0  0  0
  -21.5314   14.9368   -3.8345 H   0  0  0  0  0  0  0  0  0  0  0  0
 16 12  1  0  0  0
 11 12  1  0  0  0
 12 13  1  0  0  0
 18 16  2  0  0  0
 16 17  1  0  0  0
  4  2  2  0  0  0
  2  1  1  0  0  0
  2  5  1  0  0  0
  6  3  2  0  0  0
  3  7  1  0  0  0
  3  5  1  0  0  0
  6  4  1  0  0  0
  1 11  1  0  0  0
 13 14  1  0  0  0
 13 15  1  0  0  0
  5  8  1  0  0  0
  7  9  1  0  0  0
  7 10  1  0  0  0
 17 19  1  0  0  0
M  END
> <minimizedAffinity>
-6.67724

$$$$
3MFV_Z70_A_0


 19 19  0  0  0  0  0  0  0  0999 V2000
  -18.6191   17.2311   -6.1569 C   0  0  0  0  0  0  0  0  0  0  0  0
  -19.2195   16.1997   -5.2079 C   0  0  0  0  0  0  0  0  0  0  0  0
  -20.2574   15.1579   -3.6130 C   0  0  0  0  0  0  0  0  0  0  0  0
  -19.0399   14.7590   -5.4732 C   0  0  0  0  0  0  0  0  0  0  0  0
  -19.9659   16.3958   -4.0662 N   0  0  0  0  0  0  0  0  0  0  0  0
  -19.7237   14.1507   -4.4233 N   0  0  0  0  0  0  0  0  0  0  0  0
  -21.0056   14.9164   -2.4746 N   0  0  0  0  0  0  0  0  0  0  0  0
  -20.2304   17.2556   -3.6661 H   0  0  0  0  0  0  0  0  0  0  0  0
  -21.1867   13.9910   -2.1917 H   0  0  0  0  0  0  0  0  0  0  0  0
  -21.3568   15.6700   -1.9473 H   0  0  0  0  0  0  0  0  0  0  0  0
  -19.6625   17.9796   -6.9846 C   0  0  0  0  0  0  0  0  0  0  0  0
  -19.9774   19.4084   -6.4749 C   0  0  0  0  0  0  0  0  0  0  0  0
  -18.7912   19.8731   -5.8413 N   0  0  0  0  0  0  0  0  0  0  0  0
  -18.5660   19.2653   -5.0537 H   0  0  0  0  0  0  0  0  0  0  0  0
  -18.9358   20.8253   -5.5055 H   0  0  0  0  0  0  0  0  0  0  0  0
  -21.1444   19.5024   -5.4656 C   0  0  0  0  0  0  0  0  0  0  0  0
  -22.0272   18.5618   -5.3819 O   0  0  0  0  0  0  0  0  0  0  0  0
  -21.2539   20.5260   -4.7008 O   0  0  0  0  0  0  0  0  0  0  0  0
  -21.9616   17.8073   -5.9336 H   0  0  0  0  0  0  0  0  0  0  0  0
 16 12  1  0  0  0
 11 12  1  0  0  0
 12 13  1  0  0  0
 18 16  2  0  0  0
 16 17  1  0  0  0
  4  2  2  0  0  0
  2  1  1  0  0  0
  2  5  1  0  0  0
  6  3  2  0  0  0
  3  7  1  0  0  0
  3  5  1  0  0  0
  6  4  1  0  0  0
  1 11  1  0  0  0
 13 14  1  0  0  0
 13 15  1  0  0  0
  5  8  1  0  0  0
  7  9  1  0  0  0
  7 10  1  0  0  0
 17 19  1  0  0  0
M  END
> <minimizedAffinity>
-6.56327

$$$$
3MFV_Z70_A_0


 19 19  0  0  0  0  0  0  0  0999 V2000
  -20.1832   14.2468   -4.4159 C   0  0  0  0  0  0  0  0  0  0  0  0
  -20.4651   15.6381   -4.9725 C   0  0  0  0  0  0  0  0  0  0  0  0
  -21.2952   17.5809   -5.4654 C   0  0  0  0  0  0  0  0  0  0  0  0
  -19.4954   16.2809   -5.8806 C   0  0  0  0  0  0  0  0  0  0  0  0
  -21.5447   16.4648   -4.7479 N   0  0  0  0  0  0  0  0  0  0  0  0
  -20.0818   17.5135   -6.1574 N   0  0  0  0  0  0  0  0  0  0  0  0
  -22.1465   18.6708   -5.5055 N   0  0  0  0  0  0  0  0  0  0  0  0
  -22.3305   16.2806   -4.1842 H   0  0  0  0  0  0  0  0  0  0  0  0
  -21.9121   19.4588   -6.0472 H   0  0  0  0  0  0  0  0  0  0  0  0
  -22.9866   18.6583   -4.9925 H   0  0  0  0  0  0  0  0  0  0  0  0
  -20.8032   13.1214   -5.2424 C   0  0  0  0  0  0  0  0  0  0  0  0
  -19.8100   12.0024   -5.6448 C   0  0  0  0  0  0  0  0  0  0  0  0
  -19.2808   12.3792   -6.9106 N   0  0  0  0  0  0  0  0  0  0  0  0
  -20.0371   12.4337   -7.5927 H   0  0  0  0  0  0  0  0  0  0  0  0
  -18.5985   11.6844   -7.2143 H   0  0  0  0  0  0  0  0  0  0  0  0
  -20.4276   10.5909   -5.7691 C   0  0  0  0  0  0  0  0  0  0  0  0
  -21.5676   10.3147   -5.2259 O   0  0  0  0  0  0  0  0  0  0  0  0
  -19.8068    9.6703   -6.4109 O   0  0  0  0  0  0  0  0  0  0  0  0
  -22.0340   10.9760   -4.7536 H   0  0  0  0  0  0  0  0  0  0  0  0
 16 12  1  0  0  0
 11 12  1  0  0  0
 12 13  1  0  0  0
 18 16  2  0  0  0
 16 17  1  0  0  0
  4  2  2  0  0  0
  2  1  1  0  0  0
  2  5  1  0  0  0
  6  3  2  0  0  0
  3  7  1  0  0  0
  3  5  1  0  0  0
  6  4  1  0  0  0
  1 11  1  0  0  0
 13 14  1  0  0  0
 13 15  1  0  0  0
  5  8  1  0  0  0
  7  9  1  0  0  0
  7 10  1  0  0  0
 17 19  1  0  0  0
M  END
> <minimizedAffinity>
-6.52571

$$$$
3MFV_Z70_A_0


 19 19  0  0  0  0  0  0  0  0999 V2000
  -20.2312   15.6367   -7.0798 C   0  0  0  0  0  0  0  0  0  0  0  0
  -20.0086   17.1201   -6.8064 C   0  0  0  0  0  0  0  0  0  0  0  0
  -20.1038   19.1689   -6.0992 C   0  0  0  0  0  0  0  0  0  0  0  0
  -18.8817   17.8279   -7.4446 C   0  0  0  0  0  0  0  0  0  0  0  0
  -20.7253   17.9747   -5.9969 N   0  0  0  0  0  0  0  0  0  0  0  0
  -18.9977   19.1262   -6.9539 N   0  0  0  0  0  0  0  0  0  0  0  0
  -20.5162   20.3060   -5.4277 N   0  0  0  0  0  0  0  0  0  0  0  0
  -21.5212   17.7600   -5.4586 H   0  0  0  0  0  0  0  0  0  0  0  0
  -20.0232   21.1506   -5.5410 H   0  0  0  0  0  0  0  0  0  0  0  0
  -21.3027   20.2705   -4.8365 H   0  0  0  0  0  0  0  0  0  0  0  0
  -20.9524   14.9085   -5.9467 C   0  0  0  0  0  0  0  0  0  0  0  0
  -20.0361   14.4951   -4.7678 C   0  0  0  0  0  0  0  0  0  0  0  0
  -20.2180   13.0943   -4.5973 N   0  0  0  0  0  0  0  0  0  0  0  0
  -21.1923   12.9040   -4.3630 H   0  0  0  0  0  0  0  0  0  0  0  0
  -19.6160   12.7625   -3.8437 H   0  0  0  0  0  0  0  0  0  0  0  0
  -20.3379   15.1983   -3.4247 C   0  0  0  0  0  0  0  0  0  0  0  0
  -20.4901   14.5159   -2.3374 O   0  0  0  0  0  0  0  0  0  0  0  0
  -20.4489   16.4750   -3.3767 O   0  0  0  0  0  0  0  0  0  0  0  0
  -20.4122   13.5823   -2.3554 H   0  0  0  0  0  0  0  0  0  0  0  0
 16 12  1  0  0  0
 11 12  1  0  0  0
 12 13  1  0  0  0
 18 16  2  0  0  0
 16 17  1  0  0  0
  4  2  2  0  0  0
  2  1  1  0  0  0
  2  5  1  0  0  0
  6  3  2  0  0  0
  3  7  1  0  0  0
  3  5  1  0  0  0
  6  4  1  0  0  0
  1 11  1  0  0  0
 13 14  1  0  0  0
 13 15  1  0  0  0
  5  8  1  0  0  0
  7  9  1  0  0  0
  7 10  1  0  0  0
 17 19  1  0  0  0
M  END
> <minimizedAffinity>
-6.30269

$$$$
3MFV_Z70_A_0


 19 19  0  0  0  0  0  0  0  0999 V2000
  -20.4157   14.7509   -5.4713 C   0  0  0  0  0  0  0  0  0  0  0  0
  -20.3576   13.2359   -5.6342 C   0  0  0  0  0  0  0  0  0  0  0  0
  -20.7274   11.0985   -5.6018 C   0  0  0  0  0  0  0  0  0  0  0  0
  -19.2504   12.6159   -6.3878 C   0  0  0  0  0  0  0  0  0  0  0  0
  -21.2321   12.2754   -5.1739 N   0  0  0  0  0  0  0  0  0  0  0  0
  -19.5442   11.2557   -6.3307 N   0  0  0  0  0  0  0  0  0  0  0  0
  -21.3205    9.8745   -5.3487 N   0  0  0  0  0  0  0  0  0  0  0  0
  -22.0507   12.4172   -4.6457 H   0  0  0  0  0  0  0  0  0  0  0  0
  -20.9064    9.0476   -5.6864 H   0  0  0  0  0  0  0  0  0  0  0  0
  -22.1566    9.8303   -4.8308 H   0  0  0  0  0  0  0  0  0  0  0  0
  -19.3314   15.4910   -6.2527 C   0  0  0  0  0  0  0  0  0  0  0  0
  -18.9062   16.8445   -5.6299 C   0  0  0  0  0  0  0  0  0  0  0  0
  -18.8237   16.6261   -4.2264 N   0  0  0  0  0  0  0  0  0  0  0  0
  -19.7397   16.3526   -3.8705 H   0  0  0  0  0  0  0  0  0  0  0  0
  -18.5225   17.4848   -3.7658 H   0  0  0  0  0  0  0  0  0  0  0  0
  -19.8765   18.0195   -5.8896 C   0  0  0  0  0  0  0  0  0  0  0  0
  -19.7022   18.8150   -6.8935 O   0  0  0  0  0  0  0  0  0  0  0  0
  -20.8672   18.2232   -5.1011 O   0  0  0  0  0  0  0  0  0  0  0  0
  -18.9833   18.6800   -7.4790 H   0  0  0  0  0  0  0  0  0  0  0  0
 16 12  1  0  0  0
 11 12  1  0  0  0
 12 13  1  0  0  0
 18 16  2  0  0  0
 16 17  1  0  0  0
  4  2  2  0  0  0
  2  1  1  0  0  0
  2  5  1  0  0  0
  6  3  2  0  0  0
  3  7  1  0  0  0
  3  5  1  0  0  0
  6  4  1  0  0  0
  1 11  1  0  0  0
 13 14  1  0  0  0
 13 15  1  0  0  0
  5  8  1  0  0  0
  7  9  1  0  0  0
  7 10  1  0  0  0
 17 19  1  0  0  0
M  END
> <minimizedAffinity>
-6.18673

$$$$
3MFV_Z70_A_0


 19 19  0  0  0  0  0  0  0  0999 V2000
  -20.5336   14.8286   -4.1474 C   0  0  0  0  0  0  0  0  0  0  0  0
  -19.5895   14.2832   -5.2133 C   0  0  0  0  0  0  0  0  0  0  0  0
  -17.9897   13.9559   -6.6415 C   0  0  0  0  0  0  0  0  0  0  0  0
  -19.8305   12.9515   -5.8022 C   0  0  0  0  0  0  0  0  0  0  0  0
  -18.4595   14.8579   -5.7536 N   0  0  0  0  0  0  0  0  0  0  0  0
  -18.7784   12.8026   -6.7026 N   0  0  0  0  0  0  0  0  0  0  0  0
  -16.8509   14.1526   -7.4022 N   0  0  0  0  0  0  0  0  0  0  0  0
  -18.0763   15.7388   -5.5381 H   0  0  0  0  0  0  0  0  0  0  0  0
  -16.5554   13.4584   -8.0347 H   0  0  0  0  0  0  0  0  0  0  0  0
  -16.3360   14.9867   -7.3109 H   0  0  0  0  0  0  0  0  0  0  0  0
  -20.5396   16.3538   -4.0596 C   0  0  0  0  0  0  0  0  0  0  0  0
  -21.1880   17.0612   -5.2761 C   0  0  0  0  0  0  0  0  0  0  0  0
  -20.9245   18.4498   -5.1133 N   0  0  0  0  0  0  0  0  0  0  0  0
  -21.3563   18.7788   -4.2498 H   0  0  0  0  0  0  0  0  0  0  0  0
  -21.3116   18.9643   -5.9045 H   0  0  0  0  0  0  0  0  0  0  0  0
  -22.7147   16.8619   -5.4136 C   0  0  0  0  0  0  0  0  0  0  0  0
  -23.2051   16.1111   -6.3446 O   0  0  0  0  0  0  0  0  0  0  0  0
  -23.5166   17.4503   -4.6040 O   0  0  0  0  0  0  0  0  0  0  0  0
  -22.6329   15.6742   -6.9442 H   0  0  0  0  0  0  0  0  0  0  0  0
 16 12  1  0  0  0
 11 12  1  0  0  0
 12 13  1  0  0  0
 18 16  2  0  0  0
 16 17  1  0  0  0
  4  2  2  0  0  0
  2  1  1  0  0  0
  2  5  1  0  0  0
  6  3  2  0  0  0
  3  7  1  0  0  0
  3  5  1  0  0  0
  6  4  1  0  0  0
  1 11  1  0  0  0
 13 14  1  0  0  0
 13 15  1  0  0  0
  5  8  1  0  0  0
  7  9  1  0  0  0
  7 10  1  0  0  0
 17 19  1  0  0  0
M  END
> <minimizedAffinity>
-6.05570

$$$$
3MFV_Z70_A_0


 19 19  0  0  0  0  0  0  0  0999 V2000
  -19.2914   15.3390   -4.5536 C   0  0  0  0  0  0  0  0  0  0  0  0
  -19.9932   16.6193   -4.9935 C   0  0  0  0  0  0  0  0  0  0  0  0
  -20.5027   18.5970   -5.7251 C   0  0  0  0  0  0  0  0  0  0  0  0
  -21.4658   16.7072   -4.9487 C   0  0  0  0  0  0  0  0  0  0  0  0
  -19.4491   17.7916   -5.4717 N   0  0  0  0  0  0  0  0  0  0  0  0
  -21.7263   17.9891   -5.4268 N   0  0  0  0  0  0  0  0  0  0  0  0
  -20.3812   19.8800   -6.2283 N   0  0  0  0  0  0  0  0  0  0  0  0
  -18.4952   17.9980   -5.6011 H   0  0  0  0  0  0  0  0  0  0  0  0
  -21.1862   20.4222   -6.3936 H   0  0  0  0  0  0  0  0  0  0  0  0
  -19.4899   20.2508   -6.4212 H   0  0  0  0  0  0  0  0  0  0  0  0
  -20.2419   14.1602   -4.3514 C   0  0  0  0  0  0  0  0  0  0  0  0
  -20.6599   13.4447   -5.6606 C   0  0  0  0  0  0  0  0  0  0  0  0
  -21.0200   12.1192   -5.2898 N   0  0  0  0  0  0  0  0  0  0  0  0
  -20.2125   11.6495   -4.8801 H   0  0  0  0  0  0  0  0  0  0  0  0
  -21.3282   11.6068   -6.1162 H   0  0  0  0  0  0  0  0  0  0  0  0
  -19.5628   13.3718   -6.7472 C   0  0  0  0  0  0  0  0  0  0  0  0
  -18.5195   12.6252   -6.5883 O   0  0  0  0  0  0  0  0  0  0  0  0
  -19.6737   14.0625   -7.8220 O   0  0  0  0  0  0  0  0  0  0  0  0
  -18.4233   12.1144   -5.8087 H   0  0  0  0  0  0  0  0  0  0  0  0
 16 12  1  0  0  0
 11 12  1  0  0  0
 12 13  1  0  0  0
 18 16  2  0  0  0
 16 17  1  0  0  0
  4  2  2  0  0  0
  2  1  1  0  0  0
  2  5  1  0  0  0
  6  3  2  0  0  0
  3  7  1  0  0  0
  3  5  1  0  0  0
  6  4  1  0  0  0
  1 11  1  0  0  0
 13 14  1  0  0  0
 13 15  1  0  0  0
  5  8  1  0  0  0
  7  9  1  0  0  0
  7 10  1  0  0  0
 17 19  1  0  0  0
M  END
> <minimizedAffinity>
-6.00143

$$$$
