4CLJ_5P8_A_2402
  RCSB PDB12061712033D
Coordinates from PDB:4CLJ:A:2402 Model:1 without hydrogens
 30 33  0  0  0  0            999 V2000
  -26.4020  -20.0140   59.8440   C 0  0  0  0  0  0  0  0  0  0  0  0
  -34.4190  -18.7630   61.1520   C 0  0  0  0  0  0  0  0  0  0  0  0
  -34.9010  -18.5840   62.4650   C 0  0  0  0  0  0  0  0  0  0  0  0
  -29.9730  -17.3450   60.9060   C 0  0  0  0  0  0  0  0  0  0  0  0
  -33.7080  -16.4310   62.6190   C 0  0  0  0  0  0  0  0  0  0  0  0
  -27.8860  -17.8580   61.8940   C 0  0  0  0  0  0  0  0  0  0  0  0
  -27.8150  -20.2460   59.7130   C 0  0  0  0  0  0  0  0  0  0  0  0
  -28.9010  -18.2500   61.0000   C 0  0  0  0  0  0  0  0  0  0  0  0
  -28.9220  -19.5080   60.1950   C 0  0  0  0  0  0  0  0  0  0  0  0
  -33.5690  -17.7760   60.5510   C 0  0  0  0  0  0  0  0  0  0  0  0
  -33.1940  -16.5750   61.2820   C 0  0  0  0  0  0  0  0  0  0  0  0
  -30.0660  -16.1370   61.6330   C 0  0  0  0  0  0  0  0  0  0  0  0
  -34.5440  -17.4250   63.1840   C 0  0  0  0  0  0  0  0  0  0  0  0
  -30.0690  -20.2820   59.7170   C 0  0  0  0  0  0  0  0  0  0  0  0
  -28.9910  -15.8410   62.5050   C 0  0  0  0  0  0  0  0  0  0  0  0
  -33.1100  -18.0620   59.1520   C 0  0  0  0  0  0  0  0  0  0  0  0
  -31.5670  -20.0660   59.8730   C 0  0  0  0  0  0  0  0  0  0  0  0
  -32.2750  -15.4690   60.7050   C 0  0  0  0  0  0  0  0  0  0  0  0
  -33.0120  -14.1260   60.5870   C 0  0  0  0  0  0  0  0  0  0  0  0
  -27.6310  -22.3840   58.3540   C 0  0  0  0  0  0  0  0  0  0  0  0
  -31.8200  -19.3160   57.4560   C 0  0  0  0  0  0  0  0  0  0  0  0
  -25.2690  -19.8160   59.9700   N 0  0  0  0  0  0  0  0  0  0  0  0
  -27.9150  -16.6900   62.6300   N 0  0  0  0  0  0  0  0  0  0  0  0
  -29.6860  -21.3610   59.0280   N 0  0  0  0  0  0  0  0  0  0  0  0
  -28.3490  -21.3210   59.0370   N 0  0  0  0  0  0  0  0  0  0  0  0
  -32.1870  -19.1260   58.8710   N 0  0  0  0  0  0  0  0  0  0  0  0
  -29.0060  -14.6680   63.2680   N 0  0  0  0  0  0  0  0  0  0  0  0
  -33.5930  -17.3130   58.2950   O 0  0  0  0  0  0  0  0  0  0  0  0
  -31.1180  -15.2320   61.5680   O 0  0  0  0  0  0  0  0  0  0  0  0
  -35.0020  -17.2600   64.4230   F 0  0  0  0  0  0  0  0  0  0  0  0
 21 26  1  0  0  0  0
 28 16  2  0  0  0  0
 20 25  1  0  0  0  0
 26 16  1  0  0  0  0
 26 17  1  0  0  0  0
 24 25  1  0  0  0  0
 24 14  2  0  0  0  0
 25  7  1  0  0  0  0
 16 10  1  0  0  0  0
  7  1  1  0  0  0  0
  7  9  2  0  0  0  0
 14 17  1  0  0  0  0
 14  9  1  0  0  0  0
  1 22  3  0  0  0  0
  9  8  1  0  0  0  0
 10  2  2  0  0  0  0
 10 11  1  0  0  0  0
 19 18  1  0  0  0  0
 18 11  1  0  0  0  0
 18 29  1  0  0  0  0
  4  8  2  0  0  0  0
  4 12  1  0  0  0  0
  8  6  1  0  0  0  0
  2  3  1  0  0  0  0
 11  5  2  0  0  0  0
 29 12  1  0  0  0  0
 12 15  2  0  0  0  0
  6 23  2  0  0  0  0
 15 23  1  0  0  0  0
 15 27  1  0  0  0  0
  3 13  2  0  0  0  0
  5 13  1  0  0  0  0
 13 30  1  0  0  0  0
A    1
C23
A    2
C12
A    3
C13
A    4
C6
A    5
C15
A    6
C4
A    7
C19
A    8
C5
A    9
C18
A   10
C11
A   11
C10
A   12
C1
A   13
C14
A   14
C22
A   15
C2
A   16
C27
A   17
C28
A   18
C8
A   19
C9
A   20
C25
A   21
C29
A   22
N24
A   23
N3
A   24
N21
A   25
N20
A   26
N26
A   27
N17
A   28
O30
A   29
O7
A   30
F16
M  END
>  <InstanceId>
4CLJ_5P8_A_2402

>  <ChemCompId>
5P8

>  <PdbId>
4CLJ

>  <ChainId>
A

>  <ResidueNumber>
2402

>  <InsertionCode>


>  <Model>
1

>  <AltIds>


>  <MissingHeavyAtoms>
0

>  <ObservedFormula>
C21 N6 O2 F

>  <Name>
(10R)-7-amino-12-fluoro-2,10,16-trimethyl-15-oxo-10,15,16,17-tetrahydro-2H-8,4-(metheno)pyrazolo[4,3-h][2,5,11]benzoxadiazacyclotetradecine-3-carbonitrile

>  <SystematicName>


>  <Synonyms>


>  <Type>
NON-POLYMER

>  <Formula>
C21 H19 F N6 O2

>  <MolecularWeight>
406.413

>  <ModifiedDate>
2016-10-04

>  <Parent>


>  <OneLetterCode>


>  <SubcomponentList>


>  <AmbiguousFlag>
N

>  <InChI>
InChI=1S/C21H19FN6O2/c1-11-15-7-13(22)4-5-14(15)21(29)27(2)10-16-19(17(8-23)28(3)26-16)12-6-18(30-11)20(24)25-9-12/h4-7,9,11H,10H2,1-3H3,(H2,24,25)/t11-/m1/s1

>  <InChIKey>
IIXWYSCJSQVBQM-LLVKDONJSA-N

>  <SMILES>
C[C@@H]1c2cc(ccc2C(=O)N(Cc3c(c(n(n3)C)C#N)-c4cc(c(nc4)N)O1)C)F

$$$$
