3GKZ_B40_A_500


 12 12  0  0  0  0  0  0  0  0999 V2000
   -3.3124   -3.9586   16.9658 C   0  0  0  0  0  0  0  0  0  0  0  0
   -4.2205   -5.1570   17.1847 C   0  0  0  0  0  0  0  0  0  0  0  0
   -3.6984   -6.3627   17.7053 C   0  0  0  0  0  0  0  0  0  0  0  0
   -5.5923   -5.0649   16.8812 C   0  0  0  0  0  0  0  0  0  0  0  0
   -4.5462   -7.4633   17.9129 C   0  0  0  0  0  0  0  0  0  0  0  0
   -6.4436   -6.1701   17.0899 C   0  0  0  0  0  0  0  0  0  0  0  0
   -5.9200   -7.3699   17.6067 C   0  0  0  0  0  0  0  0  0  0  0  0
   -3.0760   -3.6576   15.4631 C   0  0  0  0  0  0  0  0  0  0  0  0
   -1.7877   -4.3359   14.9856 C   0  0  0  0  0  0  0  0  0  0  0  0
   -2.9311   -2.1973   15.2505 N   0  0  0  0  0  0  0  0  0  0  0  0
   -3.9501   -1.4411   16.0082 C   0  0  0  0  0  0  0  0  0  0  0  0
   -2.0036   -1.9068   15.5598 H   0  0  0  0  0  0  0  0  0  0  0  0
 10 11  1  0  0  0
 10  8  1  0  0  0
  9  8  1  0  0  0
  8  1  1  0  0  0
  1  2  1  0  0  0
  4  2  2  0  0  0
  2  3  1  0  0  0
  3  5  2  0  0  0
  4  6  1  0  0  0
  7  5  1  0  0  0
  6  7  2  0  0  0
 10 12  1  0  0  0
M  END
> <minimizedAffinity>
-7.84670

$$$$
3GKZ_B40_A_500


 12 12  0  0  0  0  0  0  0  0999 V2000
   -3.3066   -3.9820   16.9668 C   0  0  0  0  0  0  0  0  0  0  0  0
   -4.2340   -5.1653   17.1867 C   0  0  0  0  0  0  0  0  0  0  0  0
   -5.6084   -5.0633   16.8733 C   0  0  0  0  0  0  0  0  0  0  0  0
   -3.7224   -6.3757   17.6923 C   0  0  0  0  0  0  0  0  0  0  0  0
   -6.4575   -6.1646   17.0713 C   0  0  0  0  0  0  0  0  0  0  0  0
   -4.5750   -7.4817   17.8909 C   0  0  0  0  0  0  0  0  0  0  0  0
   -5.9435   -7.3760   17.5796 C   0  0  0  0  0  0  0  0  0  0  0  0
   -3.0711   -3.6818   15.4638 C   0  0  0  0  0  0  0  0  0  0  0  0
   -1.7625   -4.3272   14.9958 C   0  0  0  0  0  0  0  0  0  0  0  0
   -2.9647   -2.2191   15.2448 N   0  0  0  0  0  0  0  0  0  0  0  0
   -3.9797   -1.4841   16.0283 C   0  0  0  0  0  0  0  0  0  0  0  0
   -2.0359   -1.9073   15.5285 H   0  0  0  0  0  0  0  0  0  0  0  0
 10 11  1  0  0  0
 10  8  1  0  0  0
  9  8  1  0  0  0
  8  1  1  0  0  0
  1  2  1  0  0  0
  4  2  2  0  0  0
  2  3  1  0  0  0
  3  5  2  0  0  0
  4  6  1  0  0  0
  7  5  1  0  0  0
  6  7  2  0  0  0
 10 12  1  0  0  0
M  END
> <minimizedAffinity>
-7.82837

$$$$
3GKZ_B40_A_500


 12 12  0  0  0  0  0  0  0  0999 V2000
   -5.3008   -6.1593   18.0905 C   0  0  0  0  0  0  0  0  0  0  0  0
   -4.3622   -5.3698   17.1936 C   0  0  0  0  0  0  0  0  0  0  0  0
   -2.9942   -5.7151   17.1117 C   0  0  0  0  0  0  0  0  0  0  0  0
   -4.8573   -4.2967   16.4282 C   0  0  0  0  0  0  0  0  0  0  0  0
   -2.1347   -4.9858   16.2735 C   0  0  0  0  0  0  0  0  0  0  0  0
   -3.9942   -3.5645   15.5864 C   0  0  0  0  0  0  0  0  0  0  0  0
   -2.6321   -3.9098   15.5087 C   0  0  0  0  0  0  0  0  0  0  0  0
   -6.6147   -6.5598   17.3710 C   0  0  0  0  0  0  0  0  0  0  0  0
   -7.8103   -5.8637   18.0298 C   0  0  0  0  0  0  0  0  0  0  0  0
   -6.8258   -8.0243   17.4693 N   0  0  0  0  0  0  0  0  0  0  0  0
   -8.0815   -8.4311   16.8046 C   0  0  0  0  0  0  0  0  0  0  0  0
   -6.0435   -8.5035   17.0236 H   0  0  0  0  0  0  0  0  0  0  0  0
 10 11  1  0  0  0
 10  8  1  0  0  0
  9  8  1  0  0  0
  8  1  1  0  0  0
  1  2  1  0  0  0
  4  2  2  0  0  0
  2  3  1  0  0  0
  3  5  2  0  0  0
  4  6  1  0  0  0
  7  5  1  0  0  0
  6  7  2  0  0  0
 10 12  1  0  0  0
M  END
> <minimizedAffinity>
-6.89624

$$$$
3GKZ_B40_A_500


 12 12  0  0  0  0  0  0  0  0999 V2000
   -4.5378   -6.9589   17.7104 C   0  0  0  0  0  0  0  0  0  0  0  0
   -6.0559   -6.9870   17.6527 C   0  0  0  0  0  0  0  0  0  0  0  0
   -6.8071   -5.8642   18.0680 C   0  0  0  0  0  0  0  0  0  0  0  0
   -6.7206   -8.1307   17.1706 C   0  0  0  0  0  0  0  0  0  0  0  0
   -8.2099   -5.8949   18.0034 C   0  0  0  0  0  0  0  0  0  0  0  0
   -8.1293   -8.1614   17.1055 C   0  0  0  0  0  0  0  0  0  0  0  0
   -8.8743   -7.0423   17.5218 C   0  0  0  0  0  0  0  0  0  0  0  0
   -3.9722   -5.5177   17.7969 C   0  0  0  0  0  0  0  0  0  0  0  0
   -4.1945   -4.7833   16.4705 C   0  0  0  0  0  0  0  0  0  0  0  0
   -2.5136   -5.5556   18.0609 N   0  0  0  0  0  0  0  0  0  0  0  0
   -1.7553   -4.8904   16.9808 C   0  0  0  0  0  0  0  0  0  0  0  0
   -2.3229   -5.0796   18.9426 H   0  0  0  0  0  0  0  0  0  0  0  0
 10 11  1  0  0  0
 10  8  1  0  0  0
  9  8  1  0  0  0
  8  1  1  0  0  0
  1  2  1  0  0  0
  4  2  2  0  0  0
  2  3  1  0  0  0
  3  5  2  0  0  0
  4  6  1  0  0  0
  7  5  1  0  0  0
  6  7  2  0  0  0
 10 12  1  0  0  0
M  END
> <minimizedAffinity>
-6.78987

$$$$
3GKZ_B40_A_500


 12 12  0  0  0  0  0  0  0  0999 V2000
   -4.5329   -6.9371   17.7111 C   0  0  0  0  0  0  0  0  0  0  0  0
   -6.0503   -6.9746   17.6427 C   0  0  0  0  0  0  0  0  0  0  0  0
   -6.7154   -8.1282   17.1689 C   0  0  0  0  0  0  0  0  0  0  0  0
   -6.8013   -5.8613   18.0655 C   0  0  0  0  0  0  0  0  0  0  0  0
   -8.1188   -8.1581   17.1169 C   0  0  0  0  0  0  0  0  0  0  0  0
   -8.2106   -5.8915   18.0134 C   0  0  0  0  0  0  0  0  0  0  0  0
   -8.8696   -7.0411   17.5393 C   0  0  0  0  0  0  0  0  0  0  0  0
   -3.9763   -5.4920   17.7913 C   0  0  0  0  0  0  0  0  0  0  0  0
   -4.1997   -4.7661   16.4604 C   0  0  0  0  0  0  0  0  0  0  0  0
   -2.5182   -5.5195   18.0592 N   0  0  0  0  0  0  0  0  0  0  0  0
   -1.7577   -4.9007   16.9533 C   0  0  0  0  0  0  0  0  0  0  0  0
   -2.3288   -5.0068   18.9205 H   0  0  0  0  0  0  0  0  0  0  0  0
 10 11  1  0  0  0
 10  8  1  0  0  0
  9  8  1  0  0  0
  8  1  1  0  0  0
  1  2  1  0  0  0
  4  2  2  0  0  0
  2  3  1  0  0  0
  3  5  2  0  0  0
  4  6  1  0  0  0
  7  5  1  0  0  0
  6  7  2  0  0  0
 10 12  1  0  0  0
M  END
> <minimizedAffinity>
-6.78066

$$$$
3GKZ_B40_A_500


 12 12  0  0  0  0  0  0  0  0999 V2000
   -3.0138   -4.3018   17.0210 C   0  0  0  0  0  0  0  0  0  0  0  0
   -4.1172   -5.3283   17.2150 C   0  0  0  0  0  0  0  0  0  0  0  0
   -3.8135   -6.6193   17.7036 C   0  0  0  0  0  0  0  0  0  0  0  0
   -5.4520   -4.9906   16.9207 C   0  0  0  0  0  0  0  0  0  0  0  0
   -4.8404   -7.5597   17.8884 C   0  0  0  0  0  0  0  0  0  0  0  0
   -6.4832   -5.9350   17.1066 C   0  0  0  0  0  0  0  0  0  0  0  0
   -6.1770   -7.2202   17.5914 C   0  0  0  0  0  0  0  0  0  0  0  0
   -1.6027   -4.8880   17.2845 C   0  0  0  0  0  0  0  0  0  0  0  0
   -1.1335   -4.5195   18.6960 C   0  0  0  0  0  0  0  0  0  0  0  0
   -0.6278   -4.3293   16.3170 N   0  0  0  0  0  0  0  0  0  0  0  0
   -1.2402   -4.1436   14.9849 C   0  0  0  0  0  0  0  0  0  0  0  0
   -0.2988   -3.4268   16.6603 H   0  0  0  0  0  0  0  0  0  0  0  0
 10 11  1  0  0  0
 10  8  1  0  0  0
  9  8  1  0  0  0
  8  1  1  0  0  0
  1  2  1  0  0  0
  4  2  2  0  0  0
  2  3  1  0  0  0
  3  5  2  0  0  0
  4  6  1  0  0  0
  7  5  1  0  0  0
  6  7  2  0  0  0
 10 12  1  0  0  0
M  END
> <minimizedAffinity>
-6.73022

$$$$
3GKZ_B40_A_500


 12 12  0  0  0  0  0  0  0  0999 V2000
   -7.5901   -6.8535   17.5291 C   0  0  0  0  0  0  0  0  0  0  0  0
   -6.1313   -6.4388   17.4355 C   0  0  0  0  0  0  0  0  0  0  0  0
   -5.1127   -7.3005   17.9018 C   0  0  0  0  0  0  0  0  0  0  0  0
   -5.7881   -5.1963   16.8691 C   0  0  0  0  0  0  0  0  0  0  0  0
   -3.7660   -6.9134   17.8037 C   0  0  0  0  0  0  0  0  0  0  0  0
   -4.4357   -4.8078   16.7704 C   0  0  0  0  0  0  0  0  0  0  0  0
   -3.4240   -5.6674   17.2376 C   0  0  0  0  0  0  0  0  0  0  0  0
   -7.9764   -7.9147   16.4666 C   0  0  0  0  0  0  0  0  0  0  0  0
   -9.2077   -7.4509   15.6812 C   0  0  0  0  0  0  0  0  0  0  0  0
   -8.3107   -9.2003   17.1256 N   0  0  0  0  0  0  0  0  0  0  0  0
   -9.7621   -9.4725   17.0656 C   0  0  0  0  0  0  0  0  0  0  0  0
   -7.8113   -9.9548   16.6548 H   0  0  0  0  0  0  0  0  0  0  0  0
 10 11  1  0  0  0
 10  8  1  0  0  0
  9  8  1  0  0  0
  8  1  1  0  0  0
  1  2  1  0  0  0
  4  2  2  0  0  0
  2  3  1  0  0  0
  3  5  2  0  0  0
  4  6  1  0  0  0
  7  5  1  0  0  0
  6  7  2  0  0  0
 10 12  1  0  0  0
M  END
> <minimizedAffinity>
-6.71827

$$$$
3GKZ_B40_A_500


 12 12  0  0  0  0  0  0  0  0999 V2000
   -7.6222   -6.7612   17.4580 C   0  0  0  0  0  0  0  0  0  0  0  0
   -6.1474   -6.4016   17.3926 C   0  0  0  0  0  0  0  0  0  0  0  0
   -5.7370   -5.1694   16.8353 C   0  0  0  0  0  0  0  0  0  0  0  0
   -5.1828   -7.2921   17.9015 C   0  0  0  0  0  0  0  0  0  0  0  0
   -4.3722   -4.8405   16.7864 C   0  0  0  0  0  0  0  0  0  0  0  0
   -3.8124   -6.9618   17.8526 C   0  0  0  0  0  0  0  0  0  0  0  0
   -3.4070   -5.7348   17.2951 C   0  0  0  0  0  0  0  0  0  0  0  0
   -8.0147   -7.8529   16.4291 C   0  0  0  0  0  0  0  0  0  0  0  0
   -9.3030   -7.4536   15.7019 C   0  0  0  0  0  0  0  0  0  0  0  0
   -8.2589   -9.1424   17.1194 N   0  0  0  0  0  0  0  0  0  0  0  0
   -9.6844   -9.5262   17.0507 C   0  0  0  0  0  0  0  0  0  0  0  0
   -7.6973   -9.8687   16.6751 H   0  0  0  0  0  0  0  0  0  0  0  0
 10 11  1  0  0  0
 10  8  1  0  0  0
  9  8  1  0  0  0
  8  1  1  0  0  0
  1  2  1  0  0  0
  4  2  2  0  0  0
  2  3  1  0  0  0
  3  5  2  0  0  0
  4  6  1  0  0  0
  7  5  1  0  0  0
  6  7  2  0  0  0
 10 12  1  0  0  0
M  END
> <minimizedAffinity>
-6.70285

$$$$
3GKZ_B40_A_500


 12 12  0  0  0  0  0  0  0  0999 V2000
   -5.9917   -5.1154   16.7227 C   0  0  0  0  0  0  0  0  0  0  0  0
   -4.4869   -4.9151   16.6570 C   0  0  0  0  0  0  0  0  0  0  0  0
   -3.6573   -5.3898   17.6981 C   0  0  0  0  0  0  0  0  0  0  0  0
   -3.9114   -4.2658   15.5481 C   0  0  0  0  0  0  0  0  0  0  0  0
   -2.2662   -5.2083   17.6257 C   0  0  0  0  0  0  0  0  0  0  0  0
   -2.5145   -4.0838   15.4754 C   0  0  0  0  0  0  0  0  0  0  0  0
   -1.6915   -4.5560   16.5147 C   0  0  0  0  0  0  0  0  0  0  0  0
   -6.4176   -6.0479   17.8862 C   0  0  0  0  0  0  0  0  0  0  0  0
   -6.4896   -7.4992   17.3997 C   0  0  0  0  0  0  0  0  0  0  0  0
   -7.7606   -5.6642   18.3839 N   0  0  0  0  0  0  0  0  0  0  0  0
   -8.8178   -6.4940   17.7692 C   0  0  0  0  0  0  0  0  0  0  0  0
   -7.7877   -5.7875   19.3960 H   0  0  0  0  0  0  0  0  0  0  0  0
 10 11  1  0  0  0
 10  8  1  0  0  0
  9  8  1  0  0  0
  8  1  1  0  0  0
  1  2  1  0  0  0
  4  2  2  0  0  0
  2  3  1  0  0  0
  3  5  2  0  0  0
  4  6  1  0  0  0
  7  5  1  0  0  0
  6  7  2  0  0  0
 10 12  1  0  0  0
M  END
> <minimizedAffinity>
-6.17326

$$$$
3GKZ_B40_A_500


 12 12  0  0  0  0  0  0  0  0999 V2000
   -5.4989   -5.2701   16.5996 C   0  0  0  0  0  0  0  0  0  0  0  0
   -4.5466   -4.1732   16.1539 C   0  0  0  0  0  0  0  0  0  0  0  0
   -4.8670   -2.8150   16.3779 C   0  0  0  0  0  0  0  0  0  0  0  0
   -3.3316   -4.5084   15.5264 C   0  0  0  0  0  0  0  0  0  0  0  0
   -3.9774   -1.8072   15.9705 C   0  0  0  0  0  0  0  0  0  0  0  0
   -2.4381   -3.4963   15.1176 C   0  0  0  0  0  0  0  0  0  0  0  0
   -2.7612   -2.1448   15.3405 C   0  0  0  0  0  0  0  0  0  0  0  0
   -4.7933   -6.3649   17.4412 C   0  0  0  0  0  0  0  0  0  0  0  0
   -5.7451   -7.5418   17.6801 C   0  0  0  0  0  0  0  0  0  0  0  0
   -4.3983   -5.8194   18.7622 N   0  0  0  0  0  0  0  0  0  0  0  0
   -2.9373   -5.9110   18.9655 C   0  0  0  0  0  0  0  0  0  0  0  0
   -4.6805   -4.8407   18.8155 H   0  0  0  0  0  0  0  0  0  0  0  0
 10 11  1  0  0  0
 10  8  1  0  0  0
  9  8  1  0  0  0
  8  1  1  0  0  0
  1  2  1  0  0  0
  4  2  2  0  0  0
  2  3  1  0  0  0
  3  5  2  0  0  0
  4  6  1  0  0  0
  7  5  1  0  0  0
  6  7  2  0  0  0
 10 12  1  0  0  0
M  END
> <minimizedAffinity>
-5.68573

$$$$
