3IVG_FG5_B_305


 31 34  0  0  0  0  0  0  0  0999 V2000
    1.0654  -11.3776   38.0359 N   0  0  0  0  0  0  0  0  0  0  0  0
   -0.2308   -9.9134   41.1160 C   0  0  0  0  0  0  0  0  0  0  0  0
    0.4933  -10.7541   40.2916 C   0  0  0  0  0  0  0  0  0  0  0  0
   -1.0543   -8.8982   39.0718 C   0  0  0  0  0  0  0  0  0  0  0  0
   -0.1849   -9.8911   36.9921 C   0  0  0  0  0  0  0  0  0  0  0  0
   -1.0175   -8.9659   40.4790 C   0  0  0  0  0  0  0  0  0  0  0  0
    0.6905  -10.8962   36.8477 C   0  0  0  0  0  0  0  0  0  0  0  0
   -0.3313   -9.7454   38.3154 C   0  0  0  0  0  0  0  0  0  0  0  0
    0.4397  -10.6580   38.9495 C   0  0  0  0  0  0  0  0  0  0  0  0
   -2.2119   -6.9574   40.6353 C   0  0  0  0  0  0  0  0  0  0  0  0
   -1.7336   -8.1434   41.2703 O   0  0  0  0  0  0  0  0  0  0  0  0
    2.0217  -12.4412   38.5290 C   0  0  0  0  0  0  0  0  0  0  0  0
    1.6854  -13.9047   38.3207 C   0  0  0  0  0  0  0  0  0  0  0  0
    2.5300  -14.7245   38.7849 O   0  0  0  0  0  0  0  0  0  0  0  0
    0.6036  -14.1819   37.7606 O   0  0  0  0  0  0  0  0  0  0  0  0
    3.3151  -14.4103   39.1885 H   0  0  0  0  0  0  0  0  0  0  0  0
    1.2448  -11.5085   35.5369 C   0  0  0  0  0  0  0  0  0  0  0  0
    0.5737  -11.0540   34.3098 N   0  0  0  0  0  0  0  0  0  0  0  0
   -0.4022  -10.8441   34.5199 H   0  0  0  0  0  0  0  0  0  0  0  0
    2.8058   -9.5393   34.2090 O   0  0  0  0  0  0  0  0  0  0  0  0
    0.6328   -8.2517   33.9515 O   0  0  0  0  0  0  0  0  0  0  0  0
    1.3719   -9.5708   33.6573 S   0  0  0  0  0  0  0  0  0  0  0  0
    1.9983   -9.1331   27.5053 C   0  0  0  0  0  0  0  0  0  0  0  0
    1.5398  -10.4479   27.5075 C   0  0  0  0  0  0  0  0  0  0  0  0
    2.1275   -8.5071   28.7318 C   0  0  0  0  0  0  0  0  0  0  0  0
    1.2323  -11.0925   28.7024 C   0  0  0  0  0  0  0  0  0  0  0  0
    1.8536   -8.7619   31.1124 C   0  0  0  0  0  0  0  0  0  0  0  0
    1.1330  -10.8079   31.1853 O   0  0  0  0  0  0  0  0  0  0  0  0
    1.4533   -9.7402   31.9041 C   0  0  0  0  0  0  0  0  0  0  0  0
    1.8140   -9.1673   29.8506 C   0  0  0  0  0  0  0  0  0  0  0  0
    1.3705  -10.4309   29.8472 C   0  0  0  0  0  0  0  0  0  0  0  0
 15 13  2  0  0  0
 13 14  1  0  0  0
 13 12  1  0  0  0
  7  1  1  0  0  0
  1 12  1  0  0  0
  1  9  1  0  0  0
 10 11  1  0  0  0
 22 20  2  0  0  0
 22 21  2  0  0  0
 23 24  2  0  0  0
 23 25  1  0  0  0
 24 26  1  0  0  0
  3  2  1  0  0  0
  6  2  2  0  0  0
 25 30  2  0  0  0
 26 31  2  0  0  0
  9  3  2  0  0  0
  8  4  2  0  0  0
  4  6  1  0  0  0
  7  5  2  0  0  0
  5  8  1  0  0  0
 30 27  1  0  0  0
 27 29  2  0  0  0
 18 17  1  0  0  0
 17  7  1  0  0  0
 22 18  1  0  0  0
  6 11  1  0  0  0
 31 28  1  0  0  0
 28 29  1  0  0  0
 29 22  1  0  0  0
 30 31  1  0  0  0
  8  9  1  0  0  0
 14 16  1  0  0  0
 18 19  1  0  0  0
M  END
> <minimizedAffinity>
-10.33882

$$$$
3IVG_FG5_B_305


 31 34  0  0  0  0  0  0  0  0999 V2000
    1.0511   -9.5794   33.4086 N   0  0  0  0  0  0  0  0  0  0  0  0
    1.8674   -8.7208   29.9579 C   0  0  0  0  0  0  0  0  0  0  0  0
    1.5582   -8.5435   31.2934 C   0  0  0  0  0  0  0  0  0  0  0  0
    1.7184  -11.0990   30.4155 C   0  0  0  0  0  0  0  0  0  0  0  0
    1.1603  -11.6789   32.7434 C   0  0  0  0  0  0  0  0  0  0  0  0
    1.9488  -10.0343   29.5214 C   0  0  0  0  0  0  0  0  0  0  0  0
    0.9505  -10.8579   33.7823 C   0  0  0  0  0  0  0  0  0  0  0  0
    1.4161  -10.8697   31.7072 C   0  0  0  0  0  0  0  0  0  0  0  0
    1.3500   -9.5842   32.1223 C   0  0  0  0  0  0  0  0  0  0  0  0
    1.6565  -11.3809   27.6277 C   0  0  0  0  0  0  0  0  0  0  0  0
    2.2436  -10.2221   28.2201 O   0  0  0  0  0  0  0  0  0  0  0  0
    0.9663   -8.2332   34.0938 C   0  0  0  0  0  0  0  0  0  0  0  0
    2.1164   -7.7612   34.9614 C   0  0  0  0  0  0  0  0  0  0  0  0
    3.0205   -8.6204   35.1743 O   0  0  0  0  0  0  0  0  0  0  0  0
    2.1053   -6.5745   35.3519 O   0  0  0  0  0  0  0  0  0  0  0  0
    2.9308   -9.4890   34.8345 H   0  0  0  0  0  0  0  0  0  0  0  0
    0.6128  -11.2280   35.2483 C   0  0  0  0  0  0  0  0  0  0  0  0
    1.7162  -11.0430   36.2028 N   0  0  0  0  0  0  0  0  0  0  0  0
    1.8578  -10.0454   36.3616 H   0  0  0  0  0  0  0  0  0  0  0  0
    2.6790  -12.1572   38.4652 O   0  0  0  0  0  0  0  0  0  0  0  0
    0.4632  -13.1077   37.6696 O   0  0  0  0  0  0  0  0  0  0  0  0
    1.3409  -11.8464   37.7764 S   0  0  0  0  0  0  0  0  0  0  0  0
   -2.0605   -7.3274   40.3142 C   0  0  0  0  0  0  0  0  0  0  0  0
   -1.6391   -7.8813   41.5202 C   0  0  0  0  0  0  0  0  0  0  0  0
   -1.6153   -7.9307   39.1520 C   0  0  0  0  0  0  0  0  0  0  0  0
   -0.8078   -8.9977   41.5387 C   0  0  0  0  0  0  0  0  0  0  0  0
   -0.2702   -9.7146   38.2489 C   0  0  0  0  0  0  0  0  0  0  0  0
    0.4240  -10.6249   40.0929 O   0  0  0  0  0  0  0  0  0  0  0  0
    0.4607  -10.6842   38.7683 C   0  0  0  0  0  0  0  0  0  0  0  0
   -0.8136   -8.9976   39.2228 C   0  0  0  0  0  0  0  0  0  0  0  0
   -0.4086   -9.5248   40.3854 C   0  0  0  0  0  0  0  0  0  0  0  0
 15 13  2  0  0  0
 13 14  1  0  0  0
 13 12  1  0  0  0
  7  1  1  0  0  0
  1 12  1  0  0  0
  1  9  1  0  0  0
 10 11  1  0  0  0
 22 20  2  0  0  0
 22 21  2  0  0  0
 23 24  2  0  0  0
 23 25  1  0  0  0
 24 26  1  0  0  0
  3  2  1  0  0  0
  6  2  2  0  0  0
 25 30  2  0  0  0
 26 31  2  0  0  0
  9  3  2  0  0  0
  8  4  2  0  0  0
  4  6  1  0  0  0
  7  5  2  0  0  0
  5  8  1  0  0  0
 30 27  1  0  0  0
 27 29  2  0  0  0
 18 17  1  0  0  0
 17  7  1  0  0  0
 22 18  1  0  0  0
  6 11  1  0  0  0
 31 28  1  0  0  0
 28 29  1  0  0  0
 29 22  1  0  0  0
 30 31  1  0  0  0
  8  9  1  0  0  0
 14 16  1  0  0  0
 18 19  1  0  0  0
M  END
> <minimizedAffinity>
-10.11990

$$$$
3IVG_FG5_B_305


 31 34  0  0  0  0  0  0  0  0999 V2000
    0.1148  -10.2123   36.5698 N   0  0  0  0  0  0  0  0  0  0  0  0
   -1.4540   -8.3983   39.3193 C   0  0  0  0  0  0  0  0  0  0  0  0
   -1.1601   -8.7732   38.0217 C   0  0  0  0  0  0  0  0  0  0  0  0
    0.1551  -10.0863   39.9897 C   0  0  0  0  0  0  0  0  0  0  0  0
    1.2195  -11.3062   38.1336 C   0  0  0  0  0  0  0  0  0  0  0  0
   -0.7755   -9.0801   40.3180 C   0  0  0  0  0  0  0  0  0  0  0  0
    1.0109  -11.1717   36.8160 C   0  0  0  0  0  0  0  0  0  0  0  0
    0.4068  -10.4095   38.7073 C   0  0  0  0  0  0  0  0  0  0  0  0
   -0.2694   -9.7439   37.7433 C   0  0  0  0  0  0  0  0  0  0  0  0
   -0.6399   -9.6600   42.5830 C   0  0  0  0  0  0  0  0  0  0  0  0
   -1.0475   -8.7208   41.5878 O   0  0  0  0  0  0  0  0  0  0  0  0
   -0.5515   -9.6316   35.3418 C   0  0  0  0  0  0  0  0  0  0  0  0
    0.0310   -8.3935   34.6892 C   0  0  0  0  0  0  0  0  0  0  0  0
    0.0861   -8.4240   33.4255 O   0  0  0  0  0  0  0  0  0  0  0  0
    0.3612   -7.4428   35.4296 O   0  0  0  0  0  0  0  0  0  0  0  0
   -0.1877   -9.1915   32.9630 H   0  0  0  0  0  0  0  0  0  0  0  0
    1.6735  -11.9510   35.6524 C   0  0  0  0  0  0  0  0  0  0  0  0
    1.4426  -11.3818   34.3162 N   0  0  0  0  0  0  0  0  0  0  0  0
    0.6428  -10.7498   34.3551 H   0  0  0  0  0  0  0  0  0  0  0  0
    4.1186  -11.3715   33.9622 O   0  0  0  0  0  0  0  0  0  0  0  0
    3.0962   -9.0927   34.4186 O   0  0  0  0  0  0  0  0  0  0  0  0
    2.8943  -10.4668   33.7523 S   0  0  0  0  0  0  0  0  0  0  0  0
    1.3731  -10.1429   27.7513 C   0  0  0  0  0  0  0  0  0  0  0  0
    2.4741   -9.2949   27.6640 C   0  0  0  0  0  0  0  0  0  0  0  0
    1.0748  -10.6647   28.9969 C   0  0  0  0  0  0  0  0  0  0  0  0
    3.2303   -8.9918   28.7927 C   0  0  0  0  0  0  0  0  0  0  0  0
    1.7363  -10.7358   31.3131 C   0  0  0  0  0  0  0  0  0  0  0  0
    3.4642   -9.4240   31.2450 O   0  0  0  0  0  0  0  0  0  0  0  0
    2.7025  -10.1818   32.0228 C   0  0  0  0  0  0  0  0  0  0  0  0
    1.8351  -10.3475   30.0492 C   0  0  0  0  0  0  0  0  0  0  0  0
    2.8949   -9.5337   29.9594 C   0  0  0  0  0  0  0  0  0  0  0  0
 15 13  2  0  0  0
 13 14  1  0  0  0
 13 12  1  0  0  0
  7  1  1  0  0  0
  1 12  1  0  0  0
  1  9  1  0  0  0
 10 11  1  0  0  0
 22 20  2  0  0  0
 22 21  2  0  0  0
 23 24  2  0  0  0
 23 25  1  0  0  0
 24 26  1  0  0  0
  3  2  1  0  0  0
  6  2  2  0  0  0
 25 30  2  0  0  0
 26 31  2  0  0  0
  9  3  2  0  0  0
  8  4  2  0  0  0
  4  6  1  0  0  0
  7  5  2  0  0  0
  5  8  1  0  0  0
 30 27  1  0  0  0
 27 29  2  0  0  0
 18 17  1  0  0  0
 17  7  1  0  0  0
 22 18  1  0  0  0
  6 11  1  0  0  0
 31 28  1  0  0  0
 28 29  1  0  0  0
 29 22  1  0  0  0
 30 31  1  0  0  0
  8  9  1  0  0  0
 14 16  1  0  0  0
 18 19  1  0  0  0
M  END
> <minimizedAffinity>
-9.53758

$$$$
3IVG_FG5_B_305


 31 34  0  0  0  0  0  0  0  0999 V2000
    0.1731  -10.2027   37.0467 N   0  0  0  0  0  0  0  0  0  0  0  0
   -1.6400   -7.9359   39.2570 C   0  0  0  0  0  0  0  0  0  0  0  0
   -1.1623   -8.4854   38.0821 C   0  0  0  0  0  0  0  0  0  0  0  0
   -0.3943   -9.6878   40.3823 C   0  0  0  0  0  0  0  0  0  0  0  0
    0.8356  -11.2140   38.8909 C   0  0  0  0  0  0  0  0  0  0  0  0
   -1.2413   -8.5624   40.4279 C   0  0  0  0  0  0  0  0  0  0  0  0
    0.8877  -11.2122   37.5512 C   0  0  0  0  0  0  0  0  0  0  0  0
    0.0458  -10.1803   39.2092 C   0  0  0  0  0  0  0  0  0  0  0  0
   -0.3589   -9.5661   38.0742 C   0  0  0  0  0  0  0  0  0  0  0  0
   -2.6059   -6.9448   41.4311 C   0  0  0  0  0  0  0  0  0  0  0  0
   -1.6945   -8.0336   41.5813 O   0  0  0  0  0  0  0  0  0  0  0  0
   -0.1841   -9.7038   35.6638 C   0  0  0  0  0  0  0  0  0  0  0  0
    0.7637   -8.7702   34.9370 C   0  0  0  0  0  0  0  0  0  0  0  0
    0.6933   -7.5544   35.2801 O   0  0  0  0  0  0  0  0  0  0  0  0
    1.5542   -9.2689   34.1080 O   0  0  0  0  0  0  0  0  0  0  0  0
    0.0600   -7.2826   35.9150 H   0  0  0  0  0  0  0  0  0  0  0  0
    1.6523  -12.1830   36.6166 C   0  0  0  0  0  0  0  0  0  0  0  0
    0.9245  -13.4144   36.2751 N   0  0  0  0  0  0  0  0  0  0  0  0
    0.9783  -13.5667   35.2680 H   0  0  0  0  0  0  0  0  0  0  0  0
    1.7633  -15.9745   36.1035 O   0  0  0  0  0  0  0  0  0  0  0  0
    0.8711  -15.2967   38.3819 O   0  0  0  0  0  0  0  0  0  0  0  0
    1.6397  -14.8365   37.1289 S   0  0  0  0  0  0  0  0  0  0  0  0
    7.6270  -13.4516   37.9444 C   0  0  0  0  0  0  0  0  0  0  0  0
    7.2430  -13.1982   39.2586 C   0  0  0  0  0  0  0  0  0  0  0  0
    6.6404  -13.8608   37.0657 C   0  0  0  0  0  0  0  0  0  0  0  0
    5.9174  -13.3512   39.6550 C   0  0  0  0  0  0  0  0  0  0  0  0
    4.2988  -14.3817   36.8365 C   0  0  0  0  0  0  0  0  0  0  0  0
    3.6351  -14.0054   38.8684 O   0  0  0  0  0  0  0  0  0  0  0  0
    3.2604  -14.3804   37.6525 C   0  0  0  0  0  0  0  0  0  0  0  0
    5.3829  -13.9981   37.4965 C   0  0  0  0  0  0  0  0  0  0  0  0
    5.0192  -13.7560   38.7625 C   0  0  0  0  0  0  0  0  0  0  0  0
 15 13  2  0  0  0
 13 14  1  0  0  0
 13 12  1  0  0  0
  7  1  1  0  0  0
  1 12  1  0  0  0
  1  9  1  0  0  0
 10 11  1  0  0  0
 22 20  2  0  0  0
 22 21  2  0  0  0
 23 24  2  0  0  0
 23 25  1  0  0  0
 24 26  1  0  0  0
  3  2  1  0  0  0
  6  2  2  0  0  0
 25 30  2  0  0  0
 26 31  2  0  0  0
  9  3  2  0  0  0
  8  4  2  0  0  0
  4  6  1  0  0  0
  7  5  2  0  0  0
  5  8  1  0  0  0
 30 27  1  0  0  0
 27 29  2  0  0  0
 18 17  1  0  0  0
 17  7  1  0  0  0
 22 18  1  0  0  0
  6 11  1  0  0  0
 31 28  1  0  0  0
 28 29  1  0  0  0
 29 22  1  0  0  0
 30 31  1  0  0  0
  8  9  1  0  0  0
 14 16  1  0  0  0
 18 19  1  0  0  0
M  END
> <minimizedAffinity>
-9.44106

$$$$
3IVG_FG5_B_305


 31 34  0  0  0  0  0  0  0  0999 V2000
    2.7152  -10.6679   33.1971 N   0  0  0  0  0  0  0  0  0  0  0  0
    3.3754   -9.2319   29.9087 C   0  0  0  0  0  0  0  0  0  0  0  0
    3.5836   -9.5819   31.2296 C   0  0  0  0  0  0  0  0  0  0  0  0
    1.2228  -10.3283   30.1359 C   0  0  0  0  0  0  0  0  0  0  0  0
    0.7737  -11.2916   32.3578 C   0  0  0  0  0  0  0  0  0  0  0  0
    2.1635   -9.6221   29.3597 C   0  0  0  0  0  0  0  0  0  0  0  0
    1.5662  -11.3046   33.4392 C   0  0  0  0  0  0  0  0  0  0  0  0
    1.4751  -10.6404   31.4210 C   0  0  0  0  0  0  0  0  0  0  0  0
    2.6652  -10.2629   31.9411 C   0  0  0  0  0  0  0  0  0  0  0  0
    1.5708  -10.3622   27.2182 C   0  0  0  0  0  0  0  0  0  0  0  0
    1.9444   -9.2824   28.0744 O   0  0  0  0  0  0  0  0  0  0  0  0
    3.9876  -10.3844   33.9649 C   0  0  0  0  0  0  0  0  0  0  0  0
    4.8841  -11.5348   34.3786 C   0  0  0  0  0  0  0  0  0  0  0  0
    4.5372  -12.1369   35.4360 O   0  0  0  0  0  0  0  0  0  0  0  0
    5.8471  -11.8217   33.6361 O   0  0  0  0  0  0  0  0  0  0  0  0
    3.7941  -11.8386   35.9227 H   0  0  0  0  0  0  0  0  0  0  0  0
    1.2845  -11.9239   34.8311 C   0  0  0  0  0  0  0  0  0  0  0  0
    1.6226  -11.0599   35.9722 N   0  0  0  0  0  0  0  0  0  0  0  0
    1.0292  -10.2305   35.9515 H   0  0  0  0  0  0  0  0  0  0  0  0
    2.7525  -12.2488   38.1162 O   0  0  0  0  0  0  0  0  0  0  0  0
    0.5018  -13.2043   37.4319 O   0  0  0  0  0  0  0  0  0  0  0  0
    1.3664  -11.9333   37.5324 S   0  0  0  0  0  0  0  0  0  0  0  0
   -1.8898   -7.5584   40.4800 C   0  0  0  0  0  0  0  0  0  0  0  0
   -1.4184   -8.1836   41.6315 C   0  0  0  0  0  0  0  0  0  0  0  0
   -1.5008   -8.0943   39.2658 C   0  0  0  0  0  0  0  0  0  0  0  0
   -0.5941   -9.3021   41.5474 C   0  0  0  0  0  0  0  0  0  0  0  0
   -0.2086   -9.8271   38.2005 C   0  0  0  0  0  0  0  0  0  0  0  0
    0.5616  -10.8464   39.9552 O   0  0  0  0  0  0  0  0  0  0  0  0
    0.5387  -10.8281   38.6290 C   0  0  0  0  0  0  0  0  0  0  0  0
   -0.7034   -9.1663   39.2381 C   0  0  0  0  0  0  0  0  0  0  0  0
   -0.2501   -9.7623   40.3485 C   0  0  0  0  0  0  0  0  0  0  0  0
 15 13  2  0  0  0
 13 14  1  0  0  0
 13 12  1  0  0  0
  7  1  1  0  0  0
  1 12  1  0  0  0
  1  9  1  0  0  0
 10 11  1  0  0  0
 22 20  2  0  0  0
 22 21  2  0  0  0
 23 24  2  0  0  0
 23 25  1  0  0  0
 24 26  1  0  0  0
  3  2  1  0  0  0
  6  2  2  0  0  0
 25 30  2  0  0  0
 26 31  2  0  0  0
  9  3  2  0  0  0
  8  4  2  0  0  0
  4  6  1  0  0  0
  7  5  2  0  0  0
  5  8  1  0  0  0
 30 27  1  0  0  0
 27 29  2  0  0  0
 18 17  1  0  0  0
 17  7  1  0  0  0
 22 18  1  0  0  0
  6 11  1  0  0  0
 31 28  1  0  0  0
 28 29  1  0  0  0
 29 22  1  0  0  0
 30 31  1  0  0  0
  8  9  1  0  0  0
 14 16  1  0  0  0
 18 19  1  0  0  0
M  END
> <minimizedAffinity>
-9.19203

$$$$
3IVG_FG5_B_305


 31 34  0  0  0  0  0  0  0  0999 V2000
    1.0535  -10.7991   37.2785 N   0  0  0  0  0  0  0  0  0  0  0  0
    2.6334  -13.3697   39.3298 C   0  0  0  0  0  0  0  0  0  0  0  0
    2.0502  -12.1613   38.9977 C   0  0  0  0  0  0  0  0  0  0  0  0
    2.3070  -13.9718   37.0020 C   0  0  0  0  0  0  0  0  0  0  0  0
    1.2469  -12.2340   35.6153 C   0  0  0  0  0  0  0  0  0  0  0  0
    2.7569  -14.2891   38.2993 C   0  0  0  0  0  0  0  0  0  0  0  0
    0.8142  -11.0195   35.9830 C   0  0  0  0  0  0  0  0  0  0  0  0
    1.7492  -12.7766   36.7320 C   0  0  0  0  0  0  0  0  0  0  0  0
    1.6254  -11.8929   37.7484 C   0  0  0  0  0  0  0  0  0  0  0  0
    4.6706  -15.6304   38.1454 C   0  0  0  0  0  0  0  0  0  0  0  0
    3.3292  -15.4694   38.6072 O   0  0  0  0  0  0  0  0  0  0  0  0
    0.7793   -9.6843   38.2639 C   0  0  0  0  0  0  0  0  0  0  0  0
   -0.5692   -9.6090   38.9525 C   0  0  0  0  0  0  0  0  0  0  0  0
   -1.5574   -9.4179   38.1858 O   0  0  0  0  0  0  0  0  0  0  0  0
   -0.6046   -9.7832   40.1892 O   0  0  0  0  0  0  0  0  0  0  0  0
   -1.4209   -9.2975   37.2667 H   0  0  0  0  0  0  0  0  0  0  0  0
    0.1356   -9.9346   35.1096 C   0  0  0  0  0  0  0  0  0  0  0  0
    0.1871  -10.1851   33.6613 N   0  0  0  0  0  0  0  0  0  0  0  0
   -0.6736   -9.8457   33.2320 H   0  0  0  0  0  0  0  0  0  0  0  0
    2.8714   -9.9284   33.5367 O   0  0  0  0  0  0  0  0  0  0  0  0
    1.5745   -7.8013   33.0471 O   0  0  0  0  0  0  0  0  0  0  0  0
    1.5965   -9.3359   32.9162 S   0  0  0  0  0  0  0  0  0  0  0  0
    1.8903   -9.6176   26.7303 C   0  0  0  0  0  0  0  0  0  0  0  0
    1.4634  -10.9305   26.9114 C   0  0  0  0  0  0  0  0  0  0  0  0
    2.0688   -8.8489   27.8661 C   0  0  0  0  0  0  0  0  0  0  0  0
    1.2338  -11.4345   28.1885 C   0  0  0  0  0  0  0  0  0  0  0  0
    1.9257   -8.8253   30.2715 C   0  0  0  0  0  0  0  0  0  0  0  0
    1.2577  -10.8604   30.6227 O   0  0  0  0  0  0  0  0  0  0  0  0
    1.5901   -9.7099   31.1930 C   0  0  0  0  0  0  0  0  0  0  0  0
    1.8297   -9.3775   29.0699 C   0  0  0  0  0  0  0  0  0  0  0  0
    1.4161  -10.6401   29.2387 C   0  0  0  0  0  0  0  0  0  0  0  0
 15 13  2  0  0  0
 13 14  1  0  0  0
 13 12  1  0  0  0
  7  1  1  0  0  0
  1 12  1  0  0  0
  1  9  1  0  0  0
 10 11  1  0  0  0
 22 20  2  0  0  0
 22 21  2  0  0  0
 23 24  2  0  0  0
 23 25  1  0  0  0
 24 26  1  0  0  0
  3  2  1  0  0  0
  6  2  2  0  0  0
 25 30  2  0  0  0
 26 31  2  0  0  0
  9  3  2  0  0  0
  8  4  2  0  0  0
  4  6  1  0  0  0
  7  5  2  0  0  0
  5  8  1  0  0  0
 30 27  1  0  0  0
 27 29  2  0  0  0
 18 17  1  0  0  0
 17  7  1  0  0  0
 22 18  1  0  0  0
  6 11  1  0  0  0
 31 28  1  0  0  0
 28 29  1  0  0  0
 29 22  1  0  0  0
 30 31  1  0  0  0
  8  9  1  0  0  0
 14 16  1  0  0  0
 18 19  1  0  0  0
M  END
> <minimizedAffinity>
-9.14858

$$$$
3IVG_FG5_B_305


 31 34  0  0  0  0  0  0  0  0999 V2000
    0.4084  -10.3812   38.1841 N   0  0  0  0  0  0  0  0  0  0  0  0
   -1.8181   -7.7341   39.3448 C   0  0  0  0  0  0  0  0  0  0  0  0
   -1.1069   -8.5294   38.4660 C   0  0  0  0  0  0  0  0  0  0  0  0
   -0.8443   -9.0983   41.0993 C   0  0  0  0  0  0  0  0  0  0  0  0
    0.6644  -10.8809   40.3166 C   0  0  0  0  0  0  0  0  0  0  0  0
   -1.6769   -8.0373   40.6904 C   0  0  0  0  0  0  0  0  0  0  0  0
    0.9966  -11.2024   39.0581 C   0  0  0  0  0  0  0  0  0  0  0  0
   -0.1699   -9.8397   40.2004 C   0  0  0  0  0  0  0  0  0  0  0  0
   -0.3246   -9.5399   38.8906 C   0  0  0  0  0  0  0  0  0  0  0  0
   -3.2569   -6.3300   40.9614 C   0  0  0  0  0  0  0  0  0  0  0  0
   -2.3598   -7.2663   41.5590 O   0  0  0  0  0  0  0  0  0  0  0  0
    0.3517  -10.2511   36.6779 C   0  0  0  0  0  0  0  0  0  0  0  0
    1.2215   -9.2228   35.9822 C   0  0  0  0  0  0  0  0  0  0  0  0
    2.0480   -8.6210   36.7276 O   0  0  0  0  0  0  0  0  0  0  0  0
    1.0899   -9.0850   34.7474 O   0  0  0  0  0  0  0  0  0  0  0  0
    2.0646   -8.7984   37.6476 H   0  0  0  0  0  0  0  0  0  0  0  0
    1.9360  -12.3336   38.5699 C   0  0  0  0  0  0  0  0  0  0  0  0
    1.2514  -13.5545   38.1188 N   0  0  0  0  0  0  0  0  0  0  0  0
    0.6085  -13.3180   37.3630 H   0  0  0  0  0  0  0  0  0  0  0  0
    1.7248  -15.6555   36.4914 O   0  0  0  0  0  0  0  0  0  0  0  0
    3.1064  -15.6260   38.6213 O   0  0  0  0  0  0  0  0  0  0  0  0
    2.4446  -14.7726   37.5229 S   0  0  0  0  0  0  0  0  0  0  0  0
    7.6315  -12.1511   35.3655 C   0  0  0  0  0  0  0  0  0  0  0  0
    6.7752  -11.5439   34.4506 C   0  0  0  0  0  0  0  0  0  0  0  0
    7.0631  -13.0082   36.2902 C   0  0  0  0  0  0  0  0  0  0  0  0
    5.4075  -11.8019   34.4762 C   0  0  0  0  0  0  0  0  0  0  0  0
    4.9998  -13.9817   37.0662 C   0  0  0  0  0  0  0  0  0  0  0  0
    3.6112  -13.0672   35.6710 O   0  0  0  0  0  0  0  0  0  0  0  0
    3.7336  -13.8940   36.7010 C   0  0  0  0  0  0  0  0  0  0  0  0
    5.7435  -13.2188   36.2770 C   0  0  0  0  0  0  0  0  0  0  0  0
    4.9236  -12.6299   35.3969 C   0  0  0  0  0  0  0  0  0  0  0  0
 15 13  2  0  0  0
 13 14  1  0  0  0
 13 12  1  0  0  0
  7  1  1  0  0  0
  1 12  1  0  0  0
  1  9  1  0  0  0
 10 11  1  0  0  0
 22 20  2  0  0  0
 22 21  2  0  0  0
 23 24  2  0  0  0
 23 25  1  0  0  0
 24 26  1  0  0  0
  3  2  1  0  0  0
  6  2  2  0  0  0
 25 30  2  0  0  0
 26 31  2  0  0  0
  9  3  2  0  0  0
  8  4  2  0  0  0
  4  6  1  0  0  0
  7  5  2  0  0  0
  5  8  1  0  0  0
 30 27  1  0  0  0
 27 29  2  0  0  0
 18 17  1  0  0  0
 17  7  1  0  0  0
 22 18  1  0  0  0
  6 11  1  0  0  0
 31 28  1  0  0  0
 28 29  1  0  0  0
 29 22  1  0  0  0
 30 31  1  0  0  0
  8  9  1  0  0  0
 14 16  1  0  0  0
 18 19  1  0  0  0
M  END
> <minimizedAffinity>
-8.91096

$$$$
3IVG_FG5_B_305


 31 34  0  0  0  0  0  0  0  0999 V2000
    1.6889  -10.3022   33.6702 N   0  0  0  0  0  0  0  0  0  0  0  0
    2.2596  -10.6116   30.0800 C   0  0  0  0  0  0  0  0  0  0  0  0
    2.1935  -10.9740   31.4122 C   0  0  0  0  0  0  0  0  0  0  0  0
    1.5061   -8.4251   30.8143 C   0  0  0  0  0  0  0  0  0  0  0  0
    1.1275   -8.2138   33.2388 C   0  0  0  0  0  0  0  0  0  0  0  0
    1.9027   -9.3043   29.7867 C   0  0  0  0  0  0  0  0  0  0  0  0
    1.2640   -9.1479   34.1909 C   0  0  0  0  0  0  0  0  0  0  0  0
    1.4633   -8.8293   32.0977 C   0  0  0  0  0  0  0  0  0  0  0  0
    1.8040  -10.1099   32.3687 C   0  0  0  0  0  0  0  0  0  0  0  0
    1.6482   -9.9620   27.5534 C   0  0  0  0  0  0  0  0  0  0  0  0
    1.9683   -8.9352   28.4925 O   0  0  0  0  0  0  0  0  0  0  0  0
    1.9845  -11.6909   34.1928 C   0  0  0  0  0  0  0  0  0  0  0  0
    0.9169  -12.7641   34.1117 C   0  0  0  0  0  0  0  0  0  0  0  0
   -0.1489  -12.4225   33.5215 O   0  0  0  0  0  0  0  0  0  0  0  0
    1.1832  -13.8904   34.5823 O   0  0  0  0  0  0  0  0  0  0  0  0
   -0.2486  -11.5464   33.2043 H   0  0  0  0  0  0  0  0  0  0  0  0
    1.0116   -9.0138   35.7137 C   0  0  0  0  0  0  0  0  0  0  0  0
   -0.4020   -9.0774   36.1142 N   0  0  0  0  0  0  0  0  0  0  0  0
   -0.8986   -9.7131   35.4900 H   0  0  0  0  0  0  0  0  0  0  0  0
   -2.0103  -10.1363   38.0060 O   0  0  0  0  0  0  0  0  0  0  0  0
   -0.1488   -8.6574   38.8971 O   0  0  0  0  0  0  0  0  0  0  0  0
   -0.5583   -9.6719   37.8127 S   0  0  0  0  0  0  0  0  0  0  0  0
    3.8741  -13.8821   38.8422 C   0  0  0  0  0  0  0  0  0  0  0  0
    2.9650  -14.7702   38.2734 C   0  0  0  0  0  0  0  0  0  0  0  0
    3.4823  -12.5601   38.9509 C   0  0  0  0  0  0  0  0  0  0  0  0
    1.7168  -14.3313   37.8406 C   0  0  0  0  0  0  0  0  0  0  0  0
    1.7084  -10.9888   38.5139 C   0  0  0  0  0  0  0  0  0  0  0  0
    0.2471  -12.3199   37.6173 O   0  0  0  0  0  0  0  0  0  0  0  0
    0.5013  -11.0709   37.9843 C   0  0  0  0  0  0  0  0  0  0  0  0
    2.2752  -12.1874   38.5154 C   0  0  0  0  0  0  0  0  0  0  0  0
    1.4054  -13.0450   37.9661 C   0  0  0  0  0  0  0  0  0  0  0  0
 15 13  2  0  0  0
 13 14  1  0  0  0
 13 12  1  0  0  0
  7  1  1  0  0  0
  1 12  1  0  0  0
  1  9  1  0  0  0
 10 11  1  0  0  0
 22 20  2  0  0  0
 22 21  2  0  0  0
 23 24  2  0  0  0
 23 25  1  0  0  0
 24 26  1  0  0  0
  3  2  1  0  0  0
  6  2  2  0  0  0
 25 30  2  0  0  0
 26 31  2  0  0  0
  9  3  2  0  0  0
  8  4  2  0  0  0
  4  6  1  0  0  0
  7  5  2  0  0  0
  5  8  1  0  0  0
 30 27  1  0  0  0
 27 29  2  0  0  0
 18 17  1  0  0  0
 17  7  1  0  0  0
 22 18  1  0  0  0
  6 11  1  0  0  0
 31 28  1  0  0  0
 28 29  1  0  0  0
 29 22  1  0  0  0
 30 31  1  0  0  0
  8  9  1  0  0  0
 14 16  1  0  0  0
 18 19  1  0  0  0
M  END
> <minimizedAffinity>
-8.53971

$$$$
3IVG_FG5_B_305


 31 34  0  0  0  0  0  0  0  0999 V2000
    2.0291  -10.6723   32.4592 N   0  0  0  0  0  0  0  0  0  0  0  0
    1.5703  -11.1352   28.8694 C   0  0  0  0  0  0  0  0  0  0  0  0
    1.6714  -11.4575   30.2098 C   0  0  0  0  0  0  0  0  0  0  0  0
    1.9817   -8.8471   29.5644 C   0  0  0  0  0  0  0  0  0  0  0  0
    2.2986   -8.5353   31.9870 C   0  0  0  0  0  0  0  0  0  0  0  0
    1.7288   -9.7948   28.5524 C   0  0  0  0  0  0  0  0  0  0  0  0
    2.2534   -9.4550   32.9614 C   0  0  0  0  0  0  0  0  0  0  0  0
    2.0747   -9.2164   30.8557 C   0  0  0  0  0  0  0  0  0  0  0  0
    1.9080  -10.5254   31.1524 C   0  0  0  0  0  0  0  0  0  0  0  0
    1.3469  -10.5538   26.3699 C   0  0  0  0  0  0  0  0  0  0  0  0
    1.6387   -9.4669   27.2486 O   0  0  0  0  0  0  0  0  0  0  0  0
    1.8364  -12.0644   33.0193 C   0  0  0  0  0  0  0  0  0  0  0  0
    0.4714  -12.4840   33.5282 C   0  0  0  0  0  0  0  0  0  0  0  0
   -0.4393  -11.6133   33.4129 O   0  0  0  0  0  0  0  0  0  0  0  0
    0.3439  -13.6459   33.9696 O   0  0  0  0  0  0  0  0  0  0  0  0
   -0.2366  -10.7662   33.0676 H   0  0  0  0  0  0  0  0  0  0  0  0
    2.4401   -9.2517   34.4859 C   0  0  0  0  0  0  0  0  0  0  0  0
    1.4317   -9.9148   35.3263 N   0  0  0  0  0  0  0  0  0  0  0  0
    1.8577  -10.1792   36.2146 H   0  0  0  0  0  0  0  0  0  0  0  0
   -1.1855   -9.3945   34.9185 O   0  0  0  0  0  0  0  0  0  0  0  0
    0.2701   -7.3402   35.2465 O   0  0  0  0  0  0  0  0  0  0  0  0
    0.0378   -8.8105   35.6426 S   0  0  0  0  0  0  0  0  0  0  0  0
   -0.4702   -9.8131   41.7391 C   0  0  0  0  0  0  0  0  0  0  0  0
   -1.2517   -8.6608   41.7198 C   0  0  0  0  0  0  0  0  0  0  0  0
    0.0604  -10.2369   40.5342 C   0  0  0  0  0  0  0  0  0  0  0  0
   -1.4770   -7.9735   40.5304 C   0  0  0  0  0  0  0  0  0  0  0  0
    0.2045   -9.7745   38.1736 C   0  0  0  0  0  0  0  0  0  0  0  0
   -1.0047   -7.9748   38.0744 O   0  0  0  0  0  0  0  0  0  0  0  0
   -0.2767   -8.8372   37.3774 C   0  0  0  0  0  0  0  0  0  0  0  0
   -0.1898   -9.5452   39.4186 C   0  0  0  0  0  0  0  0  0  0  0  0
   -0.9447   -8.4390   39.4047 C   0  0  0  0  0  0  0  0  0  0  0  0
 15 13  2  0  0  0
 13 14  1  0  0  0
 13 12  1  0  0  0
  7  1  1  0  0  0
  1 12  1  0  0  0
  1  9  1  0  0  0
 10 11  1  0  0  0
 22 20  2  0  0  0
 22 21  2  0  0  0
 23 24  2  0  0  0
 23 25  1  0  0  0
 24 26  1  0  0  0
  3  2  1  0  0  0
  6  2  2  0  0  0
 25 30  2  0  0  0
 26 31  2  0  0  0
  9  3  2  0  0  0
  8  4  2  0  0  0
  4  6  1  0  0  0
  7  5  2  0  0  0
  5  8  1  0  0  0
 30 27  1  0  0  0
 27 29  2  0  0  0
 18 17  1  0  0  0
 17  7  1  0  0  0
 22 18  1  0  0  0
  6 11  1  0  0  0
 31 28  1  0  0  0
 28 29  1  0  0  0
 29 22  1  0  0  0
 30 31  1  0  0  0
  8  9  1  0  0  0
 14 16  1  0  0  0
 18 19  1  0  0  0
M  END
> <minimizedAffinity>
-8.44573

$$$$
3IVG_FG5_B_305


 31 34  0  0  0  0  0  0  0  0999 V2000
    1.1139   -9.5646   33.4947 N   0  0  0  0  0  0  0  0  0  0  0  0
    1.8001   -8.8174   29.9900 C   0  0  0  0  0  0  0  0  0  0  0  0
    1.5276   -8.5974   31.3272 C   0  0  0  0  0  0  0  0  0  0  0  0
    1.7288  -11.1795   30.5405 C   0  0  0  0  0  0  0  0  0  0  0  0
    1.2586  -11.6844   32.9049 C   0  0  0  0  0  0  0  0  0  0  0  0
    1.9030  -10.1441   29.6004 C   0  0  0  0  0  0  0  0  0  0  0  0
    1.0591  -10.8300   33.9187 C   0  0  0  0  0  0  0  0  0  0  0  0
    1.4605  -10.9090   31.8317 C   0  0  0  0  0  0  0  0  0  0  0  0
    1.3730   -9.6107   32.2005 C   0  0  0  0  0  0  0  0  0  0  0  0
    1.2367  -11.2390   27.6402 C   0  0  0  0  0  0  0  0  0  0  0  0
    2.1624  -10.3737   28.2983 O   0  0  0  0  0  0  0  0  0  0  0  0
    1.0144   -8.1959   34.1316 C   0  0  0  0  0  0  0  0  0  0  0  0
    2.1486   -7.6910   35.0017 C   0  0  0  0  0  0  0  0  0  0  0  0
    3.0803   -8.5212   35.2102 O   0  0  0  0  0  0  0  0  0  0  0  0
    2.0988   -6.5073   35.3982 O   0  0  0  0  0  0  0  0  0  0  0  0
    3.0190   -9.3905   34.8659 H   0  0  0  0  0  0  0  0  0  0  0  0
    0.7768  -11.1526   35.4075 C   0  0  0  0  0  0  0  0  0  0  0  0
    1.9549  -11.0987   36.2861 N   0  0  0  0  0  0  0  0  0  0  0  0
    1.9593  -10.2096   36.7861 H   0  0  0  0  0  0  0  0  0  0  0  0
    0.6068  -12.3379   38.2694 O   0  0  0  0  0  0  0  0  0  0  0  0
    3.1348  -12.5116   38.4300 O   0  0  0  0  0  0  0  0  0  0  0  0
    1.9218  -12.4516   37.4824 S   0  0  0  0  0  0  0  0  0  0  0  0
    0.7994  -17.8262   34.6040 C   0  0  0  0  0  0  0  0  0  0  0  0
    2.1371  -17.7405   34.2268 C   0  0  0  0  0  0  0  0  0  0  0  0
    0.2945  -16.7980   35.3790 C   0  0  0  0  0  0  0  0  0  0  0  0
    2.9190  -16.6574   34.6183 C   0  0  0  0  0  0  0  0  0  0  0  0
    0.8167  -14.7135   36.4695 C   0  0  0  0  0  0  0  0  0  0  0  0
    2.9071  -14.5205   35.9179 O   0  0  0  0  0  0  0  0  0  0  0  0
    1.8981  -13.9624   36.5736 C   0  0  0  0  0  0  0  0  0  0  0  0
    1.0876  -15.7825   35.7335 C   0  0  0  0  0  0  0  0  0  0  0  0
    2.3745  -15.7063   35.3707 C   0  0  0  0  0  0  0  0  0  0  0  0
 15 13  2  0  0  0
 13 14  1  0  0  0
 13 12  1  0  0  0
  7  1  1  0  0  0
  1 12  1  0  0  0
  1  9  1  0  0  0
 10 11  1  0  0  0
 22 20  2  0  0  0
 22 21  2  0  0  0
 23 24  2  0  0  0
 23 25  1  0  0  0
 24 26  1  0  0  0
  3  2  1  0  0  0
  6  2  2  0  0  0
 25 30  2  0  0  0
 26 31  2  0  0  0
  9  3  2  0  0  0
  8  4  2  0  0  0
  4  6  1  0  0  0
  7  5  2  0  0  0
  5  8  1  0  0  0
 30 27  1  0  0  0
 27 29  2  0  0  0
 18 17  1  0  0  0
 17  7  1  0  0  0
 22 18  1  0  0  0
  6 11  1  0  0  0
 31 28  1  0  0  0
 28 29  1  0  0  0
 29 22  1  0  0  0
 30 31  1  0  0  0
  8  9  1  0  0  0
 14 16  1  0  0  0
 18 19  1  0  0  0
M  END
> <minimizedAffinity>
-8.36927

$$$$
