4ABF_513_A_1252
  RCSB PDB12061711383D
Coordinates from PDB:4ABF:A:1252 Model:1 without hydrogens
 12 13  0  0  0  0            999 V2000
    0.9810  -15.5260   15.8640   C 0  0  0  0  0  0  0  0  0  0  0  0
    1.8490  -16.5190   18.4420   N 0  0  0  0  0  0  0  0  0  0  0  0
    0.7620  -14.8110   14.3430   S 0  0  0  0  0  0  0  0  0  0  0  0
    1.7230  -13.4470   14.7930   C 0  0  0  0  0  0  0  0  0  0  0  0
    2.1670  -13.6180   16.0920   C 0  0  0  0  0  0  0  0  0  0  0  0
    1.7370  -14.7830   16.7440   C 0  0  0  0  0  0  0  0  0  0  0  0
    2.0660  -12.3240   14.0160   C 0  0  0  0  0  0  0  0  0  0  0  0
    2.9030  -11.4010   14.6110   C 0  0  0  0  0  0  0  0  0  0  0  0
    2.1430  -15.1370   18.1290   C 0  0  0  0  0  0  0  0  0  0  0  0
    3.3910  -11.5850   15.8910   C 0  0  0  0  0  0  0  0  0  0  0  0
    3.0200  -12.6890   16.7170   C 0  0  0  0  0  0  0  0  0  0  0  0
    4.5770  -10.2760   16.5270  Br 0  0  0  0  0  0  0  0  0  0  0  0
  7  8  2  0  0  0  0
  7  4  1  0  0  0  0
  8 10  1  0  0  0  0
 11  5  1  0  0  0  0
 11 10  2  0  0  0  0
  1  6  2  0  0  0  0
  1  3  1  0  0  0  0
  5  6  1  0  0  0  0
  5  4  2  0  0  0  0
  6  9  1  0  0  0  0
  4  3  1  0  0  0  0
 10 12  1  0  0  0  0
  9  2  1  0  0  0  0
A    1
C4
A    2
N7
A    3
S3
A    4
C2
A    5
C1
A    6
C5
A    7
C8
A    8
C9
A    9
C6
A   10
C10
A   11
C11
A   12
BR1
M  END
>  <InstanceId>
4ABF_513_A_1252

>  <ChemCompId>
513

>  <PdbId>
4ABF

>  <ChainId>
A

>  <ResidueNumber>
1252

>  <InsertionCode>


>  <Model>
1

>  <AltIds>


>  <MissingHeavyAtoms>
0

>  <ObservedFormula>
C9 N Br S

>  <Name>
1-(5-BROMO-1-BENZOTHIOPHEN-3-YL)METHANAMINE

>  <SystematicName>
(5-bromanyl-1-benzothiophen-3-yl)methanamine

>  <Synonyms>
FRAGMENT CC33513

>  <Type>
NON-POLYMER

>  <Formula>
C9 H8 Br N S

>  <MolecularWeight>
242.136

>  <ModifiedDate>
2014-04-30

>  <Parent>


>  <OneLetterCode>


>  <SubcomponentList>


>  <AmbiguousFlag>
N

>  <InChI>
InChI=1S/C9H8BrNS/c10-7-1-2-9-8(3-7)6(4-11)5-12-9/h1-3,5H,4,11H2

>  <InChIKey>
DVYWOASQESEKEC-UHFFFAOYSA-N

>  <SMILES>
c1cc2c(cc1Br)c(cs2)CN

$$$$
