2UYN_2KT_A_1129


  8  7  0  0  0  0  0  0  0  0999 V2000
    1.0001   18.0226   23.5776 C   0  0  0  0  0  0  0  0  0  0  0  0
    1.0453   17.0885   22.6691 O   0  0  0  0  0  0  0  0  0  0  0  0
    2.2568   18.5084   24.1117 C   0  0  0  0  0  0  0  0  0  0  0  0
    2.4849   19.7231   24.0167 O   0  0  0  0  0  0  0  0  0  0  0  0
    3.0291   17.6798   24.6591 O   0  0  0  0  0  0  0  0  0  0  0  0
    1.8646   20.2848   23.5953 H   0  0  0  0  0  0  0  0  0  0  0  0
   -0.9691   19.3154   22.9840 C   0  0  0  0  0  0  0  0  0  0  0  0
   -0.1905   18.4998   23.9861 C   0  0  0  0  0  0  0  0  0  0  0  0
  7  8  1  0  0  0
  8  1  1  0  0  0
  1  2  2  0  0  0
  1  3  1  0  0  0
  3  4  1  0  0  0
  3  5  2  0  0  0
  4  6  1  0  0  0
M  END
> <minimizedAffinity>
-5.17933

$$$$
2UYN_2KT_A_1129


  8  7  0  0  0  0  0  0  0  0999 V2000
    1.2269   18.2915   23.4838 C   0  0  0  0  0  0  0  0  0  0  0  0
    1.9036   18.8820   22.5387 O   0  0  0  0  0  0  0  0  0  0  0  0
    1.9616   17.7795   24.6234 C   0  0  0  0  0  0  0  0  0  0  0  0
    3.1640   18.0697   24.7035 O   0  0  0  0  0  0  0  0  0  0  0  0
    1.3365   17.0944   25.4735 O   0  0  0  0  0  0  0  0  0  0  0  0
    3.5673   18.5850   24.0327 H   0  0  0  0  0  0  0  0  0  0  0  0
   -0.8764   19.4475   23.1075 C   0  0  0  0  0  0  0  0  0  0  0  0
   -0.1100   18.1762   23.3758 C   0  0  0  0  0  0  0  0  0  0  0  0
  7  8  1  0  0  0
  8  1  1  0  0  0
  1  2  2  0  0  0
  1  3  1  0  0  0
  3  4  1  0  0  0
  3  5  2  0  0  0
  4  6  1  0  0  0
M  END
> <minimizedAffinity>
-4.94250

$$$$
2UYN_2KT_A_1129


  8  7  0  0  0  0  0  0  0  0999 V2000
    0.8477   18.4664   23.2465 C   0  0  0  0  0  0  0  0  0  0  0  0
    0.8568   17.2774   22.7115 O   0  0  0  0  0  0  0  0  0  0  0  0
   -0.3775   19.2363   23.1635 C   0  0  0  0  0  0  0  0  0  0  0  0
   -0.2964   20.4587   23.3526 O   0  0  0  0  0  0  0  0  0  0  0  0
   -1.4426   18.6285   22.8826 O   0  0  0  0  0  0  0  0  0  0  0  0
    0.5310   20.8470   23.5589 H   0  0  0  0  0  0  0  0  0  0  0  0
    2.7276   17.9567   24.6982 C   0  0  0  0  0  0  0  0  0  0  0  0
    1.9560   18.9361   23.8491 C   0  0  0  0  0  0  0  0  0  0  0  0
  7  8  1  0  0  0
  8  1  1  0  0  0
  1  2  2  0  0  0
  1  3  1  0  0  0
  3  4  1  0  0  0
  3  5  2  0  0  0
  4  6  1  0  0  0
M  END
> <minimizedAffinity>
-4.56033

$$$$
2UYN_2KT_A_1129


  8  7  0  0  0  0  0  0  0  0999 V2000
    1.9190   18.0897   24.3979 C   0  0  0  0  0  0  0  0  0  0  0  0
    3.1697   17.7835   24.6025 O   0  0  0  0  0  0  0  0  0  0  0  0
    1.6289   19.1719   23.4785 C   0  0  0  0  0  0  0  0  0  0  0  0
    2.3791   19.3057   22.5008 O   0  0  0  0  0  0  0  0  0  0  0  0
    0.6255   19.8946   23.7100 O   0  0  0  0  0  0  0  0  0  0  0  0
    3.1106   18.7309   22.3894 H   0  0  0  0  0  0  0  0  0  0  0  0
   -0.0072   16.6275   24.1669 C   0  0  0  0  0  0  0  0  0  0  0  0
    0.9509   17.4048   25.0350 C   0  0  0  0  0  0  0  0  0  0  0  0
  7  8  1  0  0  0
  8  1  1  0  0  0
  1  2  2  0  0  0
  1  3  1  0  0  0
  3  4  1  0  0  0
  3  5  2  0  0  0
  4  6  1  0  0  0
M  END
> <minimizedAffinity>
-4.54281

$$$$
2UYN_2KT_A_1129


  8  7  0  0  0  0  0  0  0  0999 V2000
    0.5848   18.1079   24.0096 C   0  0  0  0  0  0  0  0  0  0  0  0
    0.3092   17.6553   25.2009 O   0  0  0  0  0  0  0  0  0  0  0  0
    1.9736   18.3728   23.6910 C   0  0  0  0  0  0  0  0  0  0  0  0
    2.8048   18.2256   24.5988 O   0  0  0  0  0  0  0  0  0  0  0  0
    2.2583   18.7116   22.5133 O   0  0  0  0  0  0  0  0  0  0  0  0
    2.5229   17.9710   25.4554 H   0  0  0  0  0  0  0  0  0  0  0  0
   -1.1110   19.6465   23.1980 C   0  0  0  0  0  0  0  0  0  0  0  0
   -0.4102   18.3126   23.1262 C   0  0  0  0  0  0  0  0  0  0  0  0
  7  8  1  0  0  0
  8  1  1  0  0  0
  1  2  2  0  0  0
  1  3  1  0  0  0
  3  4  1  0  0  0
  3  5  2  0  0  0
  4  6  1  0  0  0
M  END
> <minimizedAffinity>
-4.52423

$$$$
2UYN_2KT_A_1129


  8  7  0  0  0  0  0  0  0  0999 V2000
    0.2519   19.1084   23.6329 C   0  0  0  0  0  0  0  0  0  0  0  0
   -0.6045   20.0899   23.5755 O   0  0  0  0  0  0  0  0  0  0  0  0
    1.6147   19.3744   23.2174 C   0  0  0  0  0  0  0  0  0  0  0  0
    2.1149   20.4551   23.5615 O   0  0  0  0  0  0  0  0  0  0  0  0
    2.2170   18.4897   22.5560 O   0  0  0  0  0  0  0  0  0  0  0  0
    1.6082   21.0701   24.0543 H   0  0  0  0  0  0  0  0  0  0  0  0
    0.6340   17.3036   25.2134 C   0  0  0  0  0  0  0  0  0  0  0  0
   -0.1470   17.8987   24.0682 C   0  0  0  0  0  0  0  0  0  0  0  0
  7  8  1  0  0  0
  8  1  1  0  0  0
  1  2  2  0  0  0
  1  3  1  0  0  0
  3  4  1  0  0  0
  3  5  2  0  0  0
  4  6  1  0  0  0
M  END
> <minimizedAffinity>
-4.45958

$$$$
2UYN_2KT_A_1129


  8  7  0  0  0  0  0  0  0  0999 V2000
    1.6114   17.7415   24.4949 C   0  0  0  0  0  0  0  0  0  0  0  0
    1.5753   16.9875   25.5580 O   0  0  0  0  0  0  0  0  0  0  0  0
    0.5813   17.5492   23.4937 C   0  0  0  0  0  0  0  0  0  0  0  0
    0.8907   16.9210   22.4709 O   0  0  0  0  0  0  0  0  0  0  0  0
   -0.5670   18.0068   23.7280 O   0  0  0  0  0  0  0  0  0  0  0  0
    1.7669   16.6078   22.3605 H   0  0  0  0  0  0  0  0  0  0  0  0
    2.2047   19.9543   23.6869 C   0  0  0  0  0  0  0  0  0  0  0  0
    2.5867   18.6596   24.3602 C   0  0  0  0  0  0  0  0  0  0  0  0
  7  8  1  0  0  0
  8  1  1  0  0  0
  1  2  2  0  0  0
  1  3  1  0  0  0
  3  4  1  0  0  0
  3  5  2  0  0  0
  4  6  1  0  0  0
M  END
> <minimizedAffinity>
-4.10789

$$$$
2UYN_2KT_A_1129


  8  7  0  0  0  0  0  0  0  0999 V2000
   -0.3717   18.8209   22.8370 C   0  0  0  0  0  0  0  0  0  0  0  0
   -0.0107   19.1590   21.6306 O   0  0  0  0  0  0  0  0  0  0  0  0
    0.3523   17.7445   23.4833 C   0  0  0  0  0  0  0  0  0  0  0  0
    1.0916   17.0478   22.7729 O   0  0  0  0  0  0  0  0  0  0  0  0
    0.2092   17.5940   24.7241 O   0  0  0  0  0  0  0  0  0  0  0  0
    1.1509   17.2152   21.8529 H   0  0  0  0  0  0  0  0  0  0  0  0
   -1.4671   20.9577   23.2051 C   0  0  0  0  0  0  0  0  0  0  0  0
   -1.3880   19.4692   23.4363 C   0  0  0  0  0  0  0  0  0  0  0  0
  7  8  1  0  0  0
  8  1  1  0  0  0
  1  2  2  0  0  0
  1  3  1  0  0  0
  3  4  1  0  0  0
  3  5  2  0  0  0
  4  6  1  0  0  0
M  END
> <minimizedAffinity>
-3.65794

$$$$
