2UYN_2KT_A_1129
  RCSB PDB12061707003D
Coordinates from PDB:2UYN:A:1129 Model:1 without hydrogens
  7  6  0  0  0  0            999 V2000
   -0.6220   19.0560   22.4850   C 0  0  0  0  0  0  0  0  0  0  0  0
    0.0780   18.6560   23.7600   C 0  0  0  0  0  0  0  0  0  0  0  0
    1.1630   17.8700   23.6290   C 0  0  0  0  0  0  0  0  0  0  0  0
    1.5420   17.4830   22.4430   O 0  0  0  0  0  0  0  0  0  0  0  0
    1.9430   17.4260   24.7670   C 0  0  0  0  0  0  0  0  0  0  0  0
    1.3260   16.9420   25.7270   O 0  0  0  0  0  0  0  0  0  0  0  0
    3.1950   17.5340   24.7070   O 0  0  0  0  0  0  0  0  0  0  0  0
  1  2  1  0  0  0  0
  2  3  1  0  0  0  0
  3  4  2  0  0  0  0
  3  5  1  0  0  0  0
  5  6  1  0  0  0  0
  5  7  2  0  0  0  0
A    1
C4
A    2
C3
A    3
C2
A    4
O3
A    5
C1
A    6
O1
A    7
O2
M  END
>  <InstanceId>
2UYN_2KT_A_1129

>  <ChemCompId>
2KT

>  <PdbId>
2UYN

>  <ChainId>
A

>  <ResidueNumber>
1129

>  <InsertionCode>


>  <Model>
1

>  <AltIds>


>  <MissingHeavyAtoms>
0

>  <ObservedFormula>
C4 O3

>  <Name>
2-KETOBUTYRIC ACID

>  <SystematicName>
2-oxobutanoic acid

>  <Synonyms>
2-OXOBUTANOIC ACID

>  <Type>
NON-POLYMER

>  <Formula>
C4 H6 O3

>  <MolecularWeight>
102.089

>  <ModifiedDate>
2011-06-04

>  <Parent>


>  <OneLetterCode>


>  <SubcomponentList>


>  <AmbiguousFlag>
N

>  <InChI>
InChI=1S/C4H6O3/c1-2-3(5)4(6)7/h2H2,1H3,(H,6,7)

>  <InChIKey>
TYEYBOSBBBHJIV-UHFFFAOYSA-N

>  <SMILES>
CCC(=O)C(=O)O

$$$$
