3N4B_WWZ_A_263
  RCSB PDB12061709513D
Coordinates from PDB:3N4B:A:263 Model:1 without hydrogens
 21 22  0  0  0  0            999 V2000
   -5.1510    2.2500   15.8270   C 0  0  0  0  0  0  0  0  0  0  0  0
   -5.3600   -0.4230   16.1920   N 0  0  0  0  0  0  0  0  0  0  0  0
   -7.2610    1.0780   16.6840   O 0  0  0  0  0  0  0  0  0  0  0  0
   -5.8180    0.9350   16.7960   S 0  0  0  0  0  0  0  0  0  0  0  0
   -3.7920    2.1880   15.5790   C 0  0  0  0  0  0  0  0  0  0  0  0
   -5.3910    1.0360   18.1800   O 0  0  0  0  0  0  0  0  0  0  0  0
   -3.1870    3.2030   14.8810   C 0  0  0  0  0  0  0  0  0  0  0  0
   -3.9280    4.2770   14.4250   C 0  0  0  0  0  0  0  0  0  0  0  0
   -5.3000    4.3410   14.6820   C 0  0  0  0  0  0  0  0  0  0  0  0
   -5.9110    3.3260   15.3990   C 0  0  0  0  0  0  0  0  0  0  0  0
   -3.2110    5.2940   13.7500   N 0  0  0  0  0  0  0  0  0  0  0  0
   -3.8310    6.1170   12.7710   C 0  0  0  0  0  0  0  0  0  0  0  0
   -4.9110    5.8450   12.2720   O 0  0  0  0  0  0  0  0  0  0  0  0
   -3.1430    7.2740   12.3470   N 0  0  0  0  0  0  0  0  0  0  0  0
   -2.1080    7.8560   13.1250   C 0  0  0  0  0  0  0  0  0  0  0  0
   -1.0160    8.5130   12.3770   C 0  0  0  0  0  0  0  0  0  0  0  0
   -0.0410    9.1710   13.0610   C 0  0  0  0  0  0  0  0  0  0  0  0
   -0.0940    9.2330   14.5470   C 0  0  0  0  0  0  0  0  0  0  0  0
    0.8400    9.9120   15.2030   F 0  0  0  0  0  0  0  0  0  0  0  0
   -1.1080    8.6380   15.2340   C 0  0  0  0  0  0  0  0  0  0  0  0
   -2.1760    7.9140   14.4870   C 0  0  0  0  0  0  0  0  0  0  0  0
 10  1  2  0  0  0  0
  5  1  1  0  0  0  0
  1  4  1  0  0  0  0
  2  4  1  0  0  0  0
  3  4  2  0  0  0  0
  4  6  2  0  0  0  0
  7  5  2  0  0  0  0
  8  7  1  0  0  0  0
 11  8  1  0  0  0  0
  8  9  2  0  0  0  0
  9 10  1  0  0  0  0
 12 11  1  0  0  0  0
 13 12  2  0  0  0  0
 14 12  1  0  0  0  0
 14 15  1  0  0  0  0
 16 15  2  0  0  0  0
 15 21  1  0  0  0  0
 16 17  1  0  0  0  0
 17 18  2  0  0  0  0
 18 19  1  0  0  0  0
 18 20  1  0  0  0  0
 21 20  2  0  0  0  0
A    1
C1
A    2
N1
A    3
O1
A    4
S1
A    5
C2
A    6
O2
A    7
C3
A    8
C4
A    9
C5
A   10
C6
A   11
N7
A   12
C8
A   13
O8
A   14
N9
A   15
C10
A   16
C11
A   17
C12
A   18
C13
A   19
F13
A   20
C14
A   21
C15
M  END
>  <InstanceId>
3N4B_WWZ_A_263

>  <ChemCompId>
WWZ

>  <PdbId>
3N4B

>  <ChainId>
A

>  <ResidueNumber>
263

>  <InsertionCode>


>  <Model>
1

>  <AltIds>


>  <MissingHeavyAtoms>
0

>  <ObservedFormula>
C13 N3 O3 S F

>  <Name>
4-{[(4-fluorophenyl)carbamoyl]amino}benzenesulfonamide

>  <SystematicName>
1-(4-fluorophenyl)-3-(4-sulfamoylphenyl)urea

>  <Synonyms>


>  <Type>
NON-POLYMER

>  <Formula>
C13 H12 F N3 O3 S

>  <MolecularWeight>
309.316

>  <ModifiedDate>
2011-06-04

>  <Parent>


>  <OneLetterCode>


>  <SubcomponentList>


>  <AmbiguousFlag>
N

>  <InChI>
InChI=1S/C13H12FN3O3S/c14-9-1-3-10(4-2-9)16-13(18)17-11-5-7-12(8-6-11)21(15,19)20/h1-8H,(H2,15,19,20)(H2,16,17,18)

>  <InChIKey>
YJQZNWPYLCNRLP-UHFFFAOYSA-N

>  <SMILES>
c1cc(ccc1NC(=O)Nc2ccc(cc2)S(=O)(=O)N)F

$$$$
