6GL9_F3W_A_1201
  RCSB PDB06231805483D
Coordinates from PDB:6GL9:A:1201 Model:1 without hydrogens
 28 32  0  0  0  0            999 V2000
   43.8290   -0.4220   67.6070   C 0  0  0  0  0  0  0  0  0  0  0  0
   39.9710    1.1100   68.0450   C 0  0  0  0  0  0  0  0  0  0  0  0
   40.2790    1.8010   69.1690   C 0  0  0  0  0  0  0  0  0  0  0  0
   41.6170    1.6690   69.4520   N 0  0  0  0  0  0  0  0  0  0  0  0
   42.0730   -1.9030   64.9860   C 0  0  0  0  0  0  0  0  0  0  0  0
   41.9750   -2.8040   63.8260   C 0  0  0  0  0  0  0  0  0  0  0  0
   41.0480   -1.1440   65.5200   N 0  0  0  0  0  0  0  0  0  0  0  0
   40.9720   -3.7570   63.6510   C 0  0  0  0  0  0  0  0  0  0  0  0
   41.0000   -4.6460   62.5700   C 0  0  0  0  0  0  0  0  0  0  0  0
   42.0780   -4.5880   61.6840   C 0  0  0  0  0  0  0  0  0  0  0  0
   43.0780   -3.6500   61.8580   C 0  0  0  0  0  0  0  0  0  0  0  0
   43.2040   -1.7660   65.6430   N 0  0  0  0  0  0  0  0  0  0  0  0
   39.9530   -5.6520   62.3870   C 0  0  0  0  0  0  0  0  0  0  0  0
   39.9920   -6.5710   61.4290   C 0  0  0  0  0  0  0  0  0  0  0  0
   38.9640   -7.5440   61.3400   C 0  0  0  0  0  0  0  0  0  0  0  0
   38.1620   -8.3430   61.2560   N 0  0  0  0  0  0  0  0  0  0  0  0
   43.0220   -2.7550   62.9130   C 0  0  0  0  0  0  0  0  0  0  0  0
   42.9260   -0.8770   66.6630   C 0  0  0  0  0  0  0  0  0  0  0  0
   43.5100    0.4610   68.5540   N 0  0  0  0  0  0  0  0  0  0  0  0
   41.5920   -0.4510   66.6270   C 0  0  0  0  0  0  0  0  0  0  0  0
   41.1800    0.4800   67.6070   C 0  0  0  0  0  0  0  0  0  0  0  0
   42.2230    0.8710   68.5360   C 0  0  0  0  0  0  0  0  0  0  0  0
   39.6340   -1.0910   65.0830   C 0  0  0  0  0  0  0  0  0  0  0  0
   38.6910   -1.6930   66.1210   C 0  0  0  0  0  0  0  0  0  0  0  0
   37.2210   -1.5700   65.7160   C 0  0  0  0  0  0  0  0  0  0  0  0
   36.8820   -0.1580   65.3070   C 0  0  0  0  0  0  0  0  0  0  0  0
   37.7780    0.3170   64.1890   C 0  0  0  0  0  0  0  0  0  0  0  0
   39.2410    0.3020   64.6170   C 0  0  0  0  0  0  0  0  0  0  0  0
 16 15  3  0  0  0  0
 15 14  1  0  0  0  0
 14 13  2  0  0  0  0
 10 11  2  0  0  0  0
 10  9  1  0  0  0  0
 11 17  1  0  0  0  0
 13  9  1  0  0  0  0
  9  8  2  0  0  0  0
 17  6  2  0  0  0  0
  8  6  1  0  0  0  0
  6  5  1  0  0  0  0
 27 28  1  0  0  0  0
 27 26  1  0  0  0  0
 28 23  1  0  0  0  0
  5  7  1  0  0  0  0
  5 12  2  0  0  0  0
 23  7  1  0  0  0  0
 23 24  1  0  0  0  0
 26 25  1  0  0  0  0
  7 20  1  0  0  0  0
 12 18  1  0  0  0  0
 25 24  1  0  0  0  0
 20 18  2  0  0  0  0
 20 21  1  0  0  0  0
 18  1  1  0  0  0  0
 21  2  1  0  0  0  0
 21 22  2  0  0  0  0
  1 19  2  0  0  0  0
  2  3  2  0  0  0  0
 22 19  1  0  0  0  0
 22  4  1  0  0  0  0
  3  4  1  0  0  0  0
A    1
C4
A    2
C5
A    3
C6
A    4
N1
A    5
C7
A    6
C8
A    7
N2
A    8
C9
A    9
C10
A   10
C11
A   11
C12
A   12
N3
A   13
C13
A   14
C14
A   15
C15
A   16
N4
A   17
C16
A   18
C
A   19
N
A   20
C1
A   21
C2
A   22
C3
A   23
C17
A   24
C22
A   25
C21
A   26
C20
A   27
C19
A   28
C18
M  END
>  <InstanceId>
6GL9_F3W_A_1201

>  <ChemCompId>
F3W

>  <PdbId>
6GL9

>  <ChainId>
A

>  <ResidueNumber>
1201

>  <InsertionCode>


>  <Model>
1

>  <AltIds>


>  <MissingHeavyAtoms>
0

>  <ObservedFormula>
C23 N5

>  <Name>
(~{E})-3-[3-(3-cyclohexyl-3,5,8,10-tetrazatricyclo[7.3.0.0^{2,6}]dodeca-1(9),2(6),4,7,11-pentaen-4-yl)phenyl]prop-2-enenitrile

>  <SystematicName>
(~{E})-3-[3-(3-cyclohexyl-3,5,8,10-tetrazatricyclo[7.3.0.0^{2,6}]dodeca-1(9),2(6),4,7,11-pentaen-4-yl)phenyl]prop-2-enenitrile

>  <Synonyms>


>  <Type>
NON-POLYMER

>  <Formula>
C23 H21 N5

>  <MolecularWeight>
367.446

>  <ModifiedDate>
2018-06-22

>  <Parent>


>  <OneLetterCode>


>  <SubcomponentList>


>  <AmbiguousFlag>
N

>  <InChI>
InChI=1S/C23H21N5/c24-12-5-7-16-6-4-8-17(14-16)23-27-20-15-26-22-19(11-13-25-22)21(20)28(23)18-9-2-1-3-10-18/h4-8,11,13-15,18H,1-3,9-10H2,(H,25,26)/b7-5+

>  <InChIKey>
JIDRJSPIWPPOBL-FNORWQNLSA-N

>  <SMILES>
c1cc(cc(c1)c2nc3cnc4c(c3n2C5CCCCC5)cc[nH]4)/C=C/C#N

$$$$
