6GL9_F3W_A_1201


 29 33  0  0  0  0  0  0  0  0999 V2000
   42.6929    1.0974   68.7253 C   0  0  0  0  0  0  0  0  0  0  0  0
   42.3384   -1.6006   65.5601 C   0  0  0  0  0  0  0  0  0  0  0  0
   43.6686   -1.8533   65.5120 C   0  0  0  0  0  0  0  0  0  0  0  0
   44.3137   -1.1782   66.5198 N   0  0  0  0  0  0  0  0  0  0  0  0
   39.2922    1.1881   67.9681 C   0  0  0  0  0  0  0  0  0  0  0  0
   39.6882    0.2495   67.0332 N   0  0  0  0  0  0  0  0  0  0  0  0
   40.2909    1.6302   68.7007 N   0  0  0  0  0  0  0  0  0  0  0  0
   41.4061    0.9600   68.2368 C   0  0  0  0  0  0  0  0  0  0  0  0
   43.7286    0.4008   68.2558 N   0  0  0  0  0  0  0  0  0  0  0  0
   41.0828    0.0777   67.1978 C   0  0  0  0  0  0  0  0  0  0  0  0
   42.1335   -0.6888   66.6450 C   0  0  0  0  0  0  0  0  0  0  0  0
   43.4310   -0.4457   67.2460 C   0  0  0  0  0  0  0  0  0  0  0  0
   45.2822   -1.2198   66.6916 H   0  0  0  0  0  0  0  0  0  0  0  0
   37.9254    1.6990   68.1629 C   0  0  0  0  0  0  0  0  0  0  0  0
   37.0803    2.1023   67.1295 C   0  0  0  0  0  0  0  0  0  0  0  0
   35.8295    2.6706   67.3985 C   0  0  0  0  0  0  0  0  0  0  0  0
   35.4552    2.8643   68.7299 C   0  0  0  0  0  0  0  0  0  0  0  0
   36.2930    2.4729   69.7571 C   0  0  0  0  0  0  0  0  0  0  0  0
   37.5138    1.8824   69.4778 C   0  0  0  0  0  0  0  0  0  0  0  0
   34.9429    3.1014   66.3168 C   0  0  0  0  0  0  0  0  0  0  0  0
   34.9506    2.5462   65.1103 C   0  0  0  0  0  0  0  0  0  0  0  0
   34.0305    2.9847   64.1241 C   0  0  0  0  0  0  0  0  0  0  0  0
   33.2709    3.3343   63.3563 N   0  0  0  0  0  0  0  0  0  0  0  0
   38.8551   -0.4176   66.0064 C   0  0  0  0  0  0  0  0  0  0  0  0
   39.2686   -0.0258   64.5906 C   0  0  0  0  0  0  0  0  0  0  0  0
   38.4685   -0.7711   63.5208 C   0  0  0  0  0  0  0  0  0  0  0  0
   38.4581   -2.2571   63.7809 C   0  0  0  0  0  0  0  0  0  0  0  0
   37.9167   -2.5674   65.1553 C   0  0  0  0  0  0  0  0  0  0  0  0
   38.7703   -1.9179   66.2386 C   0  0  0  0  0  0  0  0  0  0  0  0
 23 22  3  0  0  0
 22 21  1  0  0  0
 21 20  2  0  0  0
 17 18  2  0  0  0
 17 16  1  0  0  0
 18 19  1  0  0  0
 20 16  1  0  0  0
 16 15  2  0  0  0
 19 14  2  0  0  0
 15 14  1  0  0  0
 14  5  1  0  0  0
 28 29  1  0  0  0
 28 27  1  0  0  0
 29 24  1  0  0  0
  5  6  1  0  0  0
  5  7  2  0  0  0
 24  6  1  0  0  0
 24 25  1  0  0  0
 27 26  1  0  0  0
  6 10  1  0  0  0
  7  8  1  0  0  0
 26 25  1  0  0  0
 10  8  2  0  0  0
 10 11  1  0  0  0
  8  1  1  0  0  0
 11  2  1  0  0  0
 11 12  2  0  0  0
  1  9  2  0  0  0
  2  3  2  0  0  0
 12  9  1  0  0  0
 12  4  1  0  0  0
  3  4  1  0  0  0
  4 13  1  0  0  0
M  END
> <minimizedAffinity>
-9.53361

$$$$
6GL9_F3W_A_1201


 29 33  0  0  0  0  0  0  0  0999 V2000
   43.7428   -0.0431   67.8017 C   0  0  0  0  0  0  0  0  0  0  0  0
   39.7284    1.0898   67.9566 C   0  0  0  0  0  0  0  0  0  0  0  0
   39.8735    1.7647   69.1223 C   0  0  0  0  0  0  0  0  0  0  0  0
   41.1906    1.7527   69.5135 N   0  0  0  0  0  0  0  0  0  0  0  0
   42.3622   -1.5882   64.9993 C   0  0  0  0  0  0  0  0  0  0  0  0
   41.2266   -0.9528   65.4667 N   0  0  0  0  0  0  0  0  0  0  0  0
   43.4168   -1.3668   65.7533 N   0  0  0  0  0  0  0  0  0  0  0  0
   42.9694   -0.5479   66.7718 C   0  0  0  0  0  0  0  0  0  0  0  0
   43.2614    0.7686   68.7438 N   0  0  0  0  0  0  0  0  0  0  0  0
   41.6069   -0.2523   66.6356 C   0  0  0  0  0  0  0  0  0  0  0  0
   41.0258    0.5969   67.6041 C   0  0  0  0  0  0  0  0  0  0  0  0
   41.9456    1.0522   68.6290 C   0  0  0  0  0  0  0  0  0  0  0  0
   41.5386    2.1914   70.3232 H   0  0  0  0  0  0  0  0  0  0  0  0
   42.4492   -2.4503   63.8092 C   0  0  0  0  0  0  0  0  0  0  0  0
   41.4771   -3.3776   63.4352 C   0  0  0  0  0  0  0  0  0  0  0  0
   41.6751   -4.2327   62.3446 C   0  0  0  0  0  0  0  0  0  0  0  0
   42.8881   -4.1680   61.6555 C   0  0  0  0  0  0  0  0  0  0  0  0
   43.8572   -3.2556   62.0276 C   0  0  0  0  0  0  0  0  0  0  0  0
   43.6361   -2.3932   63.0880 C   0  0  0  0  0  0  0  0  0  0  0  0
   40.6602   -5.2118   61.9535 C   0  0  0  0  0  0  0  0  0  0  0  0
   40.6715   -5.8370   60.7818 C   0  0  0  0  0  0  0  0  0  0  0  0
   39.6806   -6.8085   60.4889 C   0  0  0  0  0  0  0  0  0  0  0  0
   38.9067   -7.6085   60.2658 N   0  0  0  0  0  0  0  0  0  0  0  0
   39.8546   -1.0209   64.9134 C   0  0  0  0  0  0  0  0  0  0  0  0
   38.9056   -1.7894   65.8289 C   0  0  0  0  0  0  0  0  0  0  0  0
   37.4677   -1.7962   65.3068 C   0  0  0  0  0  0  0  0  0  0  0  0
   37.0065   -0.4037   64.9544 C   0  0  0  0  0  0  0  0  0  0  0  0
   37.9295    0.2392   63.9479 C   0  0  0  0  0  0  0  0  0  0  0  0
   39.3465    0.3509   64.4987 C   0  0  0  0  0  0  0  0  0  0  0  0
 23 22  3  0  0  0
 22 21  1  0  0  0
 21 20  2  0  0  0
 17 18  2  0  0  0
 17 16  1  0  0  0
 18 19  1  0  0  0
 20 16  1  0  0  0
 16 15  2  0  0  0
 19 14  2  0  0  0
 15 14  1  0  0  0
 14  5  1  0  0  0
 28 29  1  0  0  0
 28 27  1  0  0  0
 29 24  1  0  0  0
  5  6  1  0  0  0
  5  7  2  0  0  0
 24  6  1  0  0  0
 24 25  1  0  0  0
 27 26  1  0  0  0
  6 10  1  0  0  0
  7  8  1  0  0  0
 26 25  1  0  0  0
 10  8  2  0  0  0
 10 11  1  0  0  0
  8  1  1  0  0  0
 11  2  1  0  0  0
 11 12  2  0  0  0
  1  9  2  0  0  0
  2  3  2  0  0  0
 12  9  1  0  0  0
 12  4  1  0  0  0
  3  4  1  0  0  0
  4 13  1  0  0  0
M  END
> <minimizedAffinity>
-9.44898

$$$$
6GL9_F3W_A_1201


 29 33  0  0  0  0  0  0  0  0999 V2000
   43.6614   -0.2375   67.6827 C   0  0  0  0  0  0  0  0  0  0  0  0
   39.7820    1.2709   67.9956 C   0  0  0  0  0  0  0  0  0  0  0  0
   40.0808    2.0598   69.0558 C   0  0  0  0  0  0  0  0  0  0  0  0
   41.4208    1.9716   69.3465 N   0  0  0  0  0  0  0  0  0  0  0  0
   41.9252   -1.9622   65.2012 C   0  0  0  0  0  0  0  0  0  0  0  0
   40.8897   -1.1751   65.6704 N   0  0  0  0  0  0  0  0  0  0  0  0
   43.0545   -1.7533   65.8419 N   0  0  0  0  0  0  0  0  0  0  0  0
   42.7644   -0.7845   66.7828 C   0  0  0  0  0  0  0  0  0  0  0  0
   43.3304    0.7185   68.5514 N   0  0  0  0  0  0  0  0  0  0  0  0
   41.4244   -0.3823   66.7131 C   0  0  0  0  0  0  0  0  0  0  0  0
   40.9997    0.6231   67.6107 C   0  0  0  0  0  0  0  0  0  0  0  0
   42.0376    1.1070   68.5009 C   0  0  0  0  0  0  0  0  0  0  0  0
   41.8713    2.4670   70.0682 H   0  0  0  0  0  0  0  0  0  0  0  0
   41.8394   -2.9604   64.1227 C   0  0  0  0  0  0  0  0  0  0  0  0
   42.9413   -3.5093   63.4676 C   0  0  0  0  0  0  0  0  0  0  0  0
   42.7783   -4.3800   62.3837 C   0  0  0  0  0  0  0  0  0  0  0  0
   41.4840   -4.6617   61.9408 C   0  0  0  0  0  0  0  0  0  0  0  0
   40.3894   -4.1138   62.5824 C   0  0  0  0  0  0  0  0  0  0  0  0
   40.5631   -3.2796   63.6738 C   0  0  0  0  0  0  0  0  0  0  0  0
   43.9323   -4.9525   61.6893 C   0  0  0  0  0  0  0  0  0  0  0  0
   45.0932   -5.1898   62.2893 C   0  0  0  0  0  0  0  0  0  0  0  0
   46.1545   -5.7894   61.5644 C   0  0  0  0  0  0  0  0  0  0  0  0
   47.0244   -6.2507   60.9995 N   0  0  0  0  0  0  0  0  0  0  0  0
   39.4748   -1.1799   65.2332 C   0  0  0  0  0  0  0  0  0  0  0  0
   38.5342   -1.6417   66.3428 C   0  0  0  0  0  0  0  0  0  0  0  0
   37.0633   -1.5730   65.9283 C   0  0  0  0  0  0  0  0  0  0  0  0
   36.7227   -0.2265   65.3395 C   0  0  0  0  0  0  0  0  0  0  0  0
   37.6161    0.0990   64.1672 C   0  0  0  0  0  0  0  0  0  0  0  0
   39.0800    0.1404   64.5905 C   0  0  0  0  0  0  0  0  0  0  0  0
 23 22  3  0  0  0
 22 21  1  0  0  0
 21 20  2  0  0  0
 17 18  2  0  0  0
 17 16  1  0  0  0
 18 19  1  0  0  0
 20 16  1  0  0  0
 16 15  2  0  0  0
 19 14  2  0  0  0
 15 14  1  0  0  0
 14  5  1  0  0  0
 28 29  1  0  0  0
 28 27  1  0  0  0
 29 24  1  0  0  0
  5  6  1  0  0  0
  5  7  2  0  0  0
 24  6  1  0  0  0
 24 25  1  0  0  0
 27 26  1  0  0  0
  6 10  1  0  0  0
  7  8  1  0  0  0
 26 25  1  0  0  0
 10  8  2  0  0  0
 10 11  1  0  0  0
  8  1  1  0  0  0
 11  2  1  0  0  0
 11 12  2  0  0  0
  1  9  2  0  0  0
  2  3  2  0  0  0
 12  9  1  0  0  0
 12  4  1  0  0  0
  3  4  1  0  0  0
  4 13  1  0  0  0
M  END
> <minimizedAffinity>
-9.11871

$$$$
6GL9_F3W_A_1201


 29 33  0  0  0  0  0  0  0  0999 V2000
   43.7730   -3.2028   63.8118 C   0  0  0  0  0  0  0  0  0  0  0  0
   40.0645   -4.4432   62.3518 C   0  0  0  0  0  0  0  0  0  0  0  0
   40.6077   -5.2733   61.4290 C   0  0  0  0  0  0  0  0  0  0  0  0
   41.9760   -5.2850   61.5525 N   0  0  0  0  0  0  0  0  0  0  0  0
   41.5060   -1.3090   65.6614 C   0  0  0  0  0  0  0  0  0  0  0  0
   40.6032   -2.0317   64.9034 N   0  0  0  0  0  0  0  0  0  0  0  0
   42.7568   -1.6097   65.3877 N   0  0  0  0  0  0  0  0  0  0  0  0
   42.6908   -2.5757   64.4025 C   0  0  0  0  0  0  0  0  0  0  0  0
   43.6475   -4.1516   62.8832 N   0  0  0  0  0  0  0  0  0  0  0  0
   41.3654   -2.8819   64.0679 C   0  0  0  0  0  0  0  0  0  0  0  0
   41.1557   -3.8739   63.0837 C   0  0  0  0  0  0  0  0  0  0  0  0
   42.3738   -4.4478   62.5444 C   0  0  0  0  0  0  0  0  0  0  0  0
   42.5840   -5.8258   60.9983 H   0  0  0  0  0  0  0  0  0  0  0  0
   41.1754   -0.2847   66.6655 C   0  0  0  0  0  0  0  0  0  0  0  0
   40.0035    0.4713   66.6636 C   0  0  0  0  0  0  0  0  0  0  0  0
   39.8031    1.4969   67.5951 C   0  0  0  0  0  0  0  0  0  0  0  0
   40.8207    1.7785   68.5091 C   0  0  0  0  0  0  0  0  0  0  0  0
   41.9868    1.0367   68.5097 C   0  0  0  0  0  0  0  0  0  0  0  0
   42.1594    0.0037   67.6040 C   0  0  0  0  0  0  0  0  0  0  0  0
   38.5776    2.2969   67.5917 C   0  0  0  0  0  0  0  0  0  0  0  0
   37.3981    1.8153   67.9666 C   0  0  0  0  0  0  0  0  0  0  0  0
   36.2606    2.6624   67.9813 C   0  0  0  0  0  0  0  0  0  0  0  0
   35.3669    3.3617   68.0096 N   0  0  0  0  0  0  0  0  0  0  0  0
   39.1266   -1.9190   64.8974 C   0  0  0  0  0  0  0  0  0  0  0  0
   38.5333   -2.0938   66.2926 C   0  0  0  0  0  0  0  0  0  0  0  0
   37.0162   -1.8984   66.3111 C   0  0  0  0  0  0  0  0  0  0  0  0
   36.6205   -0.6177   65.6189 C   0  0  0  0  0  0  0  0  0  0  0  0
   37.1393   -0.5797   64.2020 C   0  0  0  0  0  0  0  0  0  0  0  0
   38.6611   -0.6649   64.1745 C   0  0  0  0  0  0  0  0  0  0  0  0
 23 22  3  0  0  0
 22 21  1  0  0  0
 21 20  2  0  0  0
 17 18  2  0  0  0
 17 16  1  0  0  0
 18 19  1  0  0  0
 20 16  1  0  0  0
 16 15  2  0  0  0
 19 14  2  0  0  0
 15 14  1  0  0  0
 14  5  1  0  0  0
 28 29  1  0  0  0
 28 27  1  0  0  0
 29 24  1  0  0  0
  5  6  1  0  0  0
  5  7  2  0  0  0
 24  6  1  0  0  0
 24 25  1  0  0  0
 27 26  1  0  0  0
  6 10  1  0  0  0
  7  8  1  0  0  0
 26 25  1  0  0  0
 10  8  2  0  0  0
 10 11  1  0  0  0
  8  1  1  0  0  0
 11  2  1  0  0  0
 11 12  2  0  0  0
  1  9  2  0  0  0
  2  3  2  0  0  0
 12  9  1  0  0  0
 12  4  1  0  0  0
  3  4  1  0  0  0
  4 13  1  0  0  0
M  END
> <minimizedAffinity>
-9.02012

$$$$
6GL9_F3W_A_1201


 29 33  0  0  0  0  0  0  0  0999 V2000
   44.2674   -3.3679   63.7648 C   0  0  0  0  0  0  0  0  0  0  0  0
   40.4441   -4.2345   62.3315 C   0  0  0  0  0  0  0  0  0  0  0  0
   40.9010   -5.0602   61.3592 C   0  0  0  0  0  0  0  0  0  0  0  0
   42.2659   -5.1877   61.4516 N   0  0  0  0  0  0  0  0  0  0  0  0
   42.1963   -1.3895   65.7505 C   0  0  0  0  0  0  0  0  0  0  0  0
   41.2239   -1.9999   64.9800 N   0  0  0  0  0  0  0  0  0  0  0  0
   43.4132   -1.7761   65.4354 N   0  0  0  0  0  0  0  0  0  0  0  0
   43.2508   -2.6851   64.4080 C   0  0  0  0  0  0  0  0  0  0  0  0
   44.0481   -4.2577   62.7962 N   0  0  0  0  0  0  0  0  0  0  0  0
   41.8990   -2.8673   64.0891 C   0  0  0  0  0  0  0  0  0  0  0  0
   41.5913   -3.7907   63.0647 C   0  0  0  0  0  0  0  0  0  0  0  0
   42.7485   -4.4340   62.4723 C   0  0  0  0  0  0  0  0  0  0  0  0
   42.8176   -5.7483   60.8594 H   0  0  0  0  0  0  0  0  0  0  0  0
   41.9685   -0.3914   66.8083 C   0  0  0  0  0  0  0  0  0  0  0  0
   40.7596    0.2710   67.0196 C   0  0  0  0  0  0  0  0  0  0  0  0
   40.6469    1.2802   67.9832 C   0  0  0  0  0  0  0  0  0  0  0  0
   41.7841    1.6425   68.7085 C   0  0  0  0  0  0  0  0  0  0  0  0
   42.9859    0.9937   68.4970 C   0  0  0  0  0  0  0  0  0  0  0  0
   43.0764   -0.0250   67.5636 C   0  0  0  0  0  0  0  0  0  0  0  0
   39.3818    1.9824   68.2028 C   0  0  0  0  0  0  0  0  0  0  0  0
   38.2060    1.4874   67.8337 C   0  0  0  0  0  0  0  0  0  0  0  0
   37.0158    2.2035   68.1203 C   0  0  0  0  0  0  0  0  0  0  0  0
   36.0473    2.7491   68.3504 N   0  0  0  0  0  0  0  0  0  0  0  0
   39.7615   -1.7687   65.0120 C   0  0  0  0  0  0  0  0  0  0  0  0
   39.2273   -1.2936   63.6637 C   0  0  0  0  0  0  0  0  0  0  0  0
   37.7064   -1.1298   63.6626 C   0  0  0  0  0  0  0  0  0  0  0  0
   37.0228   -2.3589   64.2085 C   0  0  0  0  0  0  0  0  0  0  0  0
   37.5163   -2.6874   65.5966 C   0  0  0  0  0  0  0  0  0  0  0  0
   39.0162   -2.9598   65.5935 C   0  0  0  0  0  0  0  0  0  0  0  0
 23 22  3  0  0  0
 22 21  1  0  0  0
 21 20  2  0  0  0
 17 18  2  0  0  0
 17 16  1  0  0  0
 18 19  1  0  0  0
 20 16  1  0  0  0
 16 15  2  0  0  0
 19 14  2  0  0  0
 15 14  1  0  0  0
 14  5  1  0  0  0
 28 29  1  0  0  0
 28 27  1  0  0  0
 29 24  1  0  0  0
  5  6  1  0  0  0
  5  7  2  0  0  0
 24  6  1  0  0  0
 24 25  1  0  0  0
 27 26  1  0  0  0
  6 10  1  0  0  0
  7  8  1  0  0  0
 26 25  1  0  0  0
 10  8  2  0  0  0
 10 11  1  0  0  0
  8  1  1  0  0  0
 11  2  1  0  0  0
 11 12  2  0  0  0
  1  9  2  0  0  0
  2  3  2  0  0  0
 12  9  1  0  0  0
 12  4  1  0  0  0
  3  4  1  0  0  0
  4 13  1  0  0  0
M  END
> <minimizedAffinity>
-8.76660

$$$$
6GL9_F3W_A_1201


 29 33  0  0  0  0  0  0  0  0999 V2000
   33.9789    1.9247   63.1080 C   0  0  0  0  0  0  0  0  0  0  0  0
   34.8336   -1.9516   61.8170 C   0  0  0  0  0  0  0  0  0  0  0  0
   33.8452   -1.9545   60.8904 C   0  0  0  0  0  0  0  0  0  0  0  0
   33.2237   -0.7295   60.8599 N   0  0  0  0  0  0  0  0  0  0  0  0
   36.5643    0.9250   65.2205 C   0  0  0  0  0  0  0  0  0  0  0  0
   36.4725   -0.2188   64.4490 N   0  0  0  0  0  0  0  0  0  0  0  0
   35.6977    1.8489   64.8671 N   0  0  0  0  0  0  0  0  0  0  0  0
   34.9928    1.3013   63.8129 C   0  0  0  0  0  0  0  0  0  0  0  0
   33.3517    1.3561   62.0777 N   0  0  0  0  0  0  0  0  0  0  0  0
   35.4432    0.0108   63.5059 C   0  0  0  0  0  0  0  0  0  0  0  0
   34.8178   -0.6572   62.4291 C   0  0  0  0  0  0  0  0  0  0  0  0
   33.7702    0.1069   61.7791 C   0  0  0  0  0  0  0  0  0  0  0  0
   32.4844   -0.4912   60.2551 H   0  0  0  0  0  0  0  0  0  0  0  0
   37.4904    1.1448   66.3435 C   0  0  0  0  0  0  0  0  0  0  0  0
   38.8561    0.8648   66.3050 C   0  0  0  0  0  0  0  0  0  0  0  0
   39.6558    1.0073   67.4451 C   0  0  0  0  0  0  0  0  0  0  0  0
   39.0514    1.4004   68.6412 C   0  0  0  0  0  0  0  0  0  0  0  0
   37.6969    1.6717   68.6855 C   0  0  0  0  0  0  0  0  0  0  0  0
   36.9228    1.5581   67.5431 C   0  0  0  0  0  0  0  0  0  0  0  0
   41.0878    0.7077   67.4103 C   0  0  0  0  0  0  0  0  0  0  0  0
   41.6027   -0.2820   66.6898 C   0  0  0  0  0  0  0  0  0  0  0  0
   43.0062   -0.4852   66.6682 C   0  0  0  0  0  0  0  0  0  0  0  0
   44.1329   -0.6234   66.6707 N   0  0  0  0  0  0  0  0  0  0  0  0
   37.2410   -1.4764   64.5938 C   0  0  0  0  0  0  0  0  0  0  0  0
   38.5362   -1.4521   63.7869 C   0  0  0  0  0  0  0  0  0  0  0  0
   39.3771   -2.7132   63.9934 C   0  0  0  0  0  0  0  0  0  0  0  0
   39.5591   -3.0159   65.4601 C   0  0  0  0  0  0  0  0  0  0  0  0
   38.2283   -3.1496   66.1597 C   0  0  0  0  0  0  0  0  0  0  0  0
   37.4230   -1.8596   66.0539 C   0  0  0  0  0  0  0  0  0  0  0  0
 23 22  3  0  0  0
 22 21  1  0  0  0
 21 20  2  0  0  0
 17 18  2  0  0  0
 17 16  1  0  0  0
 18 19  1  0  0  0
 20 16  1  0  0  0
 16 15  2  0  0  0
 19 14  2  0  0  0
 15 14  1  0  0  0
 14  5  1  0  0  0
 28 29  1  0  0  0
 28 27  1  0  0  0
 29 24  1  0  0  0
  5  6  1  0  0  0
  5  7  2  0  0  0
 24  6  1  0  0  0
 24 25  1  0  0  0
 27 26  1  0  0  0
  6 10  1  0  0  0
  7  8  1  0  0  0
 26 25  1  0  0  0
 10  8  2  0  0  0
 10 11  1  0  0  0
  8  1  1  0  0  0
 11  2  1  0  0  0
 11 12  2  0  0  0
  1  9  2  0  0  0
  2  3  2  0  0  0
 12  9  1  0  0  0
 12  4  1  0  0  0
  3  4  1  0  0  0
  4 13  1  0  0  0
M  END
> <minimizedAffinity>
-8.68216

$$$$
6GL9_F3W_A_1201


 29 33  0  0  0  0  0  0  0  0999 V2000
   43.8688   -0.4450   66.9109 C   0  0  0  0  0  0  0  0  0  0  0  0
   42.3479   -2.8350   63.8454 C   0  0  0  0  0  0  0  0  0  0  0  0
   43.5744   -3.2303   63.4267 C   0  0  0  0  0  0  0  0  0  0  0  0
   44.5438   -2.7110   64.2502 N   0  0  0  0  0  0  0  0  0  0  0  0
   40.4296    0.0829   67.1103 C   0  0  0  0  0  0  0  0  0  0  0  0
   40.4409   -0.8193   66.0626 N   0  0  0  0  0  0  0  0  0  0  0  0
   41.6345    0.3531   67.5629 N   0  0  0  0  0  0  0  0  0  0  0  0
   42.4920   -0.3998   66.7846 C   0  0  0  0  0  0  0  0  0  0  0  0
   44.6455   -1.2148   66.1477 N   0  0  0  0  0  0  0  0  0  0  0  0
   41.7955   -1.1579   65.8346 C   0  0  0  0  0  0  0  0  0  0  0  0
   42.5555   -1.9922   64.9842 C   0  0  0  0  0  0  0  0  0  0  0  0
   43.9857   -1.9425   65.2203 C   0  0  0  0  0  0  0  0  0  0  0  0
   45.5097   -2.8736   64.1506 H   0  0  0  0  0  0  0  0  0  0  0  0
   39.2401    0.7269   67.6911 C   0  0  0  0  0  0  0  0  0  0  0  0
   38.1499    1.1824   66.9504 C   0  0  0  0  0  0  0  0  0  0  0  0
   37.0981    1.8743   67.5626 C   0  0  0  0  0  0  0  0  0  0  0  0
   37.1776    2.1368   68.9320 C   0  0  0  0  0  0  0  0  0  0  0  0
   38.2599    1.6936   69.6685 C   0  0  0  0  0  0  0  0  0  0  0  0
   39.2783    0.9822   69.0570 C   0  0  0  0  0  0  0  0  0  0  0  0
   35.9558    2.3600   66.7874 C   0  0  0  0  0  0  0  0  0  0  0  0
   35.7658    2.0533   65.5092 C   0  0  0  0  0  0  0  0  0  0  0  0
   34.6108    2.5230   64.8333 C   0  0  0  0  0  0  0  0  0  0  0  0
   33.6831    2.9215   64.3144 N   0  0  0  0  0  0  0  0  0  0  0  0
   39.2878   -1.3082   65.2723 C   0  0  0  0  0  0  0  0  0  0  0  0
   38.1656   -1.8349   66.1624 C   0  0  0  0  0  0  0  0  0  0  0  0
   36.9371   -2.2670   65.3599 C   0  0  0  0  0  0  0  0  0  0  0  0
   36.5132   -1.1944   64.3874 C   0  0  0  0  0  0  0  0  0  0  0  0
   37.6437   -0.8203   63.4598 C   0  0  0  0  0  0  0  0  0  0  0  0
   38.8379   -0.2850   64.2414 C   0  0  0  0  0  0  0  0  0  0  0  0
 23 22  3  0  0  0
 22 21  1  0  0  0
 21 20  2  0  0  0
 17 18  2  0  0  0
 17 16  1  0  0  0
 18 19  1  0  0  0
 20 16  1  0  0  0
 16 15  2  0  0  0
 19 14  2  0  0  0
 15 14  1  0  0  0
 14  5  1  0  0  0
 28 29  1  0  0  0
 28 27  1  0  0  0
 29 24  1  0  0  0
  5  6  1  0  0  0
  5  7  2  0  0  0
 24  6  1  0  0  0
 24 25  1  0  0  0
 27 26  1  0  0  0
  6 10  1  0  0  0
  7  8  1  0  0  0
 26 25  1  0  0  0
 10  8  2  0  0  0
 10 11  1  0  0  0
  8  1  1  0  0  0
 11  2  1  0  0  0
 11 12  2  0  0  0
  1  9  2  0  0  0
  2  3  2  0  0  0
 12  9  1  0  0  0
 12  4  1  0  0  0
  3  4  1  0  0  0
  4 13  1  0  0  0
M  END
> <minimizedAffinity>
-8.44434

$$$$
6GL9_F3W_A_1201


 29 33  0  0  0  0  0  0  0  0999 V2000
   38.1513   -3.1885   62.0763 C   0  0  0  0  0  0  0  0  0  0  0  0
   41.1872   -2.6412   64.8883 C   0  0  0  0  0  0  0  0  0  0  0  0
   41.8192   -3.7936   64.5592 C   0  0  0  0  0  0  0  0  0  0  0  0
   41.1793   -4.3977   63.5041 N   0  0  0  0  0  0  0  0  0  0  0  0
   37.2258   -0.2450   63.6968 C   0  0  0  0  0  0  0  0  0  0  0  0
   38.4006   -0.4980   64.3807 N   0  0  0  0  0  0  0  0  0  0  0  0
   36.9599   -1.1561   62.7864 N   0  0  0  0  0  0  0  0  0  0  0  0
   38.0010   -2.0607   62.8631 C   0  0  0  0  0  0  0  0  0  0  0  0
   39.1951   -4.0124   62.1760 N   0  0  0  0  0  0  0  0  0  0  0  0
   38.9344   -1.6917   63.8404 C   0  0  0  0  0  0  0  0  0  0  0  0
   40.0641   -2.5239   64.0078 C   0  0  0  0  0  0  0  0  0  0  0  0
   40.0968   -3.6726   63.1228 C   0  0  0  0  0  0  0  0  0  0  0  0
   41.4661   -5.2400   63.0827 H   0  0  0  0  0  0  0  0  0  0  0  0
   36.3129    0.8871   63.9249 C   0  0  0  0  0  0  0  0  0  0  0  0
   35.9862    1.3949   65.1820 C   0  0  0  0  0  0  0  0  0  0  0  0
   35.0334    2.4102   65.3263 C   0  0  0  0  0  0  0  0  0  0  0  0
   34.3818    2.8832   64.1851 C   0  0  0  0  0  0  0  0  0  0  0  0
   34.6972    2.3774   62.9382 C   0  0  0  0  0  0  0  0  0  0  0  0
   35.6648    1.3959   62.8055 C   0  0  0  0  0  0  0  0  0  0  0  0
   34.6828    2.9407   66.6444 C   0  0  0  0  0  0  0  0  0  0  0  0
   35.4534    2.7862   67.7150 C   0  0  0  0  0  0  0  0  0  0  0  0
   35.0718    3.3675   68.9510 C   0  0  0  0  0  0  0  0  0  0  0  0
   34.7381    3.8188   69.9378 N   0  0  0  0  0  0  0  0  0  0  0  0
   38.9820    0.2725   65.5038 C   0  0  0  0  0  0  0  0  0  0  0  0
   38.7171   -0.3920   66.8519 C   0  0  0  0  0  0  0  0  0  0  0  0
   39.3826    0.3521   68.0110 C   0  0  0  0  0  0  0  0  0  0  0  0
   40.8382    0.6245   67.7231 C   0  0  0  0  0  0  0  0  0  0  0  0
   41.0056    1.3959   66.4365 C   0  0  0  0  0  0  0  0  0  0  0  0
   40.4421    0.6159   65.2541 C   0  0  0  0  0  0  0  0  0  0  0  0
 23 22  3  0  0  0
 22 21  1  0  0  0
 21 20  2  0  0  0
 17 18  2  0  0  0
 17 16  1  0  0  0
 18 19  1  0  0  0
 20 16  1  0  0  0
 16 15  2  0  0  0
 19 14  2  0  0  0
 15 14  1  0  0  0
 14  5  1  0  0  0
 28 29  1  0  0  0
 28 27  1  0  0  0
 29 24  1  0  0  0
  5  6  1  0  0  0
  5  7  2  0  0  0
 24  6  1  0  0  0
 24 25  1  0  0  0
 27 26  1  0  0  0
  6 10  1  0  0  0
  7  8  1  0  0  0
 26 25  1  0  0  0
 10  8  2  0  0  0
 10 11  1  0  0  0
  8  1  1  0  0  0
 11  2  1  0  0  0
 11 12  2  0  0  0
  1  9  2  0  0  0
  2  3  2  0  0  0
 12  9  1  0  0  0
 12  4  1  0  0  0
  3  4  1  0  0  0
  4 13  1  0  0  0
M  END
> <minimizedAffinity>
-8.17250

$$$$
6GL9_F3W_A_1201


 29 33  0  0  0  0  0  0  0  0999 V2000
   42.4558   -4.9600   62.6941 C   0  0  0  0  0  0  0  0  0  0  0  0
   45.3678   -2.4564   64.3296 C   0  0  0  0  0  0  0  0  0  0  0  0
   46.3970   -3.2033   63.8621 C   0  0  0  0  0  0  0  0  0  0  0  0
   45.9182   -4.2430   63.1022 N   0  0  0  0  0  0  0  0  0  0  0  0
   40.5888   -2.5608   64.3985 C   0  0  0  0  0  0  0  0  0  0  0  0
   41.8533   -2.0716   64.6702 N   0  0  0  0  0  0  0  0  0  0  0  0
   40.6116   -3.6529   63.6661 N   0  0  0  0  0  0  0  0  0  0  0  0
   41.9496   -3.9085   63.4368 C   0  0  0  0  0  0  0  0  0  0  0  0
   43.7598   -5.1407   62.4820 N   0  0  0  0  0  0  0  0  0  0  0  0
   42.7694   -2.9443   64.0373 C   0  0  0  0  0  0  0  0  0  0  0  0
   44.1653   -3.0770   63.8614 C   0  0  0  0  0  0  0  0  0  0  0  0
   44.5613   -4.2230   63.0654 C   0  0  0  0  0  0  0  0  0  0  0  0
   46.4813   -4.9102   62.6473 H   0  0  0  0  0  0  0  0  0  0  0  0
   39.3155   -1.9869   64.8636 C   0  0  0  0  0  0  0  0  0  0  0  0
   38.6249   -0.9675   64.2089 C   0  0  0  0  0  0  0  0  0  0  0  0
   37.4699   -0.4042   64.7642 C   0  0  0  0  0  0  0  0  0  0  0  0
   37.0391   -0.8567   66.0132 C   0  0  0  0  0  0  0  0  0  0  0  0
   37.7249   -1.8615   66.6690 C   0  0  0  0  0  0  0  0  0  0  0  0
   38.8475   -2.4329   66.0941 C   0  0  0  0  0  0  0  0  0  0  0  0
   36.7465    0.6705   64.0834 C   0  0  0  0  0  0  0  0  0  0  0  0
   36.2055    0.5286   62.8788 C   0  0  0  0  0  0  0  0  0  0  0  0
   35.4786    1.5997   62.2993 C   0  0  0  0  0  0  0  0  0  0  0  0
   34.9040    2.4458   61.8068 N   0  0  0  0  0  0  0  0  0  0  0  0
   42.2154   -0.9040   65.5061 C   0  0  0  0  0  0  0  0  0  0  0  0
   41.0111   -0.0132   65.7980 C   0  0  0  0  0  0  0  0  0  0  0  0
   41.3572    1.1512   66.7277 C   0  0  0  0  0  0  0  0  0  0  0  0
   42.0933    0.6723   67.9545 C   0  0  0  0  0  0  0  0  0  0  0  0
   43.3402   -0.0915   67.5801 C   0  0  0  0  0  0  0  0  0  0  0  0
   42.9989   -1.3181   66.7417 C   0  0  0  0  0  0  0  0  0  0  0  0
 23 22  3  0  0  0
 22 21  1  0  0  0
 21 20  2  0  0  0
 17 18  2  0  0  0
 17 16  1  0  0  0
 18 19  1  0  0  0
 20 16  1  0  0  0
 16 15  2  0  0  0
 19 14  2  0  0  0
 15 14  1  0  0  0
 14  5  1  0  0  0
 28 29  1  0  0  0
 28 27  1  0  0  0
 29 24  1  0  0  0
  5  6  1  0  0  0
  5  7  2  0  0  0
 24  6  1  0  0  0
 24 25  1  0  0  0
 27 26  1  0  0  0
  6 10  1  0  0  0
  7  8  1  0  0  0
 26 25  1  0  0  0
 10  8  2  0  0  0
 10 11  1  0  0  0
  8  1  1  0  0  0
 11  2  1  0  0  0
 11 12  2  0  0  0
  1  9  2  0  0  0
  2  3  2  0  0  0
 12  9  1  0  0  0
 12  4  1  0  0  0
  3  4  1  0  0  0
  4 13  1  0  0  0
M  END
> <minimizedAffinity>
-8.14044

$$$$
6GL9_F3W_A_1201


 29 33  0  0  0  0  0  0  0  0999 V2000
   41.7530    1.4031   69.0960 C   0  0  0  0  0  0  0  0  0  0  0  0
   37.9066    0.9497   67.5395 C   0  0  0  0  0  0  0  0  0  0  0  0
   37.3243    1.6528   68.5407 C   0  0  0  0  0  0  0  0  0  0  0  0
   38.2841    2.1435   69.3925 N   0  0  0  0  0  0  0  0  0  0  0  0
   42.2520   -0.6023   66.2896 C   0  0  0  0  0  0  0  0  0  0  0  0
   40.8844   -0.4303   66.1814 N   0  0  0  0  0  0  0  0  0  0  0  0
   42.7619    0.0135   67.3338 N   0  0  0  0  0  0  0  0  0  0  0  0
   41.6898    0.6248   67.9542 C   0  0  0  0  0  0  0  0  0  0  0  0
   40.6857    1.9934   69.6352 N   0  0  0  0  0  0  0  0  0  0  0  0
   40.4917    0.3847   67.2691 C   0  0  0  0  0  0  0  0  0  0  0  0
   39.3165    0.9728   67.7886 C   0  0  0  0  0  0  0  0  0  0  0  0
   39.5224    1.7602   68.9892 C   0  0  0  0  0  0  0  0  0  0  0  0
   38.0994    2.6967   70.1856 H   0  0  0  0  0  0  0  0  0  0  0  0
   43.1037   -1.3922   65.3853 C   0  0  0  0  0  0  0  0  0  0  0  0
   42.6356   -2.0949   64.2754 C   0  0  0  0  0  0  0  0  0  0  0  0
   43.4908   -2.9048   63.5190 C   0  0  0  0  0  0  0  0  0  0  0  0
   44.8228   -3.0291   63.9201 C   0  0  0  0  0  0  0  0  0  0  0  0
   45.2891   -2.3403   65.0239 C   0  0  0  0  0  0  0  0  0  0  0  0
   44.4407   -1.5170   65.7447 C   0  0  0  0  0  0  0  0  0  0  0  0
   43.0016   -3.6492   62.3578 C   0  0  0  0  0  0  0  0  0  0  0  0
   42.0712   -4.5931   62.4430 C   0  0  0  0  0  0  0  0  0  0  0  0
   41.6120   -5.2416   61.2682 C   0  0  0  0  0  0  0  0  0  0  0  0
   41.2428   -5.7879   60.3441 N   0  0  0  0  0  0  0  0  0  0  0  0
   39.9714   -1.0193   65.1750 C   0  0  0  0  0  0  0  0  0  0  0  0
   39.0906   -2.1134   65.7717 C   0  0  0  0  0  0  0  0  0  0  0  0
   38.0875   -2.6722   64.7610 C   0  0  0  0  0  0  0  0  0  0  0  0
   37.3292   -1.5646   64.0724 C   0  0  0  0  0  0  0  0  0  0  0  0
   38.2700   -0.5945   63.3999 C   0  0  0  0  0  0  0  0  0  0  0  0
   39.2059    0.0521   64.4146 C   0  0  0  0  0  0  0  0  0  0  0  0
 23 22  3  0  0  0
 22 21  1  0  0  0
 21 20  2  0  0  0
 17 18  2  0  0  0
 17 16  1  0  0  0
 18 19  1  0  0  0
 20 16  1  0  0  0
 16 15  2  0  0  0
 19 14  2  0  0  0
 15 14  1  0  0  0
 14  5  1  0  0  0
 28 29  1  0  0  0
 28 27  1  0  0  0
 29 24  1  0  0  0
  5  6  1  0  0  0
  5  7  2  0  0  0
 24  6  1  0  0  0
 24 25  1  0  0  0
 27 26  1  0  0  0
  6 10  1  0  0  0
  7  8  1  0  0  0
 26 25  1  0  0  0
 10  8  2  0  0  0
 10 11  1  0  0  0
  8  1  1  0  0  0
 11  2  1  0  0  0
 11 12  2  0  0  0
  1  9  2  0  0  0
  2  3  2  0  0  0
 12  9  1  0  0  0
 12  4  1  0  0  0
  3  4  1  0  0  0
  4 13  1  0  0  0
M  END
> <minimizedAffinity>
-8.12884

$$$$
