5DKN_B7I_A_103


 33 36  0  0  0  0  0  0  0  0999 V2000
   59.9050   -5.6245   47.9253 C   0  0  0  0  0  0  0  0  0  0  0  0
   59.3663   -5.2443   46.5792 C   0  0  0  0  0  0  0  0  0  0  0  0
   58.5161   -6.2646   45.8912 C   0  0  0  0  0  0  0  0  0  0  0  0
   58.6719   -7.6915   46.3034 C   0  0  0  0  0  0  0  0  0  0  0  0
   58.3560   -8.6637   45.3799 O   0  0  0  0  0  0  0  0  0  0  0  0
   58.8515  -11.7164   47.3213 C   0  0  0  0  0  0  0  0  0  0  0  0
   59.1185  -12.6241   46.3076 C   0  0  0  0  0  0  0  0  0  0  0  0
   59.1302  -12.2142   44.9828 C   0  0  0  0  0  0  0  0  0  0  0  0
   58.8784  -10.8863   44.6697 C   0  0  0  0  0  0  0  0  0  0  0  0
   58.6134   -9.9754   45.6830 C   0  0  0  0  0  0  0  0  0  0  0  0
   58.6007  -10.3863   47.0083 C   0  0  0  0  0  0  0  0  0  0  0  0
   59.3939  -14.0581   46.6316 C   0  0  0  0  0  0  0  0  0  0  0  0
   60.0597  -14.4886   47.7136 N   0  0  0  0  0  0  0  0  0  0  0  0
   60.1063  -15.8344   47.6610 C   0  0  0  0  0  0  0  0  0  0  0  0
   59.4477  -16.2312   46.4994 C   0  0  0  0  0  0  0  0  0  0  0  0
   59.0185  -15.1089   45.8902 N   0  0  0  0  0  0  0  0  0  0  0  0
   60.4456  -13.9222   48.4204 H   0  0  0  0  0  0  0  0  0  0  0  0
   60.8212   -4.6566   48.6152 C   0  0  0  0  0  0  0  0  0  0  0  0
   61.3445   -3.5054   47.8081 C   0  0  0  0  0  0  0  0  0  0  0  0
   62.8177   -3.4520   47.5586 C   0  0  0  0  0  0  0  0  0  0  0  0
   63.2637   -3.4308   46.2486 O   0  0  0  0  0  0  0  0  0  0  0  0
   62.7572   -4.3874   45.3992 C   0  0  0  0  0  0  0  0  0  0  0  0
   62.9379   -5.7378   45.6575 C   0  0  0  0  0  0  0  0  0  0  0  0
   62.4088   -6.6778   44.7844 C   0  0  0  0  0  0  0  0  0  0  0  0
   61.6955   -6.2606   43.6677 C   0  0  0  0  0  0  0  0  0  0  0  0
   61.5111   -4.9115   43.4214 C   0  0  0  0  0  0  0  0  0  0  0  0
   62.0437   -3.9752   44.2875 C   0  0  0  0  0  0  0  0  0  0  0  0
   61.1109   -7.2481   42.7237 C   0  0  0  0  0  0  0  0  0  0  0  0
   59.9097   -7.8243   42.8715 N   0  0  0  0  0  0  0  0  0  0  0  0
   59.7113   -8.6559   41.8327 C   0  0  0  0  0  0  0  0  0  0  0  0
   60.8413   -8.5840   41.0220 C   0  0  0  0  0  0  0  0  0  0  0  0
   61.6829   -7.7026   41.6004 N   0  0  0  0  0  0  0  0  0  0  0  0
   59.2810   -7.6663   43.6125 H   0  0  0  0  0  0  0  0  0  0  0  0
 30 31  2  0  0  0
 30 29  1  0  0  0
 13 14  1  0  0  0
 13 12  1  0  0  0
 31 32  1  0  0  0
  8  9  2  0  0  0
  8  7  1  0  0  0
  9 10  1  0  0  0
 14 15  2  0  0  0
 29 28  1  0  0  0
 32 28  2  0  0  0
 28 25  1  0  0  0
 12  7  1  0  0  0
 12 16  2  0  0  0
  7  6  2  0  0  0
 24 25  2  0  0  0
 24 23  1  0  0  0
 10  5  1  0  0  0
 10 11  2  0  0  0
  5  4  1  0  0  0
 25 26  1  0  0  0
 15 16  1  0  0  0
 23 22  2  0  0  0
 26 27  2  0  0  0
  6 11  1  0  0  0
  2  3  1  0  0  0
  2  1  1  0  0  0
  4  3  1  0  0  0
 22 27  1  0  0  0
 22 21  1  0  0  0
 19 20  1  0  0  0
 19 18  1  0  0  0
 20 21  1  0  0  0
  1 18  1  0  0  0
 13 17  1  0  0  0
 29 33  1  0  0  0
M  END
> <minimizedAffinity>
-5.38942

$$$$
5DKN_B7I_A_103


 33 36  0  0  0  0  0  0  0  0999 V2000
   61.6526   -7.3012   43.6243 C   0  0  0  0  0  0  0  0  0  0  0  0
   61.9318   -5.9231   44.1435 C   0  0  0  0  0  0  0  0  0  0  0  0
   62.8858   -5.8261   45.2914 C   0  0  0  0  0  0  0  0  0  0  0  0
   63.2093   -4.4649   45.8134 C   0  0  0  0  0  0  0  0  0  0  0  0
   64.3679   -4.3170   46.5438 O   0  0  0  0  0  0  0  0  0  0  0  0
   67.7342   -3.3486   45.5125 C   0  0  0  0  0  0  0  0  0  0  0  0
   67.4805   -2.1118   44.9388 C   0  0  0  0  0  0  0  0  0  0  0  0
   66.1889   -1.6084   44.8974 C   0  0  0  0  0  0  0  0  0  0  0  0
   65.1444   -2.3443   45.4380 C   0  0  0  0  0  0  0  0  0  0  0  0
   65.3964   -3.5814   46.0150 C   0  0  0  0  0  0  0  0  0  0  0  0
   66.6887   -4.0851   46.0553 C   0  0  0  0  0  0  0  0  0  0  0  0
   68.5978   -1.3073   44.3545 C   0  0  0  0  0  0  0  0  0  0  0  0
   69.5069   -1.7710   43.4839 N   0  0  0  0  0  0  0  0  0  0  0  0
   70.3472   -0.7600   43.1872 C   0  0  0  0  0  0  0  0  0  0  0  0
   69.9323    0.3556   43.9109 C   0  0  0  0  0  0  0  0  0  0  0  0
   68.8481   -0.0178   44.6181 N   0  0  0  0  0  0  0  0  0  0  0  0
   69.5522   -2.6868   43.1255 H   0  0  0  0  0  0  0  0  0  0  0  0
   60.3528   -7.9469   44.0067 C   0  0  0  0  0  0  0  0  0  0  0  0
   59.4923   -7.2297   45.0044 C   0  0  0  0  0  0  0  0  0  0  0  0
   58.6770   -8.0656   45.9383 C   0  0  0  0  0  0  0  0  0  0  0  0
   57.9362   -9.1095   45.4121 O   0  0  0  0  0  0  0  0  0  0  0  0
   58.3673  -10.3860   45.6912 C   0  0  0  0  0  0  0  0  0  0  0  0
   58.6541  -11.2806   44.6712 C   0  0  0  0  0  0  0  0  0  0  0  0
   59.0932  -12.5588   44.9860 C   0  0  0  0  0  0  0  0  0  0  0  0
   59.2515  -12.9280   46.3159 C   0  0  0  0  0  0  0  0  0  0  0  0
   58.9724  -12.0270   47.3282 C   0  0  0  0  0  0  0  0  0  0  0  0
   58.5289  -10.7560   47.0147 C   0  0  0  0  0  0  0  0  0  0  0  0
   59.7297  -14.2876   46.6779 C   0  0  0  0  0  0  0  0  0  0  0  0
   60.4494  -14.5757   47.7715 N   0  0  0  0  0  0  0  0  0  0  0  0
   60.6991  -15.8977   47.7746 C   0  0  0  0  0  0  0  0  0  0  0  0
   60.1090  -16.4340   46.6329 C   0  0  0  0  0  0  0  0  0  0  0  0
   59.5162  -15.4123   45.9815 N   0  0  0  0  0  0  0  0  0  0  0  0
   60.7444  -13.9310   48.4546 H   0  0  0  0  0  0  0  0  0  0  0  0
 30 31  2  0  0  0
 30 29  1  0  0  0
 13 14  1  0  0  0
 13 12  1  0  0  0
 31 32  1  0  0  0
  8  9  2  0  0  0
  8  7  1  0  0  0
  9 10  1  0  0  0
 14 15  2  0  0  0
 29 28  1  0  0  0
 32 28  2  0  0  0
 28 25  1  0  0  0
 12  7  1  0  0  0
 12 16  2  0  0  0
  7  6  2  0  0  0
 24 25  2  0  0  0
 24 23  1  0  0  0
 10  5  1  0  0  0
 10 11  2  0  0  0
  5  4  1  0  0  0
 25 26  1  0  0  0
 15 16  1  0  0  0
 23 22  2  0  0  0
 26 27  2  0  0  0
  6 11  1  0  0  0
  2  3  1  0  0  0
  2  1  1  0  0  0
  4  3  1  0  0  0
 22 27  1  0  0  0
 22 21  1  0  0  0
 19 20  1  0  0  0
 19 18  1  0  0  0
 20 21  1  0  0  0
  1 18  1  0  0  0
 13 17  1  0  0  0
 29 33  1  0  0  0
M  END
> <minimizedAffinity>
-5.37835

$$$$
5DKN_B7I_A_103


 33 36  0  0  0  0  0  0  0  0999 V2000
   61.7922   -5.8433   44.5258 C   0  0  0  0  0  0  0  0  0  0  0  0
   61.7225   -7.1749   43.8412 C   0  0  0  0  0  0  0  0  0  0  0  0
   60.3603   -7.7737   43.6897 C   0  0  0  0  0  0  0  0  0  0  0  0
   59.4943   -7.8473   44.9040 C   0  0  0  0  0  0  0  0  0  0  0  0
   58.4454   -8.7404   44.8903 O   0  0  0  0  0  0  0  0  0  0  0  0
   58.7587  -11.4897   47.2727 C   0  0  0  0  0  0  0  0  0  0  0  0
   59.0210  -12.5454   46.4126 C   0  0  0  0  0  0  0  0  0  0  0  0
   59.0903  -12.3353   45.0436 C   0  0  0  0  0  0  0  0  0  0  0  0
   58.9012  -11.0600   44.5312 C   0  0  0  0  0  0  0  0  0  0  0  0
   58.6410  -10.0013   45.3905 C   0  0  0  0  0  0  0  0  0  0  0  0
   58.5708  -10.2122   46.7602 C   0  0  0  0  0  0  0  0  0  0  0  0
   59.2291  -13.9247   46.9521 C   0  0  0  0  0  0  0  0  0  0  0  0
   60.4164  -14.5412   47.0519 N   0  0  0  0  0  0  0  0  0  0  0  0
   60.2040  -15.7622   47.5813 C   0  0  0  0  0  0  0  0  0  0  0  0
   58.8349  -15.8896   47.8046 C   0  0  0  0  0  0  0  0  0  0  0  0
   58.2647  -14.7355   47.4073 N   0  0  0  0  0  0  0  0  0  0  0  0
   61.2877  -14.1681   46.7859 H   0  0  0  0  0  0  0  0  0  0  0  0
   62.6632   -5.7224   45.7420 C   0  0  0  0  0  0  0  0  0  0  0  0
   62.1961   -4.8116   46.8387 C   0  0  0  0  0  0  0  0  0  0  0  0
   62.6869   -3.3995   46.8177 C   0  0  0  0  0  0  0  0  0  0  0  0
   63.8310   -3.0890   47.5319 O   0  0  0  0  0  0  0  0  0  0  0  0
   64.9791   -2.8632   46.8080 C   0  0  0  0  0  0  0  0  0  0  0  0
   65.2950   -1.5930   46.3502 C   0  0  0  0  0  0  0  0  0  0  0  0
   66.4640   -1.3974   45.6283 C   0  0  0  0  0  0  0  0  0  0  0  0
   67.3112   -2.4699   45.3794 C   0  0  0  0  0  0  0  0  0  0  0  0
   66.9941   -3.7328   45.8475 C   0  0  0  0  0  0  0  0  0  0  0  0
   65.8266   -3.9288   46.5610 C   0  0  0  0  0  0  0  0  0  0  0  0
   68.5732   -2.2837   44.6174 C   0  0  0  0  0  0  0  0  0  0  0  0
   68.9817   -1.1194   44.0933 N   0  0  0  0  0  0  0  0  0  0  0  0
   70.1612   -1.3252   43.4798 C   0  0  0  0  0  0  0  0  0  0  0  0
   70.4804   -2.6718   43.6351 C   0  0  0  0  0  0  0  0  0  0  0  0
   69.4799   -3.2320   44.3455 N   0  0  0  0  0  0  0  0  0  0  0  0
   68.5014   -0.2618   44.1480 H   0  0  0  0  0  0  0  0  0  0  0  0
 30 31  2  0  0  0
 30 29  1  0  0  0
 13 14  1  0  0  0
 13 12  1  0  0  0
 31 32  1  0  0  0
  8  9  2  0  0  0
  8  7  1  0  0  0
  9 10  1  0  0  0
 14 15  2  0  0  0
 29 28  1  0  0  0
 32 28  2  0  0  0
 28 25  1  0  0  0
 12  7  1  0  0  0
 12 16  2  0  0  0
  7  6  2  0  0  0
 24 25  2  0  0  0
 24 23  1  0  0  0
 10  5  1  0  0  0
 10 11  2  0  0  0
  5  4  1  0  0  0
 25 26  1  0  0  0
 15 16  1  0  0  0
 23 22  2  0  0  0
 26 27  2  0  0  0
  6 11  1  0  0  0
  2  3  1  0  0  0
  2  1  1  0  0  0
  4  3  1  0  0  0
 22 27  1  0  0  0
 22 21  1  0  0  0
 19 20  1  0  0  0
 19 18  1  0  0  0
 20 21  1  0  0  0
  1 18  1  0  0  0
 13 17  1  0  0  0
 29 33  1  0  0  0
M  END
> <minimizedAffinity>
-5.35579

$$$$
5DKN_B7I_A_103


 33 36  0  0  0  0  0  0  0  0999 V2000
   62.0232   -5.9396   44.3079 C   0  0  0  0  0  0  0  0  0  0  0  0
   62.8160   -5.9559   45.5799 C   0  0  0  0  0  0  0  0  0  0  0  0
   62.2810   -5.1310   46.7070 C   0  0  0  0  0  0  0  0  0  0  0  0
   62.6442   -3.6829   46.7421 C   0  0  0  0  0  0  0  0  0  0  0  0
   63.7738   -3.3220   47.4433 O   0  0  0  0  0  0  0  0  0  0  0  0
   66.3298   -1.5576   45.5233 C   0  0  0  0  0  0  0  0  0  0  0  0
   67.2740   -2.5617   45.3703 C   0  0  0  0  0  0  0  0  0  0  0  0
   67.0542   -3.8205   45.9092 C   0  0  0  0  0  0  0  0  0  0  0  0
   65.8800   -4.0787   46.6014 C   0  0  0  0  0  0  0  0  0  0  0  0
   64.9324   -3.0758   46.7537 C   0  0  0  0  0  0  0  0  0  0  0  0
   65.1532   -1.8162   46.2152 C   0  0  0  0  0  0  0  0  0  0  0  0
   68.5430   -2.2973   44.6242 C   0  0  0  0  0  0  0  0  0  0  0  0
   68.9380   -1.0951   44.1791 N   0  0  0  0  0  0  0  0  0  0  0  0
   70.1243   -1.2539   43.5595 C   0  0  0  0  0  0  0  0  0  0  0  0
   70.4554   -2.6052   43.6288 C   0  0  0  0  0  0  0  0  0  0  0  0
   69.4582   -3.2187   44.2953 N   0  0  0  0  0  0  0  0  0  0  0  0
   68.4485   -0.2476   44.2859 H   0  0  0  0  0  0  0  0  0  0  0  0
   61.4795   -7.2435   43.8012 C   0  0  0  0  0  0  0  0  0  0  0  0
   60.2177   -7.7568   44.4296 C   0  0  0  0  0  0  0  0  0  0  0  0
   59.6468   -9.0288   43.8895 C   0  0  0  0  0  0  0  0  0  0  0  0
   58.5571   -9.5878   44.5341 O   0  0  0  0  0  0  0  0  0  0  0  0
   58.7709  -10.7590   45.2239 C   0  0  0  0  0  0  0  0  0  0  0  0
   58.6432  -10.8071   46.6038 C   0  0  0  0  0  0  0  0  0  0  0  0
   58.8591  -12.0056   47.2692 C   0  0  0  0  0  0  0  0  0  0  0  0
   59.1902  -13.1467   46.5494 C   0  0  0  0  0  0  0  0  0  0  0  0
   59.3065  -13.0934   45.1717 C   0  0  0  0  0  0  0  0  0  0  0  0
   59.0978  -11.8982   44.5096 C   0  0  0  0  0  0  0  0  0  0  0  0
   59.4165  -14.4438   47.2383 C   0  0  0  0  0  0  0  0  0  0  0  0
   58.4620  -15.1560   47.8536 N   0  0  0  0  0  0  0  0  0  0  0  0
   59.0267  -16.2675   48.3593 C   0  0  0  0  0  0  0  0  0  0  0  0
   60.3817  -16.2265   48.0405 C   0  0  0  0  0  0  0  0  0  0  0  0
   60.5861  -15.0889   47.3451 N   0  0  0  0  0  0  0  0  0  0  0  0
   57.5117  -14.9085   47.9235 H   0  0  0  0  0  0  0  0  0  0  0  0
 30 31  2  0  0  0
 30 29  1  0  0  0
 13 14  1  0  0  0
 13 12  1  0  0  0
 31 32  1  0  0  0
  8  9  2  0  0  0
  8  7  1  0  0  0
  9 10  1  0  0  0
 14 15  2  0  0  0
 29 28  1  0  0  0
 32 28  2  0  0  0
 28 25  1  0  0  0
 12  7  1  0  0  0
 12 16  2  0  0  0
  7  6  2  0  0  0
 24 25  2  0  0  0
 24 23  1  0  0  0
 10  5  1  0  0  0
 10 11  2  0  0  0
  5  4  1  0  0  0
 25 26  1  0  0  0
 15 16  1  0  0  0
 23 22  2  0  0  0
 26 27  2  0  0  0
  6 11  1  0  0  0
  2  3  1  0  0  0
  2  1  1  0  0  0
  4  3  1  0  0  0
 22 27  1  0  0  0
 22 21  1  0  0  0
 19 20  1  0  0  0
 19 18  1  0  0  0
 20 21  1  0  0  0
  1 18  1  0  0  0
 13 17  1  0  0  0
 29 33  1  0  0  0
M  END
> <minimizedAffinity>
-5.34665

$$$$
5DKN_B7I_A_103


 33 36  0  0  0  0  0  0  0  0999 V2000
   62.2027   -3.9706   44.2497 C   0  0  0  0  0  0  0  0  0  0  0  0
   61.9651   -2.7883   45.1398 C   0  0  0  0  0  0  0  0  0  0  0  0
   61.8447   -3.0719   46.6034 C   0  0  0  0  0  0  0  0  0  0  0  0
   62.6971   -2.2780   47.5378 C   0  0  0  0  0  0  0  0  0  0  0  0
   63.8658   -2.8537   47.9856 O   0  0  0  0  0  0  0  0  0  0  0  0
   66.5285   -1.4899   45.8920 C   0  0  0  0  0  0  0  0  0  0  0  0
   67.2450   -2.6422   45.6058 C   0  0  0  0  0  0  0  0  0  0  0  0
   66.8376   -3.8668   46.1135 C   0  0  0  0  0  0  0  0  0  0  0  0
   65.7031   -3.9407   46.9085 C   0  0  0  0  0  0  0  0  0  0  0  0
   64.9830   -2.7889   47.1943 C   0  0  0  0  0  0  0  0  0  0  0  0
   65.3915   -1.5637   46.6869 C   0  0  0  0  0  0  0  0  0  0  0  0
   68.4684   -2.5769   44.7480 C   0  0  0  0  0  0  0  0  0  0  0  0
   69.3084   -3.5990   44.5260 N   0  0  0  0  0  0  0  0  0  0  0  0
   70.2850   -3.1601   43.7075 C   0  0  0  0  0  0  0  0  0  0  0  0
   70.0274   -1.8197   43.4291 C   0  0  0  0  0  0  0  0  0  0  0  0
   68.8969   -1.4940   44.0856 N   0  0  0  0  0  0  0  0  0  0  0  0
   69.2260   -4.5079   44.8952 H   0  0  0  0  0  0  0  0  0  0  0  0
   62.7447   -5.2233   44.8739 C   0  0  0  0  0  0  0  0  0  0  0  0
   61.9431   -6.4804   44.7082 C   0  0  0  0  0  0  0  0  0  0  0  0
   60.4549   -6.3655   44.7960 C   0  0  0  0  0  0  0  0  0  0  0  0
   59.6814   -7.2730   44.0935 O   0  0  0  0  0  0  0  0  0  0  0  0
   59.2766   -8.4033   44.7658 C   0  0  0  0  0  0  0  0  0  0  0  0
   58.7182   -8.3178   46.0322 C   0  0  0  0  0  0  0  0  0  0  0  0
   58.3141   -9.4762   46.6809 C   0  0  0  0  0  0  0  0  0  0  0  0
   58.4619  -10.7074   46.0546 C   0  0  0  0  0  0  0  0  0  0  0  0
   59.0112  -10.7840   44.7870 C   0  0  0  0  0  0  0  0  0  0  0  0
   59.4197   -9.6309   44.1436 C   0  0  0  0  0  0  0  0  0  0  0  0
   58.0276  -11.9606   46.7247 C   0  0  0  0  0  0  0  0  0  0  0  0
   56.9973  -12.0506   47.5775 N   0  0  0  0  0  0  0  0  0  0  0  0
   56.8966  -13.3298   47.9821 C   0  0  0  0  0  0  0  0  0  0  0  0
   57.9107  -14.0456   47.3508 C   0  0  0  0  0  0  0  0  0  0  0  0
   58.5868  -13.1696   46.5794 N   0  0  0  0  0  0  0  0  0  0  0  0
   56.4148  -11.3086   47.8593 H   0  0  0  0  0  0  0  0  0  0  0  0
 30 31  2  0  0  0
 30 29  1  0  0  0
 13 14  1  0  0  0
 13 12  1  0  0  0
 31 32  1  0  0  0
  8  9  2  0  0  0
  8  7  1  0  0  0
  9 10  1  0  0  0
 14 15  2  0  0  0
 29 28  1  0  0  0
 32 28  2  0  0  0
 28 25  1  0  0  0
 12  7  1  0  0  0
 12 16  2  0  0  0
  7  6  2  0  0  0
 24 25  2  0  0  0
 24 23  1  0  0  0
 10  5  1  0  0  0
 10 11  2  0  0  0
  5  4  1  0  0  0
 25 26  1  0  0  0
 15 16  1  0  0  0
 23 22  2  0  0  0
 26 27  2  0  0  0
  6 11  1  0  0  0
  2  3  1  0  0  0
  2  1  1  0  0  0
  4  3  1  0  0  0
 22 27  1  0  0  0
 22 21  1  0  0  0
 19 20  1  0  0  0
 19 18  1  0  0  0
 20 21  1  0  0  0
  1 18  1  0  0  0
 13 17  1  0  0  0
 29 33  1  0  0  0
M  END
> <minimizedAffinity>
-5.29995

$$$$
5DKN_B7I_A_103


 33 36  0  0  0  0  0  0  0  0999 V2000
   64.9864   -2.3828   47.9540 C   0  0  0  0  0  0  0  0  0  0  0  0
   65.0524   -3.7138   47.2680 C   0  0  0  0  0  0  0  0  0  0  0  0
   64.6611   -3.7376   45.8246 C   0  0  0  0  0  0  0  0  0  0  0  0
   63.3413   -4.3407   45.4719 C   0  0  0  0  0  0  0  0  0  0  0  0
   62.9653   -5.4906   46.1308 O   0  0  0  0  0  0  0  0  0  0  0  0
   59.4275   -6.3888   46.2339 C   0  0  0  0  0  0  0  0  0  0  0  0
   59.0662   -5.8658   47.4663 C   0  0  0  0  0  0  0  0  0  0  0  0
   60.0039   -5.2182   48.2567 C   0  0  0  0  0  0  0  0  0  0  0  0
   61.3107   -5.0881   47.8095 C   0  0  0  0  0  0  0  0  0  0  0  0
   61.6741   -5.6088   46.5751 C   0  0  0  0  0  0  0  0  0  0  0  0
   60.7357   -6.2575   45.7851 C   0  0  0  0  0  0  0  0  0  0  0  0
   57.6602   -5.9970   47.9592 C   0  0  0  0  0  0  0  0  0  0  0  0
   57.0997   -5.2245   48.9018 N   0  0  0  0  0  0  0  0  0  0  0  0
   55.8301   -5.6417   49.0759 C   0  0  0  0  0  0  0  0  0  0  0  0
   55.6179   -6.7109   48.2085 C   0  0  0  0  0  0  0  0  0  0  0  0
   56.7678   -6.9007   47.5328 N   0  0  0  0  0  0  0  0  0  0  0  0
   57.5378   -4.4845   49.3811 H   0  0  0  0  0  0  0  0  0  0  0  0
   64.2871   -1.2600   47.2450 C   0  0  0  0  0  0  0  0  0  0  0  0
   65.1217   -0.0925   46.8082 C   0  0  0  0  0  0  0  0  0  0  0  0
   65.8524   -0.2151   45.5095 C   0  0  0  0  0  0  0  0  0  0  0  0
   67.1849    0.1561   45.4657 O   0  0  0  0  0  0  0  0  0  0  0  0
   68.0794   -0.7766   44.9932 C   0  0  0  0  0  0  0  0  0  0  0  0
   67.8831   -2.1307   45.2185 C   0  0  0  0  0  0  0  0  0  0  0  0
   68.8006   -3.0464   44.7229 C   0  0  0  0  0  0  0  0  0  0  0  0
   69.8994   -2.6020   43.9984 C   0  0  0  0  0  0  0  0  0  0  0  0
   70.0837   -1.2499   43.7694 C   0  0  0  0  0  0  0  0  0  0  0  0
   69.1734   -0.3374   44.2686 C   0  0  0  0  0  0  0  0  0  0  0  0
   70.8901   -3.5637   43.4492 C   0  0  0  0  0  0  0  0  0  0  0  0
   70.9468   -4.8644   43.7684 N   0  0  0  0  0  0  0  0  0  0  0  0
   71.9609   -5.4221   43.0824 C   0  0  0  0  0  0  0  0  0  0  0  0
   72.5466   -4.4168   42.3172 C   0  0  0  0  0  0  0  0  0  0  0  0
   71.8577   -3.2840   42.5654 N   0  0  0  0  0  0  0  0  0  0  0  0
   70.3494   -5.3311   44.3966 H   0  0  0  0  0  0  0  0  0  0  0  0
 30 31  2  0  0  0
 30 29  1  0  0  0
 13 14  1  0  0  0
 13 12  1  0  0  0
 31 32  1  0  0  0
  8  9  2  0  0  0
  8  7  1  0  0  0
  9 10  1  0  0  0
 14 15  2  0  0  0
 29 28  1  0  0  0
 32 28  2  0  0  0
 28 25  1  0  0  0
 12  7  1  0  0  0
 12 16  2  0  0  0
  7  6  2  0  0  0
 24 25  2  0  0  0
 24 23  1  0  0  0
 10  5  1  0  0  0
 10 11  2  0  0  0
  5  4  1  0  0  0
 25 26  1  0  0  0
 15 16  1  0  0  0
 23 22  2  0  0  0
 26 27  2  0  0  0
  6 11  1  0  0  0
  2  3  1  0  0  0
  2  1  1  0  0  0
  4  3  1  0  0  0
 22 27  1  0  0  0
 22 21  1  0  0  0
 19 20  1  0  0  0
 19 18  1  0  0  0
 20 21  1  0  0  0
  1 18  1  0  0  0
 13 17  1  0  0  0
 29 33  1  0  0  0
M  END
> <minimizedAffinity>
-5.26166

$$$$
5DKN_B7I_A_103


 33 36  0  0  0  0  0  0  0  0999 V2000
   60.1027   -5.9681   48.0700 C   0  0  0  0  0  0  0  0  0  0  0  0
   58.9999   -6.5866   47.2649 C   0  0  0  0  0  0  0  0  0  0  0  0
   59.2475   -6.7273   45.7966 C   0  0  0  0  0  0  0  0  0  0  0  0
   58.9621   -8.0511   45.1672 C   0  0  0  0  0  0  0  0  0  0  0  0
   58.1333   -8.9180   45.8450 O   0  0  0  0  0  0  0  0  0  0  0  0
   59.0675  -12.3032   44.8448 C   0  0  0  0  0  0  0  0  0  0  0  0
   59.2013  -12.9091   46.0850 C   0  0  0  0  0  0  0  0  0  0  0  0
   58.9810  -12.1857   47.2475 C   0  0  0  0  0  0  0  0  0  0  0  0
   58.6194  -10.8485   47.1695 C   0  0  0  0  0  0  0  0  0  0  0  0
   58.4826  -10.2407   45.9290 C   0  0  0  0  0  0  0  0  0  0  0  0
   58.7040  -10.9647   44.7662 C   0  0  0  0  0  0  0  0  0  0  0  0
   59.5882  -14.3505   46.1832 C   0  0  0  0  0  0  0  0  0  0  0  0
   59.0965  -15.3336   45.4143 N   0  0  0  0  0  0  0  0  0  0  0  0
   59.6805  -16.4868   45.7955 C   0  0  0  0  0  0  0  0  0  0  0  0
   60.5545  -16.1889   46.8385 C   0  0  0  0  0  0  0  0  0  0  0  0
   60.4739  -14.8607   47.0492 N   0  0  0  0  0  0  0  0  0  0  0  0
   58.4280  -15.2309   44.6988 H   0  0  0  0  0  0  0  0  0  0  0  0
   61.0754   -5.0730   47.3594 C   0  0  0  0  0  0  0  0  0  0  0  0
   61.3571   -3.7335   47.9732 C   0  0  0  0  0  0  0  0  0  0  0  0
   62.4744   -2.9292   47.3897 C   0  0  0  0  0  0  0  0  0  0  0  0
   63.6767   -2.8786   48.0733 O   0  0  0  0  0  0  0  0  0  0  0  0
   64.8250   -2.8247   47.3172 C   0  0  0  0  0  0  0  0  0  0  0  0
   65.4950   -3.9835   46.9550 C   0  0  0  0  0  0  0  0  0  0  0  0
   66.6471   -3.8953   46.1862 C   0  0  0  0  0  0  0  0  0  0  0  0
   67.1130   -2.6519   45.7780 C   0  0  0  0  0  0  0  0  0  0  0  0
   66.4338   -1.5005   46.1353 C   0  0  0  0  0  0  0  0  0  0  0  0
   65.2901   -1.5879   46.9064 C   0  0  0  0  0  0  0  0  0  0  0  0
   68.3385   -2.5324   44.9462 C   0  0  0  0  0  0  0  0  0  0  0  0
   69.1619   -3.5487   44.6527 N   0  0  0  0  0  0  0  0  0  0  0  0
   70.1575   -3.0744   43.8823 C   0  0  0  0  0  0  0  0  0  0  0  0
   69.9308   -1.7121   43.7034 C   0  0  0  0  0  0  0  0  0  0  0  0
   68.7974   -1.4127   44.3707 N   0  0  0  0  0  0  0  0  0  0  0  0
   69.0562   -4.4814   44.9498 H   0  0  0  0  0  0  0  0  0  0  0  0
 30 31  2  0  0  0
 30 29  1  0  0  0
 13 14  1  0  0  0
 13 12  1  0  0  0
 31 32  1  0  0  0
  8  9  2  0  0  0
  8  7  1  0  0  0
  9 10  1  0  0  0
 14 15  2  0  0  0
 29 28  1  0  0  0
 32 28  2  0  0  0
 28 25  1  0  0  0
 12  7  1  0  0  0
 12 16  2  0  0  0
  7  6  2  0  0  0
 24 25  2  0  0  0
 24 23  1  0  0  0
 10  5  1  0  0  0
 10 11  2  0  0  0
  5  4  1  0  0  0
 25 26  1  0  0  0
 15 16  1  0  0  0
 23 22  2  0  0  0
 26 27  2  0  0  0
  6 11  1  0  0  0
  2  3  1  0  0  0
  2  1  1  0  0  0
  4  3  1  0  0  0
 22 27  1  0  0  0
 22 21  1  0  0  0
 19 20  1  0  0  0
 19 18  1  0  0  0
 20 21  1  0  0  0
  1 18  1  0  0  0
 13 17  1  0  0  0
 29 33  1  0  0  0
M  END
> <minimizedAffinity>
-5.19836

$$$$
5DKN_B7I_A_103


 33 36  0  0  0  0  0  0  0  0999 V2000
   61.6048   -4.0297   45.7393 C   0  0  0  0  0  0  0  0  0  0  0  0
   61.8670   -5.4443   46.1599 C   0  0  0  0  0  0  0  0  0  0  0  0
   62.4550   -6.3477   45.1230 C   0  0  0  0  0  0  0  0  0  0  0  0
   61.5350   -6.9142   44.0921 C   0  0  0  0  0  0  0  0  0  0  0  0
   60.1808   -6.8493   44.3361 O   0  0  0  0  0  0  0  0  0  0  0  0
   58.2612   -8.8813   46.6855 C   0  0  0  0  0  0  0  0  0  0  0  0
   58.2766  -10.1066   46.0364 C   0  0  0  0  0  0  0  0  0  0  0  0
   58.9251  -10.2484   44.8188 C   0  0  0  0  0  0  0  0  0  0  0  0
   59.5672   -9.1587   44.2486 C   0  0  0  0  0  0  0  0  0  0  0  0
   59.5552   -7.9318   44.8977 C   0  0  0  0  0  0  0  0  0  0  0  0
   58.9053   -7.7902   46.1156 C   0  0  0  0  0  0  0  0  0  0  0  0
   57.5904  -11.2899   46.6413 C   0  0  0  0  0  0  0  0  0  0  0  0
   58.0401  -11.9837   47.6977 N   0  0  0  0  0  0  0  0  0  0  0  0
   57.1580  -12.9712   47.9486 C   0  0  0  0  0  0  0  0  0  0  0  0
   56.1392  -12.8729   47.0037 C   0  0  0  0  0  0  0  0  0  0  0  0
   56.4373  -11.8223   46.2148 N   0  0  0  0  0  0  0  0  0  0  0  0
   58.8673  -11.8035   48.2002 H   0  0  0  0  0  0  0  0  0  0  0  0
   62.4412   -2.9463   46.3551 C   0  0  0  0  0  0  0  0  0  0  0  0
   62.9898   -3.1939   47.7292 C   0  0  0  0  0  0  0  0  0  0  0  0
   64.3535   -2.6612   48.0332 C   0  0  0  0  0  0  0  0  0  0  0  0
   64.8341   -1.6089   47.2735 O   0  0  0  0  0  0  0  0  0  0  0  0
   65.9451   -1.8520   46.4990 C   0  0  0  0  0  0  0  0  0  0  0  0
   66.7137   -0.8079   46.0073 C   0  0  0  0  0  0  0  0  0  0  0  0
   67.8320   -1.0869   45.2344 C   0  0  0  0  0  0  0  0  0  0  0  0
   68.1780   -2.4059   44.9689 C   0  0  0  0  0  0  0  0  0  0  0  0
   67.4118   -3.4429   45.4709 C   0  0  0  0  0  0  0  0  0  0  0  0
   66.2942   -3.1648   46.2352 C   0  0  0  0  0  0  0  0  0  0  0  0
   69.3764   -2.7301   44.1524 C   0  0  0  0  0  0  0  0  0  0  0  0
   70.1485   -3.8117   44.3289 N   0  0  0  0  0  0  0  0  0  0  0  0
   71.1334   -3.7794   43.4131 C   0  0  0  0  0  0  0  0  0  0  0  0
   70.9537   -2.6280   42.6507 C   0  0  0  0  0  0  0  0  0  0  0  0
   69.8576   -2.0065   43.1324 N   0  0  0  0  0  0  0  0  0  0  0  0
   70.0173   -4.5093   45.0111 H   0  0  0  0  0  0  0  0  0  0  0  0
 30 31  2  0  0  0
 30 29  1  0  0  0
 13 14  1  0  0  0
 13 12  1  0  0  0
 31 32  1  0  0  0
  8  9  2  0  0  0
  8  7  1  0  0  0
  9 10  1  0  0  0
 14 15  2  0  0  0
 29 28  1  0  0  0
 32 28  2  0  0  0
 28 25  1  0  0  0
 12  7  1  0  0  0
 12 16  2  0  0  0
  7  6  2  0  0  0
 24 25  2  0  0  0
 24 23  1  0  0  0
 10  5  1  0  0  0
 10 11  2  0  0  0
  5  4  1  0  0  0
 25 26  1  0  0  0
 15 16  1  0  0  0
 23 22  2  0  0  0
 26 27  2  0  0  0
  6 11  1  0  0  0
  2  3  1  0  0  0
  2  1  1  0  0  0
  4  3  1  0  0  0
 22 27  1  0  0  0
 22 21  1  0  0  0
 19 20  1  0  0  0
 19 18  1  0  0  0
 20 21  1  0  0  0
  1 18  1  0  0  0
 13 17  1  0  0  0
 29 33  1  0  0  0
M  END
> <minimizedAffinity>
-5.17673

$$$$
5DKN_B7I_A_103


 33 36  0  0  0  0  0  0  0  0999 V2000
   59.0694   -6.4494   47.8271 C   0  0  0  0  0  0  0  0  0  0  0  0
   59.3107   -4.9738   47.9326 C   0  0  0  0  0  0  0  0  0  0  0  0
   60.4965   -4.5505   48.7401 C   0  0  0  0  0  0  0  0  0  0  0  0
   61.4397   -3.5680   48.1277 C   0  0  0  0  0  0  0  0  0  0  0  0
   62.3768   -4.0472   47.2388 O   0  0  0  0  0  0  0  0  0  0  0  0
   65.2653   -1.8616   47.7008 C   0  0  0  0  0  0  0  0  0  0  0  0
   65.7004   -1.7318   46.3905 C   0  0  0  0  0  0  0  0  0  0  0  0
   65.0298   -2.3746   45.3608 C   0  0  0  0  0  0  0  0  0  0  0  0
   63.9133   -3.1484   45.6423 C   0  0  0  0  0  0  0  0  0  0  0  0
   63.4745   -3.2778   46.9529 C   0  0  0  0  0  0  0  0  0  0  0  0
   64.1464   -2.6353   47.9830 C   0  0  0  0  0  0  0  0  0  0  0  0
   66.9012   -0.8986   46.0730 C   0  0  0  0  0  0  0  0  0  0  0  0
   67.1266    0.3374   46.5430 N   0  0  0  0  0  0  0  0  0  0  0  0
   68.3030    0.7617   46.0405 C   0  0  0  0  0  0  0  0  0  0  0  0
   68.8043   -0.2556   45.2317 C   0  0  0  0  0  0  0  0  0  0  0  0
   67.9145   -1.2662   45.2775 N   0  0  0  0  0  0  0  0  0  0  0  0
   66.5376    0.8444   47.1474 H   0  0  0  0  0  0  0  0  0  0  0  0
   58.4185   -6.9680   46.5781 C   0  0  0  0  0  0  0  0  0  0  0  0
   59.2759   -7.0943   45.3536 C   0  0  0  0  0  0  0  0  0  0  0  0
   59.2695   -8.4084   44.6403 C   0  0  0  0  0  0  0  0  0  0  0  0
   58.2201   -9.2798   44.8741 O   0  0  0  0  0  0  0  0  0  0  0  0
   58.5339  -10.5093   45.4061 C   0  0  0  0  0  0  0  0  0  0  0  0
   58.8349  -11.5855   44.5851 C   0  0  0  0  0  0  0  0  0  0  0  0
   59.1538  -12.8108   45.1533 C   0  0  0  0  0  0  0  0  0  0  0  0
   59.1791  -12.9470   46.5355 C   0  0  0  0  0  0  0  0  0  0  0  0
   58.8868  -11.8662   47.3486 C   0  0  0  0  0  0  0  0  0  0  0  0
   58.5629  -10.6475   46.7827 C   0  0  0  0  0  0  0  0  0  0  0  0
   59.5272  -14.2460   47.1674 C   0  0  0  0  0  0  0  0  0  0  0  0
   58.6341  -15.1244   47.6447 N   0  0  0  0  0  0  0  0  0  0  0  0
   59.3054  -16.1807   48.1383 C   0  0  0  0  0  0  0  0  0  0  0  0
   60.6633  -15.9314   47.9561 C   0  0  0  0  0  0  0  0  0  0  0  0
   60.7632  -14.7302   47.3505 N   0  0  0  0  0  0  0  0  0  0  0  0
   57.6557  -15.0154   47.6356 H   0  0  0  0  0  0  0  0  0  0  0  0
 30 31  2  0  0  0
 30 29  1  0  0  0
 13 14  1  0  0  0
 13 12  1  0  0  0
 31 32  1  0  0  0
  8  9  2  0  0  0
  8  7  1  0  0  0
  9 10  1  0  0  0
 14 15  2  0  0  0
 29 28  1  0  0  0
 32 28  2  0  0  0
 28 25  1  0  0  0
 12  7  1  0  0  0
 12 16  2  0  0  0
  7  6  2  0  0  0
 24 25  2  0  0  0
 24 23  1  0  0  0
 10  5  1  0  0  0
 10 11  2  0  0  0
  5  4  1  0  0  0
 25 26  1  0  0  0
 15 16  1  0  0  0
 23 22  2  0  0  0
 26 27  2  0  0  0
  6 11  1  0  0  0
  2  3  1  0  0  0
  2  1  1  0  0  0
  4  3  1  0  0  0
 22 27  1  0  0  0
 22 21  1  0  0  0
 19 20  1  0  0  0
 19 18  1  0  0  0
 20 21  1  0  0  0
  1 18  1  0  0  0
 13 17  1  0  0  0
 29 33  1  0  0  0
M  END
> <minimizedAffinity>
-5.06091

$$$$
5DKN_B7I_A_103


 33 36  0  0  0  0  0  0  0  0999 V2000
   61.0685   -6.2799   45.5658 C   0  0  0  0  0  0  0  0  0  0  0  0
   60.2365   -5.0352   45.4930 C   0  0  0  0  0  0  0  0  0  0  0  0
   60.3635   -4.0831   46.6396 C   0  0  0  0  0  0  0  0  0  0  0  0
   61.4411   -4.3404   47.6409 C   0  0  0  0  0  0  0  0  0  0  0  0
   62.2337   -3.2783   48.0170 O   0  0  0  0  0  0  0  0  0  0  0  0
   65.1385   -3.9050   45.8952 C   0  0  0  0  0  0  0  0  0  0  0  0
   65.9038   -2.7817   46.1702 C   0  0  0  0  0  0  0  0  0  0  0  0
   65.4467   -1.8210   47.0598 C   0  0  0  0  0  0  0  0  0  0  0  0
   64.2183   -1.9871   47.6829 C   0  0  0  0  0  0  0  0  0  0  0  0
   63.4517   -3.1120   47.4109 C   0  0  0  0  0  0  0  0  0  0  0  0
   63.9090   -4.0724   46.5199 C   0  0  0  0  0  0  0  0  0  0  0  0
   67.2309   -2.5916   45.5072 C   0  0  0  0  0  0  0  0  0  0  0  0
   68.1442   -3.5565   45.3223 N   0  0  0  0  0  0  0  0  0  0  0  0
   69.2029   -3.0077   44.6944 C   0  0  0  0  0  0  0  0  0  0  0  0
   68.9197   -1.6581   44.4975 C   0  0  0  0  0  0  0  0  0  0  0  0
   67.6931   -1.4370   45.0090 N   0  0  0  0  0  0  0  0  0  0  0  0
   68.0568   -4.4980   45.5965 H   0  0  0  0  0  0  0  0  0  0  0  0
   62.0215   -6.5557   44.4397 C   0  0  0  0  0  0  0  0  0  0  0  0
   61.4401   -7.0487   43.1476 C   0  0  0  0  0  0  0  0  0  0  0  0
   60.2299   -7.9232   43.2257 C   0  0  0  0  0  0  0  0  0  0  0  0
   60.4110   -9.2928   43.3092 O   0  0  0  0  0  0  0  0  0  0  0  0
   59.5859   -9.9822   44.1677 C   0  0  0  0  0  0  0  0  0  0  0  0
   59.4420  -11.3577   44.0673 C   0  0  0  0  0  0  0  0  0  0  0  0
   58.6069  -12.0243   44.9529 C   0  0  0  0  0  0  0  0  0  0  0  0
   57.9319  -11.3125   45.9365 C   0  0  0  0  0  0  0  0  0  0  0  0
   58.0878   -9.9413   46.0367 C   0  0  0  0  0  0  0  0  0  0  0  0
   58.9144   -9.2765   45.1506 C   0  0  0  0  0  0  0  0  0  0  0  0
   57.0401  -12.0051   46.9024 C   0  0  0  0  0  0  0  0  0  0  0  0
   57.4647  -12.7109   47.9601 N   0  0  0  0  0  0  0  0  0  0  0  0
   56.3863  -13.1894   48.6068 C   0  0  0  0  0  0  0  0  0  0  0  0
   55.2599  -12.7588   47.9104 C   0  0  0  0  0  0  0  0  0  0  0  0
   55.7008  -12.0271   46.8664 N   0  0  0  0  0  0  0  0  0  0  0  0
   58.4036  -12.8543   48.2189 H   0  0  0  0  0  0  0  0  0  0  0  0
 30 31  2  0  0  0
 30 29  1  0  0  0
 13 14  1  0  0  0
 13 12  1  0  0  0
 31 32  1  0  0  0
  8  9  2  0  0  0
  8  7  1  0  0  0
  9 10  1  0  0  0
 14 15  2  0  0  0
 29 28  1  0  0  0
 32 28  2  0  0  0
 28 25  1  0  0  0
 12  7  1  0  0  0
 12 16  2  0  0  0
  7  6  2  0  0  0
 24 25  2  0  0  0
 24 23  1  0  0  0
 10  5  1  0  0  0
 10 11  2  0  0  0
  5  4  1  0  0  0
 25 26  1  0  0  0
 15 16  1  0  0  0
 23 22  2  0  0  0
 26 27  2  0  0  0
  6 11  1  0  0  0
  2  3  1  0  0  0
  2  1  1  0  0  0
  4  3  1  0  0  0
 22 27  1  0  0  0
 22 21  1  0  0  0
 19 20  1  0  0  0
 19 18  1  0  0  0
 20 21  1  0  0  0
  1 18  1  0  0  0
 13 17  1  0  0  0
 29 33  1  0  0  0
M  END
> <minimizedAffinity>
-5.04846

$$$$
