5DKN_B7I_A_103
  RCSB PDB12061717193D
Coordinates from PDB:5DKN:A:103 Model:1 without hydrogens
 31 34  0  0  0  0            999 V2000
   58.5910  -13.0450   46.7220   C 0  0  0  0  0  0  0  0  0  0  0  0
   59.0760  -13.6240   45.5590   C 0  0  0  0  0  0  0  0  0  0  0  0
   59.4040  -12.8360   44.4660   C 0  0  0  0  0  0  0  0  0  0  0  0
   59.2510  -11.4590   44.5380   C 0  0  0  0  0  0  0  0  0  0  0  0
   58.7680  -10.8770   45.7020   C 0  0  0  0  0  0  0  0  0  0  0  0
   58.4390  -11.6660   46.7950   C 0  0  0  0  0  0  0  0  0  0  0  0
   63.8680   -3.5700   47.0290   C 0  0  0  0  0  0  0  0  0  0  0  0
   64.4970   -4.5590   46.2880   C 0  0  0  0  0  0  0  0  0  0  0  0
   65.7210   -4.2920   45.6910   C 0  0  0  0  0  0  0  0  0  0  0  0
   66.3000   -3.0370   45.8310   C 0  0  0  0  0  0  0  0  0  0  0  0
   65.6620   -2.0520   46.5640   C 0  0  0  0  0  0  0  0  0  0  0  0
   64.4460   -2.3200   47.1640   C 0  0  0  0  0  0  0  0  0  0  0  0
   58.6070   -9.5180   45.7770   O 0  0  0  0  0  0  0  0  0  0  0  0
   58.3080   -8.9480   46.9950   C 0  0  0  0  0  0  0  0  0  0  0  0
   57.8220   -7.5360   47.0010   C 0  0  0  0  0  0  0  0  0  0  0  0
   58.8420   -6.4480   46.8870   C 0  0  0  0  0  0  0  0  0  0  0  0
   58.5700   -5.1960   47.6650   C 0  0  0  0  0  0  0  0  0  0  0  0
   59.7460   -4.3930   48.1390   C 0  0  0  0  0  0  0  0  0  0  0  0
   60.2580   -3.3150   47.2300   C 0  0  0  0  0  0  0  0  0  0  0  0
   61.6640   -2.8500   47.4360   C 0  0  0  0  0  0  0  0  0  0  0  0
   62.6510   -3.8010   47.6280   O 0  0  0  0  0  0  0  0  0  0  0  0
   59.2480  -15.1070   45.4690   C 0  0  0  0  0  0  0  0  0  0  0  0
   67.6050   -2.7240   45.1930   C 0  0  0  0  0  0  0  0  0  0  0  0
   59.4680  -15.7890   44.3350   N 0  0  0  0  0  0  0  0  0  0  0  0
   59.5690  -17.0950   44.6520   C 0  0  0  0  0  0  0  0  0  0  0  0
   59.3980  -17.2060   46.0300   C 0  0  0  0  0  0  0  0  0  0  0  0
   59.2050  -15.9590   46.5020   N 0  0  0  0  0  0  0  0  0  0  0  0
   67.9880   -1.5000   44.8030   N 0  0  0  0  0  0  0  0  0  0  0  0
   69.2210   -1.5940   44.2730   C 0  0  0  0  0  0  0  0  0  0  0  0
   69.6010   -2.9320   44.3410   C 0  0  0  0  0  0  0  0  0  0  0  0
   68.5810   -3.6000   44.9180   N 0  0  0  0  0  0  0  0  0  0  0  0
 29 30  2  0  0  0  0
 29 28  1  0  0  0  0
 24 25  1  0  0  0  0
 24 22  1  0  0  0  0
 30 31  1  0  0  0  0
  3  4  2  0  0  0  0
  3  2  1  0  0  0  0
  4  5  1  0  0  0  0
 25 26  2  0  0  0  0
 28 23  1  0  0  0  0
 31 23  2  0  0  0  0
 23 10  1  0  0  0  0
 22  2  1  0  0  0  0
 22 27  2  0  0  0  0
  2  1  2  0  0  0  0
  9 10  2  0  0  0  0
  9  8  1  0  0  0  0
  5 13  1  0  0  0  0
  5  6  2  0  0  0  0
 13 14  1  0  0  0  0
 10 11  1  0  0  0  0
 26 27  1  0  0  0  0
  8  7  2  0  0  0  0
 11 12  2  0  0  0  0
  1  6  1  0  0  0  0
 16 15  1  0  0  0  0
 16 17  1  0  0  0  0
 14 15  1  0  0  0  0
  7 12  1  0  0  0  0
  7 21  1  0  0  0  0
 19 20  1  0  0  0  0
 19 18  1  0  0  0  0
 20 21  1  0  0  0  0
 17 18  1  0  0  0  0
A    1
C01
A    2
C02
A    3
C03
A    4
C04
A    5
C05
A    6
C06
A    7
C07
A    8
C08
A    9
C09
A   10
C10
A   11
C11
A   12
C12
A   13
O13
A   14
C14
A   15
C15
A   16
C16
A   17
C17
A   18
C18
A   19
C19
A   20
C20
A   21
O21
A   22
C22
A   23
C23
A   24
N24
A   25
C25
A   26
C26
A   27
N27
A   28
N28
A   29
C29
A   30
C30
A   31
N31
M  END
>  <InstanceId>
5DKN_B7I_A_103

>  <ChemCompId>
B7I

>  <PdbId>
5DKN

>  <ChainId>
A

>  <ResidueNumber>
103

>  <InsertionCode>


>  <Model>
1

>  <AltIds>


>  <MissingHeavyAtoms>
0

>  <ObservedFormula>
C25 N4 O2

>  <Name>
2,2'-[heptane-1,7-diylbis(oxybenzene-4,1-diyl)]bis(1H-imidazole)

>  <SystematicName>
2-[4-[7-[4-(1H-imidazol-2-yl)phenoxy]heptoxy]phenyl]-1H-imidazole

>  <Synonyms>


>  <Type>
NON-POLYMER

>  <Formula>
C25 H28 N4 O2

>  <MolecularWeight>
416.515

>  <ModifiedDate>
2016-01-15

>  <Parent>


>  <OneLetterCode>


>  <SubcomponentList>


>  <AmbiguousFlag>
N

>  <InChI>
InChI=1S/C25H28N4O2/c1(2-4-18-30-22-10-6-20(7-11-22)24-26-14-15-27-24)3-5-19-31-23-12-8-21(9-13-23)25-28-16-17-29-25/h6-17H,1-5,18-19H2,(H,26,27)(H,28,29)

>  <InChIKey>
LGLZBONOWHSGOF-UHFFFAOYSA-N

>  <SMILES>
c1cc(ccc1c2[nH]ccn2)OCCCCCCCOc3ccc(cc3)c4[nH]ccn4

$$$$
