1K1N_CCR_A_999


 48 50  0  0  0  0  0  0  0  0999 V2000
    0.1398   19.7113   17.8292 C   0  0  0  0  0  0  0  0  0  0  0  0
    1.0528   19.1032   17.3003 O   0  0  0  0  0  0  0  0  0  0  0  0
   -0.3027   19.5113   19.1011 N   0  0  0  0  0  0  0  0  0  0  0  0
   -1.0225   20.0934   19.4360 H   0  0  0  0  0  0  0  0  0  0  0  0
   -0.5996   20.7950   17.0789 C   0  0  0  0  0  0  0  0  0  0  0  0
   -0.3378   20.8115   15.6656 N   0  0  0  0  0  0  0  0  0  0  0  0
    0.3515   20.0808   15.4886 H   0  0  0  0  0  0  0  0  0  0  0  0
    0.2184   22.1655   14.9343 S   0  0  0  0  0  0  0  0  0  0  0  0
   -0.2415   23.2340   15.7901 O   0  0  0  0  0  0  0  0  0  0  0  0
   -0.3636   22.2014   13.6203 O   0  0  0  0  0  0  0  0  0  0  0  0
    1.9358   21.9476   14.7936 C   0  0  0  0  0  0  0  0  0  0  0  0
    2.8004   22.3426   15.8689 C   0  0  0  0  0  0  0  0  0  0  0  0
    4.2053   22.1566   15.7849 C   0  0  0  0  0  0  0  0  0  0  0  0
    4.7708   21.5673   14.6387 C   0  0  0  0  0  0  0  0  0  0  0  0
    3.9119   21.1640   13.5933 C   0  0  0  0  0  0  0  0  0  0  0  0
    2.5167   21.3467   13.6469 C   0  0  0  0  0  0  0  0  0  0  0  0
    2.2795   23.0009   17.1692 C   0  0  0  0  0  0  0  0  0  0  0  0
    5.1811   22.5740   16.9143 C   0  0  0  0  0  0  0  0  0  0  0  0
    1.8132   20.8343   12.3652 C   0  0  0  0  0  0  0  0  0  0  0  0
    6.1804   21.3787   14.5691 O   0  0  0  0  0  0  0  0  0  0  0  0
    6.7348   20.2157   13.9042 C   0  0  0  0  0  0  0  0  0  0  0  0
   -2.1111   20.5843   17.2501 C   0  0  0  0  0  0  0  0  0  0  0  0
   -2.7550   20.0372   16.0049 C   0  0  0  0  0  0  0  0  0  0  0  0
   -3.4381   20.8378   15.3564 O   0  0  0  0  0  0  0  0  0  0  0  0
   -2.6174   18.8226   15.6921 O   0  0  0  0  0  0  0  0  0  0  0  0
   -2.0867   18.2599   16.2209 H   0  0  0  0  0  0  0  0  0  0  0  0
    0.2197   18.4948   19.9936 C   0  0  0  0  0  0  0  0  0  0  0  0
    0.7152   19.2765   21.1931 C   0  0  0  0  0  0  0  0  0  0  0  0
   -0.1216   19.6809   21.9867 O   0  0  0  0  0  0  0  0  0  0  0  0
    2.0403   19.5145   21.3538 N   0  0  0  0  0  0  0  0  0  0  0  0
    2.4905   20.3417   22.4727 C   0  0  0  0  0  0  0  0  0  0  0  0
    3.0137   21.6676   21.9249 C   0  0  0  0  0  0  0  0  0  0  0  0
    4.1241   21.3832   20.8718 C   0  0  0  0  0  0  0  0  0  0  0  0
    3.5251   20.5371   19.7243 C   0  0  0  0  0  0  0  0  0  0  0  0
    2.9957   19.2026   20.2837 C   0  0  0  0  0  0  0  0  0  0  0  0
   -0.9362   17.5490   20.4308 C   0  0  0  0  0  0  0  0  0  0  0  0
   -1.2112   16.5887   19.2874 C   0  0  0  0  0  0  0  0  0  0  0  0
   -2.3703   16.7539   18.5006 C   0  0  0  0  0  0  0  0  0  0  0  0
   -0.3394   15.5367   19.0031 C   0  0  0  0  0  0  0  0  0  0  0  0
   -2.6159   15.8990   17.4308 C   0  0  0  0  0  0  0  0  0  0  0  0
   -0.6084   14.6728   17.9333 C   0  0  0  0  0  0  0  0  0  0  0  0
   -1.7513   14.8229   17.1136 C   0  0  0  0  0  0  0  0  0  0  0  0
   -2.0343   13.8914   15.9593 C   0  0  0  0  0  0  0  0  0  0  0  0
   -3.0356   14.1100   15.1222 N   0  0  0  0  0  0  0  0  0  0  0  0
   -1.3087   12.8148   15.7524 N   0  0  0  0  0  0  0  0  0  0  0  0
   -3.6079   14.9030   15.2357 H   0  0  0  0  0  0  0  0  0  0  0  0
   -0.5526   12.6087   16.3483 H   0  0  0  0  0  0  0  0  0  0  0  0
   -1.5214   12.2147   15.0015 H   0  0  0  0  0  0  0  0  0  0  0  0
 37 38  2  0  0  0
 37 39  1  0  0  0
 37 36  1  0  0  0
 38 40  1  0  0  0
 40 42  2  0  0  0
 41 39  2  0  0  0
 41 42  1  0  0  0
 42 43  1  0  0  0
 43 45  1  0  0  0
 43 44  2  0  0  0
 36 27  1  0  0  0
 27  3  1  0  0  0
 27 28  1  0  0  0
  3  1  1  0  0  0
 28 29  2  0  0  0
 28 30  1  0  0  0
 30 31  1  0  0  0
 30 35  1  0  0  0
 31 32  1  0  0  0
 32 33  1  0  0  0
 33 34  1  0  0  0
 34 35  1  0  0  0
  6  8  1  0  0  0
  6  5  1  0  0  0
  8  9  2  0  0  0
  8 10  2  0  0  0
  8 11  1  0  0  0
 11 12  2  0  0  0
 11 16  1  0  0  0
 12 13  1  0  0  0
 12 17  1  0  0  0
 13 14  2  0  0  0
 13 18  1  0  0  0
 14 15  1  0  0  0
 14 20  1  0  0  0
 15 16  2  0  0  0
 16 19  1  0  0  0
 20 21  1  0  0  0
  5 22  1  0  0  0
  5  1  1  0  0  0
 22 23  1  0  0  0
 23 24  2  0  0  0
 23 25  1  0  0  0
  1  2  2  0  0  0
  6  7  1  0  0  0
 25 26  1  0  0  0
  3  4  1  0  0  0
 44 46  1  0  0  0
 45 47  1  0  0  0
 45 48  1  0  0  0
M  END
> <minimizedAffinity>
-8.41223

$$$$
1K1N_CCR_A_999


 48 50  0  0  0  0  0  0  0  0999 V2000
   -0.7329   19.1104   17.5934 C   0  0  0  0  0  0  0  0  0  0  0  0
    0.0580   18.3512   17.0631 O   0  0  0  0  0  0  0  0  0  0  0  0
   -1.0647   19.1005   18.9138 N   0  0  0  0  0  0  0  0  0  0  0  0
   -1.6863   19.7915   19.2385 H   0  0  0  0  0  0  0  0  0  0  0  0
   -1.4317   20.1805   16.7868 C   0  0  0  0  0  0  0  0  0  0  0  0
   -0.6437   20.7069   15.7059 N   0  0  0  0  0  0  0  0  0  0  0  0
   -0.0221   19.9559   15.4060 H   0  0  0  0  0  0  0  0  0  0  0  0
    0.2934   22.0307   15.9222 S   0  0  0  0  0  0  0  0  0  0  0  0
    0.4745   22.0956   17.3535 O   0  0  0  0  0  0  0  0  0  0  0  0
   -0.4347   23.1509   15.3916 O   0  0  0  0  0  0  0  0  0  0  0  0
    1.7116   21.7609   14.9564 C   0  0  0  0  0  0  0  0  0  0  0  0
    1.5989   21.6516   13.5297 C   0  0  0  0  0  0  0  0  0  0  0  0
    2.7459   21.4506   12.7179 C   0  0  0  0  0  0  0  0  0  0  0  0
    4.0208   21.3654   13.3081 C   0  0  0  0  0  0  0  0  0  0  0  0
    4.1256   21.4929   14.7102 C   0  0  0  0  0  0  0  0  0  0  0  0
    3.0030   21.6821   15.5390 C   0  0  0  0  0  0  0  0  0  0  0  0
    0.2448   21.7289   12.7842 C   0  0  0  0  0  0  0  0  0  0  0  0
    2.6757   21.3177   11.1754 C   0  0  0  0  0  0  0  0  0  0  0  0
    3.3933   21.7719   17.0356 C   0  0  0  0  0  0  0  0  0  0  0  0
    5.1649   21.1714   12.4829 O   0  0  0  0  0  0  0  0  0  0  0  0
    6.3917   20.6367   13.0406 C   0  0  0  0  0  0  0  0  0  0  0  0
   -2.7054   19.5905   16.1641 C   0  0  0  0  0  0  0  0  0  0  0  0
   -3.9139   19.7940   17.0373 C   0  0  0  0  0  0  0  0  0  0  0  0
   -4.9608   19.2730   16.6367 O   0  0  0  0  0  0  0  0  0  0  0  0
   -3.8373   20.4908   18.0864 O   0  0  0  0  0  0  0  0  0  0  0  0
   -3.0163   20.8623   18.3432 H   0  0  0  0  0  0  0  0  0  0  0  0
   -0.5600   18.1362   19.8720 C   0  0  0  0  0  0  0  0  0  0  0  0
   -0.3541   18.9455   21.1362 C   0  0  0  0  0  0  0  0  0  0  0  0
   -1.3519   19.3086   21.7414 O   0  0  0  0  0  0  0  0  0  0  0  0
    0.8985   19.2517   21.5552 N   0  0  0  0  0  0  0  0  0  0  0  0
    1.0739   20.1039   22.7307 C   0  0  0  0  0  0  0  0  0  0  0  0
    1.6295   21.4534   22.2814 C   0  0  0  0  0  0  0  0  0  0  0  0
    2.9410   21.2236   21.4750 C   0  0  0  0  0  0  0  0  0  0  0  0
    2.6265   20.3447   20.2420 C   0  0  0  0  0  0  0  0  0  0  0  0
    2.0630   18.9863   20.7016 C   0  0  0  0  0  0  0  0  0  0  0  0
   -1.6408   17.0450   20.1236 C   0  0  0  0  0  0  0  0  0  0  0  0
   -1.4763   15.9719   19.0621 C   0  0  0  0  0  0  0  0  0  0  0  0
   -2.3931   15.9021   17.9923 C   0  0  0  0  0  0  0  0  0  0  0  0
   -0.4356   15.0447   19.1287 C   0  0  0  0  0  0  0  0  0  0  0  0
   -2.2335   14.9428   16.9974 C   0  0  0  0  0  0  0  0  0  0  0  0
   -0.2972   14.0729   18.1288 C   0  0  0  0  0  0  0  0  0  0  0  0
   -1.1878   13.9882   17.0332 C   0  0  0  0  0  0  0  0  0  0  0  0
   -1.0317   12.9414   15.9561 C   0  0  0  0  0  0  0  0  0  0  0  0
   -1.9708   12.7385   15.0462 N   0  0  0  0  0  0  0  0  0  0  0  0
    0.0355   12.1764   15.8921 N   0  0  0  0  0  0  0  0  0  0  0  0
   -2.7889   13.2861   15.0525 H   0  0  0  0  0  0  0  0  0  0  0  0
    0.7619   12.2890   16.5470 H   0  0  0  0  0  0  0  0  0  0  0  0
    0.1083   11.4909   15.1892 H   0  0  0  0  0  0  0  0  0  0  0  0
 37 38  2  0  0  0
 37 39  1  0  0  0
 37 36  1  0  0  0
 38 40  1  0  0  0
 40 42  2  0  0  0
 41 39  2  0  0  0
 41 42  1  0  0  0
 42 43  1  0  0  0
 43 45  1  0  0  0
 43 44  2  0  0  0
 36 27  1  0  0  0
 27  3  1  0  0  0
 27 28  1  0  0  0
  3  1  1  0  0  0
 28 29  2  0  0  0
 28 30  1  0  0  0
 30 31  1  0  0  0
 30 35  1  0  0  0
 31 32  1  0  0  0
 32 33  1  0  0  0
 33 34  1  0  0  0
 34 35  1  0  0  0
  6  8  1  0  0  0
  6  5  1  0  0  0
  8  9  2  0  0  0
  8 10  2  0  0  0
  8 11  1  0  0  0
 11 12  2  0  0  0
 11 16  1  0  0  0
 12 13  1  0  0  0
 12 17  1  0  0  0
 13 14  2  0  0  0
 13 18  1  0  0  0
 14 15  1  0  0  0
 14 20  1  0  0  0
 15 16  2  0  0  0
 16 19  1  0  0  0
 20 21  1  0  0  0
  5 22  1  0  0  0
  5  1  1  0  0  0
 22 23  1  0  0  0
 23 24  2  0  0  0
 23 25  1  0  0  0
  1  2  2  0  0  0
  6  7  1  0  0  0
 25 26  1  0  0  0
  3  4  1  0  0  0
 44 46  1  0  0  0
 45 47  1  0  0  0
 45 48  1  0  0  0
M  END
> <minimizedAffinity>
-7.89679

$$$$
1K1N_CCR_A_999


 48 50  0  0  0  0  0  0  0  0999 V2000
   -0.3344   19.4731   17.6253 C   0  0  0  0  0  0  0  0  0  0  0  0
    0.4154   18.8206   16.9217 O   0  0  0  0  0  0  0  0  0  0  0  0
   -0.4963   19.3044   18.9666 N   0  0  0  0  0  0  0  0  0  0  0  0
   -1.1013   19.9206   19.4393 H   0  0  0  0  0  0  0  0  0  0  0  0
   -1.1749   20.5813   17.0342 C   0  0  0  0  0  0  0  0  0  0  0  0
   -1.0827   20.6862   15.6035 N   0  0  0  0  0  0  0  0  0  0  0  0
   -0.4540   19.9438   15.2969 H   0  0  0  0  0  0  0  0  0  0  0  0
   -0.5554   22.0657   14.8988 S   0  0  0  0  0  0  0  0  0  0  0  0
   -1.5270   23.0541   15.3046 O   0  0  0  0  0  0  0  0  0  0  0  0
   -0.5420   21.8331   13.4802 O   0  0  0  0  0  0  0  0  0  0  0  0
    1.0746   22.2816   15.4586 C   0  0  0  0  0  0  0  0  0  0  0  0
    2.1576   21.6194   14.7889 C   0  0  0  0  0  0  0  0  0  0  0  0
    3.4999   21.7960   15.2159 C   0  0  0  0  0  0  0  0  0  0  0  0
    3.7876   22.6390   16.3057 C   0  0  0  0  0  0  0  0  0  0  0  0
    2.7187   23.3017   16.9471 C   0  0  0  0  0  0  0  0  0  0  0  0
    1.3779   23.1357   16.5504 C   0  0  0  0  0  0  0  0  0  0  0  0
    1.9479   20.6710   13.5840 C   0  0  0  0  0  0  0  0  0  0  0  0
    4.7022   21.0970   14.5320 C   0  0  0  0  0  0  0  0  0  0  0  0
    0.4046   23.9595   17.4302 C   0  0  0  0  0  0  0  0  0  0  0  0
    5.1386   22.8144   16.7200 O   0  0  0  0  0  0  0  0  0  0  0  0
    5.6892   24.1449   16.8884 C   0  0  0  0  0  0  0  0  0  0  0  0
   -2.6519   20.3261   17.3684 C   0  0  0  0  0  0  0  0  0  0  0  0
   -3.2689   19.2892   16.4692 C   0  0  0  0  0  0  0  0  0  0  0  0
   -4.4817   19.1017   16.6177 O   0  0  0  0  0  0  0  0  0  0  0  0
   -2.5568   18.6425   15.6527 O   0  0  0  0  0  0  0  0  0  0  0  0
   -1.6409   18.8268   15.5817 H   0  0  0  0  0  0  0  0  0  0  0  0
    0.1664   18.2742   19.7425 C   0  0  0  0  0  0  0  0  0  0  0  0
    0.7377   19.0185   20.9321 C   0  0  0  0  0  0  0  0  0  0  0  0
   -0.0358   19.3318   21.8250 O   0  0  0  0  0  0  0  0  0  0  0  0
    2.0580   19.3233   20.9776 N   0  0  0  0  0  0  0  0  0  0  0  0
    2.5740   20.1146   22.0941 C   0  0  0  0  0  0  0  0  0  0  0  0
    2.9705   21.4954   21.5764 C   0  0  0  0  0  0  0  0  0  0  0  0
    3.9838   21.3312   20.4062 C   0  0  0  0  0  0  0  0  0  0  0  0
    3.3180   20.5139   19.2747 C   0  0  0  0  0  0  0  0  0  0  0  0
    2.9170   19.1236   19.8039 C   0  0  0  0  0  0  0  0  0  0  0  0
   -0.8880   17.2402   20.2338 C   0  0  0  0  0  0  0  0  0  0  0  0
   -1.2155   16.3197   19.0716 C   0  0  0  0  0  0  0  0  0  0  0  0
   -2.4145   16.5040   18.3518 C   0  0  0  0  0  0  0  0  0  0  0  0
   -0.3531   15.2857   18.7049 C   0  0  0  0  0  0  0  0  0  0  0  0
   -2.7096   15.6863   17.2654 C   0  0  0  0  0  0  0  0  0  0  0  0
   -0.6715   14.4588   17.6194 C   0  0  0  0  0  0  0  0  0  0  0  0
   -1.8559   14.6294   16.8653 C   0  0  0  0  0  0  0  0  0  0  0  0
   -2.1922   13.7379   15.6938 C   0  0  0  0  0  0  0  0  0  0  0  0
   -3.1271   14.0687   14.8177 N   0  0  0  0  0  0  0  0  0  0  0  0
   -1.5827   12.5878   15.5094 N   0  0  0  0  0  0  0  0  0  0  0  0
   -3.6120   14.9202   14.9131 H   0  0  0  0  0  0  0  0  0  0  0  0
   -0.8797   12.2974   16.1344 H   0  0  0  0  0  0  0  0  0  0  0  0
   -1.8292   12.0169   14.7461 H   0  0  0  0  0  0  0  0  0  0  0  0
 37 38  2  0  0  0
 37 39  1  0  0  0
 37 36  1  0  0  0
 38 40  1  0  0  0
 40 42  2  0  0  0
 41 39  2  0  0  0
 41 42  1  0  0  0
 42 43  1  0  0  0
 43 45  1  0  0  0
 43 44  2  0  0  0
 36 27  1  0  0  0
 27  3  1  0  0  0
 27 28  1  0  0  0
  3  1  1  0  0  0
 28 29  2  0  0  0
 28 30  1  0  0  0
 30 31  1  0  0  0
 30 35  1  0  0  0
 31 32  1  0  0  0
 32 33  1  0  0  0
 33 34  1  0  0  0
 34 35  1  0  0  0
  6  8  1  0  0  0
  6  5  1  0  0  0
  8  9  2  0  0  0
  8 10  2  0  0  0
  8 11  1  0  0  0
 11 12  2  0  0  0
 11 16  1  0  0  0
 12 13  1  0  0  0
 12 17  1  0  0  0
 13 14  2  0  0  0
 13 18  1  0  0  0
 14 15  1  0  0  0
 14 20  1  0  0  0
 15 16  2  0  0  0
 16 19  1  0  0  0
 20 21  1  0  0  0
  5 22  1  0  0  0
  5  1  1  0  0  0
 22 23  1  0  0  0
 23 24  2  0  0  0
 23 25  1  0  0  0
  1  2  2  0  0  0
  6  7  1  0  0  0
 25 26  1  0  0  0
  3  4  1  0  0  0
 44 46  1  0  0  0
 45 47  1  0  0  0
 45 48  1  0  0  0
M  END
> <minimizedAffinity>
-7.80573

$$$$
1K1N_CCR_A_999


 48 50  0  0  0  0  0  0  0  0999 V2000
    0.1063   19.6672   17.7399 C   0  0  0  0  0  0  0  0  0  0  0  0
    0.8658   18.8828   17.2005 O   0  0  0  0  0  0  0  0  0  0  0  0
   -0.2650   19.6249   19.0491 N   0  0  0  0  0  0  0  0  0  0  0  0
   -0.8535   20.3391   19.3850 H   0  0  0  0  0  0  0  0  0  0  0  0
   -0.5025   20.8093   16.9596 C   0  0  0  0  0  0  0  0  0  0  0  0
   -0.2935   20.7253   15.5399 N   0  0  0  0  0  0  0  0  0  0  0  0
    0.3081   19.9170   15.3814 H   0  0  0  0  0  0  0  0  0  0  0  0
    0.3739   21.9728   14.7180 S   0  0  0  0  0  0  0  0  0  0  0  0
   -0.7389   22.8602   14.4736 O   0  0  0  0  0  0  0  0  0  0  0  0
    0.9387   21.4271   13.5139 O   0  0  0  0  0  0  0  0  0  0  0  0
    1.6529   22.5678   15.7314 C   0  0  0  0  0  0  0  0  0  0  0  0
    1.4726   23.7800   16.4783 C   0  0  0  0  0  0  0  0  0  0  0  0
    2.4961   24.2756   17.3281 C   0  0  0  0  0  0  0  0  0  0  0  0
    3.7077   23.5710   17.4568 C   0  0  0  0  0  0  0  0  0  0  0  0
    3.8701   22.3694   16.7336 C   0  0  0  0  0  0  0  0  0  0  0  0
    2.8752   21.8618   15.8761 C   0  0  0  0  0  0  0  0  0  0  0  0
    0.1809   24.6294   16.4049 C   0  0  0  0  0  0  0  0  0  0  0  0
    2.3534   25.5831   18.1478 C   0  0  0  0  0  0  0  0  0  0  0  0
    3.3143   20.5427   15.1923 C   0  0  0  0  0  0  0  0  0  0  0  0
    4.7240   24.0737   18.3182 O   0  0  0  0  0  0  0  0  0  0  0  0
    6.0171   24.4557   17.7852 C   0  0  0  0  0  0  0  0  0  0  0  0
   -2.0213   20.8213   17.1869 C   0  0  0  0  0  0  0  0  0  0  0  0
   -2.7826   20.3530   15.9763 C   0  0  0  0  0  0  0  0  0  0  0  0
   -2.9182   19.1293   15.8665 O   0  0  0  0  0  0  0  0  0  0  0  0
   -3.2088   21.1822   15.1262 O   0  0  0  0  0  0  0  0  0  0  0  0
   -3.0779   22.1002   15.2607 H   0  0  0  0  0  0  0  0  0  0  0  0
    0.1520   18.5941   19.9799 C   0  0  0  0  0  0  0  0  0  0  0  0
    0.6241   19.3644   21.1960 C   0  0  0  0  0  0  0  0  0  0  0  0
   -0.2305   19.8097   21.9477 O   0  0  0  0  0  0  0  0  0  0  0  0
    1.9493   19.5487   21.4162 N   0  0  0  0  0  0  0  0  0  0  0  0
    2.3819   20.3657   22.5494 C   0  0  0  0  0  0  0  0  0  0  0  0
    2.9845   21.6643   22.0179 C   0  0  0  0  0  0  0  0  0  0  0  0
    4.1292   21.3255   21.0190 C   0  0  0  0  0  0  0  0  0  0  0  0
    3.5485   20.4955   19.8504 C   0  0  0  0  0  0  0  0  0  0  0  0
    2.9389   19.1887   20.3932 C   0  0  0  0  0  0  0  0  0  0  0  0
   -1.0761   17.7185   20.3637 C   0  0  0  0  0  0  0  0  0  0  0  0
   -1.3079   16.7224   19.2415 C   0  0  0  0  0  0  0  0  0  0  0  0
   -2.4515   16.8447   18.4249 C   0  0  0  0  0  0  0  0  0  0  0  0
   -0.4114   15.6792   19.0061 C   0  0  0  0  0  0  0  0  0  0  0  0
   -2.6575   15.9564   17.3740 C   0  0  0  0  0  0  0  0  0  0  0  0
   -0.6406   14.7815   17.9550 C   0  0  0  0  0  0  0  0  0  0  0  0
   -1.7670   14.8881   17.1062 C   0  0  0  0  0  0  0  0  0  0  0  0
   -2.0071   13.9203   15.9723 C   0  0  0  0  0  0  0  0  0  0  0  0
   -3.0316   14.0610   15.1467 N   0  0  0  0  0  0  0  0  0  0  0  0
   -1.2183   12.8876   15.7727 N   0  0  0  0  0  0  0  0  0  0  0  0
   -3.6509   14.8186   15.2554 H   0  0  0  0  0  0  0  0  0  0  0  0
   -0.4426   12.7399   16.3605 H   0  0  0  0  0  0  0  0  0  0  0  0
   -1.4034   12.2621   15.0353 H   0  0  0  0  0  0  0  0  0  0  0  0
 37 38  2  0  0  0
 37 39  1  0  0  0
 37 36  1  0  0  0
 38 40  1  0  0  0
 40 42  2  0  0  0
 41 39  2  0  0  0
 41 42  1  0  0  0
 42 43  1  0  0  0
 43 45  1  0  0  0
 43 44  2  0  0  0
 36 27  1  0  0  0
 27  3  1  0  0  0
 27 28  1  0  0  0
  3  1  1  0  0  0
 28 29  2  0  0  0
 28 30  1  0  0  0
 30 31  1  0  0  0
 30 35  1  0  0  0
 31 32  1  0  0  0
 32 33  1  0  0  0
 33 34  1  0  0  0
 34 35  1  0  0  0
  6  8  1  0  0  0
  6  5  1  0  0  0
  8  9  2  0  0  0
  8 10  2  0  0  0
  8 11  1  0  0  0
 11 12  2  0  0  0
 11 16  1  0  0  0
 12 13  1  0  0  0
 12 17  1  0  0  0
 13 14  2  0  0  0
 13 18  1  0  0  0
 14 15  1  0  0  0
 14 20  1  0  0  0
 15 16  2  0  0  0
 16 19  1  0  0  0
 20 21  1  0  0  0
  5 22  1  0  0  0
  5  1  1  0  0  0
 22 23  1  0  0  0
 23 24  2  0  0  0
 23 25  1  0  0  0
  1  2  2  0  0  0
  6  7  1  0  0  0
 25 26  1  0  0  0
  3  4  1  0  0  0
 44 46  1  0  0  0
 45 47  1  0  0  0
 45 48  1  0  0  0
M  END
> <minimizedAffinity>
-7.66945

$$$$
1K1N_CCR_A_999


 48 50  0  0  0  0  0  0  0  0999 V2000
    0.7604   18.7553   19.8464 C   0  0  0  0  0  0  0  0  0  0  0  0
    1.0138   17.6269   20.2280 O   0  0  0  0  0  0  0  0  0  0  0  0
   -0.4882   19.2899   19.7534 N   0  0  0  0  0  0  0  0  0  0  0  0
   -0.5678   20.2297   19.4709 H   0  0  0  0  0  0  0  0  0  0  0  0
    1.8697   19.6968   19.4374 C   0  0  0  0  0  0  0  0  0  0  0  0
    1.6317   21.0699   19.7899 N   0  0  0  0  0  0  0  0  0  0  0  0
    0.9166   21.0641   20.5173 H   0  0  0  0  0  0  0  0  0  0  0  0
    1.1423   22.1496   18.6621 S   0  0  0  0  0  0  0  0  0  0  0  0
    1.2676   23.4251   19.3276 O   0  0  0  0  0  0  0  0  0  0  0  0
   -0.2151   21.8172   18.3248 O   0  0  0  0  0  0  0  0  0  0  0  0
    2.1588   21.8742   17.2809 C   0  0  0  0  0  0  0  0  0  0  0  0
    1.5894   21.3917   16.0549 C   0  0  0  0  0  0  0  0  0  0  0  0
    2.3968   21.1776   14.9070 C   0  0  0  0  0  0  0  0  0  0  0  0
    3.7771   21.4485   14.9559 C   0  0  0  0  0  0  0  0  0  0  0  0
    4.3263   21.9408   16.1597 C   0  0  0  0  0  0  0  0  0  0  0  0
    3.5499   22.1519   17.3153 C   0  0  0  0  0  0  0  0  0  0  0  0
    0.0855   21.0615   15.8981 C   0  0  0  0  0  0  0  0  0  0  0  0
    1.8316   20.6502   13.5638 C   0  0  0  0  0  0  0  0  0  0  0  0
    4.3997   22.6777   18.4992 C   0  0  0  0  0  0  0  0  0  0  0  0
    4.5755   21.2373   13.7959 O   0  0  0  0  0  0  0  0  0  0  0  0
    5.8783   20.6105   13.9041 C   0  0  0  0  0  0  0  0  0  0  0  0
    3.1706   19.2759   20.1365 C   0  0  0  0  0  0  0  0  0  0  0  0
    3.4949   20.1546   21.3144 C   0  0  0  0  0  0  0  0  0  0  0  0
    4.5876   20.7307   21.2708 O   0  0  0  0  0  0  0  0  0  0  0  0
    2.6959   20.2447   22.2867 O   0  0  0  0  0  0  0  0  0  0  0  0
    1.8795   19.7854   22.2663 H   0  0  0  0  0  0  0  0  0  0  0  0
   -1.7082   18.5622   20.0444 C   0  0  0  0  0  0  0  0  0  0  0  0
   -2.4455   19.4544   21.0221 C   0  0  0  0  0  0  0  0  0  0  0  0
   -2.8561   20.5277   20.6061 O   0  0  0  0  0  0  0  0  0  0  0  0
   -2.6224   19.0603   22.3073 N   0  0  0  0  0  0  0  0  0  0  0  0
   -3.2626   19.9711   23.2557 C   0  0  0  0  0  0  0  0  0  0  0  0
   -2.2177   20.4476   24.2621 C   0  0  0  0  0  0  0  0  0  0  0  0
   -1.5541   19.2105   24.9347 C   0  0  0  0  0  0  0  0  0  0  0  0
   -0.8811   18.3450   23.8441 C   0  0  0  0  0  0  0  0  0  0  0  0
   -1.9396   17.8704   22.8299 C   0  0  0  0  0  0  0  0  0  0  0  0
   -2.5453   18.4165   18.7406 C   0  0  0  0  0  0  0  0  0  0  0  0
   -2.1928   17.0828   18.1063 C   0  0  0  0  0  0  0  0  0  0  0  0
   -2.2173   16.9495   16.7023 C   0  0  0  0  0  0  0  0  0  0  0  0
   -1.8506   15.9795   18.8893 C   0  0  0  0  0  0  0  0  0  0  0  0
   -1.8656   15.7410   16.1093 C   0  0  0  0  0  0  0  0  0  0  0  0
   -1.5154   14.7636   18.2791 C   0  0  0  0  0  0  0  0  0  0  0  0
   -1.5116   14.6025   16.8738 C   0  0  0  0  0  0  0  0  0  0  0  0
   -1.1456   13.2909   16.2212 C   0  0  0  0  0  0  0  0  0  0  0  0
   -0.0312   12.6492   16.5332 N   0  0  0  0  0  0  0  0  0  0  0  0
   -1.9106   12.7445   15.3023 N   0  0  0  0  0  0  0  0  0  0  0  0
    0.5748   13.0184   17.2157 H   0  0  0  0  0  0  0  0  0  0  0  0
   -2.7503   13.1840   15.0358 H   0  0  0  0  0  0  0  0  0  0  0  0
   -1.6438   11.8958   14.8806 H   0  0  0  0  0  0  0  0  0  0  0  0
 37 38  2  0  0  0
 37 39  1  0  0  0
 37 36  1  0  0  0
 38 40  1  0  0  0
 40 42  2  0  0  0
 41 39  2  0  0  0
 41 42  1  0  0  0
 42 43  1  0  0  0
 43 45  1  0  0  0
 43 44  2  0  0  0
 36 27  1  0  0  0
 27  3  1  0  0  0
 27 28  1  0  0  0
  3  1  1  0  0  0
 28 29  2  0  0  0
 28 30  1  0  0  0
 30 31  1  0  0  0
 30 35  1  0  0  0
 31 32  1  0  0  0
 32 33  1  0  0  0
 33 34  1  0  0  0
 34 35  1  0  0  0
  6  8  1  0  0  0
  6  5  1  0  0  0
  8  9  2  0  0  0
  8 10  2  0  0  0
  8 11  1  0  0  0
 11 12  2  0  0  0
 11 16  1  0  0  0
 12 13  1  0  0  0
 12 17  1  0  0  0
 13 14  2  0  0  0
 13 18  1  0  0  0
 14 15  1  0  0  0
 14 20  1  0  0  0
 15 16  2  0  0  0
 16 19  1  0  0  0
 20 21  1  0  0  0
  5 22  1  0  0  0
  5  1  1  0  0  0
 22 23  1  0  0  0
 23 24  2  0  0  0
 23 25  1  0  0  0
  1  2  2  0  0  0
  6  7  1  0  0  0
 25 26  1  0  0  0
  3  4  1  0  0  0
 44 46  1  0  0  0
 45 47  1  0  0  0
 45 48  1  0  0  0
M  END
> <minimizedAffinity>
-7.45772

$$$$
1K1N_CCR_A_999


 48 50  0  0  0  0  0  0  0  0999 V2000
    0.7795   18.9491   20.6301 C   0  0  0  0  0  0  0  0  0  0  0  0
    1.0960   17.7770   20.5356 O   0  0  0  0  0  0  0  0  0  0  0  0
   -0.4977   19.4117   20.7219 N   0  0  0  0  0  0  0  0  0  0  0  0
   -0.6303   20.3805   20.8368 H   0  0  0  0  0  0  0  0  0  0  0  0
    1.8345   20.0307   20.6654 C   0  0  0  0  0  0  0  0  0  0  0  0
    1.8669   20.8553   19.4884 N   0  0  0  0  0  0  0  0  0  0  0  0
    1.6363   20.2487   18.7014 H   0  0  0  0  0  0  0  0  0  0  0  0
    3.2269   21.6643   19.0719 S   0  0  0  0  0  0  0  0  0  0  0  0
    4.2596   21.0322   19.8590 O   0  0  0  0  0  0  0  0  0  0  0  0
    3.0160   23.0440   19.4167 O   0  0  0  0  0  0  0  0  0  0  0  0
    3.3462   21.5179   17.3453 C   0  0  0  0  0  0  0  0  0  0  0  0
    4.3880   22.2051   16.6366 C   0  0  0  0  0  0  0  0  0  0  0  0
    4.5176   22.0852   15.2280 C   0  0  0  0  0  0  0  0  0  0  0  0
    3.6228   21.2747   14.5045 C   0  0  0  0  0  0  0  0  0  0  0  0
    2.6125   20.5869   15.2112 C   0  0  0  0  0  0  0  0  0  0  0  0
    2.4557   20.6969   16.6062 C   0  0  0  0  0  0  0  0  0  0  0  0
    5.4197   23.1216   17.3374 C   0  0  0  0  0  0  0  0  0  0  0  0
    5.6191   22.8132   14.4165 C   0  0  0  0  0  0  0  0  0  0  0  0
    1.2624   19.8563   17.1256 C   0  0  0  0  0  0  0  0  0  0  0  0
    3.7674   21.1559   13.0929 O   0  0  0  0  0  0  0  0  0  0  0  0
    2.7475   21.6752   12.2030 C   0  0  0  0  0  0  0  0  0  0  0  0
    1.5609   20.9624   21.8552 C   0  0  0  0  0  0  0  0  0  0  0  0
    2.5778   20.7995   22.9524 C   0  0  0  0  0  0  0  0  0  0  0  0
    2.1307   20.4617   24.0542 O   0  0  0  0  0  0  0  0  0  0  0  0
    3.7978   21.0384   22.7369 O   0  0  0  0  0  0  0  0  0  0  0  0
    4.0815   21.2912   21.8804 H   0  0  0  0  0  0  0  0  0  0  0  0
   -1.6749   18.5673   20.6608 C   0  0  0  0  0  0  0  0  0  0  0  0
   -2.6341   19.1998   21.6484 C   0  0  0  0  0  0  0  0  0  0  0  0
   -3.2121   20.2183   21.2989 O   0  0  0  0  0  0  0  0  0  0  0  0
   -2.8204   18.6447   22.8713 N   0  0  0  0  0  0  0  0  0  0  0  0
   -3.6861   19.3163   23.8401 C   0  0  0  0  0  0  0  0  0  0  0  0
   -2.8226   19.8651   24.9737 C   0  0  0  0  0  0  0  0  0  0  0  0
   -1.9832   18.7053   25.5847 C   0  0  0  0  0  0  0  0  0  0  0  0
   -1.0844   18.0991   24.4819 C   0  0  0  0  0  0  0  0  0  0  0  0
   -1.9608   17.5505   23.3395 C   0  0  0  0  0  0  0  0  0  0  0  0
   -2.2835   18.6335   19.2300 C   0  0  0  0  0  0  0  0  0  0  0  0
   -2.0014   17.3100   18.5413 C   0  0  0  0  0  0  0  0  0  0  0  0
   -2.0457   17.2324   17.1335 C   0  0  0  0  0  0  0  0  0  0  0  0
   -1.7051   16.1623   19.2776 C   0  0  0  0  0  0  0  0  0  0  0  0
   -1.7580   16.0324   16.4909 C   0  0  0  0  0  0  0  0  0  0  0  0
   -1.4344   14.9562   18.6176 C   0  0  0  0  0  0  0  0  0  0  0  0
   -1.4518   14.8497   17.2073 C   0  0  0  0  0  0  0  0  0  0  0  0
   -1.1553   13.5484   16.5010 C   0  0  0  0  0  0  0  0  0  0  0  0
   -1.9884   13.0399   15.6073 N   0  0  0  0  0  0  0  0  0  0  0  0
   -0.0667   12.8588   16.7610 N   0  0  0  0  0  0  0  0  0  0  0  0
   -2.8174   13.5191   15.3786 H   0  0  0  0  0  0  0  0  0  0  0  0
    0.5840   13.1956   17.4185 H   0  0  0  0  0  0  0  0  0  0  0  0
    0.0979   12.0056   16.2980 H   0  0  0  0  0  0  0  0  0  0  0  0
 37 38  2  0  0  0
 37 39  1  0  0  0
 37 36  1  0  0  0
 38 40  1  0  0  0
 40 42  2  0  0  0
 41 39  2  0  0  0
 41 42  1  0  0  0
 42 43  1  0  0  0
 43 45  1  0  0  0
 43 44  2  0  0  0
 36 27  1  0  0  0
 27  3  1  0  0  0
 27 28  1  0  0  0
  3  1  1  0  0  0
 28 29  2  0  0  0
 28 30  1  0  0  0
 30 31  1  0  0  0
 30 35  1  0  0  0
 31 32  1  0  0  0
 32 33  1  0  0  0
 33 34  1  0  0  0
 34 35  1  0  0  0
  6  8  1  0  0  0
  6  5  1  0  0  0
  8  9  2  0  0  0
  8 10  2  0  0  0
  8 11  1  0  0  0
 11 12  2  0  0  0
 11 16  1  0  0  0
 12 13  1  0  0  0
 12 17  1  0  0  0
 13 14  2  0  0  0
 13 18  1  0  0  0
 14 15  1  0  0  0
 14 20  1  0  0  0
 15 16  2  0  0  0
 16 19  1  0  0  0
 20 21  1  0  0  0
  5 22  1  0  0  0
  5  1  1  0  0  0
 22 23  1  0  0  0
 23 24  2  0  0  0
 23 25  1  0  0  0
  1  2  2  0  0  0
  6  7  1  0  0  0
 25 26  1  0  0  0
  3  4  1  0  0  0
 44 46  1  0  0  0
 45 47  1  0  0  0
 45 48  1  0  0  0
M  END
> <minimizedAffinity>
-7.00742

$$$$
1K1N_CCR_A_999


 48 50  0  0  0  0  0  0  0  0999 V2000
    1.0437   18.9787   18.0524 C   0  0  0  0  0  0  0  0  0  0  0  0
    0.7767   18.7098   16.8950 O   0  0  0  0  0  0  0  0  0  0  0  0
    0.2402   18.7255   19.1218 N   0  0  0  0  0  0  0  0  0  0  0  0
    0.5806   18.9498   20.0180 H   0  0  0  0  0  0  0  0  0  0  0  0
    2.3575   19.6366   18.4063 C   0  0  0  0  0  0  0  0  0  0  0  0
    2.2333   21.0090   18.8154 N   0  0  0  0  0  0  0  0  0  0  0  0
    1.2686   21.1355   19.1215 H   0  0  0  0  0  0  0  0  0  0  0  0
    2.5549   22.2254   17.7693 S   0  0  0  0  0  0  0  0  0  0  0  0
    3.9520   22.0467   17.4507 O   0  0  0  0  0  0  0  0  0  0  0  0
    2.2843   23.4560   18.4614 O   0  0  0  0  0  0  0  0  0  0  0  0
    1.4166   22.0370   16.4710 C   0  0  0  0  0  0  0  0  0  0  0  0
    1.8647   21.5942   15.1814 C   0  0  0  0  0  0  0  0  0  0  0  0
    0.9503   21.4142   14.1105 C   0  0  0  0  0  0  0  0  0  0  0  0
   -0.4214   21.6608   14.3063 C   0  0  0  0  0  0  0  0  0  0  0  0
   -0.8570   22.0778   15.5828 C   0  0  0  0  0  0  0  0  0  0  0  0
    0.0302   22.2741   16.6585 C   0  0  0  0  0  0  0  0  0  0  0  0
    3.3501   21.2988   14.8625 C   0  0  0  0  0  0  0  0  0  0  0  0
    1.3855   20.9466   12.6985 C   0  0  0  0  0  0  0  0  0  0  0  0
   -0.7030   22.7489   17.9381 C   0  0  0  0  0  0  0  0  0  0  0  0
   -1.3302   21.4693   13.2269 O   0  0  0  0  0  0  0  0  0  0  0  0
   -1.9902   22.6039   12.6112 C   0  0  0  0  0  0  0  0  0  0  0  0
    3.0009   18.8787   19.5767 C   0  0  0  0  0  0  0  0  0  0  0  0
    3.0624   19.7104   20.8293 C   0  0  0  0  0  0  0  0  0  0  0  0
    2.0309   19.7345   21.5100 O   0  0  0  0  0  0  0  0  0  0  0  0
    4.1047   20.3607   21.1170 O   0  0  0  0  0  0  0  0  0  0  0  0
    4.8591   20.3051   20.5642 H   0  0  0  0  0  0  0  0  0  0  0  0
   -1.0855   18.1461   19.0239 C   0  0  0  0  0  0  0  0  0  0  0  0
   -0.8645   16.6718   19.2941 C   0  0  0  0  0  0  0  0  0  0  0  0
   -0.0026   16.3709   20.1067 O   0  0  0  0  0  0  0  0  0  0  0  0
   -1.6000   15.7394   18.6398 N   0  0  0  0  0  0  0  0  0  0  0  0
   -1.3142   14.3209   18.8524 C   0  0  0  0  0  0  0  0  0  0  0  0
   -0.7026   13.7458   17.5769 C   0  0  0  0  0  0  0  0  0  0  0  0
   -1.6625   14.0174   16.3820 C   0  0  0  0  0  0  0  0  0  0  0  0
   -1.8599   15.5438   16.2316 C   0  0  0  0  0  0  0  0  0  0  0  0
   -2.4737   16.1187   17.5226 C   0  0  0  0  0  0  0  0  0  0  0  0
   -1.9945   18.7475   20.1348 C   0  0  0  0  0  0  0  0  0  0  0  0
   -2.8197   19.8591   19.5114 C   0  0  0  0  0  0  0  0  0  0  0  0
   -3.2864   20.9182   20.3177 C   0  0  0  0  0  0  0  0  0  0  0  0
   -3.1332   19.8493   18.1516 C   0  0  0  0  0  0  0  0  0  0  0  0
   -4.0165   21.9581   19.7509 C   0  0  0  0  0  0  0  0  0  0  0  0
   -3.8843   20.8944   17.5976 C   0  0  0  0  0  0  0  0  0  0  0  0
   -4.3505   21.9804   18.3747 C   0  0  0  0  0  0  0  0  0  0  0  0
   -5.1562   23.1062   17.7718 C   0  0  0  0  0  0  0  0  0  0  0  0
   -6.4691   23.0203   17.6311 N   0  0  0  0  0  0  0  0  0  0  0  0
   -4.5819   24.2089   17.3444 N   0  0  0  0  0  0  0  0  0  0  0  0
   -6.9451   22.2142   17.9358 H   0  0  0  0  0  0  0  0  0  0  0  0
   -3.6072   24.3202   17.4270 H   0  0  0  0  0  0  0  0  0  0  0  0
   -5.1265   24.9233   16.9416 H   0  0  0  0  0  0  0  0  0  0  0  0
 37 38  2  0  0  0
 37 39  1  0  0  0
 37 36  1  0  0  0
 38 40  1  0  0  0
 40 42  2  0  0  0
 41 39  2  0  0  0
 41 42  1  0  0  0
 42 43  1  0  0  0
 43 45  1  0  0  0
 43 44  2  0  0  0
 36 27  1  0  0  0
 27  3  1  0  0  0
 27 28  1  0  0  0
  3  1  1  0  0  0
 28 29  2  0  0  0
 28 30  1  0  0  0
 30 31  1  0  0  0
 30 35  1  0  0  0
 31 32  1  0  0  0
 32 33  1  0  0  0
 33 34  1  0  0  0
 34 35  1  0  0  0
  6  8  1  0  0  0
  6  5  1  0  0  0
  8  9  2  0  0  0
  8 10  2  0  0  0
  8 11  1  0  0  0
 11 12  2  0  0  0
 11 16  1  0  0  0
 12 13  1  0  0  0
 12 17  1  0  0  0
 13 14  2  0  0  0
 13 18  1  0  0  0
 14 15  1  0  0  0
 14 20  1  0  0  0
 15 16  2  0  0  0
 16 19  1  0  0  0
 20 21  1  0  0  0
  5 22  1  0  0  0
  5  1  1  0  0  0
 22 23  1  0  0  0
 23 24  2  0  0  0
 23 25  1  0  0  0
  1  2  2  0  0  0
  6  7  1  0  0  0
 25 26  1  0  0  0
  3  4  1  0  0  0
 44 46  1  0  0  0
 45 47  1  0  0  0
 45 48  1  0  0  0
M  END
> <minimizedAffinity>
-6.95252

$$$$
1K1N_CCR_A_999


 48 50  0  0  0  0  0  0  0  0999 V2000
   -2.2583   18.2132   22.4606 C   0  0  0  0  0  0  0  0  0  0  0  0
   -2.1712   17.0476   22.8026 O   0  0  0  0  0  0  0  0  0  0  0  0
   -1.9183   18.6984   21.2348 N   0  0  0  0  0  0  0  0  0  0  0  0
   -2.0718   19.6547   21.0584 H   0  0  0  0  0  0  0  0  0  0  0  0
   -2.7870   19.2582   23.4159 C   0  0  0  0  0  0  0  0  0  0  0  0
   -3.8955   20.0147   22.9009 N   0  0  0  0  0  0  0  0  0  0  0  0
   -4.1633   19.5759   22.0199 H   0  0  0  0  0  0  0  0  0  0  0  0
   -3.7462   21.6159   22.5990 S   0  0  0  0  0  0  0  0  0  0  0  0
   -2.3761   21.9074   22.9500 O   0  0  0  0  0  0  0  0  0  0  0  0
   -4.7014   22.2909   23.4349 O   0  0  0  0  0  0  0  0  0  0  0  0
   -4.1975   21.8206   20.9343 C   0  0  0  0  0  0  0  0  0  0  0  0
   -3.1857   22.0065   19.9335 C   0  0  0  0  0  0  0  0  0  0  0  0
   -3.5290   22.1564   18.5642 C   0  0  0  0  0  0  0  0  0  0  0  0
   -4.8787   22.1138   18.1674 C   0  0  0  0  0  0  0  0  0  0  0  0
   -5.8668   21.9116   19.1553 C   0  0  0  0  0  0  0  0  0  0  0  0
   -5.5540   21.7707   20.5210 C   0  0  0  0  0  0  0  0  0  0  0  0
   -1.6754   22.0705   20.2655 C   0  0  0  0  0  0  0  0  0  0  0  0
   -2.4750   22.3681   17.4479 C   0  0  0  0  0  0  0  0  0  0  0  0
   -6.8213   21.5792   21.3913 C   0  0  0  0  0  0  0  0  0  0  0  0
   -5.2104   22.2576   16.7901 O   0  0  0  0  0  0  0  0  0  0  0  0
   -5.7201   21.1298   16.0349 C   0  0  0  0  0  0  0  0  0  0  0  0
   -3.2755   18.5675   24.6976 C   0  0  0  0  0  0  0  0  0  0  0  0
   -4.7611   18.7092   24.8908 C   0  0  0  0  0  0  0  0  0  0  0  0
   -5.1288   19.7078   25.5196 O   0  0  0  0  0  0  0  0  0  0  0  0
   -5.5513   17.8256   24.4585 O   0  0  0  0  0  0  0  0  0  0  0  0
   -5.2169   17.0881   23.9872 H   0  0  0  0  0  0  0  0  0  0  0  0
   -1.3443   17.8951   20.1728 C   0  0  0  0  0  0  0  0  0  0  0  0
    0.1491   18.1064   20.3166 C   0  0  0  0  0  0  0  0  0  0  0  0
    0.6225   18.0345   21.4410 O   0  0  0  0  0  0  0  0  0  0  0  0
    0.9095   18.3738   19.2263 N   0  0  0  0  0  0  0  0  0  0  0  0
    2.3341   18.6572   19.3967 C   0  0  0  0  0  0  0  0  0  0  0  0
    2.5828   20.1317   19.0873 C   0  0  0  0  0  0  0  0  0  0  0  0
    2.0484   20.4520   17.6608 C   0  0  0  0  0  0  0  0  0  0  0  0
    0.5325   20.1502   17.6114 C   0  0  0  0  0  0  0  0  0  0  0  0
    0.2877   18.6623   17.9280 C   0  0  0  0  0  0  0  0  0  0  0  0
   -1.6833   16.3963   20.4191 C   0  0  0  0  0  0  0  0  0  0  0  0
   -1.7440   15.7037   19.0693 C   0  0  0  0  0  0  0  0  0  0  0  0
   -1.0484   14.4922   18.8745 C   0  0  0  0  0  0  0  0  0  0  0  0
   -2.4719   16.2489   18.0107 C   0  0  0  0  0  0  0  0  0  0  0  0
   -1.1228   13.8330   17.6515 C   0  0  0  0  0  0  0  0  0  0  0  0
   -2.5238   15.5829   16.7791 C   0  0  0  0  0  0  0  0  0  0  0  0
   -1.8536   14.3572   16.5574 C   0  0  0  0  0  0  0  0  0  0  0  0
   -1.9162   13.6415   15.2292 C   0  0  0  0  0  0  0  0  0  0  0  0
   -2.2222   14.2808   14.1117 N   0  0  0  0  0  0  0  0  0  0  0  0
   -1.6884   12.3503   15.1338 N   0  0  0  0  0  0  0  0  0  0  0  0
   -2.4015   15.2486   14.1315 H   0  0  0  0  0  0  0  0  0  0  0  0
   -1.4571   11.8306   15.9374 H   0  0  0  0  0  0  0  0  0  0  0  0
   -1.7492   11.9029   14.2589 H   0  0  0  0  0  0  0  0  0  0  0  0
 37 38  2  0  0  0
 37 39  1  0  0  0
 37 36  1  0  0  0
 38 40  1  0  0  0
 40 42  2  0  0  0
 41 39  2  0  0  0
 41 42  1  0  0  0
 42 43  1  0  0  0
 43 45  1  0  0  0
 43 44  2  0  0  0
 36 27  1  0  0  0
 27  3  1  0  0  0
 27 28  1  0  0  0
  3  1  1  0  0  0
 28 29  2  0  0  0
 28 30  1  0  0  0
 30 31  1  0  0  0
 30 35  1  0  0  0
 31 32  1  0  0  0
 32 33  1  0  0  0
 33 34  1  0  0  0
 34 35  1  0  0  0
  6  8  1  0  0  0
  6  5  1  0  0  0
  8  9  2  0  0  0
  8 10  2  0  0  0
  8 11  1  0  0  0
 11 12  2  0  0  0
 11 16  1  0  0  0
 12 13  1  0  0  0
 12 17  1  0  0  0
 13 14  2  0  0  0
 13 18  1  0  0  0
 14 15  1  0  0  0
 14 20  1  0  0  0
 15 16  2  0  0  0
 16 19  1  0  0  0
 20 21  1  0  0  0
  5 22  1  0  0  0
  5  1  1  0  0  0
 22 23  1  0  0  0
 23 24  2  0  0  0
 23 25  1  0  0  0
  1  2  2  0  0  0
  6  7  1  0  0  0
 25 26  1  0  0  0
  3  4  1  0  0  0
 44 46  1  0  0  0
 45 47  1  0  0  0
 45 48  1  0  0  0
M  END
> <minimizedAffinity>
-6.93260

$$$$
1K1N_CCR_A_999


 48 50  0  0  0  0  0  0  0  0999 V2000
   -0.6271   21.9894   17.7928 C   0  0  0  0  0  0  0  0  0  0  0  0
   -0.5535   22.3649   18.9489 O   0  0  0  0  0  0  0  0  0  0  0  0
   -0.0595   20.8547   17.2990 N   0  0  0  0  0  0  0  0  0  0  0  0
   -0.2222   20.6309   16.3542 H   0  0  0  0  0  0  0  0  0  0  0  0
   -1.4020   22.7898   16.7715 C   0  0  0  0  0  0  0  0  0  0  0  0
   -0.7660   22.8689   15.4848 N   0  0  0  0  0  0  0  0  0  0  0  0
   -0.3805   21.9442   15.2931 H   0  0  0  0  0  0  0  0  0  0  0  0
    0.4381   23.9427   15.2123 S   0  0  0  0  0  0  0  0  0  0  0  0
    0.4323   24.7751   16.3924 O   0  0  0  0  0  0  0  0  0  0  0  0
    0.0982   24.6581   14.0125 O   0  0  0  0  0  0  0  0  0  0  0  0
    1.8595   22.9866   14.9250 C   0  0  0  0  0  0  0  0  0  0  0  0
    3.0903   23.3126   15.5874 C   0  0  0  0  0  0  0  0  0  0  0  0
    4.2599   22.5343   15.3835 C   0  0  0  0  0  0  0  0  0  0  0  0
    4.2226   21.4169   14.5286 C   0  0  0  0  0  0  0  0  0  0  0  0
    3.0034   21.0916   13.8955 C   0  0  0  0  0  0  0  0  0  0  0  0
    1.8320   21.8528   14.0723 C   0  0  0  0  0  0  0  0  0  0  0  0
    3.2370   24.5206   16.5437 C   0  0  0  0  0  0  0  0  0  0  0  0
    5.6140   22.8500   16.0682 C   0  0  0  0  0  0  0  0  0  0  0  0
    0.6438   21.2912   13.2519 C   0  0  0  0  0  0  0  0  0  0  0  0
    5.4001   20.6392   14.3379 O   0  0  0  0  0  0  0  0  0  0  0  0
    6.1412   20.7197   13.0944 C   0  0  0  0  0  0  0  0  0  0  0  0
   -2.7727   22.1332   16.5518 C   0  0  0  0  0  0  0  0  0  0  0  0
   -2.7960   21.2577   15.3281 C   0  0  0  0  0  0  0  0  0  0  0  0
   -3.4519   21.6867   14.3723 O   0  0  0  0  0  0  0  0  0  0  0  0
   -2.2040   20.1435   15.3251 O   0  0  0  0  0  0  0  0  0  0  0  0
   -1.7202   19.8680   16.0788 H   0  0  0  0  0  0  0  0  0  0  0  0
    0.7696   19.9549   18.0774 C   0  0  0  0  0  0  0  0  0  0  0  0
    0.2702   18.5749   17.7011 C   0  0  0  0  0  0  0  0  0  0  0  0
    0.0718   18.3513   16.5161 O   0  0  0  0  0  0  0  0  0  0  0  0
    0.0494   17.6429   18.6608 N   0  0  0  0  0  0  0  0  0  0  0  0
   -0.5117   16.3455   18.2859 C   0  0  0  0  0  0  0  0  0  0  0  0
   -1.9369   16.2513   18.8260 C   0  0  0  0  0  0  0  0  0  0  0  0
   -1.9194   16.5040   20.3619 C   0  0  0  0  0  0  0  0  0  0  0  0
   -1.3435   17.9132   20.6337 C   0  0  0  0  0  0  0  0  0  0  0  0
    0.0929   18.0033   20.0834 C   0  0  0  0  0  0  0  0  0  0  0  0
    2.2538   20.1090   17.6353 C   0  0  0  0  0  0  0  0  0  0  0  0
    3.0602   20.5359   18.8489 C   0  0  0  0  0  0  0  0  0  0  0  0
    3.1537   19.6753   19.9627 C   0  0  0  0  0  0  0  0  0  0  0  0
    3.7074   21.7716   18.8869 C   0  0  0  0  0  0  0  0  0  0  0  0
    3.9157   20.0428   21.0672 C   0  0  0  0  0  0  0  0  0  0  0  0
    4.4572   22.1361   20.0131 C   0  0  0  0  0  0  0  0  0  0  0  0
    4.5866   21.2881   21.1378 C   0  0  0  0  0  0  0  0  0  0  0  0
    5.3993   21.6842   22.3473 C   0  0  0  0  0  0  0  0  0  0  0  0
    6.7045   21.8875   22.2685 N   0  0  0  0  0  0  0  0  0  0  0  0
    4.8449   21.8232   23.5312 N   0  0  0  0  0  0  0  0  0  0  0  0
    7.1657   21.7953   21.4036 H   0  0  0  0  0  0  0  0  0  0  0  0
    3.8767   21.6825   23.6409 H   0  0  0  0  0  0  0  0  0  0  0  0
    5.3979   22.0682   24.3080 H   0  0  0  0  0  0  0  0  0  0  0  0
 37 38  2  0  0  0
 37 39  1  0  0  0
 37 36  1  0  0  0
 38 40  1  0  0  0
 40 42  2  0  0  0
 41 39  2  0  0  0
 41 42  1  0  0  0
 42 43  1  0  0  0
 43 45  1  0  0  0
 43 44  2  0  0  0
 36 27  1  0  0  0
 27  3  1  0  0  0
 27 28  1  0  0  0
  3  1  1  0  0  0
 28 29  2  0  0  0
 28 30  1  0  0  0
 30 31  1  0  0  0
 30 35  1  0  0  0
 31 32  1  0  0  0
 32 33  1  0  0  0
 33 34  1  0  0  0
 34 35  1  0  0  0
  6  8  1  0  0  0
  6  5  1  0  0  0
  8  9  2  0  0  0
  8 10  2  0  0  0
  8 11  1  0  0  0
 11 12  2  0  0  0
 11 16  1  0  0  0
 12 13  1  0  0  0
 12 17  1  0  0  0
 13 14  2  0  0  0
 13 18  1  0  0  0
 14 15  1  0  0  0
 14 20  1  0  0  0
 15 16  2  0  0  0
 16 19  1  0  0  0
 20 21  1  0  0  0
  5 22  1  0  0  0
  5  1  1  0  0  0
 22 23  1  0  0  0
 23 24  2  0  0  0
 23 25  1  0  0  0
  1  2  2  0  0  0
  6  7  1  0  0  0
 25 26  1  0  0  0
  3  4  1  0  0  0
 44 46  1  0  0  0
 45 47  1  0  0  0
 45 48  1  0  0  0
M  END
> <minimizedAffinity>
-6.90969

$$$$
1K1N_CCR_A_999


 48 50  0  0  0  0  0  0  0  0999 V2000
    0.2817   19.0928   21.8614 C   0  0  0  0  0  0  0  0  0  0  0  0
    0.2072   17.8920   22.0500 O   0  0  0  0  0  0  0  0  0  0  0  0
   -0.7197   19.8731   21.3696 N   0  0  0  0  0  0  0  0  0  0  0  0
   -0.5577   20.8416   21.2993 H   0  0  0  0  0  0  0  0  0  0  0  0
    1.5515   19.8455   22.1859 C   0  0  0  0  0  0  0  0  0  0  0  0
    2.0339   20.6700   21.1117 N   0  0  0  0  0  0  0  0  0  0  0  0
    1.2884   20.7082   20.4165 H   0  0  0  0  0  0  0  0  0  0  0  0
    3.4034   20.2774   20.3069 S   0  0  0  0  0  0  0  0  0  0  0  0
    3.4448   18.8356   20.3784 O   0  0  0  0  0  0  0  0  0  0  0  0
    4.4926   20.9107   20.9993 O   0  0  0  0  0  0  0  0  0  0  0  0
    3.2377   20.9873   18.7304 C   0  0  0  0  0  0  0  0  0  0  0  0
    2.2673   20.4699   17.8082 C   0  0  0  0  0  0  0  0  0  0  0  0
    2.1001   21.0459   16.5215 C   0  0  0  0  0  0  0  0  0  0  0  0
    2.8851   22.1485   16.1357 C   0  0  0  0  0  0  0  0  0  0  0  0
    3.8241   22.6636   17.0555 C   0  0  0  0  0  0  0  0  0  0  0  0
    4.0171   22.1045   18.3334 C   0  0  0  0  0  0  0  0  0  0  0  0
    1.3578   19.2607   18.1339 C   0  0  0  0  0  0  0  0  0  0  0  0
    1.0731   20.5186   15.4875 C   0  0  0  0  0  0  0  0  0  0  0  0
    5.1173   22.8464   19.1329 C   0  0  0  0  0  0  0  0  0  0  0  0
    2.7030   22.7228   14.8454 O   0  0  0  0  0  0  0  0  0  0  0  0
    3.7117   22.5563   13.8174 C   0  0  0  0  0  0  0  0  0  0  0  0
    1.2943   20.7752   23.3808 C   0  0  0  0  0  0  0  0  0  0  0  0
    2.5704   21.3138   23.9691 C   0  0  0  0  0  0  0  0  0  0  0  0
    2.9429   22.4091   23.5340 O   0  0  0  0  0  0  0  0  0  0  0  0
    3.2152   20.6454   24.8231 O   0  0  0  0  0  0  0  0  0  0  0  0
    2.8852   19.8195   25.1181 H   0  0  0  0  0  0  0  0  0  0  0  0
   -2.0099   19.3672   20.9427 C   0  0  0  0  0  0  0  0  0  0  0  0
   -3.0075   20.1782   21.7442 C   0  0  0  0  0  0  0  0  0  0  0  0
   -3.2798   21.2980   21.3371 O   0  0  0  0  0  0  0  0  0  0  0  0
   -3.5566   19.6644   22.8724 N   0  0  0  0  0  0  0  0  0  0  0  0
   -4.4530   20.4942   23.6767 C   0  0  0  0  0  0  0  0  0  0  0  0
   -3.7558   20.8410   24.9902 C   0  0  0  0  0  0  0  0  0  0  0  0
   -3.3174   19.5264   25.6991 C   0  0  0  0  0  0  0  0  0  0  0  0
   -2.3477   18.7547   24.7740 C   0  0  0  0  0  0  0  0  0  0  0  0
   -3.0555   18.4109   23.4493 C   0  0  0  0  0  0  0  0  0  0  0  0
   -2.2020   19.6587   19.4261 C   0  0  0  0  0  0  0  0  0  0  0  0
   -2.2161   18.3289   18.6935 C   0  0  0  0  0  0  0  0  0  0  0  0
   -1.9085   17.1433   19.3932 C   0  0  0  0  0  0  0  0  0  0  0  0
   -2.5214   18.2573   17.3337 C   0  0  0  0  0  0  0  0  0  0  0  0
   -1.9492   15.9159   18.7393 C   0  0  0  0  0  0  0  0  0  0  0  0
   -2.5416   17.0161   16.6840 C   0  0  0  0  0  0  0  0  0  0  0  0
   -2.2570   15.8073   17.3612 C   0  0  0  0  0  0  0  0  0  0  0  0
   -2.2841   14.4718   16.6569 C   0  0  0  0  0  0  0  0  0  0  0  0
   -1.9328   13.3557   17.2749 N   0  0  0  0  0  0  0  0  0  0  0  0
   -2.6391   14.3682   15.3954 N   0  0  0  0  0  0  0  0  0  0  0  0
   -1.6590   13.3816   18.2202 H   0  0  0  0  0  0  0  0  0  0  0  0
   -2.9088   15.1704   14.8924 H   0  0  0  0  0  0  0  0  0  0  0  0
   -2.6351   13.4884   14.9536 H   0  0  0  0  0  0  0  0  0  0  0  0
 37 38  2  0  0  0
 37 39  1  0  0  0
 37 36  1  0  0  0
 38 40  1  0  0  0
 40 42  2  0  0  0
 41 39  2  0  0  0
 41 42  1  0  0  0
 42 43  1  0  0  0
 43 45  1  0  0  0
 43 44  2  0  0  0
 36 27  1  0  0  0
 27  3  1  0  0  0
 27 28  1  0  0  0
  3  1  1  0  0  0
 28 29  2  0  0  0
 28 30  1  0  0  0
 30 31  1  0  0  0
 30 35  1  0  0  0
 31 32  1  0  0  0
 32 33  1  0  0  0
 33 34  1  0  0  0
 34 35  1  0  0  0
  6  8  1  0  0  0
  6  5  1  0  0  0
  8  9  2  0  0  0
  8 10  2  0  0  0
  8 11  1  0  0  0
 11 12  2  0  0  0
 11 16  1  0  0  0
 12 13  1  0  0  0
 12 17  1  0  0  0
 13 14  2  0  0  0
 13 18  1  0  0  0
 14 15  1  0  0  0
 14 20  1  0  0  0
 15 16  2  0  0  0
 16 19  1  0  0  0
 20 21  1  0  0  0
  5 22  1  0  0  0
  5  1  1  0  0  0
 22 23  1  0  0  0
 23 24  2  0  0  0
 23 25  1  0  0  0
  1  2  2  0  0  0
  6  7  1  0  0  0
 25 26  1  0  0  0
  3  4  1  0  0  0
 44 46  1  0  0  0
 45 47  1  0  0  0
 45 48  1  0  0  0
M  END
> <minimizedAffinity>
-6.79079

$$$$
