6CHP_F0Y_A_201


 34 37  0  0  0  0  0  0  0  0999 V2000
    7.4548  160.0243   31.1951 C   0  0  0  0  0  0  0  0  0  0  0  0
    9.3559  159.7869   32.8560 C   0  0  0  0  0  0  0  0  0  0  0  0
    8.8821  159.6355   31.5566 C   0  0  0  0  0  0  0  0  0  0  0  0
    9.7358  159.1039   30.5964 C   0  0  0  0  0  0  0  0  0  0  0  0
   11.0326  158.7321   30.9352 C   0  0  0  0  0  0  0  0  0  0  0  0
   11.4879  158.8976   32.2377 C   0  0  0  0  0  0  0  0  0  0  0  0
   10.6576  159.4336   33.2131 C   0  0  0  0  0  0  0  0  0  0  0  0
   11.1595  159.6840   34.6150 C   0  0  0  0  0  0  0  0  0  0  0  0
   12.4199  164.9310   36.0477 C   0  0  0  0  0  0  0  0  0  0  0  0
   12.3288  163.3699   34.1535 C   0  0  0  0  0  0  0  0  0  0  0  0
   11.4418  162.1377   34.0336 C   0  0  0  0  0  0  0  0  0  0  0  0
   12.0407  165.8692   35.3878 O   0  0  0  0  0  0  0  0  0  0  0  0
   12.3225  161.2913   36.2025 C   0  0  0  0  0  0  0  0  0  0  0  0
   13.1738  162.5632   36.3218 C   0  0  0  0  0  0  0  0  0  0  0  0
   12.0524  160.9268   34.7438 C   0  0  0  0  0  0  0  0  0  0  0  0
   12.5984  163.6847   35.5617 N   0  0  0  0  0  0  0  0  0  0  0  0
   12.7391  164.9977   37.3506 O   0  0  0  0  0  0  0  0  0  0  0  0
   13.9628  165.7089   37.6562 C   0  0  0  0  0  0  0  0  0  0  0  0
    7.0992  161.4014   31.5557 N   0  0  0  0  0  0  0  0  0  0  0  0
    6.2048  161.5393   31.9434 H   0  0  0  0  0  0  0  0  0  0  0  0
    7.8718  162.4986   31.4109 C   0  0  0  0  0  0  0  0  0  0  0  0
    9.3862  163.8856   30.6058 C   0  0  0  0  0  0  0  0  0  0  0  0
   10.3510  164.6068   29.9119 C   0  0  0  0  0  0  0  0  0  0  0  0
   10.8060  165.7827   30.4886 C   0  0  0  0  0  0  0  0  0  0  0  0
   10.2934  166.2046   31.7280 C   0  0  0  0  0  0  0  0  0  0  0  0
   10.8198  167.4291   32.4170 C   0  0  0  0  0  0  0  0  0  0  0  0
    8.9118  164.3556   31.8199 C   0  0  0  0  0  0  0  0  0  0  0  0
    7.9724  163.4747   32.2922 N   0  0  0  0  0  0  0  0  0  0  0  0
    9.3413  165.5055   32.3788 N   0  0  0  0  0  0  0  0  0  0  0  0
    8.7006  162.7090   30.3592 N   0  0  0  0  0  0  0  0  0  0  0  0
    7.4670  163.5559   33.1332 H   0  0  0  0  0  0  0  0  0  0  0  0
    6.4230  159.0838   31.8803 C   0  0  0  0  0  0  0  0  0  0  0  0
    6.4251  157.7322   31.3190 C   0  0  0  0  0  0  0  0  0  0  0  0
    6.4648  156.6956   30.8808 N   0  0  0  0  0  0  0  0  0  0  0  0
 18 17  1  0  0  0
 14 16  1  0  0  0
 14 13  1  0  0  0
 17  9  1  0  0  0
 16  9  1  0  0  0
 16 10  1  0  0  0
  9 12  2  0  0  0
 13 15  1  0  0  0
 10 11  1  0  0  0
 15 11  1  0  0  0
 15  8  1  0  0  0
 24 23  2  0  0  0
 24 25  1  0  0  0
 26 25  1  0  0  0
 23 22  1  0  0  0
  8  7  1  0  0  0
 25 29  2  0  0  0
  6  7  2  0  0  0
  6  5  1  0  0  0
  7  2  1  0  0  0
  5  4  2  0  0  0
 22 27  2  0  0  0
 22 30  1  0  0  0
 29 27  1  0  0  0
 27 28  1  0  0  0
 30 21  2  0  0  0
  2  3  2  0  0  0
  4  3  1  0  0  0
  3  1  1  0  0  0
 28 21  1  0  0  0
 21 19  1  0  0  0
  1 19  1  0  0  0
  1 32  1  0  0  0
 32 33  1  0  0  0
 33 34  3  0  0  0
 19 20  1  0  0  0
 28 31  1  0  0  0
M  END
> <minimizedAffinity>
-9.84766

$$$$
6CHP_F0Y_A_201


 34 37  0  0  0  0  0  0  0  0999 V2000
   11.2231  159.1343   33.4843 C   0  0  0  0  0  0  0  0  0  0  0  0
   10.4898  160.3570   31.3874 C   0  0  0  0  0  0  0  0  0  0  0  0
   10.1508  159.7341   32.5845 C   0  0  0  0  0  0  0  0  0  0  0  0
    8.8074  159.6551   32.9345 C   0  0  0  0  0  0  0  0  0  0  0  0
    7.8297  160.1874   32.1005 C   0  0  0  0  0  0  0  0  0  0  0  0
    8.1906  160.8108   30.9122 C   0  0  0  0  0  0  0  0  0  0  0  0
    9.5257  160.9097   30.5438 C   0  0  0  0  0  0  0  0  0  0  0  0
    9.9382  161.6448   29.2910 C   0  0  0  0  0  0  0  0  0  0  0  0
    9.8663  166.4667   32.1047 C   0  0  0  0  0  0  0  0  0  0  0  0
    8.8700  165.2777   30.2001 C   0  0  0  0  0  0  0  0  0  0  0  0
    8.7611  163.7685   30.0275 C   0  0  0  0  0  0  0  0  0  0  0  0
    8.8255  166.9972   32.4125 O   0  0  0  0  0  0  0  0  0  0  0  0
   11.2145  163.5493   30.3865 C   0  0  0  0  0  0  0  0  0  0  0  0
   11.2911  165.0675   30.6005 C   0  0  0  0  0  0  0  0  0  0  0  0
   10.0534  163.1656   29.4709 C   0  0  0  0  0  0  0  0  0  0  0  0
   10.0083  165.6247   31.0596 N   0  0  0  0  0  0  0  0  0  0  0  0
   11.0332  166.6551   32.7423 O   0  0  0  0  0  0  0  0  0  0  0  0
   11.3617  168.0323   33.0456 C   0  0  0  0  0  0  0  0  0  0  0  0
   11.2046  159.6437   34.8601 N   0  0  0  0  0  0  0  0  0  0  0  0
   10.8922  159.0222   35.5568 H   0  0  0  0  0  0  0  0  0  0  0  0
   11.5718  160.8764   35.2691 C   0  0  0  0  0  0  0  0  0  0  0  0
   11.8075  163.0692   35.3155 C   0  0  0  0  0  0  0  0  0  0  0  0
   11.7959  164.4509   35.1640 C   0  0  0  0  0  0  0  0  0  0  0  0
   12.5995  165.1929   36.0161 C   0  0  0  0  0  0  0  0  0  0  0  0
   13.3851  164.5457   36.9862 C   0  0  0  0  0  0  0  0  0  0  0  0
   14.3246  165.3112   37.8709 C   0  0  0  0  0  0  0  0  0  0  0  0
   12.5956  162.4875   36.2957 C   0  0  0  0  0  0  0  0  0  0  0  0
   12.4255  161.1274   36.2427 N   0  0  0  0  0  0  0  0  0  0  0  0
   13.3689  163.2055   37.1357 N   0  0  0  0  0  0  0  0  0  0  0  0
   11.1549  162.0253   34.6831 N   0  0  0  0  0  0  0  0  0  0  0  0
   12.8600  160.4620   36.8237 H   0  0  0  0  0  0  0  0  0  0  0  0
   12.6469  159.3906   32.9133 C   0  0  0  0  0  0  0  0  0  0  0  0
   13.6526  158.4815   33.4644 C   0  0  0  0  0  0  0  0  0  0  0  0
   14.4177  157.7564   33.8608 N   0  0  0  0  0  0  0  0  0  0  0  0
 18 17  1  0  0  0
 14 16  1  0  0  0
 14 13  1  0  0  0
 17  9  1  0  0  0
 16  9  1  0  0  0
 16 10  1  0  0  0
  9 12  2  0  0  0
 13 15  1  0  0  0
 10 11  1  0  0  0
 15 11  1  0  0  0
 15  8  1  0  0  0
 24 23  2  0  0  0
 24 25  1  0  0  0
 26 25  1  0  0  0
 23 22  1  0  0  0
  8  7  1  0  0  0
 25 29  2  0  0  0
  6  7  2  0  0  0
  6  5  1  0  0  0
  7  2  1  0  0  0
  5  4  2  0  0  0
 22 27  2  0  0  0
 22 30  1  0  0  0
 29 27  1  0  0  0
 27 28  1  0  0  0
 30 21  2  0  0  0
  2  3  2  0  0  0
  4  3  1  0  0  0
  3  1  1  0  0  0
 28 21  1  0  0  0
 21 19  1  0  0  0
  1 19  1  0  0  0
  1 32  1  0  0  0
 32 33  1  0  0  0
 33 34  3  0  0  0
 19 20  1  0  0  0
 28 31  1  0  0  0
M  END
> <minimizedAffinity>
-9.04426

$$$$
6CHP_F0Y_A_201


 34 37  0  0  0  0  0  0  0  0999 V2000
    9.4235  158.4519   28.7769 C   0  0  0  0  0  0  0  0  0  0  0  0
    8.4064  160.1820   30.3266 C   0  0  0  0  0  0  0  0  0  0  0  0
    8.4705  158.8619   29.8917 C   0  0  0  0  0  0  0  0  0  0  0  0
    7.6314  157.9257   30.4857 C   0  0  0  0  0  0  0  0  0  0  0  0
    6.7487  158.3082   31.4904 C   0  0  0  0  0  0  0  0  0  0  0  0
    6.7052  159.6309   31.9142 C   0  0  0  0  0  0  0  0  0  0  0  0
    7.5384  160.5833   31.3426 C   0  0  0  0  0  0  0  0  0  0  0  0
    7.5521  162.0089   31.8399 C   0  0  0  0  0  0  0  0  0  0  0  0
   11.4565  164.8428   34.6503 C   0  0  0  0  0  0  0  0  0  0  0  0
   10.3610  164.6337   32.4618 C   0  0  0  0  0  0  0  0  0  0  0  0
    8.9655  164.0865   32.1929 C   0  0  0  0  0  0  0  0  0  0  0  0
   11.5282  166.0467   34.5817 O   0  0  0  0  0  0  0  0  0  0  0  0
    9.5495  161.9954   33.4105 C   0  0  0  0  0  0  0  0  0  0  0  0
   10.9347  162.5873   33.7066 C   0  0  0  0  0  0  0  0  0  0  0  0
    8.9592  162.5575   32.1185 C   0  0  0  0  0  0  0  0  0  0  0  0
   10.9197  164.0591   33.6916 N   0  0  0  0  0  0  0  0  0  0  0  0
   11.9192  164.1111   35.6771 O   0  0  0  0  0  0  0  0  0  0  0  0
   12.9097  164.7619   36.5090 C   0  0  0  0  0  0  0  0  0  0  0  0
   10.7331  157.9878   29.2484 N   0  0  0  0  0  0  0  0  0  0  0  0
   11.1802  157.3002   28.7038 H   0  0  0  0  0  0  0  0  0  0  0  0
   11.3881  158.4063   30.3519 C   0  0  0  0  0  0  0  0  0  0  0  0
   12.0355  158.5588   32.4550 C   0  0  0  0  0  0  0  0  0  0  0  0
   12.3187  158.4506   33.8116 C   0  0  0  0  0  0  0  0  0  0  0  0
   13.1194  159.4316   34.3765 C   0  0  0  0  0  0  0  0  0  0  0  0
   13.6114  160.4832   33.5835 C   0  0  0  0  0  0  0  0  0  0  0  0
   14.4142  161.6027   34.1780 C   0  0  0  0  0  0  0  0  0  0  0  0
   12.5561  159.6131   31.7219 C   0  0  0  0  0  0  0  0  0  0  0  0
   12.1385  159.4888   30.4212 N   0  0  0  0  0  0  0  0  0  0  0  0
   13.3462  160.5626   32.2636 N   0  0  0  0  0  0  0  0  0  0  0  0
   11.3061  157.7963   31.5595 N   0  0  0  0  0  0  0  0  0  0  0  0
   12.3581  160.0951   29.6774 H   0  0  0  0  0  0  0  0  0  0  0  0
    9.6754  159.6268   27.7894 C   0  0  0  0  0  0  0  0  0  0  0  0
   10.8312  159.4014   26.9204 C   0  0  0  0  0  0  0  0  0  0  0  0
   11.7394  159.2127   26.2818 N   0  0  0  0  0  0  0  0  0  0  0  0
 18 17  1  0  0  0
 14 16  1  0  0  0
 14 13  1  0  0  0
 17  9  1  0  0  0
 16  9  1  0  0  0
 16 10  1  0  0  0
  9 12  2  0  0  0
 13 15  1  0  0  0
 10 11  1  0  0  0
 15 11  1  0  0  0
 15  8  1  0  0  0
 24 23  2  0  0  0
 24 25  1  0  0  0
 26 25  1  0  0  0
 23 22  1  0  0  0
  8  7  1  0  0  0
 25 29  2  0  0  0
  6  7  2  0  0  0
  6  5  1  0  0  0
  7  2  1  0  0  0
  5  4  2  0  0  0
 22 27  2  0  0  0
 22 30  1  0  0  0
 29 27  1  0  0  0
 27 28  1  0  0  0
 30 21  2  0  0  0
  2  3  2  0  0  0
  4  3  1  0  0  0
  3  1  1  0  0  0
 28 21  1  0  0  0
 21 19  1  0  0  0
  1 19  1  0  0  0
  1 32  1  0  0  0
 32 33  1  0  0  0
 33 34  3  0  0  0
 19 20  1  0  0  0
 28 31  1  0  0  0
M  END
> <minimizedAffinity>
-8.89706

$$$$
6CHP_F0Y_A_201


 34 37  0  0  0  0  0  0  0  0999 V2000
   11.4107  159.6096   29.5155 C   0  0  0  0  0  0  0  0  0  0  0  0
   10.8534  159.7756   31.9835 C   0  0  0  0  0  0  0  0  0  0  0  0
   10.4317  159.5352   30.6796 C   0  0  0  0  0  0  0  0  0  0  0  0
    9.0905  159.2420   30.4590 C   0  0  0  0  0  0  0  0  0  0  0  0
    8.1958  159.1938   31.5230 C   0  0  0  0  0  0  0  0  0  0  0  0
    8.6392  159.4311   32.8184 C   0  0  0  0  0  0  0  0  0  0  0  0
    9.9750  159.7181   33.0660 C   0  0  0  0  0  0  0  0  0  0  0  0
   10.4850  159.9095   34.4743 C   0  0  0  0  0  0  0  0  0  0  0  0
   12.6955  164.7169   36.2562 C   0  0  0  0  0  0  0  0  0  0  0  0
   12.1288  163.4322   34.2408 C   0  0  0  0  0  0  0  0  0  0  0  0
   11.0580  162.3559   34.1207 C   0  0  0  0  0  0  0  0  0  0  0  0
   12.3811  165.7729   35.7608 O   0  0  0  0  0  0  0  0  0  0  0  0
   12.0703  161.1333   36.0382 C   0  0  0  0  0  0  0  0  0  0  0  0
   13.1121  162.2535   36.1670 C   0  0  0  0  0  0  0  0  0  0  0  0
   11.5644  160.9943   34.6035 C   0  0  0  0  0  0  0  0  0  0  0  0
   12.6203  163.5288   35.6207 N   0  0  0  0  0  0  0  0  0  0  0  0
   13.1847  164.5761   37.4990 O   0  0  0  0  0  0  0  0  0  0  0  0
   14.1675  165.5622   37.8968 C   0  0  0  0  0  0  0  0  0  0  0  0
   11.4947  160.9327   28.8868 N   0  0  0  0  0  0  0  0  0  0  0  0
   11.8893  160.9690   27.9856 H   0  0  0  0  0  0  0  0  0  0  0  0
   11.0869  162.1052   29.4167 C   0  0  0  0  0  0  0  0  0  0  0  0
    9.8249  163.8563   29.8711 C   0  0  0  0  0  0  0  0  0  0  0  0
    8.8552  164.8373   30.0440 C   0  0  0  0  0  0  0  0  0  0  0  0
    9.2242  165.9855   30.7280 C   0  0  0  0  0  0  0  0  0  0  0  0
   10.5353  166.1248   31.2164 C   0  0  0  0  0  0  0  0  0  0  0  0
   10.9898  167.3856   31.8909 C   0  0  0  0  0  0  0  0  0  0  0  0
   11.0987  164.0454   30.3825 C   0  0  0  0  0  0  0  0  0  0  0  0
   11.8566  162.9411   30.0864 N   0  0  0  0  0  0  0  0  0  0  0  0
   11.4590  165.1546   31.0601 N   0  0  0  0  0  0  0  0  0  0  0  0
    9.8369  162.6088   29.2718 N   0  0  0  0  0  0  0  0  0  0  0  0
   12.8002  162.7989   30.3287 H   0  0  0  0  0  0  0  0  0  0  0  0
   11.0414  158.5890   28.4016 C   0  0  0  0  0  0  0  0  0  0  0  0
   10.5267  159.2301   27.1909 C   0  0  0  0  0  0  0  0  0  0  0  0
   10.0985  159.7328   26.2786 N   0  0  0  0  0  0  0  0  0  0  0  0
 18 17  1  0  0  0
 14 16  1  0  0  0
 14 13  1  0  0  0
 17  9  1  0  0  0
 16  9  1  0  0  0
 16 10  1  0  0  0
  9 12  2  0  0  0
 13 15  1  0  0  0
 10 11  1  0  0  0
 15 11  1  0  0  0
 15  8  1  0  0  0
 24 23  2  0  0  0
 24 25  1  0  0  0
 26 25  1  0  0  0
 23 22  1  0  0  0
  8  7  1  0  0  0
 25 29  2  0  0  0
  6  7  2  0  0  0
  6  5  1  0  0  0
  7  2  1  0  0  0
  5  4  2  0  0  0
 22 27  2  0  0  0
 22 30  1  0  0  0
 29 27  1  0  0  0
 27 28  1  0  0  0
 30 21  2  0  0  0
  2  3  2  0  0  0
  4  3  1  0  0  0
  3  1  1  0  0  0
 28 21  1  0  0  0
 21 19  1  0  0  0
  1 19  1  0  0  0
  1 32  1  0  0  0
 32 33  1  0  0  0
 33 34  3  0  0  0
 19 20  1  0  0  0
 28 31  1  0  0  0
M  END
> <minimizedAffinity>
-8.86420

$$$$
6CHP_F0Y_A_201


 34 37  0  0  0  0  0  0  0  0999 V2000
   12.3207  158.7443   33.9129 C   0  0  0  0  0  0  0  0  0  0  0  0
   10.2011  159.3139   32.6431 C   0  0  0  0  0  0  0  0  0  0  0  0
   11.4642  158.7304   32.6538 C   0  0  0  0  0  0  0  0  0  0  0  0
   11.9364  158.1483   31.4827 C   0  0  0  0  0  0  0  0  0  0  0  0
   11.1587  158.1547   30.3295 C   0  0  0  0  0  0  0  0  0  0  0  0
    9.8973  158.7376   30.3423 C   0  0  0  0  0  0  0  0  0  0  0  0
    9.3996  159.3185   31.5011 C   0  0  0  0  0  0  0  0  0  0  0  0
    8.0042  159.8935   31.5498 C   0  0  0  0  0  0  0  0  0  0  0  0
    9.3717  165.2320   30.6531 C   0  0  0  0  0  0  0  0  0  0  0  0
    7.5319  163.7530   31.3322 C   0  0  0  0  0  0  0  0  0  0  0  0
    7.6611  162.3733   31.9639 C   0  0  0  0  0  0  0  0  0  0  0  0
    9.0624  166.0982   31.4362 O   0  0  0  0  0  0  0  0  0  0  0  0
    9.1095  161.6432   30.0756 C   0  0  0  0  0  0  0  0  0  0  0  0
    8.9999  163.0547   29.4819 C   0  0  0  0  0  0  0  0  0  0  0  0
    7.8816  161.2845   30.9106 C   0  0  0  0  0  0  0  0  0  0  0  0
    8.7089  164.0648   30.5123 N   0  0  0  0  0  0  0  0  0  0  0  0
   10.4030  165.3145   29.7967 O   0  0  0  0  0  0  0  0  0  0  0  0
   11.7183  165.2890   30.4016 C   0  0  0  0  0  0  0  0  0  0  0  0
   11.7161  159.4615   35.0411 N   0  0  0  0  0  0  0  0  0  0  0  0
   11.0699  158.9593   35.5882 H   0  0  0  0  0  0  0  0  0  0  0  0
   11.9546  160.7388   35.4062 C   0  0  0  0  0  0  0  0  0  0  0  0
   11.9876  162.9439   35.3626 C   0  0  0  0  0  0  0  0  0  0  0  0
   11.8555  164.3112   35.1496 C   0  0  0  0  0  0  0  0  0  0  0  0
   12.5574  165.1590   35.9928 C   0  0  0  0  0  0  0  0  0  0  0  0
   13.3637  164.6281   37.0150 C   0  0  0  0  0  0  0  0  0  0  0  0
   14.1975  165.5132   37.8940 C   0  0  0  0  0  0  0  0  0  0  0  0
   12.7901  162.4788   36.3921 C   0  0  0  0  0  0  0  0  0  0  0  0
   12.7467  161.1078   36.3942 N   0  0  0  0  0  0  0  0  0  0  0  0
   13.4644  163.2995   37.2234 N   0  0  0  0  0  0  0  0  0  0  0  0
   11.4558  161.8189   34.7569 N   0  0  0  0  0  0  0  0  0  0  0  0
   13.2192  160.5100   37.0177 H   0  0  0  0  0  0  0  0  0  0  0  0
   13.7098  159.3897   33.6432 C   0  0  0  0  0  0  0  0  0  0  0  0
   14.7999  158.7044   34.3388 C   0  0  0  0  0  0  0  0  0  0  0  0
   15.6298  158.1968   34.9061 N   0  0  0  0  0  0  0  0  0  0  0  0
 18 17  1  0  0  0
 14 16  1  0  0  0
 14 13  1  0  0  0
 17  9  1  0  0  0
 16  9  1  0  0  0
 16 10  1  0  0  0
  9 12  2  0  0  0
 13 15  1  0  0  0
 10 11  1  0  0  0
 15 11  1  0  0  0
 15  8  1  0  0  0
 24 23  2  0  0  0
 24 25  1  0  0  0
 26 25  1  0  0  0
 23 22  1  0  0  0
  8  7  1  0  0  0
 25 29  2  0  0  0
  6  7  2  0  0  0
  6  5  1  0  0  0
  7  2  1  0  0  0
  5  4  2  0  0  0
 22 27  2  0  0  0
 22 30  1  0  0  0
 29 27  1  0  0  0
 27 28  1  0  0  0
 30 21  2  0  0  0
  2  3  2  0  0  0
  4  3  1  0  0  0
  3  1  1  0  0  0
 28 21  1  0  0  0
 21 19  1  0  0  0
  1 19  1  0  0  0
  1 32  1  0  0  0
 32 33  1  0  0  0
 33 34  3  0  0  0
 19 20  1  0  0  0
 28 31  1  0  0  0
M  END
> <minimizedAffinity>
-8.81621

$$$$
6CHP_F0Y_A_201


 34 37  0  0  0  0  0  0  0  0999 V2000
   12.7624  161.6943   34.2306 C   0  0  0  0  0  0  0  0  0  0  0  0
   11.5993  163.6710   33.1493 C   0  0  0  0  0  0  0  0  0  0  0  0
   12.2375  163.1236   34.2578 C   0  0  0  0  0  0  0  0  0  0  0  0
   12.3708  163.9050   35.4002 C   0  0  0  0  0  0  0  0  0  0  0  0
   11.8728  165.2035   35.4274 C   0  0  0  0  0  0  0  0  0  0  0  0
   11.2442  165.7330   34.3069 C   0  0  0  0  0  0  0  0  0  0  0  0
   11.1056  164.9759   33.1512 C   0  0  0  0  0  0  0  0  0  0  0  0
   10.4875  165.5604   31.9037 C   0  0  0  0  0  0  0  0  0  0  0  0
    8.0456  160.6632   30.7960 C   0  0  0  0  0  0  0  0  0  0  0  0
    9.3729  162.4762   29.8035 C   0  0  0  0  0  0  0  0  0  0  0  0
   10.3056  163.4279   30.5408 C   0  0  0  0  0  0  0  0  0  0  0  0
    8.6215  159.8021   30.1747 O   0  0  0  0  0  0  0  0  0  0  0  0
    8.4545  164.0472   32.0855 C   0  0  0  0  0  0  0  0  0  0  0  0
    7.5466  163.0486   31.3538 C   0  0  0  0  0  0  0  0  0  0  0  0
    9.5437  164.5985   31.1672 C   0  0  0  0  0  0  0  0  0  0  0  0
    8.3184  161.9812   30.6968 N   0  0  0  0  0  0  0  0  0  0  0  0
    7.0389  160.4360   31.6555 O   0  0  0  0  0  0  0  0  0  0  0  0
    6.6173  159.0555   31.7699 C   0  0  0  0  0  0  0  0  0  0  0  0
   12.0430  160.8092   33.3077 N   0  0  0  0  0  0  0  0  0  0  0  0
   11.2728  160.3191   33.6762 H   0  0  0  0  0  0  0  0  0  0  0  0
   12.3283  160.5975   32.0055 C   0  0  0  0  0  0  0  0  0  0  0  0
   13.3282  160.7401   30.0445 C   0  0  0  0  0  0  0  0  0  0  0  0
   14.1287  160.9524   28.9281 C   0  0  0  0  0  0  0  0  0  0  0  0
   13.6921  160.4282   27.7210 C   0  0  0  0  0  0  0  0  0  0  0  0
   12.4827  159.7139   27.6587 C   0  0  0  0  0  0  0  0  0  0  0  0
   11.9421  159.2016   26.3561 C   0  0  0  0  0  0  0  0  0  0  0  0
   12.1502  160.0203   29.9240 C   0  0  0  0  0  0  0  0  0  0  0  0
   11.5548  159.9476   31.1576 N   0  0  0  0  0  0  0  0  0  0  0  0
   11.7277  159.4970   28.7549 N   0  0  0  0  0  0  0  0  0  0  0  0
   13.4274  161.0862   31.3809 N   0  0  0  0  0  0  0  0  0  0  0  0
   10.7072  159.4943   31.3706 H   0  0  0  0  0  0  0  0  0  0  0  0
   12.6999  161.0433   35.6417 C   0  0  0  0  0  0  0  0  0  0  0  0
   11.6854  159.9930   35.7389 C   0  0  0  0  0  0  0  0  0  0  0  0
   10.9044  159.1825   35.7752 N   0  0  0  0  0  0  0  0  0  0  0  0
 18 17  1  0  0  0
 14 16  1  0  0  0
 14 13  1  0  0  0
 17  9  1  0  0  0
 16  9  1  0  0  0
 16 10  1  0  0  0
  9 12  2  0  0  0
 13 15  1  0  0  0
 10 11  1  0  0  0
 15 11  1  0  0  0
 15  8  1  0  0  0
 24 23  2  0  0  0
 24 25  1  0  0  0
 26 25  1  0  0  0
 23 22  1  0  0  0
  8  7  1  0  0  0
 25 29  2  0  0  0
  6  7  2  0  0  0
  6  5  1  0  0  0
  7  2  1  0  0  0
  5  4  2  0  0  0
 22 27  2  0  0  0
 22 30  1  0  0  0
 29 27  1  0  0  0
 27 28  1  0  0  0
 30 21  2  0  0  0
  2  3  2  0  0  0
  4  3  1  0  0  0
  3  1  1  0  0  0
 28 21  1  0  0  0
 21 19  1  0  0  0
  1 19  1  0  0  0
  1 32  1  0  0  0
 32 33  1  0  0  0
 33 34  3  0  0  0
 19 20  1  0  0  0
 28 31  1  0  0  0
M  END
> <minimizedAffinity>
-8.70128

$$$$
6CHP_F0Y_A_201


 34 37  0  0  0  0  0  0  0  0999 V2000
   11.9395  164.3039   34.3211 C   0  0  0  0  0  0  0  0  0  0  0  0
    9.9909  164.0451   32.7194 C   0  0  0  0  0  0  0  0  0  0  0  0
   10.8872  164.8780   33.3818 C   0  0  0  0  0  0  0  0  0  0  0  0
   10.7905  166.2505   33.1813 C   0  0  0  0  0  0  0  0  0  0  0  0
    9.8155  166.7721   32.3374 C   0  0  0  0  0  0  0  0  0  0  0  0
    8.9341  165.9219   31.6806 C   0  0  0  0  0  0  0  0  0  0  0  0
    9.0151  164.5471   31.8578 C   0  0  0  0  0  0  0  0  0  0  0  0
    8.1104  163.6067   31.0980 C   0  0  0  0  0  0  0  0  0  0  0  0
    8.2298  158.2653   29.4769 C   0  0  0  0  0  0  0  0  0  0  0  0
    7.8461  159.7338   31.4082 C   0  0  0  0  0  0  0  0  0  0  0  0
    7.3942  161.1875   31.3686 C   0  0  0  0  0  0  0  0  0  0  0  0
    7.3574  157.4935   29.7971 O   0  0  0  0  0  0  0  0  0  0  0  0
    9.2840  161.7345   29.8434 C   0  0  0  0  0  0  0  0  0  0  0  0
    9.6931  160.2550   29.8644 C   0  0  0  0  0  0  0  0  0  0  0  0
    8.5679  162.1411   31.1301 C   0  0  0  0  0  0  0  0  0  0  0  0
    8.5561  159.3733   30.1749 N   0  0  0  0  0  0  0  0  0  0  0  0
    9.0134  158.1207   28.3957 O   0  0  0  0  0  0  0  0  0  0  0  0
    8.3820  157.5059   27.2468 C   0  0  0  0  0  0  0  0  0  0  0  0
   11.8573  162.8495   34.4959 N   0  0  0  0  0  0  0  0  0  0  0  0
   10.9838  162.4862   34.7684 H   0  0  0  0  0  0  0  0  0  0  0  0
   12.8557  161.9581   34.3216 C   0  0  0  0  0  0  0  0  0  0  0  0
   14.6220  160.9535   33.4634 C   0  0  0  0  0  0  0  0  0  0  0  0
   15.7545  160.5179   32.7851 C   0  0  0  0  0  0  0  0  0  0  0  0
   16.2698  159.2788   33.1337 C   0  0  0  0  0  0  0  0  0  0  0  0
   15.6499  158.5145   34.1380 C   0  0  0  0  0  0  0  0  0  0  0  0
   16.1339  157.1372   34.4847 C   0  0  0  0  0  0  0  0  0  0  0  0
   14.0595  160.1604   34.4507 C   0  0  0  0  0  0  0  0  0  0  0  0
   12.9676  160.8122   34.9650 N   0  0  0  0  0  0  0  0  0  0  0  0
   14.5645  158.9603   34.8027 N   0  0  0  0  0  0  0  0  0  0  0  0
   13.8467  162.0986   33.4077 N   0  0  0  0  0  0  0  0  0  0  0  0
   12.3769  160.4852   35.6816 H   0  0  0  0  0  0  0  0  0  0  0  0
   11.8458  164.9474   35.7340 C   0  0  0  0  0  0  0  0  0  0  0  0
   12.6072  164.2126   36.7450 C   0  0  0  0  0  0  0  0  0  0  0  0
   13.1627  163.6236   37.5277 N   0  0  0  0  0  0  0  0  0  0  0  0
 18 17  1  0  0  0
 14 16  1  0  0  0
 14 13  1  0  0  0
 17  9  1  0  0  0
 16  9  1  0  0  0
 16 10  1  0  0  0
  9 12  2  0  0  0
 13 15  1  0  0  0
 10 11  1  0  0  0
 15 11  1  0  0  0
 15  8  1  0  0  0
 24 23  2  0  0  0
 24 25  1  0  0  0
 26 25  1  0  0  0
 23 22  1  0  0  0
  8  7  1  0  0  0
 25 29  2  0  0  0
  6  7  2  0  0  0
  6  5  1  0  0  0
  7  2  1  0  0  0
  5  4  2  0  0  0
 22 27  2  0  0  0
 22 30  1  0  0  0
 29 27  1  0  0  0
 27 28  1  0  0  0
 30 21  2  0  0  0
  2  3  2  0  0  0
  4  3  1  0  0  0
  3  1  1  0  0  0
 28 21  1  0  0  0
 21 19  1  0  0  0
  1 19  1  0  0  0
  1 32  1  0  0  0
 32 33  1  0  0  0
 33 34  3  0  0  0
 19 20  1  0  0  0
 28 31  1  0  0  0
M  END
> <minimizedAffinity>
-8.48184

$$$$
6CHP_F0Y_A_201


 34 37  0  0  0  0  0  0  0  0999 V2000
    8.1489  159.7291   32.2398 C   0  0  0  0  0  0  0  0  0  0  0  0
    9.4958  161.8774   32.2488 C   0  0  0  0  0  0  0  0  0  0  0  0
    8.3016  161.2201   31.9700 C   0  0  0  0  0  0  0  0  0  0  0  0
    7.2535  161.9513   31.4221 C   0  0  0  0  0  0  0  0  0  0  0  0
    7.4036  163.3090   31.1595 C   0  0  0  0  0  0  0  0  0  0  0  0
    8.6029  163.9474   31.4513 C   0  0  0  0  0  0  0  0  0  0  0  0
    9.6620  163.2413   32.0062 C   0  0  0  0  0  0  0  0  0  0  0  0
   10.9462  163.9348   32.3930 C   0  0  0  0  0  0  0  0  0  0  0  0
   13.9276  164.8574   37.0225 C   0  0  0  0  0  0  0  0  0  0  0  0
   12.9518  163.0906   35.6227 C   0  0  0  0  0  0  0  0  0  0  0  0
   12.6286  163.1829   34.1373 C   0  0  0  0  0  0  0  0  0  0  0  0
   14.9233  164.2176   37.2646 O   0  0  0  0  0  0  0  0  0  0  0  0
   11.2670  165.2235   34.5592 C   0  0  0  0  0  0  0  0  0  0  0  0
   11.6434  165.1342   36.0448 C   0  0  0  0  0  0  0  0  0  0  0  0
   11.2728  163.8497   33.8911 C   0  0  0  0  0  0  0  0  0  0  0  0
   12.9127  164.4174   36.2495 N   0  0  0  0  0  0  0  0  0  0  0  0
   13.6777  166.0859   37.5043 O   0  0  0  0  0  0  0  0  0  0  0  0
   14.8365  166.8215   37.9655 C   0  0  0  0  0  0  0  0  0  0  0  0
    8.9514  158.8751   31.3569 N   0  0  0  0  0  0  0  0  0  0  0  0
    8.8958  157.9044   31.5116 H   0  0  0  0  0  0  0  0  0  0  0  0
    9.7580  159.2830   30.3545 C   0  0  0  0  0  0  0  0  0  0  0  0
   10.4317  159.9095   28.3497 C   0  0  0  0  0  0  0  0  0  0  0  0
   10.6209  160.3139   27.0333 C   0  0  0  0  0  0  0  0  0  0  0  0
   11.9265  160.4941   26.6027 C   0  0  0  0  0  0  0  0  0  0  0  0
   12.9976  160.2691   27.4853 C   0  0  0  0  0  0  0  0  0  0  0  0
   14.4232  160.3781   27.0304 C   0  0  0  0  0  0  0  0  0  0  0  0
   11.5260  159.7117   29.1765 C   0  0  0  0  0  0  0  0  0  0  0  0
   11.0749  159.3262   30.4132 N   0  0  0  0  0  0  0  0  0  0  0  0
   12.7973  159.8984   28.7664 N   0  0  0  0  0  0  0  0  0  0  0  0
    9.3164  159.6433   29.1248 N   0  0  0  0  0  0  0  0  0  0  0  0
   11.6311  159.1199   31.1989 H   0  0  0  0  0  0  0  0  0  0  0  0
    6.6668  159.2792   32.0993 C   0  0  0  0  0  0  0  0  0  0  0  0
    6.5297  157.9541   31.4933 C   0  0  0  0  0  0  0  0  0  0  0  0
    6.4277  156.9188   31.0621 N   0  0  0  0  0  0  0  0  0  0  0  0
 18 17  1  0  0  0
 14 16  1  0  0  0
 14 13  1  0  0  0
 17  9  1  0  0  0
 16  9  1  0  0  0
 16 10  1  0  0  0
  9 12  2  0  0  0
 13 15  1  0  0  0
 10 11  1  0  0  0
 15 11  1  0  0  0
 15  8  1  0  0  0
 24 23  2  0  0  0
 24 25  1  0  0  0
 26 25  1  0  0  0
 23 22  1  0  0  0
  8  7  1  0  0  0
 25 29  2  0  0  0
  6  7  2  0  0  0
  6  5  1  0  0  0
  7  2  1  0  0  0
  5  4  2  0  0  0
 22 27  2  0  0  0
 22 30  1  0  0  0
 29 27  1  0  0  0
 27 28  1  0  0  0
 30 21  2  0  0  0
  2  3  2  0  0  0
  4  3  1  0  0  0
  3  1  1  0  0  0
 28 21  1  0  0  0
 21 19  1  0  0  0
  1 19  1  0  0  0
  1 32  1  0  0  0
 32 33  1  0  0  0
 33 34  3  0  0  0
 19 20  1  0  0  0
 28 31  1  0  0  0
M  END
> <minimizedAffinity>
-8.47354

$$$$
6CHP_F0Y_A_201


 34 37  0  0  0  0  0  0  0  0999 V2000
   12.9916  163.5803   36.9288 C   0  0  0  0  0  0  0  0  0  0  0  0
   12.2991  161.3965   35.8421 C   0  0  0  0  0  0  0  0  0  0  0  0
   13.1970  162.4563   35.9221 C   0  0  0  0  0  0  0  0  0  0  0  0
   14.2792  162.4768   35.0492 C   0  0  0  0  0  0  0  0  0  0  0  0
   14.4526  161.4580   34.1182 C   0  0  0  0  0  0  0  0  0  0  0  0
   13.5472  160.4054   34.0594 C   0  0  0  0  0  0  0  0  0  0  0  0
   12.4628  160.3577   34.9253 C   0  0  0  0  0  0  0  0  0  0  0  0
   11.5100  159.1862   34.9204 C   0  0  0  0  0  0  0  0  0  0  0  0
    8.8249  161.3722   30.5403 C   0  0  0  0  0  0  0  0  0  0  0  0
    8.5739  160.7650   32.9072 C   0  0  0  0  0  0  0  0  0  0  0  0
    9.6878  160.6548   33.9399 C   0  0  0  0  0  0  0  0  0  0  0  0
    8.1573  162.3730   30.6502 O   0  0  0  0  0  0  0  0  0  0  0  0
   10.9114  159.0770   32.4534 C   0  0  0  0  0  0  0  0  0  0  0  0
    9.7973  159.2394   31.4098 C   0  0  0  0  0  0  0  0  0  0  0  0
   10.3922  159.2973   33.8731 C   0  0  0  0  0  0  0  0  0  0  0  0
    9.0894  160.5219   31.5544 N   0  0  0  0  0  0  0  0  0  0  0  0
    9.3796  160.9508   29.3921 O   0  0  0  0  0  0  0  0  0  0  0  0
   10.2929  161.8819   28.7632 C   0  0  0  0  0  0  0  0  0  0  0  0
   11.9265  164.5221   36.5665 N   0  0  0  0  0  0  0  0  0  0  0  0
   11.3806  164.8766   37.3051 H   0  0  0  0  0  0  0  0  0  0  0  0
   11.6179  164.9526   35.3251 C   0  0  0  0  0  0  0  0  0  0  0  0
   11.2527  166.3080   33.6236 C   0  0  0  0  0  0  0  0  0  0  0  0
   11.1179  167.3323   32.6935 C   0  0  0  0  0  0  0  0  0  0  0  0
   10.5687  167.0080   31.4624 C   0  0  0  0  0  0  0  0  0  0  0  0
   10.1725  165.6861   31.1932 C   0  0  0  0  0  0  0  0  0  0  0  0
    9.5030  165.3169   29.9021 C   0  0  0  0  0  0  0  0  0  0  0  0
   10.8525  165.0218   33.2985 C   0  0  0  0  0  0  0  0  0  0  0  0
   11.0942  164.2045   34.3734 N   0  0  0  0  0  0  0  0  0  0  0  0
   10.3301  164.6984   32.0979 N   0  0  0  0  0  0  0  0  0  0  0  0
   11.7487  166.2374   34.9137 N   0  0  0  0  0  0  0  0  0  0  0  0
   10.9108  163.2386   34.4249 H   0  0  0  0  0  0  0  0  0  0  0  0
   14.2946  164.4064   37.1258 C   0  0  0  0  0  0  0  0  0  0  0  0
   14.0666  165.6684   37.8308 C   0  0  0  0  0  0  0  0  0  0  0  0
   13.8628  166.6477   38.3482 N   0  0  0  0  0  0  0  0  0  0  0  0
 18 17  1  0  0  0
 14 16  1  0  0  0
 14 13  1  0  0  0
 17  9  1  0  0  0
 16  9  1  0  0  0
 16 10  1  0  0  0
  9 12  2  0  0  0
 13 15  1  0  0  0
 10 11  1  0  0  0
 15 11  1  0  0  0
 15  8  1  0  0  0
 24 23  2  0  0  0
 24 25  1  0  0  0
 26 25  1  0  0  0
 23 22  1  0  0  0
  8  7  1  0  0  0
 25 29  2  0  0  0
  6  7  2  0  0  0
  6  5  1  0  0  0
  7  2  1  0  0  0
  5  4  2  0  0  0
 22 27  2  0  0  0
 22 30  1  0  0  0
 29 27  1  0  0  0
 27 28  1  0  0  0
 30 21  2  0  0  0
  2  3  2  0  0  0
  4  3  1  0  0  0
  3  1  1  0  0  0
 28 21  1  0  0  0
 21 19  1  0  0  0
  1 19  1  0  0  0
  1 32  1  0  0  0
 32 33  1  0  0  0
 33 34  3  0  0  0
 19 20  1  0  0  0
 28 31  1  0  0  0
M  END
> <minimizedAffinity>
-8.40459

$$$$
6CHP_F0Y_A_201


 34 37  0  0  0  0  0  0  0  0999 V2000
    8.6564  158.9637   30.5494 C   0  0  0  0  0  0  0  0  0  0  0  0
    8.8563  161.4881   30.6794 C   0  0  0  0  0  0  0  0  0  0  0  0
    9.0112  160.3161   29.9458 C   0  0  0  0  0  0  0  0  0  0  0  0
    9.5145  160.4040   28.6527 C   0  0  0  0  0  0  0  0  0  0  0  0
    9.8554  161.6394   28.1119 C   0  0  0  0  0  0  0  0  0  0  0  0
    9.6870  162.7984   28.8598 C   0  0  0  0  0  0  0  0  0  0  0  0
    9.1787  162.7383   30.1506 C   0  0  0  0  0  0  0  0  0  0  0  0
    8.9249  163.9941   30.9497 C   0  0  0  0  0  0  0  0  0  0  0  0
   12.1236  164.5028   35.4974 C   0  0  0  0  0  0  0  0  0  0  0  0
   10.9093  165.7789   33.7856 C   0  0  0  0  0  0  0  0  0  0  0  0
    9.7099  165.3021   32.9773 C   0  0  0  0  0  0  0  0  0  0  0  0
   11.8383  165.2755   36.3811 O   0  0  0  0  0  0  0  0  0  0  0  0
   10.9963  163.3000   32.2473 C   0  0  0  0  0  0  0  0  0  0  0  0
   12.1758  163.7792   33.1050 C   0  0  0  0  0  0  0  0  0  0  0  0
   10.1359  164.4673   31.7669 C   0  0  0  0  0  0  0  0  0  0  0  0
   11.7366  164.6438   34.2123 N   0  0  0  0  0  0  0  0  0  0  0  0
   12.8833  163.4074   35.6615 O   0  0  0  0  0  0  0  0  0  0  0  0
   12.9821  162.9159   37.0199 C   0  0  0  0  0  0  0  0  0  0  0  0
    9.8157  158.1071   30.8235 N   0  0  0  0  0  0  0  0  0  0  0  0
    9.8819  157.2740   30.3030 H   0  0  0  0  0  0  0  0  0  0  0  0
   10.8006  158.3433   31.7155 C   0  0  0  0  0  0  0  0  0  0  0  0
   11.9830  159.3235   33.2988 C   0  0  0  0  0  0  0  0  0  0  0  0
   12.5357  160.0848   34.3221 C   0  0  0  0  0  0  0  0  0  0  0  0
   13.8120  159.7503   34.7483 C   0  0  0  0  0  0  0  0  0  0  0  0
   14.4967  158.6777   34.1501 C   0  0  0  0  0  0  0  0  0  0  0  0
   15.9075  158.3389   34.5321 C   0  0  0  0  0  0  0  0  0  0  0  0
   12.7021  158.2721   32.7533 C   0  0  0  0  0  0  0  0  0  0  0  0
   11.9408  157.6830   31.7760 N   0  0  0  0  0  0  0  0  0  0  0  0
   13.9385  157.9342   33.1732 N   0  0  0  0  0  0  0  0  0  0  0  0
   10.7706  159.3418   32.6316 N   0  0  0  0  0  0  0  0  0  0  0  0
   12.1979  156.9106   31.2223 H   0  0  0  0  0  0  0  0  0  0  0  0
    7.6982  158.1651   29.6205 C   0  0  0  0  0  0  0  0  0  0  0  0
    6.7686  157.3113   30.3612 C   0  0  0  0  0  0  0  0  0  0  0  0
    6.0365  156.6861   30.9454 N   0  0  0  0  0  0  0  0  0  0  0  0
 18 17  1  0  0  0
 14 16  1  0  0  0
 14 13  1  0  0  0
 17  9  1  0  0  0
 16  9  1  0  0  0
 16 10  1  0  0  0
  9 12  2  0  0  0
 13 15  1  0  0  0
 10 11  1  0  0  0
 15 11  1  0  0  0
 15  8  1  0  0  0
 24 23  2  0  0  0
 24 25  1  0  0  0
 26 25  1  0  0  0
 23 22  1  0  0  0
  8  7  1  0  0  0
 25 29  2  0  0  0
  6  7  2  0  0  0
  6  5  1  0  0  0
  7  2  1  0  0  0
  5  4  2  0  0  0
 22 27  2  0  0  0
 22 30  1  0  0  0
 29 27  1  0  0  0
 27 28  1  0  0  0
 30 21  2  0  0  0
  2  3  2  0  0  0
  4  3  1  0  0  0
  3  1  1  0  0  0
 28 21  1  0  0  0
 21 19  1  0  0  0
  1 19  1  0  0  0
  1 32  1  0  0  0
 32 33  1  0  0  0
 33 34  3  0  0  0
 19 20  1  0  0  0
 28 31  1  0  0  0
M  END
> <minimizedAffinity>
-8.25134

$$$$
