3W9K_MYR_A_201


 17 16  0  0  0  0  0  0  0  0999 V2000
  -11.2607   10.0106  -20.1160 C   0  0  0  0  0  0  0  0  0  0  0  0
  -10.7364   11.3863  -19.8121 C   0  0  0  0  0  0  0  0  0  0  0  0
  -10.9292   11.7110  -18.3208 C   0  0  0  0  0  0  0  0  0  0  0  0
   -9.7107   11.4980  -17.4026 C   0  0  0  0  0  0  0  0  0  0  0  0
   -8.4869   12.3196  -17.8399 C   0  0  0  0  0  0  0  0  0  0  0  0
   -7.1135   11.7097  -17.5717 C   0  0  0  0  0  0  0  0  0  0  0  0
   -6.0978   12.4112  -17.3274 O   0  0  0  0  0  0  0  0  0  0  0  0
   -6.9799   10.4470  -17.5697 O   0  0  0  0  0  0  0  0  0  0  0  0
   -7.7176    9.8975  -17.7480 H   0  0  0  0  0  0  0  0  0  0  0  0
  -12.6355   10.0462  -20.7238 C   0  0  0  0  0  0  0  0  0  0  0  0
  -12.8309   11.3415  -21.4658 C   0  0  0  0  0  0  0  0  0  0  0  0
  -14.2943   11.7006  -21.3458 C   0  0  0  0  0  0  0  0  0  0  0  0
  -15.1983   10.7424  -22.0858 C   0  0  0  0  0  0  0  0  0  0  0  0
  -14.9989   11.2698  -23.4706 C   0  0  0  0  0  0  0  0  0  0  0  0
  -14.6506   10.2148  -24.4773 C   0  0  0  0  0  0  0  0  0  0  0  0
  -14.6403    8.9151  -23.7176 C   0  0  0  0  0  0  0  0  0  0  0  0
  -13.5420    8.0262  -24.2559 C   0  0  0  0  0  0  0  0  0  0  0  0
  6  7  2  0  0  0
  6  8  1  0  0  0
  6  5  1  0  0  0
  5  4  1  0  0  0
  4  3  1  0  0  0
  3  2  1  0  0  0
  2  1  1  0  0  0
  1 10  1  0  0  0
 10 11  1  0  0  0
 11 12  1  0  0  0
 12 13  1  0  0  0
 13 14  1  0  0  0
 14 15  1  0  0  0
 15 16  1  0  0  0
 16 17  1  0  0  0
  8  9  1  0  0  0
M  END
> <minimizedAffinity>
-7.03097

$$$$
3W9K_MYR_A_201


 17 16  0  0  0  0  0  0  0  0999 V2000
  -11.0791   12.3686  -19.3168 C   0  0  0  0  0  0  0  0  0  0  0  0
  -10.7618   11.3549  -18.2530 C   0  0  0  0  0  0  0  0  0  0  0  0
   -9.9326   12.0035  -17.1313 C   0  0  0  0  0  0  0  0  0  0  0  0
   -8.7684   12.9129  -17.5682 C   0  0  0  0  0  0  0  0  0  0  0  0
   -7.4196   12.4786  -16.9716 C   0  0  0  0  0  0  0  0  0  0  0  0
   -6.3648   13.5660  -16.7842 C   0  0  0  0  0  0  0  0  0  0  0  0
   -6.6456   14.7924  -16.8097 O   0  0  0  0  0  0  0  0  0  0  0  0
   -5.1574   13.2357  -16.5714 O   0  0  0  0  0  0  0  0  0  0  0  0
   -4.9168   12.3304  -16.5465 H   0  0  0  0  0  0  0  0  0  0  0  0
  -11.5510   11.7274  -20.5923 C   0  0  0  0  0  0  0  0  0  0  0  0
  -11.6555   10.2372  -20.4049 C   0  0  0  0  0  0  0  0  0  0  0  0
  -13.0077    9.8209  -20.9368 C   0  0  0  0  0  0  0  0  0  0  0  0
  -13.9071   10.9957  -21.2430 C   0  0  0  0  0  0  0  0  0  0  0  0
  -14.9297   10.2857  -22.0712 C   0  0  0  0  0  0  0  0  0  0  0  0
  -15.1298   10.8830  -23.4317 C   0  0  0  0  0  0  0  0  0  0  0  0
  -14.2455   10.0913  -24.3577 C   0  0  0  0  0  0  0  0  0  0  0  0
  -14.4579    8.6140  -24.1157 C   0  0  0  0  0  0  0  0  0  0  0  0
  6  7  2  0  0  0
  6  8  1  0  0  0
  6  5  1  0  0  0
  5  4  1  0  0  0
  4  3  1  0  0  0
  3  2  1  0  0  0
  2  1  1  0  0  0
  1 10  1  0  0  0
 10 11  1  0  0  0
 11 12  1  0  0  0
 12 13  1  0  0  0
 13 14  1  0  0  0
 14 15  1  0  0  0
 15 16  1  0  0  0
 16 17  1  0  0  0
  8  9  1  0  0  0
M  END
> <minimizedAffinity>
-6.97427

$$$$
3W9K_MYR_A_201


 17 16  0  0  0  0  0  0  0  0999 V2000
  -11.8454   10.3882  -20.4520 C   0  0  0  0  0  0  0  0  0  0  0  0
  -13.2553    9.9838  -20.7812 C   0  0  0  0  0  0  0  0  0  0  0  0
  -14.0575   11.2025  -21.2690 C   0  0  0  0  0  0  0  0  0  0  0  0
  -15.3111   10.9124  -22.1161 C   0  0  0  0  0  0  0  0  0  0  0  0
  -15.0339   10.9738  -23.6271 C   0  0  0  0  0  0  0  0  0  0  0  0
  -14.3026    9.7847  -24.2444 C   0  0  0  0  0  0  0  0  0  0  0  0
  -14.5847    8.5928  -23.9555 O   0  0  0  0  0  0  0  0  0  0  0  0
  -13.3872    9.9895  -25.1002 O   0  0  0  0  0  0  0  0  0  0  0  0
  -13.1542   10.8658  -25.3364 H   0  0  0  0  0  0  0  0  0  0  0  0
  -11.5890   11.8426  -20.7344 C   0  0  0  0  0  0  0  0  0  0  0  0
  -11.0530   12.5146  -19.4984 C   0  0  0  0  0  0  0  0  0  0  0  0
  -10.9994   11.4627  -18.4142 C   0  0  0  0  0  0  0  0  0  0  0  0
  -10.2223   11.9098  -17.1980 C   0  0  0  0  0  0  0  0  0  0  0  0
   -8.9734   12.3633  -17.8838 C   0  0  0  0  0  0  0  0  0  0  0  0
   -7.7813   11.4967  -17.6087 C   0  0  0  0  0  0  0  0  0  0  0  0
   -6.6038   12.4326  -17.5460 C   0  0  0  0  0  0  0  0  0  0  0  0
   -6.6478   13.2108  -16.2504 C   0  0  0  0  0  0  0  0  0  0  0  0
  6  7  2  0  0  0
  6  8  1  0  0  0
  6  5  1  0  0  0
  5  4  1  0  0  0
  4  3  1  0  0  0
  3  2  1  0  0  0
  2  1  1  0  0  0
  1 10  1  0  0  0
 10 11  1  0  0  0
 11 12  1  0  0  0
 12 13  1  0  0  0
 13 14  1  0  0  0
 14 15  1  0  0  0
 15 16  1  0  0  0
 16 17  1  0  0  0
  8  9  1  0  0  0
M  END
> <minimizedAffinity>
-6.96078

$$$$
3W9K_MYR_A_201


 17 16  0  0  0  0  0  0  0  0999 V2000
  -10.5313   11.1730  -18.9892 C   0  0  0  0  0  0  0  0  0  0  0  0
  -10.3633   11.8244  -17.6449 C   0  0  0  0  0  0  0  0  0  0  0  0
   -9.2558   12.8905  -17.7057 C   0  0  0  0  0  0  0  0  0  0  0  0
   -8.0916   12.7370  -16.7086 C   0  0  0  0  0  0  0  0  0  0  0  0
   -6.7406   12.5040  -17.4046 C   0  0  0  0  0  0  0  0  0  0  0  0
   -6.6974   11.4285  -18.4869 C   0  0  0  0  0  0  0  0  0  0  0  0
   -6.4315   11.6888  -19.6891 O   0  0  0  0  0  0  0  0  0  0  0  0
   -6.9140   10.2172  -18.1736 O   0  0  0  0  0  0  0  0  0  0  0  0
   -7.1145    9.9914  -17.2866 H   0  0  0  0  0  0  0  0  0  0  0  0
  -10.9034   12.1619  -20.0590 C   0  0  0  0  0  0  0  0  0  0  0  0
  -11.8192   11.5090  -21.0598 C   0  0  0  0  0  0  0  0  0  0  0  0
  -12.1522   10.1365  -20.5211 C   0  0  0  0  0  0  0  0  0  0  0  0
  -13.5366    9.6718  -20.9088 C   0  0  0  0  0  0  0  0  0  0  0  0
  -14.0779   10.9724  -21.4100 C   0  0  0  0  0  0  0  0  0  0  0  0
  -15.3124   10.8328  -22.2491 C   0  0  0  0  0  0  0  0  0  0  0  0
  -14.8986   11.2076  -23.6472 C   0  0  0  0  0  0  0  0  0  0  0  0
  -14.5372    9.9576  -24.4173 C   0  0  0  0  0  0  0  0  0  0  0  0
  6  7  2  0  0  0
  6  8  1  0  0  0
  6  5  1  0  0  0
  5  4  1  0  0  0
  4  3  1  0  0  0
  3  2  1  0  0  0
  2  1  1  0  0  0
  1 10  1  0  0  0
 10 11  1  0  0  0
 11 12  1  0  0  0
 12 13  1  0  0  0
 13 14  1  0  0  0
 14 15  1  0  0  0
 15 16  1  0  0  0
 16 17  1  0  0  0
  8  9  1  0  0  0
M  END
> <minimizedAffinity>
-6.82398

$$$$
3W9K_MYR_A_201


 17 16  0  0  0  0  0  0  0  0999 V2000
  -10.8692   11.5434  -18.1314 C   0  0  0  0  0  0  0  0  0  0  0  0
   -9.9315   12.0566  -17.0745 C   0  0  0  0  0  0  0  0  0  0  0  0
   -8.6649   12.6387  -17.7252 C   0  0  0  0  0  0  0  0  0  0  0  0
   -7.3139   12.1275  -17.1896 C   0  0  0  0  0  0  0  0  0  0  0  0
   -6.5786   13.1746  -16.3370 C   0  0  0  0  0  0  0  0  0  0  0  0
   -5.2916   13.7566  -16.9158 C   0  0  0  0  0  0  0  0  0  0  0  0
   -5.2639   14.3871  -18.0045 O   0  0  0  0  0  0  0  0  0  0  0  0
   -4.2033   13.6268  -16.2747 O   0  0  0  0  0  0  0  0  0  0  0  0
   -4.1914   13.1627  -15.4609 H   0  0  0  0  0  0  0  0  0  0  0  0
  -10.3963   11.8711  -19.5205 C   0  0  0  0  0  0  0  0  0  0  0  0
  -11.4436   11.4667  -20.5236 C   0  0  0  0  0  0  0  0  0  0  0  0
  -12.7843   11.8425  -19.9353 C   0  0  0  0  0  0  0  0  0  0  0  0
  -13.8298   12.1287  -20.9879 C   0  0  0  0  0  0  0  0  0  0  0  0
  -14.0826   10.7263  -21.4404 C   0  0  0  0  0  0  0  0  0  0  0  0
  -15.3467   10.5619  -22.2297 C   0  0  0  0  0  0  0  0  0  0  0  0
  -15.0464   11.1133  -23.5980 C   0  0  0  0  0  0  0  0  0  0  0  0
  -14.2127   10.1163  -24.3706 C   0  0  0  0  0  0  0  0  0  0  0  0
  6  7  2  0  0  0
  6  8  1  0  0  0
  6  5  1  0  0  0
  5  4  1  0  0  0
  4  3  1  0  0  0
  3  2  1  0  0  0
  2  1  1  0  0  0
  1 10  1  0  0  0
 10 11  1  0  0  0
 11 12  1  0  0  0
 12 13  1  0  0  0
 13 14  1  0  0  0
 14 15  1  0  0  0
 15 16  1  0  0  0
 16 17  1  0  0  0
  8  9  1  0  0  0
M  END
> <minimizedAffinity>
-6.73878

$$$$
3W9K_MYR_A_201


 17 16  0  0  0  0  0  0  0  0999 V2000
  -10.6555   11.6580  -19.7831 C   0  0  0  0  0  0  0  0  0  0  0  0
  -11.7064   11.0615  -20.6773 C   0  0  0  0  0  0  0  0  0  0  0  0
  -13.0724   11.7121  -20.3993 C   0  0  0  0  0  0  0  0  0  0  0  0
  -14.1935   11.4305  -21.4177 C   0  0  0  0  0  0  0  0  0  0  0  0
  -13.7661   10.4390  -22.5122 C   0  0  0  0  0  0  0  0  0  0  0  0
  -14.5446   10.4808  -23.8246 C   0  0  0  0  0  0  0  0  0  0  0  0
  -15.2896   11.4451  -24.1388 O   0  0  0  0  0  0  0  0  0  0  0  0
  -14.4290    9.5235  -24.6508 O   0  0  0  0  0  0  0  0  0  0  0  0
  -13.8816    8.7912  -24.4457 H   0  0  0  0  0  0  0  0  0  0  0  0
  -11.1479   11.8514  -18.3756 C   0  0  0  0  0  0  0  0  0  0  0  0
   -9.9808   11.8612  -17.4246 C   0  0  0  0  0  0  0  0  0  0  0  0
   -8.8349   11.1704  -18.1277 C   0  0  0  0  0  0  0  0  0  0  0  0
   -7.4873   11.5201  -17.5408 C   0  0  0  0  0  0  0  0  0  0  0  0
   -7.8740   12.7725  -16.8213 C   0  0  0  0  0  0  0  0  0  0  0  0
   -6.7280   13.4605  -16.1422 C   0  0  0  0  0  0  0  0  0  0  0  0
   -5.5658   13.3495  -17.0927 C   0  0  0  0  0  0  0  0  0  0  0  0
   -5.2647   14.7096  -17.6805 C   0  0  0  0  0  0  0  0  0  0  0  0
  6  7  2  0  0  0
  6  8  1  0  0  0
  6  5  1  0  0  0
  5  4  1  0  0  0
  4  3  1  0  0  0
  3  2  1  0  0  0
  2  1  1  0  0  0
  1 10  1  0  0  0
 10 11  1  0  0  0
 11 12  1  0  0  0
 12 13  1  0  0  0
 13 14  1  0  0  0
 14 15  1  0  0  0
 15 16  1  0  0  0
 16 17  1  0  0  0
  8  9  1  0  0  0
M  END
> <minimizedAffinity>
-6.35559

$$$$
3W9K_MYR_A_201


 17 16  0  0  0  0  0  0  0  0999 V2000
   -8.4234   11.5039  -17.9781 C   0  0  0  0  0  0  0  0  0  0  0  0
   -9.4604   12.5059  -17.5535 C   0  0  0  0  0  0  0  0  0  0  0  0
  -10.6956   12.4111  -18.4655 C   0  0  0  0  0  0  0  0  0  0  0  0
  -10.7491   11.2167  -19.4369 C   0  0  0  0  0  0  0  0  0  0  0  0
  -12.1663   10.9465  -19.9684 C   0  0  0  0  0  0  0  0  0  0  0  0
  -12.3185    9.8224  -20.9899 C   0  0  0  0  0  0  0  0  0  0  0  0
  -13.1837    9.8509  -21.9033 O   0  0  0  0  0  0  0  0  0  0  0  0
  -11.5350    8.8244  -20.9425 O   0  0  0  0  0  0  0  0  0  0  0  0
  -10.8802    8.7741  -20.2742 H   0  0  0  0  0  0  0  0  0  0  0  0
   -7.0850   11.7660  -17.3451 C   0  0  0  0  0  0  0  0  0  0  0  0
   -7.1506   13.0211  -16.5163 C   0  0  0  0  0  0  0  0  0  0  0  0
   -5.7454   13.5731  -16.4420 C   0  0  0  0  0  0  0  0  0  0  0  0
   -5.4645   14.6130  -17.5015 C   0  0  0  0  0  0  0  0  0  0  0  0
   -6.5487   15.5832  -17.1568 C   0  0  0  0  0  0  0  0  0  0  0  0
   -6.0493   16.8632  -16.5568 C   0  0  0  0  0  0  0  0  0  0  0  0
   -7.1179   17.8867  -16.8342 C   0  0  0  0  0  0  0  0  0  0  0  0
   -6.6965   19.2218  -16.2634 C   0  0  0  0  0  0  0  0  0  0  0  0
  6  7  2  0  0  0
  6  8  1  0  0  0
  6  5  1  0  0  0
  5  4  1  0  0  0
  4  3  1  0  0  0
  3  2  1  0  0  0
  2  1  1  0  0  0
  1 10  1  0  0  0
 10 11  1  0  0  0
 11 12  1  0  0  0
 12 13  1  0  0  0
 13 14  1  0  0  0
 14 15  1  0  0  0
 15 16  1  0  0  0
 16 17  1  0  0  0
  8  9  1  0  0  0
M  END
> <minimizedAffinity>
-5.76153

$$$$
3W9K_MYR_A_201


 17 16  0  0  0  0  0  0  0  0999 V2000
   -9.6252   12.2086  -16.9405 C   0  0  0  0  0  0  0  0  0  0  0  0
   -8.3069   12.4169  -17.6321 C   0  0  0  0  0  0  0  0  0  0  0  0
   -7.2259   12.8065  -16.6092 C   0  0  0  0  0  0  0  0  0  0  0  0
   -6.6018   14.2068  -16.7608 C   0  0  0  0  0  0  0  0  0  0  0  0
   -5.3219   14.1974  -17.6126 C   0  0  0  0  0  0  0  0  0  0  0  0
   -4.0184   14.5583  -16.9050 C   0  0  0  0  0  0  0  0  0  0  0  0
   -3.4860   15.6941  -17.0057 O   0  0  0  0  0  0  0  0  0  0  0  0
   -3.4495   13.6972  -16.1654 O   0  0  0  0  0  0  0  0  0  0  0  0
   -3.8214   12.8425  -16.0701 H   0  0  0  0  0  0  0  0  0  0  0  0
  -10.6782   11.6729  -17.8705 C   0  0  0  0  0  0  0  0  0  0  0  0
  -10.1986   11.7721  -19.2941 C   0  0  0  0  0  0  0  0  0  0  0  0
  -11.3312   12.3669  -20.0992 C   0  0  0  0  0  0  0  0  0  0  0  0
  -12.6935   12.0079  -19.5535 C   0  0  0  0  0  0  0  0  0  0  0  0
  -13.4562   12.0022  -20.8395 C   0  0  0  0  0  0  0  0  0  0  0  0
  -13.8877   10.6366  -21.2830 C   0  0  0  0  0  0  0  0  0  0  0  0
  -13.3135    9.6802  -20.2721 C   0  0  0  0  0  0  0  0  0  0  0  0
  -12.3030    8.7808  -20.9475 C   0  0  0  0  0  0  0  0  0  0  0  0
  6  7  2  0  0  0
  6  8  1  0  0  0
  6  5  1  0  0  0
  5  4  1  0  0  0
  4  3  1  0  0  0
  3  2  1  0  0  0
  2  1  1  0  0  0
  1 10  1  0  0  0
 10 11  1  0  0  0
 11 12  1  0  0  0
 12 13  1  0  0  0
 13 14  1  0  0  0
 14 15  1  0  0  0
 15 16  1  0  0  0
 16 17  1  0  0  0
  8  9  1  0  0  0
M  END
> <minimizedAffinity>
-5.74877

$$$$
3W9K_MYR_A_201


 17 16  0  0  0  0  0  0  0  0999 V2000
   -7.5309   11.3345  -17.6358 C   0  0  0  0  0  0  0  0  0  0  0  0
   -7.4539   12.6606  -16.9320 C   0  0  0  0  0  0  0  0  0  0  0  0
   -6.0168   13.2071  -16.9840 C   0  0  0  0  0  0  0  0  0  0  0  0
   -5.7762   14.5848  -16.3380 C   0  0  0  0  0  0  0  0  0  0  0  0
   -6.5512   15.7127  -17.0388 C   0  0  0  0  0  0  0  0  0  0  0  0
   -6.0865   17.1415  -16.7689 C   0  0  0  0  0  0  0  0  0  0  0  0
   -6.0943   18.0343  -17.6558 O   0  0  0  0  0  0  0  0  0  0  0  0
   -5.6954   17.4622  -15.6043 O   0  0  0  0  0  0  0  0  0  0  0  0
   -5.6782   16.8197  -14.9224 H   0  0  0  0  0  0  0  0  0  0  0  0
   -8.9090   11.0495  -18.1651 C   0  0  0  0  0  0  0  0  0  0  0  0
   -9.7613   12.2860  -18.0586 C   0  0  0  0  0  0  0  0  0  0  0  0
  -11.1793   11.8716  -18.3787 C   0  0  0  0  0  0  0  0  0  0  0  0
  -11.5919   12.2250  -19.7885 C   0  0  0  0  0  0  0  0  0  0  0  0
  -13.0073   11.7460  -19.7349 C   0  0  0  0  0  0  0  0  0  0  0  0
  -13.8094   12.0855  -20.9552 C   0  0  0  0  0  0  0  0  0  0  0  0
  -13.9644   10.7937  -21.7125 C   0  0  0  0  0  0  0  0  0  0  0  0
  -15.2687   10.8118  -22.4771 C   0  0  0  0  0  0  0  0  0  0  0  0
  6  7  2  0  0  0
  6  8  1  0  0  0
  6  5  1  0  0  0
  5  4  1  0  0  0
  4  3  1  0  0  0
  3  2  1  0  0  0
  2  1  1  0  0  0
  1 10  1  0  0  0
 10 11  1  0  0  0
 11 12  1  0  0  0
 12 13  1  0  0  0
 13 14  1  0  0  0
 14 15  1  0  0  0
 15 16  1  0  0  0
 16 17  1  0  0  0
  8  9  1  0  0  0
M  END
> <minimizedAffinity>
-5.72788

$$$$
3W9K_MYR_A_201


 17 16  0  0  0  0  0  0  0  0999 V2000
   -7.8064   13.0153  -16.7227 C   0  0  0  0  0  0  0  0  0  0  0  0
   -6.4962   13.5634  -16.2299 C   0  0  0  0  0  0  0  0  0  0  0  0
   -5.5844   13.9104  -17.4193 C   0  0  0  0  0  0  0  0  0  0  0  0
   -4.5790   15.0585  -17.2091 C   0  0  0  0  0  0  0  0  0  0  0  0
   -4.5093   16.0144  -18.4112 C   0  0  0  0  0  0  0  0  0  0  0  0
   -5.7138   16.9233  -18.6419 C   0  0  0  0  0  0  0  0  0  0  0  0
   -6.5652   17.1587  -17.7457 O   0  0  0  0  0  0  0  0  0  0  0  0
   -5.8638   17.4882  -19.7692 O   0  0  0  0  0  0  0  0  0  0  0  0
   -5.2466   17.3331  -20.4568 H   0  0  0  0  0  0  0  0  0  0  0  0
   -7.6366   12.1249  -17.9223 C   0  0  0  0  0  0  0  0  0  0  0  0
   -8.5227   10.9152  -17.7882 C   0  0  0  0  0  0  0  0  0  0  0  0
   -9.6984   11.1266  -18.7144 C   0  0  0  0  0  0  0  0  0  0  0  0
  -10.5982   12.2580  -18.2750 C   0  0  0  0  0  0  0  0  0  0  0  0
  -11.5919   12.2009  -19.3908 C   0  0  0  0  0  0  0  0  0  0  0  0
  -11.8091   10.8228  -19.9399 C   0  0  0  0  0  0  0  0  0  0  0  0
  -12.5177   11.0156  -21.2542 C   0  0  0  0  0  0  0  0  0  0  0  0
  -13.8139   11.7589  -21.0229 C   0  0  0  0  0  0  0  0  0  0  0  0
  6  7  2  0  0  0
  6  8  1  0  0  0
  6  5  1  0  0  0
  5  4  1  0  0  0
  4  3  1  0  0  0
  3  2  1  0  0  0
  2  1  1  0  0  0
  1 10  1  0  0  0
 10 11  1  0  0  0
 11 12  1  0  0  0
 12 13  1  0  0  0
 13 14  1  0  0  0
 14 15  1  0  0  0
 15 16  1  0  0  0
 16 17  1  0  0  0
  8  9  1  0  0  0
M  END
> <minimizedAffinity>
-5.40905

$$$$
