3W9K_MYR_A_201
  RCSB PDB12061711203D
Coordinates from PDB:3W9K:A:201 Model:1 without hydrogens
 16 15  0  0  0  0            999 V2000
   -5.2350   15.3900  -16.4610   C 0  0  0  0  0  0  0  0  0  0  0  0
   -4.3630   15.1130  -15.5970   O 0  0  0  0  0  0  0  0  0  0  0  0
   -5.6760   16.5800  -16.5020   O 0  0  0  0  0  0  0  0  0  0  0  0
   -5.7520   14.3620  -17.4640   C 0  0  0  0  0  0  0  0  0  0  0  0
   -6.2680   13.0310  -16.8930   C 0  0  0  0  0  0  0  0  0  0  0  0
   -7.8060   12.9430  -16.8860   C 0  0  0  0  0  0  0  0  0  0  0  0
   -8.4440   11.9140  -17.8350   C 0  0  0  0  0  0  0  0  0  0  0  0
   -9.8310   12.3500  -18.2170   C 0  0  0  0  0  0  0  0  0  0  0  0
  -10.4800   11.4010  -19.1860   C 0  0  0  0  0  0  0  0  0  0  0  0
  -11.8660   11.8840  -19.5210   C 0  0  0  0  0  0  0  0  0  0  0  0
  -12.3940   10.9820  -20.6130   C 0  0  0  0  0  0  0  0  0  0  0  0
  -13.6650   11.5020  -21.2430   C 0  0  0  0  0  0  0  0  0  0  0  0
  -13.9300   10.3690  -22.1820   C 0  0  0  0  0  0  0  0  0  0  0  0
  -14.7010   10.7630  -23.4060   C 0  0  0  0  0  0  0  0  0  0  0  0
  -14.3610    9.7330  -24.4500   C 0  0  0  0  0  0  0  0  0  0  0  0
  -14.3390    8.3610  -23.8150   C 0  0  0  0  0  0  0  0  0  0  0  0
  1  2  2  0  0  0  0
  1  3  1  0  0  0  0
  1  4  1  0  0  0  0
  4  5  1  0  0  0  0
  5  6  1  0  0  0  0
  6  7  1  0  0  0  0
  7  8  1  0  0  0  0
  8  9  1  0  0  0  0
  9 10  1  0  0  0  0
 10 11  1  0  0  0  0
 11 12  1  0  0  0  0
 12 13  1  0  0  0  0
 13 14  1  0  0  0  0
 14 15  1  0  0  0  0
 15 16  1  0  0  0  0
A    1
C1
A    2
O1
A    3
O2
A    4
C2
A    5
C3
A    6
C4
A    7
C5
A    8
C6
A    9
C7
A   10
C8
A   11
C9
A   12
C10
A   13
C11
A   14
C12
A   15
C13
A   16
C14
M  END
>  <InstanceId>
3W9K_MYR_A_201

>  <ChemCompId>
MYR

>  <PdbId>
3W9K

>  <ChainId>
A

>  <ResidueNumber>
201

>  <InsertionCode>


>  <Model>
1

>  <AltIds>


>  <MissingHeavyAtoms>
0

>  <ObservedFormula>
C14 O2

>  <Name>
MYRISTIC ACID

>  <SystematicName>
tetradecanoic acid

>  <Synonyms>


>  <Type>
NON-POLYMER

>  <Formula>
C14 H28 O2

>  <MolecularWeight>
228.371

>  <ModifiedDate>
2014-04-23

>  <Parent>


>  <OneLetterCode>


>  <SubcomponentList>


>  <AmbiguousFlag>
N

>  <InChI>
InChI=1S/C14H28O2/c1-2-3-4-5-6-7-8-9-10-11-12-13-14(15)16/h2-13H2,1H3,(H,15,16)

>  <InChIKey>
TUNFSRHWOTWDNC-UHFFFAOYSA-N

>  <SMILES>
CCCCCCCCCCCCCC(=O)O

$$$$
