4X8V_3Z9_H_301


 50 54  0  0  0  0  0  0  0  0999 V2000
    7.1238   37.5427   25.0405 C   0  0  0  0  0  0  0  0  0  0  0  0
    8.2780   40.6688   23.0744 C   0  0  0  0  0  0  0  0  0  0  0  0
    7.7554   38.4663   23.9838 C   0  0  0  0  0  0  0  0  0  0  0  0
    8.2982   42.0490   23.7488 C   0  0  0  0  0  0  0  0  0  0  0  0
    7.0965   42.0089   24.6826 C   0  0  0  0  0  0  0  0  0  0  0  0
    6.9603   40.5776   25.1484 C   0  0  0  0  0  0  0  0  0  0  0  0
    8.4029   37.9651   23.0901 O   0  0  0  0  0  0  0  0  0  0  0  0
    7.6499   39.8007   24.1043 N   0  0  0  0  0  0  0  0  0  0  0  0
    7.5423   40.6544   21.7459 C   0  0  0  0  0  0  0  0  0  0  0  0
    6.0325   40.6395   19.3677 C   0  0  0  0  0  0  0  0  0  0  0  0
    5.3789   40.6169   20.5943 C   0  0  0  0  0  0  0  0  0  0  0  0
    6.1395   40.6193   21.7619 C   0  0  0  0  0  0  0  0  0  0  0  0
    7.4151   40.6831   19.3180 C   0  0  0  0  0  0  0  0  0  0  0  0
    8.1613   40.6912   20.4909 C   0  0  0  0  0  0  0  0  0  0  0  0
    3.9631   40.7052   20.5542 N   0  0  0  0  0  0  0  0  0  0  0  0
    3.0757   39.7147   20.2762 C   0  0  0  0  0  0  0  0  0  0  0  0
    3.3239   38.5322   20.1901 O   0  0  0  0  0  0  0  0  0  0  0  0
    3.5781   41.5896   20.7512 H   0  0  0  0  0  0  0  0  0  0  0  0
    1.8442   40.2405   20.1836 O   0  0  0  0  0  0  0  0  0  0  0  0
    1.7401   41.4981   19.4702 C   0  0  0  0  0  0  0  0  0  0  0  0
    9.9211   40.8215   20.2156 S   0  0  0  0  0  0  0  0  0  0  0  0
   10.5553   39.8545   21.0705 O   0  0  0  0  0  0  0  0  0  0  0  0
   10.1904   40.7675   18.8052 O   0  0  0  0  0  0  0  0  0  0  0  0
   10.4169   42.4686   20.8067 C   0  0  0  0  0  0  0  0  0  0  0  0
    9.4609   43.5794   20.4173 C   0  0  0  0  0  0  0  0  0  0  0  0
   11.8392   42.7345   20.3456 C   0  0  0  0  0  0  0  0  0  0  0  0
    5.1410   36.0572   24.6071 C   0  0  0  0  0  0  0  0  0  0  0  0
    3.8025   35.8547   24.3036 C   0  0  0  0  0  0  0  0  0  0  0  0
    4.8034   38.4362   24.5314 C   0  0  0  0  0  0  0  0  0  0  0  0
    5.6515   37.3459   24.7130 C   0  0  0  0  0  0  0  0  0  0  0  0
    2.9530   36.9732   24.0843 C   0  0  0  0  0  0  0  0  0  0  0  0
    3.4630   38.2635   24.2217 C   0  0  0  0  0  0  0  0  0  0  0  0
    1.6729   36.6704   23.6952 O   0  0  0  0  0  0  0  0  0  0  0  0
    0.6127   36.8544   24.6325 C   0  0  0  0  0  0  0  0  0  0  0  0
    3.1877   34.6253   24.2680 O   0  0  0  0  0  0  0  0  0  0  0  0
    3.4357   33.7707   23.1487 C   0  0  0  0  0  0  0  0  0  0  0  0
    7.8510   36.2838   25.0856 N   0  0  0  0  0  0  0  0  0  0  0  0
    7.9617   35.8030   24.2336 H   0  0  0  0  0  0  0  0  0  0  0  0
    8.1168   36.1504   27.5044 C   0  0  0  0  0  0  0  0  0  0  0  0
    9.6873   33.8924   27.1722 C   0  0  0  0  0  0  0  0  0  0  0  0
    9.2184   34.5704   26.0655 C   0  0  0  0  0  0  0  0  0  0  0  0
    8.4076   35.6913   26.2223 C   0  0  0  0  0  0  0  0  0  0  0  0
    9.3681   34.3042   28.4611 C   0  0  0  0  0  0  0  0  0  0  0  0
    8.5849   35.4608   28.6299 C   0  0  0  0  0  0  0  0  0  0  0  0
    8.1844   35.9202   29.9793 C   0  0  0  0  0  0  0  0  0  0  0  0
    8.7649   35.2847   31.0107 N   0  0  0  0  0  0  0  0  0  0  0  0
    9.7838   34.2656   30.9216 C   0  0  0  0  0  0  0  0  0  0  0  0
    9.7342   33.4493   29.6494 C   0  0  0  0  0  0  0  0  0  0  0  0
    7.3665   36.8136   30.1672 O   0  0  0  0  0  0  0  0  0  0  0  0
    8.4670   35.5383   31.9141 H   0  0  0  0  0  0  0  0  0  0  0  0
 26 24  1  0  0  0
 22 21  2  0  0  0
 24 21  1  0  0  0
 24 25  1  0  0  0
 13 10  2  0  0  0
 13 14  1  0  0  0
 21 14  1  0  0  0
 21 23  2  0  0  0
 10 11  1  0  0  0
 14  9  2  0  0  0
 11 15  1  0  0  0
 11 12  2  0  0  0
  9 12  1  0  0  0
  9  2  1  0  0  0
 15 16  1  0  0  0
 36 35  1  0  0  0
  2  4  1  0  0  0
  2  8  1  0  0  0
 16 19  1  0  0  0
 16 17  2  0  0  0
 19 20  1  0  0  0
  7  3  2  0  0  0
  4  5  1  0  0  0
 35 28  1  0  0  0
  3  8  1  0  0  0
  3  1  1  0  0  0
  8  6  1  0  0  0
  5  6  1  0  0  0
 27 28  2  0  0  0
 27 30  1  0  0  0
 28 31  1  0  0  0
 37  1  1  0  0  0
 37 42  1  0  0  0
  1 30  1  0  0  0
 30 29  2  0  0  0
 41 42  2  0  0  0
 41 40  1  0  0  0
 31 33  1  0  0  0
 31 32  2  0  0  0
 42 39  1  0  0  0
 33 34  1  0  0  0
 40 43  2  0  0  0
 29 32  1  0  0  0
 39 44  2  0  0  0
 43 44  1  0  0  0
 43 48  1  0  0  0
 44 45  1  0  0  0
 48 47  1  0  0  0
 45 49  2  0  0  0
 45 46  1  0  0  0
 47 46  1  0  0  0
 46 50  1  0  0  0
 37 38  1  0  0  0
 15 18  1  0  0  0
M  END
> <minimizedAffinity>
-10.23244

$$$$
4X8V_3Z9_H_301


 50 54  0  0  0  0  0  0  0  0999 V2000
    6.9595   37.8159   25.1455 C   0  0  0  0  0  0  0  0  0  0  0  0
    8.3851   40.7360   23.0451 C   0  0  0  0  0  0  0  0  0  0  0  0
    7.6782   38.6312   24.0557 C   0  0  0  0  0  0  0  0  0  0  0  0
    8.5013   42.1443   23.6478 C   0  0  0  0  0  0  0  0  0  0  0  0
    7.2851   42.2459   24.5578 C   0  0  0  0  0  0  0  0  0  0  0  0
    7.0305   40.8560   25.0938 C   0  0  0  0  0  0  0  0  0  0  0  0
    8.2992   38.0352   23.2025 O   0  0  0  0  0  0  0  0  0  0  0  0
    7.6747   39.9742   24.1053 N   0  0  0  0  0  0  0  0  0  0  0  0
    7.6723   40.7079   21.7044 C   0  0  0  0  0  0  0  0  0  0  0  0
    6.2034   40.6662   19.3010 C   0  0  0  0  0  0  0  0  0  0  0  0
    5.5293   40.6413   20.5165 C   0  0  0  0  0  0  0  0  0  0  0  0
    6.2699   40.6571   21.6967 C   0  0  0  0  0  0  0  0  0  0  0  0
    7.5861   40.7251   19.2745 C   0  0  0  0  0  0  0  0  0  0  0  0
    8.3121   40.7464   20.4599 C   0  0  0  0  0  0  0  0  0  0  0  0
    4.1135   40.7137   20.4519 N   0  0  0  0  0  0  0  0  0  0  0  0
    3.2385   39.6990   20.2265 C   0  0  0  0  0  0  0  0  0  0  0  0
    3.4979   38.5158   20.2201 O   0  0  0  0  0  0  0  0  0  0  0  0
    3.7183   41.6053   20.5864 H   0  0  0  0  0  0  0  0  0  0  0  0
    2.0040   40.2063   20.0840 O   0  0  0  0  0  0  0  0  0  0  0  0
    1.2449   40.3887   21.3053 C   0  0  0  0  0  0  0  0  0  0  0  0
   10.0748   40.8952   20.2139 S   0  0  0  0  0  0  0  0  0  0  0  0
   10.7073   39.9788   21.1240 O   0  0  0  0  0  0  0  0  0  0  0  0
   10.3739   40.7829   18.8131 O   0  0  0  0  0  0  0  0  0  0  0  0
   10.5306   42.5756   20.7398 C   0  0  0  0  0  0  0  0  0  0  0  0
    9.5167   43.6384   20.3631 C   0  0  0  0  0  0  0  0  0  0  0  0
   11.9209   42.8820   20.2110 C   0  0  0  0  0  0  0  0  0  0  0  0
    5.1023   36.1807   24.6953 C   0  0  0  0  0  0  0  0  0  0  0  0
    3.8200   35.8671   24.2686 C   0  0  0  0  0  0  0  0  0  0  0  0
    4.6881   38.5061   24.2479 C   0  0  0  0  0  0  0  0  0  0  0  0
    5.5474   37.4976   24.6786 C   0  0  0  0  0  0  0  0  0  0  0  0
    2.9629   36.8984   23.7966 C   0  0  0  0  0  0  0  0  0  0  0  0
    3.4035   38.2211   23.8106 C   0  0  0  0  0  0  0  0  0  0  0  0
    1.7529   36.4772   23.3066 O   0  0  0  0  0  0  0  0  0  0  0  0
    0.5943   36.6283   24.1259 C   0  0  0  0  0  0  0  0  0  0  0  0
    3.2607   34.6127   24.3339 O   0  0  0  0  0  0  0  0  0  0  0  0
    3.4756   33.7124   23.2440 C   0  0  0  0  0  0  0  0  0  0  0  0
    7.7254   36.6154   25.4416 N   0  0  0  0  0  0  0  0  0  0  0  0
    8.0921   36.1206   24.6735 H   0  0  0  0  0  0  0  0  0  0  0  0
    8.8643   35.0288   26.8992 C   0  0  0  0  0  0  0  0  0  0  0  0
    7.7510   36.2999   29.0947 C   0  0  0  0  0  0  0  0  0  0  0  0
    7.4170   36.7128   27.8210 C   0  0  0  0  0  0  0  0  0  0  0  0
    7.9908   36.0968   26.7120 C   0  0  0  0  0  0  0  0  0  0  0  0
    8.6591   35.2685   29.3055 C   0  0  0  0  0  0  0  0  0  0  0  0
    9.2112   34.6116   28.1904 C   0  0  0  0  0  0  0  0  0  0  0  0
   10.2118   33.5333   28.3590 C   0  0  0  0  0  0  0  0  0  0  0  0
   10.4061   33.1061   29.6176 N   0  0  0  0  0  0  0  0  0  0  0  0
    9.6834   33.5427   30.7889 C   0  0  0  0  0  0  0  0  0  0  0  0
    9.1502   34.9550   30.6974 C   0  0  0  0  0  0  0  0  0  0  0  0
   10.8444   33.0547   27.4245 O   0  0  0  0  0  0  0  0  0  0  0  0
   11.1089   32.4304   29.7547 H   0  0  0  0  0  0  0  0  0  0  0  0
 26 24  1  0  0  0
 22 21  2  0  0  0
 24 21  1  0  0  0
 24 25  1  0  0  0
 13 10  2  0  0  0
 13 14  1  0  0  0
 21 14  1  0  0  0
 21 23  2  0  0  0
 10 11  1  0  0  0
 14  9  2  0  0  0
 11 15  1  0  0  0
 11 12  2  0  0  0
  9 12  1  0  0  0
  9  2  1  0  0  0
 15 16  1  0  0  0
 36 35  1  0  0  0
  2  4  1  0  0  0
  2  8  1  0  0  0
 16 19  1  0  0  0
 16 17  2  0  0  0
 19 20  1  0  0  0
  7  3  2  0  0  0
  4  5  1  0  0  0
 35 28  1  0  0  0
  3  8  1  0  0  0
  3  1  1  0  0  0
  8  6  1  0  0  0
  5  6  1  0  0  0
 27 28  2  0  0  0
 27 30  1  0  0  0
 28 31  1  0  0  0
 37  1  1  0  0  0
 37 42  1  0  0  0
  1 30  1  0  0  0
 30 29  2  0  0  0
 41 42  2  0  0  0
 41 40  1  0  0  0
 31 33  1  0  0  0
 31 32  2  0  0  0
 42 39  1  0  0  0
 33 34  1  0  0  0
 40 43  2  0  0  0
 29 32  1  0  0  0
 39 44  2  0  0  0
 43 44  1  0  0  0
 43 48  1  0  0  0
 44 45  1  0  0  0
 48 47  1  0  0  0
 45 49  2  0  0  0
 45 46  1  0  0  0
 47 46  1  0  0  0
 46 50  1  0  0  0
 37 38  1  0  0  0
 15 18  1  0  0  0
M  END
> <minimizedAffinity>
-10.06902

$$$$
4X8V_3Z9_H_301


 50 54  0  0  0  0  0  0  0  0999 V2000
    6.4322   37.8018   25.9537 C   0  0  0  0  0  0  0  0  0  0  0  0
    2.7793   36.7999   25.1643 C   0  0  0  0  0  0  0  0  0  0  0  0
    4.8943   37.7473   25.9261 C   0  0  0  0  0  0  0  0  0  0  0  0
    2.4653   35.4336   24.5361 C   0  0  0  0  0  0  0  0  0  0  0  0
    3.6501   35.1827   23.6136 C   0  0  0  0  0  0  0  0  0  0  0  0
    4.8512   35.8222   24.2712 C   0  0  0  0  0  0  0  0  0  0  0  0
    4.2759   38.4919   26.6554 O   0  0  0  0  0  0  0  0  0  0  0  0
    4.2651   36.8364   25.1642 N   0  0  0  0  0  0  0  0  0  0  0  0
    2.1491   37.9664   24.4236 C   0  0  0  0  0  0  0  0  0  0  0  0
    1.1135   40.1293   22.9455 C   0  0  0  0  0  0  0  0  0  0  0  0
    2.3804   39.6405   22.6483 C   0  0  0  0  0  0  0  0  0  0  0  0
    2.8812   38.5736   23.3918 C   0  0  0  0  0  0  0  0  0  0  0  0
    0.3625   39.5466   23.9518 C   0  0  0  0  0  0  0  0  0  0  0  0
    0.8722   38.4787   24.6815 C   0  0  0  0  0  0  0  0  0  0  0  0
    3.0250   40.2093   21.5192 N   0  0  0  0  0  0  0  0  0  0  0  0
    3.4503   39.5733   20.3964 C   0  0  0  0  0  0  0  0  0  0  0  0
    3.1933   38.4337   20.0763 O   0  0  0  0  0  0  0  0  0  0  0  0
    3.1827   41.1805   21.5536 H   0  0  0  0  0  0  0  0  0  0  0  0
    4.1492   40.4348   19.6408 O   0  0  0  0  0  0  0  0  0  0  0  0
    5.5552   40.5722   19.9657 C   0  0  0  0  0  0  0  0  0  0  0  0
   -0.2753   37.8239   25.8831 S   0  0  0  0  0  0  0  0  0  0  0  0
   -1.2984   38.8162   26.0748 O   0  0  0  0  0  0  0  0  0  0  0  0
   -0.6725   36.4991   25.4937 O   0  0  0  0  0  0  0  0  0  0  0  0
    0.6388   37.6849   27.4494 C   0  0  0  0  0  0  0  0  0  0  0  0
    0.5778   36.3079   28.0815 C   0  0  0  0  0  0  0  0  0  0  0  0
    0.1541   38.7784   28.3852 C   0  0  0  0  0  0  0  0  0  0  0  0
    7.4099   38.6888   23.8129 C   0  0  0  0  0  0  0  0  0  0  0  0
    7.8518   39.7241   23.0020 C   0  0  0  0  0  0  0  0  0  0  0  0
    6.8266   40.2722   25.5252 C   0  0  0  0  0  0  0  0  0  0  0  0
    6.9048   38.9542   25.0806 C   0  0  0  0  0  0  0  0  0  0  0  0
    7.8017   41.0626   23.4785 C   0  0  0  0  0  0  0  0  0  0  0  0
    7.2661   41.3260   24.7385 C   0  0  0  0  0  0  0  0  0  0  0  0
    8.3500   42.0033   22.6442 O   0  0  0  0  0  0  0  0  0  0  0  0
    9.6752   42.4616   22.9091 C   0  0  0  0  0  0  0  0  0  0  0  0
    8.2801   39.5709   21.7044 O   0  0  0  0  0  0  0  0  0  0  0  0
    9.4365   38.7666   21.4582 C   0  0  0  0  0  0  0  0  0  0  0  0
    6.8914   37.9279   27.3281 N   0  0  0  0  0  0  0  0  0  0  0  0
    6.7575   38.8005   27.7638 H   0  0  0  0  0  0  0  0  0  0  0  0
    8.1745   35.8627   27.4952 C   0  0  0  0  0  0  0  0  0  0  0  0
    8.1970   36.1407   30.2515 C   0  0  0  0  0  0  0  0  0  0  0  0
    7.5007   37.0458   29.4767 C   0  0  0  0  0  0  0  0  0  0  0  0
    7.5045   36.9290   28.0893 C   0  0  0  0  0  0  0  0  0  0  0  0
    8.9138   35.0976   29.6763 C   0  0  0  0  0  0  0  0  0  0  0  0
    8.8882   34.9463   28.2777 C   0  0  0  0  0  0  0  0  0  0  0  0
    9.6652   33.8761   27.6122 C   0  0  0  0  0  0  0  0  0  0  0  0
   10.2260   32.9666   28.4263 N   0  0  0  0  0  0  0  0  0  0  0  0
   10.0763   32.8970   29.8608 C   0  0  0  0  0  0  0  0  0  0  0  0
    9.8149   34.2318   30.5220 C   0  0  0  0  0  0  0  0  0  0  0  0
    9.8119   33.8118   26.3969 O   0  0  0  0  0  0  0  0  0  0  0  0
   10.7936   32.2817   28.0044 H   0  0  0  0  0  0  0  0  0  0  0  0
 26 24  1  0  0  0
 22 21  2  0  0  0
 24 21  1  0  0  0
 24 25  1  0  0  0
 13 10  2  0  0  0
 13 14  1  0  0  0
 21 14  1  0  0  0
 21 23  2  0  0  0
 10 11  1  0  0  0
 14  9  2  0  0  0
 11 15  1  0  0  0
 11 12  2  0  0  0
  9 12  1  0  0  0
  9  2  1  0  0  0
 15 16  1  0  0  0
 36 35  1  0  0  0
  2  4  1  0  0  0
  2  8  1  0  0  0
 16 19  1  0  0  0
 16 17  2  0  0  0
 19 20  1  0  0  0
  7  3  2  0  0  0
  4  5  1  0  0  0
 35 28  1  0  0  0
  3  8  1  0  0  0
  3  1  1  0  0  0
  8  6  1  0  0  0
  5  6  1  0  0  0
 27 28  2  0  0  0
 27 30  1  0  0  0
 28 31  1  0  0  0
 37  1  1  0  0  0
 37 42  1  0  0  0
  1 30  1  0  0  0
 30 29  2  0  0  0
 41 42  2  0  0  0
 41 40  1  0  0  0
 31 33  1  0  0  0
 31 32  2  0  0  0
 42 39  1  0  0  0
 33 34  1  0  0  0
 40 43  2  0  0  0
 29 32  1  0  0  0
 39 44  2  0  0  0
 43 44  1  0  0  0
 43 48  1  0  0  0
 44 45  1  0  0  0
 48 47  1  0  0  0
 45 49  2  0  0  0
 45 46  1  0  0  0
 47 46  1  0  0  0
 46 50  1  0  0  0
 37 38  1  0  0  0
 15 18  1  0  0  0
M  END
> <minimizedAffinity>
-9.41168

$$$$
4X8V_3Z9_H_301


 50 54  0  0  0  0  0  0  0  0999 V2000
    6.1807   37.7120   25.1548 C   0  0  0  0  0  0  0  0  0  0  0  0
    2.4071   36.8574   25.1580 C   0  0  0  0  0  0  0  0  0  0  0  0
    4.6706   37.7180   25.4523 C   0  0  0  0  0  0  0  0  0  0  0  0
    1.9143   35.5068   24.6165 C   0  0  0  0  0  0  0  0  0  0  0  0
    2.8672   35.2130   23.4661 C   0  0  0  0  0  0  0  0  0  0  0  0
    4.2041   35.8023   23.8526 C   0  0  0  0  0  0  0  0  0  0  0  0
    4.2496   38.4837   26.2922 O   0  0  0  0  0  0  0  0  0  0  0  0
    3.8597   36.8354   24.8444 N   0  0  0  0  0  0  0  0  0  0  0  0
    1.6811   38.0505   24.5614 C   0  0  0  0  0  0  0  0  0  0  0  0
    0.4036   40.2244   23.3054 C   0  0  0  0  0  0  0  0  0  0  0  0
    1.3094   39.4533   22.5861 C   0  0  0  0  0  0  0  0  0  0  0  0
    1.9372   38.3845   23.2227 C   0  0  0  0  0  0  0  0  0  0  0  0
    0.1227   39.9157   24.6251 C   0  0  0  0  0  0  0  0  0  0  0  0
    0.7520   38.8427   25.2459 C   0  0  0  0  0  0  0  0  0  0  0  0
    1.4387   39.7586   21.2063 N   0  0  0  0  0  0  0  0  0  0  0  0
    2.0628   40.8277   20.6461 C   0  0  0  0  0  0  0  0  0  0  0  0
    2.7796   41.6201   21.2166 O   0  0  0  0  0  0  0  0  0  0  0  0
    1.0271   39.1198   20.5804 H   0  0  0  0  0  0  0  0  0  0  0  0
    1.8247   40.8336   19.3252 O   0  0  0  0  0  0  0  0  0  0  0  0
    1.0743   41.9654   18.8179 C   0  0  0  0  0  0  0  0  0  0  0  0
    0.2023   38.5666   26.9226 S   0  0  0  0  0  0  0  0  0  0  0  0
    1.3672   38.6240   27.7640 O   0  0  0  0  0  0  0  0  0  0  0  0
   -0.8971   39.4436   27.2167 O   0  0  0  0  0  0  0  0  0  0  0  0
   -0.4239   36.8602   26.9875 C   0  0  0  0  0  0  0  0  0  0  0  0
   -1.9290   36.7587   27.1420 C   0  0  0  0  0  0  0  0  0  0  0  0
    0.3261   36.1162   28.0785 C   0  0  0  0  0  0  0  0  0  0  0  0
    7.7519   38.7913   23.5140 C   0  0  0  0  0  0  0  0  0  0  0  0
    8.0457   39.7169   22.5231 C   0  0  0  0  0  0  0  0  0  0  0  0
    5.4881   39.5956   23.6010 C   0  0  0  0  0  0  0  0  0  0  0  0
    6.4771   38.7311   24.0652 C   0  0  0  0  0  0  0  0  0  0  0  0
    7.0398   40.6191   22.0815 C   0  0  0  0  0  0  0  0  0  0  0  0
    5.7549   40.5342   22.6160 C   0  0  0  0  0  0  0  0  0  0  0  0
    7.4528   41.5582   21.1708 O   0  0  0  0  0  0  0  0  0  0  0  0
    7.0378   41.4209   19.8124 C   0  0  0  0  0  0  0  0  0  0  0  0
    9.2455   39.7912   21.8556 O   0  0  0  0  0  0  0  0  0  0  0  0
    9.6343   38.6928   21.0268 C   0  0  0  0  0  0  0  0  0  0  0  0
    6.9201   37.9825   26.3778 N   0  0  0  0  0  0  0  0  0  0  0  0
    7.0097   38.9260   26.6442 H   0  0  0  0  0  0  0  0  0  0  0  0
    8.1997   35.9330   26.6966 C   0  0  0  0  0  0  0  0  0  0  0  0
    8.1574   36.3734   29.4314 C   0  0  0  0  0  0  0  0  0  0  0  0
    7.4791   37.2299   28.5884 C   0  0  0  0  0  0  0  0  0  0  0  0
    7.5155   37.0314   27.2109 C   0  0  0  0  0  0  0  0  0  0  0  0
    8.8879   35.2994   28.9358 C   0  0  0  0  0  0  0  0  0  0  0  0
    8.8952   35.0658   27.5484 C   0  0  0  0  0  0  0  0  0  0  0  0
    9.6881   33.9594   26.9656 C   0  0  0  0  0  0  0  0  0  0  0  0
   10.2299   33.1006   27.8450 N   0  0  0  0  0  0  0  0  0  0  0  0
   10.0466   33.1156   29.2771 C   0  0  0  0  0  0  0  0  0  0  0  0
    9.7693   34.4866   29.8521 C   0  0  0  0  0  0  0  0  0  0  0  0
    9.8632   33.8238   25.7600 O   0  0  0  0  0  0  0  0  0  0  0  0
   10.8076   32.3930   27.4777 H   0  0  0  0  0  0  0  0  0  0  0  0
 26 24  1  0  0  0
 22 21  2  0  0  0
 24 21  1  0  0  0
 24 25  1  0  0  0
 13 10  2  0  0  0
 13 14  1  0  0  0
 21 14  1  0  0  0
 21 23  2  0  0  0
 10 11  1  0  0  0
 14  9  2  0  0  0
 11 15  1  0  0  0
 11 12  2  0  0  0
  9 12  1  0  0  0
  9  2  1  0  0  0
 15 16  1  0  0  0
 36 35  1  0  0  0
  2  4  1  0  0  0
  2  8  1  0  0  0
 16 19  1  0  0  0
 16 17  2  0  0  0
 19 20  1  0  0  0
  7  3  2  0  0  0
  4  5  1  0  0  0
 35 28  1  0  0  0
  3  8  1  0  0  0
  3  1  1  0  0  0
  8  6  1  0  0  0
  5  6  1  0  0  0
 27 28  2  0  0  0
 27 30  1  0  0  0
 28 31  1  0  0  0
 37  1  1  0  0  0
 37 42  1  0  0  0
  1 30  1  0  0  0
 30 29  2  0  0  0
 41 42  2  0  0  0
 41 40  1  0  0  0
 31 33  1  0  0  0
 31 32  2  0  0  0
 42 39  1  0  0  0
 33 34  1  0  0  0
 40 43  2  0  0  0
 29 32  1  0  0  0
 39 44  2  0  0  0
 43 44  1  0  0  0
 43 48  1  0  0  0
 44 45  1  0  0  0
 48 47  1  0  0  0
 45 49  2  0  0  0
 45 46  1  0  0  0
 47 46  1  0  0  0
 46 50  1  0  0  0
 37 38  1  0  0  0
 15 18  1  0  0  0
M  END
> <minimizedAffinity>
-9.01480

$$$$
4X8V_3Z9_H_301


 50 54  0  0  0  0  0  0  0  0999 V2000
    6.7820   37.3715   27.1452 C   0  0  0  0  0  0  0  0  0  0  0  0
    3.3659   38.8379   28.2176 C   0  0  0  0  0  0  0  0  0  0  0  0
    5.3636   37.5287   27.7214 C   0  0  0  0  0  0  0  0  0  0  0  0
    2.8636   40.1602   27.6181 C   0  0  0  0  0  0  0  0  0  0  0  0
    4.1358   40.9757   27.4331 C   0  0  0  0  0  0  0  0  0  0  0  0
    5.2365   39.9907   27.1138 C   0  0  0  0  0  0  0  0  0  0  0  0
    4.8053   36.5465   28.1602 O   0  0  0  0  0  0  0  0  0  0  0  0
    4.7391   38.7173   27.6621 N   0  0  0  0  0  0  0  0  0  0  0  0
    3.3263   38.8073   29.7355 C   0  0  0  0  0  0  0  0  0  0  0  0
    3.3765   38.8661   32.5514 C   0  0  0  0  0  0  0  0  0  0  0  0
    4.3190   39.5938   31.8340 C   0  0  0  0  0  0  0  0  0  0  0  0
    4.2846   39.5505   30.4416 C   0  0  0  0  0  0  0  0  0  0  0  0
    2.4127   38.1298   31.8844 C   0  0  0  0  0  0  0  0  0  0  0  0
    2.3865   38.1005   30.4948 C   0  0  0  0  0  0  0  0  0  0  0  0
    5.1853   40.4221   32.5938 N   0  0  0  0  0  0  0  0  0  0  0  0
    5.0303   41.7396   32.8873 C   0  0  0  0  0  0  0  0  0  0  0  0
    4.0327   42.4026   32.7065 O   0  0  0  0  0  0  0  0  0  0  0  0
    5.9950   39.9907   32.9508 H   0  0  0  0  0  0  0  0  0  0  0  0
    6.1422   42.1900   33.4893 O   0  0  0  0  0  0  0  0  0  0  0  0
    7.3994   41.7711   32.9018 C   0  0  0  0  0  0  0  0  0  0  0  0
    1.0270   37.1542   29.8271 S   0  0  0  0  0  0  0  0  0  0  0  0
    1.5562   36.3504   28.7585 O   0  0  0  0  0  0  0  0  0  0  0  0
    0.3308   36.4954   30.8975 O   0  0  0  0  0  0  0  0  0  0  0  0
   -0.1204   38.3522   29.0811 C   0  0  0  0  0  0  0  0  0  0  0  0
   -0.1999   39.6748   29.8185 C   0  0  0  0  0  0  0  0  0  0  0  0
   -1.4768   37.6859   28.9301 C   0  0  0  0  0  0  0  0  0  0  0  0
    8.4803   35.5772   27.6164 C   0  0  0  0  0  0  0  0  0  0  0  0
    9.2532   34.8157   28.4810 C   0  0  0  0  0  0  0  0  0  0  0  0
    7.5616   36.7768   29.4862 C   0  0  0  0  0  0  0  0  0  0  0  0
    7.6241   36.5536   28.1124 C   0  0  0  0  0  0  0  0  0  0  0  0
    9.1557   35.0260   29.8836 C   0  0  0  0  0  0  0  0  0  0  0  0
    8.3183   36.0271   30.3738 C   0  0  0  0  0  0  0  0  0  0  0  0
    9.8846   34.1603   30.6587 O   0  0  0  0  0  0  0  0  0  0  0  0
    9.1891   33.1712   31.4166 C   0  0  0  0  0  0  0  0  0  0  0  0
   10.1926   33.8942   28.0820 O   0  0  0  0  0  0  0  0  0  0  0  0
    9.7412   32.6623   27.5134 C   0  0  0  0  0  0  0  0  0  0  0  0
    6.7084   36.7610   25.8270 N   0  0  0  0  0  0  0  0  0  0  0  0
    7.3577   36.0478   25.6300 H   0  0  0  0  0  0  0  0  0  0  0  0
    4.7624   36.2377   24.4565 C   0  0  0  0  0  0  0  0  0  0  0  0
    4.9659   38.7355   23.2755 C   0  0  0  0  0  0  0  0  0  0  0  0
    5.9122   38.3330   24.1959 C   0  0  0  0  0  0  0  0  0  0  0  0
    5.8042   37.0899   24.8135 C   0  0  0  0  0  0  0  0  0  0  0  0
    3.8901   37.9209   22.9414 C   0  0  0  0  0  0  0  0  0  0  0  0
    3.7962   36.6455   23.5283 C   0  0  0  0  0  0  0  0  0  0  0  0
    2.6504   35.7544   23.2364 C   0  0  0  0  0  0  0  0  0  0  0  0
    1.8301   36.1581   22.2523 N   0  0  0  0  0  0  0  0  0  0  0  0
    2.0068   37.3227   21.4171 C   0  0  0  0  0  0  0  0  0  0  0  0
    2.7713   38.4483   22.0771 C   0  0  0  0  0  0  0  0  0  0  0  0
    2.4369   34.7152   23.8505 O   0  0  0  0  0  0  0  0  0  0  0  0
    1.0317   35.6071   22.0843 H   0  0  0  0  0  0  0  0  0  0  0  0
 26 24  1  0  0  0
 22 21  2  0  0  0
 24 21  1  0  0  0
 24 25  1  0  0  0
 13 10  2  0  0  0
 13 14  1  0  0  0
 21 14  1  0  0  0
 21 23  2  0  0  0
 10 11  1  0  0  0
 14  9  2  0  0  0
 11 15  1  0  0  0
 11 12  2  0  0  0
  9 12  1  0  0  0
  9  2  1  0  0  0
 15 16  1  0  0  0
 36 35  1  0  0  0
  2  4  1  0  0  0
  2  8  1  0  0  0
 16 19  1  0  0  0
 16 17  2  0  0  0
 19 20  1  0  0  0
  7  3  2  0  0  0
  4  5  1  0  0  0
 35 28  1  0  0  0
  3  8  1  0  0  0
  3  1  1  0  0  0
  8  6  1  0  0  0
  5  6  1  0  0  0
 27 28  2  0  0  0
 27 30  1  0  0  0
 28 31  1  0  0  0
 37  1  1  0  0  0
 37 42  1  0  0  0
  1 30  1  0  0  0
 30 29  2  0  0  0
 41 42  2  0  0  0
 41 40  1  0  0  0
 31 33  1  0  0  0
 31 32  2  0  0  0
 42 39  1  0  0  0
 33 34  1  0  0  0
 40 43  2  0  0  0
 29 32  1  0  0  0
 39 44  2  0  0  0
 43 44  1  0  0  0
 43 48  1  0  0  0
 44 45  1  0  0  0
 48 47  1  0  0  0
 45 49  2  0  0  0
 45 46  1  0  0  0
 47 46  1  0  0  0
 46 50  1  0  0  0
 37 38  1  0  0  0
 15 18  1  0  0  0
M  END
> <minimizedAffinity>
-8.69815

$$$$
4X8V_3Z9_H_301


 50 54  0  0  0  0  0  0  0  0999 V2000
    6.3629   38.1511   25.3924 C   0  0  0  0  0  0  0  0  0  0  0  0
    2.6016   38.0363   24.4925 C   0  0  0  0  0  0  0  0  0  0  0  0
    4.8705   38.5023   25.2580 C   0  0  0  0  0  0  0  0  0  0  0  0
    1.9450   36.7171   24.0577 C   0  0  0  0  0  0  0  0  0  0  0  0
    3.0439   36.0109   23.2757 C   0  0  0  0  0  0  0  0  0  0  0  0
    4.3533   36.4095   23.9167 C   0  0  0  0  0  0  0  0  0  0  0  0
    4.4572   39.4951   25.8170 O   0  0  0  0  0  0  0  0  0  0  0  0
    4.0398   37.6770   24.5985 N   0  0  0  0  0  0  0  0  0  0  0  0
    2.3381   39.1875   23.5378 C   0  0  0  0  0  0  0  0  0  0  0  0
    1.9603   41.2531   21.6599 C   0  0  0  0  0  0  0  0  0  0  0  0
    2.9285   40.2833   21.4262 C   0  0  0  0  0  0  0  0  0  0  0  0
    3.1071   39.2709   22.3669 C   0  0  0  0  0  0  0  0  0  0  0  0
    1.1793   41.1941   22.8012 C   0  0  0  0  0  0  0  0  0  0  0  0
    1.3643   40.1749   23.7283 C   0  0  0  0  0  0  0  0  0  0  0  0
    3.5910   40.3454   20.1728 N   0  0  0  0  0  0  0  0  0  0  0  0
    4.9266   40.4414   19.9421 C   0  0  0  0  0  0  0  0  0  0  0  0
    5.8079   40.3083   20.7624 O   0  0  0  0  0  0  0  0  0  0  0  0
    3.0143   40.3154   19.3755 H   0  0  0  0  0  0  0  0  0  0  0  0
    5.1336   40.6343   18.6300 O   0  0  0  0  0  0  0  0  0  0  0  0
    6.4958   40.9363   18.2373 C   0  0  0  0  0  0  0  0  0  0  0  0
    0.2133   40.2345   25.0926 S   0  0  0  0  0  0  0  0  0  0  0  0
   -0.5214   38.9982   25.0799 O   0  0  0  0  0  0  0  0  0  0  0  0
    0.9121   40.6019   26.2930 O   0  0  0  0  0  0  0  0  0  0  0  0
   -0.9677   41.5654   24.7155 C   0  0  0  0  0  0  0  0  0  0  0  0
   -1.2661   42.4788   25.8886 C   0  0  0  0  0  0  0  0  0  0  0  0
   -2.2215   40.9408   24.1287 C   0  0  0  0  0  0  0  0  0  0  0  0
    8.0151   38.5266   23.5336 C   0  0  0  0  0  0  0  0  0  0  0  0
    8.7681   39.3497   22.7089 C   0  0  0  0  0  0  0  0  0  0  0  0
    7.0766   40.4587   24.6134 C   0  0  0  0  0  0  0  0  0  0  0  0
    7.1738   39.0739   24.4957 C   0  0  0  0  0  0  0  0  0  0  0  0
    8.6896   40.7610   22.8608 C   0  0  0  0  0  0  0  0  0  0  0  0
    7.8216   41.3052   23.8064 C   0  0  0  0  0  0  0  0  0  0  0  0
    9.5427   41.4848   22.0671 O   0  0  0  0  0  0  0  0  0  0  0  0
    8.9867   42.4013   21.1251 C   0  0  0  0  0  0  0  0  0  0  0  0
    9.5549   38.9063   21.6720 O   0  0  0  0  0  0  0  0  0  0  0  0
    8.9381   38.6548   20.4067 C   0  0  0  0  0  0  0  0  0  0  0  0
    6.7631   38.2472   26.7875 N   0  0  0  0  0  0  0  0  0  0  0  0
    6.5825   39.1003   27.2445 H   0  0  0  0  0  0  0  0  0  0  0  0
    8.0511   36.1839   26.9393 C   0  0  0  0  0  0  0  0  0  0  0  0
    8.0764   36.4437   29.6973 C   0  0  0  0  0  0  0  0  0  0  0  0
    7.3771   37.3524   28.9295 C   0  0  0  0  0  0  0  0  0  0  0  0
    7.3794   37.2448   27.5413 C   0  0  0  0  0  0  0  0  0  0  0  0
    8.7949   35.4061   29.1144 C   0  0  0  0  0  0  0  0  0  0  0  0
    8.7678   35.2640   27.7148 C   0  0  0  0  0  0  0  0  0  0  0  0
    9.5465   34.2000   27.0412 C   0  0  0  0  0  0  0  0  0  0  0  0
   10.1104   33.2864   27.8486 N   0  0  0  0  0  0  0  0  0  0  0  0
    9.9626   33.2069   29.2827 C   0  0  0  0  0  0  0  0  0  0  0  0
    9.6991   34.5367   29.9532 C   0  0  0  0  0  0  0  0  0  0  0  0
    9.6917   34.1441   25.8253 O   0  0  0  0  0  0  0  0  0  0  0  0
   10.6790   32.6056   27.4215 H   0  0  0  0  0  0  0  0  0  0  0  0
 26 24  1  0  0  0
 22 21  2  0  0  0
 24 21  1  0  0  0
 24 25  1  0  0  0
 13 10  2  0  0  0
 13 14  1  0  0  0
 21 14  1  0  0  0
 21 23  2  0  0  0
 10 11  1  0  0  0
 14  9  2  0  0  0
 11 15  1  0  0  0
 11 12  2  0  0  0
  9 12  1  0  0  0
  9  2  1  0  0  0
 15 16  1  0  0  0
 36 35  1  0  0  0
  2  4  1  0  0  0
  2  8  1  0  0  0
 16 19  1  0  0  0
 16 17  2  0  0  0
 19 20  1  0  0  0
  7  3  2  0  0  0
  4  5  1  0  0  0
 35 28  1  0  0  0
  3  8  1  0  0  0
  3  1  1  0  0  0
  8  6  1  0  0  0
  5  6  1  0  0  0
 27 28  2  0  0  0
 27 30  1  0  0  0
 28 31  1  0  0  0
 37  1  1  0  0  0
 37 42  1  0  0  0
  1 30  1  0  0  0
 30 29  2  0  0  0
 41 42  2  0  0  0
 41 40  1  0  0  0
 31 33  1  0  0  0
 31 32  2  0  0  0
 42 39  1  0  0  0
 33 34  1  0  0  0
 40 43  2  0  0  0
 29 32  1  0  0  0
 39 44  2  0  0  0
 43 44  1  0  0  0
 43 48  1  0  0  0
 44 45  1  0  0  0
 48 47  1  0  0  0
 45 49  2  0  0  0
 45 46  1  0  0  0
 47 46  1  0  0  0
 46 50  1  0  0  0
 37 38  1  0  0  0
 15 18  1  0  0  0
M  END
> <minimizedAffinity>
-8.49232

$$$$
4X8V_3Z9_H_301


 50 54  0  0  0  0  0  0  0  0999 V2000
    6.4565   38.5627   26.6346 C   0  0  0  0  0  0  0  0  0  0  0  0
    3.0007   37.0392   25.7937 C   0  0  0  0  0  0  0  0  0  0  0  0
    4.9511   38.2425   26.6298 C   0  0  0  0  0  0  0  0  0  0  0  0
    2.9005   35.7267   25.0016 C   0  0  0  0  0  0  0  0  0  0  0  0
    4.0716   35.8033   24.0318 C   0  0  0  0  0  0  0  0  0  0  0  0
    5.1711   36.5582   24.7427 C   0  0  0  0  0  0  0  0  0  0  0  0
    4.2445   38.7715   27.4605 O   0  0  0  0  0  0  0  0  0  0  0  0
    4.4568   37.3359   25.7696 N   0  0  0  0  0  0  0  0  0  0  0  0
    2.1493   38.1588   25.2211 C   0  0  0  0  0  0  0  0  0  0  0  0
    0.6663   40.2309   24.0199 C   0  0  0  0  0  0  0  0  0  0  0  0
    1.8003   39.7413   23.3821 C   0  0  0  0  0  0  0  0  0  0  0  0
    2.5264   38.7198   23.9913 C   0  0  0  0  0  0  0  0  0  0  0  0
    0.2630   39.6930   25.2298 C   0  0  0  0  0  0  0  0  0  0  0  0
    0.9936   38.6699   25.8233 C   0  0  0  0  0  0  0  0  0  0  0  0
    2.0660   40.2579   22.0874 N   0  0  0  0  0  0  0  0  0  0  0  0
    1.9912   39.6031   20.8992 C   0  0  0  0  0  0  0  0  0  0  0  0
    1.5080   38.5081   20.7126 O   0  0  0  0  0  0  0  0  0  0  0  0
    2.3368   41.2035   22.0450 H   0  0  0  0  0  0  0  0  0  0  0  0
    2.4730   40.3956   19.9290 O   0  0  0  0  0  0  0  0  0  0  0  0
    1.5575   41.3898   19.4048 C   0  0  0  0  0  0  0  0  0  0  0  0
    0.2715   38.0656   27.3408 S   0  0  0  0  0  0  0  0  0  0  0  0
    1.2909   37.3169   28.0251 O   0  0  0  0  0  0  0  0  0  0  0  0
   -0.3611   39.1523   28.0361 O   0  0  0  0  0  0  0  0  0  0  0  0
   -1.0298   36.8885   26.8619 C   0  0  0  0  0  0  0  0  0  0  0  0
   -0.8471   36.2927   25.4795 C   0  0  0  0  0  0  0  0  0  0  0  0
   -2.3768   37.5695   27.0303 C   0  0  0  0  0  0  0  0  0  0  0  0
    6.7554   41.0129   27.1177 C   0  0  0  0  0  0  0  0  0  0  0  0
    6.9366   42.3291   26.7186 C   0  0  0  0  0  0  0  0  0  0  0  0
    6.7704   40.3085   24.8192 C   0  0  0  0  0  0  0  0  0  0  0  0
    6.6613   39.9974   26.1728 C   0  0  0  0  0  0  0  0  0  0  0  0
    7.0103   42.6414   25.3336 C   0  0  0  0  0  0  0  0  0  0  0  0
    6.9460   41.6157   24.3915 C   0  0  0  0  0  0  0  0  0  0  0  0
    7.0923   43.9782   25.0371 O   0  0  0  0  0  0  0  0  0  0  0  0
    7.0034   44.3814   23.6712 C   0  0  0  0  0  0  0  0  0  0  0  0
    7.1319   43.3852   27.5772 O   0  0  0  0  0  0  0  0  0  0  0  0
    7.0795   43.1387   28.9847 C   0  0  0  0  0  0  0  0  0  0  0  0
    7.0010   38.3285   27.9628 N   0  0  0  0  0  0  0  0  0  0  0  0
    6.9453   39.0733   28.6043 H   0  0  0  0  0  0  0  0  0  0  0  0
    8.1358   36.2148   27.5342 C   0  0  0  0  0  0  0  0  0  0  0  0
    8.3947   35.8398   30.2669 C   0  0  0  0  0  0  0  0  0  0  0  0
    7.7092   36.9373   29.7873 C   0  0  0  0  0  0  0  0  0  0  0  0
    7.5957   37.1477   28.4157 C   0  0  0  0  0  0  0  0  0  0  0  0
    8.9845   34.9225   29.4048 C   0  0  0  0  0  0  0  0  0  0  0  0
    8.8383   35.1037   28.0172 C   0  0  0  0  0  0  0  0  0  0  0  0
    9.4790   34.1778   27.0556 C   0  0  0  0  0  0  0  0  0  0  0  0
   10.0325   33.0742   27.5850 N   0  0  0  0  0  0  0  0  0  0  0  0
    9.9907   32.6798   28.9734 C   0  0  0  0  0  0  0  0  0  0  0  0
    9.8821   33.8354   29.9429 C   0  0  0  0  0  0  0  0  0  0  0  0
    9.5248   34.3912   25.8494 O   0  0  0  0  0  0  0  0  0  0  0  0
   10.5127   32.4770   26.9670 H   0  0  0  0  0  0  0  0  0  0  0  0
 26 24  1  0  0  0
 22 21  2  0  0  0
 24 21  1  0  0  0
 24 25  1  0  0  0
 13 10  2  0  0  0
 13 14  1  0  0  0
 21 14  1  0  0  0
 21 23  2  0  0  0
 10 11  1  0  0  0
 14  9  2  0  0  0
 11 15  1  0  0  0
 11 12  2  0  0  0
  9 12  1  0  0  0
  9  2  1  0  0  0
 15 16  1  0  0  0
 36 35  1  0  0  0
  2  4  1  0  0  0
  2  8  1  0  0  0
 16 19  1  0  0  0
 16 17  2  0  0  0
 19 20  1  0  0  0
  7  3  2  0  0  0
  4  5  1  0  0  0
 35 28  1  0  0  0
  3  8  1  0  0  0
  3  1  1  0  0  0
  8  6  1  0  0  0
  5  6  1  0  0  0
 27 28  2  0  0  0
 27 30  1  0  0  0
 28 31  1  0  0  0
 37  1  1  0  0  0
 37 42  1  0  0  0
  1 30  1  0  0  0
 30 29  2  0  0  0
 41 42  2  0  0  0
 41 40  1  0  0  0
 31 33  1  0  0  0
 31 32  2  0  0  0
 42 39  1  0  0  0
 33 34  1  0  0  0
 40 43  2  0  0  0
 29 32  1  0  0  0
 39 44  2  0  0  0
 43 44  1  0  0  0
 43 48  1  0  0  0
 44 45  1  0  0  0
 48 47  1  0  0  0
 45 49  2  0  0  0
 45 46  1  0  0  0
 47 46  1  0  0  0
 46 50  1  0  0  0
 37 38  1  0  0  0
 15 18  1  0  0  0
M  END
> <minimizedAffinity>
-8.42257

$$$$
4X8V_3Z9_H_301


 50 54  0  0  0  0  0  0  0  0999 V2000
    6.2431   37.3209   25.8658 C   0  0  0  0  0  0  0  0  0  0  0  0
    7.7085   40.2948   23.8711 C   0  0  0  0  0  0  0  0  0  0  0  0
    7.0053   38.1638   24.8279 C   0  0  0  0  0  0  0  0  0  0  0  0
    7.7388   41.7035   24.4835 C   0  0  0  0  0  0  0  0  0  0  0  0
    6.4624   41.7617   25.3113 C   0  0  0  0  0  0  0  0  0  0  0  0
    6.2184   40.3618   25.8260 C   0  0  0  0  0  0  0  0  0  0  0  0
    7.7004   37.5921   24.0162 O   0  0  0  0  0  0  0  0  0  0  0  0
    6.9548   39.5058   24.8802 N   0  0  0  0  0  0  0  0  0  0  0  0
    7.0872   40.2497   22.4861 C   0  0  0  0  0  0  0  0  0  0  0  0
    5.7838   40.1909   19.9894 C   0  0  0  0  0  0  0  0  0  0  0  0
    5.0297   40.2740   21.1542 C   0  0  0  0  0  0  0  0  0  0  0  0
    5.6885   40.2968   22.3819 C   0  0  0  0  0  0  0  0  0  0  0  0
    7.1657   40.1515   20.0579 C   0  0  0  0  0  0  0  0  0  0  0  0
    7.8102   40.1811   21.2894 C   0  0  0  0  0  0  0  0  0  0  0  0
    3.6305   40.4419   20.9868 N   0  0  0  0  0  0  0  0  0  0  0  0
    2.7265   39.5186   20.5671 C   0  0  0  0  0  0  0  0  0  0  0  0
    2.9234   38.3309   20.4330 O   0  0  0  0  0  0  0  0  0  0  0  0
    3.2722   41.3337   21.2002 H   0  0  0  0  0  0  0  0  0  0  0  0
    1.5372   40.1154   20.3915 O   0  0  0  0  0  0  0  0  0  0  0  0
    1.5311   41.2844   19.5343 C   0  0  0  0  0  0  0  0  0  0  0  0
    9.5915   40.1937   21.1618 S   0  0  0  0  0  0  0  0  0  0  0  0
   10.1004   39.4440   22.2786 O   0  0  0  0  0  0  0  0  0  0  0  0
    9.9796   39.7949   19.8372 O   0  0  0  0  0  0  0  0  0  0  0  0
   10.1145   41.9206   21.3907 C   0  0  0  0  0  0  0  0  0  0  0  0
   10.7713   42.1962   22.7294 C   0  0  0  0  0  0  0  0  0  0  0  0
    8.9195   42.8211   21.1308 C   0  0  0  0  0  0  0  0  0  0  0  0
    8.1009   35.7648   26.5388 C   0  0  0  0  0  0  0  0  0  0  0  0
    9.0043   35.2594   27.4625 C   0  0  0  0  0  0  0  0  0  0  0  0
    7.2815   37.3168   28.1817 C   0  0  0  0  0  0  0  0  0  0  0  0
    7.2289   36.7875   26.8941 C   0  0  0  0  0  0  0  0  0  0  0  0
    9.0258   35.7811   28.7848 C   0  0  0  0  0  0  0  0  0  0  0  0
    8.1702   36.8273   29.1269 C   0  0  0  0  0  0  0  0  0  0  0  0
    9.8844   35.1517   29.6499 O   0  0  0  0  0  0  0  0  0  0  0  0
    9.3346   34.3917   30.7253 C   0  0  0  0  0  0  0  0  0  0  0  0
    9.9642   34.3163   27.1799 O   0  0  0  0  0  0  0  0  0  0  0  0
    9.6108   32.9339   27.2735 C   0  0  0  0  0  0  0  0  0  0  0  0
    5.1950   38.1257   26.4734 N   0  0  0  0  0  0  0  0  0  0  0  0
    5.4526   39.0172   26.8023 H   0  0  0  0  0  0  0  0  0  0  0  0
    3.0111   37.5717   25.5446 C   0  0  0  0  0  0  0  0  0  0  0  0
    2.1031   37.0158   28.1023 C   0  0  0  0  0  0  0  0  0  0  0  0
    3.3835   37.4967   27.9187 C   0  0  0  0  0  0  0  0  0  0  0  0
    3.8573   37.7549   26.6352 C   0  0  0  0  0  0  0  0  0  0  0  0
    1.2585   36.7783   27.0240 C   0  0  0  0  0  0  0  0  0  0  0  0
    1.7135   37.0769   25.7265 C   0  0  0  0  0  0  0  0  0  0  0  0
    0.8685   36.8067   24.5411 C   0  0  0  0  0  0  0  0  0  0  0  0
   -0.4004   36.4471   24.7959 N   0  0  0  0  0  0  0  0  0  0  0  0
   -1.0236   36.3778   26.0966 C   0  0  0  0  0  0  0  0  0  0  0  0
   -0.0647   36.0823   27.2282 C   0  0  0  0  0  0  0  0  0  0  0  0
    1.2836   36.8870   23.3905 O   0  0  0  0  0  0  0  0  0  0  0  0
   -0.9592   36.2080   24.0215 H   0  0  0  0  0  0  0  0  0  0  0  0
 26 24  1  0  0  0
 22 21  2  0  0  0
 24 21  1  0  0  0
 24 25  1  0  0  0
 13 10  2  0  0  0
 13 14  1  0  0  0
 21 14  1  0  0  0
 21 23  2  0  0  0
 10 11  1  0  0  0
 14  9  2  0  0  0
 11 15  1  0  0  0
 11 12  2  0  0  0
  9 12  1  0  0  0
  9  2  1  0  0  0
 15 16  1  0  0  0
 36 35  1  0  0  0
  2  4  1  0  0  0
  2  8  1  0  0  0
 16 19  1  0  0  0
 16 17  2  0  0  0
 19 20  1  0  0  0
  7  3  2  0  0  0
  4  5  1  0  0  0
 35 28  1  0  0  0
  3  8  1  0  0  0
  3  1  1  0  0  0
  8  6  1  0  0  0
  5  6  1  0  0  0
 27 28  2  0  0  0
 27 30  1  0  0  0
 28 31  1  0  0  0
 37  1  1  0  0  0
 37 42  1  0  0  0
  1 30  1  0  0  0
 30 29  2  0  0  0
 41 42  2  0  0  0
 41 40  1  0  0  0
 31 33  1  0  0  0
 31 32  2  0  0  0
 42 39  1  0  0  0
 33 34  1  0  0  0
 40 43  2  0  0  0
 29 32  1  0  0  0
 39 44  2  0  0  0
 43 44  1  0  0  0
 43 48  1  0  0  0
 44 45  1  0  0  0
 48 47  1  0  0  0
 45 49  2  0  0  0
 45 46  1  0  0  0
 47 46  1  0  0  0
 46 50  1  0  0  0
 37 38  1  0  0  0
 15 18  1  0  0  0
M  END
> <minimizedAffinity>
-7.92347

$$$$
4X8V_3Z9_H_301


 50 54  0  0  0  0  0  0  0  0999 V2000
    6.2427   38.3103   25.4552 C   0  0  0  0  0  0  0  0  0  0  0  0
    2.6868   36.7861   25.5124 C   0  0  0  0  0  0  0  0  0  0  0  0
    4.7659   38.0324   25.7875 C   0  0  0  0  0  0  0  0  0  0  0  0
    2.4298   35.3878   24.9304 C   0  0  0  0  0  0  0  0  0  0  0  0
    3.3854   35.3108   23.7477 C   0  0  0  0  0  0  0  0  0  0  0  0
    4.6051   36.1193   24.1259 C   0  0  0  0  0  0  0  0  0  0  0  0
    4.2388   38.6800   26.6659 O   0  0  0  0  0  0  0  0  0  0  0  0
    4.1096   37.0385   25.1647 N   0  0  0  0  0  0  0  0  0  0  0  0
    1.7402   37.8474   24.9795 C   0  0  0  0  0  0  0  0  0  0  0  0
    0.0782   39.8218   23.8503 C   0  0  0  0  0  0  0  0  0  0  0  0
    1.2351   39.4365   23.1829 C   0  0  0  0  0  0  0  0  0  0  0  0
    2.0499   38.4624   23.7567 C   0  0  0  0  0  0  0  0  0  0  0  0
   -0.2598   39.2281   25.0542 C   0  0  0  0  0  0  0  0  0  0  0  0
    0.5593   38.2531   25.6121 C   0  0  0  0  0  0  0  0  0  0  0  0
    1.4360   40.0000   21.8961 N   0  0  0  0  0  0  0  0  0  0  0  0
    2.0051   39.4131   20.8108 C   0  0  0  0  0  0  0  0  0  0  0  0
    2.2803   38.2394   20.6915 O   0  0  0  0  0  0  0  0  0  0  0  0
    1.1260   40.9266   21.7753 H   0  0  0  0  0  0  0  0  0  0  0  0
    2.1513   40.3295   19.8411 O   0  0  0  0  0  0  0  0  0  0  0  0
    2.0555   41.7156   20.2544 C   0  0  0  0  0  0  0  0  0  0  0  0
   -0.0857   37.5617   27.1272 S   0  0  0  0  0  0  0  0  0  0  0  0
   -0.9722   38.5413   27.6950 O   0  0  0  0  0  0  0  0  0  0  0  0
   -0.5971   36.2434   26.8724 O   0  0  0  0  0  0  0  0  0  0  0  0
    1.3263   37.3931   28.2613 C   0  0  0  0  0  0  0  0  0  0  0  0
    1.3646   36.0753   29.0104 C   0  0  0  0  0  0  0  0  0  0  0  0
    1.3392   38.5936   29.1914 C   0  0  0  0  0  0  0  0  0  0  0  0
    7.3672   37.7930   27.6446 C   0  0  0  0  0  0  0  0  0  0  0  0
    8.1718   37.0051   28.4548 C   0  0  0  0  0  0  0  0  0  0  0  0
    7.6777   36.2502   25.8273 C   0  0  0  0  0  0  0  0  0  0  0  0
    7.1232   37.4271   26.3258 C   0  0  0  0  0  0  0  0  0  0  0  0
    8.7627   35.8250   27.9264 C   0  0  0  0  0  0  0  0  0  0  0  0
    8.4902   35.4466   26.6125 C   0  0  0  0  0  0  0  0  0  0  0  0
    9.6179   35.1671   28.7735 O   0  0  0  0  0  0  0  0  0  0  0  0
    9.9919   33.8261   28.4602 C   0  0  0  0  0  0  0  0  0  0  0  0
    8.3958   37.2346   29.7919 O   0  0  0  0  0  0  0  0  0  0  0  0
    8.1146   38.5343   30.3176 C   0  0  0  0  0  0  0  0  0  0  0  0
    6.4734   38.0900   24.0361 N   0  0  0  0  0  0  0  0  0  0  0  0
    6.4487   37.1577   23.7207 H   0  0  0  0  0  0  0  0  0  0  0  0
    8.0239   39.4151   22.7022 C   0  0  0  0  0  0  0  0  0  0  0  0
    5.8658   40.5678   21.4025 C   0  0  0  0  0  0  0  0  0  0  0  0
    5.6491   39.6784   22.4351 C   0  0  0  0  0  0  0  0  0  0  0  0
    6.7268   39.0747   23.0774 C   0  0  0  0  0  0  0  0  0  0  0  0
    7.1516   40.8839   20.9785 C   0  0  0  0  0  0  0  0  0  0  0  0
    8.2477   40.3118   21.6499 C   0  0  0  0  0  0  0  0  0  0  0  0
    9.6361   40.5849   21.2138 C   0  0  0  0  0  0  0  0  0  0  0  0
    9.7799   41.5414   20.2817 N   0  0  0  0  0  0  0  0  0  0  0  0
    8.7281   42.3654   19.7343 C   0  0  0  0  0  0  0  0  0  0  0  0
    7.3646   41.7111   19.7346 C   0  0  0  0  0  0  0  0  0  0  0  0
   10.6072   39.9791   21.6526 O   0  0  0  0  0  0  0  0  0  0  0  0
   10.6898   41.6954   19.9388 H   0  0  0  0  0  0  0  0  0  0  0  0
 26 24  1  0  0  0
 22 21  2  0  0  0
 24 21  1  0  0  0
 24 25  1  0  0  0
 13 10  2  0  0  0
 13 14  1  0  0  0
 21 14  1  0  0  0
 21 23  2  0  0  0
 10 11  1  0  0  0
 14  9  2  0  0  0
 11 15  1  0  0  0
 11 12  2  0  0  0
  9 12  1  0  0  0
  9  2  1  0  0  0
 15 16  1  0  0  0
 36 35  1  0  0  0
  2  4  1  0  0  0
  2  8  1  0  0  0
 16 19  1  0  0  0
 16 17  2  0  0  0
 19 20  1  0  0  0
  7  3  2  0  0  0
  4  5  1  0  0  0
 35 28  1  0  0  0
  3  8  1  0  0  0
  3  1  1  0  0  0
  8  6  1  0  0  0
  5  6  1  0  0  0
 27 28  2  0  0  0
 27 30  1  0  0  0
 28 31  1  0  0  0
 37  1  1  0  0  0
 37 42  1  0  0  0
  1 30  1  0  0  0
 30 29  2  0  0  0
 41 42  2  0  0  0
 41 40  1  0  0  0
 31 33  1  0  0  0
 31 32  2  0  0  0
 42 39  1  0  0  0
 33 34  1  0  0  0
 40 43  2  0  0  0
 29 32  1  0  0  0
 39 44  2  0  0  0
 43 44  1  0  0  0
 43 48  1  0  0  0
 44 45  1  0  0  0
 48 47  1  0  0  0
 45 49  2  0  0  0
 45 46  1  0  0  0
 47 46  1  0  0  0
 46 50  1  0  0  0
 37 38  1  0  0  0
 15 18  1  0  0  0
M  END
> <minimizedAffinity>
-7.84327

$$$$
4X8V_3Z9_H_301


 50 54  0  0  0  0  0  0  0  0999 V2000
    6.1132   38.4354   25.1157 C   0  0  0  0  0  0  0  0  0  0  0  0
    7.7006   38.9384   28.6082 C   0  0  0  0  0  0  0  0  0  0  0  0
    6.6282   39.0678   26.4210 C   0  0  0  0  0  0  0  0  0  0  0  0
    8.6137   37.8599   29.2110 C   0  0  0  0  0  0  0  0  0  0  0  0
    8.0013   36.5560   28.7184 C   0  0  0  0  0  0  0  0  0  0  0  0
    7.4178   36.8423   27.3540 C   0  0  0  0  0  0  0  0  0  0  0  0
    6.5655   40.2719   26.5444 O   0  0  0  0  0  0  0  0  0  0  0  0
    7.2035   38.2996   27.3618 N   0  0  0  0  0  0  0  0  0  0  0  0
    6.5879   39.3812   29.5422 C   0  0  0  0  0  0  0  0  0  0  0  0
    4.4487   40.0534   31.2473 C   0  0  0  0  0  0  0  0  0  0  0  0
    4.4060   38.8627   30.5312 C   0  0  0  0  0  0  0  0  0  0  0  0
    5.4693   38.5465   29.6878 C   0  0  0  0  0  0  0  0  0  0  0  0
    5.5421   40.8944   31.1321 C   0  0  0  0  0  0  0  0  0  0  0  0
    6.5987   40.5635   30.2915 C   0  0  0  0  0  0  0  0  0  0  0  0
    3.3128   38.0013   30.8081 N   0  0  0  0  0  0  0  0  0  0  0  0
    2.0076   38.1812   30.4764 C   0  0  0  0  0  0  0  0  0  0  0  0
    1.5677   39.0229   29.7246 O   0  0  0  0  0  0  0  0  0  0  0  0
    3.5255   37.1749   31.2991 H   0  0  0  0  0  0  0  0  0  0  0  0
    1.2699   37.2217   31.0568 O   0  0  0  0  0  0  0  0  0  0  0  0
    0.9514   36.0746   30.2298 C   0  0  0  0  0  0  0  0  0  0  0  0
    7.9416   41.7400   30.3371 S   0  0  0  0  0  0  0  0  0  0  0  0
    9.0443   41.0971   30.9995 O   0  0  0  0  0  0  0  0  0  0  0  0
    8.1535   42.2761   29.0210 O   0  0  0  0  0  0  0  0  0  0  0  0
    7.3958   43.1070   31.4056 C   0  0  0  0  0  0  0  0  0  0  0  0
    6.8709   44.3120   30.6493 C   0  0  0  0  0  0  0  0  0  0  0  0
    8.5322   43.4600   32.3492 C   0  0  0  0  0  0  0  0  0  0  0  0
    4.2530   36.8389   24.5527 C   0  0  0  0  0  0  0  0  0  0  0  0
    2.9807   36.3204   24.7448 C   0  0  0  0  0  0  0  0  0  0  0  0
    3.9007   38.3863   26.3584 C   0  0  0  0  0  0  0  0  0  0  0  0
    4.7169   37.8793   25.3495 C   0  0  0  0  0  0  0  0  0  0  0  0
    2.1415   36.8686   25.7530 C   0  0  0  0  0  0  0  0  0  0  0  0
    2.6228   37.8913   26.5693 C   0  0  0  0  0  0  0  0  0  0  0  0
    0.8702   36.3557   25.8010 O   0  0  0  0  0  0  0  0  0  0  0  0
   -0.2294   37.2326   25.5595 C   0  0  0  0  0  0  0  0  0  0  0  0
    2.4699   35.2359   24.0712 O   0  0  0  0  0  0  0  0  0  0  0  0
    3.3795   34.3557   23.4059 C   0  0  0  0  0  0  0  0  0  0  0  0
    6.1406   39.4249   24.0500 N   0  0  0  0  0  0  0  0  0  0  0  0
    5.5093   40.1766   24.1244 H   0  0  0  0  0  0  0  0  0  0  0  0
    6.5246   39.8012   21.6731 C   0  0  0  0  0  0  0  0  0  0  0  0
    9.1931   39.1515   22.0369 C   0  0  0  0  0  0  0  0  0  0  0  0
    8.3148   39.0621   23.0976 C   0  0  0  0  0  0  0  0  0  0  0  0
    6.9772   39.4108   22.9307 C   0  0  0  0  0  0  0  0  0  0  0  0
    8.7729   39.5867   20.7851 C   0  0  0  0  0  0  0  0  0  0  0  0
    7.4144   39.9000   20.5960 C   0  0  0  0  0  0  0  0  0  0  0  0
    6.9224   40.4047   19.2939 C   0  0  0  0  0  0  0  0  0  0  0  0
    7.8009   40.3605   18.2787 N   0  0  0  0  0  0  0  0  0  0  0  0
    9.1320   39.8029   18.3250 C   0  0  0  0  0  0  0  0  0  0  0  0
    9.7779   39.8533   19.6916 C   0  0  0  0  0  0  0  0  0  0  0  0
    5.7924   40.8516   19.1326 O   0  0  0  0  0  0  0  0  0  0  0  0
    7.5092   40.7452   17.4207 H   0  0  0  0  0  0  0  0  0  0  0  0
 26 24  1  0  0  0
 22 21  2  0  0  0
 24 21  1  0  0  0
 24 25  1  0  0  0
 13 10  2  0  0  0
 13 14  1  0  0  0
 21 14  1  0  0  0
 21 23  2  0  0  0
 10 11  1  0  0  0
 14  9  2  0  0  0
 11 15  1  0  0  0
 11 12  2  0  0  0
  9 12  1  0  0  0
  9  2  1  0  0  0
 15 16  1  0  0  0
 36 35  1  0  0  0
  2  4  1  0  0  0
  2  8  1  0  0  0
 16 19  1  0  0  0
 16 17  2  0  0  0
 19 20  1  0  0  0
  7  3  2  0  0  0
  4  5  1  0  0  0
 35 28  1  0  0  0
  3  8  1  0  0  0
  3  1  1  0  0  0
  8  6  1  0  0  0
  5  6  1  0  0  0
 27 28  2  0  0  0
 27 30  1  0  0  0
 28 31  1  0  0  0
 37  1  1  0  0  0
 37 42  1  0  0  0
  1 30  1  0  0  0
 30 29  2  0  0  0
 41 42  2  0  0  0
 41 40  1  0  0  0
 31 33  1  0  0  0
 31 32  2  0  0  0
 42 39  1  0  0  0
 33 34  1  0  0  0
 40 43  2  0  0  0
 29 32  1  0  0  0
 39 44  2  0  0  0
 43 44  1  0  0  0
 43 48  1  0  0  0
 44 45  1  0  0  0
 48 47  1  0  0  0
 45 49  2  0  0  0
 45 46  1  0  0  0
 47 46  1  0  0  0
 46 50  1  0  0  0
 37 38  1  0  0  0
 15 18  1  0  0  0
M  END
> <minimizedAffinity>
-7.81011

$$$$
