2PY4_DUP_A_777
  RCSB PDB12061706423D
Coordinates from PDB:2PY4:A:777 Model:1 without hydrogens
 28 29  0  0  0  0            999 V2000
   16.7090   14.9670   41.4770   O 0  0  0  0  0  0  0  0  0  0  0  0
   15.9050   14.1450   41.0080   C 0  0  0  0  0  0  0  0  0  0  0  0
   16.2740   12.8990   40.5010   C 0  0  0  0  0  0  0  0  0  0  0  0
   15.2530   12.0430   40.0280   C 0  0  0  0  0  0  0  0  0  0  0  0
   14.5800   14.5380   40.9840   N 0  0  0  0  0  0  0  0  0  0  0  0
   13.5870   13.7230   40.4540   C 0  0  0  0  0  0  0  0  0  0  0  0
   12.4080   14.1300   40.4510   O 0  0  0  0  0  0  0  0  0  0  0  0
   13.9450   12.4850   40.0030   N 0  0  0  0  0  0  0  0  0  0  0  0
   12.9330   11.5940   39.4020   C 0  0  0  0  0  0  0  0  0  0  0  0
   13.0720   11.6920   37.8800   C 0  0  0  0  0  0  0  0  0  0  0  0
   13.9070   10.4420   37.5540   C 0  0  0  0  0  0  0  0  0  0  0  0
   13.6600    9.9490   36.2110   O 0  0  0  0  0  0  0  0  0  0  0  0
   13.2120   10.2440   39.7640   O 0  0  0  0  0  0  0  0  0  0  0  0
   13.4250    9.4790   38.5750   C 0  0  0  0  0  0  0  0  0  0  0  0
   14.3510    8.3170   38.9130   C 0  0  0  0  0  0  0  0  0  0  0  0
   15.6040    8.9000   39.2920   O 0  0  0  0  0  0  0  0  0  0  0  0
   16.8190    7.9220   39.7510   P 0  0  0  0  0  0  0  0  0  0  0  0
   16.8740    6.7810   38.7370   O 0  0  0  0  0  0  0  0  0  0  0  0
   18.0370    8.8320   39.7780   O 0  0  0  0  0  0  0  0  0  0  0  0
   16.4260    7.4080   41.2300   N 0  0  0  0  0  0  0  0  0  0  0  0
   15.9740    5.8300   41.5500   P 0  0  0  0  0  0  0  0  0  0  0  0
   16.7370    4.8170   40.7530   O 0  0  0  0  0  0  0  0  0  0  0  0
   15.9910    5.6750   43.0690   O 0  0  0  0  0  0  0  0  0  0  0  0
   14.4630    5.6770   41.0790   O 0  0  0  0  0  0  0  0  0  0  0  0
   13.8600    4.6550   40.0190   P 0  0  0  0  0  0  0  0  0  0  0  0
   14.7180    4.6950   38.7880   O 0  0  0  0  0  0  0  0  0  0  0  0
   13.9080    3.3610   40.7640   O 0  0  0  0  0  0  0  0  0  0  0  0
   12.4530    5.1550   39.7320   O 0  0  0  0  0  0  0  0  0  0  0  0
  1  2  2  0  0  0  0
  2  3  1  0  0  0  0
  2  5  1  0  0  0  0
  3  4  2  0  0  0  0
  4  8  1  0  0  0  0
  5  6  1  0  0  0  0
  6  7  2  0  0  0  0
  6  8  1  0  0  0  0
  8  9  1  0  0  0  0
  9 10  1  0  0  0  0
  9 13  1  0  0  0  0
 10 11  1  0  0  0  0
 11 12  1  0  0  0  0
 11 14  1  0  0  0  0
 13 14  1  0  0  0  0
 14 15  1  0  0  0  0
 15 16  1  0  0  0  0
 16 17  1  0  0  0  0
 17 18  2  0  0  0  0
 17 19  1  0  0  0  0
 17 20  1  0  0  0  0
 20 21  1  0  0  0  0
 21 22  2  0  0  0  0
 21 23  1  0  0  0  0
 21 24  1  0  0  0  0
 24 25  1  0  0  0  0
 25 26  2  0  0  0  0
 25 27  1  0  0  0  0
 25 28  1  0  0  0  0
A    1
O4
A    2
C4
A    3
C5
A    4
C6
A    5
N3
A    6
C2
A    7
O2
A    8
N1
A    9
C1'
A   10
C2'
A   11
C3'
A   12
O3'
A   13
O4'
A   14
C4'
A   15
C5'
A   16
O5'
A   17
PA
A   18
O1A
A   19
O2A
A   20
N3A
A   21
PB
A   22
O1B
A   23
O2B
A   24
O3B
A   25
PG
A   26
O2G
A   27
O1G
A   28
O3G
M  END
>  <InstanceId>
2PY4_DUP_A_777

>  <ChemCompId>
DUP

>  <PdbId>
2PY4

>  <ChainId>
A

>  <ResidueNumber>
777

>  <InsertionCode>


>  <Model>
1

>  <AltIds>


>  <MissingHeavyAtoms>
0

>  <ObservedFormula>
C9 N3 O13 P3

>  <Name>
2'-DEOXYURIDINE 5'-ALPHA,BETA-IMIDO-TRIPHOSPHATE

>  <SystematicName>
[(2R,3S,5R)-5-(2,4-dioxopyrimidin-1-yl)-3-hydroxy-oxolan-2-yl]methoxy-N-(hydroxy-phosphonooxy-phosphoryl)phosphonamidic acid

>  <Synonyms>


>  <Type>
NON-POLYMER

>  <Formula>
C9 H16 N3 O13 P3

>  <MolecularWeight>
467.157

>  <ModifiedDate>
2011-06-04

>  <Parent>


>  <OneLetterCode>


>  <SubcomponentList>


>  <AmbiguousFlag>
N

>  <InChI>
InChI=1S/C9H16N3O13P3/c13-5-3-8(12-2-1-7(14)10-9(12)15)24-6(5)4-23-26(16,17)11-27(18,19)25-28(20,21)22/h1-2,5-6,8,13H,3-4H2,(H,10,14,15)(H2,20,21,22)(H3,11,16,17,18,19)/t5-,6+,8+/m0/s1

>  <InChIKey>
XZLLMTSKYYYJLH-SHYZEUOFSA-N

>  <SMILES>
C1[C@@H]([C@H](O[C@H]1N2C=CC(=O)NC2=O)CO[P@](=O)(N[P@@](=O)(O)OP(=O)(O)O)O)O

$$$$
