2PY4_DUP_A_777


 35 36  0  0  0  0  0  0  0  0999 V2000
   15.2044    8.9089   39.6141 O   0  0  0  0  0  0  0  0  0  0  0  0
   16.6191    8.1147   39.5083 P   0  0  0  0  0  0  0  0  0  0  0  0
   16.4586    7.0729   38.4028 O   0  0  0  0  0  0  0  0  0  0  0  0
   17.6385    9.2088   39.2327 O   0  0  0  0  0  0  0  0  0  0  0  0
   17.4733    9.5915   38.3568 H   0  0  0  0  0  0  0  0  0  0  0  0
   16.8462    7.4397   40.9571 N   0  0  0  0  0  0  0  0  0  0  0  0
   16.4874    8.1081   41.6389 H   0  0  0  0  0  0  0  0  0  0  0  0
   16.1965    5.9571   41.3773 P   0  0  0  0  0  0  0  0  0  0  0  0
   16.8339    4.8028   40.6666 O   0  0  0  0  0  0  0  0  0  0  0  0
   16.1792    5.9095   42.9034 O   0  0  0  0  0  0  0  0  0  0  0  0
   17.0900    5.9062   43.2371 H   0  0  0  0  0  0  0  0  0  0  0  0
   14.6829    5.9604   40.8902 O   0  0  0  0  0  0  0  0  0  0  0  0
   13.9017    4.8263   40.0933 P   0  0  0  0  0  0  0  0  0  0  0  0
   12.4520    5.2104   40.0308 O   0  0  0  0  0  0  0  0  0  0  0  0
   14.5994    4.8296   38.7723 O   0  0  0  0  0  0  0  0  0  0  0  0
   14.1049    3.5536   40.9001 O   0  0  0  0  0  0  0  0  0  0  0  0
   14.4252    5.6681   38.3168 H   0  0  0  0  0  0  0  0  0  0  0  0
   13.6254    3.6235   41.7404 H   0  0  0  0  0  0  0  0  0  0  0  0
   14.0866    8.4375   38.8514 C   0  0  0  0  0  0  0  0  0  0  0  0
   12.8993   11.8066   39.3283 C   0  0  0  0  0  0  0  0  0  0  0  0
   13.1088   11.9106   37.8148 C   0  0  0  0  0  0  0  0  0  0  0  0
   13.8605   10.6048   37.5055 C   0  0  0  0  0  0  0  0  0  0  0  0
   13.6336   10.1467   36.1467 O   0  0  0  0  0  0  0  0  0  0  0  0
   13.0608   10.4355   39.6823 O   0  0  0  0  0  0  0  0  0  0  0  0
   13.2654    9.6698   38.4923 C   0  0  0  0  0  0  0  0  0  0  0  0
   12.6819   10.0314   35.9991 H   0  0  0  0  0  0  0  0  0  0  0  0
   16.8291   14.8601   41.6030 O   0  0  0  0  0  0  0  0  0  0  0  0
   15.9853   14.1065   41.0909 C   0  0  0  0  0  0  0  0  0  0  0  0
   16.2769   12.8356   40.5955 C   0  0  0  0  0  0  0  0  0  0  0  0
   15.2146   12.0657   40.0687 C   0  0  0  0  0  0  0  0  0  0  0  0
   14.6990   14.6053   41.0049 N   0  0  0  0  0  0  0  0  0  0  0  0
   13.6706   13.8741   40.4227 C   0  0  0  0  0  0  0  0  0  0  0  0
   12.5298   14.3750   40.3648 O   0  0  0  0  0  0  0  0  0  0  0  0
   13.9492   12.6120   39.9827 N   0  0  0  0  0  0  0  0  0  0  0  0
   14.5066   15.5011   41.3650 H   0  0  0  0  0  0  0  0  0  0  0  0
 27 28  2  0  0  0
 28 29  1  0  0  0
 28 31  1  0  0  0
 29 30  2  0  0  0
 30 34  1  0  0  0
 31 32  1  0  0  0
 32 33  2  0  0  0
 32 34  1  0  0  0
 34 20  1  0  0  0
 20 21  1  0  0  0
 20 24  1  0  0  0
 21 22  1  0  0  0
 22 23  1  0  0  0
 22 25  1  0  0  0
 24 25  1  0  0  0
 25 19  1  0  0  0
 19  1  1  0  0  0
  1  2  1  0  0  0
  2  3  2  0  0  0
  2  4  1  0  0  0
  2  6  1  0  0  0
  6  8  1  0  0  0
  8  9  2  0  0  0
  8 10  1  0  0  0
  8 12  1  0  0  0
 12 13  1  0  0  0
 13 14  2  0  0  0
 13 15  1  0  0  0
 13 16  1  0  0  0
 31 35  1  0  0  0
 23 26  1  0  0  0
  4  5  1  0  0  0
  6  7  1  0  0  0
 10 11  1  0  0  0
 15 17  1  0  0  0
 16 18  1  0  0  0
M  END
> <minimizedAffinity>
-12.40686

$$$$
2PY4_DUP_A_777


 35 36  0  0  0  0  0  0  0  0999 V2000
   13.2633    7.5956   39.3276 O   0  0  0  0  0  0  0  0  0  0  0  0
   13.9100    6.1868   39.8179 P   0  0  0  0  0  0  0  0  0  0  0  0
   12.7517    5.2065   39.9921 O   0  0  0  0  0  0  0  0  0  0  0  0
   14.9051    5.8351   38.7232 O   0  0  0  0  0  0  0  0  0  0  0  0
   14.4273    5.6453   37.9006 H   0  0  0  0  0  0  0  0  0  0  0  0
   14.6509    6.5132   41.2145 N   0  0  0  0  0  0  0  0  0  0  0  0
   13.9952    6.2492   41.9499 H   0  0  0  0  0  0  0  0  0  0  0  0
   16.1199    5.8367   41.6402 P   0  0  0  0  0  0  0  0  0  0  0  0
   16.2322    5.5235   43.1006 O   0  0  0  0  0  0  0  0  0  0  0  0
   16.3672    4.6900   40.6626 O   0  0  0  0  0  0  0  0  0  0  0  0
   15.7034    3.9968   40.8027 H   0  0  0  0  0  0  0  0  0  0  0  0
   17.2335    6.9377   41.3644 O   0  0  0  0  0  0  0  0  0  0  0  0
   17.3608    7.9201   40.1192 P   0  0  0  0  0  0  0  0  0  0  0  0
   18.4853    8.8769   40.3895 O   0  0  0  0  0  0  0  0  0  0  0  0
   17.6133    6.9722   38.9925 O   0  0  0  0  0  0  0  0  0  0  0  0
   16.0250    8.6417   40.0367 O   0  0  0  0  0  0  0  0  0  0  0  0
   18.4790    6.5513   39.1119 H   0  0  0  0  0  0  0  0  0  0  0  0
   15.9314    9.2366   40.7971 H   0  0  0  0  0  0  0  0  0  0  0  0
   14.0482    8.4697   38.5069 C   0  0  0  0  0  0  0  0  0  0  0  0
   12.8299   11.7745   39.2699 C   0  0  0  0  0  0  0  0  0  0  0  0
   12.9805   11.9907   37.7612 C   0  0  0  0  0  0  0  0  0  0  0  0
   13.7394   10.7238   37.3309 C   0  0  0  0  0  0  0  0  0  0  0  0
   13.4681   10.3607   35.9516 O   0  0  0  0  0  0  0  0  0  0  0  0
   13.0250   10.3846   39.5174 O   0  0  0  0  0  0  0  0  0  0  0  0
   13.1958    9.7100   38.2683 C   0  0  0  0  0  0  0  0  0  0  0  0
   12.5133   10.2397   35.8309 H   0  0  0  0  0  0  0  0  0  0  0  0
   16.8051   14.7161   41.6121 O   0  0  0  0  0  0  0  0  0  0  0  0
   15.9500   13.9871   41.0835 C   0  0  0  0  0  0  0  0  0  0  0  0
   16.2220   12.7225   40.5613 C   0  0  0  0  0  0  0  0  0  0  0  0
   15.1482   11.9810   40.0174 C   0  0  0  0  0  0  0  0  0  0  0  0
   14.6719   14.5080   41.0070 N   0  0  0  0  0  0  0  0  0  0  0  0
   13.6327   13.8057   40.4086 C   0  0  0  0  0  0  0  0  0  0  0  0
   12.5001   14.3259   40.3604 O   0  0  0  0  0  0  0  0  0  0  0  0
   13.8918   12.5490   39.9421 N   0  0  0  0  0  0  0  0  0  0  0  0
   14.4934   15.3989   41.3859 H   0  0  0  0  0  0  0  0  0  0  0  0
 27 28  2  0  0  0
 28 29  1  0  0  0
 28 31  1  0  0  0
 29 30  2  0  0  0
 30 34  1  0  0  0
 31 32  1  0  0  0
 32 33  2  0  0  0
 32 34  1  0  0  0
 34 20  1  0  0  0
 20 21  1  0  0  0
 20 24  1  0  0  0
 21 22  1  0  0  0
 22 23  1  0  0  0
 22 25  1  0  0  0
 24 25  1  0  0  0
 25 19  1  0  0  0
 19  1  1  0  0  0
  1  2  1  0  0  0
  2  3  2  0  0  0
  2  4  1  0  0  0
  2  6  1  0  0  0
  6  8  1  0  0  0
  8  9  2  0  0  0
  8 10  1  0  0  0
  8 12  1  0  0  0
 12 13  1  0  0  0
 13 14  2  0  0  0
 13 15  1  0  0  0
 13 16  1  0  0  0
 31 35  1  0  0  0
 23 26  1  0  0  0
  4  5  1  0  0  0
  6  7  1  0  0  0
 10 11  1  0  0  0
 15 17  1  0  0  0
 16 18  1  0  0  0
M  END
> <minimizedAffinity>
-10.20995

$$$$
2PY4_DUP_A_777


 35 36  0  0  0  0  0  0  0  0999 V2000
   14.2544    7.9973   40.2639 O   0  0  0  0  0  0  0  0  0  0  0  0
   14.7771    6.5337   40.7413 P   0  0  0  0  0  0  0  0  0  0  0  0
   15.4222    6.7214   42.1130 O   0  0  0  0  0  0  0  0  0  0  0  0
   13.5267    5.6685   40.7196 O   0  0  0  0  0  0  0  0  0  0  0  0
   12.9097    5.9750   41.4024 H   0  0  0  0  0  0  0  0  0  0  0  0
   15.8434    6.0684   39.6221 N   0  0  0  0  0  0  0  0  0  0  0  0
   15.4017    6.2472   38.7202 H   0  0  0  0  0  0  0  0  0  0  0  0
   17.3843    6.7098   39.5172 P   0  0  0  0  0  0  0  0  0  0  0  0
   17.5187    8.0507   40.1710 O   0  0  0  0  0  0  0  0  0  0  0  0
   18.3414    5.6129   39.9784 O   0  0  0  0  0  0  0  0  0  0  0  0
   18.1924    5.4282   40.9189 H   0  0  0  0  0  0  0  0  0  0  0  0
   17.6739    6.9682   37.9753 O   0  0  0  0  0  0  0  0  0  0  0  0
   17.6171    5.9265   36.7739 P   0  0  0  0  0  0  0  0  0  0  0  0
   16.1850    5.5274   36.5663 O   0  0  0  0  0  0  0  0  0  0  0  0
   18.2100    6.7091   35.6479 O   0  0  0  0  0  0  0  0  0  0  0  0
   18.4633    4.7459   37.2235 O   0  0  0  0  0  0  0  0  0  0  0  0
   17.6182    7.4419   35.4166 H   0  0  0  0  0  0  0  0  0  0  0  0
   18.0176    4.2879   37.9532 H   0  0  0  0  0  0  0  0  0  0  0  0
   14.4445    8.3894   38.8987 C   0  0  0  0  0  0  0  0  0  0  0  0
   12.9813   11.6194   39.5425 C   0  0  0  0  0  0  0  0  0  0  0  0
   13.0189   11.7485   38.0169 C   0  0  0  0  0  0  0  0  0  0  0  0
   13.8615   10.5265   37.6133 C   0  0  0  0  0  0  0  0  0  0  0  0
   13.5402   10.0518   36.2795 O   0  0  0  0  0  0  0  0  0  0  0  0
   13.3161   10.2707   39.8591 O   0  0  0  0  0  0  0  0  0  0  0  0
   13.4704    9.5331   38.6439 C   0  0  0  0  0  0  0  0  0  0  0  0
   12.5946    9.8410   36.2303 H   0  0  0  0  0  0  0  0  0  0  0  0
   16.8178   15.0330   41.4318 O   0  0  0  0  0  0  0  0  0  0  0  0
   15.9980   14.2004   41.0112 C   0  0  0  0  0  0  0  0  0  0  0  0
   16.3365   12.9047   40.6210 C   0  0  0  0  0  0  0  0  0  0  0  0
   15.2989   12.0450   40.1932 C   0  0  0  0  0  0  0  0  0  0  0  0
   14.6883   14.6324   40.9173 N   0  0  0  0  0  0  0  0  0  0  0  0
   13.6815   13.8078   40.4300 C   0  0  0  0  0  0  0  0  0  0  0  0
   12.5177   14.2508   40.3599 O   0  0  0  0  0  0  0  0  0  0  0  0
   14.0079   12.5251   40.0946 N   0  0  0  0  0  0  0  0  0  0  0  0
   14.4632   15.5473   41.2028 H   0  0  0  0  0  0  0  0  0  0  0  0
 27 28  2  0  0  0
 28 29  1  0  0  0
 28 31  1  0  0  0
 29 30  2  0  0  0
 30 34  1  0  0  0
 31 32  1  0  0  0
 32 33  2  0  0  0
 32 34  1  0  0  0
 34 20  1  0  0  0
 20 21  1  0  0  0
 20 24  1  0  0  0
 21 22  1  0  0  0
 22 23  1  0  0  0
 22 25  1  0  0  0
 24 25  1  0  0  0
 25 19  1  0  0  0
 19  1  1  0  0  0
  1  2  1  0  0  0
  2  3  2  0  0  0
  2  4  1  0  0  0
  2  6  1  0  0  0
  6  8  1  0  0  0
  8  9  2  0  0  0
  8 10  1  0  0  0
  8 12  1  0  0  0
 12 13  1  0  0  0
 13 14  2  0  0  0
 13 15  1  0  0  0
 13 16  1  0  0  0
 31 35  1  0  0  0
 23 26  1  0  0  0
  4  5  1  0  0  0
  6  7  1  0  0  0
 10 11  1  0  0  0
 15 17  1  0  0  0
 16 18  1  0  0  0
M  END
> <minimizedAffinity>
-9.72221

$$$$
