3VW2_BER_A_301
  RCSB PDB12061711173D
Coordinates from PDB:3VW2:A:301 Model:1 without hydrogens
 25 29  0  0  0  0            999 V2000
    2.6150   14.5040  -34.3610   C 0  0  0  0  0  0  0  0  0  0  0  0
    2.6370   13.1850  -34.9190   C 0  0  0  0  0  0  0  0  0  0  0  0
    1.5430   15.2620  -34.5030   N 0  3  0  0  0  0  0  0  0  0  0  0
    3.8780   14.8570  -33.6970   C 0  0  0  0  0  0  0  0  0  0  0  0
    1.4270   12.7340  -35.5940   C 0  0  0  0  0  0  0  0  0  0  0  0
    3.7670   12.4330  -34.7970   C 0  0  0  0  0  0  0  0  0  0  0  0
    1.4790   16.4810  -33.9780   C 0  0  0  0  0  0  0  0  0  0  0  0
    0.4450   14.8420  -35.1220   C 0  0  0  0  0  0  0  0  0  0  0  0
    3.7560   16.1430  -33.0080   C 0  0  0  0  0  0  0  0  0  0  0  0
    1.3700   11.4910  -36.1430   C 0  0  0  0  0  0  0  0  0  0  0  0
    0.3600   13.5930  -35.6760   C 0  0  0  0  0  0  0  0  0  0  0  0
    3.6670   11.2100  -35.3580   C 0  0  0  0  0  0  0  0  0  0  0  0
    2.6660   17.0920  -33.3260   C 0  0  0  0  0  0  0  0  0  0  0  0
    4.6860   16.4830  -32.1480   C 0  0  0  0  0  0  0  0  0  0  0  0
    2.4930   10.7410  -36.0260   C 0  0  0  0  0  0  0  0  0  0  0  0
    4.5590   10.2430  -35.3900   O 0  0  0  0  0  0  0  0  0  0  0  0
    2.2030   17.8420  -32.1200   C 0  0  0  0  0  0  0  0  0  0  0  0
    4.5680   17.7610  -31.4820   C 0  0  0  0  0  0  0  0  0  0  0  0
    2.7080    9.5020  -36.4670   O 0  0  0  0  0  0  0  0  0  0  0  0
    3.9930    9.1130  -36.0330   C 0  0  0  0  0  0  0  0  0  0  0  0
    3.4110   18.4090  -31.4880   C 0  0  0  0  0  0  0  0  0  0  0  0
    1.4470   18.9040  -32.6500   O 0  0  0  0  0  0  0  0  0  0  0  0
    3.3500   19.6890  -30.8630   O 0  0  0  0  0  0  0  0  0  0  0  0
    1.2570   19.9720  -31.7650   C 0  0  0  0  0  0  0  0  0  0  0  0
    4.4900   19.9960  -30.1200   C 0  0  0  0  0  0  0  0  0  0  0  0
  1  2  1  0  0  0  0
  1  3  2  0  0  0  0
  1  4  1  0  0  0  0
  2  5  2  0  0  0  0
  2  6  1  0  0  0  0
  3  7  1  0  0  0  0
  3  8  1  0  0  0  0
  4  9  2  0  0  0  0
  5 10  1  0  0  0  0
  5 11  1  0  0  0  0
  6 12  2  0  0  0  0
  7 13  2  0  0  0  0
  8 11  1  0  0  0  0
  9 13  1  0  0  0  0
  9 14  1  0  0  0  0
 10 15  2  0  0  0  0
 12 15  1  0  0  0  0
 12 16  1  0  0  0  0
 13 17  1  0  0  0  0
 14 18  2  0  0  0  0
 15 19  1  0  0  0  0
 16 20  1  0  0  0  0
 17 21  2  0  0  0  0
 17 22  1  0  0  0  0
 18 21  1  0  0  0  0
 19 20  1  0  0  0  0
 21 23  1  0  0  0  0
 22 24  1  0  0  0  0
 23 25  1  0  0  0  0
M  CHG  1   3   1
A    1
C1
A    2
C2
A    3
N1
A    4
C3
A    5
C4
A    6
C5
A    7
C6
A    8
C7
A    9
C8
A   10
C9
A   11
C10
A   12
C11
A   13
C12
A   14
C13
A   15
C14
A   16
O1
A   17
C15
A   18
C16
A   19
O2
A   20
C17
A   21
C18
A   22
O3
A   23
O4
A   24
C19
A   25
C20
M  END
>  <InstanceId>
3VW2_BER_A_301

>  <ChemCompId>
BER

>  <PdbId>
3VW2

>  <ChainId>
A

>  <ResidueNumber>
301

>  <InsertionCode>


>  <Model>
1

>  <AltIds>


>  <MissingHeavyAtoms>
0

>  <ObservedFormula>
C20 N O4

>  <Name>
BERBERINE

>  <SystematicName>


>  <Synonyms>


>  <Type>
NON-POLYMER

>  <Formula>
C20 H18 N O4

>  <MolecularWeight>
336.361

>  <ModifiedDate>
2011-06-04

>  <Parent>


>  <OneLetterCode>


>  <SubcomponentList>


>  <AmbiguousFlag>
N

>  <InChI>
InChI=1S/C20H18NO4/c1-22-17-4-3-12-7-16-14-9-19-18(24-11-25-19)8-13(14)5-6-21(16)10-15(12)20(17)23-2/h3-4,7-10H,5-6,11H2,1-2H3/q+1

>  <InChIKey>
YBHILYKTIRIUTE-UHFFFAOYSA-N

>  <SMILES>
COc1ccc2cc-3[n+](cc2c1OC)CCc4c3cc5c(c4)OCO5

$$$$
