4XTW_44M_A_301
  RCSB PDB12061716173D
Coordinates from PDB:4XTW:A:301 Model:1 without hydrogens
 40 44  0  0  0  0            999 V2000
   -4.7026    1.6354    5.9630   N 0  5  0  0  0  0  0  0  0  0  0  0
   -5.6627   -0.3238   11.3835   C 0  0  0  0  0  0  0  0  0  0  0  0
   -6.3582   -0.7616   13.6240   C 0  0  0  0  0  0  0  0  0  0  0  0
   -2.1174  -10.0367   13.8257   C 0  0  0  0  0  0  0  0  0  0  0  0
   -0.9500   -9.2026   13.5701   N 0  0  0  0  0  0  0  0  0  0  0  0
   -0.0187   -9.3285   14.5017   C 0  0  0  0  0  0  0  0  0  0  0  0
    1.0637   -8.7620   14.4967   O 0  0  0  0  0  0  0  0  0  0  0  0
   -0.4306  -10.1592   15.4429   N 0  0  0  0  0  0  0  0  0  0  0  0
   -1.7742  -10.6599   15.1948   C 0  0  0  0  0  0  0  0  0  0  0  0
   -2.6145  -10.0572   16.3167   C 0  0  0  0  0  0  0  0  0  0  0  0
   -3.3088   -8.6027   15.6261   S 0  0  0  0  0  0  0  0  0  0  0  0
   -3.3050   -9.0824   13.9373   C 0  0  0  0  0  0  0  0  0  0  0  0
   -3.2128   -7.8700   13.0160   C 0  0  0  0  0  0  0  0  0  0  0  0
   -3.5219   -8.2721   11.5783   C 0  0  0  0  0  0  0  0  0  0  0  0
   -3.6631   -7.0670   10.6528   C 0  0  0  0  0  0  0  0  0  0  0  0
   -4.0234   -7.5383    9.2483   C 0  0  0  0  0  0  0  0  0  0  0  0
   -4.4419   -6.3976    8.3456   C 0  0  0  0  0  0  0  0  0  0  0  0
   -5.5368   -5.8722    8.4719   O 0  0  0  0  0  0  0  0  0  0  0  0
   -3.5631   -6.0157    7.4215   N 0  0  0  0  0  0  0  0  0  0  0  0
   -3.8944   -4.8897    6.4520   S 0  0  0  0  0  0  0  0  0  0  0  0
   -5.0315   -5.2607    5.6570   O 0  0  0  0  0  0  0  0  0  0  0  0
   -2.7710   -4.6724    5.5864   O 0  0  0  0  0  0  0  0  0  0  0  0
   -4.2487   -3.5329    7.2451   N 0  0  0  0  0  0  0  0  0  0  0  0
   -3.0361   -2.7820    7.6107   C 0  0  0  0  0  0  0  0  0  0  0  0
   -3.4146   -1.3075    7.6965   C 0  0  0  0  0  0  0  0  0  0  0  0
   -4.5304   -1.1180    8.5707   O 0  0  0  0  0  0  0  0  0  0  0  0
   -2.3119   -0.4108    8.2319   C 0  0  0  0  0  0  0  0  0  0  0  0
   -1.5095    0.0979    7.1631   O 0  0  0  0  0  0  0  0  0  0  0  0
   -3.0663    0.7147    8.9091   C 0  0  0  0  0  0  0  0  0  0  0  0
   -4.4277    0.1343    9.2556   C 0  0  0  0  0  0  0  0  0  0  0  0
   -4.5271   -0.1092   10.7158   N 0  0  0  0  0  0  0  0  0  0  0  0
   -3.5069   -0.1717   11.5847   C 0  0  0  0  0  0  0  0  0  0  0  0
   -3.9974   -0.4211   12.8207   N 0  0  0  0  0  0  0  0  0  0  0  0
   -5.3386   -0.5197   12.7139   C 0  0  0  0  0  0  0  0  0  0  0  0
   -6.9580   -0.3726   10.9937   N 0  0  0  0  0  0  0  0  0  0  0  0
   -7.9212   -0.6085   11.8924   C 0  0  0  0  0  0  0  0  0  0  0  0
   -7.6346   -0.7994   13.1875   N 0  0  0  0  0  0  0  0  0  0  0  0
   -6.0824   -0.9586   14.9359   N 0  0  0  0  0  0  0  0  0  0  0  0
   -4.0201    1.7321    6.8945   N 0  3  0  0  0  0  0  0  0  0  0  0
   -3.2225    1.8461    8.0105   N 0  0  0  0  0  0  0  0  0  0  0  0
 22 20  2  0  0  0  0
 21 20  2  0  0  0  0
  1 39  2  0  0  0  0
 20 23  1  0  0  0  0
 20 19  1  0  0  0  0
 39 40  2  0  0  0  0
 28 27  1  0  0  0  0
 23 24  1  0  0  0  0
 19 17  1  0  0  0  0
 24 25  1  0  0  0  0
 25 27  1  0  0  0  0
 25 26  1  0  0  0  0
 40 29  1  0  0  0  0
 27 29  1  0  0  0  0
 17 18  2  0  0  0  0
 17 16  1  0  0  0  0
 26 30  1  0  0  0  0
 29 30  1  0  0  0  0
 16 15  1  0  0  0  0
 30 31  1  0  0  0  0
 15 14  1  0  0  0  0
 31  2  1  0  0  0  0
 31 32  1  0  0  0  0
 35  2  2  0  0  0  0
 35 36  1  0  0  0  0
  2 34  1  0  0  0  0
 14 13  1  0  0  0  0
 32 33  2  0  0  0  0
 36 37  2  0  0  0  0
 34 33  1  0  0  0  0
 34  3  2  0  0  0  0
 13 12  1  0  0  0  0
 37  3  1  0  0  0  0
  5  4  1  0  0  0  0
  5  6  1  0  0  0  0
  3 38  1  0  0  0  0
  4 12  1  0  0  0  0
  4  9  1  0  0  0  0
 12 11  1  0  0  0  0
  7  6  2  0  0  0  0
  6  8  1  0  0  0  0
  9  8  1  0  0  0  0
  9 10  1  0  0  0  0
 11 10  1  0  0  0  0
M  CHG  2   1  -1  39   1
A    1
N2
A    2
C4
A    3
C6
A    4
CBI
A    5
NAU
A    6
CBA
A    7
OAC
A    8
NAT
A    9
CBF
A   10
CAO
A   11
SAY
A   12
CBH
A   13
CAK
A   14
CAI
A   15
CAH
A   16
CAJ
A   17
CAZ
A   18
OAB
A   19
NAV
A   20
SBK
A   21
OAD
A   22
OAE
A   23
NAW
A   24
CAN
A   25
CBE
A   26
OAX
A   27
CAL
A   28
OAL
A   29
CAM
A   30
CBG
A   31
N9
A   32
C8
A   33
N7
A   34
C5
A   35
N3
A   36
C2
A   37
N1
A   38
N6
A   39
N5
A   40
N8Q
M  END
>  <InstanceId>
4XTW_44M_A_301

>  <ChemCompId>
44M

>  <PdbId>
4XTW

>  <ChainId>
A

>  <ResidueNumber>
301

>  <InsertionCode>


>  <Model>
1

>  <AltIds>


>  <MissingHeavyAtoms>
0

>  <ObservedFormula>
C20 N12 O6 S2

>  <Name>
2'-azido-2',5'-dideoxy-5'-[({5-[(3aS,4S,6aR)-2-oxohexahydro-1H-thieno[3,4-d]imidazol-4-yl]pentanoyl}sulfamoyl)amino]adenosine

>  <SystematicName>
5-[(3aS,4S,6aR)-2-oxidanylidene-1,3,3a,4,6,6a-hexahydrothieno[3,4-d]imidazol-4-yl]-N-[[(2R,3S,4R,5R)-5-(6-aminopurin-9-yl)-4-azido-3-oxidanyl-oxolan-2-yl]methylsulfamoyl]pentanamide

>  <Synonyms>


>  <Type>
NON-POLYMER

>  <Formula>
C20 H28 N12 O6 S2

>  <MolecularWeight>
596.643

>  <ModifiedDate>
2015-08-28

>  <Parent>


>  <OneLetterCode>


>  <SubcomponentList>


>  <AmbiguousFlag>
N

>  <InChI>
InChI=1S/C20H28N12O6S2/c21-17-15-18(24-7-23-17)32(8-25-15)19-14(29-31-22)16(34)10(38-19)5-26-40(36,37)30-12(33)4-2-1-3-11-13-9(6-39-11)27-20(35)28-13/h7-11,13-14,16,19,26,34H,1-6H2,(H,30,33)(H2,21,23,24)(H2,27,28,35)/t9-,10+,11-,13-,14+,16+,19+/m0/s1

>  <InChIKey>
ADVDUOWDPHQFNE-FALSPVJTSA-N

>  <SMILES>
c1nc(c2c(n1)n(cn2)[C@H]3[C@@H]([C@@H]([C@H](O3)CNS(=O)(=O)NC(=O)CCCC[C@H]4[C@@H]5[C@H](CS4)NC(=O)N5)O)N=[N+]=[N-])N

$$$$
