4XTW_44M_A_301


 47 51  0  0  0  0  0  0  0  0999 V2000
   -4.2730   -3.5745    6.9203 N   0  0  0  0  0  0  0  0  0  0  0  0
   -4.8420   -3.7506    7.7483 H   0  0  0  0  0  0  0  0  0  0  0  0
   -3.9596   -4.9781    6.1943 S   0  0  0  0  0  0  0  0  0  0  0  0
   -5.1492   -5.4151    5.5187 O   0  0  0  0  0  0  0  0  0  0  0  0
   -2.9113   -4.8077    5.2297 O   0  0  0  0  0  0  0  0  0  0  0  0
   -4.2989   -6.3078    8.2621 C   0  0  0  0  0  0  0  0  0  0  0  0
   -5.3572   -5.7381    8.4773 O   0  0  0  0  0  0  0  0  0  0  0  0
   -3.5347   -6.0317    7.2077 N   0  0  0  0  0  0  0  0  0  0  0  0
   -2.6856   -6.5139    7.0820 H   0  0  0  0  0  0  0  0  0  0  0  0
   -3.7962   -7.3844    9.2000 C   0  0  0  0  0  0  0  0  0  0  0  0
   -4.2406   -7.1554   10.6404 C   0  0  0  0  0  0  0  0  0  0  0  0
   -3.8739   -8.3689   11.4899 C   0  0  0  0  0  0  0  0  0  0  0  0
   -3.2807   -7.9784   12.8389 C   0  0  0  0  0  0  0  0  0  0  0  0
   -2.3034  -10.1546   13.7658 C   0  0  0  0  0  0  0  0  0  0  0  0
   -1.0927   -9.4110   13.4417 N   0  0  0  0  0  0  0  0  0  0  0  0
   -0.1537   -9.5365   14.3657 C   0  0  0  0  0  0  0  0  0  0  0  0
    0.9607   -9.0389   14.3096 O   0  0  0  0  0  0  0  0  0  0  0  0
   -0.5976  -10.2812   15.3626 N   0  0  0  0  0  0  0  0  0  0  0  0
   -1.9733  -10.7127   15.1658 C   0  0  0  0  0  0  0  0  0  0  0  0
   -2.7549   -9.9920   16.2602 C   0  0  0  0  0  0  0  0  0  0  0  0
   -3.3727   -8.5427   15.4907 S   0  0  0  0  0  0  0  0  0  0  0  0
   -3.4290   -9.1242   13.8351 C   0  0  0  0  0  0  0  0  0  0  0  0
   -0.9850   -8.8734   12.6240 H   0  0  0  0  0  0  0  0  0  0  0  0
   -0.0577  -10.5179   16.1511 H   0  0  0  0  0  0  0  0  0  0  0  0
   -3.0384   -2.8835    7.3283 C   0  0  0  0  0  0  0  0  0  0  0  0
   -3.3492   -1.3930    7.4099 C   0  0  0  0  0  0  0  0  0  0  0  0
   -4.4328   -1.1471    8.3101 O   0  0  0  0  0  0  0  0  0  0  0  0
   -2.1946   -0.5418    7.9091 C   0  0  0  0  0  0  0  0  0  0  0  0
   -1.3981   -0.0779    6.8158 O   0  0  0  0  0  0  0  0  0  0  0  0
   -2.8811    0.6215    8.5946 C   0  0  0  0  0  0  0  0  0  0  0  0
   -4.2575    0.1049    8.9806 C   0  0  0  0  0  0  0  0  0  0  0  0
   -1.9563    0.4184    6.1968 H   0  0  0  0  0  0  0  0  0  0  0  0
   -5.4578   -0.2414   11.1491 C   0  0  0  0  0  0  0  0  0  0  0  0
   -6.1154   -0.6102   13.4133 C   0  0  0  0  0  0  0  0  0  0  0  0
   -4.3302   -0.1221   10.4451 N   0  0  0  0  0  0  0  0  0  0  0  0
   -3.2915   -0.2615   11.2826 C   0  0  0  0  0  0  0  0  0  0  0  0
   -3.7613   -0.4642   12.5350 N   0  0  0  0  0  0  0  0  0  0  0  0
   -5.1088   -0.4556   12.4704 C   0  0  0  0  0  0  0  0  0  0  0  0
   -6.7644   -0.1884   10.7998 N   0  0  0  0  0  0  0  0  0  0  0  0
   -7.7147   -0.3415   11.7296 C   0  0  0  0  0  0  0  0  0  0  0  0
   -7.4038   -0.5479   13.0167 N   0  0  0  0  0  0  0  0  0  0  0  0
   -5.8153   -0.8216   14.7176 N   0  0  0  0  0  0  0  0  0  0  0  0
   -4.8748   -0.8668   15.0052 H   0  0  0  0  0  0  0  0  0  0  0  0
   -6.5376   -0.9301   15.3777 H   0  0  0  0  0  0  0  0  0  0  0  0
   -5.2338    2.2193    6.5657 N   0  0  0  0  0  0  0  0  0  0  0  0
   -4.2144    2.0035    7.0729 N   0  0  0  0  0  0  0  0  0  0  0  0
   -3.0101    1.7514    7.6898 N   0  0  0  0  0  0  0  0  0  0  0  0
  5  3  2  0  0  0
  4  3  2  0  0  0
 45 46  2  0  0  0
  3  1  1  0  0  0
  3  8  1  0  0  0
 46 47  2  0  0  0
 29 28  1  0  0  0
  1 25  1  0  0  0
  8  6  1  0  0  0
 25 26  1  0  0  0
 26 28  1  0  0  0
 26 27  1  0  0  0
 47 30  1  0  0  0
 28 30  1  0  0  0
  6  7  2  0  0  0
  6 10  1  0  0  0
 27 31  1  0  0  0
 30 31  1  0  0  0
 10 11  1  0  0  0
 31 35  1  0  0  0
 11 12  1  0  0  0
 35 33  1  0  0  0
 35 36  1  0  0  0
 39 33  2  0  0  0
 39 40  1  0  0  0
 33 38  1  0  0  0
 12 13  1  0  0  0
 36 37  2  0  0  0
 40 41  2  0  0  0
 38 37  1  0  0  0
 38 34  2  0  0  0
 13 22  1  0  0  0
 41 34  1  0  0  0
 15 14  1  0  0  0
 15 16  1  0  0  0
 34 42  1  0  0  0
 14 22  1  0  0  0
 14 19  1  0  0  0
 22 21  1  0  0  0
 17 16  2  0  0  0
 16 18  1  0  0  0
 19 18  1  0  0  0
 19 20  1  0  0  0
 21 20  1  0  0  0
 15 23  1  0  0  0
 18 24  1  0  0  0
  8  9  1  0  0  0
  1  2  1  0  0  0
 29 32  1  0  0  0
 42 43  1  0  0  0
 42 44  1  0  0  0
M  CHG 1  45  -1
M  CHG 1  46   1
M  END
> <minimizedAffinity>
-13.51381

$$$$
4XTW_44M_A_301


 47 51  0  0  0  0  0  0  0  0999 V2000
   -4.3983   -3.6808    7.0245 N   0  0  0  0  0  0  0  0  0  0  0  0
   -3.6456   -3.5003    7.6887 H   0  0  0  0  0  0  0  0  0  0  0  0
   -4.0767   -5.0447    6.2296 S   0  0  0  0  0  0  0  0  0  0  0  0
   -5.2599   -5.4472    5.5219 O   0  0  0  0  0  0  0  0  0  0  0  0
   -3.0203   -4.8237    5.2843 O   0  0  0  0  0  0  0  0  0  0  0  0
   -4.3592   -6.3870    8.2979 C   0  0  0  0  0  0  0  0  0  0  0  0
   -5.3494   -5.7415    8.6040 O   0  0  0  0  0  0  0  0  0  0  0  0
   -3.6593   -6.1490    7.1909 N   0  0  0  0  0  0  0  0  0  0  0  0
   -2.8632   -6.6928    6.9916 H   0  0  0  0  0  0  0  0  0  0  0  0
   -3.8721   -7.5185    9.1774 C   0  0  0  0  0  0  0  0  0  0  0  0
   -3.5438   -7.0559   10.5926 C   0  0  0  0  0  0  0  0  0  0  0  0
   -3.8258   -8.1846   11.5801 C   0  0  0  0  0  0  0  0  0  0  0  0
   -3.3058   -7.8779   12.9800 C   0  0  0  0  0  0  0  0  0  0  0  0
   -2.2720  -10.0951   13.7319 C   0  0  0  0  0  0  0  0  0  0  0  0
   -1.0813   -9.2907   13.4888 N   0  0  0  0  0  0  0  0  0  0  0  0
   -0.1492   -9.4665   14.4115 C   0  0  0  0  0  0  0  0  0  0  0  0
    0.9498   -8.9329   14.4132 O   0  0  0  0  0  0  0  0  0  0  0  0
   -0.5809  -10.3065   15.3355 N   0  0  0  0  0  0  0  0  0  0  0  0
   -1.9404  -10.7606   15.0839 C   0  0  0  0  0  0  0  0  0  0  0  0
   -2.7560  -10.1596   16.2248 C   0  0  0  0  0  0  0  0  0  0  0  0
   -3.4098   -8.6689   15.5728 S   0  0  0  0  0  0  0  0  0  0  0  0
   -3.4296   -9.1085   13.8732 C   0  0  0  0  0  0  0  0  0  0  0  0
   -0.9813   -8.6823   12.7213 H   0  0  0  0  0  0  0  0  0  0  0  0
   -0.0427  -10.5933   16.1083 H   0  0  0  0  0  0  0  0  0  0  0  0
   -4.5145   -2.5316    6.1115 C   0  0  0  0  0  0  0  0  0  0  0  0
   -3.8840   -1.3275    6.8025 C   0  0  0  0  0  0  0  0  0  0  0  0
   -4.8877   -0.4060    7.2368 O   0  0  0  0  0  0  0  0  0  0  0  0
   -3.0747   -1.6723    8.0406 C   0  0  0  0  0  0  0  0  0  0  0  0
   -1.7043   -1.9010    7.7020 O   0  0  0  0  0  0  0  0  0  0  0  0
   -3.2065   -0.4367    8.9069 C   0  0  0  0  0  0  0  0  0  0  0  0
   -4.4893    0.2388    8.4506 C   0  0  0  0  0  0  0  0  0  0  0  0
   -1.3459   -1.1169    7.2573 H   0  0  0  0  0  0  0  0  0  0  0  0
   -5.3555   -0.0934   10.7749 C   0  0  0  0  0  0  0  0  0  0  0  0
   -6.6519   -0.3964   12.7555 C   0  0  0  0  0  0  0  0  0  0  0  0
   -5.5573    0.0537    9.4638 N   0  0  0  0  0  0  0  0  0  0  0  0
   -6.8785    0.0241    9.2329 C   0  0  0  0  0  0  0  0  0  0  0  0
   -7.5258   -0.1513   10.4080 N   0  0  0  0  0  0  0  0  0  0  0  0
   -6.5926   -0.2257   11.3794 C   0  0  0  0  0  0  0  0  0  0  0  0
   -4.2322   -0.1304   11.5292 N   0  0  0  0  0  0  0  0  0  0  0  0
   -4.3185   -0.2954   12.8545 C   0  0  0  0  0  0  0  0  0  0  0  0
   -5.5042   -0.4283   13.4647 N   0  0  0  0  0  0  0  0  0  0  0  0
   -7.8441   -0.5297   13.3855 N   0  0  0  0  0  0  0  0  0  0  0  0
   -8.6804   -0.5062   12.8666 H   0  0  0  0  0  0  0  0  0  0  0  0
   -7.8740   -0.6500   14.3621 H   0  0  0  0  0  0  0  0  0  0  0  0
   -2.4684    2.8206    7.8823 N   0  0  0  0  0  0  0  0  0  0  0  0
   -2.2863    1.7381    8.2537 N   0  0  0  0  0  0  0  0  0  0  0  0
   -2.0770    0.4561    8.7089 N   0  0  0  0  0  0  0  0  0  0  0  0
  5  3  2  0  0  0
  4  3  2  0  0  0
 45 46  2  0  0  0
  3  1  1  0  0  0
  3  8  1  0  0  0
 46 47  2  0  0  0
 29 28  1  0  0  0
  1 25  1  0  0  0
  8  6  1  0  0  0
 25 26  1  0  0  0
 26 28  1  0  0  0
 26 27  1  0  0  0
 47 30  1  0  0  0
 28 30  1  0  0  0
  6  7  2  0  0  0
  6 10  1  0  0  0
 27 31  1  0  0  0
 30 31  1  0  0  0
 10 11  1  0  0  0
 31 35  1  0  0  0
 11 12  1  0  0  0
 35 33  1  0  0  0
 35 36  1  0  0  0
 39 33  2  0  0  0
 39 40  1  0  0  0
 33 38  1  0  0  0
 12 13  1  0  0  0
 36 37  2  0  0  0
 40 41  2  0  0  0
 38 37  1  0  0  0
 38 34  2  0  0  0
 13 22  1  0  0  0
 41 34  1  0  0  0
 15 14  1  0  0  0
 15 16  1  0  0  0
 34 42  1  0  0  0
 14 22  1  0  0  0
 14 19  1  0  0  0
 22 21  1  0  0  0
 17 16  2  0  0  0
 16 18  1  0  0  0
 19 18  1  0  0  0
 19 20  1  0  0  0
 21 20  1  0  0  0
 15 23  1  0  0  0
 18 24  1  0  0  0
  8  9  1  0  0  0
  1  2  1  0  0  0
 29 32  1  0  0  0
 42 43  1  0  0  0
 42 44  1  0  0  0
M  CHG 1  45  -1
M  CHG 1  46   1
M  END
> <minimizedAffinity>
-12.94117

$$$$
4XTW_44M_A_301


 47 51  0  0  0  0  0  0  0  0999 V2000
   -4.4654   -2.9223    7.3352 N   0  0  0  0  0  0  0  0  0  0  0  0
   -4.6934   -2.4426    8.2059 H   0  0  0  0  0  0  0  0  0  0  0  0
   -3.1812   -3.8640    7.5791 S   0  0  0  0  0  0  0  0  0  0  0  0
   -2.7976   -4.4428    6.3219 O   0  0  0  0  0  0  0  0  0  0  0  0
   -2.0895   -3.0827    8.0853 O   0  0  0  0  0  0  0  0  0  0  0  0
   -4.4079   -5.9029    8.2843 C   0  0  0  0  0  0  0  0  0  0  0  0
   -5.0294   -5.9152    7.2334 O   0  0  0  0  0  0  0  0  0  0  0  0
   -3.5004   -4.9725    8.5724 N   0  0  0  0  0  0  0  0  0  0  0  0
   -3.0307   -5.0017    9.4372 H   0  0  0  0  0  0  0  0  0  0  0  0
   -4.6384   -6.9718    9.3310 C   0  0  0  0  0  0  0  0  0  0  0  0
   -3.5465   -6.9896   10.3950 C   0  0  0  0  0  0  0  0  0  0  0  0
   -3.8420   -8.0849   11.4156 C   0  0  0  0  0  0  0  0  0  0  0  0
   -3.2312   -7.7898   12.7809 C   0  0  0  0  0  0  0  0  0  0  0  0
   -2.3094  -10.0188   13.6363 C   0  0  0  0  0  0  0  0  0  0  0  0
   -1.0804   -9.2762   13.3874 N   0  0  0  0  0  0  0  0  0  0  0  0
   -0.1742   -9.4564   14.3347 C   0  0  0  0  0  0  0  0  0  0  0  0
    0.9468   -8.9708   14.3386 O   0  0  0  0  0  0  0  0  0  0  0  0
   -0.6594  -10.2409   15.2806 N   0  0  0  0  0  0  0  0  0  0  0  0
   -2.0324  -10.6455   15.0188 C   0  0  0  0  0  0  0  0  0  0  0  0
   -2.8421   -9.9666   16.1195 C   0  0  0  0  0  0  0  0  0  0  0  0
   -3.4178   -8.4754   15.3989 S   0  0  0  0  0  0  0  0  0  0  0  0
   -3.4252   -8.9786   13.7170 C   0  0  0  0  0  0  0  0  0  0  0  0
   -0.9396   -8.7027   12.5997 H   0  0  0  0  0  0  0  0  0  0  0  0
   -0.1486  -10.5208   16.0744 H   0  0  0  0  0  0  0  0  0  0  0  0
   -4.2145   -1.9175    6.2886 C   0  0  0  0  0  0  0  0  0  0  0  0
   -5.3576   -0.9095    6.3329 C   0  0  0  0  0  0  0  0  0  0  0  0
   -6.2859   -1.2373    7.3702 O   0  0  0  0  0  0  0  0  0  0  0  0
   -4.9192    0.5189    6.6055 C   0  0  0  0  0  0  0  0  0  0  0  0
   -4.6652    1.2127    5.3811 O   0  0  0  0  0  0  0  0  0  0  0  0
   -6.1089    1.1256    7.3204 C   0  0  0  0  0  0  0  0  0  0  0  0
   -6.8498   -0.0500    7.9363 C   0  0  0  0  0  0  0  0  0  0  0  0
   -5.4604    1.1910    4.8262 H   0  0  0  0  0  0  0  0  0  0  0  0
   -5.4651   -0.2236   10.0137 C   0  0  0  0  0  0  0  0  0  0  0  0
   -4.6061   -0.3187   12.2382 C   0  0  0  0  0  0  0  0  0  0  0  0
   -6.6439   -0.0758    9.4054 N   0  0  0  0  0  0  0  0  0  0  0  0
   -7.5909    0.0628   10.3455 C   0  0  0  0  0  0  0  0  0  0  0  0
   -7.0113   -0.0051   11.5661 N   0  0  0  0  0  0  0  0  0  0  0  0
   -5.6872   -0.1825   11.3784 C   0  0  0  0  0  0  0  0  0  0  0  0
   -4.2074   -0.3928    9.5428 N   0  0  0  0  0  0  0  0  0  0  0  0
   -3.1831   -0.5207   10.3946 C   0  0  0  0  0  0  0  0  0  0  0  0
   -3.3711   -0.4867   11.7210 N   0  0  0  0  0  0  0  0  0  0  0  0
   -4.7816   -0.2839   13.5813 N   0  0  0  0  0  0  0  0  0  0  0  0
   -5.6833   -0.1612   13.9569 H   0  0  0  0  0  0  0  0  0  0  0  0
   -4.0074   -0.3812   14.1816 H   0  0  0  0  0  0  0  0  0  0  0  0
   -6.2322    4.0323    5.3863 N   0  0  0  0  0  0  0  0  0  0  0  0
   -6.5766    3.0258    5.8460 N   0  0  0  0  0  0  0  0  0  0  0  0
   -6.9741    1.8227    6.3837 N   0  0  0  0  0  0  0  0  0  0  0  0
  5  3  2  0  0  0
  4  3  2  0  0  0
 45 46  2  0  0  0
  3  1  1  0  0  0
  3  8  1  0  0  0
 46 47  2  0  0  0
 29 28  1  0  0  0
  1 25  1  0  0  0
  8  6  1  0  0  0
 25 26  1  0  0  0
 26 28  1  0  0  0
 26 27  1  0  0  0
 47 30  1  0  0  0
 28 30  1  0  0  0
  6  7  2  0  0  0
  6 10  1  0  0  0
 27 31  1  0  0  0
 30 31  1  0  0  0
 10 11  1  0  0  0
 31 35  1  0  0  0
 11 12  1  0  0  0
 35 33  1  0  0  0
 35 36  1  0  0  0
 39 33  2  0  0  0
 39 40  1  0  0  0
 33 38  1  0  0  0
 12 13  1  0  0  0
 36 37  2  0  0  0
 40 41  2  0  0  0
 38 37  1  0  0  0
 38 34  2  0  0  0
 13 22  1  0  0  0
 41 34  1  0  0  0
 15 14  1  0  0  0
 15 16  1  0  0  0
 34 42  1  0  0  0
 14 22  1  0  0  0
 14 19  1  0  0  0
 22 21  1  0  0  0
 17 16  2  0  0  0
 16 18  1  0  0  0
 19 18  1  0  0  0
 19 20  1  0  0  0
 21 20  1  0  0  0
 15 23  1  0  0  0
 18 24  1  0  0  0
  8  9  1  0  0  0
  1  2  1  0  0  0
 29 32  1  0  0  0
 42 43  1  0  0  0
 42 44  1  0  0  0
M  CHG 1  45  -1
M  CHG 1  46   1
M  END
> <minimizedAffinity>
-12.15129

$$$$
4XTW_44M_A_301


 47 51  0  0  0  0  0  0  0  0999 V2000
   -4.3737   -3.7193    6.9455 N   0  0  0  0  0  0  0  0  0  0  0  0
   -3.6732   -3.5983    7.6770 H   0  0  0  0  0  0  0  0  0  0  0  0
   -4.0880   -5.1041    6.1734 S   0  0  0  0  0  0  0  0  0  0  0  0
   -5.2951   -5.5113    5.5103 O   0  0  0  0  0  0  0  0  0  0  0  0
   -3.0581   -4.9149    5.1926 O   0  0  0  0  0  0  0  0  0  0  0  0
   -4.3395   -6.4169    8.2644 C   0  0  0  0  0  0  0  0  0  0  0  0
   -5.3322   -5.7751    8.5701 O   0  0  0  0  0  0  0  0  0  0  0  0
   -3.6521   -6.1900    7.1472 N   0  0  0  0  0  0  0  0  0  0  0  0
   -2.8533   -6.7301    6.9487 H   0  0  0  0  0  0  0  0  0  0  0  0
   -3.8345   -7.5308    9.1563 C   0  0  0  0  0  0  0  0  0  0  0  0
   -3.5477   -7.0549   10.5761 C   0  0  0  0  0  0  0  0  0  0  0  0
   -3.8247   -8.1858   11.5625 C   0  0  0  0  0  0  0  0  0  0  0  0
   -3.3098   -7.8765   12.9637 C   0  0  0  0  0  0  0  0  0  0  0  0
   -2.2774  -10.0948   13.7143 C   0  0  0  0  0  0  0  0  0  0  0  0
   -1.0862   -9.2921   13.4682 N   0  0  0  0  0  0  0  0  0  0  0  0
   -0.1523   -9.4688   14.3889 C   0  0  0  0  0  0  0  0  0  0  0  0
    0.9474   -8.9367   14.3879 O   0  0  0  0  0  0  0  0  0  0  0  0
   -0.5831  -10.3078   15.3142 N   0  0  0  0  0  0  0  0  0  0  0  0
   -1.9437  -10.7601   15.0658 C   0  0  0  0  0  0  0  0  0  0  0  0
   -2.7560  -10.1575   16.2082 C   0  0  0  0  0  0  0  0  0  0  0  0
   -3.4091   -8.6662   15.5570 S   0  0  0  0  0  0  0  0  0  0  0  0
   -3.4333   -9.1065   13.8576 C   0  0  0  0  0  0  0  0  0  0  0  0
   -0.9870   -8.6842   12.7002 H   0  0  0  0  0  0  0  0  0  0  0  0
   -0.0435  -10.5951   16.0859 H   0  0  0  0  0  0  0  0  0  0  0  0
   -4.3160   -2.5643    6.0342 C   0  0  0  0  0  0  0  0  0  0  0  0
   -5.7482   -2.2016    5.6574 C   0  0  0  0  0  0  0  0  0  0  0  0
   -6.2328   -1.1294    6.4702 O   0  0  0  0  0  0  0  0  0  0  0  0
   -5.9172   -1.7410    4.2201 C   0  0  0  0  0  0  0  0  0  0  0  0
   -6.2205   -2.8474    3.3664 O   0  0  0  0  0  0  0  0  0  0  0  0
   -7.0924   -0.7876    4.2882 C   0  0  0  0  0  0  0  0  0  0  0  0
   -7.1299   -0.2985    5.7268 C   0  0  0  0  0  0  0  0  0  0  0  0
   -7.0201   -3.2934    3.6868 H   0  0  0  0  0  0  0  0  0  0  0  0
   -5.4475    1.4878    6.2183 C   0  0  0  0  0  0  0  0  0  0  0  0
   -4.2221    3.5140    6.5155 C   0  0  0  0  0  0  0  0  0  0  0  0
   -6.6580    1.1060    5.8056 N   0  0  0  0  0  0  0  0  0  0  0  0
   -7.3530    2.2008    5.4621 C   0  0  0  0  0  0  0  0  0  0  0  0
   -6.5805    3.2929    5.6649 N   0  0  0  0  0  0  0  0  0  0  0  0
   -5.3898    2.8674    6.1350 C   0  0  0  0  0  0  0  0  0  0  0  0
   -4.3725    0.7965    6.6639 N   0  0  0  0  0  0  0  0  0  0  0  0
   -3.2587    1.4455    7.0235 C   0  0  0  0  0  0  0  0  0  0  0  0
   -3.1774    2.7814    6.9547 N   0  0  0  0  0  0  0  0  0  0  0  0
   -4.1254    4.8639    6.4488 N   0  0  0  0  0  0  0  0  0  0  0  0
   -4.8885    5.3968    6.1281 H   0  0  0  0  0  0  0  0  0  0  0  0
   -3.2920    5.3117    6.7210 H   0  0  0  0  0  0  0  0  0  0  0  0
  -10.4975   -0.7511    5.0682 N   0  0  0  0  0  0  0  0  0  0  0  0
   -9.5081   -1.0870    4.5670 N   0  0  0  0  0  0  0  0  0  0  0  0
   -8.3325   -1.4720    3.9634 N   0  0  0  0  0  0  0  0  0  0  0  0
  5  3  2  0  0  0
  4  3  2  0  0  0
 45 46  2  0  0  0
  3  1  1  0  0  0
  3  8  1  0  0  0
 46 47  2  0  0  0
 29 28  1  0  0  0
  1 25  1  0  0  0
  8  6  1  0  0  0
 25 26  1  0  0  0
 26 28  1  0  0  0
 26 27  1  0  0  0
 47 30  1  0  0  0
 28 30  1  0  0  0
  6  7  2  0  0  0
  6 10  1  0  0  0
 27 31  1  0  0  0
 30 31  1  0  0  0
 10 11  1  0  0  0
 31 35  1  0  0  0
 11 12  1  0  0  0
 35 33  1  0  0  0
 35 36  1  0  0  0
 39 33  2  0  0  0
 39 40  1  0  0  0
 33 38  1  0  0  0
 12 13  1  0  0  0
 36 37  2  0  0  0
 40 41  2  0  0  0
 38 37  1  0  0  0
 38 34  2  0  0  0
 13 22  1  0  0  0
 41 34  1  0  0  0
 15 14  1  0  0  0
 15 16  1  0  0  0
 34 42  1  0  0  0
 14 22  1  0  0  0
 14 19  1  0  0  0
 22 21  1  0  0  0
 17 16  2  0  0  0
 16 18  1  0  0  0
 19 18  1  0  0  0
 19 20  1  0  0  0
 21 20  1  0  0  0
 15 23  1  0  0  0
 18 24  1  0  0  0
  8  9  1  0  0  0
  1  2  1  0  0  0
 29 32  1  0  0  0
 42 43  1  0  0  0
 42 44  1  0  0  0
M  CHG 1  45  -1
M  CHG 1  46   1
M  END
> <minimizedAffinity>
-11.37896

$$$$
4XTW_44M_A_301


 47 51  0  0  0  0  0  0  0  0999 V2000
   -2.6359   -2.3902    7.9286 N   0  0  0  0  0  0  0  0  0  0  0  0
   -1.7454   -2.8029    7.6511 H   0  0  0  0  0  0  0  0  0  0  0  0
   -3.7919   -3.5042    7.7934 S   0  0  0  0  0  0  0  0  0  0  0  0
   -5.0021   -2.9728    8.3552 O   0  0  0  0  0  0  0  0  0  0  0  0
   -4.0159   -3.8127    6.4102 O   0  0  0  0  0  0  0  0  0  0  0  0
   -4.1699   -5.8676    8.4498 C   0  0  0  0  0  0  0  0  0  0  0  0
   -5.2044   -5.9016    7.8022 O   0  0  0  0  0  0  0  0  0  0  0  0
   -3.4070   -4.7796    8.5301 N   0  0  0  0  0  0  0  0  0  0  0  0
   -2.5850   -4.8001    9.0716 H   0  0  0  0  0  0  0  0  0  0  0  0
   -3.6897   -7.0890    9.2039 C   0  0  0  0  0  0  0  0  0  0  0  0
   -4.3671   -7.2383   10.5617 C   0  0  0  0  0  0  0  0  0  0  0  0
   -3.7268   -8.3902   11.3310 C   0  0  0  0  0  0  0  0  0  0  0  0
   -3.2401   -7.9691   12.7130 C   0  0  0  0  0  0  0  0  0  0  0  0
   -2.2779  -10.1337   13.6817 C   0  0  0  0  0  0  0  0  0  0  0  0
   -1.0628   -9.3810   13.3976 N   0  0  0  0  0  0  0  0  0  0  0  0
   -0.1558   -9.4954   14.3544 C   0  0  0  0  0  0  0  0  0  0  0  0
    0.9556   -8.9885   14.3357 O   0  0  0  0  0  0  0  0  0  0  0  0
   -0.6283  -10.2404   15.3380 N   0  0  0  0  0  0  0  0  0  0  0  0
   -1.9926  -10.6842   15.0946 C   0  0  0  0  0  0  0  0  0  0  0  0
   -2.8181   -9.9664   16.1582 C   0  0  0  0  0  0  0  0  0  0  0  0
   -3.4206   -8.5250   15.3620 S   0  0  0  0  0  0  0  0  0  0  0  0
   -3.4138   -9.1126   13.7077 C   0  0  0  0  0  0  0  0  0  0  0  0
   -0.9309   -8.8453   12.5822 H   0  0  0  0  0  0  0  0  0  0  0  0
   -0.1144  -10.4697   16.1458 H   0  0  0  0  0  0  0  0  0  0  0  0
   -2.9046   -1.2190    7.0778 C   0  0  0  0  0  0  0  0  0  0  0  0
   -2.3423    0.0069    7.7890 C   0  0  0  0  0  0  0  0  0  0  0  0
   -3.3686    0.6921    8.5116 O   0  0  0  0  0  0  0  0  0  0  0  0
   -1.2575   -0.3047    8.8053 C   0  0  0  0  0  0  0  0  0  0  0  0
    0.0356   -0.2554    8.1966 O   0  0  0  0  0  0  0  0  0  0  0  0
   -1.4023    0.8012    9.8302 C   0  0  0  0  0  0  0  0  0  0  0  0
   -2.8394    1.2799    9.7042 C   0  0  0  0  0  0  0  0  0  0  0  0
    0.1717    0.6178    7.7968 H   0  0  0  0  0  0  0  0  0  0  0  0
   -4.9132    0.4165   10.8074 C   0  0  0  0  0  0  0  0  0  0  0  0
   -6.5920   -0.4020   12.2930 C   0  0  0  0  0  0  0  0  0  0  0  0
   -3.6406    0.8150   10.8632 N   0  0  0  0  0  0  0  0  0  0  0  0
   -3.2171    0.7028   12.1312 C   0  0  0  0  0  0  0  0  0  0  0  0
   -4.2323    0.2352   12.8935 N   0  0  0  0  0  0  0  0  0  0  0  0
   -5.2964    0.0505   12.0851 C   0  0  0  0  0  0  0  0  0  0  0  0
   -5.7999    0.3265    9.7887 N   0  0  0  0  0  0  0  0  0  0  0  0
   -7.0428   -0.1140   10.0173 C   0  0  0  0  0  0  0  0  0  0  0  0
   -7.4402   -0.4728   11.2458 N   0  0  0  0  0  0  0  0  0  0  0  0
   -7.0064   -0.7701   13.5294 N   0  0  0  0  0  0  0  0  0  0  0  0
   -6.3862   -0.7179   14.2922 H   0  0  0  0  0  0  0  0  0  0  0  0
   -7.9276   -1.0899   13.6649 H   0  0  0  0  0  0  0  0  0  0  0  0
    1.9022    1.7901   10.3841 N   0  0  0  0  0  0  0  0  0  0  0  0
    0.8084    1.8430   10.0050 N   0  0  0  0  0  0  0  0  0  0  0  0
   -0.4877    1.8937    9.5443 N   0  0  0  0  0  0  0  0  0  0  0  0
  5  3  2  0  0  0
  4  3  2  0  0  0
 45 46  2  0  0  0
  3  1  1  0  0  0
  3  8  1  0  0  0
 46 47  2  0  0  0
 29 28  1  0  0  0
  1 25  1  0  0  0
  8  6  1  0  0  0
 25 26  1  0  0  0
 26 28  1  0  0  0
 26 27  1  0  0  0
 47 30  1  0  0  0
 28 30  1  0  0  0
  6  7  2  0  0  0
  6 10  1  0  0  0
 27 31  1  0  0  0
 30 31  1  0  0  0
 10 11  1  0  0  0
 31 35  1  0  0  0
 11 12  1  0  0  0
 35 33  1  0  0  0
 35 36  1  0  0  0
 39 33  2  0  0  0
 39 40  1  0  0  0
 33 38  1  0  0  0
 12 13  1  0  0  0
 36 37  2  0  0  0
 40 41  2  0  0  0
 38 37  1  0  0  0
 38 34  2  0  0  0
 13 22  1  0  0  0
 41 34  1  0  0  0
 15 14  1  0  0  0
 15 16  1  0  0  0
 34 42  1  0  0  0
 14 22  1  0  0  0
 14 19  1  0  0  0
 22 21  1  0  0  0
 17 16  2  0  0  0
 16 18  1  0  0  0
 19 18  1  0  0  0
 19 20  1  0  0  0
 21 20  1  0  0  0
 15 23  1  0  0  0
 18 24  1  0  0  0
  8  9  1  0  0  0
  1  2  1  0  0  0
 29 32  1  0  0  0
 42 43  1  0  0  0
 42 44  1  0  0  0
M  CHG 1  45  -1
M  CHG 1  46   1
M  END
> <minimizedAffinity>
-11.14558

$$$$
