6GNP_F4Z_A_201


 11 11  0  0  0  0  0  0  0  0999 V2000
  -12.0215    2.2747   38.2536 C   0  0  0  0  0  0  0  0  0  0  0  0
  -12.0593    2.7393   36.9860 C   0  0  0  0  0  0  0  0  0  0  0  0
  -13.1786    3.5032   36.4663 C   0  0  0  0  0  0  0  0  0  0  0  0
  -13.2648    3.9520   35.3143 O   0  0  0  0  0  0  0  0  0  0  0  0
  -14.1870    3.7123   37.3647 N   0  0  0  0  0  0  0  0  0  0  0  0
  -14.1191    3.2344   38.6252 C   0  0  0  0  0  0  0  0  0  0  0  0
  -13.0985    2.5274   39.1284 C   0  0  0  0  0  0  0  0  0  0  0  0
  -13.0646    1.9381   40.7554 Cl  0  0  0  0  0  0  0  0  0  0  0  0
  -15.4819    3.5891   39.6292 Cl  0  0  0  0  0  0  0  0  0  0  0  0
  -10.7449    2.4362   35.9040 Cl  0  0  0  0  0  0  0  0  0  0  0  0
  -14.0238    4.4370   35.0560 H   0  0  0  0  0  0  0  0  0  0  0  0
  9  6  1  0  0  0
  6  5  1  0  0  0
  6  7  2  0  0  0
  8  7  1  0  0  0
  5  3  2  0  0  0
  7  1  1  0  0  0
  3  4  1  0  0  0
  3  2  1  0  0  0
  1  2  2  0  0  0
  2 10  1  0  0  0
  4 11  1  0  0  0
M  END
> <minimizedAffinity>
-5.26777

$$$$
6GNP_F4Z_A_201


 11 11  0  0  0  0  0  0  0  0999 V2000
  -13.3229    3.0412   38.4213 C   0  0  0  0  0  0  0  0  0  0  0  0
  -13.0343    2.5599   39.6498 C   0  0  0  0  0  0  0  0  0  0  0  0
  -14.0595    2.2540   40.6305 C   0  0  0  0  0  0  0  0  0  0  0  0
  -13.8508    1.8118   41.7693 O   0  0  0  0  0  0  0  0  0  0  0  0
  -15.3369    2.4929   40.2073 N   0  0  0  0  0  0  0  0  0  0  0  0
  -15.5925    2.9746   38.9726 C   0  0  0  0  0  0  0  0  0  0  0  0
  -14.6651    3.2647   38.0503 C   0  0  0  0  0  0  0  0  0  0  0  0
  -15.0506    3.8816   36.4798 Cl  0  0  0  0  0  0  0  0  0  0  0  0
  -17.2637    3.2197   38.6015 Cl  0  0  0  0  0  0  0  0  0  0  0  0
  -11.3926    2.2815   40.1163 Cl  0  0  0  0  0  0  0  0  0  0  0  0
  -14.5703    1.6399   42.3443 H   0  0  0  0  0  0  0  0  0  0  0  0
  9  6  1  0  0  0
  6  5  1  0  0  0
  6  7  2  0  0  0
  8  7  1  0  0  0
  5  3  2  0  0  0
  7  1  1  0  0  0
  3  4  1  0  0  0
  3  2  1  0  0  0
  1  2  2  0  0  0
  2 10  1  0  0  0
  4 11  1  0  0  0
M  END
> <minimizedAffinity>
-5.12106

$$$$
6GNP_F4Z_A_201


 11 11  0  0  0  0  0  0  0  0999 V2000
  -14.5943    2.8042   39.1441 C   0  0  0  0  0  0  0  0  0  0  0  0
  -15.1008    3.3018   37.9952 C   0  0  0  0  0  0  0  0  0  0  0  0
  -14.2699    3.6258   36.8501 C   0  0  0  0  0  0  0  0  0  0  0  0
  -14.6815    4.0839   35.7746 O   0  0  0  0  0  0  0  0  0  0  0  0
  -12.9369    3.3855   37.0318 N   0  0  0  0  0  0  0  0  0  0  0  0
  -12.4618    2.8875   38.1929 C   0  0  0  0  0  0  0  0  0  0  0  0
  -13.2069    2.5807   39.2633 C   0  0  0  0  0  0  0  0  0  0  0  0
  -12.5430    1.9441   40.7294 Cl  0  0  0  0  0  0  0  0  0  0  0  0
  -10.7504    2.6455   38.2531 Cl  0  0  0  0  0  0  0  0  0  0  0  0
  -16.8001    3.5800   37.8369 Cl  0  0  0  0  0  0  0  0  0  0  0  0
  -14.0779    4.2669   35.0817 H   0  0  0  0  0  0  0  0  0  0  0  0
  9  6  1  0  0  0
  6  5  1  0  0  0
  6  7  2  0  0  0
  8  7  1  0  0  0
  5  3  2  0  0  0
  7  1  1  0  0  0
  3  4  1  0  0  0
  3  2  1  0  0  0
  1  2  2  0  0  0
  2 10  1  0  0  0
  4 11  1  0  0  0
M  END
> <minimizedAffinity>
-5.08087

$$$$
6GNP_F4Z_A_201


 11 11  0  0  0  0  0  0  0  0999 V2000
  -14.2204    3.2370   38.3622 C   0  0  0  0  0  0  0  0  0  0  0  0
  -14.0452    2.6389   39.5604 C   0  0  0  0  0  0  0  0  0  0  0  0
  -12.8174    1.9537   39.9202 C   0  0  0  0  0  0  0  0  0  0  0  0
  -12.6043    1.3893   41.0027 O   0  0  0  0  0  0  0  0  0  0  0  0
  -11.8571    1.9650   38.9479 N   0  0  0  0  0  0  0  0  0  0  0  0
  -12.0630    2.5718   37.7600 C   0  0  0  0  0  0  0  0  0  0  0  0
  -13.1859    3.2100   37.4040 C   0  0  0  0  0  0  0  0  0  0  0  0
  -13.3957    3.9716   35.8640 Cl  0  0  0  0  0  0  0  0  0  0  0  0
  -10.7439    2.4898   36.6446 Cl  0  0  0  0  0  0  0  0  0  0  0  0
  -15.3061    2.6653   40.7435 Cl  0  0  0  0  0  0  0  0  0  0  0  0
  -11.7818    0.9679   41.1574 H   0  0  0  0  0  0  0  0  0  0  0  0
  9  6  1  0  0  0
  6  5  1  0  0  0
  6  7  2  0  0  0
  8  7  1  0  0  0
  5  3  2  0  0  0
  7  1  1  0  0  0
  3  4  1  0  0  0
  3  2  1  0  0  0
  1  2  2  0  0  0
  2 10  1  0  0  0
  4 11  1  0  0  0
M  END
> <minimizedAffinity>
-5.07793

$$$$
6GNP_F4Z_A_201


 11 11  0  0  0  0  0  0  0  0999 V2000
  -14.3218    2.8895   39.1165 C   0  0  0  0  0  0  0  0  0  0  0  0
  -13.1163    2.4074   39.4886 C   0  0  0  0  0  0  0  0  0  0  0  0
  -11.9513    2.4634   38.6247 C   0  0  0  0  0  0  0  0  0  0  0  0
  -10.8245    2.0369   38.9151 O   0  0  0  0  0  0  0  0  0  0  0  0
  -12.1763    3.0432   37.4078 N   0  0  0  0  0  0  0  0  0  0  0  0
  -13.3936    3.5155   37.0657 C   0  0  0  0  0  0  0  0  0  0  0  0
  -14.4834    3.4757   37.8440 C   0  0  0  0  0  0  0  0  0  0  0  0
  -16.0221    4.0974   37.3528 Cl  0  0  0  0  0  0  0  0  0  0  0  0
  -13.5028    4.2165   35.4885 Cl  0  0  0  0  0  0  0  0  0  0  0  0
  -12.9056    1.6866   41.0462 Cl  0  0  0  0  0  0  0  0  0  0  0  0
  -10.1224    2.1112   38.2991 H   0  0  0  0  0  0  0  0  0  0  0  0
  9  6  1  0  0  0
  6  5  1  0  0  0
  6  7  2  0  0  0
  8  7  1  0  0  0
  5  3  2  0  0  0
  7  1  1  0  0  0
  3  4  1  0  0  0
  3  2  1  0  0  0
  1  2  2  0  0  0
  2 10  1  0  0  0
  4 11  1  0  0  0
M  END
> <minimizedAffinity>
-5.04432

$$$$
6GNP_F4Z_A_201


 11 11  0  0  0  0  0  0  0  0999 V2000
  -14.4244    3.5120   37.8760 C   0  0  0  0  0  0  0  0  0  0  0  0
  -15.0281    3.1546   39.0301 C   0  0  0  0  0  0  0  0  0  0  0  0
  -14.3218    2.4866   40.1077 C   0  0  0  0  0  0  0  0  0  0  0  0
  -14.8258    2.1370   41.1846 O   0  0  0  0  0  0  0  0  0  0  0  0
  -12.9991    2.2510   39.8571 N   0  0  0  0  0  0  0  0  0  0  0  0
  -12.4250    2.6207   38.6928 C   0  0  0  0  0  0  0  0  0  0  0  0
  -13.0545    3.2376   37.6838 C   0  0  0  0  0  0  0  0  0  0  0  0
  -12.2671    3.6891   36.2101 Cl  0  0  0  0  0  0  0  0  0  0  0  0
  -10.7437    2.2453   38.5408 Cl  0  0  0  0  0  0  0  0  0  0  0  0
  -16.7072    3.4857   39.2776 Cl  0  0  0  0  0  0  0  0  0  0  0  0
  -14.2995    1.7093   41.8312 H   0  0  0  0  0  0  0  0  0  0  0  0
  9  6  1  0  0  0
  6  5  1  0  0  0
  6  7  2  0  0  0
  8  7  1  0  0  0
  5  3  2  0  0  0
  7  1  1  0  0  0
  3  4  1  0  0  0
  3  2  1  0  0  0
  1  2  2  0  0  0
  2 10  1  0  0  0
  4 11  1  0  0  0
M  END
> <minimizedAffinity>
-5.03967

$$$$
6GNP_F4Z_A_201


 11 11  0  0  0  0  0  0  0  0999 V2000
  -14.2628    3.4289   37.7987 C   0  0  0  0  0  0  0  0  0  0  0  0
  -13.0820    3.4711   37.1445 C   0  0  0  0  0  0  0  0  0  0  0  0
  -11.8532    2.9504   37.7148 C   0  0  0  0  0  0  0  0  0  0  0  0
  -10.7452    2.9639   37.1597 O   0  0  0  0  0  0  0  0  0  0  0  0
  -11.9914    2.4153   38.9647 N   0  0  0  0  0  0  0  0  0  0  0  0
  -13.1861    2.3882   39.5923 C   0  0  0  0  0  0  0  0  0  0  0  0
  -14.3334    2.8618   39.0881 C   0  0  0  0  0  0  0  0  0  0  0  0
  -15.8393    2.8010   39.9391 Cl  0  0  0  0  0  0  0  0  0  0  0  0
  -13.1820    1.6766   41.1685 Cl  0  0  0  0  0  0  0  0  0  0  0  0
  -12.9827    4.1637   35.5632 Cl  0  0  0  0  0  0  0  0  0  0  0  0
   -9.9977    2.6062   37.5971 H   0  0  0  0  0  0  0  0  0  0  0  0
  9  6  1  0  0  0
  6  5  1  0  0  0
  6  7  2  0  0  0
  8  7  1  0  0  0
  5  3  2  0  0  0
  7  1  1  0  0  0
  3  4  1  0  0  0
  3  2  1  0  0  0
  1  2  2  0  0  0
  2 10  1  0  0  0
  4 11  1  0  0  0
M  END
> <minimizedAffinity>
-4.93123

$$$$
6GNP_F4Z_A_201


 11 11  0  0  0  0  0  0  0  0999 V2000
  -18.1030    3.2502   38.2534 C   0  0  0  0  0  0  0  0  0  0  0  0
  -16.9843    2.5489   37.9691 C   0  0  0  0  0  0  0  0  0  0  0  0
  -15.6548    3.0326   38.2932 C   0  0  0  0  0  0  0  0  0  0  0  0
  -14.5974    2.4316   38.0552 O   0  0  0  0  0  0  0  0  0  0  0  0
  -15.6307    4.2527   38.9083 N   0  0  0  0  0  0  0  0  0  0  0  0
  -16.7671    4.9289   39.1788 C   0  0  0  0  0  0  0  0  0  0  0  0
  -18.0047    4.5048   38.8900 C   0  0  0  0  0  0  0  0  0  0  0  0
  -19.4293    5.4153   39.2603 Cl  0  0  0  0  0  0  0  0  0  0  0  0
  -16.5548    6.4576   39.9591 Cl  0  0  0  0  0  0  0  0  0  0  0  0
  -17.0919    1.0095   37.1888 Cl  0  0  0  0  0  0  0  0  0  0  0  0
  -13.7768    2.8136   38.2972 H   0  0  0  0  0  0  0  0  0  0  0  0
  9  6  1  0  0  0
  6  5  1  0  0  0
  6  7  2  0  0  0
  8  7  1  0  0  0
  5  3  2  0  0  0
  7  1  1  0  0  0
  3  4  1  0  0  0
  3  2  1  0  0  0
  1  2  2  0  0  0
  2 10  1  0  0  0
  4 11  1  0  0  0
M  END
> <minimizedAffinity>
-4.02500

$$$$
6GNP_F4Z_A_201


 11 11  0  0  0  0  0  0  0  0999 V2000
  -17.9950    3.9480   38.5107 C   0  0  0  0  0  0  0  0  0  0  0  0
  -16.7424    4.3397   38.8298 C   0  0  0  0  0  0  0  0  0  0  0  0
  -15.5711    3.5391   38.5241 C   0  0  0  0  0  0  0  0  0  0  0  0
  -14.4021    3.8499   38.7940 O   0  0  0  0  0  0  0  0  0  0  0  0
  -15.8415    2.3601   37.8880 N   0  0  0  0  0  0  0  0  0  0  0  0
  -17.1052    1.9970   37.5827 C   0  0  0  0  0  0  0  0  0  0  0  0
  -18.2018    2.7172   37.8540 C   0  0  0  0  0  0  0  0  0  0  0  0
  -19.8010    2.2016   37.4390 Cl  0  0  0  0  0  0  0  0  0  0  0  0
  -17.2677    0.4739   36.7799 Cl  0  0  0  0  0  0  0  0  0  0  0  0
  -16.4760    5.8467   39.6349 Cl  0  0  0  0  0  0  0  0  0  0  0  0
  -13.6991    3.2755   38.5618 H   0  0  0  0  0  0  0  0  0  0  0  0
  9  6  1  0  0  0
  6  5  1  0  0  0
  6  7  2  0  0  0
  8  7  1  0  0  0
  5  3  2  0  0  0
  7  1  1  0  0  0
  3  4  1  0  0  0
  3  2  1  0  0  0
  1  2  2  0  0  0
  2 10  1  0  0  0
  4 11  1  0  0  0
M  END
> <minimizedAffinity>
-3.98346

$$$$
6GNP_F4Z_A_201


 11 11  0  0  0  0  0  0  0  0999 V2000
  -16.4568    4.7718   38.4299 C   0  0  0  0  0  0  0  0  0  0  0  0
  -17.6167    5.4324   38.6359 C   0  0  0  0  0  0  0  0  0  0  0  0
  -18.8916    4.7514   38.7675 C   0  0  0  0  0  0  0  0  0  0  0  0
  -19.9831    5.3071   38.9566 O   0  0  0  0  0  0  0  0  0  0  0  0
  -18.8195    3.3904   38.6661 N   0  0  0  0  0  0  0  0  0  0  0  0
  -17.6441    2.7597   38.4599 C   0  0  0  0  0  0  0  0  0  0  0  0
  -16.4553    3.3647   38.3350 C   0  0  0  0  0  0  0  0  0  0  0  0
  -14.9770    2.5043   38.0707 Cl  0  0  0  0  0  0  0  0  0  0  0  0
  -17.7337    1.0358   38.3554 Cl  0  0  0  0  0  0  0  0  0  0  0  0
  -17.6314    7.1575   38.7542 Cl  0  0  0  0  0  0  0  0  0  0  0  0
  -20.7635    4.7938   39.0307 H   0  0  0  0  0  0  0  0  0  0  0  0
  9  6  1  0  0  0
  6  5  1  0  0  0
  6  7  2  0  0  0
  8  7  1  0  0  0
  5  3  2  0  0  0
  7  1  1  0  0  0
  3  4  1  0  0  0
  3  2  1  0  0  0
  1  2  2  0  0  0
  2 10  1  0  0  0
  4 11  1  0  0  0
M  END
> <minimizedAffinity>
-3.95452

$$$$
