2VO5_VBZ_A_1865
  RCSB PDB12061707073D
Coordinates from PDB:2VO5:A:1865 Model:1 without hydrogens
 20 22  0  0  0  0            999 V2000
   28.0980   44.6850   -0.0200   O 0  0  0  0  0  0  0  0  0  0  0  0
   27.5320   45.9020   -0.4860   C 0  0  0  0  0  0  0  0  0  0  0  0
   28.0950   47.0940    0.2520   C 0  0  0  0  0  0  0  0  0  0  0  0
   29.3600   46.7230    0.7310   O 0  0  0  0  0  0  0  0  0  0  0  0
   28.1710   48.2240   -0.7810   C 0  0  0  0  0  0  0  0  0  0  0  0
   28.4180   49.4660   -0.0720   O 0  0  0  0  0  0  0  0  0  0  0  0
   26.7880   48.3040   -1.4660   C 0  0  0  0  0  0  0  0  0  0  0  0
   26.4000   49.6390   -2.1070   C 0  0  0  0  0  0  0  0  0  0  0  0
   27.1900   49.8270   -3.2700   O 0  0  0  0  0  0  0  0  0  0  0  0
   26.6230   47.1130   -2.4160   C 0  0  0  0  0  0  0  0  0  0  0  0
   29.3090   47.9170   -1.7690   C 0  0  0  0  0  0  0  0  0  0  0  0
   29.0330   46.6270   -2.4470   N 0  0  0  0  0  0  0  0  0  0  0  0
   27.6950   46.1220   -2.0130   C 0  0  0  0  0  0  0  0  0  0  0  0
   29.0480   46.7000   -3.9540   C 0  0  0  0  0  0  0  0  0  0  0  0
   30.2710   47.3530   -4.5820   C 0  0  0  0  0  0  0  0  0  0  0  0
   31.5620   46.8800   -4.3340   C 0  0  0  0  0  0  0  0  0  0  0  0
   32.6840   47.4960   -4.9300   C 0  0  0  0  0  0  0  0  0  0  0  0
   30.1230   48.4760   -5.4090   C 0  0  0  0  0  0  0  0  0  0  0  0
   31.2340   49.1100   -5.9950   C 0  0  0  0  0  0  0  0  0  0  0  0
   32.5200   48.6130   -5.7630   C 0  0  0  0  0  0  0  0  0  0  0  0
  1  2  1  0  0  0  0
  2  3  1  0  0  0  0
  2 13  1  0  0  0  0
  3  4  1  0  0  0  0
  3  5  1  0  0  0  0
  5  6  1  0  0  0  0
  5  7  1  0  0  0  0
  5 11  1  0  0  0  0
  7  8  1  0  0  0  0
  7 10  1  0  0  0  0
  8  9  1  0  0  0  0
 10 13  1  0  0  0  0
 11 12  1  0  0  0  0
 12 13  1  0  0  0  0
 12 14  1  0  0  0  0
 14 15  1  0  0  0  0
 15 16  1  0  0  0  0
 15 18  2  0  0  0  0
 16 17  2  0  0  0  0
 17 20  1  0  0  0  0
 18 19  1  0  0  0  0
 19 20  2  0  0  0  0
A    1
O2
A    2
C2
A    3
C3
A    4
O3
A    5
C4
A    6
O4
A    7
C5
A    8
C6
A    9
O6
A   10
C7
A   11
C8
A   12
N1
A   13
C1
A   14
C9
A   15
C10
A   16
C11
A   17
C12
A   18
C15
A   19
C14
A   20
C13
M  END
>  <InstanceId>
2VO5_VBZ_A_1865

>  <ChemCompId>
VBZ

>  <PdbId>
2VO5

>  <ChainId>
A

>  <ResidueNumber>
1865

>  <InsertionCode>


>  <Model>
1

>  <AltIds>


>  <MissingHeavyAtoms>
0

>  <ObservedFormula>
C15 N O4

>  <Name>
(1R,4R,5R,7R,8R)-2-Benzyl-5-hydroxymethyl-2-aza-bicyclo[2.2.2]octane-4,7,8-triol

>  <SystematicName>
(1S,3S,4R,6R,7R,8R)-6-(hydroxymethyl)-3-(phenylmethyl)-3-azabicyclo[2.2.2]octane-1,7,8-triol

>  <Synonyms>


>  <Type>
non-polymer

>  <Formula>
C15 H21 N O4

>  <MolecularWeight>
279.332

>  <ModifiedDate>
2011-06-04

>  <Parent>


>  <OneLetterCode>


>  <SubcomponentList>


>  <AmbiguousFlag>


>  <InChI>
InChI=1S/C15H21NO4/c17-8-11-6-12-13(18)14(19)15(11,20)9-16(12)7-10-4-2-1-3-5-10/h1-5,11-14,17-20H,6-9H2/t11-,12-,13-,14-,15-/m1/s1

>  <InChIKey>
XOLGFLJPIWWVBX-KJWHEZOQSA-N

>  <SMILES>
c1ccc(cc1)C[N@]2C[C@]3([C@H](C[C@@H]2[C@H]([C@H]3O)O)CO)O

$$$$
