6H37_FKQ_A_302
  RCSB PDB12151803173D
Coordinates from PDB:6H37:A:302 Model:1 without hydrogens
 25 27  0  0  0  0            999 V2000
   16.6110   26.5880    4.5930   C 0  0  0  0  0  0  0  0  0  0  0  0
   16.3370   27.2210    5.7930   C 0  0  0  0  0  0  0  0  0  0  0  0
   15.9580   26.4680    6.8920   C 0  0  0  0  0  0  0  0  0  0  0  0
   15.6560   27.2710    8.4390   S 0  0  0  0  0  0  0  0  0  0  0  0
   16.9070   27.8030    8.8900   O 0  0  0  0  0  0  0  0  0  0  0  0
   14.5620   28.1750    8.2420   O 0  0  0  0  0  0  0  0  0  0  0  0
   15.8440   25.0900    6.7960   C 0  0  0  0  0  0  0  0  0  0  0  0
   16.1190   24.4680    5.5900   C 0  0  0  0  0  0  0  0  0  0  0  0
   16.5070   25.2070    4.4780   C 0  0  0  0  0  0  0  0  0  0  0  0
   16.7790   24.5320    3.1670   C 0  0  0  0  0  0  0  0  0  0  0  0
   16.4150   25.0600    2.1310   O 0  0  0  0  0  0  0  0  0  0  0  0
   17.3750   23.3280    3.1780   N 0  0  0  0  0  0  0  0  0  0  0  0
   18.3640   22.9820    4.2090   C 0  0  0  0  0  0  0  0  0  0  0  0
   19.7760   23.3360    3.7710   C 0  0  0  0  0  0  0  0  0  0  0  0
   17.6840   22.6580    1.9050   C 0  0  0  0  0  0  0  0  0  0  0  0
   19.0800   23.0100    1.4160   C 0  0  0  0  0  0  0  0  0  0  0  0
   20.1400   22.6460    2.4560   C 0  0  0  0  0  0  0  0  0  0  0  0
   20.0550   21.2390    2.6750   O 0  0  0  0  0  0  0  0  0  0  0  0
   21.5400   23.0350    1.9890   C 0  0  0  0  0  0  0  0  0  0  0  0
   21.8740   24.3620    1.7490   C 0  0  0  0  0  0  0  0  0  0  0  0
   23.1470   24.7120    1.3290   C 0  0  0  0  0  0  0  0  0  0  0  0
   24.1070   23.7390    1.1430   C 0  0  0  0  0  0  0  0  0  0  0  0
   23.7940   22.4170    1.3760   C 0  0  0  0  0  0  0  0  0  0  0  0
   22.5210   22.0670    1.7960   C 0  0  0  0  0  0  0  0  0  0  0  0
   15.1850   26.1740    9.5040   N 0  0  0  0  0  0  0  0  0  0  0  0
 22 21  2  0  0  0  0
 22 23  1  0  0  0  0
 21 20  1  0  0  0  0
 23 24  2  0  0  0  0
 16 15  1  0  0  0  0
 16 17  1  0  0  0  0
 20 19  2  0  0  0  0
 24 19  1  0  0  0  0
 15 12  1  0  0  0  0
 19 17  1  0  0  0  0
 11 10  2  0  0  0  0
 17 18  1  0  0  0  0
 17 14  1  0  0  0  0
 10 12  1  0  0  0  0
 10  9  1  0  0  0  0
 12 13  1  0  0  0  0
 14 13  1  0  0  0  0
  9  1  2  0  0  0  0
  9  8  1  0  0  0  0
  1  2  1  0  0  0  0
  8  7  2  0  0  0  0
  2  3  2  0  0  0  0
  7  3  1  0  0  0  0
  3  4  1  0  0  0  0
  6  4  2  0  0  0  0
  4  5  2  0  0  0  0
  4 25  1  0  0  0  0
A    1
C3
A    2
C2
A    3
C1
A    4
S1
A    5
O1
A    6
O2
A    7
C6
A    8
C5
A    9
C4
A   10
C7
A   11
O3
A   12
N2
A   13
C12
A   14
C11
A   15
C8
A   16
C9
A   17
C10
A   18
O4
A   19
C13
A   20
C14
A   21
C15
A   22
C16
A   23
C17
A   24
C18
A   25
N1
M  END
>  <InstanceId>
6H37_FKQ_A_302

>  <ChemCompId>
FKQ

>  <PdbId>
6H37

>  <ChainId>
A

>  <ResidueNumber>
302

>  <InsertionCode>


>  <Model>
1

>  <AltIds>


>  <MissingHeavyAtoms>
0

>  <ObservedFormula>
C18 N2 O4 S

>  <Name>
4-(4-oxidanyl-4-phenyl-piperidin-1-yl)carbonylbenzenesulfonamide

>  <SystematicName>
4-(4-oxidanyl-4-phenyl-piperidin-1-yl)carbonylbenzenesulfonamide

>  <Synonyms>


>  <Type>
NON-POLYMER

>  <Formula>
C18 H20 N2 O4 S

>  <MolecularWeight>
360.427

>  <ModifiedDate>
2018-12-14

>  <Parent>


>  <OneLetterCode>


>  <SubcomponentList>


>  <AmbiguousFlag>
N

>  <InChI>
InChI=1S/C18H20N2O4S/c19-25(23,24)16-8-6-14(7-9-16)17(21)20-12-10-18(22,11-13-20)15-4-2-1-3-5-15/h1-9,22H,10-13H2,(H2,19,23,24)

>  <InChIKey>
XEMCUUOBNNOBLG-UHFFFAOYSA-N

>  <SMILES>
c1ccc(cc1)C2(CCN(CC2)C(=O)c3ccc(cc3)S(=O)(=O)N)O

$$$$
