3SXF_BK5_A_701


 28 31  0  0  0  0  0  0  0  0999 V2000
   21.3756   12.3050   63.3844 N   0  0  0  0  0  0  0  0  0  0  0  0
   22.5724   12.8677   63.2146 C   0  0  0  0  0  0  0  0  0  0  0  0
   22.7175   14.1866   63.2221 N   0  0  0  0  0  0  0  0  0  0  0  0
   21.6502   14.9909   63.3872 C   0  0  0  0  0  0  0  0  0  0  0  0
   20.3864   14.4503   63.5726 C   0  0  0  0  0  0  0  0  0  0  0  0
   20.2709   13.0489   63.5719 C   0  0  0  0  0  0  0  0  0  0  0  0
   19.1086   12.4141   63.7339 N   0  0  0  0  0  0  0  0  0  0  0  0
   20.3416   16.6641   63.6254 N   0  0  0  0  0  0  0  0  0  0  0  0
   19.5607   15.5771   63.7275 C   0  0  0  0  0  0  0  0  0  0  0  0
   21.5153   16.3133   63.4302 N   0  0  0  0  0  0  0  0  0  0  0  0
   19.0799   11.4301   63.7257 H   0  0  0  0  0  0  0  0  0  0  0  0
   18.2797   12.9297   63.8617 H   0  0  0  0  0  0  0  0  0  0  0  0
   14.2420   14.5332   66.5688 C   0  0  0  0  0  0  0  0  0  0  0  0
   17.3549   16.2272   63.0160 C   0  0  0  0  0  0  0  0  0  0  0  0
   15.6258   14.4954   66.3898 C   0  0  0  0  0  0  0  0  0  0  0  0
   15.9730   16.2732   63.1960 C   0  0  0  0  0  0  0  0  0  0  0  0
   14.0111   15.7403   64.4958 C   0  0  0  0  0  0  0  0  0  0  0  0
   17.5963   15.0183   65.0777 C   0  0  0  0  0  0  0  0  0  0  0  0
   13.4309   15.1533   65.6159 C   0  0  0  0  0  0  0  0  0  0  0  0
   18.1802   15.5837   63.9417 C   0  0  0  0  0  0  0  0  0  0  0  0
   15.3958   15.6926   64.3183 C   0  0  0  0  0  0  0  0  0  0  0  0
   16.2090   15.0721   65.2683 C   0  0  0  0  0  0  0  0  0  0  0  0
   12.0858   15.1878   65.8226 O   0  0  0  0  0  0  0  0  0  0  0  0
    9.8316   14.2847   65.4573 C   0  0  0  0  0  0  0  0  0  0  0  0
   11.3153   14.2223   65.0609 C   0  0  0  0  0  0  0  0  0  0  0  0
   22.3899   18.5709   63.9573 C   0  0  0  0  0  0  0  0  0  0  0  0
   22.9244   17.4290   61.7713 C   0  0  0  0  0  0  0  0  0  0  0  0
   22.6597   17.2311   63.2681 C   0  0  0  0  0  0  0  0  0  0  0  0
  1  6  2  0  0  0
  2  1  1  0  0  0
  3  2  2  0  0  0
  3  4  1  0  0  0
  4 10  1  0  0  0
  4  5  2  0  0  0
  5  6  1  0  0  0
  5  9  1  0  0  0
  6  7  1  0  0  0
 27 28  1  0  0  0
 14 16  2  0  0  0
 14 20  1  0  0  0
 15 13  2  0  0  0
 16 21  1  0  0  0
 17 19  2  0  0  0
 18 22  1  0  0  0
 25 24  1  0  0  0
 25 23  1  0  0  0
  8  9  2  0  0  0
 19 13  1  0  0  0
 19 23  1  0  0  0
 20 18  2  0  0  0
  9 20  1  0  0  0
 21 17  1  0  0  0
 21 22  2  0  0  0
 22 15  1  0  0  0
 28 26  1  0  0  0
 28 10  1  0  0  0
 10  8  1  0  0  0
  7 11  1  0  0  0
  7 12  1  0  0  0
M  END
> <minimizedAffinity>
-10.69809

$$$$
3SXF_BK5_A_701


 28 31  0  0  0  0  0  0  0  0999 V2000
   21.4234   19.0414   62.3847 N   0  0  0  0  0  0  0  0  0  0  0  0
   22.6576   18.5476   62.2816 C   0  0  0  0  0  0  0  0  0  0  0  0
   22.9144   17.2778   62.5683 N   0  0  0  0  0  0  0  0  0  0  0  0
   21.9308   16.4590   62.9870 C   0  0  0  0  0  0  0  0  0  0  0  0
   20.6306   16.9272   63.1041 C   0  0  0  0  0  0  0  0  0  0  0  0
   20.3916   18.2744   62.7799 C   0  0  0  0  0  0  0  0  0  0  0  0
   19.1857   18.8397   62.8596 N   0  0  0  0  0  0  0  0  0  0  0  0
   20.7771   14.7847   63.6461 N   0  0  0  0  0  0  0  0  0  0  0  0
   19.9077   15.8012   63.5343 C   0  0  0  0  0  0  0  0  0  0  0  0
   21.9129   15.1760   63.3367 N   0  0  0  0  0  0  0  0  0  0  0  0
   19.0698   19.7878   62.6213 H   0  0  0  0  0  0  0  0  0  0  0  0
   18.4118   18.3087   63.1568 H   0  0  0  0  0  0  0  0  0  0  0  0
   14.7762   14.4781   66.5950 C   0  0  0  0  0  0  0  0  0  0  0  0
   17.6427   16.3360   62.9190 C   0  0  0  0  0  0  0  0  0  0  0  0
   16.1512   14.5128   66.3574 C   0  0  0  0  0  0  0  0  0  0  0  0
   16.2693   16.3096   63.1575 C   0  0  0  0  0  0  0  0  0  0  0  0
   14.3948   15.6736   64.5376 C   0  0  0  0  0  0  0  0  0  0  0  0
   18.0343   15.1392   64.9646 C   0  0  0  0  0  0  0  0  0  0  0  0
   13.8941   15.0560   65.6794 C   0  0  0  0  0  0  0  0  0  0  0  0
   18.5390   15.7355   63.8068 C   0  0  0  0  0  0  0  0  0  0  0  0
   15.7713   15.6985   64.3014 C   0  0  0  0  0  0  0  0  0  0  0  0
   16.6554   15.1202   65.2141 C   0  0  0  0  0  0  0  0  0  0  0  0
   12.5590   15.0199   65.9429 O   0  0  0  0  0  0  0  0  0  0  0  0
   10.2447   14.8576   65.1379 C   0  0  0  0  0  0  0  0  0  0  0  0
   11.6938   15.2421   64.7993 C   0  0  0  0  0  0  0  0  0  0  0  0
   23.7452   14.2680   61.9375 C   0  0  0  0  0  0  0  0  0  0  0  0
   22.7627   12.9395   63.8448 C   0  0  0  0  0  0  0  0  0  0  0  0
   23.1283   14.3386   63.3364 C   0  0  0  0  0  0  0  0  0  0  0  0
  1  6  2  0  0  0
  2  1  1  0  0  0
  3  2  2  0  0  0
  3  4  1  0  0  0
  4 10  1  0  0  0
  4  5  2  0  0  0
  5  6  1  0  0  0
  5  9  1  0  0  0
  6  7  1  0  0  0
 27 28  1  0  0  0
 14 16  2  0  0  0
 14 20  1  0  0  0
 15 13  2  0  0  0
 16 21  1  0  0  0
 17 19  2  0  0  0
 18 22  1  0  0  0
 25 24  1  0  0  0
 25 23  1  0  0  0
  8  9  2  0  0  0
 19 13  1  0  0  0
 19 23  1  0  0  0
 20 18  2  0  0  0
  9 20  1  0  0  0
 21 17  1  0  0  0
 21 22  2  0  0  0
 22 15  1  0  0  0
 28 26  1  0  0  0
 28 10  1  0  0  0
 10  8  1  0  0  0
  7 11  1  0  0  0
  7 12  1  0  0  0
M  END
> <minimizedAffinity>
-9.64149

$$$$
3SXF_BK5_A_701


 28 31  0  0  0  0  0  0  0  0999 V2000
   20.4119   13.4933   63.7683 N   0  0  0  0  0  0  0  0  0  0  0  0
   21.3500   14.3057   63.2806 C   0  0  0  0  0  0  0  0  0  0  0  0
   21.0734   15.5667   62.9741 N   0  0  0  0  0  0  0  0  0  0  0  0
   19.8278   16.0521   63.1355 C   0  0  0  0  0  0  0  0  0  0  0  0
   18.8210   15.2453   63.6446 C   0  0  0  0  0  0  0  0  0  0  0  0
   19.1520   13.9182   63.9708 C   0  0  0  0  0  0  0  0  0  0  0  0
   18.2686   13.0469   64.4611 N   0  0  0  0  0  0  0  0  0  0  0  0
   18.0880   17.2912   63.2171 N   0  0  0  0  0  0  0  0  0  0  0  0
   17.7014   16.0940   63.6850 C   0  0  0  0  0  0  0  0  0  0  0  0
   19.2889   17.2468   62.9093 N   0  0  0  0  0  0  0  0  0  0  0  0
   18.5498   12.1278   64.6740 H   0  0  0  0  0  0  0  0  0  0  0  0
   17.3354   13.3231   64.6100 H   0  0  0  0  0  0  0  0  0  0  0  0
   11.7284   14.8118   63.3231 C   0  0  0  0  0  0  0  0  0  0  0  0
   16.2050   15.5142   65.4792 C   0  0  0  0  0  0  0  0  0  0  0  0
   12.9957   15.1495   62.8452 C   0  0  0  0  0  0  0  0  0  0  0  0
   14.9420   15.1693   65.9586 C   0  0  0  0  0  0  0  0  0  0  0  0
   12.6068   14.7058   65.5648 C   0  0  0  0  0  0  0  0  0  0  0  0
   15.3390   15.6289   63.2416 C   0  0  0  0  0  0  0  0  0  0  0  0
   11.5318   14.5942   64.6886 C   0  0  0  0  0  0  0  0  0  0  0  0
   16.4150   15.7673   64.1213 C   0  0  0  0  0  0  0  0  0  0  0  0
   13.8710   15.0515   65.0816 C   0  0  0  0  0  0  0  0  0  0  0  0
   14.0703   15.2713   63.7174 C   0  0  0  0  0  0  0  0  0  0  0  0
   10.2887   14.2525   65.1256 O   0  0  0  0  0  0  0  0  0  0  0  0
    8.4859   15.2035   66.4953 C   0  0  0  0  0  0  0  0  0  0  0  0
    9.9457   14.7244   66.4543 C   0  0  0  0  0  0  0  0  0  0  0  0
   20.9731   18.9881   63.4297 C   0  0  0  0  0  0  0  0  0  0  0  0
   19.0930   19.4191   61.8025 C   0  0  0  0  0  0  0  0  0  0  0  0
   20.0666   18.3745   62.3599 C   0  0  0  0  0  0  0  0  0  0  0  0
  1  6  2  0  0  0
  2  1  1  0  0  0
  3  2  2  0  0  0
  3  4  1  0  0  0
  4 10  1  0  0  0
  4  5  2  0  0  0
  5  6  1  0  0  0
  5  9  1  0  0  0
  6  7  1  0  0  0
 27 28  1  0  0  0
 14 16  2  0  0  0
 14 20  1  0  0  0
 15 13  2  0  0  0
 16 21  1  0  0  0
 17 19  2  0  0  0
 18 22  1  0  0  0
 25 24  1  0  0  0
 25 23  1  0  0  0
  8  9  2  0  0  0
 19 13  1  0  0  0
 19 23  1  0  0  0
 20 18  2  0  0  0
  9 20  1  0  0  0
 21 17  1  0  0  0
 21 22  2  0  0  0
 22 15  1  0  0  0
 28 26  1  0  0  0
 28 10  1  0  0  0
 10  8  1  0  0  0
  7 11  1  0  0  0
  7 12  1  0  0  0
M  END
> <minimizedAffinity>
-9.02412

$$$$
3SXF_BK5_A_701


 28 31  0  0  0  0  0  0  0  0999 V2000
   21.1354   18.8727   61.7580 N   0  0  0  0  0  0  0  0  0  0  0  0
   22.3555   18.4541   61.4206 C   0  0  0  0  0  0  0  0  0  0  0  0
   22.7732   17.2343   61.7340 N   0  0  0  0  0  0  0  0  0  0  0  0
   21.9744   16.3927   62.4172 C   0  0  0  0  0  0  0  0  0  0  0  0
   20.6952   16.7827   62.7847 C   0  0  0  0  0  0  0  0  0  0  0  0
   20.2804   18.0773   62.4254 C   0  0  0  0  0  0  0  0  0  0  0  0
   19.0769   18.5668   62.7286 N   0  0  0  0  0  0  0  0  0  0  0  0
   21.1332   14.7108   63.4334 N   0  0  0  0  0  0  0  0  0  0  0  0
   20.1783   15.6540   63.4436 C   0  0  0  0  0  0  0  0  0  0  0  0
   22.1393   15.1472   62.8535 N   0  0  0  0  0  0  0  0  0  0  0  0
   18.8336   19.4805   62.4543 H   0  0  0  0  0  0  0  0  0  0  0  0
   18.4320   18.0143   63.2267 H   0  0  0  0  0  0  0  0  0  0  0  0
   14.0728   15.8018   63.8337 C   0  0  0  0  0  0  0  0  0  0  0  0
   18.8033   15.0232   65.3162 C   0  0  0  0  0  0  0  0  0  0  0  0
   15.3201   15.9571   63.2267 C   0  0  0  0  0  0  0  0  0  0  0  0
   17.5585   14.8599   65.9225 C   0  0  0  0  0  0  0  0  0  0  0  0
   15.1516   15.0101   65.8380 C   0  0  0  0  0  0  0  0  0  0  0  0
   17.7390   15.8196   63.3154 C   0  0  0  0  0  0  0  0  0  0  0  0
   13.9881   15.3315   65.1460 C   0  0  0  0  0  0  0  0  0  0  0  0
   18.9105   15.5226   64.0157 C   0  0  0  0  0  0  0  0  0  0  0  0
   16.3973   15.1748   65.2279 C   0  0  0  0  0  0  0  0  0  0  0  0
   16.4852   15.6462   63.9168 C   0  0  0  0  0  0  0  0  0  0  0  0
   12.7583   15.1765   65.7087 O   0  0  0  0  0  0  0  0  0  0  0  0
   10.3582   14.7341   65.4362 C   0  0  0  0  0  0  0  0  0  0  0  0
   11.6374   15.2949   64.7947 C   0  0  0  0  0  0  0  0  0  0  0  0
   24.5608   15.0642   63.3720 C   0  0  0  0  0  0  0  0  0  0  0  0
   23.6653   14.3008   61.1396 C   0  0  0  0  0  0  0  0  0  0  0  0
   23.3920   14.3950   62.6450 C   0  0  0  0  0  0  0  0  0  0  0  0
  1  6  2  0  0  0
  2  1  1  0  0  0
  3  2  2  0  0  0
  3  4  1  0  0  0
  4 10  1  0  0  0
  4  5  2  0  0  0
  5  6  1  0  0  0
  5  9  1  0  0  0
  6  7  1  0  0  0
 27 28  1  0  0  0
 14 16  2  0  0  0
 14 20  1  0  0  0
 15 13  2  0  0  0
 16 21  1  0  0  0
 17 19  2  0  0  0
 18 22  1  0  0  0
 25 24  1  0  0  0
 25 23  1  0  0  0
  8  9  2  0  0  0
 19 13  1  0  0  0
 19 23  1  0  0  0
 20 18  2  0  0  0
  9 20  1  0  0  0
 21 17  1  0  0  0
 21 22  2  0  0  0
 22 15  1  0  0  0
 28 26  1  0  0  0
 28 10  1  0  0  0
 10  8  1  0  0  0
  7 11  1  0  0  0
  7 12  1  0  0  0
M  END
> <minimizedAffinity>
-8.91156

$$$$
3SXF_BK5_A_701


 28 31  0  0  0  0  0  0  0  0999 V2000
   22.1276   14.2763   63.2404 N   0  0  0  0  0  0  0  0  0  0  0  0
   22.8736   15.1118   62.5173 C   0  0  0  0  0  0  0  0  0  0  0  0
   22.3938   16.2784   62.1056 N   0  0  0  0  0  0  0  0  0  0  0  0
   21.1299   16.6394   62.3982 C   0  0  0  0  0  0  0  0  0  0  0  0
   20.3187   15.8047   63.1524 C   0  0  0  0  0  0  0  0  0  0  0  0
   20.8633   14.5820   63.5829 C   0  0  0  0  0  0  0  0  0  0  0  0
   20.1790   13.6949   64.3074 N   0  0  0  0  0  0  0  0  0  0  0  0
   19.2709   17.6754   62.5972 N   0  0  0  0  0  0  0  0  0  0  0  0
   19.1139   16.5202   63.2623 C   0  0  0  0  0  0  0  0  0  0  0  0
   20.4126   17.7227   62.1142 N   0  0  0  0  0  0  0  0  0  0  0  0
   20.6054   12.8520   64.5847 H   0  0  0  0  0  0  0  0  0  0  0  0
   19.2475   13.8832   64.5647 H   0  0  0  0  0  0  0  0  0  0  0  0
   13.1627   15.4137   64.1623 C   0  0  0  0  0  0  0  0  0  0  0  0
   18.0682   15.5647   65.2087 C   0  0  0  0  0  0  0  0  0  0  0  0
   14.2935   15.8379   63.4626 C   0  0  0  0  0  0  0  0  0  0  0  0
   16.9412   15.1331   65.9070 C   0  0  0  0  0  0  0  0  0  0  0  0
   14.5552   14.7944   66.0292 C   0  0  0  0  0  0  0  0  0  0  0  0
   16.6892   16.1913   63.3443 C   0  0  0  0  0  0  0  0  0  0  0  0
   13.2930   14.8948   65.4523 C   0  0  0  0  0  0  0  0  0  0  0  0
   17.9550   16.1163   63.9299 C   0  0  0  0  0  0  0  0  0  0  0  0
   15.6824   15.2277   65.3271 C   0  0  0  0  0  0  0  0  0  0  0  0
   15.5550   15.7483   64.0380 C   0  0  0  0  0  0  0  0  0  0  0  0
   12.1751   14.4757   66.1064 O   0  0  0  0  0  0  0  0  0  0  0  0
    9.7434   14.6628   65.8199 C   0  0  0  0  0  0  0  0  0  0  0  0
   11.0597   14.1049   65.2555 C   0  0  0  0  0  0  0  0  0  0  0  0
   19.8535   19.8547   60.9821 C   0  0  0  0  0  0  0  0  0  0  0  0
   21.5832   18.2773   60.0395 C   0  0  0  0  0  0  0  0  0  0  0  0
   20.9512   18.8419   61.3169 C   0  0  0  0  0  0  0  0  0  0  0  0
  1  6  2  0  0  0
  2  1  1  0  0  0
  3  2  2  0  0  0
  3  4  1  0  0  0
  4 10  1  0  0  0
  4  5  2  0  0  0
  5  6  1  0  0  0
  5  9  1  0  0  0
  6  7  1  0  0  0
 27 28  1  0  0  0
 14 16  2  0  0  0
 14 20  1  0  0  0
 15 13  2  0  0  0
 16 21  1  0  0  0
 17 19  2  0  0  0
 18 22  1  0  0  0
 25 24  1  0  0  0
 25 23  1  0  0  0
  8  9  2  0  0  0
 19 13  1  0  0  0
 19 23  1  0  0  0
 20 18  2  0  0  0
  9 20  1  0  0  0
 21 17  1  0  0  0
 21 22  2  0  0  0
 22 15  1  0  0  0
 28 26  1  0  0  0
 28 10  1  0  0  0
 10  8  1  0  0  0
  7 11  1  0  0  0
  7 12  1  0  0  0
M  END
> <minimizedAffinity>
-8.83885

$$$$
3SXF_BK5_A_701


 28 31  0  0  0  0  0  0  0  0999 V2000
   24.0280   20.4679   62.5026 N   0  0  0  0  0  0  0  0  0  0  0  0
   25.1825   20.3695   61.8430 C   0  0  0  0  0  0  0  0  0  0  0  0
   25.6181   19.1994   61.3937 N   0  0  0  0  0  0  0  0  0  0  0  0
   24.9066   18.0766   61.6088 C   0  0  0  0  0  0  0  0  0  0  0  0
   23.6972   18.1313   62.2856 C   0  0  0  0  0  0  0  0  0  0  0  0
   23.2595   19.3892   62.7366 C   0  0  0  0  0  0  0  0  0  0  0  0
   22.1179   19.5665   63.4040 N   0  0  0  0  0  0  0  0  0  0  0  0
   24.1845   16.0653   61.6534 N   0  0  0  0  0  0  0  0  0  0  0  0
   23.2566   16.7967   62.2903 C   0  0  0  0  0  0  0  0  0  0  0  0
   25.1084   16.8039   61.2797 N   0  0  0  0  0  0  0  0  0  0  0  0
   21.8551   20.4683   63.6988 H   0  0  0  0  0  0  0  0  0  0  0  0
   21.5384   18.7956   63.6016 H   0  0  0  0  0  0  0  0  0  0  0  0
   17.2792   16.4138   63.5457 C   0  0  0  0  0  0  0  0  0  0  0  0
   22.1335   15.1452   63.6342 C   0  0  0  0  0  0  0  0  0  0  0  0
   18.4340   16.9458   62.9695 C   0  0  0  0  0  0  0  0  0  0  0  0
   20.9808   14.6071   64.2048 C   0  0  0  0  0  0  0  0  0  0  0  0
   18.5948   14.6678   64.5599 C   0  0  0  0  0  0  0  0  0  0  0  0
   20.8330   16.8936   62.6234 C   0  0  0  0  0  0  0  0  0  0  0  0
   17.3603   15.2737   64.3482 C   0  0  0  0  0  0  0  0  0  0  0  0
   22.0776   16.3034   62.8548 C   0  0  0  0  0  0  0  0  0  0  0  0
   19.7479   15.2092   63.9869 C   0  0  0  0  0  0  0  0  0  0  0  0
   19.6702   16.3498   63.1856 C   0  0  0  0  0  0  0  0  0  0  0  0
   16.2166   14.7681   64.8862 O   0  0  0  0  0  0  0  0  0  0  0  0
   13.9521   15.1732   65.7455 C   0  0  0  0  0  0  0  0  0  0  0  0
   15.0427   15.6110   64.7549 C   0  0  0  0  0  0  0  0  0  0  0  0
   26.2102   16.7285   59.0616 C   0  0  0  0  0  0  0  0  0  0  0  0
   26.4575   14.8421   60.7196 C   0  0  0  0  0  0  0  0  0  0  0  0
   26.3071   16.3574   60.5434 C   0  0  0  0  0  0  0  0  0  0  0  0
  1  6  2  0  0  0
  2  1  1  0  0  0
  3  2  2  0  0  0
  3  4  1  0  0  0
  4 10  1  0  0  0
  4  5  2  0  0  0
  5  6  1  0  0  0
  5  9  1  0  0  0
  6  7  1  0  0  0
 27 28  1  0  0  0
 14 16  2  0  0  0
 14 20  1  0  0  0
 15 13  2  0  0  0
 16 21  1  0  0  0
 17 19  2  0  0  0
 18 22  1  0  0  0
 25 24  1  0  0  0
 25 23  1  0  0  0
  8  9  2  0  0  0
 19 13  1  0  0  0
 19 23  1  0  0  0
 20 18  2  0  0  0
  9 20  1  0  0  0
 21 17  1  0  0  0
 21 22  2  0  0  0
 22 15  1  0  0  0
 28 26  1  0  0  0
 28 10  1  0  0  0
 10  8  1  0  0  0
  7 11  1  0  0  0
  7 12  1  0  0  0
M  END
> <minimizedAffinity>
-8.23205

$$$$
3SXF_BK5_A_701


 28 31  0  0  0  0  0  0  0  0999 V2000
   15.5546   14.0559   67.2109 N   0  0  0  0  0  0  0  0  0  0  0  0
   14.2271   14.0234   67.0907 C   0  0  0  0  0  0  0  0  0  0  0  0
   13.6255   14.4855   66.0020 N   0  0  0  0  0  0  0  0  0  0  0  0
   14.3462   15.0146   64.9951 C   0  0  0  0  0  0  0  0  0  0  0  0
   15.7300   15.0646   65.0736 C   0  0  0  0  0  0  0  0  0  0  0  0
   16.3353   14.5545   66.2357 C   0  0  0  0  0  0  0  0  0  0  0  0
   17.6555   14.5539   66.4287 N   0  0  0  0  0  0  0  0  0  0  0  0
   14.9916   15.9018   63.1606 N   0  0  0  0  0  0  0  0  0  0  0  0
   16.1128   15.6482   63.8536 C   0  0  0  0  0  0  0  0  0  0  0  0
   14.0061   15.5408   63.8219 N   0  0  0  0  0  0  0  0  0  0  0  0
   18.0312   14.1848   67.2606 H   0  0  0  0  0  0  0  0  0  0  0  0
   18.2540   14.9224   65.7393 H   0  0  0  0  0  0  0  0  0  0  0  0
   20.9298   18.9931   62.1044 C   0  0  0  0  0  0  0  0  0  0  0  0
   18.3230   14.8742   63.2965 C   0  0  0  0  0  0  0  0  0  0  0  0
   19.6178   18.7589   62.5194 C   0  0  0  0  0  0  0  0  0  0  0  0
   19.6363   15.1058   62.8895 C   0  0  0  0  0  0  0  0  0  0  0  0
   21.3835   16.6290   62.2189 C   0  0  0  0  0  0  0  0  0  0  0  0
   17.8577   17.2279   63.1800 C   0  0  0  0  0  0  0  0  0  0  0  0
   21.8147   17.9239   61.9485 C   0  0  0  0  0  0  0  0  0  0  0  0
   17.4137   15.9269   63.4274 C   0  0  0  0  0  0  0  0  0  0  0  0
   20.0672   16.4001   62.6265 C   0  0  0  0  0  0  0  0  0  0  0  0
   19.1799   17.4666   62.7817 C   0  0  0  0  0  0  0  0  0  0  0  0
   23.0923   18.1824   61.5560 O   0  0  0  0  0  0  0  0  0  0  0  0
   24.5762   16.7227   60.2531 C   0  0  0  0  0  0  0  0  0  0  0  0
   23.4302   17.7461   60.2139 C   0  0  0  0  0  0  0  0  0  0  0  0
   11.6827   15.9690   64.5690 C   0  0  0  0  0  0  0  0  0  0  0  0
   12.1876   14.3511   62.6993 C   0  0  0  0  0  0  0  0  0  0  0  0
   12.6012   15.6583   63.3848 C   0  0  0  0  0  0  0  0  0  0  0  0
  1  6  2  0  0  0
  2  1  1  0  0  0
  3  2  2  0  0  0
  3  4  1  0  0  0
  4 10  1  0  0  0
  4  5  2  0  0  0
  5  6  1  0  0  0
  5  9  1  0  0  0
  6  7  1  0  0  0
 27 28  1  0  0  0
 14 16  2  0  0  0
 14 20  1  0  0  0
 15 13  2  0  0  0
 16 21  1  0  0  0
 17 19  2  0  0  0
 18 22  1  0  0  0
 25 24  1  0  0  0
 25 23  1  0  0  0
  8  9  2  0  0  0
 19 13  1  0  0  0
 19 23  1  0  0  0
 20 18  2  0  0  0
  9 20  1  0  0  0
 21 17  1  0  0  0
 21 22  2  0  0  0
 22 15  1  0  0  0
 28 26  1  0  0  0
 28 10  1  0  0  0
 10  8  1  0  0  0
  7 11  1  0  0  0
  7 12  1  0  0  0
M  END
> <minimizedAffinity>
-8.00550

$$$$
