4DFG_0JV_B_201


 47 50  0  0  0  0  0  0  0  0999 V2000
   14.9220   22.6557   17.1972 C   0  0  0  0  0  0  0  0  0  0  0  0
   14.1661   21.6436   17.9206 N   0  0  0  0  0  0  0  0  0  0  0  0
   14.6284   20.5811   18.5780 C   0  0  0  0  0  0  0  0  0  0  0  0
   15.8443   20.3927   18.7429 O   0  0  0  0  0  0  0  0  0  0  0  0
   13.1884   21.7591   17.9246 H   0  0  0  0  0  0  0  0  0  0  0  0
   13.6461   19.7630   19.0665 O   0  0  0  0  0  0  0  0  0  0  0  0
   14.1243   18.4024   19.2826 C   0  0  0  0  0  0  0  0  0  0  0  0
   13.2293   17.8727   20.4155 C   0  0  0  0  0  0  0  0  0  0  0  0
   11.9229   17.4222   19.7752 C   0  0  0  0  0  0  0  0  0  0  0  0
   11.0633   18.5164   19.4890 O   0  0  0  0  0  0  0  0  0  0  0  0
   10.7331   18.5645   18.1030 C   0  0  0  0  0  0  0  0  0  0  0  0
   11.1378   17.2025   17.5588 C   0  0  0  0  0  0  0  0  0  0  0  0
   12.3462   16.8708   18.4394 C   0  0  0  0  0  0  0  0  0  0  0  0
   13.6734   17.5331   18.1048 C   0  0  0  0  0  0  0  0  0  0  0  0
   11.4888   17.1275   16.1529 N   0  0  0  0  0  0  0  0  0  0  0  0
   10.5959   16.8941   15.1724 C   0  0  0  0  0  0  0  0  0  0  0  0
    9.3607   16.8746   15.3246 O   0  0  0  0  0  0  0  0  0  0  0  0
   12.4323   17.2543   15.9019 H   0  0  0  0  0  0  0  0  0  0  0  0
   10.9825   16.7134   13.8764 O   0  0  0  0  0  0  0  0  0  0  0  0
   11.1359   15.2967   13.6222 C   0  0  0  0  0  0  0  0  0  0  0  0
   15.3909   23.7491   18.1539 C   0  0  0  0  0  0  0  0  0  0  0  0
   14.2440   24.5082   18.5458 O   0  0  0  0  0  0  0  0  0  0  0  0
   13.8543   24.9317   17.7650 H   0  0  0  0  0  0  0  0  0  0  0  0
   16.5626   24.6066   17.6551 C   0  0  0  0  0  0  0  0  0  0  0  0
   17.7872   23.8297   17.5479 N   0  0  0  0  0  0  0  0  0  0  0  0
   18.5690   23.8178   16.0929 S   0  0  0  0  0  0  0  0  0  0  0  0
   17.5235   23.7563   15.0523 O   0  0  0  0  0  0  0  0  0  0  0  0
   19.5298   22.6954   16.1540 O   0  0  0  0  0  0  0  0  0  0  0  0
   20.7064   27.8114   15.6240 C   0  0  0  0  0  0  0  0  0  0  0  0
   19.8155   27.3501   14.6680 C   0  0  0  0  0  0  0  0  0  0  0  0
   19.1668   26.1411   14.8089 C   0  0  0  0  0  0  0  0  0  0  0  0
   19.3994   25.3540   15.9248 C   0  0  0  0  0  0  0  0  0  0  0  0
   20.2872   25.8376   16.8547 C   0  0  0  0  0  0  0  0  0  0  0  0
   20.9614   27.0406   16.7591 C   0  0  0  0  0  0  0  0  0  0  0  0
   21.2565   29.0092   15.3396 O   0  0  0  0  0  0  0  0  0  0  0  0
   22.6662   28.9131   15.2150 C   0  0  0  0  0  0  0  0  0  0  0  0
   18.6553   23.8374   18.7075 C   0  0  0  0  0  0  0  0  0  0  0  0
   18.6605   22.4983   19.4554 C   0  0  0  0  0  0  0  0  0  0  0  0
   20.0638   22.1014   19.9464 C   0  0  0  0  0  0  0  0  0  0  0  0
   17.7183   22.6232   20.6686 C   0  0  0  0  0  0  0  0  0  0  0  0
   14.1216   23.2150   16.0143 C   0  0  0  0  0  0  0  0  0  0  0  0
   14.9910   21.8394   14.0944 C   0  0  0  0  0  0  0  0  0  0  0  0
   14.9022   20.8349   13.1391 C   0  0  0  0  0  0  0  0  0  0  0  0
   13.7467   20.0711   13.0817 C   0  0  0  0  0  0  0  0  0  0  0  0
   12.7041   20.3006   13.9545 C   0  0  0  0  0  0  0  0  0  0  0  0
   12.7943   21.3162   14.9191 C   0  0  0  0  0  0  0  0  0  0  0  0
   13.9485   22.0855   14.9834 C   0  0  0  0  0  0  0  0  0  0  0  0
 20 19  1  0  0  0
 19 16  1  0  0  0
 44 45  2  0  0  0
 44 43  1  0  0  0
 45 46  1  0  0  0
 43 42  2  0  0  0
 46 47  2  0  0  0
 17 16  2  0  0  0
 16 15  1  0  0  0
 35 36  1  0  0  0
 35 29  1  0  0  0
 30 29  2  0  0  0
 30 31  1  0  0  0
 42 47  1  0  0  0
 47 41  1  0  0  0
 29 34  1  0  0  0
 27 26  2  0  0  0
 31 32  2  0  0  0
 15 12  1  0  0  0
 34 33  2  0  0  0
 32 33  1  0  0  0
 32 26  1  0  0  0
 41  1  1  0  0  0
 26 28  2  0  0  0
 26 25  1  0  0  0
 12 11  1  0  0  0
 12 13  1  0  0  0
  1  2  1  0  0  0
  1 21  1  0  0  0
 11 10  1  0  0  0
 25 24  1  0  0  0
 25 37  1  0  0  0
 24 21  1  0  0  0
 14 13  1  0  0  0
 14  7  1  0  0  0
  4  3  2  0  0  0
  2  3  1  0  0  0
 13  9  1  0  0  0
  3  6  1  0  0  0
 21 22  1  0  0  0
  6  7  1  0  0  0
 37 38  1  0  0  0
 10  9  1  0  0  0
  7  8  1  0  0  0
  9  8  1  0  0  0
 39 38  1  0  0  0
 38 40  1  0  0  0
 22 23  1  0  0  0
  2  5  1  0  0  0
 15 18  1  0  0  0
M  END
> <minimizedAffinity>
-10.39375

$$$$
4DFG_0JV_B_201


 47 50  0  0  0  0  0  0  0  0999 V2000
   17.5321   24.2648   18.4639 C   0  0  0  0  0  0  0  0  0  0  0  0
   18.3241   25.2529   17.7462 N   0  0  0  0  0  0  0  0  0  0  0  0
   18.8213   25.1744   16.5127 C   0  0  0  0  0  0  0  0  0  0  0  0
   18.5486   24.2278   15.7572 O   0  0  0  0  0  0  0  0  0  0  0  0
   18.5171   26.0856   18.2348 H   0  0  0  0  0  0  0  0  0  0  0  0
   19.6134   26.2357   16.1675 O   0  0  0  0  0  0  0  0  0  0  0  0
   19.9439   26.2327   14.7472 C   0  0  0  0  0  0  0  0  0  0  0  0
   19.9027   27.7195   14.3560 C   0  0  0  0  0  0  0  0  0  0  0  0
   21.2373   28.3246   14.7710 C   0  0  0  0  0  0  0  0  0  0  0  0
   21.2881   28.6018   16.1634 O   0  0  0  0  0  0  0  0  0  0  0  0
   22.3750   27.9212   16.7858 C   0  0  0  0  0  0  0  0  0  0  0  0
   23.2622   27.4699   15.6350 C   0  0  0  0  0  0  0  0  0  0  0  0
   22.2266   27.2140   14.5360 C   0  0  0  0  0  0  0  0  0  0  0  0
   21.4348   25.9171   14.5930 C   0  0  0  0  0  0  0  0  0  0  0  0
   24.0840   26.2940   15.8525 N   0  0  0  0  0  0  0  0  0  0  0  0
   25.3386   26.3402   16.3394 C   0  0  0  0  0  0  0  0  0  0  0  0
   25.8835   27.3570   16.8068 O   0  0  0  0  0  0  0  0  0  0  0  0
   23.7031   25.4134   15.6319 H   0  0  0  0  0  0  0  0  0  0  0  0
   26.1204   25.2248   16.4180 O   0  0  0  0  0  0  0  0  0  0  0  0
   26.4112   24.9485   17.8088 C   0  0  0  0  0  0  0  0  0  0  0  0
   16.0500   24.4417   18.1431 C   0  0  0  0  0  0  0  0  0  0  0  0
   15.6068   25.6458   18.7746 O   0  0  0  0  0  0  0  0  0  0  0  0
   15.7035   25.5611   19.7361 H   0  0  0  0  0  0  0  0  0  0  0  0
   15.1606   23.2244   18.4331 C   0  0  0  0  0  0  0  0  0  0  0  0
   15.5412   22.0779   17.6235 N   0  0  0  0  0  0  0  0  0  0  0  0
   16.1963   20.7720   18.3941 S   0  0  0  0  0  0  0  0  0  0  0  0
   16.6428   21.2442   19.7198 O   0  0  0  0  0  0  0  0  0  0  0  0
   17.2304   20.2359   17.4832 O   0  0  0  0  0  0  0  0  0  0  0  0
   12.8763   17.7214   19.0325 C   0  0  0  0  0  0  0  0  0  0  0  0
   13.9824   17.4346   18.2484 C   0  0  0  0  0  0  0  0  0  0  0  0
   14.9891   18.3573   18.0547 C   0  0  0  0  0  0  0  0  0  0  0  0
   14.9100   19.6064   18.6483 C   0  0  0  0  0  0  0  0  0  0  0  0
   13.8023   19.8612   19.4193 C   0  0  0  0  0  0  0  0  0  0  0  0
   12.7684   18.9714   19.6433 C   0  0  0  0  0  0  0  0  0  0  0  0
   11.9826   16.7156   19.1227 O   0  0  0  0  0  0  0  0  0  0  0  0
   11.3393   16.4839   17.8800 C   0  0  0  0  0  0  0  0  0  0  0  0
   14.6663   21.7570   16.5145 C   0  0  0  0  0  0  0  0  0  0  0  0
   14.9093   22.6463   15.2886 C   0  0  0  0  0  0  0  0  0  0  0  0
   15.7409   21.9412   14.2028 C   0  0  0  0  0  0  0  0  0  0  0  0
   13.5392   23.0367   14.7007 C   0  0  0  0  0  0  0  0  0  0  0  0
   17.8150   24.3059   19.9709 C   0  0  0  0  0  0  0  0  0  0  0  0
   20.1729   24.9201   20.6010 C   0  0  0  0  0  0  0  0  0  0  0  0
   21.5179   24.6470   20.8152 C   0  0  0  0  0  0  0  0  0  0  0  0
   21.9761   23.3553   20.6075 C   0  0  0  0  0  0  0  0  0  0  0  0
   21.1167   22.3583   20.1968 C   0  0  0  0  0  0  0  0  0  0  0  0
   19.7579   22.6351   19.9799 C   0  0  0  0  0  0  0  0  0  0  0  0
   19.2908   23.9264   20.1861 C   0  0  0  0  0  0  0  0  0  0  0  0
 20 19  1  0  0  0
 19 16  1  0  0  0
 44 45  2  0  0  0
 44 43  1  0  0  0
 45 46  1  0  0  0
 43 42  2  0  0  0
 46 47  2  0  0  0
 17 16  2  0  0  0
 16 15  1  0  0  0
 35 36  1  0  0  0
 35 29  1  0  0  0
 30 29  2  0  0  0
 30 31  1  0  0  0
 42 47  1  0  0  0
 47 41  1  0  0  0
 29 34  1  0  0  0
 27 26  2  0  0  0
 31 32  2  0  0  0
 15 12  1  0  0  0
 34 33  2  0  0  0
 32 33  1  0  0  0
 32 26  1  0  0  0
 41  1  1  0  0  0
 26 28  2  0  0  0
 26 25  1  0  0  0
 12 11  1  0  0  0
 12 13  1  0  0  0
  1  2  1  0  0  0
  1 21  1  0  0  0
 11 10  1  0  0  0
 25 24  1  0  0  0
 25 37  1  0  0  0
 24 21  1  0  0  0
 14 13  1  0  0  0
 14  7  1  0  0  0
  4  3  2  0  0  0
  2  3  1  0  0  0
 13  9  1  0  0  0
  3  6  1  0  0  0
 21 22  1  0  0  0
  6  7  1  0  0  0
 37 38  1  0  0  0
 10  9  1  0  0  0
  7  8  1  0  0  0
  9  8  1  0  0  0
 39 38  1  0  0  0
 38 40  1  0  0  0
 22 23  1  0  0  0
  2  5  1  0  0  0
 15 18  1  0  0  0
M  END
> <minimizedAffinity>
-10.15237

$$$$
4DFG_0JV_B_201


 47 50  0  0  0  0  0  0  0  0999 V2000
   16.0604   23.1968   17.1979 C   0  0  0  0  0  0  0  0  0  0  0  0
   15.7004   21.8666   17.6668 N   0  0  0  0  0  0  0  0  0  0  0  0
   14.9922   21.5352   18.7455 C   0  0  0  0  0  0  0  0  0  0  0  0
   14.4366   22.3923   19.4510 O   0  0  0  0  0  0  0  0  0  0  0  0
   16.0212   21.1160   17.1164 H   0  0  0  0  0  0  0  0  0  0  0  0
   14.9176   20.1865   18.9647 O   0  0  0  0  0  0  0  0  0  0  0  0
   14.9925   19.4253   17.7230 C   0  0  0  0  0  0  0  0  0  0  0  0
   14.9329   17.9597   18.1850 C   0  0  0  0  0  0  0  0  0  0  0  0
   13.4652   17.6280   18.4208 C   0  0  0  0  0  0  0  0  0  0  0  0
   12.9973   18.1307   19.6643 O   0  0  0  0  0  0  0  0  0  0  0  0
   11.8866   19.0056   19.4822 C   0  0  0  0  0  0  0  0  0  0  0  0
   11.4198   18.7507   18.0566 C   0  0  0  0  0  0  0  0  0  0  0  0
   12.7418   18.4148   17.3601 C   0  0  0  0  0  0  0  0  0  0  0  0
   13.6594   19.5668   16.9820 C   0  0  0  0  0  0  0  0  0  0  0  0
   10.7409   19.8380   17.3765 N   0  0  0  0  0  0  0  0  0  0  0  0
   10.0520   19.6861   16.2296 C   0  0  0  0  0  0  0  0  0  0  0  0
    9.7783   18.5918   15.7034 O   0  0  0  0  0  0  0  0  0  0  0  0
   10.7866   20.7367   17.7759 H   0  0  0  0  0  0  0  0  0  0  0  0
    9.5281   20.7528   15.5593 O   0  0  0  0  0  0  0  0  0  0  0  0
    9.6105   20.5034   14.1359 C   0  0  0  0  0  0  0  0  0  0  0  0
   16.4535   24.0840   18.3766 C   0  0  0  0  0  0  0  0  0  0  0  0
   15.3931   25.0189   18.5926 O   0  0  0  0  0  0  0  0  0  0  0  0
   15.2922   25.5802   17.8080 H   0  0  0  0  0  0  0  0  0  0  0  0
   17.8427   24.7307   18.2833 C   0  0  0  0  0  0  0  0  0  0  0  0
   18.8080   24.0511   19.1325 N   0  0  0  0  0  0  0  0  0  0  0  0
   20.3448   24.6538   19.1900 S   0  0  0  0  0  0  0  0  0  0  0  0
   21.2546   23.4911   19.1913 O   0  0  0  0  0  0  0  0  0  0  0  0
   20.3892   25.5491   20.3660 O   0  0  0  0  0  0  0  0  0  0  0  0
   21.0576   26.9359   15.3143 C   0  0  0  0  0  0  0  0  0  0  0  0
   20.8866   25.5607   15.3241 C   0  0  0  0  0  0  0  0  0  0  0  0
   20.6699   24.8682   16.4971 C   0  0  0  0  0  0  0  0  0  0  0  0
   20.6203   25.5454   17.7044 C   0  0  0  0  0  0  0  0  0  0  0  0
   20.7933   26.9074   17.6628 C   0  0  0  0  0  0  0  0  0  0  0  0
   21.0131   27.6457   16.5150 C   0  0  0  0  0  0  0  0  0  0  0  0
   21.2595   27.4626   14.0895 O   0  0  0  0  0  0  0  0  0  0  0  0
   22.3454   28.3751   14.0927 C   0  0  0  0  0  0  0  0  0  0  0  0
   18.3061   23.5375   20.3905 C   0  0  0  0  0  0  0  0  0  0  0  0
   18.3173   22.0050   20.4542 C   0  0  0  0  0  0  0  0  0  0  0  0
   18.6587   21.3600   19.0994 C   0  0  0  0  0  0  0  0  0  0  0  0
   19.3687   21.5764   21.4962 C   0  0  0  0  0  0  0  0  0  0  0  0
   14.9430   23.8133   16.3469 C   0  0  0  0  0  0  0  0  0  0  0  0
   15.7113   22.3793   14.4267 C   0  0  0  0  0  0  0  0  0  0  0  0
   15.5128   21.5045   13.3661 C   0  0  0  0  0  0  0  0  0  0  0  0
   14.2206   21.0985   13.0710 C   0  0  0  0  0  0  0  0  0  0  0  0
   13.1507   21.5515   13.8136 C   0  0  0  0  0  0  0  0  0  0  0  0
   13.3519   22.4360   14.8847 C   0  0  0  0  0  0  0  0  0  0  0  0
   14.6433   22.8472   15.1871 C   0  0  0  0  0  0  0  0  0  0  0  0
 20 19  1  0  0  0
 19 16  1  0  0  0
 44 45  2  0  0  0
 44 43  1  0  0  0
 45 46  1  0  0  0
 43 42  2  0  0  0
 46 47  2  0  0  0
 17 16  2  0  0  0
 16 15  1  0  0  0
 35 36  1  0  0  0
 35 29  1  0  0  0
 30 29  2  0  0  0
 30 31  1  0  0  0
 42 47  1  0  0  0
 47 41  1  0  0  0
 29 34  1  0  0  0
 27 26  2  0  0  0
 31 32  2  0  0  0
 15 12  1  0  0  0
 34 33  2  0  0  0
 32 33  1  0  0  0
 32 26  1  0  0  0
 41  1  1  0  0  0
 26 28  2  0  0  0
 26 25  1  0  0  0
 12 11  1  0  0  0
 12 13  1  0  0  0
  1  2  1  0  0  0
  1 21  1  0  0  0
 11 10  1  0  0  0
 25 24  1  0  0  0
 25 37  1  0  0  0
 24 21  1  0  0  0
 14 13  1  0  0  0
 14  7  1  0  0  0
  4  3  2  0  0  0
  2  3  1  0  0  0
 13  9  1  0  0  0
  3  6  1  0  0  0
 21 22  1  0  0  0
  6  7  1  0  0  0
 37 38  1  0  0  0
 10  9  1  0  0  0
  7  8  1  0  0  0
  9  8  1  0  0  0
 39 38  1  0  0  0
 38 40  1  0  0  0
 22 23  1  0  0  0
  2  5  1  0  0  0
 15 18  1  0  0  0
M  END
> <minimizedAffinity>
-9.82878

$$$$
4DFG_0JV_B_201


 47 50  0  0  0  0  0  0  0  0999 V2000
   16.3458   22.0119   17.5225 C   0  0  0  0  0  0  0  0  0  0  0  0
   15.2592   21.1085   17.8715 N   0  0  0  0  0  0  0  0  0  0  0  0
   14.2654   21.3078   18.7363 C   0  0  0  0  0  0  0  0  0  0  0  0
   14.0925   22.4046   19.2914 O   0  0  0  0  0  0  0  0  0  0  0  0
   15.2584   20.2391   17.4095 H   0  0  0  0  0  0  0  0  0  0  0  0
   13.4603   20.2156   18.9143 O   0  0  0  0  0  0  0  0  0  0  0  0
   14.1947   19.0763   19.4520 C   0  0  0  0  0  0  0  0  0  0  0  0
   13.4540   18.7436   20.7582 C   0  0  0  0  0  0  0  0  0  0  0  0
   12.2364   17.9113   20.3782 C   0  0  0  0  0  0  0  0  0  0  0  0
   11.1760   18.7136   19.8783 O   0  0  0  0  0  0  0  0  0  0  0  0
   10.7974   18.3086   18.5649 C   0  0  0  0  0  0  0  0  0  0  0  0
   11.4349   16.9394   18.3807 C   0  0  0  0  0  0  0  0  0  0  0  0
   12.7125   17.0852   19.2127 C   0  0  0  0  0  0  0  0  0  0  0  0
   13.8784   17.8442   18.5987 C   0  0  0  0  0  0  0  0  0  0  0  0
   11.7474   16.5303   17.0241 N   0  0  0  0  0  0  0  0  0  0  0  0
   10.8699   15.9137   16.2099 C   0  0  0  0  0  0  0  0  0  0  0  0
    9.6582   15.7643   16.4521 O   0  0  0  0  0  0  0  0  0  0  0  0
   12.6513   16.7137   16.6798 H   0  0  0  0  0  0  0  0  0  0  0  0
   11.2375   15.4392   14.9846 O   0  0  0  0  0  0  0  0  0  0  0  0
   10.6844   14.1135   14.8057 C   0  0  0  0  0  0  0  0  0  0  0  0
   17.1307   22.4019   18.7726 C   0  0  0  0  0  0  0  0  0  0  0  0
   16.7841   23.7492   19.1037 O   0  0  0  0  0  0  0  0  0  0  0  0
   17.0493   24.3384   18.3801 H   0  0  0  0  0  0  0  0  0  0  0  0
   18.6433   22.1468   18.7102 C   0  0  0  0  0  0  0  0  0  0  0  0
   19.4003   23.3825   18.8320 N   0  0  0  0  0  0  0  0  0  0  0  0
   20.0328   23.7576   20.3111 S   0  0  0  0  0  0  0  0  0  0  0  0
   20.5447   22.4967   20.8835 O   0  0  0  0  0  0  0  0  0  0  0  0
   18.9566   24.4496   21.0525 O   0  0  0  0  0  0  0  0  0  0  0  0
   23.6157   26.4858   19.6358 C   0  0  0  0  0  0  0  0  0  0  0  0
   23.7724   25.1769   20.0632 C   0  0  0  0  0  0  0  0  0  0  0  0
   22.6883   24.3491   20.2675 C   0  0  0  0  0  0  0  0  0  0  0  0
   21.4041   24.8195   20.0472 C   0  0  0  0  0  0  0  0  0  0  0  0
   21.2807   26.1204   19.6243 C   0  0  0  0  0  0  0  0  0  0  0  0
   22.3343   26.9882   19.4057 C   0  0  0  0  0  0  0  0  0  0  0  0
   24.7716   27.1633   19.4834 O   0  0  0  0  0  0  0  0  0  0  0  0
   25.5501   27.1288   20.6686 C   0  0  0  0  0  0  0  0  0  0  0  0
   20.2356   23.7369   17.7030 C   0  0  0  0  0  0  0  0  0  0  0  0
   19.4381   24.3372   16.5383 C   0  0  0  0  0  0  0  0  0  0  0  0
   18.7185   25.6412   16.9253 C   0  0  0  0  0  0  0  0  0  0  0  0
   20.4182   24.6253   15.3845 C   0  0  0  0  0  0  0  0  0  0  0  0
   15.8337   23.2323   16.7471 C   0  0  0  0  0  0  0  0  0  0  0  0
   13.8924   22.9864   15.1645 C   0  0  0  0  0  0  0  0  0  0  0  0
   13.2899   22.5654   13.9858 C   0  0  0  0  0  0  0  0  0  0  0  0
   14.0553   21.8809   13.0545 C   0  0  0  0  0  0  0  0  0  0  0  0
   15.3890   21.6216   13.2897 C   0  0  0  0  0  0  0  0  0  0  0  0
   15.9970   22.0467   14.4812 C   0  0  0  0  0  0  0  0  0  0  0  0
   15.2373   22.7334   15.4191 C   0  0  0  0  0  0  0  0  0  0  0  0
 20 19  1  0  0  0
 19 16  1  0  0  0
 44 45  2  0  0  0
 44 43  1  0  0  0
 45 46  1  0  0  0
 43 42  2  0  0  0
 46 47  2  0  0  0
 17 16  2  0  0  0
 16 15  1  0  0  0
 35 36  1  0  0  0
 35 29  1  0  0  0
 30 29  2  0  0  0
 30 31  1  0  0  0
 42 47  1  0  0  0
 47 41  1  0  0  0
 29 34  1  0  0  0
 27 26  2  0  0  0
 31 32  2  0  0  0
 15 12  1  0  0  0
 34 33  2  0  0  0
 32 33  1  0  0  0
 32 26  1  0  0  0
 41  1  1  0  0  0
 26 28  2  0  0  0
 26 25  1  0  0  0
 12 11  1  0  0  0
 12 13  1  0  0  0
  1  2  1  0  0  0
  1 21  1  0  0  0
 11 10  1  0  0  0
 25 24  1  0  0  0
 25 37  1  0  0  0
 24 21  1  0  0  0
 14 13  1  0  0  0
 14  7  1  0  0  0
  4  3  2  0  0  0
  2  3  1  0  0  0
 13  9  1  0  0  0
  3  6  1  0  0  0
 21 22  1  0  0  0
  6  7  1  0  0  0
 37 38  1  0  0  0
 10  9  1  0  0  0
  7  8  1  0  0  0
  9  8  1  0  0  0
 39 38  1  0  0  0
 38 40  1  0  0  0
 22 23  1  0  0  0
  2  5  1  0  0  0
 15 18  1  0  0  0
M  END
> <minimizedAffinity>
-9.75260

$$$$
4DFG_0JV_B_201


 47 50  0  0  0  0  0  0  0  0999 V2000
   16.9895   21.4797   18.4837 C   0  0  0  0  0  0  0  0  0  0  0  0
   15.7758   20.6868   18.6138 N   0  0  0  0  0  0  0  0  0  0  0  0
   14.5291   21.1125   18.8125 C   0  0  0  0  0  0  0  0  0  0  0  0
   14.2408   22.3199   18.7979 O   0  0  0  0  0  0  0  0  0  0  0  0
   15.8908   19.7114   18.5465 H   0  0  0  0  0  0  0  0  0  0  0  0
   13.6229   20.1034   18.9947 O   0  0  0  0  0  0  0  0  0  0  0  0
   14.2734   18.8217   19.2410 C   0  0  0  0  0  0  0  0  0  0  0  0
   13.5348   18.2634   20.4690 C   0  0  0  0  0  0  0  0  0  0  0  0
   12.2464   17.6292   19.9614 C   0  0  0  0  0  0  0  0  0  0  0  0
   11.2445   18.5991   19.6902 O   0  0  0  0  0  0  0  0  0  0  0  0
   10.8080   18.5251   18.3352 C   0  0  0  0  0  0  0  0  0  0  0  0
   11.3288   17.1875   17.8308 C   0  0  0  0  0  0  0  0  0  0  0  0
   12.6305   17.0494   18.6258 C   0  0  0  0  0  0  0  0  0  0  0  0
   13.8413   17.8369   18.1503 C   0  0  0  0  0  0  0  0  0  0  0  0
   11.5797   17.0677   16.4066 N   0  0  0  0  0  0  0  0  0  0  0  0
   10.6318   16.7441   15.5066 C   0  0  0  0  0  0  0  0  0  0  0  0
    9.4140   16.6670   15.7522 O   0  0  0  0  0  0  0  0  0  0  0  0
   12.4938   17.2321   16.0802 H   0  0  0  0  0  0  0  0  0  0  0  0
   10.9320   16.5256   14.1937 O   0  0  0  0  0  0  0  0  0  0  0  0
   11.1423   15.1085   13.9865 C   0  0  0  0  0  0  0  0  0  0  0  0
   17.5169   21.4072   17.0528 C   0  0  0  0  0  0  0  0  0  0  0  0
   18.3587   20.2553   16.9550 O   0  0  0  0  0  0  0  0  0  0  0  0
   19.1146   20.3554   17.5546 H   0  0  0  0  0  0  0  0  0  0  0  0
   18.1611   22.6946   16.5193 C   0  0  0  0  0  0  0  0  0  0  0  0
   17.1658   23.6089   15.9826 N   0  0  0  0  0  0  0  0  0  0  0  0
   17.3520   25.2208   16.2916 S   0  0  0  0  0  0  0  0  0  0  0  0
   16.8725   25.4446   17.6700 O   0  0  0  0  0  0  0  0  0  0  0  0
   16.6429   25.9301   15.2051 O   0  0  0  0  0  0  0  0  0  0  0  0
   21.8118   26.1333   16.1744 C   0  0  0  0  0  0  0  0  0  0  0  0
   21.0589   26.0498   15.0140 C   0  0  0  0  0  0  0  0  0  0  0  0
   19.7078   25.7742   15.0479 C   0  0  0  0  0  0  0  0  0  0  0  0
   19.0707   25.5713   16.2610 C   0  0  0  0  0  0  0  0  0  0  0  0
   19.8429   25.6605   17.3933 C   0  0  0  0  0  0  0  0  0  0  0  0
   21.1979   25.9336   17.4115 C   0  0  0  0  0  0  0  0  0  0  0  0
   23.1161   26.4097   15.9724 O   0  0  0  0  0  0  0  0  0  0  0  0
   23.4397   27.7198   16.4093 C   0  0  0  0  0  0  0  0  0  0  0  0
   16.6507   23.2952   14.6655 C   0  0  0  0  0  0  0  0  0  0  0  0
   15.5138   22.2662   14.7012 C   0  0  0  0  0  0  0  0  0  0  0  0
   14.1654   22.8894   15.1027 C   0  0  0  0  0  0  0  0  0  0  0  0
   15.3844   21.6462   13.2962 C   0  0  0  0  0  0  0  0  0  0  0  0
   18.0434   21.0664   19.5187 C   0  0  0  0  0  0  0  0  0  0  0  0
   20.1336   22.3898   19.9813 C   0  0  0  0  0  0  0  0  0  0  0  0
   20.8292   23.5110   20.4154 C   0  0  0  0  0  0  0  0  0  0  0  0
   20.1111   24.5967   20.8920 C   0  0  0  0  0  0  0  0  0  0  0  0
   18.7332   24.5683   20.9353 C   0  0  0  0  0  0  0  0  0  0  0  0
   18.0309   23.4348   20.4972 C   0  0  0  0  0  0  0  0  0  0  0  0
   18.7428   22.3431   20.0180 C   0  0  0  0  0  0  0  0  0  0  0  0
 20 19  1  0  0  0
 19 16  1  0  0  0
 44 45  2  0  0  0
 44 43  1  0  0  0
 45 46  1  0  0  0
 43 42  2  0  0  0
 46 47  2  0  0  0
 17 16  2  0  0  0
 16 15  1  0  0  0
 35 36  1  0  0  0
 35 29  1  0  0  0
 30 29  2  0  0  0
 30 31  1  0  0  0
 42 47  1  0  0  0
 47 41  1  0  0  0
 29 34  1  0  0  0
 27 26  2  0  0  0
 31 32  2  0  0  0
 15 12  1  0  0  0
 34 33  2  0  0  0
 32 33  1  0  0  0
 32 26  1  0  0  0
 41  1  1  0  0  0
 26 28  2  0  0  0
 26 25  1  0  0  0
 12 11  1  0  0  0
 12 13  1  0  0  0
  1  2  1  0  0  0
  1 21  1  0  0  0
 11 10  1  0  0  0
 25 24  1  0  0  0
 25 37  1  0  0  0
 24 21  1  0  0  0
 14 13  1  0  0  0
 14  7  1  0  0  0
  4  3  2  0  0  0
  2  3  1  0  0  0
 13  9  1  0  0  0
  3  6  1  0  0  0
 21 22  1  0  0  0
  6  7  1  0  0  0
 37 38  1  0  0  0
 10  9  1  0  0  0
  7  8  1  0  0  0
  9  8  1  0  0  0
 39 38  1  0  0  0
 38 40  1  0  0  0
 22 23  1  0  0  0
  2  5  1  0  0  0
 15 18  1  0  0  0
M  END
> <minimizedAffinity>
-9.58917

$$$$
4DFG_0JV_B_201


 47 50  0  0  0  0  0  0  0  0999 V2000
   17.0259   23.4091   16.8389 C   0  0  0  0  0  0  0  0  0  0  0  0
   17.8928   24.5478   16.5726 N   0  0  0  0  0  0  0  0  0  0  0  0
   19.1634   24.5420   16.1718 C   0  0  0  0  0  0  0  0  0  0  0  0
   19.7450   23.4909   15.8587 O   0  0  0  0  0  0  0  0  0  0  0  0
   17.4886   25.4355   16.7057 H   0  0  0  0  0  0  0  0  0  0  0  0
   19.7296   25.7864   16.1118 O   0  0  0  0  0  0  0  0  0  0  0  0
   20.1750   26.1205   14.7640 C   0  0  0  0  0  0  0  0  0  0  0  0
   20.0572   27.6528   14.7062 C   0  0  0  0  0  0  0  0  0  0  0  0
   21.3054   28.2191   15.3704 C   0  0  0  0  0  0  0  0  0  0  0  0
   21.2211   28.1784   16.7879 O   0  0  0  0  0  0  0  0  0  0  0  0
   22.3002   27.4339   17.3478 C   0  0  0  0  0  0  0  0  0  0  0  0
   23.3095   27.3008   16.2171 C   0  0  0  0  0  0  0  0  0  0  0  0
   22.3893   27.2439   14.9942 C   0  0  0  0  0  0  0  0  0  0  0  0
   21.6926   25.9272   14.6889 C   0  0  0  0  0  0  0  0  0  0  0  0
   24.1946   26.1514   16.2498 N   0  0  0  0  0  0  0  0  0  0  0  0
   25.4926   26.2190   16.6015 C   0  0  0  0  0  0  0  0  0  0  0  0
   26.0467   27.2217   17.0882 O   0  0  0  0  0  0  0  0  0  0  0  0
   23.8255   25.2732   16.0011 H   0  0  0  0  0  0  0  0  0  0  0  0
   26.3204   25.1386   16.5058 O   0  0  0  0  0  0  0  0  0  0  0  0
   26.4834   24.5503   17.8182 C   0  0  0  0  0  0  0  0  0  0  0  0
   15.9579   23.2932   15.7541 C   0  0  0  0  0  0  0  0  0  0  0  0
   14.7345   23.8053   16.2889 O   0  0  0  0  0  0  0  0  0  0  0  0
   14.4610   23.2641   17.0461 H   0  0  0  0  0  0  0  0  0  0  0  0
   15.8212   21.9083   15.1058 C   0  0  0  0  0  0  0  0  0  0  0  0
   14.4934   21.3509   15.3083 N   0  0  0  0  0  0  0  0  0  0  0  0
   13.4046   21.4820   14.0732 S   0  0  0  0  0  0  0  0  0  0  0  0
   14.1217   21.1116   12.8370 O   0  0  0  0  0  0  0  0  0  0  0  0
   12.8584   22.8538   14.1534 O   0  0  0  0  0  0  0  0  0  0  0  0
   10.1644   18.3531   14.7426 C   0  0  0  0  0  0  0  0  0  0  0  0
   11.0912   18.2287   13.7198 C   0  0  0  0  0  0  0  0  0  0  0  0
   12.0736   19.1751   13.5163 C   0  0  0  0  0  0  0  0  0  0  0  0
   12.1511   20.2844   14.3422 C   0  0  0  0  0  0  0  0  0  0  0  0
   11.2192   20.3802   15.3466 C   0  0  0  0  0  0  0  0  0  0  0  0
   10.2170   19.4599   15.5909 C   0  0  0  0  0  0  0  0  0  0  0  0
    9.2705   17.3457   14.8088 O   0  0  0  0  0  0  0  0  0  0  0  0
    9.6835   16.3491   15.7297 C   0  0  0  0  0  0  0  0  0  0  0  0
   14.4253   20.1105   16.0533 C   0  0  0  0  0  0  0  0  0  0  0  0
   14.8397   20.2747   17.5210 C   0  0  0  0  0  0  0  0  0  0  0  0
   13.8001   21.0551   18.3445 C   0  0  0  0  0  0  0  0  0  0  0  0
   15.0139   18.8697   18.1298 C   0  0  0  0  0  0  0  0  0  0  0  0
   16.4250   23.4789   18.2484 C   0  0  0  0  0  0  0  0  0  0  0  0
   18.1061   21.8883   19.2375 C   0  0  0  0  0  0  0  0  0  0  0  0
   19.1202   21.5346   20.1184 C   0  0  0  0  0  0  0  0  0  0  0  0
   19.5707   22.4783   21.0284 C   0  0  0  0  0  0  0  0  0  0  0  0
   19.0257   23.7445   21.0613 C   0  0  0  0  0  0  0  0  0  0  0  0
   18.0005   24.1011   20.1713 C   0  0  0  0  0  0  0  0  0  0  0  0
   17.5439   23.1616   19.2563 C   0  0  0  0  0  0  0  0  0  0  0  0
 20 19  1  0  0  0
 19 16  1  0  0  0
 44 45  2  0  0  0
 44 43  1  0  0  0
 45 46  1  0  0  0
 43 42  2  0  0  0
 46 47  2  0  0  0
 17 16  2  0  0  0
 16 15  1  0  0  0
 35 36  1  0  0  0
 35 29  1  0  0  0
 30 29  2  0  0  0
 30 31  1  0  0  0
 42 47  1  0  0  0
 47 41  1  0  0  0
 29 34  1  0  0  0
 27 26  2  0  0  0
 31 32  2  0  0  0
 15 12  1  0  0  0
 34 33  2  0  0  0
 32 33  1  0  0  0
 32 26  1  0  0  0
 41  1  1  0  0  0
 26 28  2  0  0  0
 26 25  1  0  0  0
 12 11  1  0  0  0
 12 13  1  0  0  0
  1  2  1  0  0  0
  1 21  1  0  0  0
 11 10  1  0  0  0
 25 24  1  0  0  0
 25 37  1  0  0  0
 24 21  1  0  0  0
 14 13  1  0  0  0
 14  7  1  0  0  0
  4  3  2  0  0  0
  2  3  1  0  0  0
 13  9  1  0  0  0
  3  6  1  0  0  0
 21 22  1  0  0  0
  6  7  1  0  0  0
 37 38  1  0  0  0
 10  9  1  0  0  0
  7  8  1  0  0  0
  9  8  1  0  0  0
 39 38  1  0  0  0
 38 40  1  0  0  0
 22 23  1  0  0  0
  2  5  1  0  0  0
 15 18  1  0  0  0
M  END
> <minimizedAffinity>
-9.52782

$$$$
4DFG_0JV_B_201


 47 50  0  0  0  0  0  0  0  0999 V2000
   15.6095   22.9681   16.9966 C   0  0  0  0  0  0  0  0  0  0  0  0
   15.6227   21.6202   17.5461 N   0  0  0  0  0  0  0  0  0  0  0  0
   14.9494   21.1499   18.5951 C   0  0  0  0  0  0  0  0  0  0  0  0
   14.0995   21.8347   19.1866 O   0  0  0  0  0  0  0  0  0  0  0  0
   16.2033   20.9736   17.0835 H   0  0  0  0  0  0  0  0  0  0  0  0
   15.2623   19.8575   18.9183 O   0  0  0  0  0  0  0  0  0  0  0  0
   15.1890   18.9713   17.7625 C   0  0  0  0  0  0  0  0  0  0  0  0
   15.0276   17.5722   18.3804 C   0  0  0  0  0  0  0  0  0  0  0  0
   13.5541   17.4085   18.7294 C   0  0  0  0  0  0  0  0  0  0  0  0
   13.2136   18.0768   19.9359 O   0  0  0  0  0  0  0  0  0  0  0  0
   12.1767   19.0313   19.7221 C   0  0  0  0  0  0  0  0  0  0  0  0
   11.5988   18.6800   18.3592 C   0  0  0  0  0  0  0  0  0  0  0  0
   12.8380   18.1501   17.6318 C   0  0  0  0  0  0  0  0  0  0  0  0
   13.8294   19.1646   17.0840 C   0  0  0  0  0  0  0  0  0  0  0  0
   10.9783   19.7532   17.6051 N   0  0  0  0  0  0  0  0  0  0  0  0
   10.3230   19.5669   16.4436 C   0  0  0  0  0  0  0  0  0  0  0  0
   10.0315   18.4572   15.9610 O   0  0  0  0  0  0  0  0  0  0  0  0
   11.0398   20.6684   17.9625 H   0  0  0  0  0  0  0  0  0  0  0  0
    9.8564   20.6153   15.7056 O   0  0  0  0  0  0  0  0  0  0  0  0
    9.6632   20.1818   14.3381 C   0  0  0  0  0  0  0  0  0  0  0  0
   15.8208   23.9936   18.1077 C   0  0  0  0  0  0  0  0  0  0  0  0
   14.5339   24.4581   18.5242 O   0  0  0  0  0  0  0  0  0  0  0  0
   14.0933   24.8990   17.7810 H   0  0  0  0  0  0  0  0  0  0  0  0
   16.8143   25.1196   17.7885 C   0  0  0  0  0  0  0  0  0  0  0  0
   18.1909   24.6574   17.8671 N   0  0  0  0  0  0  0  0  0  0  0  0
   18.6383   23.7876   19.1981 S   0  0  0  0  0  0  0  0  0  0  0  0
   18.5875   22.3642   18.8090 O   0  0  0  0  0  0  0  0  0  0  0  0
   17.7424   24.2226   20.2911 O   0  0  0  0  0  0  0  0  0  0  0  0
   22.9701   24.8537   20.1123 C   0  0  0  0  0  0  0  0  0  0  0  0
   22.0585   25.8143   19.7038 C   0  0  0  0  0  0  0  0  0  0  0  0
   20.7459   25.4931   19.4273 C   0  0  0  0  0  0  0  0  0  0  0  0
   20.3099   24.1844   19.5533 C   0  0  0  0  0  0  0  0  0  0  0  0
   21.2360   23.2550   19.9597 C   0  0  0  0  0  0  0  0  0  0  0  0
   22.5604   23.5267   20.2482 C   0  0  0  0  0  0  0  0  0  0  0  0
   24.2113   25.3274   20.3430 O   0  0  0  0  0  0  0  0  0  0  0  0
   24.4216   26.5661   19.6849 C   0  0  0  0  0  0  0  0  0  0  0  0
   18.7940   24.2241   16.6234 C   0  0  0  0  0  0  0  0  0  0  0  0
   19.5612   25.3457   15.9120 C   0  0  0  0  0  0  0  0  0  0  0  0
   20.8356   24.8392   15.2141 C   0  0  0  0  0  0  0  0  0  0  0  0
   18.6260   25.9738   14.8604 C   0  0  0  0  0  0  0  0  0  0  0  0
   14.3323   23.2326   16.1895 C   0  0  0  0  0  0  0  0  0  0  0  0
   13.2212   21.5857   14.6444 C   0  0  0  0  0  0  0  0  0  0  0  0
   13.1779   20.7476   13.5375 C   0  0  0  0  0  0  0  0  0  0  0  0
   14.2993   20.6559   12.7278 C   0  0  0  0  0  0  0  0  0  0  0  0
   15.4371   21.3812   13.0118 C   0  0  0  0  0  0  0  0  0  0  0  0
   15.4804   22.2274   14.1308 C   0  0  0  0  0  0  0  0  0  0  0  0
   14.3611   22.3252   14.9469 C   0  0  0  0  0  0  0  0  0  0  0  0
 20 19  1  0  0  0
 19 16  1  0  0  0
 44 45  2  0  0  0
 44 43  1  0  0  0
 45 46  1  0  0  0
 43 42  2  0  0  0
 46 47  2  0  0  0
 17 16  2  0  0  0
 16 15  1  0  0  0
 35 36  1  0  0  0
 35 29  1  0  0  0
 30 29  2  0  0  0
 30 31  1  0  0  0
 42 47  1  0  0  0
 47 41  1  0  0  0
 29 34  1  0  0  0
 27 26  2  0  0  0
 31 32  2  0  0  0
 15 12  1  0  0  0
 34 33  2  0  0  0
 32 33  1  0  0  0
 32 26  1  0  0  0
 41  1  1  0  0  0
 26 28  2  0  0  0
 26 25  1  0  0  0
 12 11  1  0  0  0
 12 13  1  0  0  0
  1  2  1  0  0  0
  1 21  1  0  0  0
 11 10  1  0  0  0
 25 24  1  0  0  0
 25 37  1  0  0  0
 24 21  1  0  0  0
 14 13  1  0  0  0
 14  7  1  0  0  0
  4  3  2  0  0  0
  2  3  1  0  0  0
 13  9  1  0  0  0
  3  6  1  0  0  0
 21 22  1  0  0  0
  6  7  1  0  0  0
 37 38  1  0  0  0
 10  9  1  0  0  0
  7  8  1  0  0  0
  9  8  1  0  0  0
 39 38  1  0  0  0
 38 40  1  0  0  0
 22 23  1  0  0  0
  2  5  1  0  0  0
 15 18  1  0  0  0
M  END
> <minimizedAffinity>
-9.48963

$$$$
4DFG_0JV_B_201


 47 50  0  0  0  0  0  0  0  0999 V2000
   15.7575   22.9013   17.0172 C   0  0  0  0  0  0  0  0  0  0  0  0
   14.8741   21.7924   17.3473 N   0  0  0  0  0  0  0  0  0  0  0  0
   15.2038   20.5451   17.6797 C   0  0  0  0  0  0  0  0  0  0  0  0
   16.3848   20.2073   17.8596 O   0  0  0  0  0  0  0  0  0  0  0  0
   13.9099   21.9893   17.3215 H   0  0  0  0  0  0  0  0  0  0  0  0
   14.1295   19.7110   17.8304 O   0  0  0  0  0  0  0  0  0  0  0  0
   14.3730   18.6807   18.8334 C   0  0  0  0  0  0  0  0  0  0  0  0
   13.4152   19.0480   19.9791 C   0  0  0  0  0  0  0  0  0  0  0  0
   12.0436   18.5032   19.6028 C   0  0  0  0  0  0  0  0  0  0  0  0
   11.3783   19.3347   18.6626 O   0  0  0  0  0  0  0  0  0  0  0  0
   11.0441   18.6121   17.4802 C   0  0  0  0  0  0  0  0  0  0  0  0
   11.2056   17.1476   17.8600 C   0  0  0  0  0  0  0  0  0  0  0  0
   12.3511   17.2218   18.8740 C   0  0  0  0  0  0  0  0  0  0  0  0
   13.7671   17.3639   18.3384 C   0  0  0  0  0  0  0  0  0  0  0  0
   11.5217   16.2165   16.7930 N   0  0  0  0  0  0  0  0  0  0  0  0
   10.7106   15.2096   16.4169 C   0  0  0  0  0  0  0  0  0  0  0  0
    9.5424   15.0498   16.8158 O   0  0  0  0  0  0  0  0  0  0  0  0
   12.3766   16.3271   16.3175 H   0  0  0  0  0  0  0  0  0  0  0  0
   11.0953   14.2847   15.4905 O   0  0  0  0  0  0  0  0  0  0  0  0
   10.0735   13.2646   15.3885 C   0  0  0  0  0  0  0  0  0  0  0  0
   15.8557   23.8672   18.1954 C   0  0  0  0  0  0  0  0  0  0  0  0
   14.5610   24.4386   18.4011 O   0  0  0  0  0  0  0  0  0  0  0  0
   14.3010   24.9422   17.6139 H   0  0  0  0  0  0  0  0  0  0  0  0
   16.9855   24.9031   18.1091 C   0  0  0  0  0  0  0  0  0  0  0  0
   18.2949   24.2744   18.1772 N   0  0  0  0  0  0  0  0  0  0  0  0
   19.4636   24.8108   17.1404 S   0  0  0  0  0  0  0  0  0  0  0  0
   18.8496   25.8804   16.3288 O   0  0  0  0  0  0  0  0  0  0  0  0
   19.9545   23.6144   16.4232 O   0  0  0  0  0  0  0  0  0  0  0  0
   22.7862   26.6643   19.6427 C   0  0  0  0  0  0  0  0  0  0  0  0
   22.8834   25.3714   19.1533 C   0  0  0  0  0  0  0  0  0  0  0  0
   21.8782   24.8089   18.3947 C   0  0  0  0  0  0  0  0  0  0  0  0
   20.7358   25.5370   18.1058 C   0  0  0  0  0  0  0  0  0  0  0  0
   20.6683   26.8150   18.6045 C   0  0  0  0  0  0  0  0  0  0  0  0
   21.6472   27.4225   19.3684 C   0  0  0  0  0  0  0  0  0  0  0  0
   23.8511   27.0670   20.3654 O   0  0  0  0  0  0  0  0  0  0  0  0
   24.5427   25.9621   20.9247 C   0  0  0  0  0  0  0  0  0  0  0  0
   18.7680   23.9192   19.4994 C   0  0  0  0  0  0  0  0  0  0  0  0
   19.0220   22.4146   19.6558 C   0  0  0  0  0  0  0  0  0  0  0  0
   20.3855   22.1097   20.3006 C   0  0  0  0  0  0  0  0  0  0  0  0
   17.9038   21.8291   20.5400 C   0  0  0  0  0  0  0  0  0  0  0  0
   15.3231   23.5984   15.7219 C   0  0  0  0  0  0  0  0  0  0  0  0
   15.5605   21.8187   13.9584 C   0  0  0  0  0  0  0  0  0  0  0  0
   15.0736   20.8436   13.0971 C   0  0  0  0  0  0  0  0  0  0  0  0
   13.7109   20.5900   13.0810 C   0  0  0  0  0  0  0  0  0  0  0  0
   12.8524   21.2893   13.9028 C   0  0  0  0  0  0  0  0  0  0  0  0
   13.3449   22.2749   14.7723 C   0  0  0  0  0  0  0  0  0  0  0  0
   14.7088   22.5347   14.7947 C   0  0  0  0  0  0  0  0  0  0  0  0
 20 19  1  0  0  0
 19 16  1  0  0  0
 44 45  2  0  0  0
 44 43  1  0  0  0
 45 46  1  0  0  0
 43 42  2  0  0  0
 46 47  2  0  0  0
 17 16  2  0  0  0
 16 15  1  0  0  0
 35 36  1  0  0  0
 35 29  1  0  0  0
 30 29  2  0  0  0
 30 31  1  0  0  0
 42 47  1  0  0  0
 47 41  1  0  0  0
 29 34  1  0  0  0
 27 26  2  0  0  0
 31 32  2  0  0  0
 15 12  1  0  0  0
 34 33  2  0  0  0
 32 33  1  0  0  0
 32 26  1  0  0  0
 41  1  1  0  0  0
 26 28  2  0  0  0
 26 25  1  0  0  0
 12 11  1  0  0  0
 12 13  1  0  0  0
  1  2  1  0  0  0
  1 21  1  0  0  0
 11 10  1  0  0  0
 25 24  1  0  0  0
 25 37  1  0  0  0
 24 21  1  0  0  0
 14 13  1  0  0  0
 14  7  1  0  0  0
  4  3  2  0  0  0
  2  3  1  0  0  0
 13  9  1  0  0  0
  3  6  1  0  0  0
 21 22  1  0  0  0
  6  7  1  0  0  0
 37 38  1  0  0  0
 10  9  1  0  0  0
  7  8  1  0  0  0
  9  8  1  0  0  0
 39 38  1  0  0  0
 38 40  1  0  0  0
 22 23  1  0  0  0
  2  5  1  0  0  0
 15 18  1  0  0  0
M  END
> <minimizedAffinity>
-9.34363

$$$$
4DFG_0JV_B_201


 47 50  0  0  0  0  0  0  0  0999 V2000
   18.0878   24.2757   15.9330 C   0  0  0  0  0  0  0  0  0  0  0  0
   16.9270   23.4325   15.6872 N   0  0  0  0  0  0  0  0  0  0  0  0
   16.8333   22.1073   15.7876 C   0  0  0  0  0  0  0  0  0  0  0  0
   17.7632   21.4187   16.2374 O   0  0  0  0  0  0  0  0  0  0  0  0
   16.1064   23.9013   15.4116 H   0  0  0  0  0  0  0  0  0  0  0  0
   15.6249   21.6066   15.3854 O   0  0  0  0  0  0  0  0  0  0  0  0
   14.5087   22.2796   16.0396 C   0  0  0  0  0  0  0  0  0  0  0  0
   13.9074   23.1591   14.9306 C   0  0  0  0  0  0  0  0  0  0  0  0
   13.0083   22.2613   14.0907 C   0  0  0  0  0  0  0  0  0  0  0  0
   13.7511   21.4654   13.1781 O   0  0  0  0  0  0  0  0  0  0  0  0
   13.5030   20.0768   13.3838 C   0  0  0  0  0  0  0  0  0  0  0  0
   12.2558   20.0288   14.2540 C   0  0  0  0  0  0  0  0  0  0  0  0
   12.4206   21.3010   15.0906 C   0  0  0  0  0  0  0  0  0  0  0  0
   13.3873   21.2606   16.2637 C   0  0  0  0  0  0  0  0  0  0  0  0
   12.0874   18.8683   15.1086 N   0  0  0  0  0  0  0  0  0  0  0  0
   10.8878   18.3933   15.4940 C   0  0  0  0  0  0  0  0  0  0  0  0
    9.7924   18.7798   15.0470 O   0  0  0  0  0  0  0  0  0  0  0  0
   12.8952   18.4023   15.4242 H   0  0  0  0  0  0  0  0  0  0  0  0
   10.7739   17.3730   16.3927 O   0  0  0  0  0  0  0  0  0  0  0  0
   10.9192   17.9039   17.7314 C   0  0  0  0  0  0  0  0  0  0  0  0
   18.2655   24.5062   17.4317 C   0  0  0  0  0  0  0  0  0  0  0  0
   17.9263   25.8677   17.7076 O   0  0  0  0  0  0  0  0  0  0  0  0
   18.5355   26.4552   17.2337 H   0  0  0  0  0  0  0  0  0  0  0  0
   19.6195   24.0734   18.0115 C   0  0  0  0  0  0  0  0  0  0  0  0
   19.5434   23.8600   19.4479 N   0  0  0  0  0  0  0  0  0  0  0  0
   20.7175   24.5368   20.3922 S   0  0  0  0  0  0  0  0  0  0  0  0
   21.5687   23.4280   20.8673 O   0  0  0  0  0  0  0  0  0  0  0  0
   20.0094   25.3334   21.4172 O   0  0  0  0  0  0  0  0  0  0  0  0
   23.3009   27.1736   17.7257 C   0  0  0  0  0  0  0  0  0  0  0  0
   23.8304   26.0830   18.3971 C   0  0  0  0  0  0  0  0  0  0  0  0
   23.0491   25.2830   19.2045 C   0  0  0  0  0  0  0  0  0  0  0  0
   21.7012   25.5610   19.3621 C   0  0  0  0  0  0  0  0  0  0  0  0
   21.2055   26.6480   18.6844 C   0  0  0  0  0  0  0  0  0  0  0  0
   21.9464   27.4790   17.8649 C   0  0  0  0  0  0  0  0  0  0  0  0
   24.1936   27.8533   16.9778 O   0  0  0  0  0  0  0  0  0  0  0  0
   25.3283   27.0569   16.6779 C   0  0  0  0  0  0  0  0  0  0  0  0
   18.2159   23.8641   20.0276 C   0  0  0  0  0  0  0  0  0  0  0  0
   17.7088   22.4558   20.3625 C   0  0  0  0  0  0  0  0  0  0  0  0
   16.4671   22.0645   19.5421 C   0  0  0  0  0  0  0  0  0  0  0  0
   18.8435   21.4553   20.0683 C   0  0  0  0  0  0  0  0  0  0  0  0
   18.0052   25.5882   15.1434 C   0  0  0  0  0  0  0  0  0  0  0  0
   19.6397   27.4168   14.5791 C   0  0  0  0  0  0  0  0  0  0  0  0
   20.9098   27.9206   14.3286 C   0  0  0  0  0  0  0  0  0  0  0  0
   21.9913   27.0549   14.3792 C   0  0  0  0  0  0  0  0  0  0  0  0
   21.8140   25.7194   14.6727 C   0  0  0  0  0  0  0  0  0  0  0  0
   20.5304   25.2107   14.9250 C   0  0  0  0  0  0  0  0  0  0  0  0
   19.4417   26.0714   14.8766 C   0  0  0  0  0  0  0  0  0  0  0  0
 20 19  1  0  0  0
 19 16  1  0  0  0
 44 45  2  0  0  0
 44 43  1  0  0  0
 45 46  1  0  0  0
 43 42  2  0  0  0
 46 47  2  0  0  0
 17 16  2  0  0  0
 16 15  1  0  0  0
 35 36  1  0  0  0
 35 29  1  0  0  0
 30 29  2  0  0  0
 30 31  1  0  0  0
 42 47  1  0  0  0
 47 41  1  0  0  0
 29 34  1  0  0  0
 27 26  2  0  0  0
 31 32  2  0  0  0
 15 12  1  0  0  0
 34 33  2  0  0  0
 32 33  1  0  0  0
 32 26  1  0  0  0
 41  1  1  0  0  0
 26 28  2  0  0  0
 26 25  1  0  0  0
 12 11  1  0  0  0
 12 13  1  0  0  0
  1  2  1  0  0  0
  1 21  1  0  0  0
 11 10  1  0  0  0
 25 24  1  0  0  0
 25 37  1  0  0  0
 24 21  1  0  0  0
 14 13  1  0  0  0
 14  7  1  0  0  0
  4  3  2  0  0  0
  2  3  1  0  0  0
 13  9  1  0  0  0
  3  6  1  0  0  0
 21 22  1  0  0  0
  6  7  1  0  0  0
 37 38  1  0  0  0
 10  9  1  0  0  0
  7  8  1  0  0  0
  9  8  1  0  0  0
 39 38  1  0  0  0
 38 40  1  0  0  0
 22 23  1  0  0  0
  2  5  1  0  0  0
 15 18  1  0  0  0
M  END
> <minimizedAffinity>
-9.14129

$$$$
4DFG_0JV_B_201


 47 50  0  0  0  0  0  0  0  0999 V2000
   16.3137   22.0129   17.4715 C   0  0  0  0  0  0  0  0  0  0  0  0
   15.3841   21.2611   18.3019 N   0  0  0  0  0  0  0  0  0  0  0  0
   14.5432   20.2956   17.9335 C   0  0  0  0  0  0  0  0  0  0  0  0
   14.5449   19.8320   16.7818 O   0  0  0  0  0  0  0  0  0  0  0  0
   15.3756   21.4961   19.2579 H   0  0  0  0  0  0  0  0  0  0  0  0
   13.7261   19.8602   18.9411 O   0  0  0  0  0  0  0  0  0  0  0  0
   14.2102   18.6228   19.5421 C   0  0  0  0  0  0  0  0  0  0  0  0
   13.2965   18.4240   20.7631 C   0  0  0  0  0  0  0  0  0  0  0  0
   12.0068   17.7935   20.2541 C   0  0  0  0  0  0  0  0  0  0  0  0
   11.1448   18.7505   19.6547 O   0  0  0  0  0  0  0  0  0  0  0  0
   10.8426   18.3999   18.3065 C   0  0  0  0  0  0  0  0  0  0  0  0
   11.2687   16.9449   18.1776 C   0  0  0  0  0  0  0  0  0  0  0  0
   12.4614   16.8920   19.1369 C   0  0  0  0  0  0  0  0  0  0  0  0
   13.7900   17.4498   18.6513 C   0  0  0  0  0  0  0  0  0  0  0  0
   11.6487   16.4795   16.8568 N   0  0  0  0  0  0  0  0  0  0  0  0
   10.9268   15.5970   16.1404 C   0  0  0  0  0  0  0  0  0  0  0  0
    9.7861   15.2001   16.4412 O   0  0  0  0  0  0  0  0  0  0  0  0
   12.4807   16.8283   16.4626 H   0  0  0  0  0  0  0  0  0  0  0  0
   11.3774   15.0946   14.9546 O   0  0  0  0  0  0  0  0  0  0  0  0
   10.4375   14.1046   14.4731 C   0  0  0  0  0  0  0  0  0  0  0  0
   17.5174   22.4597   18.2975 C   0  0  0  0  0  0  0  0  0  0  0  0
   17.1979   23.7225   18.8877 O   0  0  0  0  0  0  0  0  0  0  0  0
   17.0471   24.3774   18.1882 H   0  0  0  0  0  0  0  0  0  0  0  0
   18.8664   22.4398   17.5650 C   0  0  0  0  0  0  0  0  0  0  0  0
   19.5217   23.7370   17.6141 N   0  0  0  0  0  0  0  0  0  0  0  0
   19.0539   24.8802   16.5175 S   0  0  0  0  0  0  0  0  0  0  0  0
   18.0703   25.7434   17.2010 O   0  0  0  0  0  0  0  0  0  0  0  0
   18.5900   24.1380   15.3256 O   0  0  0  0  0  0  0  0  0  0  0  0
   22.7087   27.4076   15.5220 C   0  0  0  0  0  0  0  0  0  0  0  0
   22.4239   26.2417   14.8292 C   0  0  0  0  0  0  0  0  0  0  0  0
   21.3169   25.4755   15.1290 C   0  0  0  0  0  0  0  0  0  0  0  0
   20.4584   25.8631   16.1446 C   0  0  0  0  0  0  0  0  0  0  0  0
   20.7668   27.0227   16.8131 C   0  0  0  0  0  0  0  0  0  0  0  0
   21.8624   27.8238   16.5506 C   0  0  0  0  0  0  0  0  0  0  0  0
   23.8250   28.0415   15.1090 O   0  0  0  0  0  0  0  0  0  0  0  0
   24.4054   28.8003   16.1574 C   0  0  0  0  0  0  0  0  0  0  0  0
   19.8348   24.2480   18.9329 C   0  0  0  0  0  0  0  0  0  0  0  0
   21.2518   23.8813   19.3918 C   0  0  0  0  0  0  0  0  0  0  0  0
   22.0817   25.1148   19.7891 C   0  0  0  0  0  0  0  0  0  0  0  0
   21.1337   22.9403   20.6065 C   0  0  0  0  0  0  0  0  0  0  0  0
   15.6169   23.1849   16.7689 C   0  0  0  0  0  0  0  0  0  0  0  0
   13.7779   22.8981   15.0748 C   0  0  0  0  0  0  0  0  0  0  0  0
   13.2580   22.4751   13.8581 C   0  0  0  0  0  0  0  0  0  0  0  0
   14.0980   21.8309   12.9631 C   0  0  0  0  0  0  0  0  0  0  0  0
   15.4244   21.6129   13.2707 C   0  0  0  0  0  0  0  0  0  0  0  0
   15.9489   22.0399   14.5005 C   0  0  0  0  0  0  0  0  0  0  0  0
   15.1142   22.6864   15.4024 C   0  0  0  0  0  0  0  0  0  0  0  0
 20 19  1  0  0  0
 19 16  1  0  0  0
 44 45  2  0  0  0
 44 43  1  0  0  0
 45 46  1  0  0  0
 43 42  2  0  0  0
 46 47  2  0  0  0
 17 16  2  0  0  0
 16 15  1  0  0  0
 35 36  1  0  0  0
 35 29  1  0  0  0
 30 29  2  0  0  0
 30 31  1  0  0  0
 42 47  1  0  0  0
 47 41  1  0  0  0
 29 34  1  0  0  0
 27 26  2  0  0  0
 31 32  2  0  0  0
 15 12  1  0  0  0
 34 33  2  0  0  0
 32 33  1  0  0  0
 32 26  1  0  0  0
 41  1  1  0  0  0
 26 28  2  0  0  0
 26 25  1  0  0  0
 12 11  1  0  0  0
 12 13  1  0  0  0
  1  2  1  0  0  0
  1 21  1  0  0  0
 11 10  1  0  0  0
 25 24  1  0  0  0
 25 37  1  0  0  0
 24 21  1  0  0  0
 14 13  1  0  0  0
 14  7  1  0  0  0
  4  3  2  0  0  0
  2  3  1  0  0  0
 13  9  1  0  0  0
  3  6  1  0  0  0
 21 22  1  0  0  0
  6  7  1  0  0  0
 37 38  1  0  0  0
 10  9  1  0  0  0
  7  8  1  0  0  0
  9  8  1  0  0  0
 39 38  1  0  0  0
 38 40  1  0  0  0
 22 23  1  0  0  0
  2  5  1  0  0  0
 15 18  1  0  0  0
M  END
> <minimizedAffinity>
-9.08562

$$$$
