1UTJ_ABN_A_246


 10 10  0  0  0  0  0  0  0  0999 V2000
   23.6339   16.1697   58.0808 C   0  0  0  0  0  0  0  0  0  0  0  0
   22.2605   16.2567   58.2997 C   0  0  0  0  0  0  0  0  0  0  0  0
   21.5764   15.2279   58.9564 C   0  0  0  0  0  0  0  0  0  0  0  0
   22.2749   14.1080   59.3952 C   0  0  0  0  0  0  0  0  0  0  0  0
   23.6415   14.0168   59.1795 C   0  0  0  0  0  0  0  0  0  0  0  0
   24.3137   15.0445   58.5259 C   0  0  0  0  0  0  0  0  0  0  0  0
   25.8405   17.2729   57.5664 N   0  0  0  0  0  0  0  0  0  0  0  0
   24.3600   17.2670   57.3610 C   0  0  0  0  0  0  0  0  0  0  0  0
   26.2530   18.0464   57.0449 H   0  0  0  0  0  0  0  0  0  0  0  0
   26.2332   16.3918   57.2351 H   0  0  0  0  0  0  0  0  0  0  0  0
  7  8  1  0  0  0
  8  1  1  0  0  0
  1  2  2  0  0  0
  1  6  1  0  0  0
  2  3  1  0  0  0
  3  4  2  0  0  0
  4  5  1  0  0  0
  5  6  2  0  0  0
  7  9  1  0  0  0
  7 10  1  0  0  0
M  END
> <minimizedAffinity>
-4.89807

$$$$
1UTJ_ABN_A_246


 10 10  0  0  0  0  0  0  0  0999 V2000
   23.6282   16.1627   58.0706 C   0  0  0  0  0  0  0  0  0  0  0  0
   24.3185   15.0357   58.5122 C   0  0  0  0  0  0  0  0  0  0  0  0
   23.6484   14.0055   59.1812 C   0  0  0  0  0  0  0  0  0  0  0  0
   22.2798   14.1080   59.4067 C   0  0  0  0  0  0  0  0  0  0  0  0
   21.5886   15.2276   58.9693 C   0  0  0  0  0  0  0  0  0  0  0  0
   22.2629   16.2470   58.3048 C   0  0  0  0  0  0  0  0  0  0  0  0
   25.8348   17.2732   57.5720 N   0  0  0  0  0  0  0  0  0  0  0  0
   24.3539   17.2723   57.3694 C   0  0  0  0  0  0  0  0  0  0  0  0
   26.2470   18.0556   57.0638 H   0  0  0  0  0  0  0  0  0  0  0  0
   26.2261   16.3978   57.2240 H   0  0  0  0  0  0  0  0  0  0  0  0
  7  8  1  0  0  0
  8  1  1  0  0  0
  1  2  2  0  0  0
  1  6  1  0  0  0
  2  3  1  0  0  0
  3  4  2  0  0  0
  4  5  1  0  0  0
  5  6  2  0  0  0
  7  9  1  0  0  0
  7 10  1  0  0  0
M  END
> <minimizedAffinity>
-4.89536

$$$$
1UTJ_ABN_A_246


 10 10  0  0  0  0  0  0  0  0999 V2000
   22.8178   16.5489   58.0155 C   0  0  0  0  0  0  0  0  0  0  0  0
   24.1033   16.0201   58.1142 C   0  0  0  0  0  0  0  0  0  0  0  0
   24.3195   14.7805   58.7260 C   0  0  0  0  0  0  0  0  0  0  0  0
   23.2402   14.0695   59.2399 C   0  0  0  0  0  0  0  0  0  0  0  0
   21.9593   14.5916   59.1442 C   0  0  0  0  0  0  0  0  0  0  0  0
   21.7535   15.8248   58.5342 C   0  0  0  0  0  0  0  0  0  0  0  0
   21.2535   18.0512   56.7322 N   0  0  0  0  0  0  0  0  0  0  0  0
   22.5930   17.8861   57.3744 C   0  0  0  0  0  0  0  0  0  0  0  0
   21.1851   18.9831   56.3233 H   0  0  0  0  0  0  0  0  0  0  0  0
   20.5230   17.9335   57.4343 H   0  0  0  0  0  0  0  0  0  0  0  0
  7  8  1  0  0  0
  8  1  1  0  0  0
  1  2  2  0  0  0
  1  6  1  0  0  0
  2  3  1  0  0  0
  3  4  2  0  0  0
  4  5  1  0  0  0
  5  6  2  0  0  0
  7  9  1  0  0  0
  7 10  1  0  0  0
M  END
> <minimizedAffinity>
-4.55354

$$$$
1UTJ_ABN_A_246


 10 10  0  0  0  0  0  0  0  0999 V2000
   22.4146   13.8610   58.5646 C   0  0  0  0  0  0  0  0  0  0  0  0
   23.6732   13.9229   57.9699 C   0  0  0  0  0  0  0  0  0  0  0  0
   24.3803   15.1293   57.9209 C   0  0  0  0  0  0  0  0  0  0  0  0
   23.8209   16.2773   58.4720 C   0  0  0  0  0  0  0  0  0  0  0  0
   22.5688   16.2207   59.0647 C   0  0  0  0  0  0  0  0  0  0  0  0
   21.8729   15.0169   59.1091 C   0  0  0  0  0  0  0  0  0  0  0  0
   20.2283   12.6984   59.0325 N   0  0  0  0  0  0  0  0  0  0  0  0
   21.6529   12.5694   58.5992 C   0  0  0  0  0  0  0  0  0  0  0  0
   19.7869   11.7788   59.0278 H   0  0  0  0  0  0  0  0  0  0  0  0
   19.7323   13.3168   58.3907 H   0  0  0  0  0  0  0  0  0  0  0  0
  7  8  1  0  0  0
  8  1  1  0  0  0
  1  2  2  0  0  0
  1  6  1  0  0  0
  2  3  1  0  0  0
  3  4  2  0  0  0
  4  5  1  0  0  0
  5  6  2  0  0  0
  7  9  1  0  0  0
  7 10  1  0  0  0
M  END
> <minimizedAffinity>
-4.48266

$$$$
1UTJ_ABN_A_246


 10 10  0  0  0  0  0  0  0  0999 V2000
   22.4345   13.9817   58.6381 C   0  0  0  0  0  0  0  0  0  0  0  0
   21.8235   15.2049   58.9069 C   0  0  0  0  0  0  0  0  0  0  0  0
   22.4884   16.4075   58.6431 C   0  0  0  0  0  0  0  0  0  0  0  0
   23.7715   16.3807   58.1069 C   0  0  0  0  0  0  0  0  0  0  0  0
   24.3836   15.1661   57.8379 C   0  0  0  0  0  0  0  0  0  0  0  0
   23.7150   13.9753   58.1031 C   0  0  0  0  0  0  0  0  0  0  0  0
   20.2345   12.8023   58.9842 N   0  0  0  0  0  0  0  0  0  0  0  0
   21.7246   12.6952   58.9387 C   0  0  0  0  0  0  0  0  0  0  0  0
   19.8341   11.8878   59.1932 H   0  0  0  0  0  0  0  0  0  0  0  0
   19.8892   13.1263   58.0808 H   0  0  0  0  0  0  0  0  0  0  0  0
  7  8  1  0  0  0
  8  1  1  0  0  0
  1  2  2  0  0  0
  1  6  1  0  0  0
  2  3  1  0  0  0
  3  4  2  0  0  0
  4  5  1  0  0  0
  5  6  2  0  0  0
  7  9  1  0  0  0
  7 10  1  0  0  0
M  END
> <minimizedAffinity>
-4.46824

$$$$
1UTJ_ABN_A_246


 10 10  0  0  0  0  0  0  0  0999 V2000
   24.1061   14.3021   58.5366 C   0  0  0  0  0  0  0  0  0  0  0  0
   22.7662   14.1493   58.8873 C   0  0  0  0  0  0  0  0  0  0  0  0
   21.8711   15.2180   58.7668 C   0  0  0  0  0  0  0  0  0  0  0  0
   22.3239   16.4443   58.2918 C   0  0  0  0  0  0  0  0  0  0  0  0
   23.6563   16.6012   57.9417 C   0  0  0  0  0  0  0  0  0  0  0  0
   24.5393   15.5332   58.0645 C   0  0  0  0  0  0  0  0  0  0  0  0
   25.8788   12.8675   57.4641 N   0  0  0  0  0  0  0  0  0  0  0  0
   25.0655   13.1588   58.6839 C   0  0  0  0  0  0  0  0  0  0  0  0
   26.5008   12.0808   57.6500 H   0  0  0  0  0  0  0  0  0  0  0  0
   26.4327   13.6887   57.2207 H   0  0  0  0  0  0  0  0  0  0  0  0
  7  8  1  0  0  0
  8  1  1  0  0  0
  1  2  2  0  0  0
  1  6  1  0  0  0
  2  3  1  0  0  0
  3  4  2  0  0  0
  4  5  1  0  0  0
  5  6  2  0  0  0
  7  9  1  0  0  0
  7 10  1  0  0  0
M  END
> <minimizedAffinity>
-4.40257

$$$$
1UTJ_ABN_A_246


 10 10  0  0  0  0  0  0  0  0999 V2000
   23.2063   15.5624   58.4479 C   0  0  0  0  0  0  0  0  0  0  0  0
   21.9896   14.9460   58.7338 C   0  0  0  0  0  0  0  0  0  0  0  0
   21.9519   13.6390   59.2319 C   0  0  0  0  0  0  0  0  0  0  0  0
   23.1409   12.9492   59.4439 C   0  0  0  0  0  0  0  0  0  0  0  0
   24.3539   13.5582   59.1608 C   0  0  0  0  0  0  0  0  0  0  0  0
   24.3820   14.8580   58.6660 C   0  0  0  0  0  0  0  0  0  0  0  0
   21.9316   17.4527   57.3745 N   0  0  0  0  0  0  0  0  0  0  0  0
   23.2410   16.9572   57.8977 C   0  0  0  0  0  0  0  0  0  0  0  0
   22.0441   18.4031   57.0216 H   0  0  0  0  0  0  0  0  0  0  0  0
   21.2416   17.4484   58.1257 H   0  0  0  0  0  0  0  0  0  0  0  0
  7  8  1  0  0  0
  8  1  1  0  0  0
  1  2  2  0  0  0
  1  6  1  0  0  0
  2  3  1  0  0  0
  3  4  2  0  0  0
  4  5  1  0  0  0
  5  6  2  0  0  0
  7  9  1  0  0  0
  7 10  1  0  0  0
M  END
> <minimizedAffinity>
-4.28735

$$$$
1UTJ_ABN_A_246


 10 10  0  0  0  0  0  0  0  0999 V2000
   23.2409   14.6923   58.8149 C   0  0  0  0  0  0  0  0  0  0  0  0
   24.5060   15.0910   58.3880 C   0  0  0  0  0  0  0  0  0  0  0  0
   24.6934   16.3363   57.7782 C   0  0  0  0  0  0  0  0  0  0  0  0
   23.6058   17.1841   57.5972 C   0  0  0  0  0  0  0  0  0  0  0  0
   22.3449   16.7917   58.0200 C   0  0  0  0  0  0  0  0  0  0  0  0
   22.1679   15.5519   58.6256 C   0  0  0  0  0  0  0  0  0  0  0  0
   24.3062   12.6288   59.7936 N   0  0  0  0  0  0  0  0  0  0  0  0
   23.0419   13.3493   59.4522 C   0  0  0  0  0  0  0  0  0  0  0  0
   24.0809   11.7301   60.2201 H   0  0  0  0  0  0  0  0  0  0  0  0
   24.8506   13.1894   60.4492 H   0  0  0  0  0  0  0  0  0  0  0  0
  7  8  1  0  0  0
  8  1  1  0  0  0
  1  2  2  0  0  0
  1  6  1  0  0  0
  2  3  1  0  0  0
  3  4  2  0  0  0
  4  5  1  0  0  0
  5  6  2  0  0  0
  7  9  1  0  0  0
  7 10  1  0  0  0
M  END
> <minimizedAffinity>
-3.94548

$$$$
1UTJ_ABN_A_246


 10 10  0  0  0  0  0  0  0  0999 V2000
   22.9004   14.7465   58.6425 C   0  0  0  0  0  0  0  0  0  0  0  0
   21.8485   13.8328   58.6245 C   0  0  0  0  0  0  0  0  0  0  0  0
   22.0328   12.5431   58.1140 C   0  0  0  0  0  0  0  0  0  0  0  0
   23.2785   12.1703   57.6203 C   0  0  0  0  0  0  0  0  0  0  0  0
   24.3281   13.0761   57.6359 C   0  0  0  0  0  0  0  0  0  0  0  0
   24.1360   14.3562   58.1456 C   0  0  0  0  0  0  0  0  0  0  0  0
   23.6644   17.1479   58.6627 N   0  0  0  0  0  0  0  0  0  0  0  0
   22.6934   16.1334   59.1747 C   0  0  0  0  0  0  0  0  0  0  0  0
   23.4532   18.0578   59.0725 H   0  0  0  0  0  0  0  0  0  0  0  0
   23.5906   17.2070   57.6471 H   0  0  0  0  0  0  0  0  0  0  0  0
  7  8  1  0  0  0
  8  1  1  0  0  0
  1  2  2  0  0  0
  1  6  1  0  0  0
  2  3  1  0  0  0
  3  4  2  0  0  0
  4  5  1  0  0  0
  5  6  2  0  0  0
  7  9  1  0  0  0
  7 10  1  0  0  0
M  END
> <minimizedAffinity>
-3.90797

$$$$
1UTJ_ABN_A_246


 10 10  0  0  0  0  0  0  0  0999 V2000
   24.5275   13.2571   58.8429 C   0  0  0  0  0  0  0  0  0  0  0  0
   24.5055   14.5760   58.3936 C   0  0  0  0  0  0  0  0  0  0  0  0
   23.3495   15.3538   58.5216 C   0  0  0  0  0  0  0  0  0  0  0  0
   22.2118   14.8046   59.1035 C   0  0  0  0  0  0  0  0  0  0  0  0
   22.2289   13.4927   59.5519 C   0  0  0  0  0  0  0  0  0  0  0  0
   23.3827   12.7267   59.4209 C   0  0  0  0  0  0  0  0  0  0  0  0
   26.2254   12.2496   57.2767 N   0  0  0  0  0  0  0  0  0  0  0  0
   25.7635   12.4218   58.6878 C   0  0  0  0  0  0  0  0  0  0  0  0
   27.0660   11.6720   57.2622 H   0  0  0  0  0  0  0  0  0  0  0  0
   26.4334   13.1630   56.8732 H   0  0  0  0  0  0  0  0  0  0  0  0
  7  8  1  0  0  0
  8  1  1  0  0  0
  1  2  2  0  0  0
  1  6  1  0  0  0
  2  3  1  0  0  0
  3  4  2  0  0  0
  4  5  1  0  0  0
  5  6  2  0  0  0
  7  9  1  0  0  0
  7 10  1  0  0  0
M  END
> <minimizedAffinity>
-3.87964

$$$$
