5E13_5J9_A_201


 38 42  0  0  0  0  0  0  0  0999 V2000
   -5.7726  -11.9157   20.6337 C   0  0  0  0  0  0  0  0  0  0  0  0
   -6.7632  -11.4059   21.6812 C   0  0  0  0  0  0  0  0  0  0  0  0
   -6.2063  -11.4069   23.0143 O   0  0  0  0  0  0  0  0  0  0  0  0
   -6.1835  -11.1005   19.3778 C   0  0  0  0  0  0  0  0  0  0  0  0
   -7.1396  -10.0797   19.8257 O   0  0  0  0  0  0  0  0  0  0  0  0
   -7.0020   -9.9706   21.2236 C   0  0  0  0  0  0  0  0  0  0  0  0
   -5.3996  -10.8685   23.0281 H   0  0  0  0  0  0  0  0  0  0  0  0
   -9.4619   -9.8058   21.7461 C   0  0  0  0  0  0  0  0  0  0  0  0
  -10.3146   -8.9333   22.3326 C   0  0  0  0  0  0  0  0  0  0  0  0
  -11.6396   -9.2420   22.3924 C   0  0  0  0  0  0  0  0  0  0  0  0
   -8.3001   -8.1129   22.3865 C   0  0  0  0  0  0  0  0  0  0  0  0
  -12.1099  -10.3903   21.8907 N   0  0  0  0  0  0  0  0  0  0  0  0
   -9.8915  -10.9785   21.2432 N   0  0  0  0  0  0  0  0  0  0  0  0
   -8.2240   -9.2969   21.7929 N   0  0  0  0  0  0  0  0  0  0  0  0
   -9.5632   -7.8950   22.7155 N   0  0  0  0  0  0  0  0  0  0  0  0
  -11.2345  -11.2963   21.2934 C   0  0  0  0  0  0  0  0  0  0  0  0
  -12.5480   -8.4077   22.9483 N   0  0  0  0  0  0  0  0  0  0  0  0
  -12.2574   -7.5492   23.3328 H   0  0  0  0  0  0  0  0  0  0  0  0
  -13.4997   -8.6590   22.9684 H   0  0  0  0  0  0  0  0  0  0  0  0
   -3.7170  -10.4667   21.0133 C   0  0  0  0  0  0  0  0  0  0  0  0
   -2.4834  -10.7219   21.4383 C   0  0  0  0  0  0  0  0  0  0  0  0
   -2.3331  -12.0122   21.6887 N   0  0  0  0  0  0  0  0  0  0  0  0
   -3.5111  -12.5849   21.4381 N   0  0  0  0  0  0  0  0  0  0  0  0
   -4.3665  -11.6376   21.0196 N   0  0  0  0  0  0  0  0  0  0  0  0
   -1.3528   -9.6986   21.5997 C   0  0  0  0  0  0  0  0  0  0  0  0
    0.8431  -10.9869   20.5444 O   0  0  0  0  0  0  0  0  0  0  0  0
    0.3357  -10.0977   19.8522 C   0  0  0  0  0  0  0  0  0  0  0  0
    0.9022   -9.8116   18.6584 N   0  0  0  0  0  0  0  0  0  0  0  0
    0.4127   -8.8478   17.8497 C   0  0  0  0  0  0  0  0  0  0  0  0
    1.0091   -8.6151   16.6902 N   0  0  0  0  0  0  0  0  0  0  0  0
   -0.7076   -8.1019   18.2385 C   0  0  0  0  0  0  0  0  0  0  0  0
   -1.2943   -8.3838   19.4721 C   0  0  0  0  0  0  0  0  0  0  0  0
   -0.7495   -9.4109   20.2839 N   0  0  0  0  0  0  0  0  0  0  0  0
    1.7957   -9.1448   16.4262 H   0  0  0  0  0  0  0  0  0  0  0  0
    0.6657   -7.9122   16.0924 H   0  0  0  0  0  0  0  0  0  0  0  0
   -7.0050  -11.8000   18.3189 C   0  0  0  0  0  0  0  0  0  0  0  0
   -8.4174  -11.6458   18.5373 O   0  0  0  0  0  0  0  0  0  0  0  0
   -8.6494  -10.7046   18.5011 H   0  0  0  0  0  0  0  0  0  0  0  0
 37 36  1  0  0  0
 36  4  1  0  0  0
 30 29  1  0  0  0
 28 29  2  0  0  0
 28 27  1  0  0  0
 26 27  2  0  0  0
 29 31  1  0  0  0
 27 33  1  0  0  0
  4  1  1  0  0  0
  4  5  1  0  0  0
  1 24  1  0  0  0
  1  2  1  0  0  0
  5  6  1  0  0  0
 31 32  2  0  0  0
 20 24  1  0  0  0
 20 21  2  0  0  0
 24 23  1  0  0  0
 33 32  1  0  0  0
 33 25  1  0  0  0
  2  6  1  0  0  0
  2  3  1  0  0  0
 21 25  1  0  0  0
 21 22  1  0  0  0
 23 22  2  0  0  0
  6 14  1  0  0  0
 14 11  1  0  0  0
 14  8  1  0  0  0
 11 15  2  0  0  0
 13  8  2  0  0  0
 13 16  1  0  0  0
  8  9  1  0  0  0
 16 12  2  0  0  0
 15  9  1  0  0  0
  9 10  2  0  0  0
 12 10  1  0  0  0
 10 17  1  0  0  0
 30 34  1  0  0  0
 30 35  1  0  0  0
  3  7  1  0  0  0
 37 38  1  0  0  0
 17 18  1  0  0  0
 17 19  1  0  0  0
M  END
> <minimizedAffinity>
-7.79811

$$$$
5E13_5J9_A_201


 38 42  0  0  0  0  0  0  0  0999 V2000
   -8.4933  -12.9585   16.2737 C   0  0  0  0  0  0  0  0  0  0  0  0
   -8.6229  -14.4188   15.8387 C   0  0  0  0  0  0  0  0  0  0  0  0
   -8.4245  -15.3406   16.9335 O   0  0  0  0  0  0  0  0  0  0  0  0
   -9.4841  -12.2470   15.3132 C   0  0  0  0  0  0  0  0  0  0  0  0
  -10.2382  -13.3002   14.6212 O   0  0  0  0  0  0  0  0  0  0  0  0
  -10.0716  -14.4843   15.3662 C   0  0  0  0  0  0  0  0  0  0  0  0
   -9.0598  -15.1452   17.6399 H   0  0  0  0  0  0  0  0  0  0  0  0
  -11.6275  -16.2598   14.4840 C   0  0  0  0  0  0  0  0  0  0  0  0
  -11.5886  -17.2971   13.6152 C   0  0  0  0  0  0  0  0  0  0  0  0
  -12.7069  -18.0537   13.4377 C   0  0  0  0  0  0  0  0  0  0  0  0
   -9.6376  -16.3356   13.6712 C   0  0  0  0  0  0  0  0  0  0  0  0
  -13.8399  -17.7865   14.0984 N   0  0  0  0  0  0  0  0  0  0  0  0
  -12.7512  -15.9476   15.1566 N   0  0  0  0  0  0  0  0  0  0  0  0
  -10.4259  -15.6686   14.5042 N   0  0  0  0  0  0  0  0  0  0  0  0
  -10.3416  -17.3176   13.1316 N   0  0  0  0  0  0  0  0  0  0  0  0
  -13.8877  -16.7138   14.9878 C   0  0  0  0  0  0  0  0  0  0  0  0
  -12.7317  -19.1147   12.5987 N   0  0  0  0  0  0  0  0  0  0  0  0
  -11.9260  -19.3568   12.0873 H   0  0  0  0  0  0  0  0  0  0  0  0
  -13.5554  -19.6448   12.4996 H   0  0  0  0  0  0  0  0  0  0  0  0
   -8.3038  -11.9979   18.6211 C   0  0  0  0  0  0  0  0  0  0  0  0
   -9.0133  -12.1555   19.7344 C   0  0  0  0  0  0  0  0  0  0  0  0
  -10.0039  -13.0105   19.5398 N   0  0  0  0  0  0  0  0  0  0  0  0
   -9.9334  -13.3853   18.2620 N   0  0  0  0  0  0  0  0  0  0  0  0
   -8.8865  -12.7661   17.6920 N   0  0  0  0  0  0  0  0  0  0  0  0
   -8.7374  -11.4841   21.0852 C   0  0  0  0  0  0  0  0  0  0  0  0
   -8.6423   -8.7306   21.1542 O   0  0  0  0  0  0  0  0  0  0  0  0
   -9.7202   -9.2563   21.4527 C   0  0  0  0  0  0  0  0  0  0  0  0
  -10.7486   -8.4543   21.8090 N   0  0  0  0  0  0  0  0  0  0  0  0
  -11.9537   -8.9527   22.1578 C   0  0  0  0  0  0  0  0  0  0  0  0
  -12.9241   -8.1166   22.4947 N   0  0  0  0  0  0  0  0  0  0  0  0
  -12.1688  -10.3371   22.1682 C   0  0  0  0  0  0  0  0  0  0  0  0
  -11.1115  -11.1734   21.8103 C   0  0  0  0  0  0  0  0  0  0  0  0
   -9.8660  -10.6033   21.4435 N   0  0  0  0  0  0  0  0  0  0  0  0
  -12.7628   -7.1454   22.4841 H   0  0  0  0  0  0  0  0  0  0  0  0
  -13.8066   -8.4662   22.7556 H   0  0  0  0  0  0  0  0  0  0  0  0
   -8.9093  -11.4996   14.1315 C   0  0  0  0  0  0  0  0  0  0  0  0
   -7.4736  -11.4399   14.1726 O   0  0  0  0  0  0  0  0  0  0  0  0
   -7.1116  -12.3394   14.1433 H   0  0  0  0  0  0  0  0  0  0  0  0
 37 36  1  0  0  0
 36  4  1  0  0  0
 30 29  1  0  0  0
 28 29  2  0  0  0
 28 27  1  0  0  0
 26 27  2  0  0  0
 29 31  1  0  0  0
 27 33  1  0  0  0
  4  1  1  0  0  0
  4  5  1  0  0  0
  1 24  1  0  0  0
  1  2  1  0  0  0
  5  6  1  0  0  0
 31 32  2  0  0  0
 20 24  1  0  0  0
 20 21  2  0  0  0
 24 23  1  0  0  0
 33 32  1  0  0  0
 33 25  1  0  0  0
  2  6  1  0  0  0
  2  3  1  0  0  0
 21 25  1  0  0  0
 21 22  1  0  0  0
 23 22  2  0  0  0
  6 14  1  0  0  0
 14 11  1  0  0  0
 14  8  1  0  0  0
 11 15  2  0  0  0
 13  8  2  0  0  0
 13 16  1  0  0  0
  8  9  1  0  0  0
 16 12  2  0  0  0
 15  9  1  0  0  0
  9 10  2  0  0  0
 12 10  1  0  0  0
 10 17  1  0  0  0
 30 34  1  0  0  0
 30 35  1  0  0  0
  3  7  1  0  0  0
 37 38  1  0  0  0
 17 18  1  0  0  0
 17 19  1  0  0  0
M  END
> <minimizedAffinity>
-7.75577

$$$$
5E13_5J9_A_201


 38 42  0  0  0  0  0  0  0  0999 V2000
   -8.0630  -13.8059   18.6616 C   0  0  0  0  0  0  0  0  0  0  0  0
   -7.8946  -12.3043   18.8969 C   0  0  0  0  0  0  0  0  0  0  0  0
   -8.0453  -11.5351   17.6832 O   0  0  0  0  0  0  0  0  0  0  0  0
   -8.6760  -14.2763   20.0083 C   0  0  0  0  0  0  0  0  0  0  0  0
   -9.0215  -13.0664   20.7656 O   0  0  0  0  0  0  0  0  0  0  0  0
   -9.0475  -11.9983   19.8475 C   0  0  0  0  0  0  0  0  0  0  0  0
   -8.9141  -11.7161   17.2915 H   0  0  0  0  0  0  0  0  0  0  0  0
   -9.9494  -10.1452   21.2980 C   0  0  0  0  0  0  0  0  0  0  0  0
   -9.5213   -8.9735   21.8236 C   0  0  0  0  0  0  0  0  0  0  0  0
  -10.3819   -8.2315   22.5743 C   0  0  0  0  0  0  0  0  0  0  0  0
   -7.9111   -9.8714   20.6682 C   0  0  0  0  0  0  0  0  0  0  0  0
  -11.6346   -8.6420   22.8061 N   0  0  0  0  0  0  0  0  0  0  0  0
  -11.1963  -10.6017   21.5201 N   0  0  0  0  0  0  0  0  0  0  0  0
   -8.9490  -10.6947   20.5973 N   0  0  0  0  0  0  0  0  0  0  0  0
   -8.2563   -8.8330   21.4122 N   0  0  0  0  0  0  0  0  0  0  0  0
  -12.0776   -9.8523   22.2743 C   0  0  0  0  0  0  0  0  0  0  0  0
  -10.0249   -7.0435   23.1141 N   0  0  0  0  0  0  0  0  0  0  0  0
   -9.1153   -6.6933   22.9753 H   0  0  0  0  0  0  0  0  0  0  0  0
  -10.6746   -6.5293   23.6457 H   0  0  0  0  0  0  0  0  0  0  0  0
  -10.2118  -14.6044   17.5597 C   0  0  0  0  0  0  0  0  0  0  0  0
  -10.6226  -14.6713   16.2970 C   0  0  0  0  0  0  0  0  0  0  0  0
   -9.6805  -14.2376   15.4758 N   0  0  0  0  0  0  0  0  0  0  0  0
   -8.6550  -13.8637   16.2418 N   0  0  0  0  0  0  0  0  0  0  0  0
   -8.9762  -14.0896   17.5263 N   0  0  0  0  0  0  0  0  0  0  0  0
  -11.9784  -15.2004   15.8141 C   0  0  0  0  0  0  0  0  0  0  0  0
  -11.7837  -14.4265   13.1761 O   0  0  0  0  0  0  0  0  0  0  0  0
  -12.5784  -13.7962   13.8821 C   0  0  0  0  0  0  0  0  0  0  0  0
  -13.2637  -12.7742   13.3219 N   0  0  0  0  0  0  0  0  0  0  0  0
  -14.1421  -12.0322   14.0293 C   0  0  0  0  0  0  0  0  0  0  0  0
  -14.7861  -11.0454   13.4246 N   0  0  0  0  0  0  0  0  0  0  0  0
  -14.3616  -12.3019   15.3865 C   0  0  0  0  0  0  0  0  0  0  0  0
  -13.6531  -13.3489   15.9759 C   0  0  0  0  0  0  0  0  0  0  0  0
  -12.7470  -14.1056   15.1904 N   0  0  0  0  0  0  0  0  0  0  0  0
  -14.6247  -10.8641   12.4705 H   0  0  0  0  0  0  0  0  0  0  0  0
  -15.4262  -10.4933   13.9293 H   0  0  0  0  0  0  0  0  0  0  0  0
   -7.7643  -14.9676   20.9965 C   0  0  0  0  0  0  0  0  0  0  0  0
   -7.6811  -14.2606   22.2454 O   0  0  0  0  0  0  0  0  0  0  0  0
   -8.5607  -14.2180   22.6520 H   0  0  0  0  0  0  0  0  0  0  0  0
 37 36  1  0  0  0
 36  4  1  0  0  0
 30 29  1  0  0  0
 28 29  2  0  0  0
 28 27  1  0  0  0
 26 27  2  0  0  0
 29 31  1  0  0  0
 27 33  1  0  0  0
  4  1  1  0  0  0
  4  5  1  0  0  0
  1 24  1  0  0  0
  1  2  1  0  0  0
  5  6  1  0  0  0
 31 32  2  0  0  0
 20 24  1  0  0  0
 20 21  2  0  0  0
 24 23  1  0  0  0
 33 32  1  0  0  0
 33 25  1  0  0  0
  2  6  1  0  0  0
  2  3  1  0  0  0
 21 25  1  0  0  0
 21 22  1  0  0  0
 23 22  2  0  0  0
  6 14  1  0  0  0
 14 11  1  0  0  0
 14  8  1  0  0  0
 11 15  2  0  0  0
 13  8  2  0  0  0
 13 16  1  0  0  0
  8  9  1  0  0  0
 16 12  2  0  0  0
 15  9  1  0  0  0
  9 10  2  0  0  0
 12 10  1  0  0  0
 10 17  1  0  0  0
 30 34  1  0  0  0
 30 35  1  0  0  0
  3  7  1  0  0  0
 37 38  1  0  0  0
 17 18  1  0  0  0
 17 19  1  0  0  0
M  END
> <minimizedAffinity>
-7.64672

$$$$
5E13_5J9_A_201


 38 42  0  0  0  0  0  0  0  0999 V2000
  -11.2477  -14.7198   20.7895 C   0  0  0  0  0  0  0  0  0  0  0  0
  -10.6300  -13.4778   21.4331 C   0  0  0  0  0  0  0  0  0  0  0  0
   -9.2444  -13.2971   21.0661 O   0  0  0  0  0  0  0  0  0  0  0  0
  -12.7270  -14.2857   20.6057 C   0  0  0  0  0  0  0  0  0  0  0  0
  -12.7900  -12.8487   20.9022 O   0  0  0  0  0  0  0  0  0  0  0  0
  -11.4721  -12.3554   20.8350 C   0  0  0  0  0  0  0  0  0  0  0  0
   -9.1698  -13.2446   20.1004 H   0  0  0  0  0  0  0  0  0  0  0  0
  -10.3450  -10.2057   21.5131 C   0  0  0  0  0  0  0  0  0  0  0  0
  -10.6128   -9.1214   22.2778 C   0  0  0  0  0  0  0  0  0  0  0  0
   -9.6704   -8.1453   22.3948 C   0  0  0  0  0  0  0  0  0  0  0  0
  -12.3113  -10.4797   22.3403 C   0  0  0  0  0  0  0  0  0  0  0  0
   -8.4932   -8.2354   21.7643 N   0  0  0  0  0  0  0  0  0  0  0  0
   -9.1798  -10.3279   20.8496 N   0  0  0  0  0  0  0  0  0  0  0  0
  -11.3994  -11.0307   21.5498 N   0  0  0  0  0  0  0  0  0  0  0  0
  -11.8369   -9.3243   22.7774 N   0  0  0  0  0  0  0  0  0  0  0  0
   -8.2159   -9.3461   20.9684 C   0  0  0  0  0  0  0  0  0  0  0  0
   -9.8659   -7.0445   23.1567 N   0  0  0  0  0  0  0  0  0  0  0  0
  -10.7138   -6.9266   23.6429 H   0  0  0  0  0  0  0  0  0  0  0  0
   -9.1603   -6.3614   23.2248 H   0  0  0  0  0  0  0  0  0  0  0  0
  -11.1066  -14.8578   18.2537 C   0  0  0  0  0  0  0  0  0  0  0  0
  -10.1774  -15.2994   17.4116 C   0  0  0  0  0  0  0  0  0  0  0  0
   -9.1335  -15.7711   18.0734 N   0  0  0  0  0  0  0  0  0  0  0  0
   -9.3998  -15.6010   19.3689 N   0  0  0  0  0  0  0  0  0  0  0  0
  -10.6150  -15.0408   19.4857 N   0  0  0  0  0  0  0  0  0  0  0  0
  -10.2749  -15.3087   15.8813 C   0  0  0  0  0  0  0  0  0  0  0  0
  -11.9790  -13.3693   14.9167 O   0  0  0  0  0  0  0  0  0  0  0  0
  -10.7711  -13.1094   14.8908 C   0  0  0  0  0  0  0  0  0  0  0  0
  -10.3810  -11.9214   14.3765 N   0  0  0  0  0  0  0  0  0  0  0  0
   -9.0801  -11.5684   14.3044 C   0  0  0  0  0  0  0  0  0  0  0  0
   -8.7595  -10.3896   13.7928 N   0  0  0  0  0  0  0  0  0  0  0  0
   -8.0851  -12.4431   14.7601 C   0  0  0  0  0  0  0  0  0  0  0  0
   -8.4768  -13.6747   15.2849 C   0  0  0  0  0  0  0  0  0  0  0  0
   -9.8560  -13.9981   15.3474 N   0  0  0  0  0  0  0  0  0  0  0  0
   -9.4662   -9.7821   13.4754 H   0  0  0  0  0  0  0  0  0  0  0  0
   -7.8144  -10.1208   13.7299 H   0  0  0  0  0  0  0  0  0  0  0  0
  -13.7460  -14.8137   21.5897 C   0  0  0  0  0  0  0  0  0  0  0  0
  -14.5553  -13.7655   22.1488 O   0  0  0  0  0  0  0  0  0  0  0  0
  -15.0478  -13.3240   21.4393 H   0  0  0  0  0  0  0  0  0  0  0  0
 37 36  1  0  0  0
 36  4  1  0  0  0
 30 29  1  0  0  0
 28 29  2  0  0  0
 28 27  1  0  0  0
 26 27  2  0  0  0
 29 31  1  0  0  0
 27 33  1  0  0  0
  4  1  1  0  0  0
  4  5  1  0  0  0
  1 24  1  0  0  0
  1  2  1  0  0  0
  5  6  1  0  0  0
 31 32  2  0  0  0
 20 24  1  0  0  0
 20 21  2  0  0  0
 24 23  1  0  0  0
 33 32  1  0  0  0
 33 25  1  0  0  0
  2  6  1  0  0  0
  2  3  1  0  0  0
 21 25  1  0  0  0
 21 22  1  0  0  0
 23 22  2  0  0  0
  6 14  1  0  0  0
 14 11  1  0  0  0
 14  8  1  0  0  0
 11 15  2  0  0  0
 13  8  2  0  0  0
 13 16  1  0  0  0
  8  9  1  0  0  0
 16 12  2  0  0  0
 15  9  1  0  0  0
  9 10  2  0  0  0
 12 10  1  0  0  0
 10 17  1  0  0  0
 30 34  1  0  0  0
 30 35  1  0  0  0
  3  7  1  0  0  0
 37 38  1  0  0  0
 17 18  1  0  0  0
 17 19  1  0  0  0
M  END
> <minimizedAffinity>
-7.56954

$$$$
5E13_5J9_A_201


 38 42  0  0  0  0  0  0  0  0999 V2000
  -11.3978  -14.0225   20.8892 C   0  0  0  0  0  0  0  0  0  0  0  0
  -10.1696  -13.3205   21.4696 C   0  0  0  0  0  0  0  0  0  0  0  0
   -8.9309  -13.9009   21.0046 O   0  0  0  0  0  0  0  0  0  0  0  0
  -12.4226  -12.8593   20.8020 C   0  0  0  0  0  0  0  0  0  0  0  0
  -11.6859  -11.6198   21.0805 O   0  0  0  0  0  0  0  0  0  0  0  0
  -10.3168  -11.9074   20.9146 C   0  0  0  0  0  0  0  0  0  0  0  0
   -8.9044  -13.8728   20.0354 H   0  0  0  0  0  0  0  0  0  0  0  0
   -8.2177  -10.5728   21.3198 C   0  0  0  0  0  0  0  0  0  0  0  0
   -7.7926   -9.5804   22.1364 C   0  0  0  0  0  0  0  0  0  0  0  0
   -6.5076   -9.1419   22.0312 C   0  0  0  0  0  0  0  0  0  0  0  0
   -9.8680  -10.0462   22.5948 C   0  0  0  0  0  0  0  0  0  0  0  0
   -5.6644   -9.6673   21.1344 N   0  0  0  0  0  0  0  0  0  0  0  0
   -7.4064  -11.1175   20.3937 N   0  0  0  0  0  0  0  0  0  0  0  0
   -9.4981  -10.8455   21.6026 N   0  0  0  0  0  0  0  0  0  0  0  0
   -8.8380   -9.2794   22.9148 N   0  0  0  0  0  0  0  0  0  0  0  0
   -6.0999  -10.6837   20.2851 C   0  0  0  0  0  0  0  0  0  0  0  0
   -6.0132   -8.1664   22.8276 N   0  0  0  0  0  0  0  0  0  0  0  0
   -6.5896   -7.7447   23.5051 H   0  0  0  0  0  0  0  0  0  0  0  0
   -5.0769   -7.8783   22.7295 H   0  0  0  0  0  0  0  0  0  0  0  0
  -11.5141  -14.1470   18.3515 C   0  0  0  0  0  0  0  0  0  0  0  0
  -11.0285  -14.9993   17.4539 C   0  0  0  0  0  0  0  0  0  0  0  0
  -10.3687  -15.9792   18.0494 N   0  0  0  0  0  0  0  0  0  0  0  0
  -10.4179  -15.7266   19.3578 N   0  0  0  0  0  0  0  0  0  0  0  0
  -11.1241  -14.6002   19.5495 N   0  0  0  0  0  0  0  0  0  0  0  0
  -11.2114  -14.9132   15.9339 C   0  0  0  0  0  0  0  0  0  0  0  0
  -12.2773  -12.7129   14.6617 O   0  0  0  0  0  0  0  0  0  0  0  0
  -11.0481  -12.7405   14.7863 C   0  0  0  0  0  0  0  0  0  0  0  0
  -10.3279  -11.7168   14.2752 N   0  0  0  0  0  0  0  0  0  0  0  0
   -8.9813  -11.6790   14.3623 C   0  0  0  0  0  0  0  0  0  0  0  0
   -8.3307  -10.6479   13.8449 N   0  0  0  0  0  0  0  0  0  0  0  0
   -8.2849  -12.7219   14.9868 C   0  0  0  0  0  0  0  0  0  0  0  0
   -9.0182  -13.7868   15.5100 C   0  0  0  0  0  0  0  0  0  0  0  0
  -10.4320  -13.7786   15.4016 N   0  0  0  0  0  0  0  0  0  0  0  0
   -8.8294   -9.9200   13.4081 H   0  0  0  0  0  0  0  0  0  0  0  0
   -7.3483  -10.6093   13.8971 H   0  0  0  0  0  0  0  0  0  0  0  0
  -13.4976  -12.7836   21.8622 C   0  0  0  0  0  0  0  0  0  0  0  0
  -13.4967  -11.5201   22.5476 O   0  0  0  0  0  0  0  0  0  0  0  0
  -13.6728  -10.8079   21.9130 H   0  0  0  0  0  0  0  0  0  0  0  0
 37 36  1  0  0  0
 36  4  1  0  0  0
 30 29  1  0  0  0
 28 29  2  0  0  0
 28 27  1  0  0  0
 26 27  2  0  0  0
 29 31  1  0  0  0
 27 33  1  0  0  0
  4  1  1  0  0  0
  4  5  1  0  0  0
  1 24  1  0  0  0
  1  2  1  0  0  0
  5  6  1  0  0  0
 31 32  2  0  0  0
 20 24  1  0  0  0
 20 21  2  0  0  0
 24 23  1  0  0  0
 33 32  1  0  0  0
 33 25  1  0  0  0
  2  6  1  0  0  0
  2  3  1  0  0  0
 21 25  1  0  0  0
 21 22  1  0  0  0
 23 22  2  0  0  0
  6 14  1  0  0  0
 14 11  1  0  0  0
 14  8  1  0  0  0
 11 15  2  0  0  0
 13  8  2  0  0  0
 13 16  1  0  0  0
  8  9  1  0  0  0
 16 12  2  0  0  0
 15  9  1  0  0  0
  9 10  2  0  0  0
 12 10  1  0  0  0
 10 17  1  0  0  0
 30 34  1  0  0  0
 30 35  1  0  0  0
  3  7  1  0  0  0
 37 38  1  0  0  0
 17 18  1  0  0  0
 17 19  1  0  0  0
M  END
> <minimizedAffinity>
-7.30729

$$$$
5E13_5J9_A_201


 38 42  0  0  0  0  0  0  0  0999 V2000
   -8.0706  -13.9594   19.7331 C   0  0  0  0  0  0  0  0  0  0  0  0
   -8.2652  -14.9282   18.5661 C   0  0  0  0  0  0  0  0  0  0  0  0
   -8.8689  -16.1745   18.9781 O   0  0  0  0  0  0  0  0  0  0  0  0
   -8.2368  -12.5808   19.0386 C   0  0  0  0  0  0  0  0  0  0  0  0
   -8.7262  -12.8441   17.6792 O   0  0  0  0  0  0  0  0  0  0  0  0
   -9.2306  -14.1594   17.6698 C   0  0  0  0  0  0  0  0  0  0  0  0
   -9.7196  -15.9950   19.4082 H   0  0  0  0  0  0  0  0  0  0  0  0
  -10.0050  -15.7351   15.8618 C   0  0  0  0  0  0  0  0  0  0  0  0
   -9.8671  -15.8840   14.5234 C   0  0  0  0  0  0  0  0  0  0  0  0
  -10.4685  -16.9407   13.9099 C   0  0  0  0  0  0  0  0  0  0  0  0
   -8.7609  -14.1242   15.1665 C   0  0  0  0  0  0  0  0  0  0  0  0
  -11.1958  -17.8256   14.6024 N   0  0  0  0  0  0  0  0  0  0  0  0
  -10.7407  -16.5936   16.5927 N   0  0  0  0  0  0  0  0  0  0  0  0
   -9.3293  -14.6446   16.2464 N   0  0  0  0  0  0  0  0  0  0  0  0
   -9.0889  -14.8716   14.1249 N   0  0  0  0  0  0  0  0  0  0  0  0
  -11.3481  -17.6717   15.9797 C   0  0  0  0  0  0  0  0  0  0  0  0
  -10.3568  -17.1586   12.5794 N   0  0  0  0  0  0  0  0  0  0  0  0
   -9.8334  -16.5390   12.0213 H   0  0  0  0  0  0  0  0  0  0  0  0
  -10.7988  -17.9368   12.1692 H   0  0  0  0  0  0  0  0  0  0  0  0
  -10.1790  -13.4161   21.0479 C   0  0  0  0  0  0  0  0  0  0  0  0
  -10.7800  -13.9839   22.0891 C   0  0  0  0  0  0  0  0  0  0  0  0
  -10.0965  -15.0373   22.5055 N   0  0  0  0  0  0  0  0  0  0  0  0
   -9.0475  -15.1528   21.6903 N   0  0  0  0  0  0  0  0  0  0  0  0
   -9.0923  -14.1553   20.7919 N   0  0  0  0  0  0  0  0  0  0  0  0
  -12.0688  -13.4994   22.7639 C   0  0  0  0  0  0  0  0  0  0  0  0
  -13.5141  -11.6357   21.3380 O   0  0  0  0  0  0  0  0  0  0  0  0
  -12.7550  -11.2001   22.2105 C   0  0  0  0  0  0  0  0  0  0  0  0
  -12.6736   -9.8612   22.3805 N   0  0  0  0  0  0  0  0  0  0  0  0
  -11.8607   -9.3081   23.3055 C   0  0  0  0  0  0  0  0  0  0  0  0
  -11.8261   -7.9898   23.4274 N   0  0  0  0  0  0  0  0  0  0  0  0
  -11.0612  -10.1214   24.1193 C   0  0  0  0  0  0  0  0  0  0  0  0
  -11.1317  -11.5036   23.9459 C   0  0  0  0  0  0  0  0  0  0  0  0
  -12.0065  -12.0389   22.9667 N   0  0  0  0  0  0  0  0  0  0  0  0
  -12.3919   -7.4271   22.8508 H   0  0  0  0  0  0  0  0  0  0  0  0
  -11.2346   -7.5725   24.0947 H   0  0  0  0  0  0  0  0  0  0  0  0
   -6.9862  -11.7889   18.7313 C   0  0  0  0  0  0  0  0  0  0  0  0
   -7.1509  -10.3867   19.0015 O   0  0  0  0  0  0  0  0  0  0  0  0
   -7.3435  -10.2594   19.9436 H   0  0  0  0  0  0  0  0  0  0  0  0
 37 36  1  0  0  0
 36  4  1  0  0  0
 30 29  1  0  0  0
 28 29  2  0  0  0
 28 27  1  0  0  0
 26 27  2  0  0  0
 29 31  1  0  0  0
 27 33  1  0  0  0
  4  1  1  0  0  0
  4  5  1  0  0  0
  1 24  1  0  0  0
  1  2  1  0  0  0
  5  6  1  0  0  0
 31 32  2  0  0  0
 20 24  1  0  0  0
 20 21  2  0  0  0
 24 23  1  0  0  0
 33 32  1  0  0  0
 33 25  1  0  0  0
  2  6  1  0  0  0
  2  3  1  0  0  0
 21 25  1  0  0  0
 21 22  1  0  0  0
 23 22  2  0  0  0
  6 14  1  0  0  0
 14 11  1  0  0  0
 14  8  1  0  0  0
 11 15  2  0  0  0
 13  8  2  0  0  0
 13 16  1  0  0  0
  8  9  1  0  0  0
 16 12  2  0  0  0
 15  9  1  0  0  0
  9 10  2  0  0  0
 12 10  1  0  0  0
 10 17  1  0  0  0
 30 34  1  0  0  0
 30 35  1  0  0  0
  3  7  1  0  0  0
 37 38  1  0  0  0
 17 18  1  0  0  0
 17 19  1  0  0  0
M  END
> <minimizedAffinity>
-7.11108

$$$$
5E13_5J9_A_201


 38 42  0  0  0  0  0  0  0  0999 V2000
   -9.5887  -13.5989   20.4148 C   0  0  0  0  0  0  0  0  0  0  0  0
   -8.3433  -13.1882   21.2014 C   0  0  0  0  0  0  0  0  0  0  0  0
   -7.1603  -13.8978   20.7719 O   0  0  0  0  0  0  0  0  0  0  0  0
  -10.4122  -12.2827   20.4050 C   0  0  0  0  0  0  0  0  0  0  0  0
   -9.5354  -11.2269   20.9277 O   0  0  0  0  0  0  0  0  0  0  0  0
   -8.2145  -11.7102   20.8475 C   0  0  0  0  0  0  0  0  0  0  0  0
   -7.0202  -13.7488   19.8237 H   0  0  0  0  0  0  0  0  0  0  0  0
   -5.9913  -10.9231   21.7358 C   0  0  0  0  0  0  0  0  0  0  0  0
   -5.5234  -10.0862   22.6913 C   0  0  0  0  0  0  0  0  0  0  0  0
   -4.1778   -9.9605   22.8597 C   0  0  0  0  0  0  0  0  0  0  0  0
   -7.6989  -10.0631   22.7210 C   0  0  0  0  0  0  0  0  0  0  0  0
   -3.3146  -10.6409   22.0960 N   0  0  0  0  0  0  0  0  0  0  0  0
   -5.1570  -11.6137   20.9360 N   0  0  0  0  0  0  0  0  0  0  0  0
   -7.3301  -10.8946   21.7552 N   0  0  0  0  0  0  0  0  0  0  0  0
   -6.6067   -9.5722   23.2843 N   0  0  0  0  0  0  0  0  0  0  0  0
   -3.7913  -11.4976   21.1046 C   0  0  0  0  0  0  0  0  0  0  0  0
   -3.6436   -9.1558   23.8069 N   0  0  0  0  0  0  0  0  0  0  0  0
   -4.2324   -8.6320   24.3970 H   0  0  0  0  0  0  0  0  0  0  0  0
   -2.6661   -9.0940   23.9061 H   0  0  0  0  0  0  0  0  0  0  0  0
   -9.3346  -13.3335   17.8980 C   0  0  0  0  0  0  0  0  0  0  0  0
   -8.9304  -14.1481   16.9281 C   0  0  0  0  0  0  0  0  0  0  0  0
   -8.6216  -15.3383   17.4163 N   0  0  0  0  0  0  0  0  0  0  0  0
   -8.8127  -15.2669   18.7340 N   0  0  0  0  0  0  0  0  0  0  0  0
   -9.2541  -14.0347   19.0359 N   0  0  0  0  0  0  0  0  0  0  0  0
   -8.8490  -13.8064   15.4355 C   0  0  0  0  0  0  0  0  0  0  0  0
   -8.9707  -11.1916   14.5732 O   0  0  0  0  0  0  0  0  0  0  0  0
  -10.0379  -11.8136   14.6110 C   0  0  0  0  0  0  0  0  0  0  0  0
  -11.1708  -11.1671   14.2554 N   0  0  0  0  0  0  0  0  0  0  0  0
  -12.3760  -11.7747   14.2797 C   0  0  0  0  0  0  0  0  0  0  0  0
  -13.4503  -11.0901   13.9171 N   0  0  0  0  0  0  0  0  0  0  0  0
  -12.4852  -13.1099   14.6897 C   0  0  0  0  0  0  0  0  0  0  0  0
  -11.3232  -13.7832   15.0665 C   0  0  0  0  0  0  0  0  0  0  0  0
  -10.0786  -13.1056   15.0170 N   0  0  0  0  0  0  0  0  0  0  0  0
  -13.3629  -10.1523   13.6306 H   0  0  0  0  0  0  0  0  0  0  0  0
  -14.3363  -11.5191   13.9342 H   0  0  0  0  0  0  0  0  0  0  0  0
  -11.5771  -12.1708   21.3621 C   0  0  0  0  0  0  0  0  0  0  0  0
  -12.1172  -10.8394   21.4072 O   0  0  0  0  0  0  0  0  0  0  0  0
  -12.4469  -10.5943   20.5284 H   0  0  0  0  0  0  0  0  0  0  0  0
 37 36  1  0  0  0
 36  4  1  0  0  0
 30 29  1  0  0  0
 28 29  2  0  0  0
 28 27  1  0  0  0
 26 27  2  0  0  0
 29 31  1  0  0  0
 27 33  1  0  0  0
  4  1  1  0  0  0
  4  5  1  0  0  0
  1 24  1  0  0  0
  1  2  1  0  0  0
  5  6  1  0  0  0
 31 32  2  0  0  0
 20 24  1  0  0  0
 20 21  2  0  0  0
 24 23  1  0  0  0
 33 32  1  0  0  0
 33 25  1  0  0  0
  2  6  1  0  0  0
  2  3  1  0  0  0
 21 25  1  0  0  0
 21 22  1  0  0  0
 23 22  2  0  0  0
  6 14  1  0  0  0
 14 11  1  0  0  0
 14  8  1  0  0  0
 11 15  2  0  0  0
 13  8  2  0  0  0
 13 16  1  0  0  0
  8  9  1  0  0  0
 16 12  2  0  0  0
 15  9  1  0  0  0
  9 10  2  0  0  0
 12 10  1  0  0  0
 10 17  1  0  0  0
 30 34  1  0  0  0
 30 35  1  0  0  0
  3  7  1  0  0  0
 37 38  1  0  0  0
 17 18  1  0  0  0
 17 19  1  0  0  0
M  END
> <minimizedAffinity>
-7.05435

$$$$
5E13_5J9_A_201


 38 42  0  0  0  0  0  0  0  0999 V2000
   -8.7129  -12.9989   16.0968 C   0  0  0  0  0  0  0  0  0  0  0  0
   -8.7723  -14.4447   15.6022 C   0  0  0  0  0  0  0  0  0  0  0  0
   -8.3644  -15.3915   16.6144 O   0  0  0  0  0  0  0  0  0  0  0  0
   -9.8703  -12.3380   15.3004 C   0  0  0  0  0  0  0  0  0  0  0  0
  -10.6129  -13.4236   14.6470 O   0  0  0  0  0  0  0  0  0  0  0  0
  -10.2575  -14.6192   15.3020 C   0  0  0  0  0  0  0  0  0  0  0  0
   -8.9222  -15.2847   17.4007 H   0  0  0  0  0  0  0  0  0  0  0  0
  -11.7933  -16.4273   14.4516 C   0  0  0  0  0  0  0  0  0  0  0  0
  -11.7638  -17.4382   13.5518 C   0  0  0  0  0  0  0  0  0  0  0  0
  -12.8619  -18.2314   13.4116 C   0  0  0  0  0  0  0  0  0  0  0  0
   -9.8487  -16.4057   13.5328 C   0  0  0  0  0  0  0  0  0  0  0  0
  -13.9665  -18.0253   14.1388 N   0  0  0  0  0  0  0  0  0  0  0  0
  -12.8897  -16.1763   15.1915 N   0  0  0  0  0  0  0  0  0  0  0  0
  -10.6146  -15.7920   14.4256 N   0  0  0  0  0  0  0  0  0  0  0  0
  -10.5447  -17.3984   13.0026 N   0  0  0  0  0  0  0  0  0  0  0  0
  -14.0051  -16.9800   15.0607 C   0  0  0  0  0  0  0  0  0  0  0  0
  -12.8934  -19.2692   12.5443 N   0  0  0  0  0  0  0  0  0  0  0  0
  -12.1083  -19.4666   11.9841 H   0  0  0  0  0  0  0  0  0  0  0  0
  -13.7015  -19.8271   12.4734 H   0  0  0  0  0  0  0  0  0  0  0  0
   -8.1937  -12.2895   18.4835 C   0  0  0  0  0  0  0  0  0  0  0  0
   -8.8048  -12.4811   19.6486 C   0  0  0  0  0  0  0  0  0  0  0  0
   -9.8966  -13.2111   19.4889 N   0  0  0  0  0  0  0  0  0  0  0  0
   -9.9913  -13.4677   18.1837 N   0  0  0  0  0  0  0  0  0  0  0  0
   -8.9436  -12.9042   17.5601 N   0  0  0  0  0  0  0  0  0  0  0  0
   -8.3281  -11.9720   21.0142 C   0  0  0  0  0  0  0  0  0  0  0  0
   -7.7925   -9.2686   21.0098 O   0  0  0  0  0  0  0  0  0  0  0  0
   -6.8241  -10.0263   20.8864 C   0  0  0  0  0  0  0  0  0  0  0  0
   -5.5966   -9.4799   20.7362 N   0  0  0  0  0  0  0  0  0  0  0  0
   -4.4913  -10.2403   20.5859 C   0  0  0  0  0  0  0  0  0  0  0  0
   -3.3153   -9.6474   20.4458 N   0  0  0  0  0  0  0  0  0  0  0  0
   -4.5923  -11.6375   20.5725 C   0  0  0  0  0  0  0  0  0  0  0  0
   -5.8554  -12.2109   20.7184 C   0  0  0  0  0  0  0  0  0  0  0  0
   -6.9865  -11.3714   20.8815 N   0  0  0  0  0  0  0  0  0  0  0  0
   -3.2550   -8.6648   20.4566 H   0  0  0  0  0  0  0  0  0  0  0  0
   -2.5014  -10.1892   20.3309 H   0  0  0  0  0  0  0  0  0  0  0  0
   -9.5096  -11.4916   14.1009 C   0  0  0  0  0  0  0  0  0  0  0  0
   -8.1241  -11.1086   14.1031 O   0  0  0  0  0  0  0  0  0  0  0  0
   -7.5689  -11.9032   14.0674 H   0  0  0  0  0  0  0  0  0  0  0  0
 37 36  1  0  0  0
 36  4  1  0  0  0
 30 29  1  0  0  0
 28 29  2  0  0  0
 28 27  1  0  0  0
 26 27  2  0  0  0
 29 31  1  0  0  0
 27 33  1  0  0  0
  4  1  1  0  0  0
  4  5  1  0  0  0
  1 24  1  0  0  0
  1  2  1  0  0  0
  5  6  1  0  0  0
 31 32  2  0  0  0
 20 24  1  0  0  0
 20 21  2  0  0  0
 24 23  1  0  0  0
 33 32  1  0  0  0
 33 25  1  0  0  0
  2  6  1  0  0  0
  2  3  1  0  0  0
 21 25  1  0  0  0
 21 22  1  0  0  0
 23 22  2  0  0  0
  6 14  1  0  0  0
 14 11  1  0  0  0
 14  8  1  0  0  0
 11 15  2  0  0  0
 13  8  2  0  0  0
 13 16  1  0  0  0
  8  9  1  0  0  0
 16 12  2  0  0  0
 15  9  1  0  0  0
  9 10  2  0  0  0
 12 10  1  0  0  0
 10 17  1  0  0  0
 30 34  1  0  0  0
 30 35  1  0  0  0
  3  7  1  0  0  0
 37 38  1  0  0  0
 17 18  1  0  0  0
 17 19  1  0  0  0
M  END
> <minimizedAffinity>
-6.81718

$$$$
5E13_5J9_A_201


 38 42  0  0  0  0  0  0  0  0999 V2000
   -6.7445  -12.6534   20.6435 C   0  0  0  0  0  0  0  0  0  0  0  0
   -7.4703  -13.4850   19.5852 C   0  0  0  0  0  0  0  0  0  0  0  0
   -8.2819  -14.5300   20.1654 O   0  0  0  0  0  0  0  0  0  0  0  0
   -6.6795  -11.2572   19.9675 C   0  0  0  0  0  0  0  0  0  0  0  0
   -7.5291  -11.3224   18.7713 O   0  0  0  0  0  0  0  0  0  0  0  0
   -8.3668  -12.4451   18.9209 C   0  0  0  0  0  0  0  0  0  0  0  0
   -8.9227  -14.1385   20.7794 H   0  0  0  0  0  0  0  0  0  0  0  0
  -10.0012  -13.6121   17.3983 C   0  0  0  0  0  0  0  0  0  0  0  0
  -10.2146  -13.7635   16.0701 C   0  0  0  0  0  0  0  0  0  0  0  0
  -11.2564  -14.5339   15.6511 C   0  0  0  0  0  0  0  0  0  0  0  0
   -8.4656  -12.5059   16.3763 C   0  0  0  0  0  0  0  0  0  0  0  0
  -12.0730  -15.1349   16.5249 N   0  0  0  0  0  0  0  0  0  0  0  0
  -10.8082  -14.1864   18.3101 N   0  0  0  0  0  0  0  0  0  0  0  0
   -8.9294  -12.8291   17.5765 N   0  0  0  0  0  0  0  0  0  0  0  0
   -9.2446  -13.0680   15.4661 N   0  0  0  0  0  0  0  0  0  0  0  0
  -11.8627  -14.9750   17.8939 C   0  0  0  0  0  0  0  0  0  0  0  0
  -11.5155  -14.7414   14.3396 N   0  0  0  0  0  0  0  0  0  0  0  0
  -10.9466  -14.3235   13.6533 H   0  0  0  0  0  0  0  0  0  0  0  0
  -12.2730  -15.3102   14.0714 H   0  0  0  0  0  0  0  0  0  0  0  0
   -8.0639  -11.5370   22.5094 C   0  0  0  0  0  0  0  0  0  0  0  0
   -8.6231  -11.9849   23.6293 C   0  0  0  0  0  0  0  0  0  0  0  0
   -8.4106  -13.2831   23.7707 N   0  0  0  0  0  0  0  0  0  0  0  0
   -7.7188  -13.6711   22.6988 N   0  0  0  0  0  0  0  0  0  0  0  0
   -7.5006  -12.5989   21.9196 N   0  0  0  0  0  0  0  0  0  0  0  0
   -9.3888  -11.1431   24.6572 C   0  0  0  0  0  0  0  0  0  0  0  0
  -12.0920  -11.6192   24.4095 O   0  0  0  0  0  0  0  0  0  0  0  0
  -11.6612  -10.5833   23.8913 C   0  0  0  0  0  0  0  0  0  0  0  0
  -12.5309   -9.7862   23.2308 N   0  0  0  0  0  0  0  0  0  0  0  0
  -12.1360   -8.6436   22.6302 C   0  0  0  0  0  0  0  0  0  0  0  0
  -13.0350   -7.9023   22.0005 N   0  0  0  0  0  0  0  0  0  0  0  0
  -10.7908   -8.2541   22.6694 C   0  0  0  0  0  0  0  0  0  0  0  0
   -9.8841   -9.0739   23.3412 C   0  0  0  0  0  0  0  0  0  0  0  0
  -10.3473  -10.2607   23.9639 N   0  0  0  0  0  0  0  0  0  0  0  0
  -13.9778   -8.1848   21.9787 H   0  0  0  0  0  0  0  0  0  0  0  0
  -12.7603   -7.0688   21.5542 H   0  0  0  0  0  0  0  0  0  0  0  0
   -5.3673  -10.8317   19.3491 C   0  0  0  0  0  0  0  0  0  0  0  0
   -4.5767  -10.0348   20.2470 O   0  0  0  0  0  0  0  0  0  0  0  0
   -4.3629  -10.5544   21.0377 H   0  0  0  0  0  0  0  0  0  0  0  0
 37 36  1  0  0  0
 36  4  1  0  0  0
 30 29  1  0  0  0
 28 29  2  0  0  0
 28 27  1  0  0  0
 26 27  2  0  0  0
 29 31  1  0  0  0
 27 33  1  0  0  0
  4  1  1  0  0  0
  4  5  1  0  0  0
  1 24  1  0  0  0
  1  2  1  0  0  0
  5  6  1  0  0  0
 31 32  2  0  0  0
 20 24  1  0  0  0
 20 21  2  0  0  0
 24 23  1  0  0  0
 33 32  1  0  0  0
 33 25  1  0  0  0
  2  6  1  0  0  0
  2  3  1  0  0  0
 21 25  1  0  0  0
 21 22  1  0  0  0
 23 22  2  0  0  0
  6 14  1  0  0  0
 14 11  1  0  0  0
 14  8  1  0  0  0
 11 15  2  0  0  0
 13  8  2  0  0  0
 13 16  1  0  0  0
  8  9  1  0  0  0
 16 12  2  0  0  0
 15  9  1  0  0  0
  9 10  2  0  0  0
 12 10  1  0  0  0
 10 17  1  0  0  0
 30 34  1  0  0  0
 30 35  1  0  0  0
  3  7  1  0  0  0
 37 38  1  0  0  0
 17 18  1  0  0  0
 17 19  1  0  0  0
M  END
> <minimizedAffinity>
-6.64310

$$$$
5E13_5J9_A_201


 38 42  0  0  0  0  0  0  0  0999 V2000
   -9.6655  -15.0079   20.3837 C   0  0  0  0  0  0  0  0  0  0  0  0
  -10.1864  -15.5306   19.0443 C   0  0  0  0  0  0  0  0  0  0  0  0
  -11.4429  -14.9257   18.6667 O   0  0  0  0  0  0  0  0  0  0  0  0
   -8.1278  -15.0857   20.1840 C   0  0  0  0  0  0  0  0  0  0  0  0
   -7.8964  -15.3858   18.7652 O   0  0  0  0  0  0  0  0  0  0  0  0
   -9.0907  -15.0873   18.0802 C   0  0  0  0  0  0  0  0  0  0  0  0
  -11.3401  -13.9618   18.6315 H   0  0  0  0  0  0  0  0  0  0  0  0
   -9.9499  -15.5247   15.7517 C   0  0  0  0  0  0  0  0  0  0  0  0
   -9.6630  -16.3314   14.7032 C   0  0  0  0  0  0  0  0  0  0  0  0
  -10.4294  -16.2544   13.5801 C   0  0  0  0  0  0  0  0  0  0  0  0
   -8.2690  -16.7387   16.3234 C   0  0  0  0  0  0  0  0  0  0  0  0
  -11.4513  -15.3945   13.4928 N   0  0  0  0  0  0  0  0  0  0  0  0
  -10.9590  -14.6350   15.6989 N   0  0  0  0  0  0  0  0  0  0  0  0
   -9.0810  -15.7756   16.7395 N   0  0  0  0  0  0  0  0  0  0  0  0
   -8.6188  -17.0719   15.0915 N   0  0  0  0  0  0  0  0  0  0  0  0
  -11.7455  -14.5553   14.5666 C   0  0  0  0  0  0  0  0  0  0  0  0
  -10.2087  -17.0433   12.5035 N   0  0  0  0  0  0  0  0  0  0  0  0
   -9.4701  -17.6942   12.5132 H   0  0  0  0  0  0  0  0  0  0  0  0
  -10.7868  -16.9666   11.7103 H   0  0  0  0  0  0  0  0  0  0  0  0
   -9.3568  -12.5063   20.7237 C   0  0  0  0  0  0  0  0  0  0  0  0
  -10.1967  -11.5059   20.9714 C   0  0  0  0  0  0  0  0  0  0  0  0
  -11.4383  -11.9519   21.0696 N   0  0  0  0  0  0  0  0  0  0  0  0
  -11.3850  -13.2668   20.8543 N   0  0  0  0  0  0  0  0  0  0  0  0
  -10.1048  -13.6139   20.6429 N   0  0  0  0  0  0  0  0  0  0  0  0
   -9.8176  -10.0316   21.1563 C   0  0  0  0  0  0  0  0  0  0  0  0
   -8.9068  -10.0080   23.7573 O   0  0  0  0  0  0  0  0  0  0  0  0
   -8.0519   -9.9206   22.8692 C   0  0  0  0  0  0  0  0  0  0  0  0
   -6.7563   -9.7972   23.2353 N   0  0  0  0  0  0  0  0  0  0  0  0
   -5.7656   -9.6867   22.3250 C   0  0  0  0  0  0  0  0  0  0  0  0
   -4.5146   -9.5714   22.7446 N   0  0  0  0  0  0  0  0  0  0  0  0
   -6.0619   -9.6881   20.9557 C   0  0  0  0  0  0  0  0  0  0  0  0
   -7.3964   -9.8066   20.5679 C   0  0  0  0  0  0  0  0  0  0  0  0
   -8.4019   -9.9281   21.5604 N   0  0  0  0  0  0  0  0  0  0  0  0
   -4.3169   -9.5715   23.7090 H   0  0  0  0  0  0  0  0  0  0  0  0
   -3.7825   -9.4855   22.0920 H   0  0  0  0  0  0  0  0  0  0  0  0
   -7.3883  -16.2344   20.8315 C   0  0  0  0  0  0  0  0  0  0  0  0
   -6.9504  -17.2093   19.8702 O   0  0  0  0  0  0  0  0  0  0  0  0
   -6.3371  -16.7934   19.2443 H   0  0  0  0  0  0  0  0  0  0  0  0
 37 36  1  0  0  0
 36  4  1  0  0  0
 30 29  1  0  0  0
 28 29  2  0  0  0
 28 27  1  0  0  0
 26 27  2  0  0  0
 29 31  1  0  0  0
 27 33  1  0  0  0
  4  1  1  0  0  0
  4  5  1  0  0  0
  1 24  1  0  0  0
  1  2  1  0  0  0
  5  6  1  0  0  0
 31 32  2  0  0  0
 20 24  1  0  0  0
 20 21  2  0  0  0
 24 23  1  0  0  0
 33 32  1  0  0  0
 33 25  1  0  0  0
  2  6  1  0  0  0
  2  3  1  0  0  0
 21 25  1  0  0  0
 21 22  1  0  0  0
 23 22  2  0  0  0
  6 14  1  0  0  0
 14 11  1  0  0  0
 14  8  1  0  0  0
 11 15  2  0  0  0
 13  8  2  0  0  0
 13 16  1  0  0  0
  8  9  1  0  0  0
 16 12  2  0  0  0
 15  9  1  0  0  0
  9 10  2  0  0  0
 12 10  1  0  0  0
 10 17  1  0  0  0
 30 34  1  0  0  0
 30 35  1  0  0  0
  3  7  1  0  0  0
 37 38  1  0  0  0
 17 18  1  0  0  0
 17 19  1  0  0  0
M  END
> <minimizedAffinity>
-6.56234

$$$$
