5O9R_9PK_A_604
  RCSB PDB05121802173D
Coordinates from PDB:5O9R:A:604 Model:1 without hydrogens
 46 50  0  0  0  0            999 V2000
   -9.0840   13.3830   21.8500   C 0  0  0  0  0  0  0  0  0  0  0  0
   -9.6770   11.9950   22.0290   C 0  0  0  0  0  0  0  0  0  0  0  0
   -8.6750   11.1030   22.7640   C 0  0  0  0  0  0  0  0  0  0  0  0
  -10.0830   14.2720   21.1270   C 0  0  0  0  0  0  0  0  0  0  0  0
  -22.2360    9.2080   16.9780   C 0  0  0  0  0  0  0  0  0  0  0  0
  -22.3790    9.3330   15.6440   C 0  0  0  0  0  0  0  0  0  0  0  0
  -21.7460    8.3960   14.9250   C 0  0  0  0  0  0  0  0  0  0  0  0
  -20.9870    7.3840   16.0040   S 0  0  0  0  0  0  0  0  0  0  0  0
  -21.4840    8.1630   17.3300   C 0  0  0  0  0  0  0  0  0  0  0  0
  -21.1450    7.7650   18.7680   C 0  0  0  0  0  0  0  0  0  0  0  0
  -19.8910    8.3420   19.1400   O 0  0  0  0  0  0  0  0  0  0  0  0
  -19.5460    7.9250   20.4630   C 0  0  0  0  0  0  0  0  0  0  0  0
  -18.5160    8.8910   21.0520   C 0  0  0  0  0  0  0  0  0  0  0  0
  -17.3340    8.5590   21.5340   C 0  0  0  0  0  0  0  0  0  0  0  0
  -18.6600   10.2030   21.1640   N 0  0  0  0  0  0  0  0  0  0  0  0
  -17.6400   10.6430   21.6780   N 0  0  0  0  0  0  0  0  0  0  0  0
  -16.8180    9.7220   21.9200   N 0  0  0  0  0  0  0  0  0  0  0  0
  -15.4850    9.9050   22.5380   C 0  0  0  0  0  0  0  0  0  0  0  0
  -14.9440   11.2990   22.2630   C 0  0  0  0  0  0  0  0  0  0  0  0
  -14.8390   11.5000   20.8460   O 0  0  0  0  0  0  0  0  0  0  0  0
  -15.5820    9.6990   23.9550   O 0  0  0  0  0  0  0  0  0  0  0  0
  -14.2680    9.7100   24.5320   C 0  0  0  0  0  0  0  0  0  0  0  0
  -14.3590    9.3570   26.0180   C 0  0  0  0  0  0  0  0  0  0  0  0
  -15.4630   10.0500   26.6060   O 0  0  0  0  0  0  0  0  0  0  0  0
  -13.6570   11.0930   24.3750   C 0  0  0  0  0  0  0  0  0  0  0  0
  -12.3400   11.1020   24.9470   O 0  0  0  0  0  0  0  0  0  0  0  0
  -13.5720   11.4460   22.9000   C 0  0  0  0  0  0  0  0  0  0  0  0
  -13.1200   12.8010   22.7560   O 0  0  0  0  0  0  0  0  0  0  0  0
  -11.8720   12.8180   22.0490   C 0  0  0  0  0  0  0  0  0  0  0  0
  -11.4090   14.2550   21.8700   C 0  0  0  0  0  0  0  0  0  0  0  0
  -12.3900   14.9840   21.1180   O 0  0  0  0  0  0  0  0  0  0  0  0
  -10.8880   12.0870   22.7950   O 0  0  0  0  0  0  0  0  0  0  0  0
   -8.2850   11.7310   23.9890   O 0  0  0  0  0  0  0  0  0  0  0  0
   -7.8780   13.2920   21.0780   O 0  0  0  0  0  0  0  0  0  0  0  0
   -9.5800   15.6150   21.0770   O 0  0  0  0  0  0  0  0  0  0  0  0
   -9.8340   16.1740   19.7790   C 0  0  0  0  0  0  0  0  0  0  0  0
   -9.0850   15.4510   18.7910   O 0  0  0  0  0  0  0  0  0  0  0  0
   -9.4350   15.9260   17.4830   C 0  0  0  0  0  0  0  0  0  0  0  0
   -8.7410   15.0670   16.4250   C 0  0  0  0  0  0  0  0  0  0  0  0
   -7.3610   14.9100   16.7680   O 0  0  0  0  0  0  0  0  0  0  0  0
   -8.9930   17.3720   17.3330   C 0  0  0  0  0  0  0  0  0  0  0  0
   -9.3490   17.8490   16.0280   O 0  0  0  0  0  0  0  0  0  0  0  0
   -9.6770   18.2250   18.3890   C 0  0  0  0  0  0  0  0  0  0  0  0
   -9.1600   19.5620   18.3350   O 0  0  0  0  0  0  0  0  0  0  0  0
   -9.4150   17.6350   19.7650   C 0  0  0  0  0  0  0  0  0  0  0  0
  -10.1690   18.3590   20.7480   O 0  0  0  0  0  0  0  0  0  0  0  0
  7  6  2  0  0  0  0
  7  8  1  0  0  0  0
  6  5  1  0  0  0  0
  8  9  1  0  0  0  0
 42 41  1  0  0  0  0
 39 40  1  0  0  0  0
 39 38  1  0  0  0  0
  5  9  2  0  0  0  0
  9 10  1  0  0  0  0
 41 38  1  0  0  0  0
 41 43  1  0  0  0  0
 38 37  1  0  0  0  0
 44 43  1  0  0  0  0
 43 45  1  0  0  0  0
 10 11  1  0  0  0  0
 37 36  1  0  0  0  0
 11 12  1  0  0  0  0
 45 36  1  0  0  0  0
 45 46  1  0  0  0  0
 36 35  1  0  0  0  0
 12 13  1  0  0  0  0
 20 19  1  0  0  0  0
 13 15  1  0  0  0  0
 13 14  2  0  0  0  0
 35  4  1  0  0  0  0
 34  1  1  0  0  0  0
 31 30  1  0  0  0  0
  4  1  1  0  0  0  0
  4 30  1  0  0  0  0
 15 16  2  0  0  0  0
 14 17  1  0  0  0  0
 16 17  1  0  0  0  0
  1  2  1  0  0  0  0
 30 29  1  0  0  0  0
 17 18  1  0  0  0  0
  2  3  1  0  0  0  0
  2 32  1  0  0  0  0
 29 28  1  0  0  0  0
 29 32  1  0  0  0  0
 19 18  1  0  0  0  0
 19 27  1  0  0  0  0
 18 21  1  0  0  0  0
 28 27  1  0  0  0  0
  3 33  1  0  0  0  0
 27 25  1  0  0  0  0
 21 22  1  0  0  0  0
 25 22  1  0  0  0  0
 25 26  1  0  0  0  0
 22 23  1  0  0  0  0
 23 24  1  0  0  0  0
A    1
C4
A    2
C5
A    3
C6
A    4
C3
A    5
CBT
A    6
CBS
A    7
CBR
A    8
SBQ
A    9
CBP
A   10
CBN
A   11
OBO
A   12
CBM
A   13
CBL
A   14
CBH
A   15
NBK
A   16
NBJ
A   17
NBI
A   18
CAG
A   19
CAK
A   20
OBA
A   21
OAY
A   22
CAI
A   23
CAJ
A   24
OBB
A   25
CAH
A   26
OAZ
A   27
CAL
A   28
O1
A   29
C1
A   30
C2
A   31
O2
A   32
O5
A   33
O6
A   34
O4
A   35
O3
A   36
CAM
A   37
OBD
A   38
CAO
A   39
CAP
A   40
OBG
A   41
CAN
A   42
OBE
A   43
CAR
A   44
OBC
A   45
CAQ
A   46
OBF
M  END
>  <InstanceId>
5O9R_9PK_A_604

>  <ChemCompId>
9PK

>  <PdbId>
5O9R

>  <ChainId>
A

>  <ResidueNumber>
604

>  <InsertionCode>


>  <Model>
1

>  <AltIds>


>  <MissingHeavyAtoms>
0

>  <ObservedFormula>
C26 N3 O16 S

>  <Name>
(2~{R},3~{S},4~{S},5~{R},6~{S})-2-(hydroxymethyl)-6-[(2~{R},3~{R},4~{S},5~{R},6~{S})-2-(hydroxymethyl)-6-[(2~{R},3~{R},4~{S},5~{R},6~{R})-2-(hydroxymethyl)-3,5-bis(oxidanyl)-6-[4-(thiophen-2-ylmethoxymethyl)-1,2,3-triazol-1-yl]oxan-4-yl]oxy-3,5-bis(oxidanyl)oxan-4-yl]oxy-oxane-3,4,5-triol

>  <SystematicName>
(2~{R},3~{S},4~{S},5~{R},6~{S})-2-(hydroxymethyl)-6-[(2~{R},3~{R},4~{S},5~{R},6~{S})-2-(hydroxymethyl)-6-[(2~{R},3~{R},4~{S},5~{R},6~{R})-2-(hydroxymethyl)-3,5-bis(oxidanyl)-6-[4-(thiophen-2-ylmethoxymethyl)-1,2,3-triazol-1-yl]oxan-4-yl]oxy-3,5-bis(oxidanyl)oxan-4-yl]oxy-oxane-3,4,5-triol

>  <Synonyms>


>  <Type>
NON-POLYMER

>  <Formula>
C26 H39 N3 O16 S

>  <MolecularWeight>
681.663

>  <ModifiedDate>
2018-04-27

>  <Parent>


>  <OneLetterCode>


>  <SubcomponentList>


>  <AmbiguousFlag>
N

>  <InChI>
InChI=1S/C26H39N3O16S/c30-5-12-15(33)18(36)19(37)25(42-12)45-23-17(35)14(7-32)43-26(21(23)39)44-22-16(34)13(6-31)41-24(20(22)38)29-4-10(27-28-29)8-40-9-11-2-1-3-46-11/h1-4,12-26,30-39H,5-9H2/t12-,13-,14-,15-,16-,17-,18+,19-,20-,21-,22+,23+,24-,25+,26+/m1/s1

>  <InChIKey>
PCTXRGORDHBRNF-KACUVCQDSA-N

>  <SMILES>
c1cc(sc1)COCc2cn(nn2)[C@H]3[C@@H]([C@H]([C@@H]([C@H](O3)CO)O)O[C@H]4[C@@H]([C@H]([C@@H]([C@H](O4)CO)O)O[C@H]5[C@@H]([C@H]([C@@H]([C@H](O5)CO)O)O)O)O)O

$$$$
