5O9R_9PK_A_604


 56 60  0  0  0  0  0  0  0  0999 V2000
   -8.8745   13.2047   21.8425 C   0  0  0  0  0  0  0  0  0  0  0  0
   -9.4448   11.8202   22.1037 C   0  0  0  0  0  0  0  0  0  0  0  0
   -9.9984   14.1506   21.4512 C   0  0  0  0  0  0  0  0  0  0  0  0
  -11.5304   12.6814   22.7392 C   0  0  0  0  0  0  0  0  0  0  0  0
  -11.0840   14.1173   22.5146 C   0  0  0  0  0  0  0  0  0  0  0  0
  -12.2033   14.9047   22.0829 O   0  0  0  0  0  0  0  0  0  0  0  0
  -10.4099   11.8923   23.1643 O   0  0  0  0  0  0  0  0  0  0  0  0
   -7.9158   13.1341   20.7774 O   0  0  0  0  0  0  0  0  0  0  0  0
  -12.5533   14.5421   21.2540 H   0  0  0  0  0  0  0  0  0  0  0  0
   -8.3488   12.8061   19.9738 H   0  0  0  0  0  0  0  0  0  0  0  0
   -8.3149   10.8706   22.5056 C   0  0  0  0  0  0  0  0  0  0  0  0
   -7.4087   11.5493   23.3804 O   0  0  0  0  0  0  0  0  0  0  0  0
   -7.0358   12.3201   22.9248 H   0  0  0  0  0  0  0  0  0  0  0  0
  -12.5502   12.6486   23.7475 O   0  0  0  0  0  0  0  0  0  0  0  0
  -14.6301    9.6776   22.8122 C   0  0  0  0  0  0  0  0  0  0  0  0
  -13.9531   11.0278   22.6381 C   0  0  0  0  0  0  0  0  0  0  0  0
  -13.1393   11.0056   21.4564 O   0  0  0  0  0  0  0  0  0  0  0  0
  -15.4373    9.6951   23.9987 O   0  0  0  0  0  0  0  0  0  0  0  0
  -14.5935    9.8409   25.1504 C   0  0  0  0  0  0  0  0  0  0  0  0
  -13.9161   11.2012   25.1136 C   0  0  0  0  0  0  0  0  0  0  0  0
  -13.0672   11.3443   26.2629 O   0  0  0  0  0  0  0  0  0  0  0  0
  -13.0825   11.3192   23.8492 C   0  0  0  0  0  0  0  0  0  0  0  0
  -12.4643   10.3142   21.5416 H   0  0  0  0  0  0  0  0  0  0  0  0
  -12.3927   10.6473   26.2554 H   0  0  0  0  0  0  0  0  0  0  0  0
  -17.1071    9.0329   20.3890 C   0  0  0  0  0  0  0  0  0  0  0  0
  -16.8074    9.3933   21.6219 C   0  0  0  0  0  0  0  0  0  0  0  0
  -15.9789    8.7990   19.7356 N   0  0  0  0  0  0  0  0  0  0  0  0
  -15.0547    9.0018   20.5120 N   0  0  0  0  0  0  0  0  0  0  0  0
  -15.4785    9.3550   21.6425 N   0  0  0  0  0  0  0  0  0  0  0  0
  -18.5183    8.9062   19.8115 C   0  0  0  0  0  0  0  0  0  0  0  0
  -19.0808    7.6493   20.1948 O   0  0  0  0  0  0  0  0  0  0  0  0
  -20.4519    7.8291   20.5574 C   0  0  0  0  0  0  0  0  0  0  0  0
  -21.4087    7.3136   18.2562 C   0  0  0  0  0  0  0  0  0  0  0  0
  -22.1912    7.8215   17.2839 C   0  0  0  0  0  0  0  0  0  0  0  0
  -22.6877    9.0382   17.5462 C   0  0  0  0  0  0  0  0  0  0  0  0
  -22.1221    9.4825   19.0452 S   0  0  0  0  0  0  0  0  0  0  0  0
  -21.2767    8.1296   19.3042 C   0  0  0  0  0  0  0  0  0  0  0  0
  -15.4378    9.7245   26.4211 C   0  0  0  0  0  0  0  0  0  0  0  0
  -15.6857    8.3449   26.7041 O   0  0  0  0  0  0  0  0  0  0  0  0
  -16.1626    7.9430   25.9612 H   0  0  0  0  0  0  0  0  0  0  0  0
   -9.4828   15.4848   21.3358 O   0  0  0  0  0  0  0  0  0  0  0  0
   -9.6633   15.9538   19.9908 C   0  0  0  0  0  0  0  0  0  0  0  0
   -8.8356   15.1895   19.1016 O   0  0  0  0  0  0  0  0  0  0  0  0
   -9.1094   15.5717   17.7459 C   0  0  0  0  0  0  0  0  0  0  0  0
   -8.6901   17.0163   17.5312 C   0  0  0  0  0  0  0  0  0  0  0  0
   -8.9701   17.4005   16.1779 O   0  0  0  0  0  0  0  0  0  0  0  0
   -9.4603   17.9163   18.4838 C   0  0  0  0  0  0  0  0  0  0  0  0
   -8.9701   19.2602   18.3765 O   0  0  0  0  0  0  0  0  0  0  0  0
   -9.2762   17.4214   19.9090 C   0  0  0  0  0  0  0  0  0  0  0  0
  -10.1086   18.1863   20.7928 O   0  0  0  0  0  0  0  0  0  0  0  0
   -9.9209   17.3123   16.0069 H   0  0  0  0  0  0  0  0  0  0  0  0
   -8.0279   19.2799   18.6060 H   0  0  0  0  0  0  0  0  0  0  0  0
  -11.0373   18.0827   20.5327 H   0  0  0  0  0  0  0  0  0  0  0  0
   -8.3290   14.6658   16.7923 C   0  0  0  0  0  0  0  0  0  0  0  0
   -9.1798   14.2601   15.7162 O   0  0  0  0  0  0  0  0  0  0  0  0
   -9.4900   15.0438   15.2361 H   0  0  0  0  0  0  0  0  0  0  0  0
 35 34  2  0  0  0
 35 36  1  0  0  0
 34 33  1  0  0  0
 36 37  1  0  0  0
 46 45  1  0  0  0
 54 55  1  0  0  0
 54 44  1  0  0  0
 33 37  2  0  0  0
 37 32  1  0  0  0
 45 44  1  0  0  0
 45 47  1  0  0  0
 44 43  1  0  0  0
 48 47  1  0  0  0
 47 49  1  0  0  0
 32 31  1  0  0  0
 43 42  1  0  0  0
 31 30  1  0  0  0
 49 42  1  0  0  0
 49 50  1  0  0  0
 42 41  1  0  0  0
 30 25  1  0  0  0
 17 16  1  0  0  0
 25 27  1  0  0  0
 25 26  2  0  0  0
 41  3  1  0  0  0
  8  1  1  0  0  0
  6  5  1  0  0  0
  3  1  1  0  0  0
  3  5  1  0  0  0
 27 28  2  0  0  0
 26 29  1  0  0  0
 28 29  1  0  0  0
  1  2  1  0  0  0
  5  4  1  0  0  0
 29 15  1  0  0  0
  2 11  1  0  0  0
  2  7  1  0  0  0
  4 14  1  0  0  0
  4  7  1  0  0  0
 16 15  1  0  0  0
 16 22  1  0  0  0
 15 18  1  0  0  0
 14 22  1  0  0  0
 11 12  1  0  0  0
 22 20  1  0  0  0
 18 19  1  0  0  0
 20 19  1  0  0  0
 20 21  1  0  0  0
 19 38  1  0  0  0
 38 39  1  0  0  0
 17 23  1  0  0  0
 39 40  1  0  0  0
 21 24  1  0  0  0
  6  9  1  0  0  0
 12 13  1  0  0  0
  8 10  1  0  0  0
 55 56  1  0  0  0
 46 51  1  0  0  0
 48 52  1  0  0  0
 50 53  1  0  0  0
M  END
> <minimizedAffinity>
-10.59627

$$$$
5O9R_9PK_A_604


 56 60  0  0  0  0  0  0  0  0999 V2000
   -8.8541   13.1918   21.6660 C   0  0  0  0  0  0  0  0  0  0  0  0
   -9.4680   11.8233   21.9118 C   0  0  0  0  0  0  0  0  0  0  0  0
   -9.9497   14.1816   21.3039 C   0  0  0  0  0  0  0  0  0  0  0  0
  -11.5154   12.7439   22.5871 C   0  0  0  0  0  0  0  0  0  0  0  0
  -11.0231   14.1674   22.3802 C   0  0  0  0  0  0  0  0  0  0  0  0
  -12.1200   14.9993   21.9751 O   0  0  0  0  0  0  0  0  0  0  0  0
  -10.4174   11.9104   22.9855 O   0  0  0  0  0  0  0  0  0  0  0  0
   -7.9110   13.1064   20.5880 O   0  0  0  0  0  0  0  0  0  0  0  0
  -12.4919   14.6624   21.1449 H   0  0  0  0  0  0  0  0  0  0  0  0
   -8.3645   12.8066   19.7847 H   0  0  0  0  0  0  0  0  0  0  0  0
   -8.3664   10.8294   22.2844 C   0  0  0  0  0  0  0  0  0  0  0  0
   -7.4849   11.4288   23.2387 O   0  0  0  0  0  0  0  0  0  0  0  0
   -7.0851   12.2246   22.8544 H   0  0  0  0  0  0  0  0  0  0  0  0
  -12.5237   12.7290   23.6073 O   0  0  0  0  0  0  0  0  0  0  0  0
  -14.5660    9.7085   22.7511 C   0  0  0  0  0  0  0  0  0  0  0  0
  -13.8997   11.0585   22.5387 C   0  0  0  0  0  0  0  0  0  0  0  0
  -13.0732   11.0044   21.3669 O   0  0  0  0  0  0  0  0  0  0  0  0
  -15.3859    9.7580   23.9280 O   0  0  0  0  0  0  0  0  0  0  0  0
  -14.5557    9.9504   25.0827 C   0  0  0  0  0  0  0  0  0  0  0  0
  -13.8906   11.3152   25.0072 C   0  0  0  0  0  0  0  0  0  0  0  0
  -13.0554   11.5048   26.1597 O   0  0  0  0  0  0  0  0  0  0  0  0
  -13.0447   11.3986   23.7482 C   0  0  0  0  0  0  0  0  0  0  0  0
  -12.3928   10.3228   21.4822 H   0  0  0  0  0  0  0  0  0  0  0  0
  -12.3744   10.8144   26.1826 H   0  0  0  0  0  0  0  0  0  0  0  0
  -17.0057    8.8553   20.3547 C   0  0  0  0  0  0  0  0  0  0  0  0
  -16.7182    9.1737   21.6019 C   0  0  0  0  0  0  0  0  0  0  0  0
  -15.8803    8.8417   19.6562 N   0  0  0  0  0  0  0  0  0  0  0  0
  -14.9690    9.1314   20.4203 N   0  0  0  0  0  0  0  0  0  0  0  0
  -15.3990    9.3387   21.5842 N   0  0  0  0  0  0  0  0  0  0  0  0
  -18.4021    8.5525   19.8073 C   0  0  0  0  0  0  0  0  0  0  0  0
  -19.0793    7.6579   20.6929 O   0  0  0  0  0  0  0  0  0  0  0  0
  -20.4905    7.7579   20.4874 C   0  0  0  0  0  0  0  0  0  0  0  0
  -20.8462    9.4208   22.3808 C   0  0  0  0  0  0  0  0  0  0  0  0
  -21.3986   10.6163   22.6659 C   0  0  0  0  0  0  0  0  0  0  0  0
  -21.9989   11.2150   21.6282 C   0  0  0  0  0  0  0  0  0  0  0  0
  -21.8268   10.2064   20.3176 S   0  0  0  0  0  0  0  0  0  0  0  0
  -21.0060    9.0590   21.1060 C   0  0  0  0  0  0  0  0  0  0  0  0
  -15.4124    9.8686   26.3479 C   0  0  0  0  0  0  0  0  0  0  0  0
  -16.6066   10.6337   26.1654 O   0  0  0  0  0  0  0  0  0  0  0  0
  -16.3743   11.5593   25.9917 H   0  0  0  0  0  0  0  0  0  0  0  0
   -9.3904   15.4992   21.2037 O   0  0  0  0  0  0  0  0  0  0  0  0
   -9.6540   16.0338   19.8974 C   0  0  0  0  0  0  0  0  0  0  0  0
   -8.8361   15.3597   18.9297 O   0  0  0  0  0  0  0  0  0  0  0  0
   -9.1895   15.8039   17.6119 C   0  0  0  0  0  0  0  0  0  0  0  0
   -8.8445   17.2762   17.4629 C   0  0  0  0  0  0  0  0  0  0  0  0
   -9.2042   17.7219   16.1479 O   0  0  0  0  0  0  0  0  0  0  0  0
   -9.6080   18.0847   18.4992 C   0  0  0  0  0  0  0  0  0  0  0  0
   -9.1829   19.4538   18.4484 O   0  0  0  0  0  0  0  0  0  0  0  0
   -9.3360   17.5201   19.8838 C   0  0  0  0  0  0  0  0  0  0  0  0
  -10.1589   18.1949   20.8464 O   0  0  0  0  0  0  0  0  0  0  0  0
  -10.1571   17.5994   16.0143 H   0  0  0  0  0  0  0  0  0  0  0  0
   -8.2327   19.5045   18.6367 H   0  0  0  0  0  0  0  0  0  0  0  0
  -11.0933   18.0629   20.6220 H   0  0  0  0  0  0  0  0  0  0  0  0
   -8.4156   14.9900   16.5739 C   0  0  0  0  0  0  0  0  0  0  0  0
   -9.2679   13.9788   16.0283 O   0  0  0  0  0  0  0  0  0  0  0  0
  -10.0349   14.3959   15.6056 H   0  0  0  0  0  0  0  0  0  0  0  0
 35 34  2  0  0  0
 35 36  1  0  0  0
 34 33  1  0  0  0
 36 37  1  0  0  0
 46 45  1  0  0  0
 54 55  1  0  0  0
 54 44  1  0  0  0
 33 37  2  0  0  0
 37 32  1  0  0  0
 45 44  1  0  0  0
 45 47  1  0  0  0
 44 43  1  0  0  0
 48 47  1  0  0  0
 47 49  1  0  0  0
 32 31  1  0  0  0
 43 42  1  0  0  0
 31 30  1  0  0  0
 49 42  1  0  0  0
 49 50  1  0  0  0
 42 41  1  0  0  0
 30 25  1  0  0  0
 17 16  1  0  0  0
 25 27  1  0  0  0
 25 26  2  0  0  0
 41  3  1  0  0  0
  8  1  1  0  0  0
  6  5  1  0  0  0
  3  1  1  0  0  0
  3  5  1  0  0  0
 27 28  2  0  0  0
 26 29  1  0  0  0
 28 29  1  0  0  0
  1  2  1  0  0  0
  5  4  1  0  0  0
 29 15  1  0  0  0
  2 11  1  0  0  0
  2  7  1  0  0  0
  4 14  1  0  0  0
  4  7  1  0  0  0
 16 15  1  0  0  0
 16 22  1  0  0  0
 15 18  1  0  0  0
 14 22  1  0  0  0
 11 12  1  0  0  0
 22 20  1  0  0  0
 18 19  1  0  0  0
 20 19  1  0  0  0
 20 21  1  0  0  0
 19 38  1  0  0  0
 38 39  1  0  0  0
 17 23  1  0  0  0
 39 40  1  0  0  0
 21 24  1  0  0  0
  6  9  1  0  0  0
 12 13  1  0  0  0
  8 10  1  0  0  0
 55 56  1  0  0  0
 46 51  1  0  0  0
 48 52  1  0  0  0
 50 53  1  0  0  0
M  END
> <minimizedAffinity>
-10.39307

$$$$
5O9R_9PK_A_604


 56 60  0  0  0  0  0  0  0  0999 V2000
   -8.9024   13.2522   21.6846 C   0  0  0  0  0  0  0  0  0  0  0  0
   -9.4714   11.8574   21.8868 C   0  0  0  0  0  0  0  0  0  0  0  0
   -9.9792   14.1616   21.1149 C   0  0  0  0  0  0  0  0  0  0  0  0
  -11.6476   12.6730   22.1942 C   0  0  0  0  0  0  0  0  0  0  0  0
  -11.2076   14.1164   22.0090 C   0  0  0  0  0  0  0  0  0  0  0  0
  -12.2702   14.8669   21.4031 O   0  0  0  0  0  0  0  0  0  0  0  0
  -10.5828   11.9207   22.7937 O   0  0  0  0  0  0  0  0  0  0  0  0
   -7.7966   13.1901   20.7724 O   0  0  0  0  0  0  0  0  0  0  0  0
  -12.4863   14.4819   20.5394 H   0  0  0  0  0  0  0  0  0  0  0  0
   -8.0994   12.8380   19.9207 H   0  0  0  0  0  0  0  0  0  0  0  0
   -8.3902   10.9446   22.4680 C   0  0  0  0  0  0  0  0  0  0  0  0
   -7.5449   11.7005   23.3405 O   0  0  0  0  0  0  0  0  0  0  0  0
   -7.1265   12.4199   22.8422 H   0  0  0  0  0  0  0  0  0  0  0  0
  -12.8029   12.6292   23.0433 O   0  0  0  0  0  0  0  0  0  0  0  0
  -14.8496    9.5727   22.3390 C   0  0  0  0  0  0  0  0  0  0  0  0
  -14.2759   10.9615   22.1078 C   0  0  0  0  0  0  0  0  0  0  0  0
  -13.6522   11.0121   20.8164 O   0  0  0  0  0  0  0  0  0  0  0  0
  -15.4658    9.5177   23.6340 O   0  0  0  0  0  0  0  0  0  0  0  0
  -14.4642    9.6814   24.6487 C   0  0  0  0  0  0  0  0  0  0  0  0
  -13.8695   11.0771   24.5534 C   0  0  0  0  0  0  0  0  0  0  0  0
  -12.8632   11.2386   25.5648 O   0  0  0  0  0  0  0  0  0  0  0  0
  -13.2460   11.2707   23.1818 C   0  0  0  0  0  0  0  0  0  0  0  0
  -12.9383   10.3566   20.7762 H   0  0  0  0  0  0  0  0  0  0  0  0
  -12.1636   10.5797   25.4330 H   0  0  0  0  0  0  0  0  0  0  0  0
  -17.6320    8.8446   20.3015 C   0  0  0  0  0  0  0  0  0  0  0  0
  -17.1654    9.1844   21.4874 C   0  0  0  0  0  0  0  0  0  0  0  0
  -16.6079    8.7057   19.4729 N   0  0  0  0  0  0  0  0  0  0  0  0
  -15.5874    8.9438   20.1055 N   0  0  0  0  0  0  0  0  0  0  0  0
  -15.8497    9.2325   21.3015 N   0  0  0  0  0  0  0  0  0  0  0  0
  -19.1060    8.6443   19.9433 C   0  0  0  0  0  0  0  0  0  0  0  0
  -19.2153    7.6935   18.8816 O   0  0  0  0  0  0  0  0  0  0  0  0
  -20.1260    8.1819   17.8936 C   0  0  0  0  0  0  0  0  0  0  0  0
  -18.2982    7.7240   16.1830 C   0  0  0  0  0  0  0  0  0  0  0  0
  -18.0973    7.4380   14.8817 C   0  0  0  0  0  0  0  0  0  0  0  0
  -19.2174    7.3407   14.1526 C   0  0  0  0  0  0  0  0  0  0  0  0
  -20.4936    7.6242   15.1800 S   0  0  0  0  0  0  0  0  0  0  0  0
  -19.5882    7.8577   16.4983 C   0  0  0  0  0  0  0  0  0  0  0  0
  -15.0974    9.4887   26.0282 C   0  0  0  0  0  0  0  0  0  0  0  0
  -16.3116   10.2401   26.1047 O   0  0  0  0  0  0  0  0  0  0  0  0
  -16.1191   11.1806   25.9660 H   0  0  0  0  0  0  0  0  0  0  0  0
   -9.4843   15.5070   21.0498 O   0  0  0  0  0  0  0  0  0  0  0  0
   -9.6833   16.0275   19.7265 C   0  0  0  0  0  0  0  0  0  0  0  0
   -8.9469   15.2345   18.7838 O   0  0  0  0  0  0  0  0  0  0  0  0
   -9.2455   15.6752   17.4513 C   0  0  0  0  0  0  0  0  0  0  0  0
   -8.7339   17.0929   17.2589 C   0  0  0  0  0  0  0  0  0  0  0  0
   -9.0385   17.5360   15.9292 O   0  0  0  0  0  0  0  0  0  0  0  0
   -9.4010   18.0154   18.2663 C   0  0  0  0  0  0  0  0  0  0  0  0
   -8.8217   19.3245   18.1756 O   0  0  0  0  0  0  0  0  0  0  0  0
   -9.1971   17.4664   19.6689 C   0  0  0  0  0  0  0  0  0  0  0  0
   -9.9384   18.2605   20.6064 O   0  0  0  0  0  0  0  0  0  0  0  0
   -9.9990   17.5192   15.7948 H   0  0  0  0  0  0  0  0  0  0  0  0
   -7.8722   19.2719   18.3668 H   0  0  0  0  0  0  0  0  0  0  0  0
  -10.8815   18.2295   20.3818 H   0  0  0  0  0  0  0  0  0  0  0  0
   -8.5687   14.7463   16.4424 C   0  0  0  0  0  0  0  0  0  0  0  0
   -8.0671   13.5903   17.1199 O   0  0  0  0  0  0  0  0  0  0  0  0
   -8.8012   13.1226   17.5480 H   0  0  0  0  0  0  0  0  0  0  0  0
 35 34  2  0  0  0
 35 36  1  0  0  0
 34 33  1  0  0  0
 36 37  1  0  0  0
 46 45  1  0  0  0
 54 55  1  0  0  0
 54 44  1  0  0  0
 33 37  2  0  0  0
 37 32  1  0  0  0
 45 44  1  0  0  0
 45 47  1  0  0  0
 44 43  1  0  0  0
 48 47  1  0  0  0
 47 49  1  0  0  0
 32 31  1  0  0  0
 43 42  1  0  0  0
 31 30  1  0  0  0
 49 42  1  0  0  0
 49 50  1  0  0  0
 42 41  1  0  0  0
 30 25  1  0  0  0
 17 16  1  0  0  0
 25 27  1  0  0  0
 25 26  2  0  0  0
 41  3  1  0  0  0
  8  1  1  0  0  0
  6  5  1  0  0  0
  3  1  1  0  0  0
  3  5  1  0  0  0
 27 28  2  0  0  0
 26 29  1  0  0  0
 28 29  1  0  0  0
  1  2  1  0  0  0
  5  4  1  0  0  0
 29 15  1  0  0  0
  2 11  1  0  0  0
  2  7  1  0  0  0
  4 14  1  0  0  0
  4  7  1  0  0  0
 16 15  1  0  0  0
 16 22  1  0  0  0
 15 18  1  0  0  0
 14 22  1  0  0  0
 11 12  1  0  0  0
 22 20  1  0  0  0
 18 19  1  0  0  0
 20 19  1  0  0  0
 20 21  1  0  0  0
 19 38  1  0  0  0
 38 39  1  0  0  0
 17 23  1  0  0  0
 39 40  1  0  0  0
 21 24  1  0  0  0
  6  9  1  0  0  0
 12 13  1  0  0  0
  8 10  1  0  0  0
 55 56  1  0  0  0
 46 51  1  0  0  0
 48 52  1  0  0  0
 50 53  1  0  0  0
M  END
> <minimizedAffinity>
-10.32099

$$$$
5O9R_9PK_A_604


 56 60  0  0  0  0  0  0  0  0999 V2000
   -8.9041   16.9370   17.3982 C   0  0  0  0  0  0  0  0  0  0  0  0
   -9.1702   15.4745   17.7152 C   0  0  0  0  0  0  0  0  0  0  0  0
   -9.7088   17.8153   18.3427 C   0  0  0  0  0  0  0  0  0  0  0  0
   -9.6420   15.9365   19.9646 C   0  0  0  0  0  0  0  0  0  0  0  0
   -9.4049   17.4269   19.7806 C   0  0  0  0  0  0  0  0  0  0  0  0
  -10.2614   18.1611   20.6674 O   0  0  0  0  0  0  0  0  0  0  0  0
   -8.7905   15.2022   19.0729 O   0  0  0  0  0  0  0  0  0  0  0  0
   -9.2907   17.2109   16.0439 O   0  0  0  0  0  0  0  0  0  0  0  0
  -11.1877   17.9545   20.4670 H   0  0  0  0  0  0  0  0  0  0  0  0
  -10.2359   17.0230   15.9331 H   0  0  0  0  0  0  0  0  0  0  0  0
   -8.3539   14.5909   16.7703 C   0  0  0  0  0  0  0  0  0  0  0  0
   -9.1726   14.1844   15.6696 O   0  0  0  0  0  0  0  0  0  0  0  0
   -9.9350   13.6845   16.0009 H   0  0  0  0  0  0  0  0  0  0  0  0
   -9.3489   15.5682   21.3196 O   0  0  0  0  0  0  0  0  0  0  0  0
  -11.4061   13.1022   23.2468 C   0  0  0  0  0  0  0  0  0  0  0  0
  -10.8600   14.4623   22.8426 C   0  0  0  0  0  0  0  0  0  0  0  0
  -11.9504   15.3429   22.5348 O   0  0  0  0  0  0  0  0  0  0  0  0
  -10.3164   12.2174   23.5461 O   0  0  0  0  0  0  0  0  0  0  0  0
   -9.5548   11.9747   22.3542 C   0  0  0  0  0  0  0  0  0  0  0  0
   -8.8993   13.2685   21.8993 C   0  0  0  0  0  0  0  0  0  0  0  0
   -8.1423   13.0266   20.7034 O   0  0  0  0  0  0  0  0  0  0  0  0
   -9.9700   14.3093   21.6202 C   0  0  0  0  0  0  0  0  0  0  0  0
  -12.4688   14.9723   21.8034 H   0  0  0  0  0  0  0  0  0  0  0  0
   -8.7337   12.7016   20.0065 H   0  0  0  0  0  0  0  0  0  0  0  0
  -13.0447   13.1555   26.3670 C   0  0  0  0  0  0  0  0  0  0  0  0
  -11.9552   12.8867   25.6738 C   0  0  0  0  0  0  0  0  0  0  0  0
  -13.9647   13.6221   25.5360 N   0  0  0  0  0  0  0  0  0  0  0  0
  -13.4741   13.6384   24.4147 N   0  0  0  0  0  0  0  0  0  0  0  0
  -12.2894   13.2155   24.4297 N   0  0  0  0  0  0  0  0  0  0  0  0
  -13.2170   12.9612   27.8748 C   0  0  0  0  0  0  0  0  0  0  0  0
  -13.8508   14.1129   28.4361 O   0  0  0  0  0  0  0  0  0  0  0  0
  -12.8597   15.0827   28.7841 C   0  0  0  0  0  0  0  0  0  0  0  0
  -14.5773   16.6336   29.8428 C   0  0  0  0  0  0  0  0  0  0  0  0
  -14.9760   17.9201   29.8846 C   0  0  0  0  0  0  0  0  0  0  0  0
  -14.2576   18.7518   29.1179 C   0  0  0  0  0  0  0  0  0  0  0  0
  -13.0893   17.8366   28.3682 S   0  0  0  0  0  0  0  0  0  0  0  0
  -13.5329   16.4334   29.0363 C   0  0  0  0  0  0  0  0  0  0  0  0
   -8.4760   10.9283   22.6410 C   0  0  0  0  0  0  0  0  0  0  0  0
   -7.3755   11.5491   23.3105 O   0  0  0  0  0  0  0  0  0  0  0  0
   -7.0068   12.2476   22.7474 H   0  0  0  0  0  0  0  0  0  0  0  0
   -9.3566   19.1906   18.1342 O   0  0  0  0  0  0  0  0  0  0  0  0
  -10.5319   19.9392   17.7875 C   0  0  0  0  0  0  0  0  0  0  0  0
  -11.5660   19.6795   18.7483 O   0  0  0  0  0  0  0  0  0  0  0  0
  -12.6952   20.5219   18.4754 C   0  0  0  0  0  0  0  0  0  0  0  0
  -13.2989   20.1425   17.1336 C   0  0  0  0  0  0  0  0  0  0  0  0
  -14.4234   20.9891   16.8576 O   0  0  0  0  0  0  0  0  0  0  0  0
  -12.2562   20.3117   16.0406 C   0  0  0  0  0  0  0  0  0  0  0  0
  -12.7815   19.8274   14.7967 O   0  0  0  0  0  0  0  0  0  0  0  0
  -11.0079   19.5247   16.4048 C   0  0  0  0  0  0  0  0  0  0  0  0
   -9.9764   19.7909   15.4434 O   0  0  0  0  0  0  0  0  0  0  0  0
  -14.1326   21.9141   16.8298 H   0  0  0  0  0  0  0  0  0  0  0  0
  -13.0063   18.8879   14.8846 H   0  0  0  0  0  0  0  0  0  0  0  0
   -9.7715   20.7390   15.4432 H   0  0  0  0  0  0  0  0  0  0  0  0
  -13.7425   20.3446   19.5756 C   0  0  0  0  0  0  0  0  0  0  0  0
  -14.4853   19.1452   19.3385 O   0  0  0  0  0  0  0  0  0  0  0  0
  -13.8821   18.3855   19.3410 H   0  0  0  0  0  0  0  0  0  0  0  0
 35 34  2  0  0  0
 35 36  1  0  0  0
 34 33  1  0  0  0
 36 37  1  0  0  0
 46 45  1  0  0  0
 54 55  1  0  0  0
 54 44  1  0  0  0
 33 37  2  0  0  0
 37 32  1  0  0  0
 45 44  1  0  0  0
 45 47  1  0  0  0
 44 43  1  0  0  0
 48 47  1  0  0  0
 47 49  1  0  0  0
 32 31  1  0  0  0
 43 42  1  0  0  0
 31 30  1  0  0  0
 49 42  1  0  0  0
 49 50  1  0  0  0
 42 41  1  0  0  0
 30 25  1  0  0  0
 17 16  1  0  0  0
 25 27  1  0  0  0
 25 26  2  0  0  0
 41  3  1  0  0  0
  8  1  1  0  0  0
  6  5  1  0  0  0
  3  1  1  0  0  0
  3  5  1  0  0  0
 27 28  2  0  0  0
 26 29  1  0  0  0
 28 29  1  0  0  0
  1  2  1  0  0  0
  5  4  1  0  0  0
 29 15  1  0  0  0
  2 11  1  0  0  0
  2  7  1  0  0  0
  4 14  1  0  0  0
  4  7  1  0  0  0
 16 15  1  0  0  0
 16 22  1  0  0  0
 15 18  1  0  0  0
 14 22  1  0  0  0
 11 12  1  0  0  0
 22 20  1  0  0  0
 18 19  1  0  0  0
 20 19  1  0  0  0
 20 21  1  0  0  0
 19 38  1  0  0  0
 38 39  1  0  0  0
 17 23  1  0  0  0
 39 40  1  0  0  0
 21 24  1  0  0  0
  6  9  1  0  0  0
 12 13  1  0  0  0
  8 10  1  0  0  0
 55 56  1  0  0  0
 46 51  1  0  0  0
 48 52  1  0  0  0
 50 53  1  0  0  0
M  END
> <minimizedAffinity>
-9.63643

$$$$
5O9R_9PK_A_604


 56 60  0  0  0  0  0  0  0  0999 V2000
   -9.0860   13.2587   20.7615 C   0  0  0  0  0  0  0  0  0  0  0  0
   -9.3667   12.3931   21.9790 C   0  0  0  0  0  0  0  0  0  0  0  0
  -10.1026   12.9497   19.6742 C   0  0  0  0  0  0  0  0  0  0  0  0
  -11.6530   12.2469   21.4817 C   0  0  0  0  0  0  0  0  0  0  0  0
  -11.5075   13.1030   20.2338 C   0  0  0  0  0  0  0  0  0  0  0  0
  -12.4645   12.6827   19.2505 O   0  0  0  0  0  0  0  0  0  0  0  0
  -10.6916   12.6624   22.4626 O   0  0  0  0  0  0  0  0  0  0  0  0
   -7.7650   12.9840   20.2736 O   0  0  0  0  0  0  0  0  0  0  0  0
  -12.3079   11.7526   19.0239 H   0  0  0  0  0  0  0  0  0  0  0  0
   -7.6995   12.0482   20.0268 H   0  0  0  0  0  0  0  0  0  0  0  0
   -8.3489   12.7102   23.0760 C   0  0  0  0  0  0  0  0  0  0  0  0
   -7.4391   11.6148   23.2149 O   0  0  0  0  0  0  0  0  0  0  0  0
   -7.9314   10.8137   23.4531 H   0  0  0  0  0  0  0  0  0  0  0  0
  -12.9765   12.3964   22.0141 O   0  0  0  0  0  0  0  0  0  0  0  0
  -15.4066    9.5468   22.0596 C   0  0  0  0  0  0  0  0  0  0  0  0
  -14.7751   10.8452   21.5835 C   0  0  0  0  0  0  0  0  0  0  0  0
  -14.4655   10.7419   20.1861 O   0  0  0  0  0  0  0  0  0  0  0  0
  -15.7085    9.6451   23.4593 O   0  0  0  0  0  0  0  0  0  0  0  0
  -14.4884    9.7624   24.2057 C   0  0  0  0  0  0  0  0  0  0  0  0
  -13.8044   11.0742   23.8562 C   0  0  0  0  0  0  0  0  0  0  0  0
  -12.5807   11.1884   24.5986 O   0  0  0  0  0  0  0  0  0  0  0  0
  -13.5002   11.1074   22.3683 C   0  0  0  0  0  0  0  0  0  0  0  0
  -13.8446   10.0100   20.0457 H   0  0  0  0  0  0  0  0  0  0  0  0
  -11.9952   10.4487   24.3728 H   0  0  0  0  0  0  0  0  0  0  0  0
  -18.6351    9.1433   20.7040 C   0  0  0  0  0  0  0  0  0  0  0  0
  -17.8721    9.6232   21.6669 C   0  0  0  0  0  0  0  0  0  0  0  0
  -17.8609    8.5212   19.8275 N   0  0  0  0  0  0  0  0  0  0  0  0
  -16.7067    8.6138   20.2246 N   0  0  0  0  0  0  0  0  0  0  0  0
  -16.6470    9.2530   21.3064 N   0  0  0  0  0  0  0  0  0  0  0  0
  -20.1562    9.2811   20.6145 C   0  0  0  0  0  0  0  0  0  0  0  0
  -20.5560    9.2876   19.2422 O   0  0  0  0  0  0  0  0  0  0  0  0
  -21.2896    8.0954   18.9517 C   0  0  0  0  0  0  0  0  0  0  0  0
  -22.1343    7.1780   16.7333 C   0  0  0  0  0  0  0  0  0  0  0  0
  -21.7950    7.0286   15.4378 C   0  0  0  0  0  0  0  0  0  0  0  0
  -20.5880    7.5148   15.1178 C   0  0  0  0  0  0  0  0  0  0  0  0
  -19.9337    8.1489   16.5086 S   0  0  0  0  0  0  0  0  0  0  0  0
  -21.1921    7.7872   17.4561 C   0  0  0  0  0  0  0  0  0  0  0  0
  -14.8000    9.7315   25.7033 C   0  0  0  0  0  0  0  0  0  0  0  0
  -16.1511   10.1479   25.9179 O   0  0  0  0  0  0  0  0  0  0  0  0
  -16.2687   11.0501   25.5818 H   0  0  0  0  0  0  0  0  0  0  0  0
   -9.9225   13.8584   18.5784 O   0  0  0  0  0  0  0  0  0  0  0  0
   -9.5646   15.1539   19.0838 C   0  0  0  0  0  0  0  0  0  0  0  0
  -10.7345   15.8082   19.5966 O   0  0  0  0  0  0  0  0  0  0  0  0
  -10.3577   17.0469   20.2151 C   0  0  0  0  0  0  0  0  0  0  0  0
   -9.8063   17.9931   19.1618 C   0  0  0  0  0  0  0  0  0  0  0  0
   -9.4232   19.2288   19.7810 O   0  0  0  0  0  0  0  0  0  0  0  0
   -8.5943   17.3621   18.4959 C   0  0  0  0  0  0  0  0  0  0  0  0
   -8.1549   18.1931   17.4123 O   0  0  0  0  0  0  0  0  0  0  0  0
   -8.9665   15.9883   17.9629 C   0  0  0  0  0  0  0  0  0  0  0  0
   -7.7928   15.3374   17.4551 O   0  0  0  0  0  0  0  0  0  0  0  0
   -8.7410   19.0578   20.4491 H   0  0  0  0  0  0  0  0  0  0  0  0
   -8.8695   18.2817   16.7624 H   0  0  0  0  0  0  0  0  0  0  0  0
   -7.1422   15.2415   18.1681 H   0  0  0  0  0  0  0  0  0  0  0  0
  -11.5814   17.6790   20.8797 C   0  0  0  0  0  0  0  0  0  0  0  0
  -11.1571   18.6977   21.7901 O   0  0  0  0  0  0  0  0  0  0  0  0
  -10.6641   19.3788   21.3064 H   0  0  0  0  0  0  0  0  0  0  0  0
 35 34  2  0  0  0
 35 36  1  0  0  0
 34 33  1  0  0  0
 36 37  1  0  0  0
 46 45  1  0  0  0
 54 55  1  0  0  0
 54 44  1  0  0  0
 33 37  2  0  0  0
 37 32  1  0  0  0
 45 44  1  0  0  0
 45 47  1  0  0  0
 44 43  1  0  0  0
 48 47  1  0  0  0
 47 49  1  0  0  0
 32 31  1  0  0  0
 43 42  1  0  0  0
 31 30  1  0  0  0
 49 42  1  0  0  0
 49 50  1  0  0  0
 42 41  1  0  0  0
 30 25  1  0  0  0
 17 16  1  0  0  0
 25 27  1  0  0  0
 25 26  2  0  0  0
 41  3  1  0  0  0
  8  1  1  0  0  0
  6  5  1  0  0  0
  3  1  1  0  0  0
  3  5  1  0  0  0
 27 28  2  0  0  0
 26 29  1  0  0  0
 28 29  1  0  0  0
  1  2  1  0  0  0
  5  4  1  0  0  0
 29 15  1  0  0  0
  2 11  1  0  0  0
  2  7  1  0  0  0
  4 14  1  0  0  0
  4  7  1  0  0  0
 16 15  1  0  0  0
 16 22  1  0  0  0
 15 18  1  0  0  0
 14 22  1  0  0  0
 11 12  1  0  0  0
 22 20  1  0  0  0
 18 19  1  0  0  0
 20 19  1  0  0  0
 20 21  1  0  0  0
 19 38  1  0  0  0
 38 39  1  0  0  0
 17 23  1  0  0  0
 39 40  1  0  0  0
 21 24  1  0  0  0
  6  9  1  0  0  0
 12 13  1  0  0  0
  8 10  1  0  0  0
 55 56  1  0  0  0
 46 51  1  0  0  0
 48 52  1  0  0  0
 50 53  1  0  0  0
M  END
> <minimizedAffinity>
-9.58184

$$$$
5O9R_9PK_A_604


 56 60  0  0  0  0  0  0  0  0999 V2000
  -19.8213    9.4107   20.9653 C   0  0  0  0  0  0  0  0  0  0  0  0
  -19.4327   10.5677   21.8711 C   0  0  0  0  0  0  0  0  0  0  0  0
  -18.6418    9.0410   20.0803 C   0  0  0  0  0  0  0  0  0  0  0  0
  -17.1683    9.9611   21.8543 C   0  0  0  0  0  0  0  0  0  0  0  0
  -17.4226    8.7685   20.9463 C   0  0  0  0  0  0  0  0  0  0  0  0
  -16.2777    8.5515   20.1089 O   0  0  0  0  0  0  0  0  0  0  0  0
  -18.3158   10.1825   22.6871 O   0  0  0  0  0  0  0  0  0  0  0  0
  -20.9325    9.7981   20.1445 O   0  0  0  0  0  0  0  0  0  0  0  0
  -16.1185    9.3409   19.5680 H   0  0  0  0  0  0  0  0  0  0  0  0
  -20.6831   10.5631   19.6026 H   0  0  0  0  0  0  0  0  0  0  0  0
  -20.6170   10.9339   22.7674 C   0  0  0  0  0  0  0  0  0  0  0  0
  -21.2401    9.7390   23.2480 O   0  0  0  0  0  0  0  0  0  0  0  0
  -21.5549    9.2135   22.4958 H   0  0  0  0  0  0  0  0  0  0  0  0
  -16.0219    9.7017   22.6766 O   0  0  0  0  0  0  0  0  0  0  0  0
  -13.1433   12.0969   22.7421 C   0  0  0  0  0  0  0  0  0  0  0  0
  -13.9270   10.8549   22.3486 C   0  0  0  0  0  0  0  0  0  0  0  0
  -14.0089   10.7747   20.9181 O   0  0  0  0  0  0  0  0  0  0  0  0
  -13.0683   12.1835   24.1727 O   0  0  0  0  0  0  0  0  0  0  0  0
  -14.3835   12.3862   24.7102 C   0  0  0  0  0  0  0  0  0  0  0  0
  -15.2387   11.1604   24.4331 C   0  0  0  0  0  0  0  0  0  0  0  0
  -16.5563   11.3660   24.9657 O   0  0  0  0  0  0  0  0  0  0  0  0
  -15.3274   10.9315   22.9341 C   0  0  0  0  0  0  0  0  0  0  0  0
  -14.4586   11.5628   20.5753 H   0  0  0  0  0  0  0  0  0  0  0  0
  -16.9579   12.1419   24.5444 H   0  0  0  0  0  0  0  0  0  0  0  0
   -9.8934   12.6038   21.4753 C   0  0  0  0  0  0  0  0  0  0  0  0
  -10.9918   13.1200   21.9918 C   0  0  0  0  0  0  0  0  0  0  0  0
  -10.0550   11.2930   21.3733 N   0  0  0  0  0  0  0  0  0  0  0  0
  -11.1716   11.0254   21.7973 N   0  0  0  0  0  0  0  0  0  0  0  0
  -11.7751   12.0617   22.1771 N   0  0  0  0  0  0  0  0  0  0  0  0
   -8.6447   13.3860   21.0634 C   0  0  0  0  0  0  0  0  0  0  0  0
   -9.0096   14.4230   20.1498 O   0  0  0  0  0  0  0  0  0  0  0  0
   -9.3928   13.8461   18.8991 C   0  0  0  0  0  0  0  0  0  0  0  0
   -8.6975   14.6983   16.6041 C   0  0  0  0  0  0  0  0  0  0  0  0
   -8.7232   15.7900   15.8147 C   0  0  0  0  0  0  0  0  0  0  0  0
   -9.3136   16.8608   16.3627 C   0  0  0  0  0  0  0  0  0  0  0  0
   -9.8151   16.4154   17.8841 S   0  0  0  0  0  0  0  0  0  0  0  0
   -9.2706   14.8964   17.7932 C   0  0  0  0  0  0  0  0  0  0  0  0
  -14.2894   12.6132   26.2204 C   0  0  0  0  0  0  0  0  0  0  0  0
  -14.4542   11.3665   26.9012 O   0  0  0  0  0  0  0  0  0  0  0  0
  -15.3222   10.9919   26.6841 H   0  0  0  0  0  0  0  0  0  0  0  0
  -18.9622    7.8656   19.3220 O   0  0  0  0  0  0  0  0  0  0  0  0
  -19.1100    8.2143   17.9370 C   0  0  0  0  0  0  0  0  0  0  0  0
  -20.4454    7.9119   17.5067 O   0  0  0  0  0  0  0  0  0  0  0  0
  -20.6313    8.3759   16.1616 C   0  0  0  0  0  0  0  0  0  0  0  0
  -19.7279    7.5918   15.2247 C   0  0  0  0  0  0  0  0  0  0  0  0
  -19.9086    8.0603   13.8812 O   0  0  0  0  0  0  0  0  0  0  0  0
  -18.2777    7.7834   15.6381 C   0  0  0  0  0  0  0  0  0  0  0  0
  -17.4356    6.9394   14.8404 O   0  0  0  0  0  0  0  0  0  0  0  0
  -18.1164    7.4199   17.1051 C   0  0  0  0  0  0  0  0  0  0  0  0
  -16.7812    7.7278   17.5308 O   0  0  0  0  0  0  0  0  0  0  0  0
  -19.6817    9.0022   13.8339 H   0  0  0  0  0  0  0  0  0  0  0  0
  -17.6883    6.0124   14.9730 H   0  0  0  0  0  0  0  0  0  0  0  0
  -16.6149    8.6762   17.4132 H   0  0  0  0  0  0  0  0  0  0  0  0
  -22.0907    8.1770   15.7498 C   0  0  0  0  0  0  0  0  0  0  0  0
  -22.4578    9.1777   14.7956 O   0  0  0  0  0  0  0  0  0  0  0  0
  -21.8884    9.1035   14.0139 H   0  0  0  0  0  0  0  0  0  0  0  0
 35 34  2  0  0  0
 35 36  1  0  0  0
 34 33  1  0  0  0
 36 37  1  0  0  0
 46 45  1  0  0  0
 54 55  1  0  0  0
 54 44  1  0  0  0
 33 37  2  0  0  0
 37 32  1  0  0  0
 45 44  1  0  0  0
 45 47  1  0  0  0
 44 43  1  0  0  0
 48 47  1  0  0  0
 47 49  1  0  0  0
 32 31  1  0  0  0
 43 42  1  0  0  0
 31 30  1  0  0  0
 49 42  1  0  0  0
 49 50  1  0  0  0
 42 41  1  0  0  0
 30 25  1  0  0  0
 17 16  1  0  0  0
 25 27  1  0  0  0
 25 26  2  0  0  0
 41  3  1  0  0  0
  8  1  1  0  0  0
  6  5  1  0  0  0
  3  1  1  0  0  0
  3  5  1  0  0  0
 27 28  2  0  0  0
 26 29  1  0  0  0
 28 29  1  0  0  0
  1  2  1  0  0  0
  5  4  1  0  0  0
 29 15  1  0  0  0
  2 11  1  0  0  0
  2  7  1  0  0  0
  4 14  1  0  0  0
  4  7  1  0  0  0
 16 15  1  0  0  0
 16 22  1  0  0  0
 15 18  1  0  0  0
 14 22  1  0  0  0
 11 12  1  0  0  0
 22 20  1  0  0  0
 18 19  1  0  0  0
 20 19  1  0  0  0
 20 21  1  0  0  0
 19 38  1  0  0  0
 38 39  1  0  0  0
 17 23  1  0  0  0
 39 40  1  0  0  0
 21 24  1  0  0  0
  6  9  1  0  0  0
 12 13  1  0  0  0
  8 10  1  0  0  0
 55 56  1  0  0  0
 46 51  1  0  0  0
 48 52  1  0  0  0
 50 53  1  0  0  0
M  END
> <minimizedAffinity>
-9.46621

$$$$
5O9R_9PK_A_604


 56 60  0  0  0  0  0  0  0  0999 V2000
   -9.0929   13.3494   20.5516 C   0  0  0  0  0  0  0  0  0  0  0  0
   -9.4156   12.6024   21.8354 C   0  0  0  0  0  0  0  0  0  0  0  0
   -9.9965   12.8523   19.4347 C   0  0  0  0  0  0  0  0  0  0  0  0
  -11.6402   12.2386   21.1916 C   0  0  0  0  0  0  0  0  0  0  0  0
  -11.4490   12.9633   19.8688 C   0  0  0  0  0  0  0  0  0  0  0  0
  -12.2945   12.3713   18.8719 O   0  0  0  0  0  0  0  0  0  0  0  0
  -10.7897   12.8260   22.1869 O   0  0  0  0  0  0  0  0  0  0  0  0
   -7.7220   13.1198   20.1962 O   0  0  0  0  0  0  0  0  0  0  0  0
  -12.0613   11.4359   18.7642 H   0  0  0  0  0  0  0  0  0  0  0  0
   -7.5774   12.1700   20.0624 H   0  0  0  0  0  0  0  0  0  0  0  0
   -8.5121   13.1087   22.9612 C   0  0  0  0  0  0  0  0  0  0  0  0
   -7.5471   12.1042   23.2879 O   0  0  0  0  0  0  0  0  0  0  0  0
   -8.0040   11.2992   23.5780 H   0  0  0  0  0  0  0  0  0  0  0  0
  -13.0093   12.3488   21.6050 O   0  0  0  0  0  0  0  0  0  0  0  0
  -15.3367    9.4146   21.5655 C   0  0  0  0  0  0  0  0  0  0  0  0
  -14.7201   10.7234   21.0980 C   0  0  0  0  0  0  0  0  0  0  0  0
  -14.3145   10.5979   19.7272 O   0  0  0  0  0  0  0  0  0  0  0  0
  -15.7346    9.5355   22.9391 O   0  0  0  0  0  0  0  0  0  0  0  0
  -14.5719    9.7150   23.7609 C   0  0  0  0  0  0  0  0  0  0  0  0
  -13.9120   11.0420   23.4228 C   0  0  0  0  0  0  0  0  0  0  0  0
  -12.7453   11.2184   24.2410 O   0  0  0  0  0  0  0  0  0  0  0  0
  -13.5104   11.0505   21.9578 C   0  0  0  0  0  0  0  0  0  0  0  0
  -13.6606    9.8858   19.6474 H   0  0  0  0  0  0  0  0  0  0  0  0
  -12.1208   10.4953   24.0738 H   0  0  0  0  0  0  0  0  0  0  0  0
  -18.4186    8.4981   20.1215 C   0  0  0  0  0  0  0  0  0  0  0  0
  -17.7119    8.7281   21.2111 C   0  0  0  0  0  0  0  0  0  0  0  0
  -17.6391    8.6931   19.0684 N   0  0  0  0  0  0  0  0  0  0  0  0
  -16.5347    9.0196   19.4829 N   0  0  0  0  0  0  0  0  0  0  0  0
  -16.5131    9.0579   20.7401 N   0  0  0  0  0  0  0  0  0  0  0  0
  -19.8890    8.0770   20.0805 C   0  0  0  0  0  0  0  0  0  0  0  0
  -20.5686    8.6009   21.2237 O   0  0  0  0  0  0  0  0  0  0  0  0
  -21.3014    9.7704   20.8507 C   0  0  0  0  0  0  0  0  0  0  0  0
  -22.4691   11.3802   22.4386 C   0  0  0  0  0  0  0  0  0  0  0  0
  -22.2589   12.1631   23.5149 C   0  0  0  0  0  0  0  0  0  0  0  0
  -21.0034   12.1430   23.9827 C   0  0  0  0  0  0  0  0  0  0  0  0
  -20.1375   11.1093   23.0099 S   0  0  0  0  0  0  0  0  0  0  0  0
  -21.3739   10.7292   22.0409 C   0  0  0  0  0  0  0  0  0  0  0  0
  -14.9816    9.7088   25.2351 C   0  0  0  0  0  0  0  0  0  0  0  0
  -15.3506   11.0318   25.6330 O   0  0  0  0  0  0  0  0  0  0  0  0
  -14.5961   11.6288   25.5098 H   0  0  0  0  0  0  0  0  0  0  0  0
   -9.7865   13.6480   18.2592 O   0  0  0  0  0  0  0  0  0  0  0  0
   -9.9578   15.0363   18.5832 C   0  0  0  0  0  0  0  0  0  0  0  0
  -11.3090   15.4306   18.3028 O   0  0  0  0  0  0  0  0  0  0  0  0
  -11.5150   16.7804   18.7438 C   0  0  0  0  0  0  0  0  0  0  0  0
  -10.6507   17.7208   17.9206 C   0  0  0  0  0  0  0  0  0  0  0  0
  -10.8513   19.0693   18.3661 O   0  0  0  0  0  0  0  0  0  0  0  0
   -9.1876   17.3438   18.0873 C   0  0  0  0  0  0  0  0  0  0  0  0
   -8.3829   18.1424   17.2085 O   0  0  0  0  0  0  0  0  0  0  0  0
   -9.0013   15.8735   17.7498 C   0  0  0  0  0  0  0  0  0  0  0  0
   -7.6502   15.4840   18.0356 O   0  0  0  0  0  0  0  0  0  0  0  0
  -10.6046   19.1410   19.3014 H   0  0  0  0  0  0  0  0  0  0  0  0
   -8.6532   17.9852   16.2903 H   0  0  0  0  0  0  0  0  0  0  0  0
   -7.4654   15.6248   18.9774 H   0  0  0  0  0  0  0  0  0  0  0  0
  -12.9874   17.1556   18.5700 C   0  0  0  0  0  0  0  0  0  0  0  0
  -13.6516   16.1415   17.8103 O   0  0  0  0  0  0  0  0  0  0  0  0
  -13.5871   15.2935   18.2769 H   0  0  0  0  0  0  0  0  0  0  0  0
 35 34  2  0  0  0
 35 36  1  0  0  0
 34 33  1  0  0  0
 36 37  1  0  0  0
 46 45  1  0  0  0
 54 55  1  0  0  0
 54 44  1  0  0  0
 33 37  2  0  0  0
 37 32  1  0  0  0
 45 44  1  0  0  0
 45 47  1  0  0  0
 44 43  1  0  0  0
 48 47  1  0  0  0
 47 49  1  0  0  0
 32 31  1  0  0  0
 43 42  1  0  0  0
 31 30  1  0  0  0
 49 42  1  0  0  0
 49 50  1  0  0  0
 42 41  1  0  0  0
 30 25  1  0  0  0
 17 16  1  0  0  0
 25 27  1  0  0  0
 25 26  2  0  0  0
 41  3  1  0  0  0
  8  1  1  0  0  0
  6  5  1  0  0  0
  3  1  1  0  0  0
  3  5  1  0  0  0
 27 28  2  0  0  0
 26 29  1  0  0  0
 28 29  1  0  0  0
  1  2  1  0  0  0
  5  4  1  0  0  0
 29 15  1  0  0  0
  2 11  1  0  0  0
  2  7  1  0  0  0
  4 14  1  0  0  0
  4  7  1  0  0  0
 16 15  1  0  0  0
 16 22  1  0  0  0
 15 18  1  0  0  0
 14 22  1  0  0  0
 11 12  1  0  0  0
 22 20  1  0  0  0
 18 19  1  0  0  0
 20 19  1  0  0  0
 20 21  1  0  0  0
 19 38  1  0  0  0
 38 39  1  0  0  0
 17 23  1  0  0  0
 39 40  1  0  0  0
 21 24  1  0  0  0
  6  9  1  0  0  0
 12 13  1  0  0  0
  8 10  1  0  0  0
 55 56  1  0  0  0
 46 51  1  0  0  0
 48 52  1  0  0  0
 50 53  1  0  0  0
M  END
> <minimizedAffinity>
-9.42275

$$$$
5O9R_9PK_A_604


 56 60  0  0  0  0  0  0  0  0999 V2000
  -13.3259   14.4822   18.9378 C   0  0  0  0  0  0  0  0  0  0  0  0
  -14.3243   13.3485   19.1052 C   0  0  0  0  0  0  0  0  0  0  0  0
  -12.6084   14.7251   20.2559 C   0  0  0  0  0  0  0  0  0  0  0  0
  -13.0663   12.3491   20.8124 C   0  0  0  0  0  0  0  0  0  0  0  0
  -11.9937   13.4245   20.7469 C   0  0  0  0  0  0  0  0  0  0  0  0
  -11.4328   13.6216   22.0530 O   0  0  0  0  0  0  0  0  0  0  0  0
  -13.6321   12.1567   19.5078 O   0  0  0  0  0  0  0  0  0  0  0  0
  -14.0185   15.6752   18.5430 O   0  0  0  0  0  0  0  0  0  0  0  0
  -12.1313   13.8993   22.6662 H   0  0  0  0  0  0  0  0  0  0  0  0
  -14.6665   15.9133   19.2243 H   0  0  0  0  0  0  0  0  0  0  0  0
  -15.0401   13.0987   17.7766 C   0  0  0  0  0  0  0  0  0  0  0  0
  -14.0886   13.1271   16.7085 O   0  0  0  0  0  0  0  0  0  0  0  0
  -13.6560   13.9950   16.6838 H   0  0  0  0  0  0  0  0  0  0  0  0
  -12.4854   11.1197   21.2693 O   0  0  0  0  0  0  0  0  0  0  0  0
  -15.7116    9.6052   22.4206 C   0  0  0  0  0  0  0  0  0  0  0  0
  -14.6987   10.1717   21.4384 C   0  0  0  0  0  0  0  0  0  0  0  0
  -14.4631    9.2186   20.3918 O   0  0  0  0  0  0  0  0  0  0  0  0
  -15.9415   10.5535   23.4730 O   0  0  0  0  0  0  0  0  0  0  0  0
  -14.7377   10.7246   24.2354 C   0  0  0  0  0  0  0  0  0  0  0  0
  -13.6688   11.3581   23.3596 C   0  0  0  0  0  0  0  0  0  0  0  0
  -12.4627   11.5237   24.1209 O   0  0  0  0  0  0  0  0  0  0  0  0
  -13.3952   10.4619   22.1640 C   0  0  0  0  0  0  0  0  0  0  0  0
  -14.1176    8.3969   20.7744 H   0  0  0  0  0  0  0  0  0  0  0  0
  -12.1547   10.6578   24.4311 H   0  0  0  0  0  0  0  0  0  0  0  0
  -18.9564    9.3770   21.0633 C   0  0  0  0  0  0  0  0  0  0  0  0
  -18.0954   10.0374   21.8131 C   0  0  0  0  0  0  0  0  0  0  0  0
  -18.3543    8.2979   20.5864 N   0  0  0  0  0  0  0  0  0  0  0  0
  -17.2070    8.2974   21.0128 N   0  0  0  0  0  0  0  0  0  0  0  0
  -16.9923    9.2984   21.7438 N   0  0  0  0  0  0  0  0  0  0  0  0
  -20.4050    9.7873   20.7908 C   0  0  0  0  0  0  0  0  0  0  0  0
  -21.0293    8.8110   19.9539 O   0  0  0  0  0  0  0  0  0  0  0  0
  -21.7752    9.4680   18.9264 C   0  0  0  0  0  0  0  0  0  0  0  0
  -22.1378    7.5274   17.3204 C   0  0  0  0  0  0  0  0  0  0  0  0
  -21.8244    7.0862   16.0864 C   0  0  0  0  0  0  0  0  0  0  0  0
  -21.0393    7.9123   15.3814 C   0  0  0  0  0  0  0  0  0  0  0  0
  -20.7338    9.2334   16.3436 S   0  0  0  0  0  0  0  0  0  0  0  0
  -21.5992    8.7147   17.6062 C   0  0  0  0  0  0  0  0  0  0  0  0
  -15.0174   11.6303   25.4365 C   0  0  0  0  0  0  0  0  0  0  0  0
  -14.1541   11.2687   26.5176 O   0  0  0  0  0  0  0  0  0  0  0  0
  -14.3153   10.3447   26.7650 H   0  0  0  0  0  0  0  0  0  0  0  0
  -11.5738   15.7010   20.0649 O   0  0  0  0  0  0  0  0  0  0  0  0
  -10.7278   15.2962   18.9776 C   0  0  0  0  0  0  0  0  0  0  0  0
   -9.5608   14.6416   19.4966 O   0  0  0  0  0  0  0  0  0  0  0  0
   -8.7784   14.1259   18.4099 C   0  0  0  0  0  0  0  0  0  0  0  0
   -8.2459   15.2789   17.5758 C   0  0  0  0  0  0  0  0  0  0  0  0
   -7.4696   14.7632   16.4856 O   0  0  0  0  0  0  0  0  0  0  0  0
   -9.4089   16.0917   17.0306 C   0  0  0  0  0  0  0  0  0  0  0  0
   -8.9077   17.2546   16.3566 O   0  0  0  0  0  0  0  0  0  0  0  0
  -10.3104   16.5191   18.1773 C   0  0  0  0  0  0  0  0  0  0  0  0
  -11.4769   17.1694   17.6526 O   0  0  0  0  0  0  0  0  0  0  0  0
   -8.0277   14.1956   15.9312 H   0  0  0  0  0  0  0  0  0  0  0  0
   -8.4007   17.7968   16.9810 H   0  0  0  0  0  0  0  0  0  0  0  0
  -11.9577   16.5552   17.0760 H   0  0  0  0  0  0  0  0  0  0  0  0
   -7.6078   13.3127   18.9642 C   0  0  0  0  0  0  0  0  0  0  0  0
   -7.0764   12.4767   17.9320 O   0  0  0  0  0  0  0  0  0  0  0  0
   -6.7671   13.0283   17.1964 H   0  0  0  0  0  0  0  0  0  0  0  0
 35 34  2  0  0  0
 35 36  1  0  0  0
 34 33  1  0  0  0
 36 37  1  0  0  0
 46 45  1  0  0  0
 54 55  1  0  0  0
 54 44  1  0  0  0
 33 37  2  0  0  0
 37 32  1  0  0  0
 45 44  1  0  0  0
 45 47  1  0  0  0
 44 43  1  0  0  0
 48 47  1  0  0  0
 47 49  1  0  0  0
 32 31  1  0  0  0
 43 42  1  0  0  0
 31 30  1  0  0  0
 49 42  1  0  0  0
 49 50  1  0  0  0
 42 41  1  0  0  0
 30 25  1  0  0  0
 17 16  1  0  0  0
 25 27  1  0  0  0
 25 26  2  0  0  0
 41  3  1  0  0  0
  8  1  1  0  0  0
  6  5  1  0  0  0
  3  1  1  0  0  0
  3  5  1  0  0  0
 27 28  2  0  0  0
 26 29  1  0  0  0
 28 29  1  0  0  0
  1  2  1  0  0  0
  5  4  1  0  0  0
 29 15  1  0  0  0
  2 11  1  0  0  0
  2  7  1  0  0  0
  4 14  1  0  0  0
  4  7  1  0  0  0
 16 15  1  0  0  0
 16 22  1  0  0  0
 15 18  1  0  0  0
 14 22  1  0  0  0
 11 12  1  0  0  0
 22 20  1  0  0  0
 18 19  1  0  0  0
 20 19  1  0  0  0
 20 21  1  0  0  0
 19 38  1  0  0  0
 38 39  1  0  0  0
 17 23  1  0  0  0
 39 40  1  0  0  0
 21 24  1  0  0  0
  6  9  1  0  0  0
 12 13  1  0  0  0
  8 10  1  0  0  0
 55 56  1  0  0  0
 46 51  1  0  0  0
 48 52  1  0  0  0
 50 53  1  0  0  0
M  END
> <minimizedAffinity>
-9.20467

$$$$
5O9R_9PK_A_604


 56 60  0  0  0  0  0  0  0  0999 V2000
  -16.1546   10.9522   23.9878 C   0  0  0  0  0  0  0  0  0  0  0  0
  -14.7718   10.9428   24.6187 C   0  0  0  0  0  0  0  0  0  0  0  0
  -16.2178   12.0331   22.9207 C   0  0  0  0  0  0  0  0  0  0  0  0
  -13.7609   11.7740   22.6738 C   0  0  0  0  0  0  0  0  0  0  0  0
  -15.0843   11.8338   21.9278 C   0  0  0  0  0  0  0  0  0  0  0  0
  -15.0615   12.9277   20.9993 O   0  0  0  0  0  0  0  0  0  0  0  0
  -13.7859   10.6845   23.6072 O   0  0  0  0  0  0  0  0  0  0  0  0
  -17.1391   11.2180   24.9971 O   0  0  0  0  0  0  0  0  0  0  0  0
  -14.9250   13.7583   21.4814 H   0  0  0  0  0  0  0  0  0  0  0  0
  -16.9625   12.0818   25.4016 H   0  0  0  0  0  0  0  0  0  0  0  0
  -14.7057    9.8495   25.6865 C   0  0  0  0  0  0  0  0  0  0  0  0
  -15.0884   10.3945   26.9528 O   0  0  0  0  0  0  0  0  0  0  0  0
  -14.4841   11.1150   27.1907 H   0  0  0  0  0  0  0  0  0  0  0  0
  -12.6914   11.5793   21.7379 O   0  0  0  0  0  0  0  0  0  0  0  0
  -10.3379   14.2589   20.5941 C   0  0  0  0  0  0  0  0  0  0  0  0
  -11.4434   13.2210   20.4836 C   0  0  0  0  0  0  0  0  0  0  0  0
  -12.6248   13.8360   19.9495 O   0  0  0  0  0  0  0  0  0  0  0  0
   -9.1583   13.6475   21.1367 O   0  0  0  0  0  0  0  0  0  0  0  0
   -9.4129   13.2282   22.4854 C   0  0  0  0  0  0  0  0  0  0  0  0
  -10.4628   12.1289   22.4849 C   0  0  0  0  0  0  0  0  0  0  0  0
  -10.7217   11.7139   23.8349 O   0  0  0  0  0  0  0  0  0  0  0  0
  -11.7449   12.6518   21.8601 C   0  0  0  0  0  0  0  0  0  0  0  0
  -12.9112   14.5517   20.5383 H   0  0  0  0  0  0  0  0  0  0  0  0
  -11.0457   12.4698   24.3491 H   0  0  0  0  0  0  0  0  0  0  0  0
   -9.4741   16.1505   17.7482 C   0  0  0  0  0  0  0  0  0  0  0  0
   -9.6217   16.0933   19.0577 C   0  0  0  0  0  0  0  0  0  0  0  0
   -9.7868   14.9680   17.2399 N   0  0  0  0  0  0  0  0  0  0  0  0
  -10.1027   14.2387   18.1708 N   0  0  0  0  0  0  0  0  0  0  0  0
  -10.0263   14.8447   19.2705 N   0  0  0  0  0  0  0  0  0  0  0  0
   -9.0195   17.3750   16.9513 C   0  0  0  0  0  0  0  0  0  0  0  0
   -8.4767   18.3514   17.8431 O   0  0  0  0  0  0  0  0  0  0  0  0
   -9.0365   19.6332   17.5475 C   0  0  0  0  0  0  0  0  0  0  0  0
  -10.5609   19.7691   19.5808 C   0  0  0  0  0  0  0  0  0  0  0  0
  -10.8383   20.5235   20.6622 C   0  0  0  0  0  0  0  0  0  0  0  0
  -10.0785   21.6202   20.7870 C   0  0  0  0  0  0  0  0  0  0  0  0
   -9.0301   21.6359   19.4967 S   0  0  0  0  0  0  0  0  0  0  0  0
   -9.5726   20.2654   18.8336 C   0  0  0  0  0  0  0  0  0  0  0  0
   -8.1197   12.6996   23.1093 C   0  0  0  0  0  0  0  0  0  0  0  0
   -8.0032   11.2982   22.8501 O   0  0  0  0  0  0  0  0  0  0  0  0
   -8.7619   10.8337   23.2366 H   0  0  0  0  0  0  0  0  0  0  0  0
  -17.4750   11.9542   22.2334 O   0  0  0  0  0  0  0  0  0  0  0  0
  -17.6631   10.6228   21.7296 C   0  0  0  0  0  0  0  0  0  0  0  0
  -17.1600   10.5426   20.3879 O   0  0  0  0  0  0  0  0  0  0  0  0
  -17.2318    9.1845   19.9303 C   0  0  0  0  0  0  0  0  0  0  0  0
  -18.6869    8.7582   19.8320 C   0  0  0  0  0  0  0  0  0  0  0  0
  -18.7586    7.3985   19.3812 O   0  0  0  0  0  0  0  0  0  0  0  0
  -19.3444    8.8753   21.1975 C   0  0  0  0  0  0  0  0  0  0  0  0
  -20.7479    8.6029   21.0796 O   0  0  0  0  0  0  0  0  0  0  0  0
  -19.1444   10.2819   21.7376 C   0  0  0  0  0  0  0  0  0  0  0  0
  -19.6456   10.3552   23.0801 O   0  0  0  0  0  0  0  0  0  0  0  0
  -18.2966    6.8241   20.0117 H   0  0  0  0  0  0  0  0  0  0  0  0
  -21.1514    9.2424   20.4721 H   0  0  0  0  0  0  0  0  0  0  0  0
  -19.1663    9.7238   23.6391 H   0  0  0  0  0  0  0  0  0  0  0  0
  -16.5727    9.0735   18.5547 C   0  0  0  0  0  0  0  0  0  0  0  0
  -15.4226    8.2272   18.6436 O   0  0  0  0  0  0  0  0  0  0  0  0
  -15.6925    7.3455   18.9448 H   0  0  0  0  0  0  0  0  0  0  0  0
 35 34  2  0  0  0
 35 36  1  0  0  0
 34 33  1  0  0  0
 36 37  1  0  0  0
 46 45  1  0  0  0
 54 55  1  0  0  0
 54 44  1  0  0  0
 33 37  2  0  0  0
 37 32  1  0  0  0
 45 44  1  0  0  0
 45 47  1  0  0  0
 44 43  1  0  0  0
 48 47  1  0  0  0
 47 49  1  0  0  0
 32 31  1  0  0  0
 43 42  1  0  0  0
 31 30  1  0  0  0
 49 42  1  0  0  0
 49 50  1  0  0  0
 42 41  1  0  0  0
 30 25  1  0  0  0
 17 16  1  0  0  0
 25 27  1  0  0  0
 25 26  2  0  0  0
 41  3  1  0  0  0
  8  1  1  0  0  0
  6  5  1  0  0  0
  3  1  1  0  0  0
  3  5  1  0  0  0
 27 28  2  0  0  0
 26 29  1  0  0  0
 28 29  1  0  0  0
  1  2  1  0  0  0
  5  4  1  0  0  0
 29 15  1  0  0  0
  2 11  1  0  0  0
  2  7  1  0  0  0
  4 14  1  0  0  0
  4  7  1  0  0  0
 16 15  1  0  0  0
 16 22  1  0  0  0
 15 18  1  0  0  0
 14 22  1  0  0  0
 11 12  1  0  0  0
 22 20  1  0  0  0
 18 19  1  0  0  0
 20 19  1  0  0  0
 20 21  1  0  0  0
 19 38  1  0  0  0
 38 39  1  0  0  0
 17 23  1  0  0  0
 39 40  1  0  0  0
 21 24  1  0  0  0
  6  9  1  0  0  0
 12 13  1  0  0  0
  8 10  1  0  0  0
 55 56  1  0  0  0
 46 51  1  0  0  0
 48 52  1  0  0  0
 50 53  1  0  0  0
M  END
> <minimizedAffinity>
-8.99863

$$$$
5O9R_9PK_A_604


 56 60  0  0  0  0  0  0  0  0999 V2000
  -11.6870   14.3937   18.5691 C   0  0  0  0  0  0  0  0  0  0  0  0
  -12.7189   13.5780   19.3307 C   0  0  0  0  0  0  0  0  0  0  0  0
  -10.5366   14.7498   19.4969 C   0  0  0  0  0  0  0  0  0  0  0  0
  -11.1100   12.7172   20.8025 C   0  0  0  0  0  0  0  0  0  0  0  0
   -9.9827   13.4830   20.1287 C   0  0  0  0  0  0  0  0  0  0  0  0
   -8.9884   13.8282   21.1041 O   0  0  0  0  0  0  0  0  0  0  0  0
  -12.1078   12.3779   19.8286 O   0  0  0  0  0  0  0  0  0  0  0  0
  -12.2958   15.5967   18.0782 O   0  0  0  0  0  0  0  0  0  0  0  0
   -9.3891   14.3824   21.7920 H   0  0  0  0  0  0  0  0  0  0  0  0
  -12.6320   16.1169   18.8247 H   0  0  0  0  0  0  0  0  0  0  0  0
  -13.8724   13.2127   18.3948 C   0  0  0  0  0  0  0  0  0  0  0  0
  -13.3472   12.7586   17.1437 O   0  0  0  0  0  0  0  0  0  0  0  0
  -12.8158   13.4633   16.7413 H   0  0  0  0  0  0  0  0  0  0  0  0
  -10.5891   11.5183   21.3931 O   0  0  0  0  0  0  0  0  0  0  0  0
  -13.6049   10.9886   23.5499 C   0  0  0  0  0  0  0  0  0  0  0  0
  -12.8133   11.1742   22.2652 C   0  0  0  0  0  0  0  0  0  0  0  0
  -13.0863   10.0834   21.3737 O   0  0  0  0  0  0  0  0  0  0  0  0
  -13.3259   12.0741   24.4463 O   0  0  0  0  0  0  0  0  0  0  0  0
  -11.9485   12.0236   24.8461 C   0  0  0  0  0  0  0  0  0  0  0  0
  -11.0605   12.2715   23.6375 C   0  0  0  0  0  0  0  0  0  0  0  0
   -9.6824   12.2149   24.0366 O   0  0  0  0  0  0  0  0  0  0  0  0
  -11.3279   11.2096   22.5847 C   0  0  0  0  0  0  0  0  0  0  0  0
  -12.8276    9.2489   21.7951 H   0  0  0  0  0  0  0  0  0  0  0  0
   -9.4884   11.3392   24.4058 H   0  0  0  0  0  0  0  0  0  0  0  0
  -17.0496   11.4569   22.9682 C   0  0  0  0  0  0  0  0  0  0  0  0
  -15.8748   11.9865   23.2495 C   0  0  0  0  0  0  0  0  0  0  0  0
  -16.8979   10.1474   22.8386 N   0  0  0  0  0  0  0  0  0  0  0  0
  -15.7154    9.8932   23.0264 N   0  0  0  0  0  0  0  0  0  0  0  0
  -15.0588   10.9371   23.2742 N   0  0  0  0  0  0  0  0  0  0  0  0
  -18.3646   12.2244   22.8177 C   0  0  0  0  0  0  0  0  0  0  0  0
  -18.8158   12.1392   21.4640 O   0  0  0  0  0  0  0  0  0  0  0  0
  -20.0979   11.5079   21.4257 C   0  0  0  0  0  0  0  0  0  0  0  0
  -20.6235    9.0194   21.3365 C   0  0  0  0  0  0  0  0  0  0  0  0
  -20.3025    7.8800   20.6930 C   0  0  0  0  0  0  0  0  0  0  0  0
  -19.3768    8.0225   19.7346 C   0  0  0  0  0  0  0  0  0  0  0  0
  -18.9537    9.6301   19.7011 S   0  0  0  0  0  0  0  0  0  0  0  0
  -19.9495   10.0819   20.8912 C   0  0  0  0  0  0  0  0  0  0  0  0
  -11.6833   13.0968   25.9040 C   0  0  0  0  0  0  0  0  0  0  0  0
  -10.8005   12.5757   26.9009 O   0  0  0  0  0  0  0  0  0  0  0  0
  -11.2075   11.8017   27.3206 H   0  0  0  0  0  0  0  0  0  0  0  0
   -9.5016   15.4024   18.7473 O   0  0  0  0  0  0  0  0  0  0  0  0
   -9.4251   16.7823   19.1367 C   0  0  0  0  0  0  0  0  0  0  0  0
  -10.5794   17.1245   19.9180 O   0  0  0  0  0  0  0  0  0  0  0  0
  -10.4423   18.4644   20.4128 C   0  0  0  0  0  0  0  0  0  0  0  0
  -10.4517   19.4393   19.2473 C   0  0  0  0  0  0  0  0  0  0  0  0
  -10.3077   20.7781   19.7413 O   0  0  0  0  0  0  0  0  0  0  0  0
   -9.3010   19.1189   18.3071 C   0  0  0  0  0  0  0  0  0  0  0  0
   -9.3881   19.9500   17.1411 O   0  0  0  0  0  0  0  0  0  0  0  0
   -9.3747   17.6578   17.8952 C   0  0  0  0  0  0  0  0  0  0  0  0
   -8.2167   17.3204   17.1179 O   0  0  0  0  0  0  0  0  0  0  0  0
   -9.4682   20.8574   20.2207 H   0  0  0  0  0  0  0  0  0  0  0  0
  -10.2297   19.7843   16.6881 H   0  0  0  0  0  0  0  0  0  0  0  0
   -7.4176   17.4662   17.6480 H   0  0  0  0  0  0  0  0  0  0  0  0
  -11.6045   18.7825   21.3546 C   0  0  0  0  0  0  0  0  0  0  0  0
  -11.1758   19.7281   22.3389 O   0  0  0  0  0  0  0  0  0  0  0  0
  -10.8837   20.5421   21.8996 H   0  0  0  0  0  0  0  0  0  0  0  0
 35 34  2  0  0  0
 35 36  1  0  0  0
 34 33  1  0  0  0
 36 37  1  0  0  0
 46 45  1  0  0  0
 54 55  1  0  0  0
 54 44  1  0  0  0
 33 37  2  0  0  0
 37 32  1  0  0  0
 45 44  1  0  0  0
 45 47  1  0  0  0
 44 43  1  0  0  0
 48 47  1  0  0  0
 47 49  1  0  0  0
 32 31  1  0  0  0
 43 42  1  0  0  0
 31 30  1  0  0  0
 49 42  1  0  0  0
 49 50  1  0  0  0
 42 41  1  0  0  0
 30 25  1  0  0  0
 17 16  1  0  0  0
 25 27  1  0  0  0
 25 26  2  0  0  0
 41  3  1  0  0  0
  8  1  1  0  0  0
  6  5  1  0  0  0
  3  1  1  0  0  0
  3  5  1  0  0  0
 27 28  2  0  0  0
 26 29  1  0  0  0
 28 29  1  0  0  0
  1  2  1  0  0  0
  5  4  1  0  0  0
 29 15  1  0  0  0
  2 11  1  0  0  0
  2  7  1  0  0  0
  4 14  1  0  0  0
  4  7  1  0  0  0
 16 15  1  0  0  0
 16 22  1  0  0  0
 15 18  1  0  0  0
 14 22  1  0  0  0
 11 12  1  0  0  0
 22 20  1  0  0  0
 18 19  1  0  0  0
 20 19  1  0  0  0
 20 21  1  0  0  0
 19 38  1  0  0  0
 38 39  1  0  0  0
 17 23  1  0  0  0
 39 40  1  0  0  0
 21 24  1  0  0  0
  6  9  1  0  0  0
 12 13  1  0  0  0
  8 10  1  0  0  0
 55 56  1  0  0  0
 46 51  1  0  0  0
 48 52  1  0  0  0
 50 53  1  0  0  0
M  END
> <minimizedAffinity>
-8.87362

$$$$
