5HA1_RNE_A_201


 23 23  0  0  0  0  0  0  0  0999 V2000
    1.3086   -1.5332   10.2870 C   0  0  0  0  0  0  0  0  0  0  0  0
    2.3931   -1.3171   11.0652 C   0  0  0  0  0  0  0  0  0  0  0  0
    3.4353   -0.2464   10.7874 C   0  0  0  0  0  0  0  0  0  0  0  0
   -0.2419   -0.5224    8.6620 C   0  0  0  0  0  0  0  0  0  0  0  0
    1.0531   -0.8377    8.9507 C   0  0  0  0  0  0  0  0  0  0  0  0
   -1.7730   -0.5078    6.7955 C   0  0  0  0  0  0  0  0  0  0  0  0
   -0.6514    0.0491    7.2866 C   0  0  0  0  0  0  0  0  0  0  0  0
    0.2637    1.0274    6.5440 C   0  0  0  0  0  0  0  0  0  0  0  0
   -1.7067   -1.1993    4.4716 N   0  0  0  0  0  0  0  0  0  0  0  0
   -2.4451   -0.3054    5.4260 C   0  0  0  0  0  0  0  0  0  0  0  0
   -2.1100   -1.1081    3.5392 H   0  0  0  0  0  0  0  0  0  0  0  0
   -1.7852   -2.1675    4.7828 H   0  0  0  0  0  0  0  0  0  0  0  0
    2.4378   -2.1604   12.3309 C   0  0  0  0  0  0  0  0  0  0  0  0
    3.5739   -2.7356   12.7587 C   0  0  0  0  0  0  0  0  0  0  0  0
    3.6534   -3.5536   14.0877 C   0  0  0  0  0  0  0  0  0  0  0  0
    4.4104   -3.0394   15.0635 C   0  0  0  0  0  0  0  0  0  0  0  0
    4.5176   -3.6241   16.4774 C   0  0  0  0  0  0  0  0  0  0  0  0
    3.4976   -4.7323   16.6914 C   0  0  0  0  0  0  0  0  0  0  0  0
    3.3454   -5.6140   15.5014 C   0  0  0  0  0  0  0  0  0  0  0  0
    2.8336   -4.8527   14.3040 C   0  0  0  0  0  0  0  0  0  0  0  0
    2.9468   -5.8164   13.1295 C   0  0  0  0  0  0  0  0  0  0  0  0
    1.3513   -4.5532   14.5323 C   0  0  0  0  0  0  0  0  0  0  0  0
    5.2501   -1.7915   14.8527 C   0  0  0  0  0  0  0  0  0  0  0  0
  9 10  1  0  0  0
 10  6  1  0  0  0
  6  7  2  0  0  0
  8  7  1  0  0  0
  7  4  1  0  0  0
  4  5  2  0  0  0
  5  1  1  0  0  0
  1  2  2  0  0  0
  3  2  1  0  0  0
  2 13  1  0  0  0
 13 14  2  0  0  0
 21 20  1  0  0  0
 14 15  1  0  0  0
 15 20  1  0  0  0
 15 16  2  0  0  0
 20 22  1  0  0  0
 20 19  1  0  0  0
 23 16  1  0  0  0
 16 17  1  0  0  0
 19 18  1  0  0  0
 17 18  1  0  0  0
  9 11  1  0  0  0
  9 12  1  0  0  0
M  END
> <minimizedAffinity>
-9.22752

$$$$
5HA1_RNE_A_201


 23 23  0  0  0  0  0  0  0  0999 V2000
    1.2819   -1.7963   10.8427 C   0  0  0  0  0  0  0  0  0  0  0  0
    2.5780   -2.1622   10.7225 C   0  0  0  0  0  0  0  0  0  0  0  0
    3.4028   -1.9572    9.4626 C   0  0  0  0  0  0  0  0  0  0  0  0
    0.3050    0.0923    9.5996 C   0  0  0  0  0  0  0  0  0  0  0  0
    0.4260   -1.2627    9.6949 C   0  0  0  0  0  0  0  0  0  0  0  0
   -0.8649   -0.0092    7.4902 C   0  0  0  0  0  0  0  0  0  0  0  0
   -0.6453    0.7529    8.5765 C   0  0  0  0  0  0  0  0  0  0  0  0
   -1.1179    2.1970    8.7695 C   0  0  0  0  0  0  0  0  0  0  0  0
   -1.3284   -0.7810    5.2379 N   0  0  0  0  0  0  0  0  0  0  0  0
   -1.6456    0.3224    6.2061 C   0  0  0  0  0  0  0  0  0  0  0  0
   -1.8211   -0.6153    4.3603 H   0  0  0  0  0  0  0  0  0  0  0  0
   -1.6252   -1.6741    5.6312 H   0  0  0  0  0  0  0  0  0  0  0  0
    3.2019   -2.6987   12.0025 C   0  0  0  0  0  0  0  0  0  0  0  0
    2.6956   -2.4086   13.2125 C   0  0  0  0  0  0  0  0  0  0  0  0
    3.2848   -2.9992   14.5339 C   0  0  0  0  0  0  0  0  0  0  0  0
    2.5914   -3.9876   15.1100 C   0  0  0  0  0  0  0  0  0  0  0  0
    3.0638   -4.7777   16.3368 C   0  0  0  0  0  0  0  0  0  0  0  0
    4.5057   -4.4399   16.6847 C   0  0  0  0  0  0  0  0  0  0  0  0
    4.8107   -2.9902   16.5363 C   0  0  0  0  0  0  0  0  0  0  0  0
    4.6458   -2.5279   15.1100 C   0  0  0  0  0  0  0  0  0  0  0  0
    4.7652   -1.0098   15.1573 C   0  0  0  0  0  0  0  0  0  0  0  0
    5.8216   -3.0723   14.2974 C   0  0  0  0  0  0  0  0  0  0  0  0
    1.2386   -4.4312   14.5809 C   0  0  0  0  0  0  0  0  0  0  0  0
  9 10  1  0  0  0
 10  6  1  0  0  0
  6  7  2  0  0  0
  8  7  1  0  0  0
  7  4  1  0  0  0
  4  5  2  0  0  0
  5  1  1  0  0  0
  1  2  2  0  0  0
  3  2  1  0  0  0
  2 13  1  0  0  0
 13 14  2  0  0  0
 21 20  1  0  0  0
 14 15  1  0  0  0
 15 20  1  0  0  0
 15 16  2  0  0  0
 20 22  1  0  0  0
 20 19  1  0  0  0
 23 16  1  0  0  0
 16 17  1  0  0  0
 19 18  1  0  0  0
 17 18  1  0  0  0
  9 11  1  0  0  0
  9 12  1  0  0  0
M  END
> <minimizedAffinity>
-8.74181

$$$$
5HA1_RNE_A_201


 23 23  0  0  0  0  0  0  0  0999 V2000
    2.4641   -1.7139   10.6842 C   0  0  0  0  0  0  0  0  0  0  0  0
    3.4736   -1.2899   11.4774 C   0  0  0  0  0  0  0  0  0  0  0  0
    4.1074    0.0879   11.3783 C   0  0  0  0  0  0  0  0  0  0  0  0
    0.7960   -0.1879    9.7069 C   0  0  0  0  0  0  0  0  0  0  0  0
    1.9181   -0.9320    9.4903 C   0  0  0  0  0  0  0  0  0  0  0  0
   -0.9144    1.3519    8.9773 C   0  0  0  0  0  0  0  0  0  0  0  0
    0.0628    0.5309    8.5528 C   0  0  0  0  0  0  0  0  0  0  0  0
    0.3611    0.1707    7.0943 C   0  0  0  0  0  0  0  0  0  0  0  0
   -1.9685    3.5262    8.7664 N   0  0  0  0  0  0  0  0  0  0  0  0
   -1.9413    2.1535    8.1580 C   0  0  0  0  0  0  0  0  0  0  0  0
   -2.6367    4.1086    8.2617 H   0  0  0  0  0  0  0  0  0  0  0  0
   -1.0398    3.9435    8.7056 H   0  0  0  0  0  0  0  0  0  0  0  0
    3.8616   -2.2659   12.5783 C   0  0  0  0  0  0  0  0  0  0  0  0
    3.2333   -2.2803   13.7656 C   0  0  0  0  0  0  0  0  0  0  0  0
    3.5758   -3.3148   14.8856 C   0  0  0  0  0  0  0  0  0  0  0  0
    4.4189   -2.9066   15.8407 C   0  0  0  0  0  0  0  0  0  0  0  0
    4.7808   -3.7258   17.0859 C   0  0  0  0  0  0  0  0  0  0  0  0
    3.9030   -4.9627   17.2028 C   0  0  0  0  0  0  0  0  0  0  0  0
    3.6567   -5.6216   15.8906 C   0  0  0  0  0  0  0  0  0  0  0  0
    2.9122   -4.7157   14.9418 C   0  0  0  0  0  0  0  0  0  0  0  0
    2.9368   -5.4275   13.5950 C   0  0  0  0  0  0  0  0  0  0  0  0
    1.4584   -4.6333   15.4096 C   0  0  0  0  0  0  0  0  0  0  0  0
    5.1075   -1.5544   15.7772 C   0  0  0  0  0  0  0  0  0  0  0  0
  9 10  1  0  0  0
 10  6  1  0  0  0
  6  7  2  0  0  0
  8  7  1  0  0  0
  7  4  1  0  0  0
  4  5  2  0  0  0
  5  1  1  0  0  0
  1  2  2  0  0  0
  3  2  1  0  0  0
  2 13  1  0  0  0
 13 14  2  0  0  0
 21 20  1  0  0  0
 14 15  1  0  0  0
 15 20  1  0  0  0
 15 16  2  0  0  0
 20 22  1  0  0  0
 20 19  1  0  0  0
 23 16  1  0  0  0
 16 17  1  0  0  0
 19 18  1  0  0  0
 17 18  1  0  0  0
  9 11  1  0  0  0
  9 12  1  0  0  0
M  END
> <minimizedAffinity>
-8.28608

$$$$
5HA1_RNE_A_201


 23 23  0  0  0  0  0  0  0  0999 V2000
    1.3782   -1.3308   10.2745 C   0  0  0  0  0  0  0  0  0  0  0  0
    2.3349   -2.2856   10.2379 C   0  0  0  0  0  0  0  0  0  0  0  0
    3.2391   -2.5333    9.0417 C   0  0  0  0  0  0  0  0  0  0  0  0
   -0.2378   -0.7363    8.5135 C   0  0  0  0  0  0  0  0  0  0  0  0
    0.9735   -0.4686    9.0797 C   0  0  0  0  0  0  0  0  0  0  0  0
   -1.8111   -0.5824    6.6888 C   0  0  0  0  0  0  0  0  0  0  0  0
   -0.6999   -0.0375    7.2157 C   0  0  0  0  0  0  0  0  0  0  0  0
    0.1610    1.0497    6.5655 C   0  0  0  0  0  0  0  0  0  0  0  0
   -1.7822   -1.0301    4.3052 N   0  0  0  0  0  0  0  0  0  0  0  0
   -2.5218   -0.2613    5.3621 C   0  0  0  0  0  0  0  0  0  0  0  0
   -2.2105   -0.8562    3.3959 H   0  0  0  0  0  0  0  0  0  0  0  0
   -1.8261   -2.0270    4.5166 H   0  0  0  0  0  0  0  0  0  0  0  0
    2.5273   -3.0346   11.5483 C   0  0  0  0  0  0  0  0  0  0  0  0
    3.6653   -2.9419   12.2563 C   0  0  0  0  0  0  0  0  0  0  0  0
    3.8588   -3.6539   13.6337 C   0  0  0  0  0  0  0  0  0  0  0  0
    4.6339   -4.7443   13.6409 C   0  0  0  0  0  0  0  0  0  0  0  0
    5.0445   -5.5081   14.9060 C   0  0  0  0  0  0  0  0  0  0  0  0
    4.6360   -4.7508   16.1606 C   0  0  0  0  0  0  0  0  0  0  0  0
    3.2926   -4.1200   16.0421 C   0  0  0  0  0  0  0  0  0  0  0  0
    3.2563   -3.0853   14.9451 C   0  0  0  0  0  0  0  0  0  0  0  0
    1.7895   -2.7018   14.7951 C   0  0  0  0  0  0  0  0  0  0  0  0
    4.0225   -1.8540   15.4309 C   0  0  0  0  0  0  0  0  0  0  0  0
    5.1966   -5.3357   12.3601 C   0  0  0  0  0  0  0  0  0  0  0  0
  9 10  1  0  0  0
 10  6  1  0  0  0
  6  7  2  0  0  0
  8  7  1  0  0  0
  7  4  1  0  0  0
  4  5  2  0  0  0
  5  1  1  0  0  0
  1  2  2  0  0  0
  3  2  1  0  0  0
  2 13  1  0  0  0
 13 14  2  0  0  0
 21 20  1  0  0  0
 14 15  1  0  0  0
 15 20  1  0  0  0
 15 16  2  0  0  0
 20 22  1  0  0  0
 20 19  1  0  0  0
 23 16  1  0  0  0
 16 17  1  0  0  0
 19 18  1  0  0  0
 17 18  1  0  0  0
  9 11  1  0  0  0
  9 12  1  0  0  0
M  END
> <minimizedAffinity>
-8.18392

$$$$
5HA1_RNE_A_201


 23 23  0  0  0  0  0  0  0  0999 V2000
    1.5133   -2.0740   11.0804 C   0  0  0  0  0  0  0  0  0  0  0  0
    2.5358   -2.9031   10.7717 C   0  0  0  0  0  0  0  0  0  0  0  0
    3.1467   -3.0149    9.3846 C   0  0  0  0  0  0  0  0  0  0  0  0
    1.1588    0.0360    9.8602 C   0  0  0  0  0  0  0  0  0  0  0  0
    0.7360   -1.2452   10.0587 C   0  0  0  0  0  0  0  0  0  0  0  0
    0.8929    2.2618    8.9638 C   0  0  0  0  0  0  0  0  0  0  0  0
    0.3739    1.0209    8.9658 C   0  0  0  0  0  0  0  0  0  0  0  0
   -0.9447    0.5992    8.3105 C   0  0  0  0  0  0  0  0  0  0  0  0
    1.3267    4.6300    8.6695 N   0  0  0  0  0  0  0  0  0  0  0  0
    0.3551    3.5444    8.3051 C   0  0  0  0  0  0  0  0  0  0  0  0
    1.0211    5.5119    8.2581 H   0  0  0  0  0  0  0  0  0  0  0  0
    2.2523    4.3914    8.3135 H   0  0  0  0  0  0  0  0  0  0  0  0
    3.1236   -3.6477   11.9614 C   0  0  0  0  0  0  0  0  0  0  0  0
    2.9520   -3.2160   13.2219 C   0  0  0  0  0  0  0  0  0  0  0  0
    3.4952   -3.9994   14.4601 C   0  0  0  0  0  0  0  0  0  0  0  0
    2.5908   -4.6470   15.2033 C   0  0  0  0  0  0  0  0  0  0  0  0
    2.9350   -5.5684   16.3802 C   0  0  0  0  0  0  0  0  0  0  0  0
    4.4335   -5.8180   16.4612 C   0  0  0  0  0  0  0  0  0  0  0  0
    5.2379   -4.5982   16.1755 C   0  0  0  0  0  0  0  0  0  0  0  0
    5.0118   -4.0964   14.7711 C   0  0  0  0  0  0  0  0  0  0  0  0
    5.7088   -2.7434   14.7047 C   0  0  0  0  0  0  0  0  0  0  0  0
    5.7256   -5.0468   13.8086 C   0  0  0  0  0  0  0  0  0  0  0  0
    1.1005   -4.5280   14.9356 C   0  0  0  0  0  0  0  0  0  0  0  0
  9 10  1  0  0  0
 10  6  1  0  0  0
  6  7  2  0  0  0
  8  7  1  0  0  0
  7  4  1  0  0  0
  4  5  2  0  0  0
  5  1  1  0  0  0
  1  2  2  0  0  0
  3  2  1  0  0  0
  2 13  1  0  0  0
 13 14  2  0  0  0
 21 20  1  0  0  0
 14 15  1  0  0  0
 15 20  1  0  0  0
 15 16  2  0  0  0
 20 22  1  0  0  0
 20 19  1  0  0  0
 23 16  1  0  0  0
 16 17  1  0  0  0
 19 18  1  0  0  0
 17 18  1  0  0  0
  9 11  1  0  0  0
  9 12  1  0  0  0
M  END
> <minimizedAffinity>
-7.39135

$$$$
5HA1_RNE_A_201


 23 23  0  0  0  0  0  0  0  0999 V2000
    3.1655   -2.7543   10.9276 C   0  0  0  0  0  0  0  0  0  0  0  0
    3.0567   -2.6957    9.5811 C   0  0  0  0  0  0  0  0  0  0  0  0
    3.5320   -3.7940    8.6442 C   0  0  0  0  0  0  0  0  0  0  0  0
    3.8930   -3.7753   13.0476 C   0  0  0  0  0  0  0  0  0  0  0  0
    3.9056   -3.8550   11.6863 C   0  0  0  0  0  0  0  0  0  0  0  0
    4.4142   -4.6605   15.2324 C   0  0  0  0  0  0  0  0  0  0  0  0
    4.7215   -4.7393   13.9253 C   0  0  0  0  0  0  0  0  0  0  0  0
    5.8714   -5.5513   13.3217 C   0  0  0  0  0  0  0  0  0  0  0  0
    4.1071   -5.2142   17.5738 N   0  0  0  0  0  0  0  0  0  0  0  0
    5.0756   -5.3566   16.4350 C   0  0  0  0  0  0  0  0  0  0  0  0
    4.4930   -5.6599   18.4061 H   0  0  0  0  0  0  0  0  0  0  0  0
    3.2241   -5.6613   17.3271 H   0  0  0  0  0  0  0  0  0  0  0  0
    2.3028   -1.4799    9.0628 C   0  0  0  0  0  0  0  0  0  0  0  0
    1.5242   -0.7347    9.8647 C   0  0  0  0  0  0  0  0  0  0  0  0
    0.7913    0.5520    9.3658 C   0  0  0  0  0  0  0  0  0  0  0  0
    1.2232    1.7175    9.8604 C   0  0  0  0  0  0  0  0  0  0  0  0
    0.7199    3.0928    9.4047 C   0  0  0  0  0  0  0  0  0  0  0  0
   -0.1727    2.9716    8.1788 C   0  0  0  0  0  0  0  0  0  0  0  0
   -1.0869    1.7984    8.2445 C   0  0  0  0  0  0  0  0  0  0  0  0
   -0.3242    0.4978    8.2892 C   0  0  0  0  0  0  0  0  0  0  0  0
   -1.3653   -0.5754    8.5812 C   0  0  0  0  0  0  0  0  0  0  0  0
    0.2489    0.2375    6.8952 C   0  0  0  0  0  0  0  0  0  0  0  0
    2.2852    1.7835   10.9442 C   0  0  0  0  0  0  0  0  0  0  0  0
  9 10  1  0  0  0
 10  6  1  0  0  0
  6  7  2  0  0  0
  8  7  1  0  0  0
  7  4  1  0  0  0
  4  5  2  0  0  0
  5  1  1  0  0  0
  1  2  2  0  0  0
  3  2  1  0  0  0
  2 13  1  0  0  0
 13 14  2  0  0  0
 21 20  1  0  0  0
 14 15  1  0  0  0
 15 20  1  0  0  0
 15 16  2  0  0  0
 20 22  1  0  0  0
 20 19  1  0  0  0
 23 16  1  0  0  0
 16 17  1  0  0  0
 19 18  1  0  0  0
 17 18  1  0  0  0
  9 11  1  0  0  0
  9 12  1  0  0  0
M  END
> <minimizedAffinity>
-6.85494

$$$$
5HA1_RNE_A_201


 23 23  0  0  0  0  0  0  0  0999 V2000
    1.7161   -2.3145   10.8422 C   0  0  0  0  0  0  0  0  0  0  0  0
    2.7270   -3.2036   10.7161 C   0  0  0  0  0  0  0  0  0  0  0  0
    3.5435   -3.3837    9.4469 C   0  0  0  0  0  0  0  0  0  0  0  0
    0.8423   -0.1786    9.9815 C   0  0  0  0  0  0  0  0  0  0  0  0
    1.1583   -1.4738    9.6946 C   0  0  0  0  0  0  0  0  0  0  0  0
    0.1734    2.0347    9.2870 C   0  0  0  0  0  0  0  0  0  0  0  0
    0.1373    0.7324    8.9523 C   0  0  0  0  0  0  0  0  0  0  0  0
   -0.6436    0.1287    7.7812 C   0  0  0  0  0  0  0  0  0  0  0  0
   -1.9380    3.2002    9.0288 N   0  0  0  0  0  0  0  0  0  0  0  0
   -0.4985    3.2381    8.6025 C   0  0  0  0  0  0  0  0  0  0  0  0
   -2.4392    3.9801    8.6034 H   0  0  0  0  0  0  0  0  0  0  0  0
   -1.9937    3.2738   10.0446 H   0  0  0  0  0  0  0  0  0  0  0  0
    3.0760   -3.9459   11.9977 C   0  0  0  0  0  0  0  0  0  0  0  0
    3.7504   -3.3541   12.9975 C   0  0  0  0  0  0  0  0  0  0  0  0
    4.0643   -4.0802   14.3451 C   0  0  0  0  0  0  0  0  0  0  0  0
    5.0214   -5.0144   14.3135 C   0  0  0  0  0  0  0  0  0  0  0  0
    5.5585   -5.7477   15.5490 C   0  0  0  0  0  0  0  0  0  0  0  0
    5.0183   -5.1313   16.8306 C   0  0  0  0  0  0  0  0  0  0  0  0
    3.5842   -4.7452   16.7253 C   0  0  0  0  0  0  0  0  0  0  0  0
    3.3667   -3.6863   15.6734 C   0  0  0  0  0  0  0  0  0  0  0  0
    1.8554   -3.5640   15.5247 C   0  0  0  0  0  0  0  0  0  0  0  0
    3.8996   -2.3608   16.2193 C   0  0  0  0  0  0  0  0  0  0  0  0
    5.6839   -5.4391   13.0145 C   0  0  0  0  0  0  0  0  0  0  0  0
  9 10  1  0  0  0
 10  6  1  0  0  0
  6  7  2  0  0  0
  8  7  1  0  0  0
  7  4  1  0  0  0
  4  5  2  0  0  0
  5  1  1  0  0  0
  1  2  2  0  0  0
  3  2  1  0  0  0
  2 13  1  0  0  0
 13 14  2  0  0  0
 21 20  1  0  0  0
 14 15  1  0  0  0
 15 20  1  0  0  0
 15 16  2  0  0  0
 20 22  1  0  0  0
 20 19  1  0  0  0
 23 16  1  0  0  0
 16 17  1  0  0  0
 19 18  1  0  0  0
 17 18  1  0  0  0
  9 11  1  0  0  0
  9 12  1  0  0  0
M  END
> <minimizedAffinity>
-6.73284

$$$$
5HA1_RNE_A_201


 23 23  0  0  0  0  0  0  0  0999 V2000
    2.7529   -2.1639   12.4710 C   0  0  0  0  0  0  0  0  0  0  0  0
    2.9558   -2.5280   11.1847 C   0  0  0  0  0  0  0  0  0  0  0  0
    3.6042   -3.8376   10.7672 C   0  0  0  0  0  0  0  0  0  0  0  0
    3.8616   -2.2118   14.6699 C   0  0  0  0  0  0  0  0  0  0  0  0
    3.2720   -2.9412   13.6799 C   0  0  0  0  0  0  0  0  0  0  0  0
    3.9607   -4.0340   16.2505 C   0  0  0  0  0  0  0  0  0  0  0  0
    4.5547   -2.8875   15.8737 C   0  0  0  0  0  0  0  0  0  0  0  0
    5.6949   -2.1825   16.6144 C   0  0  0  0  0  0  0  0  0  0  0  0
    5.5358   -5.6631   17.1153 N   0  0  0  0  0  0  0  0  0  0  0  0
    4.2641   -4.9408   17.4563 C   0  0  0  0  0  0  0  0  0  0  0  0
    5.7902   -6.2846   17.8830 H   0  0  0  0  0  0  0  0  0  0  0  0
    6.2825   -4.9846   16.9654 H   0  0  0  0  0  0  0  0  0  0  0  0
    2.3713   -1.5680   10.1591 C   0  0  0  0  0  0  0  0  0  0  0  0
    1.4887   -0.6155   10.5032 C   0  0  0  0  0  0  0  0  0  0  0  0
    0.9243    0.4183    9.4763 C   0  0  0  0  0  0  0  0  0  0  0  0
    1.2993    1.6919    9.6405 C   0  0  0  0  0  0  0  0  0  0  0  0
    0.9550    2.8292    8.6707 C   0  0  0  0  0  0  0  0  0  0  0  0
    0.3179    2.2911    7.3985 C   0  0  0  0  0  0  0  0  0  0  0  0
   -0.6405    1.1816    7.6578 C   0  0  0  0  0  0  0  0  0  0  0  0
    0.0422   -0.0132    8.2754 C   0  0  0  0  0  0  0  0  0  0  0  0
   -1.0809   -0.9572    8.6859 C   0  0  0  0  0  0  0  0  0  0  0  0
    0.8678   -0.7012    7.1871 C   0  0  0  0  0  0  0  0  0  0  0  0
    2.1282    2.1355   10.8334 C   0  0  0  0  0  0  0  0  0  0  0  0
  9 10  1  0  0  0
 10  6  1  0  0  0
  6  7  2  0  0  0
  8  7  1  0  0  0
  7  4  1  0  0  0
  4  5  2  0  0  0
  5  1  1  0  0  0
  1  2  2  0  0  0
  3  2  1  0  0  0
  2 13  1  0  0  0
 13 14  2  0  0  0
 21 20  1  0  0  0
 14 15  1  0  0  0
 15 20  1  0  0  0
 15 16  2  0  0  0
 20 22  1  0  0  0
 20 19  1  0  0  0
 23 16  1  0  0  0
 16 17  1  0  0  0
 19 18  1  0  0  0
 17 18  1  0  0  0
  9 11  1  0  0  0
  9 12  1  0  0  0
M  END
> <minimizedAffinity>
-6.60473

$$$$
5HA1_RNE_A_201


 23 23  0  0  0  0  0  0  0  0999 V2000
    1.5010   -1.4332   10.6873 C   0  0  0  0  0  0  0  0  0  0  0  0
    2.4310   -2.4086   10.5783 C   0  0  0  0  0  0  0  0  0  0  0  0
    3.2904   -2.6256    9.3437 C   0  0  0  0  0  0  0  0  0  0  0  0
    0.9748    0.8180    9.8378 C   0  0  0  0  0  0  0  0  0  0  0  0
    1.0813   -0.5096    9.5447 C   0  0  0  0  0  0  0  0  0  0  0  0
    1.1823    2.9370    8.6997 C   0  0  0  0  0  0  0  0  0  0  0  0
    0.4212    1.8339    8.8143 C   0  0  0  0  0  0  0  0  0  0  0  0
   -0.9452    1.6148    8.1580 C   0  0  0  0  0  0  0  0  0  0  0  0
    2.2593    4.6135    7.3168 N   0  0  0  0  0  0  0  0  0  0  0  0
    0.9275    4.2194    7.8881 C   0  0  0  0  0  0  0  0  0  0  0  0
    2.1538    5.4641    6.7640 H   0  0  0  0  0  0  0  0  0  0  0  0
    2.6097    3.8627    6.7220 H   0  0  0  0  0  0  0  0  0  0  0  0
    2.6452   -3.2190   11.8483 C   0  0  0  0  0  0  0  0  0  0  0  0
    3.7369   -3.0589   12.6146 C   0  0  0  0  0  0  0  0  0  0  0  0
    3.9455   -3.8369   13.9536 C   0  0  0  0  0  0  0  0  0  0  0  0
    4.7755   -4.8853   13.9143 C   0  0  0  0  0  0  0  0  0  0  0  0
    5.2054   -5.6975   15.1424 C   0  0  0  0  0  0  0  0  0  0  0  0
    4.7390   -5.0340   16.4294 C   0  0  0  0  0  0  0  0  0  0  0  0
    3.3669   -4.4663   16.3216 C   0  0  0  0  0  0  0  0  0  0  0  0
    3.2943   -3.3744   15.2834 C   0  0  0  0  0  0  0  0  0  0  0  0
    1.8122   -3.0578   15.1280 C   0  0  0  0  0  0  0  0  0  0  0  0
    3.9884   -2.1353   15.8508 C   0  0  0  0  0  0  0  0  0  0  0  0
    5.3877   -5.3742   12.6132 C   0  0  0  0  0  0  0  0  0  0  0  0
  9 10  1  0  0  0
 10  6  1  0  0  0
  6  7  2  0  0  0
  8  7  1  0  0  0
  7  4  1  0  0  0
  4  5  2  0  0  0
  5  1  1  0  0  0
  1  2  2  0  0  0
  3  2  1  0  0  0
  2 13  1  0  0  0
 13 14  2  0  0  0
 21 20  1  0  0  0
 14 15  1  0  0  0
 15 20  1  0  0  0
 15 16  2  0  0  0
 20 22  1  0  0  0
 20 19  1  0  0  0
 23 16  1  0  0  0
 16 17  1  0  0  0
 19 18  1  0  0  0
 17 18  1  0  0  0
  9 11  1  0  0  0
  9 12  1  0  0  0
M  END
> <minimizedAffinity>
-6.45471

$$$$
5HA1_RNE_A_201


 23 23  0  0  0  0  0  0  0  0999 V2000
    3.5769   -1.5785   12.1236 C   0  0  0  0  0  0  0  0  0  0  0  0
    3.7874   -0.3133   11.6957 C   0  0  0  0  0  0  0  0  0  0  0  0
    4.8763    0.5955   12.2416 C   0  0  0  0  0  0  0  0  0  0  0  0
    3.5861   -2.3591   14.4596 C   0  0  0  0  0  0  0  0  0  0  0  0
    4.3004   -2.2210   13.3062 C   0  0  0  0  0  0  0  0  0  0  0  0
    3.7925   -4.0642   16.1563 C   0  0  0  0  0  0  0  0  0  0  0  0
    4.2418   -2.8579   15.7663 C   0  0  0  0  0  0  0  0  0  0  0  0
    5.1760   -1.9466   16.5680 C   0  0  0  0  0  0  0  0  0  0  0  0
    5.4111   -5.5423   17.1947 N   0  0  0  0  0  0  0  0  0  0  0  0
    4.1003   -4.8524   17.4417 C   0  0  0  0  0  0  0  0  0  0  0  0
    5.6700   -6.0853   18.0184 H   0  0  0  0  0  0  0  0  0  0  0  0
    6.1319   -4.8456   17.0063 H   0  0  0  0  0  0  0  0  0  0  0  0
    2.9154    0.1075   10.5219 C   0  0  0  0  0  0  0  0  0  0  0  0
    1.5785   -0.0219   10.5509 C   0  0  0  0  0  0  0  0  0  0  0  0
    0.6617    0.4608    9.3811 C   0  0  0  0  0  0  0  0  0  0  0  0
    0.1977   -0.4834    8.5547 C   0  0  0  0  0  0  0  0  0  0  0  0
   -0.8102   -0.2296    7.4268 C   0  0  0  0  0  0  0  0  0  0  0  0
   -1.3727    1.1819    7.5013 C   0  0  0  0  0  0  0  0  0  0  0  0
   -0.3422    2.1956    7.8577 C   0  0  0  0  0  0  0  0  0  0  0  0
    0.2376    1.9450    9.2275 C   0  0  0  0  0  0  0  0  0  0  0  0
    1.4144    2.9042    9.3537 C   0  0  0  0  0  0  0  0  0  0  0  0
   -0.8131    2.3421   10.2656 C   0  0  0  0  0  0  0  0  0  0  0  0
    0.6364   -1.9331    8.6678 C   0  0  0  0  0  0  0  0  0  0  0  0
  9 10  1  0  0  0
 10  6  1  0  0  0
  6  7  2  0  0  0
  8  7  1  0  0  0
  7  4  1  0  0  0
  4  5  2  0  0  0
  5  1  1  0  0  0
  1  2  2  0  0  0
  3  2  1  0  0  0
  2 13  1  0  0  0
 13 14  2  0  0  0
 21 20  1  0  0  0
 14 15  1  0  0  0
 15 20  1  0  0  0
 15 16  2  0  0  0
 20 22  1  0  0  0
 20 19  1  0  0  0
 23 16  1  0  0  0
 16 17  1  0  0  0
 19 18  1  0  0  0
 17 18  1  0  0  0
  9 11  1  0  0  0
  9 12  1  0  0  0
M  END
> <minimizedAffinity>
-6.30486

$$$$
