2OXN_OAN_A_501


 30 31  0  0  0  0  0  0  0  0999 V2000
    4.8962   -8.5477    8.7489 C   0  0  0  0  0  0  0  0  0  0  0  0
    5.3724   -9.2035    7.4466 C   0  0  0  0  0  0  0  0  0  0  0  0
    4.3999   -8.8900    6.4341 O   0  0  0  0  0  0  0  0  0  0  0  0
    6.7647   -8.6859    7.0742 C   0  0  0  0  0  0  0  0  0  0  0  0
    7.1902   -9.2614    5.8259 O   0  0  0  0  0  0  0  0  0  0  0  0
    7.7955   -8.9790    8.1677 C   0  0  0  0  0  0  0  0  0  0  0  0
    7.3945   -8.5010    9.4662 O   0  0  0  0  0  0  0  0  0  0  0  0
    5.9868   -8.4384    9.7683 C   0  0  0  0  0  0  0  0  0  0  0  0
    5.6398   -8.2402   10.9603 N   0  0  0  0  0  0  0  0  0  0  0  0
    4.3280   -7.9270    6.3420 H   0  0  0  0  0  0  0  0  0  0  0  0
    7.2524  -10.2249    5.9186 H   0  0  0  0  0  0  0  0  0  0  0  0
    1.4173   -9.7537    9.6000 C   0  0  0  0  0  0  0  0  0  0  0  0
    2.5204   -8.8902    9.0610 C   0  0  0  0  0  0  0  0  0  0  0  0
    2.2865   -7.8369    8.4849 O   0  0  0  0  0  0  0  0  0  0  0  0
    3.7635   -9.3399    9.2426 N   0  0  0  0  0  0  0  0  0  0  0  0
    3.9196  -10.1956    9.7038 H   0  0  0  0  0  0  0  0  0  0  0  0
    9.0883   -8.2545    7.8362 C   0  0  0  0  0  0  0  0  0  0  0  0
    9.4856   -7.3685    8.5955 O   0  0  0  0  0  0  0  0  0  0  0  0
    8.8572   -6.6297    8.5873 H   0  0  0  0  0  0  0  0  0  0  0  0
    6.6372   -8.1424   11.8649 O   0  0  0  0  0  0  0  0  0  0  0  0
    6.6627   -9.1043   12.9393 C   0  0  0  0  0  0  0  0  0  0  0  0
    6.6559   -8.6447   14.0747 O   0  0  0  0  0  0  0  0  0  0  0  0
    6.6742  -10.3936   12.5907 N   0  0  0  0  0  0  0  0  0  0  0  0
    6.6630  -10.5842   11.6248 H   0  0  0  0  0  0  0  0  0  0  0  0
    6.7005  -11.5085   13.4440 C   0  0  0  0  0  0  0  0  0  0  0  0
    7.8819  -12.1763   13.7692 C   0  0  0  0  0  0  0  0  0  0  0  0
    7.8425  -13.2717   14.6203 C   0  0  0  0  0  0  0  0  0  0  0  0
    6.6330  -13.7174   15.1369 C   0  0  0  0  0  0  0  0  0  0  0  0
    5.4457  -13.0600   14.8191 C   0  0  0  0  0  0  0  0  0  0  0  0
    5.4889  -11.9548   13.9682 C   0  0  0  0  0  0  0  0  0  0  0  0
 12 13  1  0  0  0
 13 14  2  0  0  0
 13 15  1  0  0  0
 15  1  1  0  0  0
  1  2  1  0  0  0
  1  8  1  0  0  0
  2  3  1  0  0  0
  2  4  1  0  0  0
  4  5  1  0  0  0
  4  6  1  0  0  0
  6 17  1  0  0  0
  6  7  1  0  0  0
 17 18  1  0  0  0
  7  8  1  0  0  0
  8  9  2  0  0  0
  9 20  1  0  0  0
 20 21  1  0  0  0
 21 22  2  0  0  0
 21 23  1  0  0  0
 23 25  1  0  0  0
 25 26  2  0  0  0
 25 30  1  0  0  0
 26 27  1  0  0  0
 27 28  2  0  0  0
 28 29  1  0  0  0
 29 30  2  0  0  0
 15 16  1  0  0  0
  3 10  1  0  0  0
  5 11  1  0  0  0
 18 19  1  0  0  0
 23 24  1  0  0  0
M  END
> <minimizedAffinity>
-7.11523

$$$$
2OXN_OAN_A_501


 30 31  0  0  0  0  0  0  0  0999 V2000
    2.5804  -10.5752   10.9714 C   0  0  0  0  0  0  0  0  0  0  0  0
    1.8231  -10.4241   12.2968 C   0  0  0  0  0  0  0  0  0  0  0  0
    0.4649  -10.8331   12.0576 O   0  0  0  0  0  0  0  0  0  0  0  0
    2.4876  -11.2743   13.3834 C   0  0  0  0  0  0  0  0  0  0  0  0
    1.7477  -11.1737   14.6134 O   0  0  0  0  0  0  0  0  0  0  0  0
    3.9470  -10.8717   13.6124 C   0  0  0  0  0  0  0  0  0  0  0  0
    4.7301  -10.8707   12.4032 O   0  0  0  0  0  0  0  0  0  0  0  0
    4.0656  -10.5830   11.1571 C   0  0  0  0  0  0  0  0  0  0  0  0
    4.7718  -10.3599   10.1411 N   0  0  0  0  0  0  0  0  0  0  0  0
    0.4541  -11.7510   11.7442 H   0  0  0  0  0  0  0  0  0  0  0  0
    1.7527  -10.2532   14.9194 H   0  0  0  0  0  0  0  0  0  0  0  0
    0.8584   -8.5529    8.2832 C   0  0  0  0  0  0  0  0  0  0  0  0
    1.2481   -9.7227    9.1392 C   0  0  0  0  0  0  0  0  0  0  0  0
    0.7646  -10.8328    8.9659 O   0  0  0  0  0  0  0  0  0  0  0  0
    2.1443   -9.4797   10.0973 N   0  0  0  0  0  0  0  0  0  0  0  0
    2.5099   -8.5734   10.2169 H   0  0  0  0  0  0  0  0  0  0  0  0
    4.6015  -11.8860   14.5337 C   0  0  0  0  0  0  0  0  0  0  0  0
    4.5352  -11.7129   15.7523 O   0  0  0  0  0  0  0  0  0  0  0  0
    5.0235  -10.9097   15.9918 H   0  0  0  0  0  0  0  0  0  0  0  0
    6.1087  -10.3731   10.3277 O   0  0  0  0  0  0  0  0  0  0  0  0
    6.8814   -9.3257    9.7063 C   0  0  0  0  0  0  0  0  0  0  0  0
    6.7177   -8.1971   10.1533 O   0  0  0  0  0  0  0  0  0  0  0  0
    7.7065   -9.6918    8.7217 N   0  0  0  0  0  0  0  0  0  0  0  0
    7.7217  -10.6509    8.4996 H   0  0  0  0  0  0  0  0  0  0  0  0
    8.5547   -8.8654    7.9671 C   0  0  0  0  0  0  0  0  0  0  0  0
    8.2026   -8.3806    6.7068 C   0  0  0  0  0  0  0  0  0  0  0  0
    9.0844   -7.5659    6.0108 C   0  0  0  0  0  0  0  0  0  0  0  0
   10.3215   -7.2439    6.5534 C   0  0  0  0  0  0  0  0  0  0  0  0
   10.6858   -7.7225    7.8108 C   0  0  0  0  0  0  0  0  0  0  0  0
    9.7946   -8.5363    8.5114 C   0  0  0  0  0  0  0  0  0  0  0  0
 12 13  1  0  0  0
 13 14  2  0  0  0
 13 15  1  0  0  0
 15  1  1  0  0  0
  1  2  1  0  0  0
  1  8  1  0  0  0
  2  3  1  0  0  0
  2  4  1  0  0  0
  4  5  1  0  0  0
  4  6  1  0  0  0
  6 17  1  0  0  0
  6  7  1  0  0  0
 17 18  1  0  0  0
  7  8  1  0  0  0
  8  9  2  0  0  0
  9 20  1  0  0  0
 20 21  1  0  0  0
 21 22  2  0  0  0
 21 23  1  0  0  0
 23 25  1  0  0  0
 25 26  2  0  0  0
 25 30  1  0  0  0
 26 27  1  0  0  0
 27 28  2  0  0  0
 28 29  1  0  0  0
 29 30  2  0  0  0
 15 16  1  0  0  0
  3 10  1  0  0  0
  5 11  1  0  0  0
 18 19  1  0  0  0
 23 24  1  0  0  0
M  END
> <minimizedAffinity>
-6.80692

$$$$
2OXN_OAN_A_501


 30 31  0  0  0  0  0  0  0  0999 V2000
    5.5422   -9.7265   12.1946 C   0  0  0  0  0  0  0  0  0  0  0  0
    5.4686  -10.7748   13.3120 C   0  0  0  0  0  0  0  0  0  0  0  0
    6.6113  -10.5698   14.1613 O   0  0  0  0  0  0  0  0  0  0  0  0
    4.1548  -10.6295   14.0853 C   0  0  0  0  0  0  0  0  0  0  0  0
    4.1079  -11.5785   15.1659 O   0  0  0  0  0  0  0  0  0  0  0  0
    2.9342  -10.8043   13.1777 C   0  0  0  0  0  0  0  0  0  0  0  0
    2.9567   -9.9390   12.0261 O   0  0  0  0  0  0  0  0  0  0  0  0
    4.2352   -9.5497   11.4868 C   0  0  0  0  0  0  0  0  0  0  0  0
    4.2633   -8.9873   10.3627 N   0  0  0  0  0  0  0  0  0  0  0  0
    6.5915   -9.6679   14.5177 H   0  0  0  0  0  0  0  0  0  0  0  0
    4.1370  -12.4791   14.8068 H   0  0  0  0  0  0  0  0  0  0  0  0
    8.8492  -10.0637   10.3970 C   0  0  0  0  0  0  0  0  0  0  0  0
    7.8151   -9.5856   11.3743 C   0  0  0  0  0  0  0  0  0  0  0  0
    8.0715   -8.7326   12.2126 O   0  0  0  0  0  0  0  0  0  0  0  0
    6.6084  -10.1466   11.2775 N   0  0  0  0  0  0  0  0  0  0  0  0
    6.4346  -10.8363   10.5968 H   0  0  0  0  0  0  0  0  0  0  0  0
    1.6829  -10.4343   13.9544 C   0  0  0  0  0  0  0  0  0  0  0  0
    1.3081  -11.1740   14.8666 O   0  0  0  0  0  0  0  0  0  0  0  0
    1.0458  -12.0326   14.4995 H   0  0  0  0  0  0  0  0  0  0  0  0
    3.0748   -8.8350    9.7407 O   0  0  0  0  0  0  0  0  0  0  0  0
    2.9448   -9.3675    8.4066 C   0  0  0  0  0  0  0  0  0  0  0  0
    2.0457   -8.8940    7.7224 O   0  0  0  0  0  0  0  0  0  0  0  0
    3.8236  -10.3067    8.0468 N   0  0  0  0  0  0  0  0  0  0  0  0
    4.4926  -10.5599    8.7233 H   0  0  0  0  0  0  0  0  0  0  0  0
    3.9025  -10.9745    6.8140 C   0  0  0  0  0  0  0  0  0  0  0  0
    2.9666  -11.9308    6.4178 C   0  0  0  0  0  0  0  0  0  0  0  0
    3.0986  -12.5550    5.1855 C   0  0  0  0  0  0  0  0  0  0  0  0
    4.1652  -12.2461    4.3516 C   0  0  0  0  0  0  0  0  0  0  0  0
    5.1074  -11.2936    4.7358 C   0  0  0  0  0  0  0  0  0  0  0  0
    4.9689  -10.6626    5.9728 C   0  0  0  0  0  0  0  0  0  0  0  0
 12 13  1  0  0  0
 13 14  2  0  0  0
 13 15  1  0  0  0
 15  1  1  0  0  0
  1  2  1  0  0  0
  1  8  1  0  0  0
  2  3  1  0  0  0
  2  4  1  0  0  0
  4  5  1  0  0  0
  4  6  1  0  0  0
  6 17  1  0  0  0
  6  7  1  0  0  0
 17 18  1  0  0  0
  7  8  1  0  0  0
  8  9  2  0  0  0
  9 20  1  0  0  0
 20 21  1  0  0  0
 21 22  2  0  0  0
 21 23  1  0  0  0
 23 25  1  0  0  0
 25 26  2  0  0  0
 25 30  1  0  0  0
 26 27  1  0  0  0
 27 28  2  0  0  0
 28 29  1  0  0  0
 29 30  2  0  0  0
 15 16  1  0  0  0
  3 10  1  0  0  0
  5 11  1  0  0  0
 18 19  1  0  0  0
 23 24  1  0  0  0
M  END
> <minimizedAffinity>
-6.75526

$$$$
2OXN_OAN_A_501


 30 31  0  0  0  0  0  0  0  0999 V2000
    4.4751   -8.9561   10.4617 C   0  0  0  0  0  0  0  0  0  0  0  0
    3.5006   -7.7746   10.3752 C   0  0  0  0  0  0  0  0  0  0  0  0
    4.2908   -6.5727   10.3766 O   0  0  0  0  0  0  0  0  0  0  0  0
    2.6451   -7.8886    9.1102 C   0  0  0  0  0  0  0  0  0  0  0  0
    1.7669   -6.7540    9.0016 O   0  0  0  0  0  0  0  0  0  0  0  0
    1.8340   -9.1868    9.0829 C   0  0  0  0  0  0  0  0  0  0  0  0
    2.6434  -10.3639    9.2696 O   0  0  0  0  0  0  0  0  0  0  0  0
    3.8423  -10.2522   10.0615 C   0  0  0  0  0  0  0  0  0  0  0  0
    4.4266  -11.3084   10.4131 N   0  0  0  0  0  0  0  0  0  0  0  0
    4.9014   -6.5864    9.6229 H   0  0  0  0  0  0  0  0  0  0  0  0
    1.1638   -6.7380    9.7612 H   0  0  0  0  0  0  0  0  0  0  0  0
    6.7322   -8.9145   13.4925 C   0  0  0  0  0  0  0  0  0  0  0  0
    6.2908   -8.8538   12.0591 C   0  0  0  0  0  0  0  0  0  0  0  0
    7.0895   -8.6780   11.1495 O   0  0  0  0  0  0  0  0  0  0  0  0
    4.9828   -8.9975   11.8383 N   0  0  0  0  0  0  0  0  0  0  0  0
    4.3637   -9.1303   12.5921 H   0  0  0  0  0  0  0  0  0  0  0  0
    1.1859   -9.3370    7.7178 C   0  0  0  0  0  0  0  0  0  0  0  0
    1.7480   -8.8491    6.7353 O   0  0  0  0  0  0  0  0  0  0  0  0
    1.7679   -7.8831    6.8207 H   0  0  0  0  0  0  0  0  0  0  0  0
    3.8420  -12.4671   10.0413 O   0  0  0  0  0  0  0  0  0  0  0  0
    4.6396  -13.4100    9.2963 C   0  0  0  0  0  0  0  0  0  0  0  0
    5.8254  -13.4699    9.5978 O   0  0  0  0  0  0  0  0  0  0  0  0
    4.0054  -14.1317    8.3685 N   0  0  0  0  0  0  0  0  0  0  0  0
    3.0408  -13.9622    8.2684 H   0  0  0  0  0  0  0  0  0  0  0  0
    4.5571  -15.1046    7.5194 C   0  0  0  0  0  0  0  0  0  0  0  0
    4.7193  -16.4349    7.9088 C   0  0  0  0  0  0  0  0  0  0  0  0
    5.2698  -17.3500    7.0227 C   0  0  0  0  0  0  0  0  0  0  0  0
    5.6754  -16.9469    5.7573 C   0  0  0  0  0  0  0  0  0  0  0  0
    5.5198  -15.6210    5.3563 C   0  0  0  0  0  0  0  0  0  0  0  0
    4.9601  -14.7041    6.2470 C   0  0  0  0  0  0  0  0  0  0  0  0
 12 13  1  0  0  0
 13 14  2  0  0  0
 13 15  1  0  0  0
 15  1  1  0  0  0
  1  2  1  0  0  0
  1  8  1  0  0  0
  2  3  1  0  0  0
  2  4  1  0  0  0
  4  5  1  0  0  0
  4  6  1  0  0  0
  6 17  1  0  0  0
  6  7  1  0  0  0
 17 18  1  0  0  0
  7  8  1  0  0  0
  8  9  2  0  0  0
  9 20  1  0  0  0
 20 21  1  0  0  0
 21 22  2  0  0  0
 21 23  1  0  0  0
 23 25  1  0  0  0
 25 26  2  0  0  0
 25 30  1  0  0  0
 26 27  1  0  0  0
 27 28  2  0  0  0
 28 29  1  0  0  0
 29 30  2  0  0  0
 15 16  1  0  0  0
  3 10  1  0  0  0
  5 11  1  0  0  0
 18 19  1  0  0  0
 23 24  1  0  0  0
M  END
> <minimizedAffinity>
-6.65140

$$$$
2OXN_OAN_A_501


 30 31  0  0  0  0  0  0  0  0999 V2000
    3.2581  -10.4485   12.0534 C   0  0  0  0  0  0  0  0  0  0  0  0
    2.1984  -11.2312   11.2676 C   0  0  0  0  0  0  0  0  0  0  0  0
    1.3389  -11.8651   12.2312 O   0  0  0  0  0  0  0  0  0  0  0  0
    1.4189  -10.2862   10.3486 C   0  0  0  0  0  0  0  0  0  0  0  0
    0.3906  -11.0105    9.6498 O   0  0  0  0  0  0  0  0  0  0  0  0
    2.3351   -9.5758    9.3485 C   0  0  0  0  0  0  0  0  0  0  0  0
    3.4388   -8.8954    9.9765 O   0  0  0  0  0  0  0  0  0  0  0  0
    3.9560   -9.4253   11.2128 C   0  0  0  0  0  0  0  0  0  0  0  0
    5.0484   -8.9769   11.6444 N   0  0  0  0  0  0  0  0  0  0  0  0
    0.9348  -11.1895   12.7979 H   0  0  0  0  0  0  0  0  0  0  0  0
    0.7973  -11.6912    9.0910 H   0  0  0  0  0  0  0  0  0  0  0  0
    5.1293  -12.7424   14.4025 C   0  0  0  0  0  0  0  0  0  0  0  0
    4.1325  -11.7349   13.9080 C   0  0  0  0  0  0  0  0  0  0  0  0
    3.3083  -11.2282   14.6563 O   0  0  0  0  0  0  0  0  0  0  0  0
    4.1960  -11.4306   12.6104 N   0  0  0  0  0  0  0  0  0  0  0  0
    4.8660  -11.8610   12.0316 H   0  0  0  0  0  0  0  0  0  0  0  0
    1.5402   -8.5036    8.6243 C   0  0  0  0  0  0  0  0  0  0  0  0
    1.7719   -7.3192    8.8754 O   0  0  0  0  0  0  0  0  0  0  0  0
    1.5321   -7.1311    9.7962 H   0  0  0  0  0  0  0  0  0  0  0  0
    5.6618   -8.0536   10.8738 O   0  0  0  0  0  0  0  0  0  0  0  0
    6.6142   -8.5229    9.8976 C   0  0  0  0  0  0  0  0  0  0  0  0
    7.5976   -9.1042   10.3397 O   0  0  0  0  0  0  0  0  0  0  0  0
    6.3219   -8.2927    8.6148 N   0  0  0  0  0  0  0  0  0  0  0  0
    5.4761   -7.8206    8.4383 H   0  0  0  0  0  0  0  0  0  0  0  0
    7.0828   -8.6469    7.4890 C   0  0  0  0  0  0  0  0  0  0  0  0
    6.9002   -9.8519    6.8093 C   0  0  0  0  0  0  0  0  0  0  0  0
    7.6833  -10.1438    5.7015 C   0  0  0  0  0  0  0  0  0  0  0  0
    8.6585   -9.2517    5.2752 C   0  0  0  0  0  0  0  0  0  0  0  0
    8.8517   -8.0452    5.9458 C   0  0  0  0  0  0  0  0  0  0  0  0
    8.0586   -7.7513    7.0558 C   0  0  0  0  0  0  0  0  0  0  0  0
 12 13  1  0  0  0
 13 14  2  0  0  0
 13 15  1  0  0  0
 15  1  1  0  0  0
  1  2  1  0  0  0
  1  8  1  0  0  0
  2  3  1  0  0  0
  2  4  1  0  0  0
  4  5  1  0  0  0
  4  6  1  0  0  0
  6 17  1  0  0  0
  6  7  1  0  0  0
 17 18  1  0  0  0
  7  8  1  0  0  0
  8  9  2  0  0  0
  9 20  1  0  0  0
 20 21  1  0  0  0
 21 22  2  0  0  0
 21 23  1  0  0  0
 23 25  1  0  0  0
 25 26  2  0  0  0
 25 30  1  0  0  0
 26 27  1  0  0  0
 27 28  2  0  0  0
 28 29  1  0  0  0
 29 30  2  0  0  0
 15 16  1  0  0  0
  3 10  1  0  0  0
  5 11  1  0  0  0
 18 19  1  0  0  0
 23 24  1  0  0  0
M  END
> <minimizedAffinity>
-6.61265

$$$$
2OXN_OAN_A_501


 30 31  0  0  0  0  0  0  0  0999 V2000
    2.6075  -11.2067   11.4984 C   0  0  0  0  0  0  0  0  0  0  0  0
    2.4318  -10.5296   12.8636 C   0  0  0  0  0  0  0  0  0  0  0  0
    1.0180  -10.3846   13.0857 O   0  0  0  0  0  0  0  0  0  0  0  0
    3.0937  -11.3713   13.9584 C   0  0  0  0  0  0  0  0  0  0  0  0
    2.8847  -10.7634   15.2457 O   0  0  0  0  0  0  0  0  0  0  0  0
    4.5911  -11.5652   13.7044 C   0  0  0  0  0  0  0  0  0  0  0  0
    4.8792  -12.0960   12.3965 O   0  0  0  0  0  0  0  0  0  0  0  0
    3.9755  -11.7864   11.3174 C   0  0  0  0  0  0  0  0  0  0  0  0
    4.3346  -12.0530   10.1424 N   0  0  0  0  0  0  0  0  0  0  0  0
    0.5962  -11.2578   13.0646 H   0  0  0  0  0  0  0  0  0  0  0  0
    3.2998   -9.8869   15.2606 H   0  0  0  0  0  0  0  0  0  0  0  0
    0.8816   -9.1773    8.8179 C   0  0  0  0  0  0  0  0  0  0  0  0
    1.1178  -10.2349    9.8565 C   0  0  0  0  0  0  0  0  0  0  0  0
    0.2690  -11.0753   10.1200 O   0  0  0  0  0  0  0  0  0  0  0  0
    2.2999  -10.2009   10.4745 N   0  0  0  0  0  0  0  0  0  0  0  0
    2.9600   -9.5073   10.2458 H   0  0  0  0  0  0  0  0  0  0  0  0
    5.1341  -12.5789   14.6962 C   0  0  0  0  0  0  0  0  0  0  0  0
    5.0438  -12.3392   15.9019 O   0  0  0  0  0  0  0  0  0  0  0  0
    5.5864  -11.5652   16.1192 H   0  0  0  0  0  0  0  0  0  0  0  0
    5.5705  -12.5769    9.9993 O   0  0  0  0  0  0  0  0  0  0  0  0
    6.5412  -11.8089    9.2589 C   0  0  0  0  0  0  0  0  0  0  0  0
    6.9223  -12.2970    8.2019 O   0  0  0  0  0  0  0  0  0  0  0  0
    6.9131  -10.6406    9.7887 N   0  0  0  0  0  0  0  0  0  0  0  0
    6.4921  -10.3963   10.6444 H   0  0  0  0  0  0  0  0  0  0  0  0
    7.8358   -9.7208    9.2648 C   0  0  0  0  0  0  0  0  0  0  0  0
    7.4587   -8.6850    8.4089 C   0  0  0  0  0  0  0  0  0  0  0  0
    8.4182   -7.8068    7.9255 C   0  0  0  0  0  0  0  0  0  0  0  0
    9.7532   -7.9622    8.2747 C   0  0  0  0  0  0  0  0  0  0  0  0
   10.1432   -8.9931    9.1279 C   0  0  0  0  0  0  0  0  0  0  0  0
    9.1755   -9.8711    9.6177 C   0  0  0  0  0  0  0  0  0  0  0  0
 12 13  1  0  0  0
 13 14  2  0  0  0
 13 15  1  0  0  0
 15  1  1  0  0  0
  1  2  1  0  0  0
  1  8  1  0  0  0
  2  3  1  0  0  0
  2  4  1  0  0  0
  4  5  1  0  0  0
  4  6  1  0  0  0
  6 17  1  0  0  0
  6  7  1  0  0  0
 17 18  1  0  0  0
  7  8  1  0  0  0
  8  9  2  0  0  0
  9 20  1  0  0  0
 20 21  1  0  0  0
 21 22  2  0  0  0
 21 23  1  0  0  0
 23 25  1  0  0  0
 25 26  2  0  0  0
 25 30  1  0  0  0
 26 27  1  0  0  0
 27 28  2  0  0  0
 28 29  1  0  0  0
 29 30  2  0  0  0
 15 16  1  0  0  0
  3 10  1  0  0  0
  5 11  1  0  0  0
 18 19  1  0  0  0
 23 24  1  0  0  0
M  END
> <minimizedAffinity>
-6.51523

$$$$
2OXN_OAN_A_501


 30 31  0  0  0  0  0  0  0  0999 V2000
    6.1533   -9.0297    7.4761 C   0  0  0  0  0  0  0  0  0  0  0  0
    6.2189   -7.5334    7.8072 C   0  0  0  0  0  0  0  0  0  0  0  0
    6.5749   -6.8464    6.5946 O   0  0  0  0  0  0  0  0  0  0  0  0
    4.8709   -7.0551    8.3543 C   0  0  0  0  0  0  0  0  0  0  0  0
    4.9158   -5.6410    8.6164 O   0  0  0  0  0  0  0  0  0  0  0  0
    4.4662   -7.8130    9.6216 C   0  0  0  0  0  0  0  0  0  0  0  0
    4.4799   -9.2437    9.4540 O   0  0  0  0  0  0  0  0  0  0  0  0
    5.4080   -9.8140    8.5105 C   0  0  0  0  0  0  0  0  0  0  0  0
    5.5825  -11.0590    8.5221 N   0  0  0  0  0  0  0  0  0  0  0  0
    5.9112   -7.0310    5.9116 H   0  0  0  0  0  0  0  0  0  0  0  0
    5.5865   -5.4587    9.2930 H   0  0  0  0  0  0  0  0  0  0  0  0
    9.4548  -10.1643    6.0289 C   0  0  0  0  0  0  0  0  0  0  0  0
    8.0374   -9.6756    6.1006 C   0  0  0  0  0  0  0  0  0  0  0  0
    7.3857   -9.4491    5.0906 O   0  0  0  0  0  0  0  0  0  0  0  0
    7.5355   -9.4997    7.3243 N   0  0  0  0  0  0  0  0  0  0  0  0
    8.0875   -9.6836    8.1185 H   0  0  0  0  0  0  0  0  0  0  0  0
    3.0370   -7.4476    9.9816 C   0  0  0  0  0  0  0  0  0  0  0  0
    2.3806   -6.7645    9.1930 O   0  0  0  0  0  0  0  0  0  0  0  0
    2.7793   -5.8833    9.1190 H   0  0  0  0  0  0  0  0  0  0  0  0
    4.9006  -11.7495    9.4605 O   0  0  0  0  0  0  0  0  0  0  0  0
    5.6652  -12.4625   10.4541 C   0  0  0  0  0  0  0  0  0  0  0  0
    6.1973  -13.5012   10.0819 O   0  0  0  0  0  0  0  0  0  0  0  0
    5.7301  -11.9132   11.6699 N   0  0  0  0  0  0  0  0  0  0  0  0
    5.2501  -11.0620   11.7899 H   0  0  0  0  0  0  0  0  0  0  0  0
    6.4047  -12.4107   12.7965 C   0  0  0  0  0  0  0  0  0  0  0  0
    7.7819  -12.2673   12.9700 C   0  0  0  0  0  0  0  0  0  0  0  0
    8.3903  -12.7800   14.1069 C   0  0  0  0  0  0  0  0  0  0  0  0
    7.6400  -13.4492   15.0648 C   0  0  0  0  0  0  0  0  0  0  0  0
    6.2638  -13.6003   14.9031 C   0  0  0  0  0  0  0  0  0  0  0  0
    5.6534  -13.0782   13.7620 C   0  0  0  0  0  0  0  0  0  0  0  0
 12 13  1  0  0  0
 13 14  2  0  0  0
 13 15  1  0  0  0
 15  1  1  0  0  0
  1  2  1  0  0  0
  1  8  1  0  0  0
  2  3  1  0  0  0
  2  4  1  0  0  0
  4  5  1  0  0  0
  4  6  1  0  0  0
  6 17  1  0  0  0
  6  7  1  0  0  0
 17 18  1  0  0  0
  7  8  1  0  0  0
  8  9  2  0  0  0
  9 20  1  0  0  0
 20 21  1  0  0  0
 21 22  2  0  0  0
 21 23  1  0  0  0
 23 25  1  0  0  0
 25 26  2  0  0  0
 25 30  1  0  0  0
 26 27  1  0  0  0
 27 28  2  0  0  0
 28 29  1  0  0  0
 29 30  2  0  0  0
 15 16  1  0  0  0
  3 10  1  0  0  0
  5 11  1  0  0  0
 18 19  1  0  0  0
 23 24  1  0  0  0
M  END
> <minimizedAffinity>
-6.27339

$$$$
2OXN_OAN_A_501


 30 31  0  0  0  0  0  0  0  0999 V2000
    5.3412  -10.0008   11.9356 C   0  0  0  0  0  0  0  0  0  0  0  0
    5.5289  -10.6232   13.3250 C   0  0  0  0  0  0  0  0  0  0  0  0
    6.4676   -9.7970   14.0360 O   0  0  0  0  0  0  0  0  0  0  0  0
    4.1835  -10.7060   14.0517 C   0  0  0  0  0  0  0  0  0  0  0  0
    4.3664  -11.2417   15.3745 O   0  0  0  0  0  0  0  0  0  0  0  0
    3.1662  -11.5491   13.2781 C   0  0  0  0  0  0  0  0  0  0  0  0
    2.9937  -11.1175   11.9145 O   0  0  0  0  0  0  0  0  0  0  0  0
    4.1105  -10.4998   11.2451 C   0  0  0  0  0  0  0  0  0  0  0  0
    4.0411  -10.3280   10.0016 N   0  0  0  0  0  0  0  0  0  0  0  0
    6.1223   -8.8925   14.0949 H   0  0  0  0  0  0  0  0  0  0  0  0
    4.7203  -12.1427   15.3123 H   0  0  0  0  0  0  0  0  0  0  0  0
    8.3814   -9.6862    9.7130 C   0  0  0  0  0  0  0  0  0  0  0  0
    7.1481   -9.3091   10.4811 C   0  0  0  0  0  0  0  0  0  0  0  0
    6.7173   -8.1644   10.4799 O   0  0  0  0  0  0  0  0  0  0  0  0
    6.5562  -10.2903   11.1647 N   0  0  0  0  0  0  0  0  0  0  0  0
    6.9312  -11.2005   11.1522 H   0  0  0  0  0  0  0  0  0  0  0  0
    1.8049  -11.4095   13.9364 C   0  0  0  0  0  0  0  0  0  0  0  0
    1.7153  -10.7749   14.9893 O   0  0  0  0  0  0  0  0  0  0  0  0
    2.2072  -11.2352   15.6872 H   0  0  0  0  0  0  0  0  0  0  0  0
    2.9230  -10.7826    9.3968 O   0  0  0  0  0  0  0  0  0  0  0  0
    3.0756  -11.8004    8.3863 C   0  0  0  0  0  0  0  0  0  0  0  0
    2.2129  -11.8309    7.5172 O   0  0  0  0  0  0  0  0  0  0  0  0
    4.1458  -12.5929    8.4892 N   0  0  0  0  0  0  0  0  0  0  0  0
    4.7472  -12.4170    9.2486 H   0  0  0  0  0  0  0  0  0  0  0  0
    4.5115  -13.6484    7.6382 C   0  0  0  0  0  0  0  0  0  0  0  0
    4.9205  -13.4416    6.3201 C   0  0  0  0  0  0  0  0  0  0  0  0
    5.2710  -14.5266    5.5291 C   0  0  0  0  0  0  0  0  0  0  0  0
    5.2012  -15.8177    6.0357 C   0  0  0  0  0  0  0  0  0  0  0  0
    4.7932  -16.0380    7.3502 C   0  0  0  0  0  0  0  0  0  0  0  0
    4.4475  -14.9447    8.1456 C   0  0  0  0  0  0  0  0  0  0  0  0
 12 13  1  0  0  0
 13 14  2  0  0  0
 13 15  1  0  0  0
 15  1  1  0  0  0
  1  2  1  0  0  0
  1  8  1  0  0  0
  2  3  1  0  0  0
  2  4  1  0  0  0
  4  5  1  0  0  0
  4  6  1  0  0  0
  6 17  1  0  0  0
  6  7  1  0  0  0
 17 18  1  0  0  0
  7  8  1  0  0  0
  8  9  2  0  0  0
  9 20  1  0  0  0
 20 21  1  0  0  0
 21 22  2  0  0  0
 21 23  1  0  0  0
 23 25  1  0  0  0
 25 26  2  0  0  0
 25 30  1  0  0  0
 26 27  1  0  0  0
 27 28  2  0  0  0
 28 29  1  0  0  0
 29 30  2  0  0  0
 15 16  1  0  0  0
  3 10  1  0  0  0
  5 11  1  0  0  0
 18 19  1  0  0  0
 23 24  1  0  0  0
M  END
> <minimizedAffinity>
-6.20514

$$$$
2OXN_OAN_A_501


 30 31  0  0  0  0  0  0  0  0999 V2000
    4.4102   -8.9790   10.4151 C   0  0  0  0  0  0  0  0  0  0  0  0
    3.4528   -7.7806   10.4074 C   0  0  0  0  0  0  0  0  0  0  0  0
    4.2565   -6.5954   10.5439 O   0  0  0  0  0  0  0  0  0  0  0  0
    2.6374   -7.7657    9.1112 C   0  0  0  0  0  0  0  0  0  0  0  0
    1.7763   -6.6133    9.0802 O   0  0  0  0  0  0  0  0  0  0  0  0
    1.8125   -9.0441    8.9394 C   0  0  0  0  0  0  0  0  0  0  0  0
    2.6017  -10.2449    9.0421 O   0  0  0  0  0  0  0  0  0  0  0  0
    3.7756  -10.2236    9.8778 C   0  0  0  0  0  0  0  0  0  0  0  0
    4.3359  -11.3160   10.1488 N   0  0  0  0  0  0  0  0  0  0  0  0
    4.8908   -6.5488    9.8116 H   0  0  0  0  0  0  0  0  0  0  0  0
    1.1493   -6.6582    9.8189 H   0  0  0  0  0  0  0  0  0  0  0  0
    6.5221   -9.0305   13.5486 C   0  0  0  0  0  0  0  0  0  0  0  0
    6.1230   -8.8158   12.1176 C   0  0  0  0  0  0  0  0  0  0  0  0
    6.9032   -8.3529   11.2972 O   0  0  0  0  0  0  0  0  0  0  0  0
    4.8726   -9.1537   11.7971 N   0  0  0  0  0  0  0  0  0  0  0  0
    4.2655   -9.5171   12.4817 H   0  0  0  0  0  0  0  0  0  0  0  0
    1.2072   -9.0591    7.5468 C   0  0  0  0  0  0  0  0  0  0  0  0
    0.7230  -10.1091    7.1196 O   0  0  0  0  0  0  0  0  0  0  0  0
    1.4246  -10.7713    7.0190 H   0  0  0  0  0  0  0  0  0  0  0  0
    3.7503  -12.4271    9.6540 O   0  0  0  0  0  0  0  0  0  0  0  0
    4.2554  -12.9519    8.4091 C   0  0  0  0  0  0  0  0  0  0  0  0
    4.1490  -14.1620    8.2513 O   0  0  0  0  0  0  0  0  0  0  0  0
    4.7708  -12.0683    7.5502 N   0  0  0  0  0  0  0  0  0  0  0  0
    4.7631  -11.1264    7.8366 H   0  0  0  0  0  0  0  0  0  0  0  0
    5.3223  -12.3290    6.2854 C   0  0  0  0  0  0  0  0  0  0  0  0
    6.5448  -12.9816    6.1204 C   0  0  0  0  0  0  0  0  0  0  0  0
    7.0362  -13.2115    4.8432 C   0  0  0  0  0  0  0  0  0  0  0  0
    6.3274  -12.7817    3.7291 C   0  0  0  0  0  0  0  0  0  0  0  0
    5.1057  -12.1278    3.8802 C   0  0  0  0  0  0  0  0  0  0  0  0
    4.6106  -11.9034    5.1654 C   0  0  0  0  0  0  0  0  0  0  0  0
 12 13  1  0  0  0
 13 14  2  0  0  0
 13 15  1  0  0  0
 15  1  1  0  0  0
  1  2  1  0  0  0
  1  8  1  0  0  0
  2  3  1  0  0  0
  2  4  1  0  0  0
  4  5  1  0  0  0
  4  6  1  0  0  0
  6 17  1  0  0  0
  6  7  1  0  0  0
 17 18  1  0  0  0
  7  8  1  0  0  0
  8  9  2  0  0  0
  9 20  1  0  0  0
 20 21  1  0  0  0
 21 22  2  0  0  0
 21 23  1  0  0  0
 23 25  1  0  0  0
 25 26  2  0  0  0
 25 30  1  0  0  0
 26 27  1  0  0  0
 27 28  2  0  0  0
 28 29  1  0  0  0
 29 30  2  0  0  0
 15 16  1  0  0  0
  3 10  1  0  0  0
  5 11  1  0  0  0
 18 19  1  0  0  0
 23 24  1  0  0  0
M  END
> <minimizedAffinity>
-6.18505

$$$$
2OXN_OAN_A_501


 30 31  0  0  0  0  0  0  0  0999 V2000
    4.1864   -9.1644    9.6340 C   0  0  0  0  0  0  0  0  0  0  0  0
    2.6843   -9.2246    9.3290 C   0  0  0  0  0  0  0  0  0  0  0  0
    2.5479   -9.4620    7.9169 O   0  0  0  0  0  0  0  0  0  0  0  0
    2.0226  -10.3309   10.1558 C   0  0  0  0  0  0  0  0  0  0  0  0
    0.6236  -10.4224    9.8322 O   0  0  0  0  0  0  0  0  0  0  0  0
    2.2016  -10.1062   11.6597 C   0  0  0  0  0  0  0  0  0  0  0  0
    3.5777   -9.9234   12.0447 O   0  0  0  0  0  0  0  0  0  0  0  0
    4.4831   -9.3333   11.0913 C   0  0  0  0  0  0  0  0  0  0  0  0
    5.6172   -8.9670   11.4919 N   0  0  0  0  0  0  0  0  0  0  0  0
    2.9918  -10.2925    7.6842 H   0  0  0  0  0  0  0  0  0  0  0  0
    0.1843   -9.5874   10.0575 H   0  0  0  0  0  0  0  0  0  0  0  0
    5.9632   -6.5178    7.6040 C   0  0  0  0  0  0  0  0  0  0  0  0
    5.4963   -7.8680    8.0647 C   0  0  0  0  0  0  0  0  0  0  0  0
    5.8443   -8.8943    7.4976 O   0  0  0  0  0  0  0  0  0  0  0  0
    4.6804   -7.8812    9.1204 N   0  0  0  0  0  0  0  0  0  0  0  0
    4.4121   -7.0376    9.5511 H   0  0  0  0  0  0  0  0  0  0  0  0
    1.7188  -11.3380   12.4051 C   0  0  0  0  0  0  0  0  0  0  0  0
    1.5862  -12.3950   11.7849 O   0  0  0  0  0  0  0  0  0  0  0  0
    0.8829  -12.2962   11.1243 H   0  0  0  0  0  0  0  0  0  0  0  0
    5.8671   -9.1290   12.8086 O   0  0  0  0  0  0  0  0  0  0  0  0
    7.0519   -9.8631   13.1794 C   0  0  0  0  0  0  0  0  0  0  0  0
    7.9134   -9.2301   13.7774 O   0  0  0  0  0  0  0  0  0  0  0  0
    7.0838  -11.1573   12.8503 N   0  0  0  0  0  0  0  0  0  0  0  0
    6.2926  -11.5072   12.3805 H   0  0  0  0  0  0  0  0  0  0  0  0
    8.1168  -12.0757   13.0976 C   0  0  0  0  0  0  0  0  0  0  0  0
    8.3195  -12.6571   14.3500 C   0  0  0  0  0  0  0  0  0  0  0  0
    9.3578  -13.5598   14.5307 C   0  0  0  0  0  0  0  0  0  0  0  0
   10.2063  -13.8755   13.4777 C   0  0  0  0  0  0  0  0  0  0  0  0
   10.0154  -13.3011   12.2222 C   0  0  0  0  0  0  0  0  0  0  0  0
    8.9667  -12.3984   12.0414 C   0  0  0  0  0  0  0  0  0  0  0  0
 12 13  1  0  0  0
 13 14  2  0  0  0
 13 15  1  0  0  0
 15  1  1  0  0  0
  1  2  1  0  0  0
  1  8  1  0  0  0
  2  3  1  0  0  0
  2  4  1  0  0  0
  4  5  1  0  0  0
  4  6  1  0  0  0
  6 17  1  0  0  0
  6  7  1  0  0  0
 17 18  1  0  0  0
  7  8  1  0  0  0
  8  9  2  0  0  0
  9 20  1  0  0  0
 20 21  1  0  0  0
 21 22  2  0  0  0
 21 23  1  0  0  0
 23 25  1  0  0  0
 25 26  2  0  0  0
 25 30  1  0  0  0
 26 27  1  0  0  0
 27 28  2  0  0  0
 28 29  1  0  0  0
 29 30  2  0  0  0
 15 16  1  0  0  0
  3 10  1  0  0  0
  5 11  1  0  0  0
 18 19  1  0  0  0
 23 24  1  0  0  0
M  END
> <minimizedAffinity>
-6.05784

$$$$
