2OXN_OAN_A_501
  RCSB PDB12061706343D
Coordinates from PDB:2OXN:A:501 Model:1 without hydrogens
 25 26  0  0  0  0            999 V2000
    6.0760   -9.0380   13.5880   C 0  0  0  0  0  0  0  0  0  0  0  0
    5.7730   -8.7620   12.1440   C 0  0  0  0  0  0  0  0  0  0  0  0
    6.5900   -8.2250   11.4090   O 0  0  0  0  0  0  0  0  0  0  0  0
    4.5650   -9.1310   11.7140   N 0  0  0  0  0  0  0  0  0  0  0  0
    4.1970   -8.9000   10.3120   C 0  0  0  0  0  0  0  0  0  0  0  0
    3.1290   -7.7990   10.3010   C 0  0  0  0  0  0  0  0  0  0  0  0
    3.7980   -6.5570   10.5820   O 0  0  0  0  0  0  0  0  0  0  0  0
    2.4200   -7.7660    8.9440   C 0  0  0  0  0  0  0  0  0  0  0  0
    1.4540   -6.7000    8.9150   O 0  0  0  0  0  0  0  0  0  0  0  0
    1.7420   -9.1000    8.6200   C 0  0  0  0  0  0  0  0  0  0  0  0
    1.2520   -9.0700    7.1830   C 0  0  0  0  0  0  0  0  0  0  0  0
    2.0770   -9.1540    6.2710   O 0  0  0  0  0  0  0  0  0  0  0  0
    2.6360  -10.2260    8.7110   O 0  0  0  0  0  0  0  0  0  0  0  0
    3.7330  -10.1560    9.6430   C 0  0  0  0  0  0  0  0  0  0  0  0
    4.3760  -11.2080    9.8890   N 0  0  0  0  0  0  0  0  0  0  0  0
    3.9440  -12.3300    9.2750   O 0  0  0  0  0  0  0  0  0  0  0  0
    4.7300  -13.5280    9.4400   C 0  0  0  0  0  0  0  0  0  0  0  0
    5.6450  -13.4650   10.2520   O 0  0  0  0  0  0  0  0  0  0  0  0
    4.3730  -14.5860    8.7070   N 0  0  0  0  0  0  0  0  0  0  0  0
    4.9760  -15.8540    8.6880   C 0  0  0  0  0  0  0  0  0  0  0  0
    6.1030  -16.1600    9.4520   C 0  0  0  0  0  0  0  0  0  0  0  0
    6.6520  -17.4330    9.3910   C 0  0  0  0  0  0  0  0  0  0  0  0
    6.0970  -18.3990    8.5620   C 0  0  0  0  0  0  0  0  0  0  0  0
    4.9720  -18.1060    7.7930   C 0  0  0  0  0  0  0  0  0  0  0  0
    4.4180  -16.8270    7.8610   C 0  0  0  0  0  0  0  0  0  0  0  0
  1  2  1  0  0  0  0
  2  3  2  0  0  0  0
  2  4  1  0  0  0  0
  4  5  1  0  0  0  0
  5  6  1  0  0  0  0
  5 14  1  0  0  0  0
  6  7  1  0  0  0  0
  6  8  1  0  0  0  0
  8  9  1  0  0  0  0
  8 10  1  0  0  0  0
 10 11  1  0  0  0  0
 10 13  1  0  0  0  0
 11 12  1  0  0  0  0
 13 14  1  0  0  0  0
 14 15  2  0  0  0  0
 15 16  1  0  0  0  0
 16 17  1  0  0  0  0
 17 18  2  0  0  0  0
 17 19  1  0  0  0  0
 19 20  1  0  0  0  0
 20 21  2  0  0  0  0
 20 25  1  0  0  0  0
 21 22  1  0  0  0  0
 22 23  2  0  0  0  0
 23 24  1  0  0  0  0
 24 25  2  0  0  0  0
A    1
CAH
A    2
CAG
A    3
OAN
A    4
NAI
A    5
CAB
A    6
CAC
A    7
OAJ
A    8
CAD
A    9
OAK
A   10
CAE
A   11
CAF
A   12
OAM
A   13
OAL
A   14
CAA
A   15
NAY
A   16
OAQ
A   17
CAP
A   18
OAR
A   19
NAO
A   20
CAS
A   21
CAT
A   22
CAU
A   23
CAV
A   24
CAW
A   25
CAX
M  END
>  <InstanceId>
2OXN_OAN_A_501

>  <ChemCompId>
OAN

>  <PdbId>
2OXN

>  <ChainId>
A

>  <ResidueNumber>
501

>  <InsertionCode>


>  <Model>
1

>  <AltIds>


>  <MissingHeavyAtoms>
0

>  <ObservedFormula>
C15 N3 O7

>  <Name>
O-(2-ACETAMIDO-2-DEOXY D-GLUCOPYRANOSYLIDENE) AMINO-N-PHENYLCARBAMATE

>  <SystematicName>
[(Z)-[(3R,4R,5S,6R)-3-acetamido-6-(hydroxymethyl)-4,5-bis(oxidanyl)oxan-2-ylidene]amino] N-phenylcarbamate

>  <Synonyms>
PUGNAc

>  <Type>
NON-POLYMER

>  <Formula>
C15 H19 N3 O7

>  <MolecularWeight>
353.327

>  <ModifiedDate>
2011-08-15

>  <Parent>


>  <OneLetterCode>


>  <SubcomponentList>


>  <AmbiguousFlag>
N

>  <InChI>
InChI=1S/C15H19N3O7/c1-8(20)16-11-13(22)12(21)10(7-19)24-14(11)18-25-15(23)17-9-5-3-2-4-6-9/h2-6,10-13,19,21-22H,7H2,1H3,(H,16,20)(H,17,23)/b18-14-/t10-,11-,12-,13-/m1/s1

>  <InChIKey>
PBLNJFVQMUMOJY-JXZOILRNSA-N

>  <SMILES>
CC(=O)N[C@@H]\1[C@H]([C@@H]([C@H](O/C1=N\OC(=O)Nc2ccccc2)CO)O)O

$$$$
