4CWP_TV2_A_1224
  RCSB PDB12061712063D
Coordinates from PDB:4CWP:A:1224 Model:1 without hydrogens
 24 28  0  0  0  0            999 V2000
   -2.2510   11.9550   24.0980   N 0  0  0  0  0  0  0  0  0  0  0  0
   -1.1400   11.3320   24.5700   C 0  0  0  0  0  0  0  0  0  0  0  0
    0.0450   11.3620   23.9020   N 0  0  0  0  0  0  0  0  0  0  0  0
    0.7880   10.5620   24.7690   N 0  0  0  0  0  0  0  0  0  0  0  0
    0.0810   10.1420   25.8270   C 0  0  0  0  0  0  0  0  0  0  0  0
   -1.1790   10.6280   25.7290   N 0  0  0  0  0  0  0  0  0  0  0  0
    2.0800   10.2090   24.6070   C 0  0  0  0  0  0  0  0  0  0  0  0
    2.6850    9.4310   25.5420   N 0  0  0  0  0  0  0  0  0  0  0  0
    1.9780    8.9850   26.6430   C 0  0  0  0  0  0  0  0  0  0  0  0
    2.5980    8.1890   27.6120   C 0  0  0  0  0  0  0  0  0  0  0  0
    1.8810    7.7360   28.7210   C 0  0  0  0  0  0  0  0  0  0  0  0
    0.5390    8.0840   28.8790   C 0  0  0  0  0  0  0  0  0  0  0  0
   -0.0860    8.9020   27.9290   C 0  0  0  0  0  0  0  0  0  0  0  0
    0.6360    9.3470   26.8210   C 0  0  0  0  0  0  0  0  0  0  0  0
    2.8820   10.6790   23.4230   C 0  0  0  0  0  0  0  0  0  0  0  0
    3.7840   11.8150   23.8490   C 0  0  0  0  0  0  0  0  0  0  0  0
    5.1870   11.6830   23.7580   C 0  0  0  0  0  0  0  0  0  0  0  0
    6.0330   12.7500   24.1320   C 0  0  0  0  0  0  0  0  0  0  0  0
    5.4150   13.9030   24.6130   C 0  0  0  0  0  0  0  0  0  0  0  0
    4.0560   13.9930   24.7220   C 0  0  0  0  0  0  0  0  0  0  0  0
    3.1890   12.9770   24.3440   C 0  0  0  0  0  0  0  0  0  0  0  0
    5.9840   15.0850   25.0610   O 0  0  0  0  0  0  0  0  0  0  0  0
    4.9220   15.9690   25.4710   C 0  0  0  0  0  0  0  0  0  0  0  0
    3.7240   15.2060   25.2200   O 0  0  0  0  0  0  0  0  0  0  0  0
  1  2  1  0  0  0  0
  2  3  2  0  0  0  0
  2  6  1  0  0  0  0
  3  4  1  0  0  0  0
  4  5  1  0  0  0  0
  4  7  1  0  0  0  0
  5  6  2  0  0  0  0
  5 14  1  0  0  0  0
  7  8  2  0  0  0  0
  7 15  1  0  0  0  0
  8  9  1  0  0  0  0
  9 10  1  0  0  0  0
  9 14  2  0  0  0  0
 10 11  2  0  0  0  0
 11 12  1  0  0  0  0
 12 13  2  0  0  0  0
 13 14  1  0  0  0  0
 15 16  1  0  0  0  0
 16 17  1  0  0  0  0
 16 21  2  0  0  0  0
 17 18  2  0  0  0  0
 18 19  1  0  0  0  0
 19 20  2  0  0  0  0
 19 22  1  0  0  0  0
 20 21  1  0  0  0  0
 20 24  1  0  0  0  0
 22 23  1  0  0  0  0
 23 24  1  0  0  0  0
A    1
N5
A    2
C17
A    3
N3
A    4
N1
A    5
C7
A    6
N4
A    7
C8
A    8
N2
A    9
C4
A   10
C3
A   11
C2
A   12
C1
A   13
C6
A   14
C5
A   15
C9
A   16
C10
A   17
C11
A   18
C12
A   19
C13
A   20
C14
A   21
C15
A   22
O2
A   23
C16
A   24
O1
M  END
>  <InstanceId>
4CWP_TV2_A_1224

>  <ChemCompId>
TV2

>  <PdbId>
4CWP

>  <ChainId>
A

>  <ResidueNumber>
1224

>  <InsertionCode>


>  <Model>
1

>  <AltIds>


>  <MissingHeavyAtoms>
0

>  <ObservedFormula>
C17 N5 O2

>  <Name>
5-(1,3-benzodioxol-5-ylmethyl)[1,2,4]triazolo[1,5-c]quinazolin-2-amine

>  <SystematicName>
5-(1,3-benzodioxol-5-ylmethyl)-[1,2,4]triazolo[1,5-c]quinazolin-2-amine

>  <Synonyms>


>  <Type>
non-polymer

>  <Formula>
C17 H13 N5 O2

>  <MolecularWeight>
319.317

>  <ModifiedDate>
2014-07-03

>  <Parent>


>  <OneLetterCode>


>  <SubcomponentList>


>  <AmbiguousFlag>
N

>  <InChI>
InChI=1S/C17H13N5O2/c18-17-20-16-11-3-1-2-4-12(11)19-15(22(16)21-17)8-10-5-6-13-14(7-10)24-9-23-13/h1-7H,8-9H2,(H2,18,21)

>  <InChIKey>
GPDFQUXFCMBYJK-UHFFFAOYSA-N

>  <SMILES>
c1ccc2c(c1)c3nc(nn3c(n2)Cc4ccc5c(c4)OCO5)N

$$$$
