1N5R_PRM_A_951


 35 38  0  0  0  0  0  0  0  0999 V2000
   41.8775   25.8855    5.9454 C   0  0  0  0  0  0  0  0  0  0  0  0
   40.5438   25.4321    5.7781 C   0  0  0  0  0  0  0  0  0  0  0  0
   39.5740   25.8755    6.7936 C   0  0  0  0  0  0  0  0  0  0  0  0
   40.0815   26.6929    7.8757 C   0  0  0  0  0  0  0  0  0  0  0  0
   41.4397   27.1034    7.9954 C   0  0  0  0  0  0  0  0  0  0  0  0
   42.3445   26.6981    7.0177 C   0  0  0  0  0  0  0  0  0  0  0  0
   38.2038   25.4178    6.6899 C   0  0  0  0  0  0  0  0  0  0  0  0
   37.7759   24.4245    5.7352 N   0  0  0  0  0  0  0  0  0  0  0  0
   38.7683   23.9020    4.8795 C   0  0  0  0  0  0  0  0  0  0  0  0
   40.1562   24.4139    4.8563 C   0  0  0  0  0  0  0  0  0  0  0  0
   38.4902   22.8051    3.9883 C   0  0  0  0  0  0  0  0  0  0  0  0
   39.4281   22.1966    3.1282 C   0  0  0  0  0  0  0  0  0  0  0  0
   40.7470   22.6830    3.1187 C   0  0  0  0  0  0  0  0  0  0  0  0
   41.0742   23.7767    3.9805 C   0  0  0  0  0  0  0  0  0  0  0  0
   41.8967   27.8985    9.0690 N   0  0  0  0  0  0  0  0  0  0  0  0
   39.0789   21.1358    2.2815 N   0  0  0  0  0  0  0  0  0  0  0  0
   41.2674   28.1918    9.7669 H   0  0  0  0  0  0  0  0  0  0  0  0
   42.8446   28.1594    9.1196 H   0  0  0  0  0  0  0  0  0  0  0  0
   38.1575   20.7888    2.2815 H   0  0  0  0  0  0  0  0  0  0  0  0
   39.7548   20.7377    1.6867 H   0  0  0  0  0  0  0  0  0  0  0  0
   37.1675   26.0149    7.5976 C   0  0  0  0  0  0  0  0  0  0  0  0
   36.9504   25.4274    8.8937 C   0  0  0  0  0  0  0  0  0  0  0  0
   35.9995   26.0059    9.7867 C   0  0  0  0  0  0  0  0  0  0  0  0
   35.2688   27.1540    9.3966 C   0  0  0  0  0  0  0  0  0  0  0  0
   35.4850   27.7283    8.1119 C   0  0  0  0  0  0  0  0  0  0  0  0
   36.4317   27.1594    7.2143 C   0  0  0  0  0  0  0  0  0  0  0  0
   36.3177   23.9629    5.6034 C   0  0  0  0  0  0  0  0  0  0  0  0
   35.8440   22.7824    6.4457 C   0  0  0  0  0  0  0  0  0  0  0  0
   34.3723   22.8878    6.8430 C   0  0  0  0  0  0  0  0  0  0  0  0
   33.5888   21.7729    7.5665 N   0  0  0  0  0  0  0  0  0  0  0  0
   33.9454   20.4134    7.0174 C   0  0  0  0  0  0  0  0  0  0  0  0
   33.9511   21.7756    9.0481 C   0  0  0  0  0  0  0  0  0  0  0  0
   34.3174   23.0233    9.8602 C   0  0  0  0  0  0  0  0  0  0  0  0
   32.0892   22.0076    7.4253 C   0  0  0  0  0  0  0  0  0  0  0  0
   31.0991   22.2084    8.5786 C   0  0  0  0  0  0  0  0  0  0  0  0
  1  2  2  0  0  0
  1  6  1  0  0  0
  2  3  1  0  0  0
  2 10  1  0  0  0
  3  4  2  0  0  0
  3  7  1  0  0  0
  4  5  1  0  0  0
  5  6  2  0  0  0
  5 15  1  0  0  0
  7  8  2  0  0  0
  7 21  1  0  0  0
  8  9  1  0  0  0
  8 27  1  0  0  0
  9 10  2  0  0  0
  9 11  1  0  0  0
 10 14  1  0  0  0
 11 12  2  0  0  0
 12 13  1  0  0  0
 12 16  1  0  0  0
 13 14  2  0  0  0
 21 22  2  0  0  0
 21 26  1  0  0  0
 22 23  1  0  0  0
 23 24  2  0  0  0
 24 25  1  0  0  0
 25 26  2  0  0  0
 27 28  1  0  0  0
 28 29  1  0  0  0
 29 30  1  0  0  0
 30 32  1  0  0  0
 30 31  1  0  0  0
 30 34  1  0  0  0
 32 33  1  0  0  0
 34 35  1  0  0  0
 15 17  1  0  0  0
 15 18  1  0  0  0
 16 19  1  0  0  0
 16 20  1  0  0  0
M  CHG 1   8   1
M  CHG 1  30   1
M  END
> <minimizedAffinity>
-8.00424

$$$$
1N5R_PRM_A_951


 35 38  0  0  0  0  0  0  0  0999 V2000
   34.5414   21.3787    6.8545 C   0  0  0  0  0  0  0  0  0  0  0  0
   35.2434   22.5769    7.1441 C   0  0  0  0  0  0  0  0  0  0  0  0
   36.4358   22.8465    6.3232 C   0  0  0  0  0  0  0  0  0  0  0  0
   36.7933   21.8507    5.3347 C   0  0  0  0  0  0  0  0  0  0  0  0
   36.0529   20.6568    5.1018 C   0  0  0  0  0  0  0  0  0  0  0  0
   34.9139   20.4219    5.8675 C   0  0  0  0  0  0  0  0  0  0  0  0
   37.2091   24.0405    6.5955 C   0  0  0  0  0  0  0  0  0  0  0  0
   36.9626   24.8960    7.7305 N   0  0  0  0  0  0  0  0  0  0  0  0
   35.9089   24.5184    8.5892 C   0  0  0  0  0  0  0  0  0  0  0  0
   35.0092   23.3800    8.3003 C   0  0  0  0  0  0  0  0  0  0  0  0
   35.6644   25.2114    9.8281 C   0  0  0  0  0  0  0  0  0  0  0  0
   34.6609   24.8799   10.7624 C   0  0  0  0  0  0  0  0  0  0  0  0
   33.8160   23.7913   10.4846 C   0  0  0  0  0  0  0  0  0  0  0  0
   34.0122   23.0731    9.2632 C   0  0  0  0  0  0  0  0  0  0  0  0
   36.4368   19.7075    4.1298 N   0  0  0  0  0  0  0  0  0  0  0  0
   34.4789   25.6091   11.9453 N   0  0  0  0  0  0  0  0  0  0  0  0
   37.2400   19.8613    3.5818 H   0  0  0  0  0  0  0  0  0  0  0  0
   35.9013   18.8916    4.0002 H   0  0  0  0  0  0  0  0  0  0  0  0
   35.0659   26.3730   12.1479 H   0  0  0  0  0  0  0  0  0  0  0  0
   33.7639   25.3574   12.5736 H   0  0  0  0  0  0  0  0  0  0  0  0
   38.3058   24.4283    5.6460 C   0  0  0  0  0  0  0  0  0  0  0  0
   39.6001   23.8136    5.7834 C   0  0  0  0  0  0  0  0  0  0  0  0
   40.6428   24.1382    4.8648 C   0  0  0  0  0  0  0  0  0  0  0  0
   40.4049   25.0659    3.8222 C   0  0  0  0  0  0  0  0  0  0  0  0
   39.1237   25.6735    3.6938 C   0  0  0  0  0  0  0  0  0  0  0  0
   38.0769   25.3559    4.6042 C   0  0  0  0  0  0  0  0  0  0  0  0
   37.7610   26.1790    8.0014 C   0  0  0  0  0  0  0  0  0  0  0  0
   38.9831   26.1030    8.9115 C   0  0  0  0  0  0  0  0  0  0  0  0
   39.5321   27.4790    9.2860 C   0  0  0  0  0  0  0  0  0  0  0  0
   41.0139   27.8865    9.1490 N   0  0  0  0  0  0  0  0  0  0  0  0
   41.1443   29.2909    8.6129 C   0  0  0  0  0  0  0  0  0  0  0  0
   41.6782   27.8587   10.5216 C   0  0  0  0  0  0  0  0  0  0  0  0
   42.6136   26.7520   11.0222 C   0  0  0  0  0  0  0  0  0  0  0  0
   41.7433   26.9146    8.2285 C   0  0  0  0  0  0  0  0  0  0  0  0
   41.8219   27.0122    6.7005 C   0  0  0  0  0  0  0  0  0  0  0  0
  1  2  2  0  0  0
  1  6  1  0  0  0
  2  3  1  0  0  0
  2 10  1  0  0  0
  3  4  2  0  0  0
  3  7  1  0  0  0
  4  5  1  0  0  0
  5  6  2  0  0  0
  5 15  1  0  0  0
  7  8  2  0  0  0
  7 21  1  0  0  0
  8  9  1  0  0  0
  8 27  1  0  0  0
  9 10  2  0  0  0
  9 11  1  0  0  0
 10 14  1  0  0  0
 11 12  2  0  0  0
 12 13  1  0  0  0
 12 16  1  0  0  0
 13 14  2  0  0  0
 21 22  2  0  0  0
 21 26  1  0  0  0
 22 23  1  0  0  0
 23 24  2  0  0  0
 24 25  1  0  0  0
 25 26  2  0  0  0
 27 28  1  0  0  0
 28 29  1  0  0  0
 29 30  1  0  0  0
 30 32  1  0  0  0
 30 31  1  0  0  0
 30 34  1  0  0  0
 32 33  1  0  0  0
 34 35  1  0  0  0
 15 17  1  0  0  0
 15 18  1  0  0  0
 16 19  1  0  0  0
 16 20  1  0  0  0
M  CHG 1   8   1
M  CHG 1  30   1
M  END
> <minimizedAffinity>
-7.92529

$$$$
1N5R_PRM_A_951


 35 38  0  0  0  0  0  0  0  0999 V2000
   34.6499   21.4836    6.8277 C   0  0  0  0  0  0  0  0  0  0  0  0
   35.3826   22.6837    7.0158 C   0  0  0  0  0  0  0  0  0  0  0  0
   36.5543   22.8736    6.1445 C   0  0  0  0  0  0  0  0  0  0  0  0
   36.8631   21.8071    5.2150 C   0  0  0  0  0  0  0  0  0  0  0  0
   36.0939   20.6159    5.0843 C   0  0  0  0  0  0  0  0  0  0  0  0
   34.9744   20.4559    5.8967 C   0  0  0  0  0  0  0  0  0  0  0  0
   37.3575   24.0669    6.3135 C   0  0  0  0  0  0  0  0  0  0  0  0
   37.1616   25.0008    7.3953 N   0  0  0  0  0  0  0  0  0  0  0  0
   36.1275   24.7029    8.3076 C   0  0  0  0  0  0  0  0  0  0  0  0
   35.1985   23.5666    8.1218 C   0  0  0  0  0  0  0  0  0  0  0  0
   35.9336   25.4816    9.5038 C   0  0  0  0  0  0  0  0  0  0  0  0
   34.9530   25.2336   10.4869 C   0  0  0  0  0  0  0  0  0  0  0  0
   34.0799   24.1465   10.3074 C   0  0  0  0  0  0  0  0  0  0  0  0
   34.2255   23.3449    9.1318 C   0  0  0  0  0  0  0  0  0  0  0  0
   36.4304   19.5964    4.1674 N   0  0  0  0  0  0  0  0  0  0  0  0
   34.8205   26.0434   11.6231 N   0  0  0  0  0  0  0  0  0  0  0  0
   37.2194   19.6969    3.5871 H   0  0  0  0  0  0  0  0  0  0  0  0
   35.8761   18.7849    4.1083 H   0  0  0  0  0  0  0  0  0  0  0  0
   35.4275   26.8068   11.7570 H   0  0  0  0  0  0  0  0  0  0  0  0
   34.1204   25.8487   12.2873 H   0  0  0  0  0  0  0  0  0  0  0  0
   38.4319   24.3681    5.3087 C   0  0  0  0  0  0  0  0  0  0  0  0
   38.0837   25.0699    4.1012 C   0  0  0  0  0  0  0  0  0  0  0  0
   39.0979   25.4018    3.1538 C   0  0  0  0  0  0  0  0  0  0  0  0
   40.4437   25.0383    3.4003 C   0  0  0  0  0  0  0  0  0  0  0  0
   40.7814   24.3409    4.5946 C   0  0  0  0  0  0  0  0  0  0  0  0
   39.7775   24.0059    5.5462 C   0  0  0  0  0  0  0  0  0  0  0  0
   37.9915   26.2823    7.5562 C   0  0  0  0  0  0  0  0  0  0  0  0
   37.6367   27.4968    6.7038 C   0  0  0  0  0  0  0  0  0  0  0  0
   36.1431   27.5911    6.3955 C   0  0  0  0  0  0  0  0  0  0  0  0
   35.2685   28.8207    6.7174 N   0  0  0  0  0  0  0  0  0  0  0  0
   36.0744   30.0945    6.6474 C   0  0  0  0  0  0  0  0  0  0  0  0
   34.1488   28.9323    5.6878 C   0  0  0  0  0  0  0  0  0  0  0  0
   34.3574   29.0912    4.1773 C   0  0  0  0  0  0  0  0  0  0  0  0
   34.6510   28.6781    8.1038 C   0  0  0  0  0  0  0  0  0  0  0  0
   35.3217   29.0583    9.4291 C   0  0  0  0  0  0  0  0  0  0  0  0
  1  2  2  0  0  0
  1  6  1  0  0  0
  2  3  1  0  0  0
  2 10  1  0  0  0
  3  4  2  0  0  0
  3  7  1  0  0  0
  4  5  1  0  0  0
  5  6  2  0  0  0
  5 15  1  0  0  0
  7  8  2  0  0  0
  7 21  1  0  0  0
  8  9  1  0  0  0
  8 27  1  0  0  0
  9 10  2  0  0  0
  9 11  1  0  0  0
 10 14  1  0  0  0
 11 12  2  0  0  0
 12 13  1  0  0  0
 12 16  1  0  0  0
 13 14  2  0  0  0
 21 22  2  0  0  0
 21 26  1  0  0  0
 22 23  1  0  0  0
 23 24  2  0  0  0
 24 25  1  0  0  0
 25 26  2  0  0  0
 27 28  1  0  0  0
 28 29  1  0  0  0
 29 30  1  0  0  0
 30 32  1  0  0  0
 30 31  1  0  0  0
 30 34  1  0  0  0
 32 33  1  0  0  0
 34 35  1  0  0  0
 15 17  1  0  0  0
 15 18  1  0  0  0
 16 19  1  0  0  0
 16 20  1  0  0  0
M  CHG 1   8   1
M  CHG 1  30   1
M  END
> <minimizedAffinity>
-7.85687

$$$$
1N5R_PRM_A_951


 35 38  0  0  0  0  0  0  0  0999 V2000
   38.1839   22.7507    4.6858 C   0  0  0  0  0  0  0  0  0  0  0  0
   37.6360   23.5511    5.7209 C   0  0  0  0  0  0  0  0  0  0  0  0
   38.5464   24.5317    6.3356 C   0  0  0  0  0  0  0  0  0  0  0  0
   39.9113   24.5556    5.8528 C   0  0  0  0  0  0  0  0  0  0  0  0
   40.4054   23.7125    4.8171 C   0  0  0  0  0  0  0  0  0  0  0  0
   39.5307   22.8044    4.2262 C   0  0  0  0  0  0  0  0  0  0  0  0
   38.0492   25.3550    7.4186 C   0  0  0  0  0  0  0  0  0  0  0  0
   36.7586   25.1546    8.0311 N   0  0  0  0  0  0  0  0  0  0  0  0
   35.9741   24.0992    7.5205 C   0  0  0  0  0  0  0  0  0  0  0  0
   36.3749   23.3017    6.3406 C   0  0  0  0  0  0  0  0  0  0  0  0
   34.7352   23.7135    8.1460 C   0  0  0  0  0  0  0  0  0  0  0  0
   33.9082   22.6501    7.7277 C   0  0  0  0  0  0  0  0  0  0  0  0
   34.3006   21.8914    6.6111 C   0  0  0  0  0  0  0  0  0  0  0  0
   35.5202   22.2378    5.9488 C   0  0  0  0  0  0  0  0  0  0  0  0
   41.7458   23.7637    4.3765 N   0  0  0  0  0  0  0  0  0  0  0  0
   32.7095   22.3402    8.3843 N   0  0  0  0  0  0  0  0  0  0  0  0
   42.3745   24.4012    4.7858 H   0  0  0  0  0  0  0  0  0  0  0  0
   42.0517   23.1619    3.6599 H   0  0  0  0  0  0  0  0  0  0  0  0
   32.4268   22.8661    9.1671 H   0  0  0  0  0  0  0  0  0  0  0  0
   32.1501   21.5965    8.0629 H   0  0  0  0  0  0  0  0  0  0  0  0
   38.8986   26.4873    7.9196 C   0  0  0  0  0  0  0  0  0  0  0  0
   38.9267   27.7216    7.1794 C   0  0  0  0  0  0  0  0  0  0  0  0
   39.6951   28.8230    7.6620 C   0  0  0  0  0  0  0  0  0  0  0  0
   40.4309   28.7002    8.8651 C   0  0  0  0  0  0  0  0  0  0  0  0
   40.4023   27.4756    9.5908 C   0  0  0  0  0  0  0  0  0  0  0  0
   39.6385   26.3715    9.1185 C   0  0  0  0  0  0  0  0  0  0  0  0
   36.2182   26.0474    9.1570 C   0  0  0  0  0  0  0  0  0  0  0  0
   35.5412   27.3636    8.7874 C   0  0  0  0  0  0  0  0  0  0  0  0
   35.0760   27.4050    7.3325 C   0  0  0  0  0  0  0  0  0  0  0  0
   35.1492   28.6582    6.4354 N   0  0  0  0  0  0  0  0  0  0  0  0
   35.7516   29.8248    7.1790 C   0  0  0  0  0  0  0  0  0  0  0  0
   36.0440   28.3722    5.2338 C   0  0  0  0  0  0  0  0  0  0  0  0
   36.3394   26.9770    4.6712 C   0  0  0  0  0  0  0  0  0  0  0  0
   33.7574   29.0294    5.9363 C   0  0  0  0  0  0  0  0  0  0  0  0
   33.4253   29.6265    4.5638 C   0  0  0  0  0  0  0  0  0  0  0  0
  1  2  2  0  0  0
  1  6  1  0  0  0
  2  3  1  0  0  0
  2 10  1  0  0  0
  3  4  2  0  0  0
  3  7  1  0  0  0
  4  5  1  0  0  0
  5  6  2  0  0  0
  5 15  1  0  0  0
  7  8  2  0  0  0
  7 21  1  0  0  0
  8  9  1  0  0  0
  8 27  1  0  0  0
  9 10  2  0  0  0
  9 11  1  0  0  0
 10 14  1  0  0  0
 11 12  2  0  0  0
 12 13  1  0  0  0
 12 16  1  0  0  0
 13 14  2  0  0  0
 21 22  2  0  0  0
 21 26  1  0  0  0
 22 23  1  0  0  0
 23 24  2  0  0  0
 24 25  1  0  0  0
 25 26  2  0  0  0
 27 28  1  0  0  0
 28 29  1  0  0  0
 29 30  1  0  0  0
 30 32  1  0  0  0
 30 31  1  0  0  0
 30 34  1  0  0  0
 32 33  1  0  0  0
 34 35  1  0  0  0
 15 17  1  0  0  0
 15 18  1  0  0  0
 16 19  1  0  0  0
 16 20  1  0  0  0
M  CHG 1   8   1
M  CHG 1  30   1
M  END
> <minimizedAffinity>
-7.74715

$$$$
1N5R_PRM_A_951


 35 38  0  0  0  0  0  0  0  0999 V2000
   38.3493   22.6419    4.4462 C   0  0  0  0  0  0  0  0  0  0  0  0
   37.7422   23.4157    5.4685 C   0  0  0  0  0  0  0  0  0  0  0  0
   38.6010   24.4170    6.1227 C   0  0  0  0  0  0  0  0  0  0  0  0
   39.9803   24.4862    5.6878 C   0  0  0  0  0  0  0  0  0  0  0  0
   40.5350   23.6682    4.6626 C   0  0  0  0  0  0  0  0  0  0  0  0
   39.7089   22.7401    4.0340 C   0  0  0  0  0  0  0  0  0  0  0  0
   38.0424   25.2147    7.1949 C   0  0  0  0  0  0  0  0  0  0  0  0
   36.7381   24.9701    7.7605 N   0  0  0  0  0  0  0  0  0  0  0  0
   36.0037   23.8967    7.2141 C   0  0  0  0  0  0  0  0  0  0  0  0
   36.4686   23.1228    6.0420 C   0  0  0  0  0  0  0  0  0  0  0  0
   34.7562   23.4682    7.7929 C   0  0  0  0  0  0  0  0  0  0  0  0
   33.9765   22.3847    7.3371 C   0  0  0  0  0  0  0  0  0  0  0  0
   34.4298   21.6489    6.2283 C   0  0  0  0  0  0  0  0  0  0  0  0
   35.6604   22.0378    5.6117 C   0  0  0  0  0  0  0  0  0  0  0  0
   41.8876   23.7636    4.2692 N   0  0  0  0  0  0  0  0  0  0  0  0
   32.7658   22.0329    7.9491 N   0  0  0  0  0  0  0  0  0  0  0  0
   42.4824   24.4155    4.7055 H   0  0  0  0  0  0  0  0  0  0  0  0
   42.2359   23.1780    3.5585 H   0  0  0  0  0  0  0  0  0  0  0  0
   32.4407   22.5426    8.7261 H   0  0  0  0  0  0  0  0  0  0  0  0
   32.2405   21.2760    7.6021 H   0  0  0  0  0  0  0  0  0  0  0  0
   38.8395   26.3670    7.7347 C   0  0  0  0  0  0  0  0  0  0  0  0
   38.8778   27.5999    6.9927 C   0  0  0  0  0  0  0  0  0  0  0  0
   39.5957   28.7194    7.5101 C   0  0  0  0  0  0  0  0  0  0  0  0
   40.2717   28.6159    8.7496 C   0  0  0  0  0  0  0  0  0  0  0  0
   40.2334   27.3927    9.4770 C   0  0  0  0  0  0  0  0  0  0  0  0
   39.5196   26.2706    8.9702 C   0  0  0  0  0  0  0  0  0  0  0  0
   36.1326   25.8355    8.8747 C   0  0  0  0  0  0  0  0  0  0  0  0
   35.4738   27.1591    8.4981 C   0  0  0  0  0  0  0  0  0  0  0  0
   35.0726   27.2258    7.0252 C   0  0  0  0  0  0  0  0  0  0  0  0
   35.0897   28.5171    6.1809 N   0  0  0  0  0  0  0  0  0  0  0  0
   33.6885   28.9716    5.8539 C   0  0  0  0  0  0  0  0  0  0  0  0
   35.7583   29.6350    6.9743 C   0  0  0  0  0  0  0  0  0  0  0  0
   36.6780   30.7066    6.3775 C   0  0  0  0  0  0  0  0  0  0  0  0
   35.8716   28.2919    4.8917 C   0  0  0  0  0  0  0  0  0  0  0  0
   36.4131   26.9469    4.3932 C   0  0  0  0  0  0  0  0  0  0  0  0
  1  2  2  0  0  0
  1  6  1  0  0  0
  2  3  1  0  0  0
  2 10  1  0  0  0
  3  4  2  0  0  0
  3  7  1  0  0  0
  4  5  1  0  0  0
  5  6  2  0  0  0
  5 15  1  0  0  0
  7  8  2  0  0  0
  7 21  1  0  0  0
  8  9  1  0  0  0
  8 27  1  0  0  0
  9 10  2  0  0  0
  9 11  1  0  0  0
 10 14  1  0  0  0
 11 12  2  0  0  0
 12 13  1  0  0  0
 12 16  1  0  0  0
 13 14  2  0  0  0
 21 22  2  0  0  0
 21 26  1  0  0  0
 22 23  1  0  0  0
 23 24  2  0  0  0
 24 25  1  0  0  0
 25 26  2  0  0  0
 27 28  1  0  0  0
 28 29  1  0  0  0
 29 30  1  0  0  0
 30 32  1  0  0  0
 30 31  1  0  0  0
 30 34  1  0  0  0
 32 33  1  0  0  0
 34 35  1  0  0  0
 15 17  1  0  0  0
 15 18  1  0  0  0
 16 19  1  0  0  0
 16 20  1  0  0  0
M  CHG 1   8   1
M  CHG 1  30   1
M  END
> <minimizedAffinity>
-7.59303

$$$$
1N5R_PRM_A_951


 35 38  0  0  0  0  0  0  0  0999 V2000
   37.5560   25.4754    9.4291 C   0  0  0  0  0  0  0  0  0  0  0  0
   38.5031   25.6983    8.3967 C   0  0  0  0  0  0  0  0  0  0  0  0
   38.2610   24.9904    7.1284 C   0  0  0  0  0  0  0  0  0  0  0  0
   37.1101   24.1135    7.0733 C   0  0  0  0  0  0  0  0  0  0  0  0
   36.2023   23.9208    8.1532 C   0  0  0  0  0  0  0  0  0  0  0  0
   36.4268   24.6122    9.3408 C   0  0  0  0  0  0  0  0  0  0  0  0
   39.2127   25.1567    6.0493 C   0  0  0  0  0  0  0  0  0  0  0  0
   40.4664   25.8529    6.2059 N   0  0  0  0  0  0  0  0  0  0  0  0
   40.7388   26.3839    7.4842 C   0  0  0  0  0  0  0  0  0  0  0  0
   39.7574   26.3507    8.5909 C   0  0  0  0  0  0  0  0  0  0  0  0
   42.0166   26.9702    7.7975 C   0  0  0  0  0  0  0  0  0  0  0  0
   42.3881   27.4895    9.0553 C   0  0  0  0  0  0  0  0  0  0  0  0
   41.4530   27.4460   10.1041 C   0  0  0  0  0  0  0  0  0  0  0  0
   40.1655   26.8798    9.8435 C   0  0  0  0  0  0  0  0  0  0  0  0
   35.0924   23.0530    8.0612 N   0  0  0  0  0  0  0  0  0  0  0  0
   43.6510   28.0534    9.2813 N   0  0  0  0  0  0  0  0  0  0  0  0
   34.9222   22.5581    7.2273 H   0  0  0  0  0  0  0  0  0  0  0  0
   34.4886   22.9427    8.8310 H   0  0  0  0  0  0  0  0  0  0  0  0
   44.3121   28.0881    8.5526 H   0  0  0  0  0  0  0  0  0  0  0  0
   43.8771   28.4148   10.1687 H   0  0  0  0  0  0  0  0  0  0  0  0
   38.8789   24.6029    4.6941 C   0  0  0  0  0  0  0  0  0  0  0  0
   39.1803   23.2248    4.4079 C   0  0  0  0  0  0  0  0  0  0  0  0
   38.8327   22.6691    3.1403 C   0  0  0  0  0  0  0  0  0  0  0  0
   38.1954   23.4736    2.1651 C   0  0  0  0  0  0  0  0  0  0  0  0
   37.9034   24.8370    2.4527 C   0  0  0  0  0  0  0  0  0  0  0  0
   38.2452   25.4005    3.7141 C   0  0  0  0  0  0  0  0  0  0  0  0
   41.4605   26.0573    5.0541 C   0  0  0  0  0  0  0  0  0  0  0  0
   42.4779   24.9589    4.7608 C   0  0  0  0  0  0  0  0  0  0  0  0
   43.2695   25.2086    3.4779 C   0  0  0  0  0  0  0  0  0  0  0  0
   43.1088   24.3800    2.1863 N   0  0  0  0  0  0  0  0  0  0  0  0
   44.0423   24.8695    1.1065 C   0  0  0  0  0  0  0  0  0  0  0  0
   43.4622   22.9235    2.4689 C   0  0  0  0  0  0  0  0  0  0  0  0
   42.4810   21.7488    2.3812 C   0  0  0  0  0  0  0  0  0  0  0  0
   41.6684   24.4508    1.6922 C   0  0  0  0  0  0  0  0  0  0  0  0
   41.2266   24.6259    0.2345 C   0  0  0  0  0  0  0  0  0  0  0  0
  1  2  2  0  0  0
  1  6  1  0  0  0
  2  3  1  0  0  0
  2 10  1  0  0  0
  3  4  2  0  0  0
  3  7  1  0  0  0
  4  5  1  0  0  0
  5  6  2  0  0  0
  5 15  1  0  0  0
  7  8  2  0  0  0
  7 21  1  0  0  0
  8  9  1  0  0  0
  8 27  1  0  0  0
  9 10  2  0  0  0
  9 11  1  0  0  0
 10 14  1  0  0  0
 11 12  2  0  0  0
 12 13  1  0  0  0
 12 16  1  0  0  0
 13 14  2  0  0  0
 21 22  2  0  0  0
 21 26  1  0  0  0
 22 23  1  0  0  0
 23 24  2  0  0  0
 24 25  1  0  0  0
 25 26  2  0  0  0
 27 28  1  0  0  0
 28 29  1  0  0  0
 29 30  1  0  0  0
 30 32  1  0  0  0
 30 31  1  0  0  0
 30 34  1  0  0  0
 32 33  1  0  0  0
 34 35  1  0  0  0
 15 17  1  0  0  0
 15 18  1  0  0  0
 16 19  1  0  0  0
 16 20  1  0  0  0
M  CHG 1   8   1
M  CHG 1  30   1
M  END
> <minimizedAffinity>
-7.47382

$$$$
1N5R_PRM_A_951


 35 38  0  0  0  0  0  0  0  0999 V2000
   35.1585   25.9315    9.7237 C   0  0  0  0  0  0  0  0  0  0  0  0
   35.5960   25.2982    8.5321 C   0  0  0  0  0  0  0  0  0  0  0  0
   36.1876   26.1761    7.5086 C   0  0  0  0  0  0  0  0  0  0  0  0
   36.2291   27.5935    7.8014 C   0  0  0  0  0  0  0  0  0  0  0  0
   35.7583   28.1710    9.0148 C   0  0  0  0  0  0  0  0  0  0  0  0
   35.2215   27.3299    9.9860 C   0  0  0  0  0  0  0  0  0  0  0  0
   36.6237   25.5878    6.2590 C   0  0  0  0  0  0  0  0  0  0  0  0
   36.3642   24.2142    5.9028 N   0  0  0  0  0  0  0  0  0  0  0  0
   35.6522   23.4413    6.8440 C   0  0  0  0  0  0  0  0  0  0  0  0
   35.2851   23.9496    8.1840 C   0  0  0  0  0  0  0  0  0  0  0  0
   35.2102   22.1049    6.5381 C   0  0  0  0  0  0  0  0  0  0  0  0
   34.4628   21.2766    7.4014 C   0  0  0  0  0  0  0  0  0  0  0  0
   34.1103   21.7704    8.6695 C   0  0  0  0  0  0  0  0  0  0  0  0
   34.5310   23.0903    9.0259 C   0  0  0  0  0  0  0  0  0  0  0  0
   35.8129   29.5602    9.2612 N   0  0  0  0  0  0  0  0  0  0  0  0
   34.0757   19.9806    7.0347 N   0  0  0  0  0  0  0  0  0  0  0  0
   36.1899   30.1660    8.5830 H   0  0  0  0  0  0  0  0  0  0  0  0
   35.4739   29.9230   10.1113 H   0  0  0  0  0  0  0  0  0  0  0  0
   34.3182   19.6266    6.1487 H   0  0  0  0  0  0  0  0  0  0  0  0
   33.5612   19.4242    7.6632 H   0  0  0  0  0  0  0  0  0  0  0  0
   37.4033   26.4311    5.2917 C   0  0  0  0  0  0  0  0  0  0  0  0
   36.6933   27.1957    4.3000 C   0  0  0  0  0  0  0  0  0  0  0  0
   37.4140   28.0353    3.3989 C   0  0  0  0  0  0  0  0  0  0  0  0
   38.8253   28.1133    3.4787 C   0  0  0  0  0  0  0  0  0  0  0  0
   39.5222   27.3518    4.4591 C   0  0  0  0  0  0  0  0  0  0  0  0
   38.8128   26.5120    5.3630 C   0  0  0  0  0  0  0  0  0  0  0  0
   36.8544   23.5816    4.5927 C   0  0  0  0  0  0  0  0  0  0  0  0
   38.1628   22.7971    4.6026 C   0  0  0  0  0  0  0  0  0  0  0  0
   38.7733   22.6412    3.2105 C   0  0  0  0  0  0  0  0  0  0  0  0
   40.0656   23.3459    2.7481 N   0  0  0  0  0  0  0  0  0  0  0  0
   40.9161   23.7505    3.9270 C   0  0  0  0  0  0  0  0  0  0  0  0
   40.8918   22.3866    1.8975 C   0  0  0  0  0  0  0  0  0  0  0  0
   41.8051   22.8042    0.7391 C   0  0  0  0  0  0  0  0  0  0  0  0
   39.7242   24.5753    1.9138 C   0  0  0  0  0  0  0  0  0  0  0  0
   38.3201   24.9904    1.4590 C   0  0  0  0  0  0  0  0  0  0  0  0
  1  2  2  0  0  0
  1  6  1  0  0  0
  2  3  1  0  0  0
  2 10  1  0  0  0
  3  4  2  0  0  0
  3  7  1  0  0  0
  4  5  1  0  0  0
  5  6  2  0  0  0
  5 15  1  0  0  0
  7  8  2  0  0  0
  7 21  1  0  0  0
  8  9  1  0  0  0
  8 27  1  0  0  0
  9 10  2  0  0  0
  9 11  1  0  0  0
 10 14  1  0  0  0
 11 12  2  0  0  0
 12 13  1  0  0  0
 12 16  1  0  0  0
 13 14  2  0  0  0
 21 22  2  0  0  0
 21 26  1  0  0  0
 22 23  1  0  0  0
 23 24  2  0  0  0
 24 25  1  0  0  0
 25 26  2  0  0  0
 27 28  1  0  0  0
 28 29  1  0  0  0
 29 30  1  0  0  0
 30 32  1  0  0  0
 30 31  1  0  0  0
 30 34  1  0  0  0
 32 33  1  0  0  0
 34 35  1  0  0  0
 15 17  1  0  0  0
 15 18  1  0  0  0
 16 19  1  0  0  0
 16 20  1  0  0  0
M  CHG 1   8   1
M  CHG 1  30   1
M  END
> <minimizedAffinity>
-7.39950

$$$$
1N5R_PRM_A_951


 35 38  0  0  0  0  0  0  0  0999 V2000
   36.8207   22.7429    5.7016 C   0  0  0  0  0  0  0  0  0  0  0  0
   37.1576   23.8332    6.5443 C   0  0  0  0  0  0  0  0  0  0  0  0
   38.4573   24.4760    6.2877 C   0  0  0  0  0  0  0  0  0  0  0  0
   39.2739   23.9117    5.2335 C   0  0  0  0  0  0  0  0  0  0  0  0
   38.8839   22.8027    4.4300 C   0  0  0  0  0  0  0  0  0  0  0  0
   37.6432   22.2161    4.6652 C   0  0  0  0  0  0  0  0  0  0  0  0
   38.8667   25.5750    7.1376 C   0  0  0  0  0  0  0  0  0  0  0  0
   38.1399   25.9689    8.3198 N   0  0  0  0  0  0  0  0  0  0  0  0
   36.9806   25.2253    8.6256 C   0  0  0  0  0  0  0  0  0  0  0  0
   36.4465   24.1721    7.7344 C   0  0  0  0  0  0  0  0  0  0  0  0
   36.2580   25.4321    9.8543 C   0  0  0  0  0  0  0  0  0  0  0  0
   35.1150   24.7109   10.2582 C   0  0  0  0  0  0  0  0  0  0  0  0
   34.6191   23.7056    9.4098 C   0  0  0  0  0  0  0  0  0  0  0  0
   35.2963   23.4648    8.1732 C   0  0  0  0  0  0  0  0  0  0  0  0
   39.7113   22.2788    3.4130 N   0  0  0  0  0  0  0  0  0  0  0  0
   34.4598   24.9763   11.4683 N   0  0  0  0  0  0  0  0  0  0  0  0
   40.5910   22.6842    3.2364 H   0  0  0  0  0  0  0  0  0  0  0  0
   39.4086   21.5081    2.8803 H   0  0  0  0  0  0  0  0  0  0  0  0
   34.8001   25.6785   12.0686 H   0  0  0  0  0  0  0  0  0  0  0  0
   33.6592   24.4606   11.7181 H   0  0  0  0  0  0  0  0  0  0  0  0
   40.0903   26.3629    6.7677 C   0  0  0  0  0  0  0  0  0  0  0  0
   41.2715   26.2440    7.5817 C   0  0  0  0  0  0  0  0  0  0  0  0
   42.4571   26.9525    7.2226 C   0  0  0  0  0  0  0  0  0  0  0  0
   42.4696   27.7734    6.0693 C   0  0  0  0  0  0  0  0  0  0  0  0
   41.2970   27.8900    5.2704 C   0  0  0  0  0  0  0  0  0  0  0  0
   40.1099   27.1870    5.6194 C   0  0  0  0  0  0  0  0  0  0  0  0
   38.5556   27.1540    9.2026 C   0  0  0  0  0  0  0  0  0  0  0  0
   38.6798   28.5344    8.5649 C   0  0  0  0  0  0  0  0  0  0  0  0
   37.3998   29.3608    8.6818 C   0  0  0  0  0  0  0  0  0  0  0  0
   36.3138   29.4342    7.5883 N   0  0  0  0  0  0  0  0  0  0  0  0
   36.0977   30.8558    7.1310 C   0  0  0  0  0  0  0  0  0  0  0  0
   36.7596   28.6270    6.3735 C   0  0  0  0  0  0  0  0  0  0  0  0
   36.0159   27.4131    5.8047 C   0  0  0  0  0  0  0  0  0  0  0  0
   35.0028   28.8567    8.1098 C   0  0  0  0  0  0  0  0  0  0  0  0
   34.6849   28.5296    9.5736 C   0  0  0  0  0  0  0  0  0  0  0  0
  1  2  2  0  0  0
  1  6  1  0  0  0
  2  3  1  0  0  0
  2 10  1  0  0  0
  3  4  2  0  0  0
  3  7  1  0  0  0
  4  5  1  0  0  0
  5  6  2  0  0  0
  5 15  1  0  0  0
  7  8  2  0  0  0
  7 21  1  0  0  0
  8  9  1  0  0  0
  8 27  1  0  0  0
  9 10  2  0  0  0
  9 11  1  0  0  0
 10 14  1  0  0  0
 11 12  2  0  0  0
 12 13  1  0  0  0
 12 16  1  0  0  0
 13 14  2  0  0  0
 21 22  2  0  0  0
 21 26  1  0  0  0
 22 23  1  0  0  0
 23 24  2  0  0  0
 24 25  1  0  0  0
 25 26  2  0  0  0
 27 28  1  0  0  0
 28 29  1  0  0  0
 29 30  1  0  0  0
 30 32  1  0  0  0
 30 31  1  0  0  0
 30 34  1  0  0  0
 32 33  1  0  0  0
 34 35  1  0  0  0
 15 17  1  0  0  0
 15 18  1  0  0  0
 16 19  1  0  0  0
 16 20  1  0  0  0
M  CHG 1   8   1
M  CHG 1  30   1
M  END
> <minimizedAffinity>
-7.32960

$$$$
1N5R_PRM_A_951


 35 38  0  0  0  0  0  0  0  0999 V2000
   34.5146   23.6808    7.3872 C   0  0  0  0  0  0  0  0  0  0  0  0
   35.5808   24.4765    6.8950 C   0  0  0  0  0  0  0  0  0  0  0  0
   36.5308   23.8046    5.9926 C   0  0  0  0  0  0  0  0  0  0  0  0
   36.3064   22.3986    5.7292 C   0  0  0  0  0  0  0  0  0  0  0  0
   35.2215   21.6499    6.2678 C   0  0  0  0  0  0  0  0  0  0  0  0
   34.3155   22.2998    7.1018 C   0  0  0  0  0  0  0  0  0  0  0  0
   37.6567   24.5606    5.4840 C   0  0  0  0  0  0  0  0  0  0  0  0
   37.9829   25.8896    5.9403 N   0  0  0  0  0  0  0  0  0  0  0  0
   37.1397   26.4437    6.9263 C   0  0  0  0  0  0  0  0  0  0  0  0
   35.9091   25.7712    7.3977 C   0  0  0  0  0  0  0  0  0  0  0  0
   37.4494   27.6995    7.5603 C   0  0  0  0  0  0  0  0  0  0  0  0
   36.6862   28.3078    8.5787 C   0  0  0  0  0  0  0  0  0  0  0  0
   35.5231   27.6580    9.0273 C   0  0  0  0  0  0  0  0  0  0  0  0
   35.1665   26.4105    8.4251 C   0  0  0  0  0  0  0  0  0  0  0  0
   35.0390   20.2777    5.9897 N   0  0  0  0  0  0  0  0  0  0  0  0
   37.0484   29.5388    9.1422 N   0  0  0  0  0  0  0  0  0  0  0  0
   35.6724   19.8062    5.4017 H   0  0  0  0  0  0  0  0  0  0  0  0
   34.2785   19.7925    6.3838 H   0  0  0  0  0  0  0  0  0  0  0  0
   37.8613   30.0010    8.8342 H   0  0  0  0  0  0  0  0  0  0  0  0
   36.4901   29.9413    9.8461 H   0  0  0  0  0  0  0  0  0  0  0  0
   38.5175   23.9517    4.4150 C   0  0  0  0  0  0  0  0  0  0  0  0
   39.6820   23.1978    4.7994 C   0  0  0  0  0  0  0  0  0  0  0  0
   40.4891   22.5766    3.7998 C   0  0  0  0  0  0  0  0  0  0  0  0
   40.1462   22.7048    2.4323 C   0  0  0  0  0  0  0  0  0  0  0  0
   38.9955   23.4548    2.0580 C   0  0  0  0  0  0  0  0  0  0  0  0
   38.1835   24.0775    3.0472 C   0  0  0  0  0  0  0  0  0  0  0  0
   39.1568   26.7036    5.3781 C   0  0  0  0  0  0  0  0  0  0  0  0
   40.5374   26.5256    6.0025 C   0  0  0  0  0  0  0  0  0  0  0  0
   41.0517   27.7948    6.6803 C   0  0  0  0  0  0  0  0  0  0  0  0
   41.6896   27.8287    8.0847 N   0  0  0  0  0  0  0  0  0  0  0  0
   42.5499   29.0557    8.2619 C   0  0  0  0  0  0  0  0  0  0  0  0
   40.5911   27.8854    9.1413 C   0  0  0  0  0  0  0  0  0  0  0  0
   39.8463   26.6674    9.6999 C   0  0  0  0  0  0  0  0  0  0  0  0
   42.5277   26.5756    8.3117 C   0  0  0  0  0  0  0  0  0  0  0  0
   43.3592   26.2657    9.5620 C   0  0  0  0  0  0  0  0  0  0  0  0
  1  2  2  0  0  0
  1  6  1  0  0  0
  2  3  1  0  0  0
  2 10  1  0  0  0
  3  4  2  0  0  0
  3  7  1  0  0  0
  4  5  1  0  0  0
  5  6  2  0  0  0
  5 15  1  0  0  0
  7  8  2  0  0  0
  7 21  1  0  0  0
  8  9  1  0  0  0
  8 27  1  0  0  0
  9 10  2  0  0  0
  9 11  1  0  0  0
 10 14  1  0  0  0
 11 12  2  0  0  0
 12 13  1  0  0  0
 12 16  1  0  0  0
 13 14  2  0  0  0
 21 22  2  0  0  0
 21 26  1  0  0  0
 22 23  1  0  0  0
 23 24  2  0  0  0
 24 25  1  0  0  0
 25 26  2  0  0  0
 27 28  1  0  0  0
 28 29  1  0  0  0
 29 30  1  0  0  0
 30 32  1  0  0  0
 30 31  1  0  0  0
 30 34  1  0  0  0
 32 33  1  0  0  0
 34 35  1  0  0  0
 15 17  1  0  0  0
 15 18  1  0  0  0
 16 19  1  0  0  0
 16 20  1  0  0  0
M  CHG 1   8   1
M  CHG 1  30   1
M  END
> <minimizedAffinity>
-7.32159

$$$$
1N5R_PRM_A_951


 35 38  0  0  0  0  0  0  0  0999 V2000
   34.6378   21.4810    6.8268 C   0  0  0  0  0  0  0  0  0  0  0  0
   35.3714   22.6755    7.0449 C   0  0  0  0  0  0  0  0  0  0  0  0
   36.5501   22.8806    6.1865 C   0  0  0  0  0  0  0  0  0  0  0  0
   36.8638   21.8327    5.2378 C   0  0  0  0  0  0  0  0  0  0  0  0
   36.0933   20.6461    5.0770 C   0  0  0  0  0  0  0  0  0  0  0  0
   34.9674   20.4719    5.8775 C   0  0  0  0  0  0  0  0  0  0  0  0
   37.3543   24.0686    6.3859 C   0  0  0  0  0  0  0  0  0  0  0  0
   37.1520   24.9807    7.4850 N   0  0  0  0  0  0  0  0  0  0  0  0
   36.1105   24.6664    8.3831 C   0  0  0  0  0  0  0  0  0  0  0  0
   35.1807   23.5361    8.1673 C   0  0  0  0  0  0  0  0  0  0  0  0
   35.9090   25.4209    9.5935 C   0  0  0  0  0  0  0  0  0  0  0  0
   34.9204   25.1551   10.5640 C   0  0  0  0  0  0  0  0  0  0  0  0
   34.0466   24.0737   10.3557 C   0  0  0  0  0  0  0  0  0  0  0  0
   34.1996   23.2959    9.1651 C   0  0  0  0  0  0  0  0  0  0  0  0
   36.4348   19.6447    4.1421 N   0  0  0  0  0  0  0  0  0  0  0  0
   34.7809   25.9418   11.7153 N   0  0  0  0  0  0  0  0  0  0  0  0
   37.2283   19.7554    3.5700 H   0  0  0  0  0  0  0  0  0  0  0  0
   35.8794   18.8357    4.0622 H   0  0  0  0  0  0  0  0  0  0  0  0
   35.3883   26.7010   11.8693 H   0  0  0  0  0  0  0  0  0  0  0  0
   34.0753   25.7351   12.3702 H   0  0  0  0  0  0  0  0  0  0  0  0
   38.4369   24.3879    5.3956 C   0  0  0  0  0  0  0  0  0  0  0  0
   39.7591   23.8607    5.6101 C   0  0  0  0  0  0  0  0  0  0  0  0
   40.7907   24.1186    4.6584 C   0  0  0  0  0  0  0  0  0  0  0  0
   40.5143   24.8946    3.5071 C   0  0  0  0  0  0  0  0  0  0  0  0
   39.2056   25.4165    3.3024 C   0  0  0  0  0  0  0  0  0  0  0  0
   38.1696   25.1643    4.2450 C   0  0  0  0  0  0  0  0  0  0  0  0
   37.9832   26.2568    7.6783 C   0  0  0  0  0  0  0  0  0  0  0  0
   37.4121   27.5842    7.1890 C   0  0  0  0  0  0  0  0  0  0  0  0
   37.3667   28.6511    8.2821 C   0  0  0  0  0  0  0  0  0  0  0  0
   38.2786   29.8952    8.3160 N   0  0  0  0  0  0  0  0  0  0  0  0
   39.2757   29.8080    9.4452 C   0  0  0  0  0  0  0  0  0  0  0  0
   39.0697   29.9818    7.0148 C   0  0  0  0  0  0  0  0  0  0  0  0
   39.0445   31.1725    6.0495 C   0  0  0  0  0  0  0  0  0  0  0  0
   37.4389   31.1584    8.4674 C   0  0  0  0  0  0  0  0  0  0  0  0
   36.0018   31.2233    8.9978 C   0  0  0  0  0  0  0  0  0  0  0  0
  1  2  2  0  0  0
  1  6  1  0  0  0
  2  3  1  0  0  0
  2 10  1  0  0  0
  3  4  2  0  0  0
  3  7  1  0  0  0
  4  5  1  0  0  0
  5  6  2  0  0  0
  5 15  1  0  0  0
  7  8  2  0  0  0
  7 21  1  0  0  0
  8  9  1  0  0  0
  8 27  1  0  0  0
  9 10  2  0  0  0
  9 11  1  0  0  0
 10 14  1  0  0  0
 11 12  2  0  0  0
 12 13  1  0  0  0
 12 16  1  0  0  0
 13 14  2  0  0  0
 21 22  2  0  0  0
 21 26  1  0  0  0
 22 23  1  0  0  0
 23 24  2  0  0  0
 24 25  1  0  0  0
 25 26  2  0  0  0
 27 28  1  0  0  0
 28 29  1  0  0  0
 29 30  1  0  0  0
 30 32  1  0  0  0
 30 31  1  0  0  0
 30 34  1  0  0  0
 32 33  1  0  0  0
 34 35  1  0  0  0
 15 17  1  0  0  0
 15 18  1  0  0  0
 16 19  1  0  0  0
 16 20  1  0  0  0
M  CHG 1   8   1
M  CHG 1  30   1
M  END
> <minimizedAffinity>
-7.15785

$$$$
