6G36_EKH_A_401


 25 27  0  0  0  0  0  0  0  0999 V2000
   10.3861   12.1083   10.2432 Cl  0  0  0  0  0  0  0  0  0  0  0  0
   11.4614   11.7424   11.5530 C   0  0  0  0  0  0  0  0  0  0  0  0
   11.4703   12.3957   12.8100 C   0  0  0  0  0  0  0  0  0  0  0  0
   10.7541   13.4129   13.4839 C   0  0  0  0  0  0  0  0  0  0  0  0
    9.7047   14.0381   12.9321 N   0  0  0  0  0  0  0  0  0  0  0  0
   12.4246   10.7994   11.5244 C   0  0  0  0  0  0  0  0  0  0  0  0
   13.0936   10.8209   12.7295 N   0  0  0  0  0  0  0  0  0  0  0  0
   12.5208   11.7820   13.5236 C   0  0  0  0  0  0  0  0  0  0  0  0
   12.8734   12.0939   14.7742 N   0  0  0  0  0  0  0  0  0  0  0  0
   12.1383   13.0806   15.2988 C   0  0  0  0  0  0  0  0  0  0  0  0
   11.1223   13.7452   14.7419 N   0  0  0  0  0  0  0  0  0  0  0  0
    9.4212   13.8102   12.0172 H   0  0  0  0  0  0  0  0  0  0  0  0
    9.2174   14.7253   13.4416 H   0  0  0  0  0  0  0  0  0  0  0  0
   14.2212    9.9809   13.1191 C   0  0  0  0  0  0  0  0  0  0  0  0
   14.7283    9.3486   11.9641 O   0  0  0  0  0  0  0  0  0  0  0  0
   14.5952    7.9194   12.0741 C   0  0  0  0  0  0  0  0  0  0  0  0
   13.5349    7.7277   13.1456 C   0  0  0  0  0  0  0  0  0  0  0  0
   13.6622    6.4311   13.7376 O   0  0  0  0  0  0  0  0  0  0  0  0
   13.8419    8.8707   14.0943 C   0  0  0  0  0  0  0  0  0  0  0  0
   14.9800    8.6464   14.9310 O   0  0  0  0  0  0  0  0  0  0  0  0
   14.5630    6.3187   14.0794 H   0  0  0  0  0  0  0  0  0  0  0  0
   15.7593    8.4784   14.3785 H   0  0  0  0  0  0  0  0  0  0  0  0
   14.2827    7.3318   10.7305 C   0  0  0  0  0  0  0  0  0  0  0  0
   15.1414    7.8080    9.6933 O   0  0  0  0  0  0  0  0  0  0  0  0
   16.0571    7.5557    9.8904 H   0  0  0  0  0  0  0  0  0  0  0  0
 24 23  1  0  0  0
  1  2  1  0  0  0
 23 16  1  0  0  0
  6  2  2  0  0  0
  6  7  1  0  0  0
  2  3  1  0  0  0
 16 15  1  0  0  0
 16 17  1  0  0  0
 15 14  1  0  0  0
 17 18  1  0  0  0
 17 19  1  0  0  0
  7 14  1  0  0  0
  7  8  1  0  0  0
  3  8  2  0  0  0
  3  4  1  0  0  0
  5  4  1  0  0  0
 14 19  1  0  0  0
  8  9  1  0  0  0
  4 11  2  0  0  0
 19 20  1  0  0  0
  9 10  2  0  0  0
 11 10  1  0  0  0
  5 12  1  0  0  0
  5 13  1  0  0  0
 24 25  1  0  0  0
 18 21  1  0  0  0
 20 22  1  0  0  0
M  END
> <minimizedAffinity>
-9.33693

$$$$
6G36_EKH_A_401


 25 27  0  0  0  0  0  0  0  0999 V2000
   11.7472    9.4442    8.9181 Cl  0  0  0  0  0  0  0  0  0  0  0  0
   11.9410   10.3260   10.3982 C   0  0  0  0  0  0  0  0  0  0  0  0
   11.0626   11.3316   10.8715 C   0  0  0  0  0  0  0  0  0  0  0  0
    9.8523   11.9535   10.4839 C   0  0  0  0  0  0  0  0  0  0  0  0
    9.1804   11.5925    9.3817 N   0  0  0  0  0  0  0  0  0  0  0  0
   12.9588   10.1659   11.2678 C   0  0  0  0  0  0  0  0  0  0  0  0
   12.7922   11.0585   12.3050 N   0  0  0  0  0  0  0  0  0  0  0  0
   11.6406   11.7698   12.0811 C   0  0  0  0  0  0  0  0  0  0  0  0
   11.1245   12.7163   12.8705 N   0  0  0  0  0  0  0  0  0  0  0  0
    9.9920   13.2429   12.3913 C   0  0  0  0  0  0  0  0  0  0  0  0
    9.3387   12.9264   11.2702 N   0  0  0  0  0  0  0  0  0  0  0  0
    9.5380   10.8862    8.7965 H   0  0  0  0  0  0  0  0  0  0  0  0
    8.3294   12.0337    9.1573 H   0  0  0  0  0  0  0  0  0  0  0  0
   13.6740   11.2396   13.4534 C   0  0  0  0  0  0  0  0  0  0  0  0
   14.8133   10.4264   13.2754 O   0  0  0  0  0  0  0  0  0  0  0  0
   14.8947    9.4398   14.3205 C   0  0  0  0  0  0  0  0  0  0  0  0
   13.4826    9.3734   14.8779 C   0  0  0  0  0  0  0  0  0  0  0  0
   13.5047    8.8650   16.2154 O   0  0  0  0  0  0  0  0  0  0  0  0
   13.0403   10.8208   14.7764 C   0  0  0  0  0  0  0  0  0  0  0  0
   13.5884   11.6718   15.7869 O   0  0  0  0  0  0  0  0  0  0  0  0
   14.0953    9.4099   16.7587 H   0  0  0  0  0  0  0  0  0  0  0  0
   14.5570   11.6356   15.7496 H   0  0  0  0  0  0  0  0  0  0  0  0
   15.4424    8.1575   13.7693 C   0  0  0  0  0  0  0  0  0  0  0  0
   16.3686    7.5163   14.6473 O   0  0  0  0  0  0  0  0  0  0  0  0
   15.9206    7.2831   15.4755 H   0  0  0  0  0  0  0  0  0  0  0  0
 24 23  1  0  0  0
  1  2  1  0  0  0
 23 16  1  0  0  0
  6  2  2  0  0  0
  6  7  1  0  0  0
  2  3  1  0  0  0
 16 15  1  0  0  0
 16 17  1  0  0  0
 15 14  1  0  0  0
 17 18  1  0  0  0
 17 19  1  0  0  0
  7 14  1  0  0  0
  7  8  1  0  0  0
  3  8  2  0  0  0
  3  4  1  0  0  0
  5  4  1  0  0  0
 14 19  1  0  0  0
  8  9  1  0  0  0
  4 11  2  0  0  0
 19 20  1  0  0  0
  9 10  2  0  0  0
 11 10  1  0  0  0
  5 12  1  0  0  0
  5 13  1  0  0  0
 24 25  1  0  0  0
 18 21  1  0  0  0
 20 22  1  0  0  0
M  END
> <minimizedAffinity>
-8.82328

$$$$
6G36_EKH_A_401


 25 27  0  0  0  0  0  0  0  0999 V2000
   13.6279    4.9890   11.8846 Cl  0  0  0  0  0  0  0  0  0  0  0  0
   13.4441    6.6969   11.6503 C   0  0  0  0  0  0  0  0  0  0  0  0
   12.7583    7.3046   10.5699 C   0  0  0  0  0  0  0  0  0  0  0  0
   12.0225    6.9164    9.4254 C   0  0  0  0  0  0  0  0  0  0  0  0
   11.7778    5.6318    9.1310 N   0  0  0  0  0  0  0  0  0  0  0  0
   13.9435    7.6488   12.4642 C   0  0  0  0  0  0  0  0  0  0  0  0
   13.6245    8.8834   11.9405 N   0  0  0  0  0  0  0  0  0  0  0  0
   12.8988    8.6903   10.7922 C   0  0  0  0  0  0  0  0  0  0  0  0
   12.3876    9.6415   10.0053 N   0  0  0  0  0  0  0  0  0  0  0  0
   11.7309    9.1538    8.9469 C   0  0  0  0  0  0  0  0  0  0  0  0
   11.5219    7.8768    8.6158 N   0  0  0  0  0  0  0  0  0  0  0  0
   12.1335    4.9180    9.7082 H   0  0  0  0  0  0  0  0  0  0  0  0
   11.2422    5.4021    8.3375 H   0  0  0  0  0  0  0  0  0  0  0  0
   13.9858   10.1862   12.4891 C   0  0  0  0  0  0  0  0  0  0  0  0
   15.0567   10.0106   13.3909 O   0  0  0  0  0  0  0  0  0  0  0  0
   14.6634   10.3991   14.7201 C   0  0  0  0  0  0  0  0  0  0  0  0
   13.1447   10.3625   14.6824 C   0  0  0  0  0  0  0  0  0  0  0  0
   12.6064   11.2031   15.7078 O   0  0  0  0  0  0  0  0  0  0  0  0
   12.8572   10.8476   13.2743 C   0  0  0  0  0  0  0  0  0  0  0  0
   13.0034   12.2598   13.1012 O   0  0  0  0  0  0  0  0  0  0  0  0
   12.9608   12.1006   15.6093 H   0  0  0  0  0  0  0  0  0  0  0  0
   13.9037   12.5242   13.3473 H   0  0  0  0  0  0  0  0  0  0  0  0
   15.3156    9.5004   15.7277 C   0  0  0  0  0  0  0  0  0  0  0  0
   14.4195    9.0489   16.7441 O   0  0  0  0  0  0  0  0  0  0  0  0
   13.7083    8.5277   16.3398 H   0  0  0  0  0  0  0  0  0  0  0  0
 24 23  1  0  0  0
  1  2  1  0  0  0
 23 16  1  0  0  0
  6  2  2  0  0  0
  6  7  1  0  0  0
  2  3  1  0  0  0
 16 15  1  0  0  0
 16 17  1  0  0  0
 15 14  1  0  0  0
 17 18  1  0  0  0
 17 19  1  0  0  0
  7 14  1  0  0  0
  7  8  1  0  0  0
  3  8  2  0  0  0
  3  4  1  0  0  0
  5  4  1  0  0  0
 14 19  1  0  0  0
  8  9  1  0  0  0
  4 11  2  0  0  0
 19 20  1  0  0  0
  9 10  2  0  0  0
 11 10  1  0  0  0
  5 12  1  0  0  0
  5 13  1  0  0  0
 24 25  1  0  0  0
 18 21  1  0  0  0
 20 22  1  0  0  0
M  END
> <minimizedAffinity>
-8.52157

$$$$
6G36_EKH_A_401


 25 27  0  0  0  0  0  0  0  0999 V2000
   11.9537   13.0464   15.4389 Cl  0  0  0  0  0  0  0  0  0  0  0  0
   12.4784   12.0243   14.1405 C   0  0  0  0  0  0  0  0  0  0  0  0
   11.8857   11.9665   12.8551 C   0  0  0  0  0  0  0  0  0  0  0  0
   10.8361   12.5901   12.1400 C   0  0  0  0  0  0  0  0  0  0  0  0
   10.0898   13.5698   12.6692 N   0  0  0  0  0  0  0  0  0  0  0  0
   13.5064   11.1544   14.2062 C   0  0  0  0  0  0  0  0  0  0  0  0
   13.6025   10.4989   12.9973 N   0  0  0  0  0  0  0  0  0  0  0  0
   12.6277   10.9863   12.1638 C   0  0  0  0  0  0  0  0  0  0  0  0
   12.4069   10.6186   10.8983 N   0  0  0  0  0  0  0  0  0  0  0  0
   11.3791   11.2624   10.3338 C   0  0  0  0  0  0  0  0  0  0  0  0
   10.5968   12.2051   10.8660 N   0  0  0  0  0  0  0  0  0  0  0  0
   10.2487   13.8641   13.5952 H   0  0  0  0  0  0  0  0  0  0  0  0
    9.3829   13.9950   12.1320 H   0  0  0  0  0  0  0  0  0  0  0  0
   14.5624    9.4600   12.6394 C   0  0  0  0  0  0  0  0  0  0  0  0
   14.1326    8.8463   11.4437 O   0  0  0  0  0  0  0  0  0  0  0  0
   13.8475    7.4532   11.6682 C   0  0  0  0  0  0  0  0  0  0  0  0
   13.6560    7.3521   13.1723 C   0  0  0  0  0  0  0  0  0  0  0  0
   13.8905    6.0097   13.6093 O   0  0  0  0  0  0  0  0  0  0  0  0
   14.6750    8.3529   13.6830 C   0  0  0  0  0  0  0  0  0  0  0  0
   16.0253    7.8831   13.6457 O   0  0  0  0  0  0  0  0  0  0  0  0
   14.7739    5.7270   13.3256 H   0  0  0  0  0  0  0  0  0  0  0  0
   16.2564    7.6350   12.7369 H   0  0  0  0  0  0  0  0  0  0  0  0
   12.6790    7.0305   10.8291 C   0  0  0  0  0  0  0  0  0  0  0  0
   12.1127    5.7847   11.2378 O   0  0  0  0  0  0  0  0  0  0  0  0
   11.7775    5.8638   12.1446 H   0  0  0  0  0  0  0  0  0  0  0  0
 24 23  1  0  0  0
  1  2  1  0  0  0
 23 16  1  0  0  0
  6  2  2  0  0  0
  6  7  1  0  0  0
  2  3  1  0  0  0
 16 15  1  0  0  0
 16 17  1  0  0  0
 15 14  1  0  0  0
 17 18  1  0  0  0
 17 19  1  0  0  0
  7 14  1  0  0  0
  7  8  1  0  0  0
  3  8  2  0  0  0
  3  4  1  0  0  0
  5  4  1  0  0  0
 14 19  1  0  0  0
  8  9  1  0  0  0
  4 11  2  0  0  0
 19 20  1  0  0  0
  9 10  2  0  0  0
 11 10  1  0  0  0
  5 12  1  0  0  0
  5 13  1  0  0  0
 24 25  1  0  0  0
 18 21  1  0  0  0
 20 22  1  0  0  0
M  END
> <minimizedAffinity>
-8.34397

$$$$
6G36_EKH_A_401


 25 27  0  0  0  0  0  0  0  0999 V2000
   13.9452    9.6443   16.6522 Cl  0  0  0  0  0  0  0  0  0  0  0  0
   13.6426    9.5407   14.9483 C   0  0  0  0  0  0  0  0  0  0  0  0
   13.0527   10.5589   14.1596 C   0  0  0  0  0  0  0  0  0  0  0  0
   12.5600   11.8756   14.3194 C   0  0  0  0  0  0  0  0  0  0  0  0
   12.6097   12.5233   15.4919 N   0  0  0  0  0  0  0  0  0  0  0  0
   13.9228    8.4722   14.1752 C   0  0  0  0  0  0  0  0  0  0  0  0
   13.5138    8.7450   12.8873 N   0  0  0  0  0  0  0  0  0  0  0  0
   12.9884   10.0122   12.8610 C   0  0  0  0  0  0  0  0  0  0  0  0
   12.5025   10.6494   11.7917 N   0  0  0  0  0  0  0  0  0  0  0  0
   12.0498   11.8770   12.0701 C   0  0  0  0  0  0  0  0  0  0  0  0
   12.0485   12.5151   13.2434 N   0  0  0  0  0  0  0  0  0  0  0  0
   12.9786   12.0747   16.2869 H   0  0  0  0  0  0  0  0  0  0  0  0
   12.2772   13.4476   15.5582 H   0  0  0  0  0  0  0  0  0  0  0  0
   13.6078    7.8574   11.7331 C   0  0  0  0  0  0  0  0  0  0  0  0
   13.2470    6.5552   12.1395 O   0  0  0  0  0  0  0  0  0  0  0  0
   14.3565    5.6525   11.9769 C   0  0  0  0  0  0  0  0  0  0  0  0
   15.5695    6.5652   11.9083 C   0  0  0  0  0  0  0  0  0  0  0  0
   16.6463    5.9034   11.2372 O   0  0  0  0  0  0  0  0  0  0  0  0
   15.0166    7.7605   11.1558 C   0  0  0  0  0  0  0  0  0  0  0  0
   14.8747    7.5506    9.7482 O   0  0  0  0  0  0  0  0  0  0  0  0
   16.3498    5.6101   10.3614 H   0  0  0  0  0  0  0  0  0  0  0  0
   14.2982    6.7864    9.5917 H   0  0  0  0  0  0  0  0  0  0  0  0
   14.3583    4.6425   13.0850 C   0  0  0  0  0  0  0  0  0  0  0  0
   15.6404    4.4729   13.6912 O   0  0  0  0  0  0  0  0  0  0  0  0
   15.9224    5.3106   14.0908 H   0  0  0  0  0  0  0  0  0  0  0  0
 24 23  1  0  0  0
  1  2  1  0  0  0
 23 16  1  0  0  0
  6  2  2  0  0  0
  6  7  1  0  0  0
  2  3  1  0  0  0
 16 15  1  0  0  0
 16 17  1  0  0  0
 15 14  1  0  0  0
 17 18  1  0  0  0
 17 19  1  0  0  0
  7 14  1  0  0  0
  7  8  1  0  0  0
  3  8  2  0  0  0
  3  4  1  0  0  0
  5  4  1  0  0  0
 14 19  1  0  0  0
  8  9  1  0  0  0
  4 11  2  0  0  0
 19 20  1  0  0  0
  9 10  2  0  0  0
 11 10  1  0  0  0
  5 12  1  0  0  0
  5 13  1  0  0  0
 24 25  1  0  0  0
 18 21  1  0  0  0
 20 22  1  0  0  0
M  END
> <minimizedAffinity>
-8.21092

$$$$
6G36_EKH_A_401


 25 27  0  0  0  0  0  0  0  0999 V2000
    9.4595   12.9718   11.2517 Cl  0  0  0  0  0  0  0  0  0  0  0  0
   10.7360   11.8167   11.0468 C   0  0  0  0  0  0  0  0  0  0  0  0
   10.7832   10.8205   10.0408 C   0  0  0  0  0  0  0  0  0  0  0  0
   10.0116   10.3886    8.9362 C   0  0  0  0  0  0  0  0  0  0  0  0
    8.8806   11.0051    8.5656 N   0  0  0  0  0  0  0  0  0  0  0  0
   11.8297   11.7235   11.8299 C   0  0  0  0  0  0  0  0  0  0  0  0
   12.5997   10.6714   11.3822 N   0  0  0  0  0  0  0  0  0  0  0  0
   11.9794   10.1166   10.2914 C   0  0  0  0  0  0  0  0  0  0  0  0
   12.4225    9.0880    9.5626 N   0  0  0  0  0  0  0  0  0  0  0  0
   11.6007    8.7597    8.5595 C   0  0  0  0  0  0  0  0  0  0  0  0
   10.4470    9.3345    8.2095 N   0  0  0  0  0  0  0  0  0  0  0  0
    8.5473   11.7743    9.0818 H   0  0  0  0  0  0  0  0  0  0  0  0
    8.3831   10.6886    7.7771 H   0  0  0  0  0  0  0  0  0  0  0  0
   13.8589   10.2043   11.9524 C   0  0  0  0  0  0  0  0  0  0  0  0
   14.0363    8.8504   11.5965 O   0  0  0  0  0  0  0  0  0  0  0  0
   14.0642    8.0211   12.7729 C   0  0  0  0  0  0  0  0  0  0  0  0
   13.4061    8.8751   13.8437 C   0  0  0  0  0  0  0  0  0  0  0  0
   13.8182    8.4395   15.1430 O   0  0  0  0  0  0  0  0  0  0  0  0
   13.8935   10.2638   13.4764 C   0  0  0  0  0  0  0  0  0  0  0  0
   15.2488   10.5257   13.8508 O   0  0  0  0  0  0  0  0  0  0  0  0
   14.7866    8.4539   15.1968 H   0  0  0  0  0  0  0  0  0  0  0  0
   15.8310    9.8687   13.4382 H   0  0  0  0  0  0  0  0  0  0  0  0
   13.4030    6.7064   12.4853 C   0  0  0  0  0  0  0  0  0  0  0  0
   13.7100    5.6982   13.4492 O   0  0  0  0  0  0  0  0  0  0  0  0
   13.3881    5.9757   14.3211 H   0  0  0  0  0  0  0  0  0  0  0  0
 24 23  1  0  0  0
  1  2  1  0  0  0
 23 16  1  0  0  0
  6  2  2  0  0  0
  6  7  1  0  0  0
  2  3  1  0  0  0
 16 15  1  0  0  0
 16 17  1  0  0  0
 15 14  1  0  0  0
 17 18  1  0  0  0
 17 19  1  0  0  0
  7 14  1  0  0  0
  7  8  1  0  0  0
  3  8  2  0  0  0
  3  4  1  0  0  0
  5  4  1  0  0  0
 14 19  1  0  0  0
  8  9  1  0  0  0
  4 11  2  0  0  0
 19 20  1  0  0  0
  9 10  2  0  0  0
 11 10  1  0  0  0
  5 12  1  0  0  0
  5 13  1  0  0  0
 24 25  1  0  0  0
 18 21  1  0  0  0
 20 22  1  0  0  0
M  END
> <minimizedAffinity>
-8.04004

$$$$
6G36_EKH_A_401


 25 27  0  0  0  0  0  0  0  0999 V2000
   13.5421    9.3349   15.5469 Cl  0  0  0  0  0  0  0  0  0  0  0  0
   13.1701    9.7344   13.9013 C   0  0  0  0  0  0  0  0  0  0  0  0
   13.2540    8.8417   12.8045 C   0  0  0  0  0  0  0  0  0  0  0  0
   13.5753    7.4856   12.5605 C   0  0  0  0  0  0  0  0  0  0  0  0
   13.8928    6.6344   13.5460 N   0  0  0  0  0  0  0  0  0  0  0  0
   12.7682   10.9470   13.4703 C   0  0  0  0  0  0  0  0  0  0  0  0
   12.6006   10.8917   12.1031 N   0  0  0  0  0  0  0  0  0  0  0  0
   12.8864    9.6167   11.6849 C   0  0  0  0  0  0  0  0  0  0  0  0
   12.8213    9.1576   10.4316 N   0  0  0  0  0  0  0  0  0  0  0  0
   13.1652    7.8695   10.3234 C   0  0  0  0  0  0  0  0  0  0  0  0
   13.5307    7.0237   11.2903 N   0  0  0  0  0  0  0  0  0  0  0  0
   13.9305    6.9516   14.4773 H   0  0  0  0  0  0  0  0  0  0  0  0
   14.0882    5.6920   13.3387 H   0  0  0  0  0  0  0  0  0  0  0  0
   12.1940   11.9852   11.2267 C   0  0  0  0  0  0  0  0  0  0  0  0
   11.6335   13.0091   12.0194 O   0  0  0  0  0  0  0  0  0  0  0  0
   10.2522   13.2156   11.6703 C   0  0  0  0  0  0  0  0  0  0  0  0
    9.8543   11.9332   10.9590 C   0  0  0  0  0  0  0  0  0  0  0  0
    8.7283   12.1710   10.1084 O   0  0  0  0  0  0  0  0  0  0  0  0
   11.1276   11.5844   10.2120 C   0  0  0  0  0  0  0  0  0  0  0  0
   11.3526   12.3730    9.0402 O   0  0  0  0  0  0  0  0  0  0  0  0
    8.9350   12.8910    9.4922 H   0  0  0  0  0  0  0  0  0  0  0  0
   11.3771   13.3120    9.2822 H   0  0  0  0  0  0  0  0  0  0  0  0
    9.4618   13.5561   12.8981 C   0  0  0  0  0  0  0  0  0  0  0  0
   10.2527   14.1411   13.9336 O   0  0  0  0  0  0  0  0  0  0  0  0
   10.6319   14.9763   13.6181 H   0  0  0  0  0  0  0  0  0  0  0  0
 24 23  1  0  0  0
  1  2  1  0  0  0
 23 16  1  0  0  0
  6  2  2  0  0  0
  6  7  1  0  0  0
  2  3  1  0  0  0
 16 15  1  0  0  0
 16 17  1  0  0  0
 15 14  1  0  0  0
 17 18  1  0  0  0
 17 19  1  0  0  0
  7 14  1  0  0  0
  7  8  1  0  0  0
  3  8  2  0  0  0
  3  4  1  0  0  0
  5  4  1  0  0  0
 14 19  1  0  0  0
  8  9  1  0  0  0
  4 11  2  0  0  0
 19 20  1  0  0  0
  9 10  2  0  0  0
 11 10  1  0  0  0
  5 12  1  0  0  0
  5 13  1  0  0  0
 24 25  1  0  0  0
 18 21  1  0  0  0
 20 22  1  0  0  0
M  END
> <minimizedAffinity>
-7.93116

$$$$
6G36_EKH_A_401


 25 27  0  0  0  0  0  0  0  0999 V2000
   12.2547   12.7136   14.4245 Cl  0  0  0  0  0  0  0  0  0  0  0  0
   12.5264   11.6774   13.0613 C   0  0  0  0  0  0  0  0  0  0  0  0
   11.7797   11.6977   11.8575 C   0  0  0  0  0  0  0  0  0  0  0  0
   10.7103   12.4242   11.2827 C   0  0  0  0  0  0  0  0  0  0  0  0
   10.1227   13.4533   11.9092 N   0  0  0  0  0  0  0  0  0  0  0  0
   13.4742   10.7211   12.9918 C   0  0  0  0  0  0  0  0  0  0  0  0
   13.3652   10.0851   11.7736 N   0  0  0  0  0  0  0  0  0  0  0  0
   12.3434   10.6719   11.0707 C   0  0  0  0  0  0  0  0  0  0  0  0
   11.9396   10.3511    9.8380 N   0  0  0  0  0  0  0  0  0  0  0  0
   10.9118   11.0927    9.4102 C   0  0  0  0  0  0  0  0  0  0  0  0
   10.2856   12.0879   10.0437 N   0  0  0  0  0  0  0  0  0  0  0  0
   10.4178   13.7135   12.8117 H   0  0  0  0  0  0  0  0  0  0  0  0
    9.3962   13.9489   11.4669 H   0  0  0  0  0  0  0  0  0  0  0  0
   14.1796    8.9750   11.2904 C   0  0  0  0  0  0  0  0  0  0  0  0
   13.6480    8.5323   10.0606 O   0  0  0  0  0  0  0  0  0  0  0  0
   13.1974    7.1694   10.1694 C   0  0  0  0  0  0  0  0  0  0  0  0
   13.0312    6.9526   11.6642 C   0  0  0  0  0  0  0  0  0  0  0  0
   13.1074    5.5569   11.9708 O   0  0  0  0  0  0  0  0  0  0  0  0
   14.1787    7.7701   12.2261 C   0  0  0  0  0  0  0  0  0  0  0  0
   15.4589    7.1451   12.0990 O   0  0  0  0  0  0  0  0  0  0  0  0
   13.9417    5.1965   11.6317 H   0  0  0  0  0  0  0  0  0  0  0  0
   15.6353    6.9566   11.1640 H   0  0  0  0  0  0  0  0  0  0  0  0
   11.9654    6.9721    9.3378 C   0  0  0  0  0  0  0  0  0  0  0  0
   11.5670    5.6043    9.2361 O   0  0  0  0  0  0  0  0  0  0  0  0
   11.3528    5.2634   10.1186 H   0  0  0  0  0  0  0  0  0  0  0  0
 24 23  1  0  0  0
  1  2  1  0  0  0
 23 16  1  0  0  0
  6  2  2  0  0  0
  6  7  1  0  0  0
  2  3  1  0  0  0
 16 15  1  0  0  0
 16 17  1  0  0  0
 15 14  1  0  0  0
 17 18  1  0  0  0
 17 19  1  0  0  0
  7 14  1  0  0  0
  7  8  1  0  0  0
  3  8  2  0  0  0
  3  4  1  0  0  0
  5  4  1  0  0  0
 14 19  1  0  0  0
  8  9  1  0  0  0
  4 11  2  0  0  0
 19 20  1  0  0  0
  9 10  2  0  0  0
 11 10  1  0  0  0
  5 12  1  0  0  0
  5 13  1  0  0  0
 24 25  1  0  0  0
 18 21  1  0  0  0
 20 22  1  0  0  0
M  END
> <minimizedAffinity>
-7.87680

$$$$
6G36_EKH_A_401


 25 27  0  0  0  0  0  0  0  0999 V2000
   10.4708   13.2693   13.4003 Cl  0  0  0  0  0  0  0  0  0  0  0  0
   11.3424   12.0852   12.4815 C   0  0  0  0  0  0  0  0  0  0  0  0
   10.9555   11.5885   11.2125 C   0  0  0  0  0  0  0  0  0  0  0  0
    9.9248   11.7855   10.2635 C   0  0  0  0  0  0  0  0  0  0  0  0
    8.9528   12.6921   10.4370 N   0  0  0  0  0  0  0  0  0  0  0  0
   12.4862   11.4886   12.8734 C   0  0  0  0  0  0  0  0  0  0  0  0
   12.8638   10.5862   11.9021 N   0  0  0  0  0  0  0  0  0  0  0  0
   11.9463   10.6401   10.8834 C   0  0  0  0  0  0  0  0  0  0  0  0
   11.9729    9.9312    9.7511 N   0  0  0  0  0  0  0  0  0  0  0  0
   10.9388   10.1893    8.9428 C   0  0  0  0  0  0  0  0  0  0  0  0
    9.9376   11.0543    9.1261 N   0  0  0  0  0  0  0  0  0  0  0  0
    8.9263   13.2343   11.2583 H   0  0  0  0  0  0  0  0  0  0  0  0
    8.2655   12.8159    9.7431 H   0  0  0  0  0  0  0  0  0  0  0  0
   14.0302    9.7100   11.9280 C   0  0  0  0  0  0  0  0  0  0  0  0
   13.8926    8.7513   10.9019 O   0  0  0  0  0  0  0  0  0  0  0  0
   13.8218    7.4257   11.4589 C   0  0  0  0  0  0  0  0  0  0  0  0
   13.4320    7.6541   12.9097 C   0  0  0  0  0  0  0  0  0  0  0  0
   13.8274    6.5340   13.7078 O   0  0  0  0  0  0  0  0  0  0  0  0
   14.1773    8.9348   13.2337 C   0  0  0  0  0  0  0  0  0  0  0  0
   15.5790    8.7556   13.4543 O   0  0  0  0  0  0  0  0  0  0  0  0
   14.7782    6.3775   13.5969 H   0  0  0  0  0  0  0  0  0  0  0  0
   15.9801    8.3479   12.6708 H   0  0  0  0  0  0  0  0  0  0  0  0
   12.8794    6.5837   10.6520 C   0  0  0  0  0  0  0  0  0  0  0  0
   12.3281    5.4911   11.3884 O   0  0  0  0  0  0  0  0  0  0  0  0
   11.8113    5.8324   12.1350 H   0  0  0  0  0  0  0  0  0  0  0  0
 24 23  1  0  0  0
  1  2  1  0  0  0
 23 16  1  0  0  0
  6  2  2  0  0  0
  6  7  1  0  0  0
  2  3  1  0  0  0
 16 15  1  0  0  0
 16 17  1  0  0  0
 15 14  1  0  0  0
 17 18  1  0  0  0
 17 19  1  0  0  0
  7 14  1  0  0  0
  7  8  1  0  0  0
  3  8  2  0  0  0
  3  4  1  0  0  0
  5  4  1  0  0  0
 14 19  1  0  0  0
  8  9  1  0  0  0
  4 11  2  0  0  0
 19 20  1  0  0  0
  9 10  2  0  0  0
 11 10  1  0  0  0
  5 12  1  0  0  0
  5 13  1  0  0  0
 24 25  1  0  0  0
 18 21  1  0  0  0
 20 22  1  0  0  0
M  END
> <minimizedAffinity>
-7.83885

$$$$
6G36_EKH_A_401


 25 27  0  0  0  0  0  0  0  0999 V2000
   14.1710    8.7482   13.2709 Cl  0  0  0  0  0  0  0  0  0  0  0  0
   13.2999    8.6095   11.7784 C   0  0  0  0  0  0  0  0  0  0  0  0
   13.0576    7.3993   11.0829 C   0  0  0  0  0  0  0  0  0  0  0  0
   13.3142    6.0164   11.2357 C   0  0  0  0  0  0  0  0  0  0  0  0
   13.9381    5.5165   12.3116 N   0  0  0  0  0  0  0  0  0  0  0  0
   12.7603    9.6405   11.0975 C   0  0  0  0  0  0  0  0  0  0  0  0
   12.1787    9.1491    9.9484 N   0  0  0  0  0  0  0  0  0  0  0  0
   12.3461    7.7875    9.9287 C   0  0  0  0  0  0  0  0  0  0  0  0
   11.9051    6.9458    8.9892 N   0  0  0  0  0  0  0  0  0  0  0  0
   12.2239    5.6697    9.2329 C   0  0  0  0  0  0  0  0  0  0  0  0
   12.8876    5.1645   10.2761 N   0  0  0  0  0  0  0  0  0  0  0  0
   14.2561    6.1205   13.0211 H   0  0  0  0  0  0  0  0  0  0  0  0
   14.0783    4.5454   12.3924 H   0  0  0  0  0  0  0  0  0  0  0  0
   11.4991    9.9206    8.9131 C   0  0  0  0  0  0  0  0  0  0  0  0
   12.0034   11.2384    8.9334 O   0  0  0  0  0  0  0  0  0  0  0  0
   10.9571   12.1718    9.2597 C   0  0  0  0  0  0  0  0  0  0  0  0
    9.8889   11.3152    9.9186 C   0  0  0  0  0  0  0  0  0  0  0  0
    8.6135   11.9569    9.8205 O   0  0  0  0  0  0  0  0  0  0  0  0
    9.9922   10.0259    9.1261 C   0  0  0  0  0  0  0  0  0  0  0  0
    9.3929   10.0875    7.8289 O   0  0  0  0  0  0  0  0  0  0  0  0
    8.4180   12.1470    8.8897 H   0  0  0  0  0  0  0  0  0  0  0  0
    9.8007   10.8042    7.3181 H   0  0  0  0  0  0  0  0  0  0  0  0
   11.5111   13.2863   10.0959 C   0  0  0  0  0  0  0  0  0  0  0  0
   10.8128   13.4670   11.3286 O   0  0  0  0  0  0  0  0  0  0  0  0
   10.8918   12.6633   11.8659 H   0  0  0  0  0  0  0  0  0  0  0  0
 24 23  1  0  0  0
  1  2  1  0  0  0
 23 16  1  0  0  0
  6  2  2  0  0  0
  6  7  1  0  0  0
  2  3  1  0  0  0
 16 15  1  0  0  0
 16 17  1  0  0  0
 15 14  1  0  0  0
 17 18  1  0  0  0
 17 19  1  0  0  0
  7 14  1  0  0  0
  7  8  1  0  0  0
  3  8  2  0  0  0
  3  4  1  0  0  0
  5  4  1  0  0  0
 14 19  1  0  0  0
  8  9  1  0  0  0
  4 11  2  0  0  0
 19 20  1  0  0  0
  9 10  2  0  0  0
 11 10  1  0  0  0
  5 12  1  0  0  0
  5 13  1  0  0  0
 24 25  1  0  0  0
 18 21  1  0  0  0
 20 22  1  0  0  0
M  END
> <minimizedAffinity>
-7.57427

$$$$
