1BXQ_PP8_A_324


 49 49  0  0  0  0  0  0  0  0999 V2000
   20.7278    8.6826   21.8447 C   0  0  0  0  0  0  0  0  0  0  0  0
   21.1061    8.1885   22.9024 O   0  0  0  0  0  0  0  0  0  0  0  0
   21.5246    9.3548   21.0079 N   0  0  0  0  0  0  0  0  0  0  0  0
   21.0968    9.7264   20.2028 H   0  0  0  0  0  0  0  0  0  0  0  0
   22.9426    9.5987   21.1495 C   0  0  0  0  0  0  0  0  0  0  0  0
   23.2643   11.1400   22.0108 P   0  0  0  0  0  0  0  0  0  0  0  0
   23.9314   12.0474   21.0537 O   0  0  0  0  0  0  0  0  0  0  0  0
   24.0005   10.8509   23.2836 O   0  0  0  0  0  0  0  0  0  0  0  0
   24.8732   10.4820   23.0757 H   0  0  0  0  0  0  0  0  0  0  0  0
   21.8597   11.7341   22.3641 O   0  0  0  0  0  0  0  0  0  0  0  0
   21.5191   12.0117   23.6741 C   0  0  0  0  0  0  0  0  0  0  0  0
   20.0342   11.7403   24.0050 C   0  0  0  0  0  0  0  0  0  0  0  0
   19.1417   12.2084   23.2764 O   0  0  0  0  0  0  0  0  0  0  0  0
   19.0086   11.5958   26.1064 C   0  0  0  0  0  0  0  0  0  0  0  0
   19.8244   11.0938   25.0672 O   0  0  0  0  0  0  0  0  0  0  0  0
   21.7785   13.5064   24.0373 C   0  0  0  0  0  0  0  0  0  0  0  0
   22.2124   13.8283   25.4535 C   0  0  0  0  0  0  0  0  0  0  0  0
   21.4644   14.7059   26.2333 C   0  0  0  0  0  0  0  0  0  0  0  0
   23.3489   13.2643   25.9962 C   0  0  0  0  0  0  0  0  0  0  0  0
   21.8613   14.9996   27.5268 C   0  0  0  0  0  0  0  0  0  0  0  0
   23.0194   14.3883   27.9871 C   0  0  0  0  0  0  0  0  0  0  0  0
   23.8168   13.4989   27.2718 C   0  0  0  0  0  0  0  0  0  0  0  0
   23.7194    9.4847   19.8452 C   0  0  0  0  0  0  0  0  0  0  0  0
   24.5091    8.1978   19.6827 C   0  0  0  0  0  0  0  0  0  0  0  0
   23.8174    7.0214   20.3448 C   0  0  0  0  0  0  0  0  0  0  0  0
   24.7591    7.8695   18.2111 C   0  0  0  0  0  0  0  0  0  0  0  0
   19.2908    8.4956   21.3838 C   0  0  0  0  0  0  0  0  0  0  0  0
   18.4583    6.8379   19.7639 C   0  0  0  0  0  0  0  0  0  0  0  0
   17.8909    7.6741   19.0679 O   0  0  0  0  0  0  0  0  0  0  0  0
   19.1890    7.1501   20.8395 N   0  0  0  0  0  0  0  0  0  0  0  0
   19.6861    6.4286   21.2885 H   0  0  0  0  0  0  0  0  0  0  0  0
   18.3765    5.3260   19.4797 C   0  0  0  0  0  0  0  0  0  0  0  0
   19.5827    4.9229   18.8002 N   0  0  0  0  0  0  0  0  0  0  0  0
   19.8119    4.8230   17.5082 C   0  0  0  0  0  0  0  0  0  0  0  0
   18.9255    5.1670   16.7235 O   0  0  0  0  0  0  0  0  0  0  0  0
   20.3404    4.6901   19.3841 H   0  0  0  0  0  0  0  0  0  0  0  0
   21.1206    4.1843   17.0289 C   0  0  0  0  0  0  0  0  0  0  0  0
   22.2764    5.1663   17.1893 C   0  0  0  0  0  0  0  0  0  0  0  0
   23.5596    4.5571   16.6484 C   0  0  0  0  0  0  0  0  0  0  0  0
   21.9440    6.4339   16.3845 C   0  0  0  0  0  0  0  0  0  0  0  0
   18.0769    4.5644   20.7608 C   0  0  0  0  0  0  0  0  0  0  0  0
   16.5898    4.5008   21.0772 C   0  0  0  0  0  0  0  0  0  0  0  0
   18.6887    3.1797   20.8296 C   0  0  0  0  0  0  0  0  0  0  0  0
   18.2453    8.8276   22.4028 C   0  0  0  0  0  0  0  0  0  0  0  0
   18.1552    7.9393   23.6305 C   0  0  0  0  0  0  0  0  0  0  0  0
   17.6770    6.8077   23.3836 O   0  0  0  0  0  0  0  0  0  0  0  0
   18.5318    8.2389   24.8590 N   0  0  0  0  0  0  0  0  0  0  0  0
   18.9078    9.1272   25.0558 H   0  0  0  0  0  0  0  0  0  0  0  0
   18.4367    7.5741   25.5790 H   0  0  0  0  0  0  0  0  0  0  0  0
 33 32  1  0  0  0
 33 34  1  0  0  0
 37 38  1  0  0  0
 37 34  1  0  0  0
 32 41  1  0  0  0
 32 28  1  0  0  0
 38 39  1  0  0  0
 38 40  1  0  0  0
 41 42  1  0  0  0
 41 43  1  0  0  0
 34 35  2  0  0  0
 28 29  2  0  0  0
 28 30  1  0  0  0
 30 27  1  0  0  0
 27 44  1  0  0  0
 27  1  1  0  0  0
 44 45  1  0  0  0
 45 46  2  0  0  0
 45 47  1  0  0  0
  1  2  2  0  0  0
  1  3  1  0  0  0
  3  5  1  0  0  0
  5 23  1  0  0  0
  5  6  1  0  0  0
 23 24  1  0  0  0
 24 25  1  0  0  0
 24 26  1  0  0  0
  6  7  2  0  0  0
  6  8  1  0  0  0
  6 10  1  0  0  0
 10 11  1  0  0  0
 11 16  1  0  0  0
 11 12  1  0  0  0
 16 17  1  0  0  0
 14 15  1  0  0  0
 17 18  2  0  0  0
 17 19  1  0  0  0
 18 20  1  0  0  0
 19 22  2  0  0  0
 20 21  2  0  0  0
 21 22  1  0  0  0
 12 15  1  0  0  0
 12 13  2  0  0  0
 33 36  1  0  0  0
 30 31  1  0  0  0
 47 48  1  0  0  0
 47 49  1  0  0  0
  3  4  1  0  0  0
  8  9  1  0  0  0
M  END
> <minimizedAffinity>
-8.78601

$$$$
1BXQ_PP8_A_324


 49 49  0  0  0  0  0  0  0  0999 V2000
   20.5204    8.5857   21.5731 C   0  0  0  0  0  0  0  0  0  0  0  0
   20.6987    8.1371   22.7014 O   0  0  0  0  0  0  0  0  0  0  0  0
   21.4252    9.3091   20.9060 N   0  0  0  0  0  0  0  0  0  0  0  0
   21.1536    9.6348   20.0175 H   0  0  0  0  0  0  0  0  0  0  0  0
   22.7569    9.6681   21.3397 C   0  0  0  0  0  0  0  0  0  0  0  0
   22.8022   11.3245   22.0292 P   0  0  0  0  0  0  0  0  0  0  0  0
   23.2211   12.2397   20.9470 O   0  0  0  0  0  0  0  0  0  0  0  0
   23.6460   11.3216   23.2676 O   0  0  0  0  0  0  0  0  0  0  0  0
   24.5636   11.1121   23.0331 H   0  0  0  0  0  0  0  0  0  0  0  0
   21.3261   11.6638   22.4250 O   0  0  0  0  0  0  0  0  0  0  0  0
   20.9569   11.7686   23.7524 C   0  0  0  0  0  0  0  0  0  0  0  0
   19.5610   11.1818   24.0613 C   0  0  0  0  0  0  0  0  0  0  0  0
   18.5789   11.5294   23.3823 O   0  0  0  0  0  0  0  0  0  0  0  0
   18.4734    9.4594   25.2185 C   0  0  0  0  0  0  0  0  0  0  0  0
   19.5044   10.4129   25.0592 O   0  0  0  0  0  0  0  0  0  0  0  0
   20.9185   13.2534   24.2291 C   0  0  0  0  0  0  0  0  0  0  0  0
   21.3906   13.5601   25.6364 C   0  0  0  0  0  0  0  0  0  0  0  0
   20.4661   13.7608   26.6576 C   0  0  0  0  0  0  0  0  0  0  0  0
   22.7353   13.6473   25.9338 C   0  0  0  0  0  0  0  0  0  0  0  0
   20.8980   14.0410   27.9429 C   0  0  0  0  0  0  0  0  0  0  0  0
   22.2690   14.1127   28.1477 C   0  0  0  0  0  0  0  0  0  0  0  0
   23.2533   13.9206   27.1820 C   0  0  0  0  0  0  0  0  0  0  0  0
   23.8289    9.4457   20.2819 C   0  0  0  0  0  0  0  0  0  0  0  0
   23.6539    8.1871   19.4502 C   0  0  0  0  0  0  0  0  0  0  0  0
   24.3407    8.2989   18.1025 C   0  0  0  0  0  0  0  0  0  0  0  0
   24.1775    6.9500   20.1792 C   0  0  0  0  0  0  0  0  0  0  0  0
   19.2346    8.2777   20.8220 C   0  0  0  0  0  0  0  0  0  0  0  0
   19.3089    6.8692   18.8032 C   0  0  0  0  0  0  0  0  0  0  0  0
   19.1126    7.8065   18.0361 O   0  0  0  0  0  0  0  0  0  0  0  0
   19.4386    7.0164   20.1260 N   0  0  0  0  0  0  0  0  0  0  0  0
   19.6862    6.2266   20.6591 H   0  0  0  0  0  0  0  0  0  0  0  0
   19.4130    5.4093   18.3224 C   0  0  0  0  0  0  0  0  0  0  0  0
   18.0824    4.9176   18.0634 N   0  0  0  0  0  0  0  0  0  0  0  0
   17.2280    4.3617   18.8956 C   0  0  0  0  0  0  0  0  0  0  0  0
   17.5332    4.2798   20.0872 O   0  0  0  0  0  0  0  0  0  0  0  0
   17.7696    5.0108   17.1346 H   0  0  0  0  0  0  0  0  0  0  0  0
   15.9406    3.7412   18.3406 C   0  0  0  0  0  0  0  0  0  0  0  0
   14.8353    4.7899   18.2752 C   0  0  0  0  0  0  0  0  0  0  0  0
   13.8580    4.4514   17.1613 C   0  0  0  0  0  0  0  0  0  0  0  0
   14.0874    4.7831   19.6188 C   0  0  0  0  0  0  0  0  0  0  0  0
   20.3739    5.3081   17.1487 C   0  0  0  0  0  0  0  0  0  0  0  0
   21.8143    5.6099   17.5359 C   0  0  0  0  0  0  0  0  0  0  0  0
   20.2981    4.0035   16.3815 C   0  0  0  0  0  0  0  0  0  0  0  0
   17.9857    8.3305   21.6460 C   0  0  0  0  0  0  0  0  0  0  0  0
   16.7894    7.5332   21.1586 C   0  0  0  0  0  0  0  0  0  0  0  0
   16.4065    7.8723   20.0147 O   0  0  0  0  0  0  0  0  0  0  0  0
   16.1680    6.5600   21.7972 N   0  0  0  0  0  0  0  0  0  0  0  0
   16.4668    6.2916   22.6960 H   0  0  0  0  0  0  0  0  0  0  0  0
   15.4056    6.1023   21.3748 H   0  0  0  0  0  0  0  0  0  0  0  0
 33 32  1  0  0  0
 33 34  1  0  0  0
 37 38  1  0  0  0
 37 34  1  0  0  0
 32 41  1  0  0  0
 32 28  1  0  0  0
 38 39  1  0  0  0
 38 40  1  0  0  0
 41 42  1  0  0  0
 41 43  1  0  0  0
 34 35  2  0  0  0
 28 29  2  0  0  0
 28 30  1  0  0  0
 30 27  1  0  0  0
 27 44  1  0  0  0
 27  1  1  0  0  0
 44 45  1  0  0  0
 45 46  2  0  0  0
 45 47  1  0  0  0
  1  2  2  0  0  0
  1  3  1  0  0  0
  3  5  1  0  0  0
  5 23  1  0  0  0
  5  6  1  0  0  0
 23 24  1  0  0  0
 24 25  1  0  0  0
 24 26  1  0  0  0
  6  7  2  0  0  0
  6  8  1  0  0  0
  6 10  1  0  0  0
 10 11  1  0  0  0
 11 16  1  0  0  0
 11 12  1  0  0  0
 16 17  1  0  0  0
 14 15  1  0  0  0
 17 18  2  0  0  0
 17 19  1  0  0  0
 18 20  1  0  0  0
 19 22  2  0  0  0
 20 21  2  0  0  0
 21 22  1  0  0  0
 12 15  1  0  0  0
 12 13  2  0  0  0
 33 36  1  0  0  0
 30 31  1  0  0  0
 47 48  1  0  0  0
 47 49  1  0  0  0
  3  4  1  0  0  0
  8  9  1  0  0  0
M  END
> <minimizedAffinity>
-8.73939

$$$$
1BXQ_PP8_A_324


 49 49  0  0  0  0  0  0  0  0999 V2000
   20.7528    8.6007   21.6002 C   0  0  0  0  0  0  0  0  0  0  0  0
   21.0593    8.2079   22.7218 O   0  0  0  0  0  0  0  0  0  0  0  0
   21.5811    9.2690   20.7913 N   0  0  0  0  0  0  0  0  0  0  0  0
   21.2091    9.5536   19.9253 H   0  0  0  0  0  0  0  0  0  0  0  0
   22.9606    9.6218   21.0423 C   0  0  0  0  0  0  0  0  0  0  0  0
   23.1446   11.3779   21.3636 P   0  0  0  0  0  0  0  0  0  0  0  0
   22.1670   12.0856   20.5105 O   0  0  0  0  0  0  0  0  0  0  0  0
   24.5829   11.7633   21.1949 O   0  0  0  0  0  0  0  0  0  0  0  0
   24.8444   11.6393   20.2691 H   0  0  0  0  0  0  0  0  0  0  0  0
   22.7393   11.5838   22.8616 O   0  0  0  0  0  0  0  0  0  0  0  0
   23.0958   12.7346   23.5382 C   0  0  0  0  0  0  0  0  0  0  0  0
   23.9507   12.4787   24.7998 C   0  0  0  0  0  0  0  0  0  0  0  0
   24.4534   11.3573   24.9904 O   0  0  0  0  0  0  0  0  0  0  0  0
   25.1064   13.5892   26.5085 C   0  0  0  0  0  0  0  0  0  0  0  0
   24.0263   13.4431   25.6088 O   0  0  0  0  0  0  0  0  0  0  0  0
   21.8468   13.5377   24.0161 C   0  0  0  0  0  0  0  0  0  0  0  0
   20.6721   12.7588   24.5738 C   0  0  0  0  0  0  0  0  0  0  0  0
   19.8260   12.0585   23.7186 C   0  0  0  0  0  0  0  0  0  0  0  0
   20.4171   12.7276   25.9297 C   0  0  0  0  0  0  0  0  0  0  0  0
   18.7532   11.3473   24.2287 C   0  0  0  0  0  0  0  0  0  0  0  0
   18.5724   11.3759   25.6047 C   0  0  0  0  0  0  0  0  0  0  0  0
   19.3752   12.0470   26.5232 C   0  0  0  0  0  0  0  0  0  0  0  0
   23.9273    9.1174   19.9800 C   0  0  0  0  0  0  0  0  0  0  0  0
   23.5643    7.7736   19.3727 C   0  0  0  0  0  0  0  0  0  0  0  0
   23.8512    7.7290   17.8839 C   0  0  0  0  0  0  0  0  0  0  0  0
   24.3010    6.6245   20.0603 C   0  0  0  0  0  0  0  0  0  0  0  0
   19.3813    8.2814   21.0263 C   0  0  0  0  0  0  0  0  0  0  0  0
   19.1019    6.8419   19.0477 C   0  0  0  0  0  0  0  0  0  0  0  0
   18.6966    7.7537   18.3335 O   0  0  0  0  0  0  0  0  0  0  0  0
   19.5011    7.0197   20.3115 N   0  0  0  0  0  0  0  0  0  0  0  0
   19.8986    6.2536   20.7851 H   0  0  0  0  0  0  0  0  0  0  0  0
   19.1805    5.3807   18.5659 C   0  0  0  0  0  0  0  0  0  0  0  0
   17.9447    5.0522   17.8994 N   0  0  0  0  0  0  0  0  0  0  0  0
   16.8009    4.6623   18.4202 C   0  0  0  0  0  0  0  0  0  0  0  0
   16.6983    4.6115   19.6477 O   0  0  0  0  0  0  0  0  0  0  0  0
   17.9587    5.1306   16.9182 H   0  0  0  0  0  0  0  0  0  0  0  0
   15.6809    4.1832   17.4892 C   0  0  0  0  0  0  0  0  0  0  0  0
   14.3500    4.1606   18.2334 C   0  0  0  0  0  0  0  0  0  0  0  0
   13.2629    4.7945   17.3809 C   0  0  0  0  0  0  0  0  0  0  0  0
   13.9800    2.6938   18.5101 C   0  0  0  0  0  0  0  0  0  0  0  0
   20.4346    5.1671   17.7336 C   0  0  0  0  0  0  0  0  0  0  0  0
   20.6292    3.7159   17.3189 C   0  0  0  0  0  0  0  0  0  0  0  0
   20.5556    6.0787   16.5291 C   0  0  0  0  0  0  0  0  0  0  0  0
   18.2520    8.3273   22.0082 C   0  0  0  0  0  0  0  0  0  0  0  0
   17.2103    7.2257   21.9312 C   0  0  0  0  0  0  0  0  0  0  0  0
   17.5211    6.2089   22.5943 O   0  0  0  0  0  0  0  0  0  0  0  0
   16.0661    7.2569   21.2751 N   0  0  0  0  0  0  0  0  0  0  0  0
   15.8194    8.0545   20.7533 H   0  0  0  0  0  0  0  0  0  0  0  0
   15.4589    6.4826   21.3073 H   0  0  0  0  0  0  0  0  0  0  0  0
 33 32  1  0  0  0
 33 34  1  0  0  0
 37 38  1  0  0  0
 37 34  1  0  0  0
 32 41  1  0  0  0
 32 28  1  0  0  0
 38 39  1  0  0  0
 38 40  1  0  0  0
 41 42  1  0  0  0
 41 43  1  0  0  0
 34 35  2  0  0  0
 28 29  2  0  0  0
 28 30  1  0  0  0
 30 27  1  0  0  0
 27 44  1  0  0  0
 27  1  1  0  0  0
 44 45  1  0  0  0
 45 46  2  0  0  0
 45 47  1  0  0  0
  1  2  2  0  0  0
  1  3  1  0  0  0
  3  5  1  0  0  0
  5 23  1  0  0  0
  5  6  1  0  0  0
 23 24  1  0  0  0
 24 25  1  0  0  0
 24 26  1  0  0  0
  6  7  2  0  0  0
  6  8  1  0  0  0
  6 10  1  0  0  0
 10 11  1  0  0  0
 11 16  1  0  0  0
 11 12  1  0  0  0
 16 17  1  0  0  0
 14 15  1  0  0  0
 17 18  2  0  0  0
 17 19  1  0  0  0
 18 20  1  0  0  0
 19 22  2  0  0  0
 20 21  2  0  0  0
 21 22  1  0  0  0
 12 15  1  0  0  0
 12 13  2  0  0  0
 33 36  1  0  0  0
 30 31  1  0  0  0
 47 48  1  0  0  0
 47 49  1  0  0  0
  3  4  1  0  0  0
  8  9  1  0  0  0
M  END
> <minimizedAffinity>
-8.63690

$$$$
1BXQ_PP8_A_324


 49 49  0  0  0  0  0  0  0  0999 V2000
   21.3049    8.6962   21.7224 C   0  0  0  0  0  0  0  0  0  0  0  0
   21.8088    8.2090   22.7298 O   0  0  0  0  0  0  0  0  0  0  0  0
   21.9331    9.5571   20.9154 N   0  0  0  0  0  0  0  0  0  0  0  0
   21.4129    9.8980   20.1522 H   0  0  0  0  0  0  0  0  0  0  0  0
   23.2889   10.0449   21.0348 C   0  0  0  0  0  0  0  0  0  0  0  0
   23.3466   11.6387   21.8579 P   0  0  0  0  0  0  0  0  0  0  0  0
   21.9508   12.0846   22.0508 O   0  0  0  0  0  0  0  0  0  0  0  0
   24.2435   12.5603   21.0885 O   0  0  0  0  0  0  0  0  0  0  0  0
   23.8579   12.7322   20.2152 H   0  0  0  0  0  0  0  0  0  0  0  0
   23.9830   11.3720   23.2631 O   0  0  0  0  0  0  0  0  0  0  0  0
   24.2076   12.4111   24.1457 C   0  0  0  0  0  0  0  0  0  0  0  0
   25.6943   12.8129   24.2731 C   0  0  0  0  0  0  0  0  0  0  0  0
   26.5126   12.4397   23.4143 O   0  0  0  0  0  0  0  0  0  0  0  0
   27.1103   14.3254   25.3665 C   0  0  0  0  0  0  0  0  0  0  0  0
   25.9942   13.4602   25.3130 O   0  0  0  0  0  0  0  0  0  0  0  0
   23.7273   12.0618   25.5881 C   0  0  0  0  0  0  0  0  0  0  0  0
   22.5973   12.8815   26.1786 C   0  0  0  0  0  0  0  0  0  0  0  0
   22.3652   14.1794   25.7321 C   0  0  0  0  0  0  0  0  0  0  0  0
   21.7811   12.3643   27.1638 C   0  0  0  0  0  0  0  0  0  0  0  0
   21.3329   14.9276   26.2719 C   0  0  0  0  0  0  0  0  0  0  0  0
   20.5662   14.3264   27.2606 C   0  0  0  0  0  0  0  0  0  0  0  0
   20.7325   13.0359   27.7558 C   0  0  0  0  0  0  0  0  0  0  0  0
   24.0634   10.0354   19.7242 C   0  0  0  0  0  0  0  0  0  0  0  0
   24.0531    8.7082   18.9861 C   0  0  0  0  0  0  0  0  0  0  0  0
   24.2937    8.8855   17.4990 C   0  0  0  0  0  0  0  0  0  0  0  0
   25.0914    7.7390   19.5504 C   0  0  0  0  0  0  0  0  0  0  0  0
   19.9072    8.2822   21.2896 C   0  0  0  0  0  0  0  0  0  0  0  0
   19.2169    7.0314   19.2836 C   0  0  0  0  0  0  0  0  0  0  0  0
   18.2909    7.7924   19.0211 O   0  0  0  0  0  0  0  0  0  0  0  0
   20.0620    7.2253   20.3017 N   0  0  0  0  0  0  0  0  0  0  0  0
   20.8325    6.6185   20.3876 H   0  0  0  0  0  0  0  0  0  0  0  0
   19.4981    5.7531   18.4711 C   0  0  0  0  0  0  0  0  0  0  0  0
   20.9171    5.4980   18.4971 N   0  0  0  0  0  0  0  0  0  0  0  0
   21.8550    5.9501   17.6924 C   0  0  0  0  0  0  0  0  0  0  0  0
   21.5404    6.7549   16.8131 O   0  0  0  0  0  0  0  0  0  0  0  0
   21.2274    4.9027   19.2172 H   0  0  0  0  0  0  0  0  0  0  0  0
   23.2742    5.3811   17.8052 C   0  0  0  0  0  0  0  0  0  0  0  0
   23.7101    4.7831   16.4718 C   0  0  0  0  0  0  0  0  0  0  0  0
   24.9609    5.4844   15.9677 C   0  0  0  0  0  0  0  0  0  0  0  0
   24.0240    3.2941   16.6936 C   0  0  0  0  0  0  0  0  0  0  0  0
   18.6315    4.6089   18.9720 C   0  0  0  0  0  0  0  0  0  0  0  0
   17.3234    4.4782   18.2055 C   0  0  0  0  0  0  0  0  0  0  0  0
   19.3350    3.2687   19.0435 C   0  0  0  0  0  0  0  0  0  0  0  0
   18.9662    7.9484   22.4052 C   0  0  0  0  0  0  0  0  0  0  0  0
   18.6134    9.0568   23.3807 C   0  0  0  0  0  0  0  0  0  0  0  0
   18.1863    8.6277   24.4777 O   0  0  0  0  0  0  0  0  0  0  0  0
   18.7285   10.3564   23.1841 N   0  0  0  0  0  0  0  0  0  0  0  0
   19.0638   10.6962   22.3232 H   0  0  0  0  0  0  0  0  0  0  0  0
   18.4790   10.9863   23.8985 H   0  0  0  0  0  0  0  0  0  0  0  0
 33 32  1  0  0  0
 33 34  1  0  0  0
 37 38  1  0  0  0
 37 34  1  0  0  0
 32 41  1  0  0  0
 32 28  1  0  0  0
 38 39  1  0  0  0
 38 40  1  0  0  0
 41 42  1  0  0  0
 41 43  1  0  0  0
 34 35  2  0  0  0
 28 29  2  0  0  0
 28 30  1  0  0  0
 30 27  1  0  0  0
 27 44  1  0  0  0
 27  1  1  0  0  0
 44 45  1  0  0  0
 45 46  2  0  0  0
 45 47  1  0  0  0
  1  2  2  0  0  0
  1  3  1  0  0  0
  3  5  1  0  0  0
  5 23  1  0  0  0
  5  6  1  0  0  0
 23 24  1  0  0  0
 24 25  1  0  0  0
 24 26  1  0  0  0
  6  7  2  0  0  0
  6  8  1  0  0  0
  6 10  1  0  0  0
 10 11  1  0  0  0
 11 16  1  0  0  0
 11 12  1  0  0  0
 16 17  1  0  0  0
 14 15  1  0  0  0
 17 18  2  0  0  0
 17 19  1  0  0  0
 18 20  1  0  0  0
 19 22  2  0  0  0
 20 21  2  0  0  0
 21 22  1  0  0  0
 12 15  1  0  0  0
 12 13  2  0  0  0
 33 36  1  0  0  0
 30 31  1  0  0  0
 47 48  1  0  0  0
 47 49  1  0  0  0
  3  4  1  0  0  0
  8  9  1  0  0  0
M  END
> <minimizedAffinity>
-8.60081

$$$$
1BXQ_PP8_A_324


 49 49  0  0  0  0  0  0  0  0999 V2000
   19.7572    7.0201   18.8216 C   0  0  0  0  0  0  0  0  0  0  0  0
   19.1189    7.6907   18.0160 O   0  0  0  0  0  0  0  0  0  0  0  0
   19.6859    7.1788   20.1471 N   0  0  0  0  0  0  0  0  0  0  0  0
   20.2674    6.5966   20.6876 H   0  0  0  0  0  0  0  0  0  0  0  0
   18.8527    8.1073   20.8778 C   0  0  0  0  0  0  0  0  0  0  0  0
   19.7786    8.9575   22.1588 P   0  0  0  0  0  0  0  0  0  0  0  0
   20.3673    7.9233   23.0353 O   0  0  0  0  0  0  0  0  0  0  0  0
   18.8933    9.9702   22.8193 O   0  0  0  0  0  0  0  0  0  0  0  0
   18.1697    9.5162   23.2790 H   0  0  0  0  0  0  0  0  0  0  0  0
   20.9397    9.7060   21.4224 O   0  0  0  0  0  0  0  0  0  0  0  0
   22.1738    9.8613   22.0242 C   0  0  0  0  0  0  0  0  0  0  0  0
   22.2422   11.0465   23.0135 C   0  0  0  0  0  0  0  0  0  0  0  0
   23.1038   11.0559   23.9102 O   0  0  0  0  0  0  0  0  0  0  0  0
   20.8199   12.6423   23.9720 C   0  0  0  0  0  0  0  0  0  0  0  0
   21.3441   11.9209   22.8756 O   0  0  0  0  0  0  0  0  0  0  0  0
   23.3040   10.1045   20.9769 C   0  0  0  0  0  0  0  0  0  0  0  0
   23.7848    8.9199   20.1626 C   0  0  0  0  0  0  0  0  0  0  0  0
   23.6238    7.6248   20.6469 C   0  0  0  0  0  0  0  0  0  0  0  0
   24.3881    9.0974   18.9343 C   0  0  0  0  0  0  0  0  0  0  0  0
   24.0632    6.5432   19.9026 C   0  0  0  0  0  0  0  0  0  0  0  0
   24.6614    6.8178   18.6805 C   0  0  0  0  0  0  0  0  0  0  0  0
   24.8541    8.0809   18.1275 C   0  0  0  0  0  0  0  0  0  0  0  0
   17.5604    7.4946   21.3995 C   0  0  0  0  0  0  0  0  0  0  0  0
   16.3886    7.5588   20.4356 C   0  0  0  0  0  0  0  0  0  0  0  0
   16.1726    6.2400   19.7181 C   0  0  0  0  0  0  0  0  0  0  0  0
   15.0955    7.9627   21.1433 C   0  0  0  0  0  0  0  0  0  0  0  0
   20.6504    5.8887   18.3373 C   0  0  0  0  0  0  0  0  0  0  0  0
   18.9261    4.1388   18.1648 C   0  0  0  0  0  0  0  0  0  0  0  0
   18.4121    4.6221   17.1609 O   0  0  0  0  0  0  0  0  0  0  0  0
   20.0201    4.6426   18.7459 N   0  0  0  0  0  0  0  0  0  0  0  0
   20.4217    4.1421   19.4925 H   0  0  0  0  0  0  0  0  0  0  0  0
   18.3531    2.8990   18.8774 C   0  0  0  0  0  0  0  0  0  0  0  0
   17.1496    2.4946   18.1937 N   0  0  0  0  0  0  0  0  0  0  0  0
   15.9313    2.3580   18.6718 C   0  0  0  0  0  0  0  0  0  0  0  0
   15.7213    2.6628   19.8477 O   0  0  0  0  0  0  0  0  0  0  0  0
   17.2541    2.2924   17.2358 H   0  0  0  0  0  0  0  0  0  0  0  0
   14.8489    1.7260   17.7889 C   0  0  0  0  0  0  0  0  0  0  0  0
   13.6066    2.6102   17.7632 C   0  0  0  0  0  0  0  0  0  0  0  0
   13.9360    3.9575   17.1415 C   0  0  0  0  0  0  0  0  0  0  0  0
   12.5372    1.9103   16.9079 C   0  0  0  0  0  0  0  0  0  0  0  0
   19.4174    1.8199   18.9952 C   0  0  0  0  0  0  0  0  0  0  0  0
   18.9445    0.6061   19.7818 C   0  0  0  0  0  0  0  0  0  0  0  0
   20.0262    1.3873   17.6767 C   0  0  0  0  0  0  0  0  0  0  0  0
   21.0212    5.9441   16.8878 C   0  0  0  0  0  0  0  0  0  0  0  0
   22.3004    5.2453   16.4638 C   0  0  0  0  0  0  0  0  0  0  0  0
   23.0289    5.9559   15.7328 O   0  0  0  0  0  0  0  0  0  0  0  0
   22.6907    4.0294   16.7959 N   0  0  0  0  0  0  0  0  0  0  0  0
   22.1202    3.4690   17.3701 H   0  0  0  0  0  0  0  0  0  0  0  0
   23.5523    3.6827   16.4695 H   0  0  0  0  0  0  0  0  0  0  0  0
 33 32  1  0  0  0
 33 34  1  0  0  0
 37 38  1  0  0  0
 37 34  1  0  0  0
 32 41  1  0  0  0
 32 28  1  0  0  0
 38 39  1  0  0  0
 38 40  1  0  0  0
 41 42  1  0  0  0
 41 43  1  0  0  0
 34 35  2  0  0  0
 28 29  2  0  0  0
 28 30  1  0  0  0
 30 27  1  0  0  0
 27 44  1  0  0  0
 27  1  1  0  0  0
 44 45  1  0  0  0
 45 46  2  0  0  0
 45 47  1  0  0  0
  1  2  2  0  0  0
  1  3  1  0  0  0
  3  5  1  0  0  0
  5 23  1  0  0  0
  5  6  1  0  0  0
 23 24  1  0  0  0
 24 25  1  0  0  0
 24 26  1  0  0  0
  6  7  2  0  0  0
  6  8  1  0  0  0
  6 10  1  0  0  0
 10 11  1  0  0  0
 11 16  1  0  0  0
 11 12  1  0  0  0
 16 17  1  0  0  0
 14 15  1  0  0  0
 17 18  2  0  0  0
 17 19  1  0  0  0
 18 20  1  0  0  0
 19 22  2  0  0  0
 20 21  2  0  0  0
 21 22  1  0  0  0
 12 15  1  0  0  0
 12 13  2  0  0  0
 33 36  1  0  0  0
 30 31  1  0  0  0
 47 48  1  0  0  0
 47 49  1  0  0  0
  3  4  1  0  0  0
  8  9  1  0  0  0
M  END
> <minimizedAffinity>
-8.48933

$$$$
1BXQ_PP8_A_324


 49 49  0  0  0  0  0  0  0  0999 V2000
   21.3209    8.4618   21.7046 C   0  0  0  0  0  0  0  0  0  0  0  0
   21.6205    8.4279   22.8943 O   0  0  0  0  0  0  0  0  0  0  0  0
   22.0553    9.0691   20.7671 N   0  0  0  0  0  0  0  0  0  0  0  0
   21.6953    9.0494   19.8510 H   0  0  0  0  0  0  0  0  0  0  0  0
   23.3175    9.7516   20.9443 C   0  0  0  0  0  0  0  0  0  0  0  0
   23.0797   11.4722   21.3959 P   0  0  0  0  0  0  0  0  0  0  0  0
   21.6408   11.7722   21.2417 O   0  0  0  0  0  0  0  0  0  0  0  0
   24.0293   12.3252   20.6110 O   0  0  0  0  0  0  0  0  0  0  0  0
   23.8089   12.2709   19.6680 H   0  0  0  0  0  0  0  0  0  0  0  0
   23.4491   11.5711   22.9140 O   0  0  0  0  0  0  0  0  0  0  0  0
   24.0090   12.7236   23.4312 C   0  0  0  0  0  0  0  0  0  0  0  0
   24.6766   12.5296   24.8113 C   0  0  0  0  0  0  0  0  0  0  0  0
   24.4717   11.4869   25.4573 O   0  0  0  0  0  0  0  0  0  0  0  0
   26.7680   13.5099   25.2029 C   0  0  0  0  0  0  0  0  0  0  0  0
   25.3550   13.5075   25.2281 O   0  0  0  0  0  0  0  0  0  0  0  0
   22.9479   13.8518   23.6172 C   0  0  0  0  0  0  0  0  0  0  0  0
   21.9522   13.7105   24.7512 C   0  0  0  0  0  0  0  0  0  0  0  0
   21.9912   14.5875   25.8316 C   0  0  0  0  0  0  0  0  0  0  0  0
   20.9939   12.7176   24.7385 C   0  0  0  0  0  0  0  0  0  0  0  0
   21.0814   14.4578   26.8671 C   0  0  0  0  0  0  0  0  0  0  0  0
   20.1560   13.4278   26.7705 C   0  0  0  0  0  0  0  0  0  0  0  0
   20.0508   12.5157   25.7239 C   0  0  0  0  0  0  0  0  0  0  0  0
   24.2778    9.5814   19.7753 C   0  0  0  0  0  0  0  0  0  0  0  0
   24.1332    8.2747   19.0151 C   0  0  0  0  0  0  0  0  0  0  0  0
   24.1516    8.4882   17.5135 C   0  0  0  0  0  0  0  0  0  0  0  0
   25.2268    7.2762   19.3934 C   0  0  0  0  0  0  0  0  0  0  0  0
   20.0823    7.7337   21.2068 C   0  0  0  0  0  0  0  0  0  0  0  0
   18.0985    6.8926   22.3994 C   0  0  0  0  0  0  0  0  0  0  0  0
   17.9620    5.9191   21.6651 O   0  0  0  0  0  0  0  0  0  0  0  0
   19.1072    7.7632   22.2864 N   0  0  0  0  0  0  0  0  0  0  0  0
   19.1950    8.4639   22.9724 H   0  0  0  0  0  0  0  0  0  0  0  0
   17.1065    7.2270   23.5296 C   0  0  0  0  0  0  0  0  0  0  0  0
   17.7198    8.1955   24.4043 N   0  0  0  0  0  0  0  0  0  0  0  0
   17.5929    8.3329   25.7069 C   0  0  0  0  0  0  0  0  0  0  0  0
   16.9144    7.5090   26.3238 O   0  0  0  0  0  0  0  0  0  0  0  0
   18.3166    8.8442   23.9660 H   0  0  0  0  0  0  0  0  0  0  0  0
   18.1973    9.5650   26.3904 C   0  0  0  0  0  0  0  0  0  0  0  0
   17.2054   10.1545   27.3876 C   0  0  0  0  0  0  0  0  0  0  0  0
   17.8734   10.3453   28.7396 C   0  0  0  0  0  0  0  0  0  0  0  0
   16.7469   11.5228   26.8563 C   0  0  0  0  0  0  0  0  0  0  0  0
   15.7663    7.6465   22.9475 C   0  0  0  0  0  0  0  0  0  0  0  0
   15.8599    8.0617   21.4865 C   0  0  0  0  0  0  0  0  0  0  0  0
   14.6521    6.6370   23.1367 C   0  0  0  0  0  0  0  0  0  0  0  0
   19.5533    8.2028   19.8871 C   0  0  0  0  0  0  0  0  0  0  0  0
   19.3813    7.1661   18.7916 C   0  0  0  0  0  0  0  0  0  0  0  0
   19.1043    7.6697   17.6782 O   0  0  0  0  0  0  0  0  0  0  0  0
   19.5079    5.8578   18.9071 N   0  0  0  0  0  0  0  0  0  0  0  0
   19.7255    5.4595   19.7807 H   0  0  0  0  0  0  0  0  0  0  0  0
   19.3849    5.2800   18.1195 H   0  0  0  0  0  0  0  0  0  0  0  0
 33 32  1  0  0  0
 33 34  1  0  0  0
 37 38  1  0  0  0
 37 34  1  0  0  0
 32 41  1  0  0  0
 32 28  1  0  0  0
 38 39  1  0  0  0
 38 40  1  0  0  0
 41 42  1  0  0  0
 41 43  1  0  0  0
 34 35  2  0  0  0
 28 29  2  0  0  0
 28 30  1  0  0  0
 30 27  1  0  0  0
 27 44  1  0  0  0
 27  1  1  0  0  0
 44 45  1  0  0  0
 45 46  2  0  0  0
 45 47  1  0  0  0
  1  2  2  0  0  0
  1  3  1  0  0  0
  3  5  1  0  0  0
  5 23  1  0  0  0
  5  6  1  0  0  0
 23 24  1  0  0  0
 24 25  1  0  0  0
 24 26  1  0  0  0
  6  7  2  0  0  0
  6  8  1  0  0  0
  6 10  1  0  0  0
 10 11  1  0  0  0
 11 16  1  0  0  0
 11 12  1  0  0  0
 16 17  1  0  0  0
 14 15  1  0  0  0
 17 18  2  0  0  0
 17 19  1  0  0  0
 18 20  1  0  0  0
 19 22  2  0  0  0
 20 21  2  0  0  0
 21 22  1  0  0  0
 12 15  1  0  0  0
 12 13  2  0  0  0
 33 36  1  0  0  0
 30 31  1  0  0  0
 47 48  1  0  0  0
 47 49  1  0  0  0
  3  4  1  0  0  0
  8  9  1  0  0  0
M  END
> <minimizedAffinity>
-8.45878

$$$$
1BXQ_PP8_A_324


 49 49  0  0  0  0  0  0  0  0999 V2000
   19.4442    7.6572   20.0155 C   0  0  0  0  0  0  0  0  0  0  0  0
   18.5751    8.1605   19.3102 O   0  0  0  0  0  0  0  0  0  0  0  0
   20.3402    6.7681   19.5755 N   0  0  0  0  0  0  0  0  0  0  0  0
   20.9709    6.4171   20.2450 H   0  0  0  0  0  0  0  0  0  0  0  0
   20.4894    6.2629   18.2290 C   0  0  0  0  0  0  0  0  0  0  0  0
   19.4980    4.7907   17.9631 P   0  0  0  0  0  0  0  0  0  0  0  0
   19.7039    3.9057   19.1287 O   0  0  0  0  0  0  0  0  0  0  0  0
   19.8214    4.2132   16.6186 O   0  0  0  0  0  0  0  0  0  0  0  0
   20.7432    3.9113   16.6096 H   0  0  0  0  0  0  0  0  0  0  0  0
   18.0085    5.2724   17.9604 O   0  0  0  0  0  0  0  0  0  0  0  0
   17.0968    4.7543   18.8603 C   0  0  0  0  0  0  0  0  0  0  0  0
   16.2923    3.5534   18.3138 C   0  0  0  0  0  0  0  0  0  0  0  0
   16.2218    2.5027   18.9751 O   0  0  0  0  0  0  0  0  0  0  0  0
   14.4383    3.4544   16.8850 C   0  0  0  0  0  0  0  0  0  0  0  0
   15.8005    3.7084   17.1630 O   0  0  0  0  0  0  0  0  0  0  0  0
   16.0440    5.8189   19.2981 C   0  0  0  0  0  0  0  0  0  0  0  0
   15.7665    5.9759   20.7799 C   0  0  0  0  0  0  0  0  0  0  0  0
   14.9202    6.9847   21.2314 C   0  0  0  0  0  0  0  0  0  0  0  0
   16.3420    5.1303   21.7062 C   0  0  0  0  0  0  0  0  0  0  0  0
   14.6671    7.1276   22.5851 C   0  0  0  0  0  0  0  0  0  0  0  0
   15.2927    6.2336   23.4432 C   0  0  0  0  0  0  0  0  0  0  0  0
   16.1461    5.1990   23.0693 C   0  0  0  0  0  0  0  0  0  0  0  0
   21.9379    6.0780   17.7987 C   0  0  0  0  0  0  0  0  0  0  0  0
   22.9250    7.0277   18.4543 C   0  0  0  0  0  0  0  0  0  0  0  0
   23.8639    6.3041   19.4006 C   0  0  0  0  0  0  0  0  0  0  0  0
   23.7482    7.7921   17.4179 C   0  0  0  0  0  0  0  0  0  0  0  0
   19.5911    8.0818   21.4682 C   0  0  0  0  0  0  0  0  0  0  0  0
   21.5857    9.3531   22.1544 C   0  0  0  0  0  0  0  0  0  0  0  0
   22.1000    8.4016   22.7338 O   0  0  0  0  0  0  0  0  0  0  0  0
   20.4323    9.2689   21.4828 N   0  0  0  0  0  0  0  0  0  0  0  0
   20.1357   10.0547   20.9692 H   0  0  0  0  0  0  0  0  0  0  0  0
   22.2109   10.7610   22.1511 C   0  0  0  0  0  0  0  0  0  0  0  0
   22.0299   11.3444   23.4573 N   0  0  0  0  0  0  0  0  0  0  0  0
   21.0102   12.0340   23.9226 C   0  0  0  0  0  0  0  0  0  0  0  0
   20.0196   12.1801   23.2036 O   0  0  0  0  0  0  0  0  0  0  0  0
   22.7725   11.2078   24.0890 H   0  0  0  0  0  0  0  0  0  0  0  0
   21.1328   12.7190   25.2887 C   0  0  0  0  0  0  0  0  0  0  0  0
   21.3611   14.2161   25.1093 C   0  0  0  0  0  0  0  0  0  0  0  0
   21.3967   14.9059   26.4633 C   0  0  0  0  0  0  0  0  0  0  0  0
   22.7156   14.4143   24.4088 C   0  0  0  0  0  0  0  0  0  0  0  0
   23.6521   10.6965   21.6716 C   0  0  0  0  0  0  0  0  0  0  0  0
   23.7789   10.1759   20.2474 C   0  0  0  0  0  0  0  0  0  0  0  0
   24.4285   11.9882   21.8302 C   0  0  0  0  0  0  0  0  0  0  0  0
   18.3067    8.2288   22.2233 C   0  0  0  0  0  0  0  0  0  0  0  0
   18.3965    8.5269   23.7091 C   0  0  0  0  0  0  0  0  0  0  0  0
   18.4353    7.4928   24.4158 O   0  0  0  0  0  0  0  0  0  0  0  0
   18.4500    9.7149   24.2807 N   0  0  0  0  0  0  0  0  0  0  0  0
   18.4197   10.5289   23.7278 H   0  0  0  0  0  0  0  0  0  0  0  0
   18.5201    9.7872   25.2600 H   0  0  0  0  0  0  0  0  0  0  0  0
 33 32  1  0  0  0
 33 34  1  0  0  0
 37 38  1  0  0  0
 37 34  1  0  0  0
 32 41  1  0  0  0
 32 28  1  0  0  0
 38 39  1  0  0  0
 38 40  1  0  0  0
 41 42  1  0  0  0
 41 43  1  0  0  0
 34 35  2  0  0  0
 28 29  2  0  0  0
 28 30  1  0  0  0
 30 27  1  0  0  0
 27 44  1  0  0  0
 27  1  1  0  0  0
 44 45  1  0  0  0
 45 46  2  0  0  0
 45 47  1  0  0  0
  1  2  2  0  0  0
  1  3  1  0  0  0
  3  5  1  0  0  0
  5 23  1  0  0  0
  5  6  1  0  0  0
 23 24  1  0  0  0
 24 25  1  0  0  0
 24 26  1  0  0  0
  6  7  2  0  0  0
  6  8  1  0  0  0
  6 10  1  0  0  0
 10 11  1  0  0  0
 11 16  1  0  0  0
 11 12  1  0  0  0
 16 17  1  0  0  0
 14 15  1  0  0  0
 17 18  2  0  0  0
 17 19  1  0  0  0
 18 20  1  0  0  0
 19 22  2  0  0  0
 20 21  2  0  0  0
 21 22  1  0  0  0
 12 15  1  0  0  0
 12 13  2  0  0  0
 33 36  1  0  0  0
 30 31  1  0  0  0
 47 48  1  0  0  0
 47 49  1  0  0  0
  3  4  1  0  0  0
  8  9  1  0  0  0
M  END
> <minimizedAffinity>
-8.39683

$$$$
1BXQ_PP8_A_324


 49 49  0  0  0  0  0  0  0  0999 V2000
   19.6600    7.0167   18.9331 C   0  0  0  0  0  0  0  0  0  0  0  0
   18.5419    7.3277   18.5339 O   0  0  0  0  0  0  0  0  0  0  0  0
   20.1596    7.3866   20.1166 N   0  0  0  0  0  0  0  0  0  0  0  0
   21.0796    7.0955   20.3115 H   0  0  0  0  0  0  0  0  0  0  0  0
   19.5036    8.1653   21.1431 C   0  0  0  0  0  0  0  0  0  0  0  0
   20.6869    9.0823   22.1331 P   0  0  0  0  0  0  0  0  0  0  0  0
   21.5208    8.0939   22.8486 O   0  0  0  0  0  0  0  0  0  0  0  0
   19.9558   10.0794   22.9796 O   0  0  0  0  0  0  0  0  0  0  0  0
   19.3916    9.6120   23.6153 H   0  0  0  0  0  0  0  0  0  0  0  0
   21.5918    9.8525   21.1139 O   0  0  0  0  0  0  0  0  0  0  0  0
   22.8869   10.2034   21.4437 C   0  0  0  0  0  0  0  0  0  0  0  0
   23.0228   11.6372   22.0039 C   0  0  0  0  0  0  0  0  0  0  0  0
   22.0093   12.3415   22.1559 O   0  0  0  0  0  0  0  0  0  0  0  0
   24.6881   12.2988   23.5131 C   0  0  0  0  0  0  0  0  0  0  0  0
   24.2033   12.0281   22.2135 O   0  0  0  0  0  0  0  0  0  0  0  0
   23.8409   10.1265   20.2119 C   0  0  0  0  0  0  0  0  0  0  0  0
   24.0490    8.7751   19.5578 C   0  0  0  0  0  0  0  0  0  0  0  0
   23.9356    7.6083   20.3083 C   0  0  0  0  0  0  0  0  0  0  0  0
   24.3536    8.6724   18.2158 C   0  0  0  0  0  0  0  0  0  0  0  0
   24.1259    6.3742   19.7103 C   0  0  0  0  0  0  0  0  0  0  0  0
   24.4324    6.3681   18.3565 C   0  0  0  0  0  0  0  0  0  0  0  0
   24.5584    7.4884   17.5395 C   0  0  0  0  0  0  0  0  0  0  0  0
   18.5270    7.3641   21.9928 C   0  0  0  0  0  0  0  0  0  0  0  0
   17.2221    8.0745   22.3070 C   0  0  0  0  0  0  0  0  0  0  0  0
   16.1555    7.7853   21.2681 C   0  0  0  0  0  0  0  0  0  0  0  0
   16.6913    7.6971   23.6897 C   0  0  0  0  0  0  0  0  0  0  0  0
   20.5457    6.1079   18.0954 C   0  0  0  0  0  0  0  0  0  0  0  0
   19.3664    3.9555   18.2995 C   0  0  0  0  0  0  0  0  0  0  0  0
   18.5235    4.2378   17.4537 O   0  0  0  0  0  0  0  0  0  0  0  0
   20.3873    4.7588   18.6170 N   0  0  0  0  0  0  0  0  0  0  0  0
   21.0703    4.4182   19.2388 H   0  0  0  0  0  0  0  0  0  0  0  0
   19.3300    2.6417   19.1032 C   0  0  0  0  0  0  0  0  0  0  0  0
   18.0847    2.5837   19.8279 N   0  0  0  0  0  0  0  0  0  0  0  0
   17.8722    2.2590   21.0853 C   0  0  0  0  0  0  0  0  0  0  0  0
   18.8440    2.0204   21.8053 O   0  0  0  0  0  0  0  0  0  0  0  0
   17.2816    2.8200   19.3097 H   0  0  0  0  0  0  0  0  0  0  0  0
   16.4311    2.0828   21.5780 C   0  0  0  0  0  0  0  0  0  0  0  0
   15.9117    3.3900   22.1672 C   0  0  0  0  0  0  0  0  0  0  0  0
   17.0582    4.1834   22.7724 C   0  0  0  0  0  0  0  0  0  0  0  0
   15.2780    4.2100   21.0310 C   0  0  0  0  0  0  0  0  0  0  0  0
   19.5956    1.4568   18.1886 C   0  0  0  0  0  0  0  0  0  0  0  0
   20.7243    1.7135   17.2007 C   0  0  0  0  0  0  0  0  0  0  0  0
   19.8155    0.1412   18.9077 C   0  0  0  0  0  0  0  0  0  0  0  0
   20.3569    6.2209   16.6145 C   0  0  0  0  0  0  0  0  0  0  0  0
   20.5594    7.5868   15.9837 C   0  0  0  0  0  0  0  0  0  0  0  0
   21.7533    7.8148   15.6793 O   0  0  0  0  0  0  0  0  0  0  0  0
   19.6332    8.4918   15.7310 N   0  0  0  0  0  0  0  0  0  0  0  0
   18.6944    8.3152   15.9692 H   0  0  0  0  0  0  0  0  0  0  0  0
   19.8809    9.3437   15.3042 H   0  0  0  0  0  0  0  0  0  0  0  0
 33 32  1  0  0  0
 33 34  1  0  0  0
 37 38  1  0  0  0
 37 34  1  0  0  0
 32 41  1  0  0  0
 32 28  1  0  0  0
 38 39  1  0  0  0
 38 40  1  0  0  0
 41 42  1  0  0  0
 41 43  1  0  0  0
 34 35  2  0  0  0
 28 29  2  0  0  0
 28 30  1  0  0  0
 30 27  1  0  0  0
 27 44  1  0  0  0
 27  1  1  0  0  0
 44 45  1  0  0  0
 45 46  2  0  0  0
 45 47  1  0  0  0
  1  2  2  0  0  0
  1  3  1  0  0  0
  3  5  1  0  0  0
  5 23  1  0  0  0
  5  6  1  0  0  0
 23 24  1  0  0  0
 24 25  1  0  0  0
 24 26  1  0  0  0
  6  7  2  0  0  0
  6  8  1  0  0  0
  6 10  1  0  0  0
 10 11  1  0  0  0
 11 16  1  0  0  0
 11 12  1  0  0  0
 16 17  1  0  0  0
 14 15  1  0  0  0
 17 18  2  0  0  0
 17 19  1  0  0  0
 18 20  1  0  0  0
 19 22  2  0  0  0
 20 21  2  0  0  0
 21 22  1  0  0  0
 12 15  1  0  0  0
 12 13  2  0  0  0
 33 36  1  0  0  0
 30 31  1  0  0  0
 47 48  1  0  0  0
 47 49  1  0  0  0
  3  4  1  0  0  0
  8  9  1  0  0  0
M  END
> <minimizedAffinity>
-8.39468

$$$$
1BXQ_PP8_A_324


 49 49  0  0  0  0  0  0  0  0999 V2000
   18.7623    7.2210   20.2879 C   0  0  0  0  0  0  0  0  0  0  0  0
   18.6817    8.1717   19.5161 O   0  0  0  0  0  0  0  0  0  0  0  0
   19.0555    7.3371   21.5870 N   0  0  0  0  0  0  0  0  0  0  0  0
   19.1167    6.4970   22.0967 H   0  0  0  0  0  0  0  0  0  0  0  0
   19.2930    8.5549   22.3293 C   0  0  0  0  0  0  0  0  0  0  0  0
   21.0334    8.9929   22.3389 P   0  0  0  0  0  0  0  0  0  0  0  0
   21.3410    9.6007   21.0273 O   0  0  0  0  0  0  0  0  0  0  0  0
   21.8431    7.7932   22.7272 O   0  0  0  0  0  0  0  0  0  0  0  0
   21.7511    7.1073   22.0475 H   0  0  0  0  0  0  0  0  0  0  0  0
   21.1928   10.0889   23.4454 O   0  0  0  0  0  0  0  0  0  0  0  0
   21.5251   11.3877   23.1106 C   0  0  0  0  0  0  0  0  0  0  0  0
   22.9847   11.7664   23.4487 C   0  0  0  0  0  0  0  0  0  0  0  0
   23.5584   11.2248   24.4099 O   0  0  0  0  0  0  0  0  0  0  0  0
   23.9908   12.4347   21.4413 C   0  0  0  0  0  0  0  0  0  0  0  0
   23.4865   12.6798   22.7386 O   0  0  0  0  0  0  0  0  0  0  0  0
   20.6252   12.4260   23.8491 C   0  0  0  0  0  0  0  0  0  0  0  0
   19.9139   11.9794   25.1109 C   0  0  0  0  0  0  0  0  0  0  0  0
   18.5749   11.6016   25.0643 C   0  0  0  0  0  0  0  0  0  0  0  0
   20.5718   11.9384   26.3232 C   0  0  0  0  0  0  0  0  0  0  0  0
   17.9258   11.1938   26.2173 C   0  0  0  0  0  0  0  0  0  0  0  0
   18.6662   11.1878   27.3914 C   0  0  0  0  0  0  0  0  0  0  0  0
   20.0056   11.5460   27.5177 C   0  0  0  0  0  0  0  0  0  0  0  0
   18.6827    8.5538   23.7239 C   0  0  0  0  0  0  0  0  0  0  0  0
   17.7965    7.3596   24.0322 C   0  0  0  0  0  0  0  0  0  0  0  0
   17.7204    7.0803   25.5211 C   0  0  0  0  0  0  0  0  0  0  0  0
   16.3823    7.5483   23.4841 C   0  0  0  0  0  0  0  0  0  0  0  0
   18.4605    5.8125   19.8005 C   0  0  0  0  0  0  0  0  0  0  0  0
   19.3063    4.8907   17.6793 C   0  0  0  0  0  0  0  0  0  0  0  0
   18.1878    4.7415   17.1973 O   0  0  0  0  0  0  0  0  0  0  0  0
   19.5230    5.4437   18.8774 N   0  0  0  0  0  0  0  0  0  0  0  0
   20.4540    5.6107   19.1503 H   0  0  0  0  0  0  0  0  0  0  0  0
   20.5899    4.4397   16.9564 C   0  0  0  0  0  0  0  0  0  0  0  0
   21.7227    5.0276   17.6274 N   0  0  0  0  0  0  0  0  0  0  0  0
   22.7070    5.7400   17.1220 C   0  0  0  0  0  0  0  0  0  0  0  0
   22.6737    6.0251   15.9231 O   0  0  0  0  0  0  0  0  0  0  0  0
   21.7659    4.8746   18.5990 H   0  0  0  0  0  0  0  0  0  0  0  0
   23.9055    6.0940   18.0100 C   0  0  0  0  0  0  0  0  0  0  0  0
   23.5945    7.3299   18.8476 C   0  0  0  0  0  0  0  0  0  0  0  0
   24.1749    7.1754   20.2439 C   0  0  0  0  0  0  0  0  0  0  0  0
   24.2425    8.5467   18.1662 C   0  0  0  0  0  0  0  0  0  0  0  0
   20.6265    2.9241   16.8439 C   0  0  0  0  0  0  0  0  0  0  0  0
   22.0147    2.3879   16.5260 C   0  0  0  0  0  0  0  0  0  0  0  0
   20.0382    2.1887   18.0311 C   0  0  0  0  0  0  0  0  0  0  0  0
   18.2049    4.8052   20.8783 C   0  0  0  0  0  0  0  0  0  0  0  0
   17.0591    3.8313   20.6708 C   0  0  0  0  0  0  0  0  0  0  0  0
   16.3262    3.7133   21.6802 O   0  0  0  0  0  0  0  0  0  0  0  0
   16.7805    3.1523   19.5743 N   0  0  0  0  0  0  0  0  0  0  0  0
   17.3547    3.2432   18.7798 H   0  0  0  0  0  0  0  0  0  0  0  0
   15.9984    2.5549   19.5507 H   0  0  0  0  0  0  0  0  0  0  0  0
 33 32  1  0  0  0
 33 34  1  0  0  0
 37 38  1  0  0  0
 37 34  1  0  0  0
 32 41  1  0  0  0
 32 28  1  0  0  0
 38 39  1  0  0  0
 38 40  1  0  0  0
 41 42  1  0  0  0
 41 43  1  0  0  0
 34 35  2  0  0  0
 28 29  2  0  0  0
 28 30  1  0  0  0
 30 27  1  0  0  0
 27 44  1  0  0  0
 27  1  1  0  0  0
 44 45  1  0  0  0
 45 46  2  0  0  0
 45 47  1  0  0  0
  1  2  2  0  0  0
  1  3  1  0  0  0
  3  5  1  0  0  0
  5 23  1  0  0  0
  5  6  1  0  0  0
 23 24  1  0  0  0
 24 25  1  0  0  0
 24 26  1  0  0  0
  6  7  2  0  0  0
  6  8  1  0  0  0
  6 10  1  0  0  0
 10 11  1  0  0  0
 11 16  1  0  0  0
 11 12  1  0  0  0
 16 17  1  0  0  0
 14 15  1  0  0  0
 17 18  2  0  0  0
 17 19  1  0  0  0
 18 20  1  0  0  0
 19 22  2  0  0  0
 20 21  2  0  0  0
 21 22  1  0  0  0
 12 15  1  0  0  0
 12 13  2  0  0  0
 33 36  1  0  0  0
 30 31  1  0  0  0
 47 48  1  0  0  0
 47 49  1  0  0  0
  3  4  1  0  0  0
  8  9  1  0  0  0
M  END
> <minimizedAffinity>
-8.21020

$$$$
1BXQ_PP8_A_324


 49 49  0  0  0  0  0  0  0  0999 V2000
   20.2544    5.9178   17.8063 C   0  0  0  0  0  0  0  0  0  0  0  0
   19.4837    6.2087   16.8966 O   0  0  0  0  0  0  0  0  0  0  0  0
   20.3353    4.7019   18.3557 N   0  0  0  0  0  0  0  0  0  0  0  0
   20.9750    4.6003   19.0971 H   0  0  0  0  0  0  0  0  0  0  0  0
   19.5909    3.5188   17.9861 C   0  0  0  0  0  0  0  0  0  0  0  0
   18.2875    3.1633   19.1675 P   0  0  0  0  0  0  0  0  0  0  0  0
   18.2920    4.2515   20.1676 O   0  0  0  0  0  0  0  0  0  0  0  0
   18.4626    1.7707   19.6926 O   0  0  0  0  0  0  0  0  0  0  0  0
   19.2908    1.7162   20.1946 H   0  0  0  0  0  0  0  0  0  0  0  0
   16.9477    3.2338   18.3609 O   0  0  0  0  0  0  0  0  0  0  0  0
   15.7549    3.5214   18.9962 C   0  0  0  0  0  0  0  0  0  0  0  0
   14.5955    2.5768   18.6067 C   0  0  0  0  0  0  0  0  0  0  0  0
   13.4179    2.9432   18.7659 O   0  0  0  0  0  0  0  0  0  0  0  0
   14.5341    0.9253   16.9463 C   0  0  0  0  0  0  0  0  0  0  0  0
   14.9401    1.4336   18.2009 O   0  0  0  0  0  0  0  0  0  0  0  0
   15.2619    4.9670   18.6790 C   0  0  0  0  0  0  0  0  0  0  0  0
   15.0097    5.9032   19.8441 C   0  0  0  0  0  0  0  0  0  0  0  0
   15.3481    7.2500   19.7471 C   0  0  0  0  0  0  0  0  0  0  0  0
   14.4448    5.4451   21.0169 C   0  0  0  0  0  0  0  0  0  0  0  0
   15.1174    8.1045   20.8117 C   0  0  0  0  0  0  0  0  0  0  0  0
   14.5487    7.5546   21.9523 C   0  0  0  0  0  0  0  0  0  0  0  0
   14.1797    6.2231   22.1239 C   0  0  0  0  0  0  0  0  0  0  0  0
   20.4659    2.3067   17.6986 C   0  0  0  0  0  0  0  0  0  0  0  0
   21.1898    2.3437   16.3641 C   0  0  0  0  0  0  0  0  0  0  0  0
   22.6450    2.7420   16.5201 C   0  0  0  0  0  0  0  0  0  0  0  0
   21.1122    0.9994   15.6410 C   0  0  0  0  0  0  0  0  0  0  0  0
   21.2387    6.9497   18.3342 C   0  0  0  0  0  0  0  0  0  0  0  0
   19.8187    7.8057   20.1552 C   0  0  0  0  0  0  0  0  0  0  0  0
   18.9224    8.1720   19.4016 O   0  0  0  0  0  0  0  0  0  0  0  0
   20.9170    7.1681   19.7363 N   0  0  0  0  0  0  0  0  0  0  0  0
   21.5433    6.8270   20.4150 H   0  0  0  0  0  0  0  0  0  0  0  0
   19.7815    8.0565   21.6748 C   0  0  0  0  0  0  0  0  0  0  0  0
   20.5652    9.2319   21.9633 N   0  0  0  0  0  0  0  0  0  0  0  0
   21.8016    9.3152   22.4061 C   0  0  0  0  0  0  0  0  0  0  0  0
   22.4462    8.2750   22.5552 O   0  0  0  0  0  0  0  0  0  0  0  0
   20.1123   10.0920   21.8072 H   0  0  0  0  0  0  0  0  0  0  0  0
   22.3555   10.6828   22.8224 C   0  0  0  0  0  0  0  0  0  0  0  0
   23.5473   11.0575   21.9477 C   0  0  0  0  0  0  0  0  0  0  0  0
   23.0666   11.5705   20.6001 C   0  0  0  0  0  0  0  0  0  0  0  0
   24.3323   12.1725   22.6587 C   0  0  0  0  0  0  0  0  0  0  0  0
   18.3435    8.1081   22.1653 C   0  0  0  0  0  0  0  0  0  0  0  0
   17.8490    6.7680   22.6899 C   0  0  0  0  0  0  0  0  0  0  0  0
   18.0590    9.2041   23.1723 C   0  0  0  0  0  0  0  0  0  0  0  0
   22.6817    6.6470   18.0741 C   0  0  0  0  0  0  0  0  0  0  0  0
   23.6469    6.7780   19.2385 C   0  0  0  0  0  0  0  0  0  0  0  0
   23.9282    7.9682   19.5114 O   0  0  0  0  0  0  0  0  0  0  0  0
   24.1693    5.7997   19.9531 N   0  0  0  0  0  0  0  0  0  0  0  0
   23.9500    4.8637   19.7408 H   0  0  0  0  0  0  0  0  0  0  0  0
   24.7784    6.0056   20.6986 H   0  0  0  0  0  0  0  0  0  0  0  0
 33 32  1  0  0  0
 33 34  1  0  0  0
 37 38  1  0  0  0
 37 34  1  0  0  0
 32 41  1  0  0  0
 32 28  1  0  0  0
 38 39  1  0  0  0
 38 40  1  0  0  0
 41 42  1  0  0  0
 41 43  1  0  0  0
 34 35  2  0  0  0
 28 29  2  0  0  0
 28 30  1  0  0  0
 30 27  1  0  0  0
 27 44  1  0  0  0
 27  1  1  0  0  0
 44 45  1  0  0  0
 45 46  2  0  0  0
 45 47  1  0  0  0
  1  2  2  0  0  0
  1  3  1  0  0  0
  3  5  1  0  0  0
  5 23  1  0  0  0
  5  6  1  0  0  0
 23 24  1  0  0  0
 24 25  1  0  0  0
 24 26  1  0  0  0
  6  7  2  0  0  0
  6  8  1  0  0  0
  6 10  1  0  0  0
 10 11  1  0  0  0
 11 16  1  0  0  0
 11 12  1  0  0  0
 16 17  1  0  0  0
 14 15  1  0  0  0
 17 18  2  0  0  0
 17 19  1  0  0  0
 18 20  1  0  0  0
 19 22  2  0  0  0
 20 21  2  0  0  0
 21 22  1  0  0  0
 12 15  1  0  0  0
 12 13  2  0  0  0
 33 36  1  0  0  0
 30 31  1  0  0  0
 47 48  1  0  0  0
 47 49  1  0  0  0
  3  4  1  0  0  0
  8  9  1  0  0  0
M  END
> <minimizedAffinity>
-8.19352

$$$$
