5IRR_GSP_A_402


 41 43  0  0  0  0  0  0  0  0999 V2000
   27.0281   28.8253   83.6650 C   0  0  0  0  0  0  0  0  0  0  0  0
   27.8341   29.2852   84.7328 O   0  0  0  0  0  0  0  0  0  0  0  0
   27.8895   27.8970   82.8363 C   0  0  0  0  0  0  0  0  0  0  0  0
   28.3527   28.6295   81.7326 O   0  0  0  0  0  0  0  0  0  0  0  0
   29.0906   27.6124   83.7122 C   0  0  0  0  0  0  0  0  0  0  0  0
   30.2456   27.4171   82.9320 O   0  0  0  0  0  0  0  0  0  0  0  0
   29.1772   28.8869   84.5292 C   0  0  0  0  0  0  0  0  0  0  0  0
   28.8164   29.4230   82.0427 H   0  0  0  0  0  0  0  0  0  0  0  0
   30.3861   28.1902   82.3633 H   0  0  0  0  0  0  0  0  0  0  0  0
   29.8938   28.6637   85.8021 N   0  0  0  0  0  0  0  0  0  0  0  0
   30.3814   27.4879   86.2922 C   0  0  0  0  0  0  0  0  0  0  0  0
   30.9751   27.7311   87.4845 N   0  0  0  0  0  0  0  0  0  0  0  0
   30.8668   29.0629   87.7485 C   0  0  0  0  0  0  0  0  0  0  0  0
   31.2846   29.8555   88.8058 C   0  0  0  0  0  0  0  0  0  0  0  0
   31.8878   29.3299   89.7430 O   0  0  0  0  0  0  0  0  0  0  0  0
   31.0265   31.2192   88.8052 N   0  0  0  0  0  0  0  0  0  0  0  0
   30.3455   31.8057   87.7419 C   0  0  0  0  0  0  0  0  0  0  0  0
   30.0768   33.1099   87.7018 N   0  0  0  0  0  0  0  0  0  0  0  0
   29.9387   30.9902   86.7035 N   0  0  0  0  0  0  0  0  0  0  0  0
   30.1939   29.6611   86.7045 C   0  0  0  0  0  0  0  0  0  0  0  0
   31.3265   31.7747   89.5607 H   0  0  0  0  0  0  0  0  0  0  0  0
   30.3649   33.6947   88.4395 H   0  0  0  0  0  0  0  0  0  0  0  0
   29.5902   33.4888   86.9345 H   0  0  0  0  0  0  0  0  0  0  0  0
   25.7948   28.1325   84.2313 C   0  0  0  0  0  0  0  0  0  0  0  0
   25.8867   28.0785   85.6397 O   0  0  0  0  0  0  0  0  0  0  0  0
   24.8138   28.8499   86.5506 P   0  0  0  0  0  0  0  0  0  0  0  0
   23.6001   28.0543   86.7782 O   0  0  0  0  0  0  0  0  0  0  0  0
   25.4124   29.2692   87.8349 O   0  0  0  0  0  0  0  0  0  0  0  0
   24.7460   29.7321   88.3664 H   0  0  0  0  0  0  0  0  0  0  0  0
   24.5097   30.1472   85.6452 O   0  0  0  0  0  0  0  0  0  0  0  0
   23.0549   30.7366   85.3299 P   0  0  0  0  0  0  0  0  0  0  0  0
   23.0811   32.2116   85.2660 O   0  0  0  0  0  0  0  0  0  0  0  0
   22.0981   30.3056   86.3534 O   0  0  0  0  0  0  0  0  0  0  0  0
   21.2219   30.6692   86.1505 H   0  0  0  0  0  0  0  0  0  0  0  0
   22.6471   30.0672   83.9281 O   0  0  0  0  0  0  0  0  0  0  0  0
   21.4790   28.9474   83.8201 P   0  0  0  0  0  0  0  0  0  0  0  0
   21.2857   28.4355   82.2296 S   0  0  0  0  0  0  0  0  0  0  0  0
   20.1490   29.5653   84.2610 O   0  0  0  0  0  0  0  0  0  0  0  0
   21.7843   27.7576   84.7430 O   0  0  0  0  0  0  0  0  0  0  0  0
   19.9379   30.3200   83.6894 H   0  0  0  0  0  0  0  0  0  0  0  0
   22.6249   27.3515   84.4796 H   0  0  0  0  0  0  0  0  0  0  0  0
 36 35  1  0  0  0
 36 37  2  0  0  0
 36 38  1  0  0  0
 36 39  1  0  0  0
 35 31  1  0  0  0
 31 32  2  0  0  0
 31 33  1  0  0  0
 31 30  1  0  0  0
 26 27  2  0  0  0
 26 28  1  0  0  0
 26 30  1  0  0  0
 26 25  1  0  0  0
 25 24  1  0  0  0
 24  1  1  0  0  0
  1  2  1  0  0  0
  1  3  1  0  0  0
  2  7  1  0  0  0
  3  4  1  0  0  0
  3  5  1  0  0  0
  5  6  1  0  0  0
  5  7  1  0  0  0
  7 10  1  0  0  0
 10 11  1  0  0  0
 10 20  1  0  0  0
 11 12  2  0  0  0
 12 13  1  0  0  0
 13 14  1  0  0  0
 13 20  2  0  0  0
 14 15  2  0  0  0
 14 16  1  0  0  0
 16 17  1  0  0  0
 17 18  1  0  0  0
 17 19  2  0  0  0
 19 20  1  0  0  0
 38 40  1  0  0  0
 39 41  1  0  0  0
 33 34  1  0  0  0
 28 29  1  0  0  0
  4  8  1  0  0  0
  6  9  1  0  0  0
 16 21  1  0  0  0
 18 22  1  0  0  0
 18 23  1  0  0  0
M  END
> <minimizedAffinity>
-10.94046

$$$$
5IRR_GSP_A_402


 41 43  0  0  0  0  0  0  0  0999 V2000
   29.2179   29.1887   84.5453 C   0  0  0  0  0  0  0  0  0  0  0  0
   29.2344   30.5152   85.0372 O   0  0  0  0  0  0  0  0  0  0  0  0
   30.5074   28.5390   84.9991 C   0  0  0  0  0  0  0  0  0  0  0  0
   31.3988   28.5765   83.9159 O   0  0  0  0  0  0  0  0  0  0  0  0
   31.0540   29.4779   86.0529 C   0  0  0  0  0  0  0  0  0  0  0  0
   32.4613   29.4661   86.0540 O   0  0  0  0  0  0  0  0  0  0  0  0
   30.5067   30.8114   85.5822 C   0  0  0  0  0  0  0  0  0  0  0  0
   31.5052   29.4929   83.6163 H   0  0  0  0  0  0  0  0  0  0  0  0
   32.7872   29.6865   85.1673 H   0  0  0  0  0  0  0  0  0  0  0  0
   30.4275   31.7837   86.6921 N   0  0  0  0  0  0  0  0  0  0  0  0
   29.6270   31.7300   87.7953 C   0  0  0  0  0  0  0  0  0  0  0  0
   29.8777   32.8166   88.5630 N   0  0  0  0  0  0  0  0  0  0  0  0
   30.8407   33.5578   87.9477 C   0  0  0  0  0  0  0  0  0  0  0  0
   31.4725   34.7474   88.2737 C   0  0  0  0  0  0  0  0  0  0  0  0
   31.1619   35.3205   89.3194 O   0  0  0  0  0  0  0  0  0  0  0  0
   32.4397   35.2813   87.4335 N   0  0  0  0  0  0  0  0  0  0  0  0
   32.7861   34.6269   86.2544 C   0  0  0  0  0  0  0  0  0  0  0  0
   33.7081   35.1048   85.4201 N   0  0  0  0  0  0  0  0  0  0  0  0
   32.1373   33.4447   85.9543 N   0  0  0  0  0  0  0  0  0  0  0  0
   31.1966   32.9241   86.7763 C   0  0  0  0  0  0  0  0  0  0  0  0
   32.8831   36.1272   87.6726 H   0  0  0  0  0  0  0  0  0  0  0  0
   34.1729   35.9469   85.6300 H   0  0  0  0  0  0  0  0  0  0  0  0
   33.9247   34.6159   84.5935 H   0  0  0  0  0  0  0  0  0  0  0  0
   27.9816   28.4735   85.0760 C   0  0  0  0  0  0  0  0  0  0  0  0
   27.3564   29.2737   86.0577 O   0  0  0  0  0  0  0  0  0  0  0  0
   25.8168   29.0296   86.4399 P   0  0  0  0  0  0  0  0  0  0  0  0
   25.3615   27.6784   86.0866 O   0  0  0  0  0  0  0  0  0  0  0  0
   25.5759   29.3046   87.8717 O   0  0  0  0  0  0  0  0  0  0  0  0
   24.6406   29.1503   88.0777 H   0  0  0  0  0  0  0  0  0  0  0  0
   25.0896   30.1525   85.5424 O   0  0  0  0  0  0  0  0  0  0  0  0
   23.5113   30.2643   85.2980 P   0  0  0  0  0  0  0  0  0  0  0  0
   23.1135   31.6591   85.0214 O   0  0  0  0  0  0  0  0  0  0  0  0
   22.7786   29.7663   86.4659 O   0  0  0  0  0  0  0  0  0  0  0  0
   21.8249   29.8396   86.3047 H   0  0  0  0  0  0  0  0  0  0  0  0
   23.2285   29.2859   84.0561 O   0  0  0  0  0  0  0  0  0  0  0  0
   21.7342   29.0531   83.4707 P   0  0  0  0  0  0  0  0  0  0  0  0
   21.7893   28.2717   81.9823 S   0  0  0  0  0  0  0  0  0  0  0  0
   21.0668   30.4125   83.2432 O   0  0  0  0  0  0  0  0  0  0  0  0
   20.8793   28.2607   84.4716 O   0  0  0  0  0  0  0  0  0  0  0  0
   21.5924   30.9293   82.6128 H   0  0  0  0  0  0  0  0  0  0  0  0
   21.2861   27.3944   84.6296 H   0  0  0  0  0  0  0  0  0  0  0  0
 36 35  1  0  0  0
 36 37  2  0  0  0
 36 38  1  0  0  0
 36 39  1  0  0  0
 35 31  1  0  0  0
 31 32  2  0  0  0
 31 33  1  0  0  0
 31 30  1  0  0  0
 26 27  2  0  0  0
 26 28  1  0  0  0
 26 30  1  0  0  0
 26 25  1  0  0  0
 25 24  1  0  0  0
 24  1  1  0  0  0
  1  2  1  0  0  0
  1  3  1  0  0  0
  2  7  1  0  0  0
  3  4  1  0  0  0
  3  5  1  0  0  0
  5  6  1  0  0  0
  5  7  1  0  0  0
  7 10  1  0  0  0
 10 11  1  0  0  0
 10 20  1  0  0  0
 11 12  2  0  0  0
 12 13  1  0  0  0
 13 14  1  0  0  0
 13 20  2  0  0  0
 14 15  2  0  0  0
 14 16  1  0  0  0
 16 17  1  0  0  0
 17 18  1  0  0  0
 17 19  2  0  0  0
 19 20  1  0  0  0
 38 40  1  0  0  0
 39 41  1  0  0  0
 33 34  1  0  0  0
 28 29  1  0  0  0
  4  8  1  0  0  0
  6  9  1  0  0  0
 16 21  1  0  0  0
 18 22  1  0  0  0
 18 23  1  0  0  0
M  END
> <minimizedAffinity>
-10.91829

$$$$
5IRR_GSP_A_402


 41 43  0  0  0  0  0  0  0  0999 V2000
   26.9287   29.4078   86.0200 C   0  0  0  0  0  0  0  0  0  0  0  0
   26.1422   29.7049   84.8821 O   0  0  0  0  0  0  0  0  0  0  0  0
   26.0906   28.5140   86.9086 C   0  0  0  0  0  0  0  0  0  0  0  0
   25.5377   29.3226   87.9135 O   0  0  0  0  0  0  0  0  0  0  0  0
   24.9471   28.0659   86.0241 C   0  0  0  0  0  0  0  0  0  0  0  0
   23.7741   27.8761   86.7782 O   0  0  0  0  0  0  0  0  0  0  0  0
   24.8183   29.2434   85.0774 C   0  0  0  0  0  0  0  0  0  0  0  0
   25.0404   30.0493   87.5066 H   0  0  0  0  0  0  0  0  0  0  0  0
   23.5631   28.6919   87.2587 H   0  0  0  0  0  0  0  0  0  0  0  0
   24.1711   28.8474   83.8094 N   0  0  0  0  0  0  0  0  0  0  0  0
   24.7734   28.4968   82.6369 C   0  0  0  0  0  0  0  0  0  0  0  0
   23.8124   28.1981   81.7311 N   0  0  0  0  0  0  0  0  0  0  0  0
   22.5999   28.3560   82.3313 C   0  0  0  0  0  0  0  0  0  0  0  0
   21.2965   28.1928   81.8896 C   0  0  0  0  0  0  0  0  0  0  0  0
   21.1015   27.8302   80.7282 O   0  0  0  0  0  0  0  0  0  0  0  0
   20.2305   28.4340   82.7450 N   0  0  0  0  0  0  0  0  0  0  0  0
   20.4592   28.8420   84.0564 C   0  0  0  0  0  0  0  0  0  0  0  0
   19.4654   29.0847   84.9095 N   0  0  0  0  0  0  0  0  0  0  0  0
   21.7688   28.9993   84.4674 N   0  0  0  0  0  0  0  0  0  0  0  0
   22.8071   28.7607   83.6328 C   0  0  0  0  0  0  0  0  0  0  0  0
   19.3077   28.3160   82.4228 H   0  0  0  0  0  0  0  0  0  0  0  0
   18.5307   28.9739   84.6208 H   0  0  0  0  0  0  0  0  0  0  0  0
   19.6655   29.3748   85.8288 H   0  0  0  0  0  0  0  0  0  0  0  0
   28.2245   28.7424   85.5729 C   0  0  0  0  0  0  0  0  0  0  0  0
   29.3008   29.6416   85.7399 O   0  0  0  0  0  0  0  0  0  0  0  0
   30.2110   29.5775   87.0603 P   0  0  0  0  0  0  0  0  0  0  0  0
   30.1035   28.2850   87.7501 O   0  0  0  0  0  0  0  0  0  0  0  0
   31.6216   29.8873   86.7475 O   0  0  0  0  0  0  0  0  0  0  0  0
   32.1503   29.8423   87.5595 H   0  0  0  0  0  0  0  0  0  0  0  0
   29.5755   30.7704   87.9367 O   0  0  0  0  0  0  0  0  0  0  0  0
   30.1714   32.2517   88.0557 P   0  0  0  0  0  0  0  0  0  0  0  0
   30.2376   32.9061   86.7337 O   0  0  0  0  0  0  0  0  0  0  0  0
   31.5091   32.2158   88.6541 O   0  0  0  0  0  0  0  0  0  0  0  0
   31.8580   33.1184   88.7203 H   0  0  0  0  0  0  0  0  0  0  0  0
   29.1746   33.0040   89.0656 O   0  0  0  0  0  0  0  0  0  0  0  0
   29.1352   34.6207   89.1860 P   0  0  0  0  0  0  0  0  0  0  0  0
   28.0091   35.1080   90.3365 S   0  0  0  0  0  0  0  0  0  0  0  0
   28.6960   35.2135   87.8440 O   0  0  0  0  0  0  0  0  0  0  0  0
   30.5299   35.1718   89.5201 O   0  0  0  0  0  0  0  0  0  0  0  0
   27.8155   34.8771   87.6146 H   0  0  0  0  0  0  0  0  0  0  0  0
   30.8268   34.8074   90.3686 H   0  0  0  0  0  0  0  0  0  0  0  0
 36 35  1  0  0  0
 36 37  2  0  0  0
 36 38  1  0  0  0
 36 39  1  0  0  0
 35 31  1  0  0  0
 31 32  2  0  0  0
 31 33  1  0  0  0
 31 30  1  0  0  0
 26 27  2  0  0  0
 26 28  1  0  0  0
 26 30  1  0  0  0
 26 25  1  0  0  0
 25 24  1  0  0  0
 24  1  1  0  0  0
  1  2  1  0  0  0
  1  3  1  0  0  0
  2  7  1  0  0  0
  3  4  1  0  0  0
  3  5  1  0  0  0
  5  6  1  0  0  0
  5  7  1  0  0  0
  7 10  1  0  0  0
 10 11  1  0  0  0
 10 20  1  0  0  0
 11 12  2  0  0  0
 12 13  1  0  0  0
 13 14  1  0  0  0
 13 20  2  0  0  0
 14 15  2  0  0  0
 14 16  1  0  0  0
 16 17  1  0  0  0
 17 18  1  0  0  0
 17 19  2  0  0  0
 19 20  1  0  0  0
 38 40  1  0  0  0
 39 41  1  0  0  0
 33 34  1  0  0  0
 28 29  1  0  0  0
  4  8  1  0  0  0
  6  9  1  0  0  0
 16 21  1  0  0  0
 18 22  1  0  0  0
 18 23  1  0  0  0
M  END
> <minimizedAffinity>
-10.42261

$$$$
5IRR_GSP_A_402


 41 43  0  0  0  0  0  0  0  0999 V2000
   30.5596   30.0528   83.1529 C   0  0  0  0  0  0  0  0  0  0  0  0
   30.8334   31.4266   83.3516 O   0  0  0  0  0  0  0  0  0  0  0  0
   31.7925   29.2939   83.5941 C   0  0  0  0  0  0  0  0  0  0  0  0
   32.5230   28.9743   82.4393 O   0  0  0  0  0  0  0  0  0  0  0  0
   32.6075   30.3104   84.3643 C   0  0  0  0  0  0  0  0  0  0  0  0
   33.9853   30.0627   84.2194 O   0  0  0  0  0  0  0  0  0  0  0  0
   32.1977   31.6028   83.6852 C   0  0  0  0  0  0  0  0  0  0  0  0
   32.7176   29.7858   81.9449 H   0  0  0  0  0  0  0  0  0  0  0  0
   34.2146   30.0525   83.2769 H   0  0  0  0  0  0  0  0  0  0  0  0
   32.4118   32.7676   84.5690 N   0  0  0  0  0  0  0  0  0  0  0  0
   33.0179   33.9503   84.2617 C   0  0  0  0  0  0  0  0  0  0  0  0
   32.9942   34.7443   85.3581 N   0  0  0  0  0  0  0  0  0  0  0  0
   32.3692   34.0656   86.3600 C   0  0  0  0  0  0  0  0  0  0  0  0
   32.0688   34.3837   87.6750 C   0  0  0  0  0  0  0  0  0  0  0  0
   32.3962   35.4887   88.1110 O   0  0  0  0  0  0  0  0  0  0  0  0
   31.4086   33.4698   88.4847 N   0  0  0  0  0  0  0  0  0  0  0  0
   31.0406   32.2238   87.9841 C   0  0  0  0  0  0  0  0  0  0  0  0
   30.4068   31.3177   88.7269 N   0  0  0  0  0  0  0  0  0  0  0  0
   31.3561   31.9338   86.6707 N   0  0  0  0  0  0  0  0  0  0  0  0
   31.9972   32.8273   85.8819 C   0  0  0  0  0  0  0  0  0  0  0  0
   31.1996   33.7039   89.4178 H   0  0  0  0  0  0  0  0  0  0  0  0
   30.1800   31.5203   89.6633 H   0  0  0  0  0  0  0  0  0  0  0  0
   30.1651   30.4455   88.3395 H   0  0  0  0  0  0  0  0  0  0  0  0
   29.3181   29.6698   83.9490 C   0  0  0  0  0  0  0  0  0  0  0  0
   29.7033   29.1213   85.1923 O   0  0  0  0  0  0  0  0  0  0  0  0
   28.6331   28.9784   86.3798 P   0  0  0  0  0  0  0  0  0  0  0  0
   29.0102   27.9409   87.3490 O   0  0  0  0  0  0  0  0  0  0  0  0
   28.4174   30.2735   87.0579 O   0  0  0  0  0  0  0  0  0  0  0  0
   27.7682   30.1615   87.7699 H   0  0  0  0  0  0  0  0  0  0  0  0
   27.3085   28.5686   85.5598 O   0  0  0  0  0  0  0  0  0  0  0  0
   25.8133   28.6180   86.1302 P   0  0  0  0  0  0  0  0  0  0  0  0
   25.7968   29.0493   87.5423 O   0  0  0  0  0  0  0  0  0  0  0  0
   25.1790   27.3019   86.0105 O   0  0  0  0  0  0  0  0  0  0  0  0
   24.2749   27.3459   86.3592 H   0  0  0  0  0  0  0  0  0  0  0  0
   25.0500   29.6483   85.1630 O   0  0  0  0  0  0  0  0  0  0  0  0
   23.4902   30.0345   85.3815 P   0  0  0  0  0  0  0  0  0  0  0  0
   22.5143   29.2363   84.2682 S   0  0  0  0  0  0  0  0  0  0  0  0
   23.3075   31.5369   85.1475 O   0  0  0  0  0  0  0  0  0  0  0  0
   23.0511   29.7162   86.8190 O   0  0  0  0  0  0  0  0  0  0  0  0
   23.5799   31.7588   84.2434 H   0  0  0  0  0  0  0  0  0  0  0  0
   23.1594   28.7671   86.9875 H   0  0  0  0  0  0  0  0  0  0  0  0
 36 35  1  0  0  0
 36 37  2  0  0  0
 36 38  1  0  0  0
 36 39  1  0  0  0
 35 31  1  0  0  0
 31 32  2  0  0  0
 31 33  1  0  0  0
 31 30  1  0  0  0
 26 27  2  0  0  0
 26 28  1  0  0  0
 26 30  1  0  0  0
 26 25  1  0  0  0
 25 24  1  0  0  0
 24  1  1  0  0  0
  1  2  1  0  0  0
  1  3  1  0  0  0
  2  7  1  0  0  0
  3  4  1  0  0  0
  3  5  1  0  0  0
  5  6  1  0  0  0
  5  7  1  0  0  0
  7 10  1  0  0  0
 10 11  1  0  0  0
 10 20  1  0  0  0
 11 12  2  0  0  0
 12 13  1  0  0  0
 13 14  1  0  0  0
 13 20  2  0  0  0
 14 15  2  0  0  0
 14 16  1  0  0  0
 16 17  1  0  0  0
 17 18  1  0  0  0
 17 19  2  0  0  0
 19 20  1  0  0  0
 38 40  1  0  0  0
 39 41  1  0  0  0
 33 34  1  0  0  0
 28 29  1  0  0  0
  4  8  1  0  0  0
  6  9  1  0  0  0
 16 21  1  0  0  0
 18 22  1  0  0  0
 18 23  1  0  0  0
M  END
> <minimizedAffinity>
-9.86816

$$$$
5IRR_GSP_A_402


 41 43  0  0  0  0  0  0  0  0999 V2000
   28.3267   29.4892   83.9197 C   0  0  0  0  0  0  0  0  0  0  0  0
   29.3839   29.8630   84.7823 O   0  0  0  0  0  0  0  0  0  0  0  0
   28.3372   27.9776   83.8459 C   0  0  0  0  0  0  0  0  0  0  0  0
   28.9908   27.6211   82.6564 O   0  0  0  0  0  0  0  0  0  0  0  0
   29.2340   27.5491   84.9874 C   0  0  0  0  0  0  0  0  0  0  0  0
   29.9219   26.3637   84.6673 O   0  0  0  0  0  0  0  0  0  0  0  0
   30.1772   28.7319   85.0907 C   0  0  0  0  0  0  0  0  0  0  0  0
   29.8744   28.0211   82.6405 H   0  0  0  0  0  0  0  0  0  0  0  0
   30.4183   26.4903   83.8436 H   0  0  0  0  0  0  0  0  0  0  0  0
   30.7826   28.8228   86.4356 N   0  0  0  0  0  0  0  0  0  0  0  0
   30.3718   29.5877   87.4876 C   0  0  0  0  0  0  0  0  0  0  0  0
   31.2024   29.3641   88.5332 N   0  0  0  0  0  0  0  0  0  0  0  0
   32.1382   28.4539   88.1446 C   0  0  0  0  0  0  0  0  0  0  0  0
   33.2143   27.8674   88.7916 C   0  0  0  0  0  0  0  0  0  0  0  0
   33.4447   28.1731   89.9629 O   0  0  0  0  0  0  0  0  0  0  0  0
   34.0171   26.9502   88.1279 N   0  0  0  0  0  0  0  0  0  0  0  0
   33.7493   26.6089   86.8049 C   0  0  0  0  0  0  0  0  0  0  0  0
   34.4945   25.7341   86.1311 N   0  0  0  0  0  0  0  0  0  0  0  0
   32.6719   27.2120   86.1850 N   0  0  0  0  0  0  0  0  0  0  0  0
   31.8885   28.1039   86.8348 C   0  0  0  0  0  0  0  0  0  0  0  0
   34.7798   26.5387   88.5950 H   0  0  0  0  0  0  0  0  0  0  0  0
   35.2631   25.3020   86.5689 H   0  0  0  0  0  0  0  0  0  0  0  0
   34.2766   25.5197   85.1952 H   0  0  0  0  0  0  0  0  0  0  0  0
   27.0158   30.0412   84.4663 C   0  0  0  0  0  0  0  0  0  0  0  0
   26.7217   29.4255   85.7029 O   0  0  0  0  0  0  0  0  0  0  0  0
   25.2057   29.0636   86.0861 P   0  0  0  0  0  0  0  0  0  0  0  0
   24.9319   27.6242   85.9806 O   0  0  0  0  0  0  0  0  0  0  0  0
   24.8661   29.5627   87.4349 O   0  0  0  0  0  0  0  0  0  0  0  0
   23.9471   29.3322   87.6430 H   0  0  0  0  0  0  0  0  0  0  0  0
   24.3935   29.9032   84.9769 O   0  0  0  0  0  0  0  0  0  0  0  0
   22.9822   30.6225   85.2093 P   0  0  0  0  0  0  0  0  0  0  0  0
   23.1463   32.0834   85.3483 O   0  0  0  0  0  0  0  0  0  0  0  0
   22.3276   30.0851   86.4058 O   0  0  0  0  0  0  0  0  0  0  0  0
   21.4748   30.5289   86.5347 H   0  0  0  0  0  0  0  0  0  0  0  0
   22.1116   30.2210   83.9207 O   0  0  0  0  0  0  0  0  0  0  0  0
   21.5490   28.7160   83.7010 P   0  0  0  0  0  0  0  0  0  0  0  0
   21.8821   28.1737   82.1441 S   0  0  0  0  0  0  0  0  0  0  0  0
   20.0261   28.7208   83.8619 O   0  0  0  0  0  0  0  0  0  0  0  0
   22.1389   27.7603   84.7495 O   0  0  0  0  0  0  0  0  0  0  0  0
   19.6337   29.3197   83.2075 H   0  0  0  0  0  0  0  0  0  0  0  0
   23.1049   27.7430   84.6639 H   0  0  0  0  0  0  0  0  0  0  0  0
 36 35  1  0  0  0
 36 37  2  0  0  0
 36 38  1  0  0  0
 36 39  1  0  0  0
 35 31  1  0  0  0
 31 32  2  0  0  0
 31 33  1  0  0  0
 31 30  1  0  0  0
 26 27  2  0  0  0
 26 28  1  0  0  0
 26 30  1  0  0  0
 26 25  1  0  0  0
 25 24  1  0  0  0
 24  1  1  0  0  0
  1  2  1  0  0  0
  1  3  1  0  0  0
  2  7  1  0  0  0
  3  4  1  0  0  0
  3  5  1  0  0  0
  5  6  1  0  0  0
  5  7  1  0  0  0
  7 10  1  0  0  0
 10 11  1  0  0  0
 10 20  1  0  0  0
 11 12  2  0  0  0
 12 13  1  0  0  0
 13 14  1  0  0  0
 13 20  2  0  0  0
 14 15  2  0  0  0
 14 16  1  0  0  0
 16 17  1  0  0  0
 17 18  1  0  0  0
 17 19  2  0  0  0
 19 20  1  0  0  0
 38 40  1  0  0  0
 39 41  1  0  0  0
 33 34  1  0  0  0
 28 29  1  0  0  0
  4  8  1  0  0  0
  6  9  1  0  0  0
 16 21  1  0  0  0
 18 22  1  0  0  0
 18 23  1  0  0  0
M  END
> <minimizedAffinity>
-9.83055

$$$$
5IRR_GSP_A_402


 41 43  0  0  0  0  0  0  0  0999 V2000
   28.4898   29.1668   86.4820 C   0  0  0  0  0  0  0  0  0  0  0  0
   29.3382   28.7554   87.5368 O   0  0  0  0  0  0  0  0  0  0  0  0
   29.3870   29.6569   85.3660 C   0  0  0  0  0  0  0  0  0  0  0  0
   29.4211   31.0578   85.4409 O   0  0  0  0  0  0  0  0  0  0  0  0
   30.7663   29.1613   85.7439 C   0  0  0  0  0  0  0  0  0  0  0  0
   31.7593   30.0553   85.3015 O   0  0  0  0  0  0  0  0  0  0  0  0
   30.6732   29.1341   87.2572 C   0  0  0  0  0  0  0  0  0  0  0  0
   29.7125   31.3273   86.3260 H   0  0  0  0  0  0  0  0  0  0  0  0
   31.5808   30.9393   85.6586 H   0  0  0  0  0  0  0  0  0  0  0  0
   31.6548   28.1964   87.8409 N   0  0  0  0  0  0  0  0  0  0  0  0
   32.4704   28.4010   88.9149 C   0  0  0  0  0  0  0  0  0  0  0  0
   33.2054   27.2821   89.1172 N   0  0  0  0  0  0  0  0  0  0  0  0
   32.8525   26.3662   88.1729 C   0  0  0  0  0  0  0  0  0  0  0  0
   33.2717   25.0726   87.9054 C   0  0  0  0  0  0  0  0  0  0  0  0
   34.1380   24.5665   88.6209 O   0  0  0  0  0  0  0  0  0  0  0  0
   32.7216   24.3612   86.8482 N   0  0  0  0  0  0  0  0  0  0  0  0
   31.7421   24.9395   86.0453 C   0  0  0  0  0  0  0  0  0  0  0  0
   31.1887   24.2926   85.0207 N   0  0  0  0  0  0  0  0  0  0  0  0
   31.3466   26.2314   86.3340 N   0  0  0  0  0  0  0  0  0  0  0  0
   31.8820   26.9224   87.3672 C   0  0  0  0  0  0  0  0  0  0  0  0
   33.0256   23.4429   86.6650 H   0  0  0  0  0  0  0  0  0  0  0  0
   31.4676   23.3719   84.8115 H   0  0  0  0  0  0  0  0  0  0  0  0
   30.5008   24.7351   84.4729 H   0  0  0  0  0  0  0  0  0  0  0  0
   27.6132   27.9945   86.0586 C   0  0  0  0  0  0  0  0  0  0  0  0
   26.4481   28.4792   85.4243 O   0  0  0  0  0  0  0  0  0  0  0  0
   25.1760   28.9212   86.2975 P   0  0  0  0  0  0  0  0  0  0  0  0
   24.1271   27.8929   86.3158 O   0  0  0  0  0  0  0  0  0  0  0  0
   25.5769   29.2834   87.6729 O   0  0  0  0  0  0  0  0  0  0  0  0
   24.7927   29.5464   88.1796 H   0  0  0  0  0  0  0  0  0  0  0  0
   24.6971   30.2407   85.5071 O   0  0  0  0  0  0  0  0  0  0  0  0
   23.1793   30.7229   85.3432 P   0  0  0  0  0  0  0  0  0  0  0  0
   23.0906   32.1963   85.3036 O   0  0  0  0  0  0  0  0  0  0  0  0
   22.3604   30.2104   86.4458 O   0  0  0  0  0  0  0  0  0  0  0  0
   21.4444   30.5095   86.3343 H   0  0  0  0  0  0  0  0  0  0  0  0
   22.6880   30.0398   83.9752 O   0  0  0  0  0  0  0  0  0  0  0  0
   21.5194   28.9157   83.9493 P   0  0  0  0  0  0  0  0  0  0  0  0
   21.1708   28.4508   82.3709 S   0  0  0  0  0  0  0  0  0  0  0  0
   20.2375   29.5106   84.5391 O   0  0  0  0  0  0  0  0  0  0  0  0
   21.9198   27.7006   84.8002 O   0  0  0  0  0  0  0  0  0  0  0  0
   19.9675   30.2808   84.0148 H   0  0  0  0  0  0  0  0  0  0  0  0
   22.7316   27.3086   84.4421 H   0  0  0  0  0  0  0  0  0  0  0  0
 36 35  1  0  0  0
 36 37  2  0  0  0
 36 38  1  0  0  0
 36 39  1  0  0  0
 35 31  1  0  0  0
 31 32  2  0  0  0
 31 33  1  0  0  0
 31 30  1  0  0  0
 26 27  2  0  0  0
 26 28  1  0  0  0
 26 30  1  0  0  0
 26 25  1  0  0  0
 25 24  1  0  0  0
 24  1  1  0  0  0
  1  2  1  0  0  0
  1  3  1  0  0  0
  2  7  1  0  0  0
  3  4  1  0  0  0
  3  5  1  0  0  0
  5  6  1  0  0  0
  5  7  1  0  0  0
  7 10  1  0  0  0
 10 11  1  0  0  0
 10 20  1  0  0  0
 11 12  2  0  0  0
 12 13  1  0  0  0
 13 14  1  0  0  0
 13 20  2  0  0  0
 14 15  2  0  0  0
 14 16  1  0  0  0
 16 17  1  0  0  0
 17 18  1  0  0  0
 17 19  2  0  0  0
 19 20  1  0  0  0
 38 40  1  0  0  0
 39 41  1  0  0  0
 33 34  1  0  0  0
 28 29  1  0  0  0
  4  8  1  0  0  0
  6  9  1  0  0  0
 16 21  1  0  0  0
 18 22  1  0  0  0
 18 23  1  0  0  0
M  END
> <minimizedAffinity>
-9.62989

$$$$
5IRR_GSP_A_402


 41 43  0  0  0  0  0  0  0  0999 V2000
   26.9165   29.2115   85.8943 C   0  0  0  0  0  0  0  0  0  0  0  0
   26.0977   29.5517   84.7918 O   0  0  0  0  0  0  0  0  0  0  0  0
   26.0814   28.3373   86.8048 C   0  0  0  0  0  0  0  0  0  0  0  0
   25.5983   29.1522   87.8400 O   0  0  0  0  0  0  0  0  0  0  0  0
   24.8885   27.9425   85.9610 C   0  0  0  0  0  0  0  0  0  0  0  0
   23.7396   27.7856   86.7586 O   0  0  0  0  0  0  0  0  0  0  0  0
   24.7664   29.1361   85.0338 C   0  0  0  0  0  0  0  0  0  0  0  0
   25.1125   29.9017   87.4616 H   0  0  0  0  0  0  0  0  0  0  0  0
   23.5777   28.6022   87.2564 H   0  0  0  0  0  0  0  0  0  0  0  0
   24.0560   28.7805   83.7878 N   0  0  0  0  0  0  0  0  0  0  0  0
   24.5989   28.4255   82.5879 C   0  0  0  0  0  0  0  0  0  0  0  0
   23.5929   28.1729   81.7176 N   0  0  0  0  0  0  0  0  0  0  0  0
   22.4114   28.3643   82.3677 C   0  0  0  0  0  0  0  0  0  0  0  0
   21.0866   28.2525   81.9764 C   0  0  0  0  0  0  0  0  0  0  0  0
   20.8332   27.9130   80.8193 O   0  0  0  0  0  0  0  0  0  0  0  0
   20.0643   28.5185   82.8767 N   0  0  0  0  0  0  0  0  0  0  0  0
   20.3589   28.9000   84.1829 C   0  0  0  0  0  0  0  0  0  0  0  0
   19.4087   29.1651   85.0781 N   0  0  0  0  0  0  0  0  0  0  0  0
   21.6884   29.0062   84.5432 N   0  0  0  0  0  0  0  0  0  0  0  0
   22.6839   28.7434   83.6648 C   0  0  0  0  0  0  0  0  0  0  0  0
   19.1260   28.4370   82.5902 H   0  0  0  0  0  0  0  0  0  0  0  0
   18.4600   29.0907   84.8256 H   0  0  0  0  0  0  0  0  0  0  0  0
   19.6551   29.4353   85.9921 H   0  0  0  0  0  0  0  0  0  0  0  0
   28.1685   28.5054   85.3887 C   0  0  0  0  0  0  0  0  0  0  0  0
   29.2244   29.4366   85.2753 O   0  0  0  0  0  0  0  0  0  0  0  0
   29.1818   30.5740   84.1437 P   0  0  0  0  0  0  0  0  0  0  0  0
   28.7548   30.0485   82.8401 O   0  0  0  0  0  0  0  0  0  0  0  0
   28.3235   31.7031   84.5586 O   0  0  0  0  0  0  0  0  0  0  0  0
   28.3140   32.3758   83.8599 H   0  0  0  0  0  0  0  0  0  0  0  0
   30.7219   31.0455   84.1158 O   0  0  0  0  0  0  0  0  0  0  0  0
   31.5997   31.4199   85.4014 P   0  0  0  0  0  0  0  0  0  0  0  0
   32.7760   32.2291   85.0249 O   0  0  0  0  0  0  0  0  0  0  0  0
   32.0401   30.2026   86.0893 O   0  0  0  0  0  0  0  0  0  0  0  0
   32.5701   30.4434   86.8651 H   0  0  0  0  0  0  0  0  0  0  0  0
   30.5863   32.2160   86.3598 O   0  0  0  0  0  0  0  0  0  0  0  0
   30.3786   31.8084   87.9157 P   0  0  0  0  0  0  0  0  0  0  0  0
   29.4647   32.9680   88.7214 S   0  0  0  0  0  0  0  0  0  0  0  0
   31.7443   31.7495   88.6058 O   0  0  0  0  0  0  0  0  0  0  0  0
   29.7241   30.4229   88.0285 O   0  0  0  0  0  0  0  0  0  0  0  0
   32.1748   32.6166   88.5455 H   0  0  0  0  0  0  0  0  0  0  0  0
   28.8559   30.4393   87.5963 H   0  0  0  0  0  0  0  0  0  0  0  0
 36 35  1  0  0  0
 36 37  2  0  0  0
 36 38  1  0  0  0
 36 39  1  0  0  0
 35 31  1  0  0  0
 31 32  2  0  0  0
 31 33  1  0  0  0
 31 30  1  0  0  0
 26 27  2  0  0  0
 26 28  1  0  0  0
 26 30  1  0  0  0
 26 25  1  0  0  0
 25 24  1  0  0  0
 24  1  1  0  0  0
  1  2  1  0  0  0
  1  3  1  0  0  0
  2  7  1  0  0  0
  3  4  1  0  0  0
  3  5  1  0  0  0
  5  6  1  0  0  0
  5  7  1  0  0  0
  7 10  1  0  0  0
 10 11  1  0  0  0
 10 20  1  0  0  0
 11 12  2  0  0  0
 12 13  1  0  0  0
 13 14  1  0  0  0
 13 20  2  0  0  0
 14 15  2  0  0  0
 14 16  1  0  0  0
 16 17  1  0  0  0
 17 18  1  0  0  0
 17 19  2  0  0  0
 19 20  1  0  0  0
 38 40  1  0  0  0
 39 41  1  0  0  0
 33 34  1  0  0  0
 28 29  1  0  0  0
  4  8  1  0  0  0
  6  9  1  0  0  0
 16 21  1  0  0  0
 18 22  1  0  0  0
 18 23  1  0  0  0
M  END
> <minimizedAffinity>
-9.53856

$$$$
5IRR_GSP_A_402


 41 43  0  0  0  0  0  0  0  0999 V2000
   26.8961   29.4700   85.9453 C   0  0  0  0  0  0  0  0  0  0  0  0
   26.0709   29.7516   84.8311 O   0  0  0  0  0  0  0  0  0  0  0  0
   26.1011   28.5620   86.8587 C   0  0  0  0  0  0  0  0  0  0  0  0
   25.5636   29.3613   87.8792 O   0  0  0  0  0  0  0  0  0  0  0  0
   24.9402   28.0922   86.0086 C   0  0  0  0  0  0  0  0  0  0  0  0
   23.7937   27.8818   86.7973 O   0  0  0  0  0  0  0  0  0  0  0  0
   24.7620   29.2663   85.0657 C   0  0  0  0  0  0  0  0  0  0  0  0
   25.0413   30.0784   87.4870 H   0  0  0  0  0  0  0  0  0  0  0  0
   23.5822   28.6941   87.2835 H   0  0  0  0  0  0  0  0  0  0  0  0
   24.0848   28.8573   83.8176 N   0  0  0  0  0  0  0  0  0  0  0  0
   24.6592   28.4852   82.6377 C   0  0  0  0  0  0  0  0  0  0  0  0
   23.6768   28.1812   81.7570 N   0  0  0  0  0  0  0  0  0  0  0  0
   22.4787   28.3573   82.3806 C   0  0  0  0  0  0  0  0  0  0  0  0
   21.1649   28.1981   81.9691 C   0  0  0  0  0  0  0  0  0  0  0  0
   20.9423   27.8205   80.8175 O   0  0  0  0  0  0  0  0  0  0  0  0
   20.1193   28.4599   82.8434 N   0  0  0  0  0  0  0  0  0  0  0  0
   20.3791   28.8848   84.1436 C   0  0  0  0  0  0  0  0  0  0  0  0
   19.4056   29.1475   85.0141 N   0  0  0  0  0  0  0  0  0  0  0  0
   21.6984   29.0375   84.5244 N   0  0  0  0  0  0  0  0  0  0  0  0
   22.7167   28.7789   83.6713 C   0  0  0  0  0  0  0  0  0  0  0  0
   19.1890   28.3446   82.5427 H   0  0  0  0  0  0  0  0  0  0  0  0
   18.4642   29.0399   84.7470 H   0  0  0  0  0  0  0  0  0  0  0  0
   19.6276   29.4491   85.9246 H   0  0  0  0  0  0  0  0  0  0  0  0
   28.1900   28.8278   85.4602 C   0  0  0  0  0  0  0  0  0  0  0  0
   28.6488   27.9016   86.4227 O   0  0  0  0  0  0  0  0  0  0  0  0
   30.1462   28.0014   86.9920 P   0  0  0  0  0  0  0  0  0  0  0  0
   30.5563   26.7817   87.7004 O   0  0  0  0  0  0  0  0  0  0  0  0
   31.1029   28.3262   85.9137 O   0  0  0  0  0  0  0  0  0  0  0  0
   31.9987   28.3810   86.2818 H   0  0  0  0  0  0  0  0  0  0  0  0
   30.0161   29.2538   87.9968 O   0  0  0  0  0  0  0  0  0  0  0  0
   31.2242   30.1926   88.4683 P   0  0  0  0  0  0  0  0  0  0  0  0
   32.2035   29.4352   89.2731 O   0  0  0  0  0  0  0  0  0  0  0  0
   30.7151   31.3235   89.2499 O   0  0  0  0  0  0  0  0  0  0  0  0
   31.4564   31.8835   89.5289 H   0  0  0  0  0  0  0  0  0  0  0  0
   31.8533   30.7525   87.1007 O   0  0  0  0  0  0  0  0  0  0  0  0
   31.1627   31.9631   86.2716 P   0  0  0  0  0  0  0  0  0  0  0  0
   31.7382   33.4535   86.7977 S   0  0  0  0  0  0  0  0  0  0  0  0
   29.6524   31.9470   86.5240 O   0  0  0  0  0  0  0  0  0  0  0  0
   31.3988   31.7886   84.7635 O   0  0  0  0  0  0  0  0  0  0  0  0
   29.4819   32.0561   87.4727 H   0  0  0  0  0  0  0  0  0  0  0  0
   32.3517   31.7962   84.5824 H   0  0  0  0  0  0  0  0  0  0  0  0
 36 35  1  0  0  0
 36 37  2  0  0  0
 36 38  1  0  0  0
 36 39  1  0  0  0
 35 31  1  0  0  0
 31 32  2  0  0  0
 31 33  1  0  0  0
 31 30  1  0  0  0
 26 27  2  0  0  0
 26 28  1  0  0  0
 26 30  1  0  0  0
 26 25  1  0  0  0
 25 24  1  0  0  0
 24  1  1  0  0  0
  1  2  1  0  0  0
  1  3  1  0  0  0
  2  7  1  0  0  0
  3  4  1  0  0  0
  3  5  1  0  0  0
  5  6  1  0  0  0
  5  7  1  0  0  0
  7 10  1  0  0  0
 10 11  1  0  0  0
 10 20  1  0  0  0
 11 12  2  0  0  0
 12 13  1  0  0  0
 13 14  1  0  0  0
 13 20  2  0  0  0
 14 15  2  0  0  0
 14 16  1  0  0  0
 16 17  1  0  0  0
 17 18  1  0  0  0
 17 19  2  0  0  0
 19 20  1  0  0  0
 38 40  1  0  0  0
 39 41  1  0  0  0
 33 34  1  0  0  0
 28 29  1  0  0  0
  4  8  1  0  0  0
  6  9  1  0  0  0
 16 21  1  0  0  0
 18 22  1  0  0  0
 18 23  1  0  0  0
M  END
> <minimizedAffinity>
-9.52042

$$$$
5IRR_GSP_A_402


 41 43  0  0  0  0  0  0  0  0999 V2000
   29.3239   27.6235   85.3903 C   0  0  0  0  0  0  0  0  0  0  0  0
   27.9307   27.5556   85.6267 O   0  0  0  0  0  0  0  0  0  0  0  0
   29.5531   28.8006   84.4670 C   0  0  0  0  0  0  0  0  0  0  0  0
   29.6934   28.2917   83.1667 O   0  0  0  0  0  0  0  0  0  0  0  0
   28.2492   29.5684   84.5017 C   0  0  0  0  0  0  0  0  0  0  0  0
   28.0032   30.1956   83.2660 O   0  0  0  0  0  0  0  0  0  0  0  0
   27.2524   28.4585   84.7732 C   0  0  0  0  0  0  0  0  0  0  0  0
   28.9130   27.7618   82.9409 H   0  0  0  0  0  0  0  0  0  0  0  0
   28.0149   29.5320   82.5586 H   0  0  0  0  0  0  0  0  0  0  0  0
   26.0141   28.9837   85.3849 N   0  0  0  0  0  0  0  0  0  0  0  0
   25.8665   29.5579   86.6134 C   0  0  0  0  0  0  0  0  0  0  0  0
   24.5678   29.9055   86.7735 N   0  0  0  0  0  0  0  0  0  0  0  0
   23.8924   29.5547   85.6439 C   0  0  0  0  0  0  0  0  0  0  0  0
   22.5657   29.6694   85.2601 C   0  0  0  0  0  0  0  0  0  0  0  0
   21.7619   30.1847   86.0391 O   0  0  0  0  0  0  0  0  0  0  0  0
   22.1528   29.2108   84.0169 N   0  0  0  0  0  0  0  0  0  0  0  0
   23.0674   28.6310   83.1417 C   0  0  0  0  0  0  0  0  0  0  0  0
   22.7133   28.1775   81.9403 N   0  0  0  0  0  0  0  0  0  0  0  0
   24.3823   28.5273   83.5530 N   0  0  0  0  0  0  0  0  0  0  0  0
   24.7835   28.9779   84.7644 C   0  0  0  0  0  0  0  0  0  0  0  0
   21.2083   29.2958   83.7525 H   0  0  0  0  0  0  0  0  0  0  0  0
   21.7774   28.2493   81.6432 H   0  0  0  0  0  0  0  0  0  0  0  0
   23.3874   27.7704   81.3495 H   0  0  0  0  0  0  0  0  0  0  0  0
   30.0508   27.7711   86.7213 C   0  0  0  0  0  0  0  0  0  0  0  0
   29.7245   29.0159   87.3035 O   0  0  0  0  0  0  0  0  0  0  0  0
   30.8662   29.9132   87.9873 P   0  0  0  0  0  0  0  0  0  0  0  0
   31.6325   29.1684   88.9952 O   0  0  0  0  0  0  0  0  0  0  0  0
   31.7667   30.4921   86.9687 O   0  0  0  0  0  0  0  0  0  0  0  0
   32.4464   31.0288   87.4055 H   0  0  0  0  0  0  0  0  0  0  0  0
   29.9849   31.0824   88.6590 O   0  0  0  0  0  0  0  0  0  0  0  0
   30.0275   32.6286   88.2457 P   0  0  0  0  0  0  0  0  0  0  0  0
   29.5062   32.8282   86.8787 O   0  0  0  0  0  0  0  0  0  0  0  0
   31.3987   33.1402   88.3286 O   0  0  0  0  0  0  0  0  0  0  0  0
   31.4103   34.0766   88.0760 H   0  0  0  0  0  0  0  0  0  0  0  0
   29.1340   33.3651   89.3587 O   0  0  0  0  0  0  0  0  0  0  0  0
   28.8958   34.9691   89.3435 P   0  0  0  0  0  0  0  0  0  0  0  0
   27.7151   35.4095   90.4576 S   0  0  0  0  0  0  0  0  0  0  0  0
   28.3909   35.3885   87.9599 O   0  0  0  0  0  0  0  0  0  0  0  0
   30.2113   35.7132   89.6198 O   0  0  0  0  0  0  0  0  0  0  0  0
   27.5591   34.9285   87.7662 H   0  0  0  0  0  0  0  0  0  0  0  0
   30.5483   35.4607   90.4936 H   0  0  0  0  0  0  0  0  0  0  0  0
 36 35  1  0  0  0
 36 37  2  0  0  0
 36 38  1  0  0  0
 36 39  1  0  0  0
 35 31  1  0  0  0
 31 32  2  0  0  0
 31 33  1  0  0  0
 31 30  1  0  0  0
 26 27  2  0  0  0
 26 28  1  0  0  0
 26 30  1  0  0  0
 26 25  1  0  0  0
 25 24  1  0  0  0
 24  1  1  0  0  0
  1  2  1  0  0  0
  1  3  1  0  0  0
  2  7  1  0  0  0
  3  4  1  0  0  0
  3  5  1  0  0  0
  5  6  1  0  0  0
  5  7  1  0  0  0
  7 10  1  0  0  0
 10 11  1  0  0  0
 10 20  1  0  0  0
 11 12  2  0  0  0
 12 13  1  0  0  0
 13 14  1  0  0  0
 13 20  2  0  0  0
 14 15  2  0  0  0
 14 16  1  0  0  0
 16 17  1  0  0  0
 17 18  1  0  0  0
 17 19  2  0  0  0
 19 20  1  0  0  0
 38 40  1  0  0  0
 39 41  1  0  0  0
 33 34  1  0  0  0
 28 29  1  0  0  0
  4  8  1  0  0  0
  6  9  1  0  0  0
 16 21  1  0  0  0
 18 22  1  0  0  0
 18 23  1  0  0  0
M  END
> <minimizedAffinity>
-9.40188

$$$$
5IRR_GSP_A_402


 41 43  0  0  0  0  0  0  0  0999 V2000
   25.6605   29.2628   84.8599 C   0  0  0  0  0  0  0  0  0  0  0  0
   24.4100   29.8067   84.4829 O   0  0  0  0  0  0  0  0  0  0  0  0
   25.3689   28.0144   85.6642 C   0  0  0  0  0  0  0  0  0  0  0  0
   25.4825   28.3544   87.0209 O   0  0  0  0  0  0  0  0  0  0  0  0
   23.9059   27.7283   85.4021 C   0  0  0  0  0  0  0  0  0  0  0  0
   23.3020   27.1330   86.5254 O   0  0  0  0  0  0  0  0  0  0  0  0
   23.3660   29.1228   85.1508 C   0  0  0  0  0  0  0  0  0  0  0  0
   24.8899   29.0964   87.2190 H   0  0  0  0  0  0  0  0  0  0  0  0
   23.4273   27.7032   87.3000 H   0  0  0  0  0  0  0  0  0  0  0  0
   22.1226   29.0839   84.3533 N   0  0  0  0  0  0  0  0  0  0  0  0
   20.8431   29.2650   84.7898 C   0  0  0  0  0  0  0  0  0  0  0  0
   20.0068   29.1559   83.7306 N   0  0  0  0  0  0  0  0  0  0  0  0
   20.7574   28.9091   82.6211 C   0  0  0  0  0  0  0  0  0  0  0  0
   20.4384   28.7114   81.2871 C   0  0  0  0  0  0  0  0  0  0  0  0
   19.2555   28.7524   80.9444 O   0  0  0  0  0  0  0  0  0  0  0  0
   21.4382   28.4721   80.3546 N   0  0  0  0  0  0  0  0  0  0  0  0
   22.7726   28.4287   80.7495 C   0  0  0  0  0  0  0  0  0  0  0  0
   23.7626   28.2015   79.8876 N   0  0  0  0  0  0  0  0  0  0  0  0
   23.0599   28.6263   82.0864 N   0  0  0  0  0  0  0  0  0  0  0  0
   22.0839   28.8625   82.9936 C   0  0  0  0  0  0  0  0  0  0  0  0
   21.2026   28.3323   79.4090 H   0  0  0  0  0  0  0  0  0  0  0  0
   23.5623   28.0602   78.9341 H   0  0  0  0  0  0  0  0  0  0  0  0
   24.6944   28.1748   80.2041 H   0  0  0  0  0  0  0  0  0  0  0  0
   26.4796   28.9763   83.6073 C   0  0  0  0  0  0  0  0  0  0  0  0
   27.8012   28.6379   83.9728 O   0  0  0  0  0  0  0  0  0  0  0  0
   28.9595   29.7485   83.9389 P   0  0  0  0  0  0  0  0  0  0  0  0
   30.2010   29.2420   83.3390 O   0  0  0  0  0  0  0  0  0  0  0  0
   28.5030   30.9696   83.2431 O   0  0  0  0  0  0  0  0  0  0  0  0
   29.2188   31.6242   83.2357 H   0  0  0  0  0  0  0  0  0  0  0  0
   29.1439   30.0564   85.5094 O   0  0  0  0  0  0  0  0  0  0  0  0
   29.5568   28.9817   86.6220 P   0  0  0  0  0  0  0  0  0  0  0  0
   30.7541   28.2223   86.2095 O   0  0  0  0  0  0  0  0  0  0  0  0
   28.4485   28.0551   86.8710 O   0  0  0  0  0  0  0  0  0  0  0  0
   28.7116   27.4103   87.5461 H   0  0  0  0  0  0  0  0  0  0  0  0
   29.8075   29.8539   87.9471 O   0  0  0  0  0  0  0  0  0  0  0  0
   30.8132   31.1260   87.9589 P   0  0  0  0  0  0  0  0  0  0  0  0
   29.9529   32.5683   88.0522 S   0  0  0  0  0  0  0  0  0  0  0  0
   31.6023   31.1543   86.6468 O   0  0  0  0  0  0  0  0  0  0  0  0
   31.8147   31.0122   89.1184 O   0  0  0  0  0  0  0  0  0  0  0  0
   30.9866   31.2260   85.9007 H   0  0  0  0  0  0  0  0  0  0  0  0
   31.3336   30.9927   89.9605 H   0  0  0  0  0  0  0  0  0  0  0  0
 36 35  1  0  0  0
 36 37  2  0  0  0
 36 38  1  0  0  0
 36 39  1  0  0  0
 35 31  1  0  0  0
 31 32  2  0  0  0
 31 33  1  0  0  0
 31 30  1  0  0  0
 26 27  2  0  0  0
 26 28  1  0  0  0
 26 30  1  0  0  0
 26 25  1  0  0  0
 25 24  1  0  0  0
 24  1  1  0  0  0
  1  2  1  0  0  0
  1  3  1  0  0  0
  2  7  1  0  0  0
  3  4  1  0  0  0
  3  5  1  0  0  0
  5  6  1  0  0  0
  5  7  1  0  0  0
  7 10  1  0  0  0
 10 11  1  0  0  0
 10 20  1  0  0  0
 11 12  2  0  0  0
 12 13  1  0  0  0
 13 14  1  0  0  0
 13 20  2  0  0  0
 14 15  2  0  0  0
 14 16  1  0  0  0
 16 17  1  0  0  0
 17 18  1  0  0  0
 17 19  2  0  0  0
 19 20  1  0  0  0
 38 40  1  0  0  0
 39 41  1  0  0  0
 33 34  1  0  0  0
 28 29  1  0  0  0
  4  8  1  0  0  0
  6  9  1  0  0  0
 16 21  1  0  0  0
 18 22  1  0  0  0
 18 23  1  0  0  0
M  END
> <minimizedAffinity>
-9.35725

$$$$
