5IRR_GSP_A_402
  RCSB PDB12061718133D
Coordinates from PDB:5IRR:A:402 Model:1 without hydrogens
 32 34  0  0  0  0            999 V2000
   21.6990   28.9530   83.7150   P 0  0  0  0  0  0  0  0  0  0  0  0
   23.1830   29.4330   84.1590   O 0  0  0  0  0  0  0  0  0  0  0  0
   20.7550   30.2690   83.2610   S 0  0  0  0  0  0  0  0  0  0  0  0
   21.0070   28.2910   84.9100   O 0  0  0  0  0  0  0  0  0  0  0  0
   21.7820   27.9230   82.5780   O 0  0  0  0  0  0  0  0  0  0  0  0
   23.4330   30.3010   85.4870   P 0  0  0  0  0  0  0  0  0  0  0  0
   22.9280   31.6830   85.3630   O 0  0  0  0  0  0  0  0  0  0  0  0
   22.7740   29.6360   86.6150   O 0  0  0  0  0  0  0  0  0  0  0  0
   25.8390   29.2250   86.5810   P 0  0  0  0  0  0  0  0  0  0  0  0
   25.4160   27.8450   86.3080   O 0  0  0  0  0  0  0  0  0  0  0  0
   25.6670   29.5510   88.0120   O 0  0  0  0  0  0  0  0  0  0  0  0
   25.0220   30.2830   85.6820   O 0  0  0  0  0  0  0  0  0  0  0  0
   27.3450   29.5070   86.1030   O 0  0  0  0  0  0  0  0  0  0  0  0
   27.7270   29.2540   84.7670   C 0  0  0  0  0  0  0  0  0  0  0  0
   29.2240   29.4910   84.6100   C 0  0  0  0  0  0  0  0  0  0  0  0
   29.5390   30.7920   85.0680   O 0  0  0  0  0  0  0  0  0  0  0  0
   30.0560   28.5270   85.4280   C 0  0  0  0  0  0  0  0  0  0  0  0
   31.1690   28.1710   84.6510   O 0  0  0  0  0  0  0  0  0  0  0  0
   30.5720   29.3580   86.5830   C 0  0  0  0  0  0  0  0  0  0  0  0
   31.8420   28.9120   86.9940   O 0  0  0  0  0  0  0  0  0  0  0  0
   30.6400   30.7370   85.9560   C 0  0  0  0  0  0  0  0  0  0  0  0
   30.5850   31.7990   86.9820   N 0  0  0  0  0  0  0  0  0  0  0  0
   29.7780   31.8600   88.0800   C 0  0  0  0  0  0  0  0  0  0  0  0
   30.0580   32.9980   88.7580   N 0  0  0  0  0  0  0  0  0  0  0  0
   31.0460   33.6570   88.0910   C 0  0  0  0  0  0  0  0  0  0  0  0
   31.7120   34.8500   88.3230   C 0  0  0  0  0  0  0  0  0  0  0  0
   31.4140   35.5160   89.3160   O 0  0  0  0  0  0  0  0  0  0  0  0
   32.6990   35.2840   87.4490   N 0  0  0  0  0  0  0  0  0  0  0  0
   33.0310   34.5250   86.3300   C 0  0  0  0  0  0  0  0  0  0  0  0
   33.9710   34.9050   85.4660   N 0  0  0  0  0  0  0  0  0  0  0  0
   32.3480   33.3420   86.1230   N 0  0  0  0  0  0  0  0  0  0  0  0
   31.3880   32.9190   86.9780   C 0  0  0  0  0  0  0  0  0  0  0  0
  1  2  1  0  0  0  0
  1  3  2  0  0  0  0
  1  4  1  0  0  0  0
  1  5  1  0  0  0  0
  2  6  1  0  0  0  0
  6  7  2  0  0  0  0
  6  8  1  0  0  0  0
  6 12  1  0  0  0  0
  9 10  2  0  0  0  0
  9 11  1  0  0  0  0
  9 12  1  0  0  0  0
  9 13  1  0  0  0  0
 13 14  1  0  0  0  0
 14 15  1  0  0  0  0
 15 16  1  0  0  0  0
 15 17  1  0  0  0  0
 16 21  1  0  0  0  0
 17 18  1  0  0  0  0
 17 19  1  0  0  0  0
 19 20  1  0  0  0  0
 19 21  1  0  0  0  0
 21 22  1  0  0  0  0
 22 23  1  0  0  0  0
 22 32  1  0  0  0  0
 23 24  2  0  0  0  0
 24 25  1  0  0  0  0
 25 26  1  0  0  0  0
 25 32  2  0  0  0  0
 26 27  2  0  0  0  0
 26 28  1  0  0  0  0
 28 29  1  0  0  0  0
 29 30  1  0  0  0  0
 29 31  2  0  0  0  0
 31 32  1  0  0  0  0
A    1
PG
A    2
O3B
A    3
S1G
A    4
O2G
A    5
O3G
A    6
PB
A    7
O1B
A    8
O2B
A    9
PA
A   10
O1A
A   11
O2A
A   12
O3A
A   13
O5'
A   14
C5'
A   15
C4'
A   16
O4'
A   17
C3'
A   18
O3'
A   19
C2'
A   20
O2'
A   21
C1'
A   22
N9
A   23
C8
A   24
N7
A   25
C5
A   26
C6
A   27
O6
A   28
N1
A   29
C2
A   30
N2
A   31
N3
A   32
C4
M  END
>  <InstanceId>
5IRR_GSP_A_402

>  <ChemCompId>
GSP

>  <PdbId>
5IRR

>  <ChainId>
A

>  <ResidueNumber>
402

>  <InsertionCode>


>  <Model>
1

>  <AltIds>


>  <MissingHeavyAtoms>
0

>  <ObservedFormula>
C10 N5 O13 P3 S

>  <Name>
5'-GUANOSINE-DIPHOSPHATE-MONOTHIOPHOSPHATE

>  <SystematicName>
[[(2R,3S,4R,5R)-5-(2-amino-6-oxo-1H-purin-9-yl)-3,4-dihydroxy-oxolan-2-yl]methoxy-hydroxy-phosphoryl] dihydroxyphosphinothioyl hydrogen phosphate

>  <Synonyms>


>  <Type>
NON-POLYMER

>  <Formula>
C10 H16 N5 O13 P3 S

>  <MolecularWeight>
539.246

>  <ModifiedDate>
2011-06-04

>  <Parent>


>  <OneLetterCode>


>  <SubcomponentList>


>  <AmbiguousFlag>
N

>  <InChI>
InChI=1S/C10H16N5O13P3S/c11-10-13-7-4(8(18)14-10)12-2-15(7)9-6(17)5(16)3(26-9)1-25-29(19,20)27-30(21,22)28-31(23,24)32/h2-3,5-6,9,16-17H,1H2,(H,19,20)(H,21,22)(H2,23,24,32)(H3,11,13,14,18)/t3-,5-,6-,9-/m1/s1

>  <InChIKey>
XOFLBQFBSOEHOG-UUOKFMHZSA-N

>  <SMILES>
c1nc2c(n1[C@H]3[C@@H]([C@@H]([C@H](O3)CO[P@](=O)(O)O[P@](=O)(O)OP(=S)(O)O)O)O)N=C(NC2=O)N

$$$$
