1XUG_BAB_A_246
  RCSB PDB12061704413D
Coordinates from PDB:1XUG:A:246 Model:1 without hydrogens
 25 28  0  0  0  0            999 V2000
   43.7570   -2.8580   26.3910   C 0  0  0  0  0  0  0  0  0  0  0  0
   44.3310   -1.5610   26.6120   C 0  0  0  0  0  0  0  0  0  0  0  0
   44.1330   -0.8570   27.8130   C 0  0  0  0  0  0  0  0  0  0  0  0
   43.3590   -1.4860   28.7510   C 0  0  0  0  0  0  0  0  0  0  0  0
   42.8040   -2.6870   28.5920   C 0  0  0  0  0  0  0  0  0  0  0  0
   42.9680   -3.4190   27.4350   C 0  0  0  0  0  0  0  0  0  0  0  0
   43.9630   -3.5390   25.1890   C 0  0  0  0  0  0  0  0  0  0  0  0
   42.2820   -1.9390   30.5240   C 0  0  0  0  0  0  0  0  0  0  0  0
   41.6830   -1.7130   32.0090   C 0  0  0  0  0  0  0  0  0  0  0  0
   43.7140   -4.8230   25.1280   N 0  3  0  0  0  0  0  0  0  0  0  0
   44.3900   -2.8790   24.1360   N 0  0  0  0  0  0  0  0  0  0  0  0
   43.0250   -1.0630   29.9250   N 0  0  0  0  0  0  0  0  0  0  0  0
   42.1410   -2.9560   29.6960   N 0  0  0  0  0  0  0  0  0  0  0  0
   45.1710    0.3350   36.5420   C 0  0  0  0  0  0  0  0  0  0  0  0
   45.5520    1.2280   35.4880   C 0  0  0  0  0  0  0  0  0  0  0  0
   44.9990    1.1550   34.2020   C 0  0  0  0  0  0  0  0  0  0  0  0
   44.0590    0.1710   33.9990   C 0  0  0  0  0  0  0  0  0  0  0  0
   43.6580   -0.6980   34.9500   C 0  0  0  0  0  0  0  0  0  0  0  0
   44.1830   -0.6590   36.2420   C 0  0  0  0  0  0  0  0  0  0  0  0
   45.7780    0.4500   37.8100   C 0  0  0  0  0  0  0  0  0  0  0  0
   42.6280   -1.1080   33.1340   C 0  0  0  0  0  0  0  0  0  0  0  0
   45.1760    0.0310   38.9020   N 0  3  0  0  0  0  0  0  0  0  0  0
   46.9800    0.9820   37.8570   N 0  0  0  0  0  0  0  0  0  0  0  0
   43.4170   -0.1020   32.9100   N 0  3  0  0  0  0  0  0  0  0  0  0
   42.7630   -1.4900   34.3900   N 0  0  0  0  0  0  0  0  0  0  0  0
  1  2  1  0  0  0  0
  1  6  2  0  0  0  0
  1  7  1  0  0  0  0
  2  3  2  0  0  0  0
  3  4  1  0  0  0  0
  4  5  2  0  0  0  0
  4 12  1  0  0  0  0
  5  6  1  0  0  0  0
  5 13  1  0  0  0  0
  7 10  2  0  0  0  0
  7 11  1  0  0  0  0
  8  9  1  0  0  0  0
  8 12  2  0  0  0  0
  8 13  1  0  0  0  0
  9 21  1  0  0  0  0
 14 15  1  0  0  0  0
 14 19  2  0  0  0  0
 14 20  1  0  0  0  0
 15 16  2  0  0  0  0
 16 17  1  0  0  0  0
 17 18  2  0  0  0  0
 17 24  1  0  0  0  0
 18 19  1  0  0  0  0
 18 25  1  0  0  0  0
 20 22  2  0  0  0  0
 20 23  1  0  0  0  0
 21 24  2  0  0  0  0
 21 25  1  0  0  0  0
M  CHG  3  10   1  22   1  24   1
A    1
C1
A    2
C2
A    3
C3
A    4
C4
A    5
C5
A    6
C6
A    7
C7
A    8
C8
A    9
C9
A   10
N1
A   11
N2
A   12
N3
A   13
N4
A   14
C1'
A   15
C2'
A   16
C3'
A   17
C4'
A   18
C5'
A   19
C6'
A   20
C7'
A   21
C8'
A   22
N1'
A   23
N2'
A   24
N3'
A   25
N4'
M  END
>  <InstanceId>
1XUG_BAB_A_246

>  <ChemCompId>
BAB

>  <PdbId>
1XUG

>  <ChainId>
A

>  <ResidueNumber>
246

>  <InsertionCode>


>  <Model>
1

>  <AltIds>


>  <MissingHeavyAtoms>
0

>  <ObservedFormula>
C17 N8

>  <Name>
BIS(5-AMIDINO-BENZIMIDAZOLYL)METHANE

>  <SystematicName>
[amino-[2-[[6-(amino-azaniumylidene-methyl)-1H-benzimidazol-3-ium-2-yl]methyl]-3H-benzimidazol-5-yl]methylidene]azanium

>  <Synonyms>


>  <Type>
NON-POLYMER

>  <Formula>
C17 H19 N8

>  <MolecularWeight>
335.386

>  <ModifiedDate>
2011-06-04

>  <Parent>


>  <OneLetterCode>


>  <SubcomponentList>


>  <AmbiguousFlag>
N

>  <InChI>
InChI=1S/C17H16N8/c18-16(19)8-1-3-10-12(5-8)24-14(22-10)7-15-23-11-4-2-9(17(20)21)6-13(11)25-15/h1-6H,7H2,(H3,18,19)(H3,20,21)(H,22,24)(H,23,25)/p+3

>  <InChIKey>
QZKOOEFIMWKZPK-UHFFFAOYSA-Q

>  <SMILES>
c1cc2c(cc1C(=[NH2+])N)[nH]c([nH+]2)Cc3[nH]c4cc(ccc4n3)C(=[NH2+])N

$$$$
