4NXU_ADP_A_501
  RCSB PDB12061713583D
Coordinates from PDB:4NXU:A:501 Model:1 without hydrogens
 27 29  0  0  0  0            999 V2000
   -5.0740  -26.8620  -11.9640   P 0  0  0  0  0  0  0  0  0  0  0  0
   -5.0350  -25.5020  -11.3190   O 0  0  0  0  0  0  0  0  0  0  0  0
   -4.3900  -26.9370  -13.3080   O 0  0  0  0  0  0  0  0  0  0  0  0
   -6.4310  -27.5170  -11.9170   O 0  0  0  0  0  0  0  0  0  0  0  0
   -4.4580  -28.1850   -9.4990   P 0  0  0  0  0  0  0  0  0  0  0  0
   -3.2680  -27.8730   -8.6250   O 0  0  0  0  0  0  0  0  0  0  0  0
   -5.8480  -27.7220   -9.1430   O 0  0  0  0  0  0  0  0  0  0  0  0
   -4.1390  -27.8000  -11.0370   O 0  0  0  0  0  0  0  0  0  0  0  0
   -4.5230  -29.7890   -9.6600   O 0  0  0  0  0  0  0  0  0  0  0  0
   -5.6970  -30.4320  -10.1150   C 0  0  0  0  0  0  0  0  0  0  0  0
   -5.4530  -31.9160  -10.1400   C 0  0  0  0  0  0  0  0  0  0  0  0
   -4.9830  -32.3400   -8.8570   O 0  0  0  0  0  0  0  0  0  0  0  0
   -6.7330  -32.6540  -10.4130   C 0  0  0  0  0  0  0  0  0  0  0  0
   -6.4850  -33.6500  -11.3950   O 0  0  0  0  0  0  0  0  0  0  0  0
   -7.1620  -33.2050   -9.0660   C 0  0  0  0  0  0  0  0  0  0  0  0
   -7.8500  -34.4440   -9.1270   O 0  0  0  0  0  0  0  0  0  0  0  0
   -5.8530  -33.3280   -8.2960   C 0  0  0  0  0  0  0  0  0  0  0  0
   -5.9880  -33.1200   -6.8180   N 0  0  0  0  0  0  0  0  0  0  0  0
   -6.7520  -32.1980   -6.1900   C 0  0  0  0  0  0  0  0  0  0  0  0
   -6.6270  -32.2970   -4.8380   N 0  0  0  0  0  0  0  0  0  0  0  0
   -5.7730  -33.2870   -4.5660   C 0  0  0  0  0  0  0  0  0  0  0  0
   -5.2120  -33.9020   -3.3430   C 0  0  0  0  0  0  0  0  0  0  0  0
   -5.5510  -33.4640   -2.1130   N 0  0  0  0  0  0  0  0  0  0  0  0
   -4.3390  -34.9340   -3.5310   N 0  0  0  0  0  0  0  0  0  0  0  0
   -4.0040  -35.3700   -4.7720   C 0  0  0  0  0  0  0  0  0  0  0  0
   -4.4830  -34.8500   -5.9130   N 0  0  0  0  0  0  0  0  0  0  0  0
   -5.3540  -33.8280   -5.8740   C 0  0  0  0  0  0  0  0  0  0  0  0
  1  2  2  0  0  0  0
  1  3  1  0  0  0  0
  1  4  1  0  0  0  0
  1  8  1  0  0  0  0
  5  6  2  0  0  0  0
  5  7  1  0  0  0  0
  5  8  1  0  0  0  0
  5  9  1  0  0  0  0
  9 10  1  0  0  0  0
 10 11  1  0  0  0  0
 11 12  1  0  0  0  0
 11 13  1  0  0  0  0
 12 17  1  0  0  0  0
 13 14  1  0  0  0  0
 13 15  1  0  0  0  0
 15 16  1  0  0  0  0
 15 17  1  0  0  0  0
 17 18  1  0  0  0  0
 18 19  1  0  0  0  0
 18 27  1  0  0  0  0
 19 20  2  0  0  0  0
 20 21  1  0  0  0  0
 21 22  1  0  0  0  0
 21 27  2  0  0  0  0
 22 23  1  0  0  0  0
 22 24  2  0  0  0  0
 24 25  1  0  0  0  0
 25 26  2  0  0  0  0
 26 27  1  0  0  0  0
A    1
PB
A    2
O1B
A    3
O2B
A    4
O3B
A    5
PA
A    6
O1A
A    7
O2A
A    8
O3A
A    9
O5'
A   10
C5'
A   11
C4'
A   12
O4'
A   13
C3'
A   14
O3'
A   15
C2'
A   16
O2'
A   17
C1'
A   18
N9
A   19
C8
A   20
N7
A   21
C5
A   22
C6
A   23
N6
A   24
N1
A   25
C2
A   26
N3
A   27
C4
M  END
>  <InstanceId>
4NXU_ADP_A_501

>  <ChemCompId>
ADP

>  <PdbId>
4NXU

>  <ChainId>
A

>  <ResidueNumber>
501

>  <InsertionCode>


>  <Model>
1

>  <AltIds>


>  <MissingHeavyAtoms>
0

>  <ObservedFormula>
C10 N5 O10 P2

>  <Name>
ADENOSINE-5'-DIPHOSPHATE

>  <SystematicName>
[(2R,3S,4R,5R)-5-(6-aminopurin-9-yl)-3,4-dihydroxy-oxolan-2-yl]methyl phosphono hydrogen phosphate

>  <Synonyms>


>  <Type>
NON-POLYMER

>  <Formula>
C10 H15 N5 O10 P2

>  <MolecularWeight>
427.201

>  <ModifiedDate>
2011-06-04

>  <Parent>
A

>  <OneLetterCode>


>  <SubcomponentList>


>  <AmbiguousFlag>
N

>  <InChI>
InChI=1S/C10H15N5O10P2/c11-8-5-9(13-2-12-8)15(3-14-5)10-7(17)6(16)4(24-10)1-23-27(21,22)25-26(18,19)20/h2-4,6-7,10,16-17H,1H2,(H,21,22)(H2,11,12,13)(H2,18,19,20)/t4-,6-,7-,10-/m1/s1

>  <InChIKey>
XTWYTFMLZFPYCI-KQYNXXCUSA-N

>  <SMILES>
c1nc(c2c(n1)n(cn2)[C@H]3[C@@H]([C@@H]([C@H](O3)CO[P@](=O)(O)OP(=O)(O)O)O)O)N

$$$$
