5HBN_RPI_A_206


 24 23  0  0  0  0  0  0  0  0999 V2000
   25.6297   27.4883    9.7758 N   0  0  0  0  0  0  0  0  0  0  0  0
   25.1370   28.2915   10.0609 H   0  0  0  0  0  0  0  0  0  0  0  0
   25.1940   26.7740    8.6509 C   0  0  0  0  0  0  0  0  0  0  0  0
   25.8761   25.7386    8.2649 N   0  0  0  0  0  0  0  0  0  0  0  0
   25.5863   25.2240    7.4772 H   0  0  0  0  0  0  0  0  0  0  0  0
   24.0113   27.1455    7.9415 N   0  0  0  0  0  0  0  0  0  0  0  0
   24.0891   27.2397    6.9646 H   0  0  0  0  0  0  0  0  0  0  0  0
   22.5263   27.4321    8.6033 P   0  0  0  0  0  0  0  0  0  0  0  0
   22.1477   28.8453    8.2061 O   0  0  0  0  0  0  0  0  0  0  0  0
   22.7389   27.3699   10.0952 O   0  0  0  0  0  0  0  0  0  0  0  0
   21.4856   26.4533    8.1456 O   0  0  0  0  0  0  0  0  0  0  0  0
   22.8323   29.4612    8.5109 H   0  0  0  0  0  0  0  0  0  0  0  0
   21.7465   25.5570    8.4092 H   0  0  0  0  0  0  0  0  0  0  0  0
   26.7730   27.0699   10.5113 C   0  0  0  0  0  0  0  0  0  0  0  0
   27.9186   27.9786   10.1496 C   0  0  0  0  0  0  0  0  0  0  0  0
   29.1475   27.1724    9.8114 C   0  0  0  0  0  0  0  0  0  0  0  0
   28.3140   27.8674    7.6857 N   0  0  0  0  0  0  0  0  0  0  0  0
   29.3143   27.0579    8.3145 C   0  0  0  0  0  0  0  0  0  0  0  0
   28.4174   28.8348    7.9922 H   0  0  0  0  0  0  0  0  0  0  0  0
   27.3883   27.5260    7.9444 H   0  0  0  0  0  0  0  0  0  0  0  0
   29.2322   25.5972    7.9121 C   0  0  0  0  0  0  0  0  0  0  0  0
   28.6095   25.2373    6.8657 O   0  0  0  0  0  0  0  0  0  0  0  0
   29.7668   24.7291    8.6498 O   0  0  0  0  0  0  0  0  0  0  0  0
   30.2272   24.9905    9.4229 H   0  0  0  0  0  0  0  0  0  0  0  0
 10  8  2  0  0  0
  6  8  1  0  0  0
  6  3  1  0  0  0
  9  8  1  0  0  0
  4  3  2  0  0  0
  8 11  1  0  0  0
  3  1  1  0  0  0
  1 14  1  0  0  0
 14 15  1  0  0  0
 15 16  1  0  0  0
 16 18  1  0  0  0
 18 21  1  0  0  0
 18 17  1  0  0  0
 22 21  2  0  0  0
 21 23  1  0  0  0
 17 19  1  0  0  0
 17 20  1  0  0  0
  1  2  1  0  0  0
  4  5  1  0  0  0
  6  7  1  0  0  0
  9 12  1  0  0  0
 11 13  1  0  0  0
 23 24  1  0  0  0
M  END
> <minimizedAffinity>
-5.80357

$$$$
5HBN_RPI_A_206


 24 23  0  0  0  0  0  0  0  0999 V2000
   27.6308   28.5135    8.5636 N   0  0  0  0  0  0  0  0  0  0  0  0
   27.4136   28.2814    7.6319 H   0  0  0  0  0  0  0  0  0  0  0  0
   28.8603   28.1139    9.1061 C   0  0  0  0  0  0  0  0  0  0  0  0
   29.3296   28.7570   10.1319 N   0  0  0  0  0  0  0  0  0  0  0  0
   30.1913   28.4916   10.5272 H   0  0  0  0  0  0  0  0  0  0  0  0
   29.5888   27.0076    8.5719 N   0  0  0  0  0  0  0  0  0  0  0  0
   30.5707   27.0514    8.6298 H   0  0  0  0  0  0  0  0  0  0  0  0
   28.9416   25.6625    7.8666 P   0  0  0  0  0  0  0  0  0  0  0  0
   29.1318   25.8312    6.3721 O   0  0  0  0  0  0  0  0  0  0  0  0
   27.4703   25.7126    8.1943 O   0  0  0  0  0  0  0  0  0  0  0  0
   29.5779   24.3908    8.3443 O   0  0  0  0  0  0  0  0  0  0  0  0
   28.7138   26.6579    6.0842 H   0  0  0  0  0  0  0  0  0  0  0  0
   29.4451   24.3022    9.3011 H   0  0  0  0  0  0  0  0  0  0  0  0
   26.6925   29.2492    9.3392 C   0  0  0  0  0  0  0  0  0  0  0  0
   25.7715   28.2661   10.0130 C   0  0  0  0  0  0  0  0  0  0  0  0
   24.3575   28.4407    9.5184 C   0  0  0  0  0  0  0  0  0  0  0  0
   24.8055   26.6481    8.0076 N   0  0  0  0  0  0  0  0  0  0  0  0
   23.8345   27.1500    8.9332 C   0  0  0  0  0  0  0  0  0  0  0  0
   25.6907   26.4978    8.4916 H   0  0  0  0  0  0  0  0  0  0  0  0
   24.9396   27.3240    7.2556 H   0  0  0  0  0  0  0  0  0  0  0  0
   22.4822   27.4025    8.2930 C   0  0  0  0  0  0  0  0  0  0  0  0
   21.4071   27.0370    8.8613 O   0  0  0  0  0  0  0  0  0  0  0  0
   22.4342   27.9568    7.1644 O   0  0  0  0  0  0  0  0  0  0  0  0
   23.2253   28.2280    6.7416 H   0  0  0  0  0  0  0  0  0  0  0  0
 10  8  2  0  0  0
  6  8  1  0  0  0
  6  3  1  0  0  0
  9  8  1  0  0  0
  4  3  2  0  0  0
  8 11  1  0  0  0
  3  1  1  0  0  0
  1 14  1  0  0  0
 14 15  1  0  0  0
 15 16  1  0  0  0
 16 18  1  0  0  0
 18 21  1  0  0  0
 18 17  1  0  0  0
 22 21  2  0  0  0
 21 23  1  0  0  0
 17 19  1  0  0  0
 17 20  1  0  0  0
  1  2  1  0  0  0
  4  5  1  0  0  0
  6  7  1  0  0  0
  9 12  1  0  0  0
 11 13  1  0  0  0
 23 24  1  0  0  0
M  END
> <minimizedAffinity>
-5.42083

$$$$
5HBN_RPI_A_206


 24 23  0  0  0  0  0  0  0  0999 V2000
   25.3639   27.7142   10.0278 N   0  0  0  0  0  0  0  0  0  0  0  0
   25.7599   26.8404    9.8066 H   0  0  0  0  0  0  0  0  0  0  0  0
   24.1549   27.7649   10.7357 C   0  0  0  0  0  0  0  0  0  0  0  0
   24.1500   28.2771   11.9290 N   0  0  0  0  0  0  0  0  0  0  0  0
   23.3110   28.3218   12.4421 H   0  0  0  0  0  0  0  0  0  0  0  0
   22.9344   27.2901   10.1657 N   0  0  0  0  0  0  0  0  0  0  0  0
   22.2766   26.8983   10.7846 H   0  0  0  0  0  0  0  0  0  0  0  0
   22.5214   27.3355    8.5679 P   0  0  0  0  0  0  0  0  0  0  0  0
   23.7442   26.8767    7.7981 O   0  0  0  0  0  0  0  0  0  0  0  0
   22.2564   28.7898    8.2686 O   0  0  0  0  0  0  0  0  0  0  0  0
   21.3361   26.4736    8.2477 O   0  0  0  0  0  0  0  0  0  0  0  0
   24.4978   27.4460    8.0191 H   0  0  0  0  0  0  0  0  0  0  0  0
   20.5660   26.7835    8.7495 H   0  0  0  0  0  0  0  0  0  0  0  0
   26.0270   28.9061    9.6245 C   0  0  0  0  0  0  0  0  0  0  0  0
   27.3043   28.5164    8.9277 C   0  0  0  0  0  0  0  0  0  0  0  0
   27.4297   27.0152    8.8529 C   0  0  0  0  0  0  0  0  0  0  0  0
   29.6779   27.7545    8.5440 N   0  0  0  0  0  0  0  0  0  0  0  0
   28.8825   26.6018    8.8441 C   0  0  0  0  0  0  0  0  0  0  0  0
   29.5076   28.4767    9.2438 H   0  0  0  0  0  0  0  0  0  0  0  0
   29.4275   28.1094    7.6211 H   0  0  0  0  0  0  0  0  0  0  0  0
   29.0758   25.4738    7.8477 C   0  0  0  0  0  0  0  0  0  0  0  0
   29.3838   24.3033    8.2312 O   0  0  0  0  0  0  0  0  0  0  0  0
   28.9577   25.7171    6.6188 O   0  0  0  0  0  0  0  0  0  0  0  0
   28.7305   26.5796    6.3316 H   0  0  0  0  0  0  0  0  0  0  0  0
 10  8  2  0  0  0
  6  8  1  0  0  0
  6  3  1  0  0  0
  9  8  1  0  0  0
  4  3  2  0  0  0
  8 11  1  0  0  0
  3  1  1  0  0  0
  1 14  1  0  0  0
 14 15  1  0  0  0
 15 16  1  0  0  0
 16 18  1  0  0  0
 18 21  1  0  0  0
 18 17  1  0  0  0
 22 21  2  0  0  0
 21 23  1  0  0  0
 17 19  1  0  0  0
 17 20  1  0  0  0
  1  2  1  0  0  0
  4  5  1  0  0  0
  6  7  1  0  0  0
  9 12  1  0  0  0
 11 13  1  0  0  0
 23 24  1  0  0  0
M  END
> <minimizedAffinity>
-5.13521

$$$$
5HBN_RPI_A_206


 24 23  0  0  0  0  0  0  0  0999 V2000
   26.1570   29.2277    9.1586 N   0  0  0  0  0  0  0  0  0  0  0  0
   26.2106   28.8463    8.2526 H   0  0  0  0  0  0  0  0  0  0  0  0
   24.9543   29.1419    9.8739 C   0  0  0  0  0  0  0  0  0  0  0  0
   24.5521   30.1769   10.5471 N   0  0  0  0  0  0  0  0  0  0  0  0
   23.7102   30.1364   11.0558 H   0  0  0  0  0  0  0  0  0  0  0  0
   24.1576   27.9565    9.8573 N   0  0  0  0  0  0  0  0  0  0  0  0
   24.4116   27.2405   10.4834 H   0  0  0  0  0  0  0  0  0  0  0  0
   22.8515   27.6726    8.8884 P   0  0  0  0  0  0  0  0  0  0  0  0
   22.4026   29.0249    8.3705 O   0  0  0  0  0  0  0  0  0  0  0  0
   21.7938   27.1095    9.8043 O   0  0  0  0  0  0  0  0  0  0  0  0
   23.1599   26.7429    7.7522 O   0  0  0  0  0  0  0  0  0  0  0  0
   22.2085   29.6098    9.1196 H   0  0  0  0  0  0  0  0  0  0  0  0
   23.4447   25.8851    8.1045 H   0  0  0  0  0  0  0  0  0  0  0  0
   27.3011   29.8574    9.7223 C   0  0  0  0  0  0  0  0  0  0  0  0
   28.4910   28.9662    9.4799 C   0  0  0  0  0  0  0  0  0  0  0  0
   28.3171   28.1873    8.2002 C   0  0  0  0  0  0  0  0  0  0  0  0
   28.7770   26.0326    7.2825 N   0  0  0  0  0  0  0  0  0  0  0  0
   28.3449   26.7018    8.4728 C   0  0  0  0  0  0  0  0  0  0  0  0
   29.7012   26.3730    7.0174 H   0  0  0  0  0  0  0  0  0  0  0  0
   28.1164   26.2200    6.5282 H   0  0  0  0  0  0  0  0  0  0  0  0
   26.9725   26.2528    8.9390 C   0  0  0  0  0  0  0  0  0  0  0  0
   26.0469   25.9971    8.1083 O   0  0  0  0  0  0  0  0  0  0  0  0
   26.7452   26.1642   10.1735 O   0  0  0  0  0  0  0  0  0  0  0  0
   27.4256   26.3520   10.7898 H   0  0  0  0  0  0  0  0  0  0  0  0
 10  8  2  0  0  0
  6  8  1  0  0  0
  6  3  1  0  0  0
  9  8  1  0  0  0
  4  3  2  0  0  0
  8 11  1  0  0  0
  3  1  1  0  0  0
  1 14  1  0  0  0
 14 15  1  0  0  0
 15 16  1  0  0  0
 16 18  1  0  0  0
 18 21  1  0  0  0
 18 17  1  0  0  0
 22 21  2  0  0  0
 21 23  1  0  0  0
 17 19  1  0  0  0
 17 20  1  0  0  0
  1  2  1  0  0  0
  4  5  1  0  0  0
  6  7  1  0  0  0
  9 12  1  0  0  0
 11 13  1  0  0  0
 23 24  1  0  0  0
M  END
> <minimizedAffinity>
-5.04386

$$$$
5HBN_RPI_A_206


 24 23  0  0  0  0  0  0  0  0999 V2000
   25.4649   27.2983   10.1720 N   0  0  0  0  0  0  0  0  0  0  0  0
   24.7741   27.9355   10.4653 H   0  0  0  0  0  0  0  0  0  0  0  0
   25.3908   26.7426    8.8870 C   0  0  0  0  0  0  0  0  0  0  0  0
   26.4428   26.1613    8.3956 N   0  0  0  0  0  0  0  0  0  0  0  0
   26.4108   25.7650    7.4950 H   0  0  0  0  0  0  0  0  0  0  0  0
   24.1840   26.7821    8.1240 N   0  0  0  0  0  0  0  0  0  0  0  0
   24.1459   26.2132    7.3214 H   0  0  0  0  0  0  0  0  0  0  0  0
   22.8470   27.6906    8.4595 P   0  0  0  0  0  0  0  0  0  0  0  0
   22.2467   28.0762    7.1219 O   0  0  0  0  0  0  0  0  0  0  0  0
   23.3702   28.9254    9.1496 O   0  0  0  0  0  0  0  0  0  0  0  0
   21.8437   26.9612    9.3032 O   0  0  0  0  0  0  0  0  0  0  0  0
   22.9105   28.5457    6.5929 H   0  0  0  0  0  0  0  0  0  0  0  0
   22.2471   26.7240   10.1528 H   0  0  0  0  0  0  0  0  0  0  0  0
   26.5232   26.9553   11.0584 C   0  0  0  0  0  0  0  0  0  0  0  0
   25.9500   26.1061   12.1625 C   0  0  0  0  0  0  0  0  0  0  0  0
   25.5007   26.9688   13.3151 C   0  0  0  0  0  0  0  0  0  0  0  0
   23.7547   25.3510   13.4896 N   0  0  0  0  0  0  0  0  0  0  0  0
   24.0340   26.7511   13.6035 C   0  0  0  0  0  0  0  0  0  0  0  0
   24.3374   24.8335   14.1477 H   0  0  0  0  0  0  0  0  0  0  0  0
   23.9566   25.0402   12.5394 H   0  0  0  0  0  0  0  0  0  0  0  0
   23.2065   27.5986   12.6551 C   0  0  0  0  0  0  0  0  0  0  0  0
   22.0577   27.2209   12.2679 O   0  0  0  0  0  0  0  0  0  0  0  0
   23.6863   28.6791   12.2242 O   0  0  0  0  0  0  0  0  0  0  0  0
   24.5337   28.9614   12.5075 H   0  0  0  0  0  0  0  0  0  0  0  0
 10  8  2  0  0  0
  6  8  1  0  0  0
  6  3  1  0  0  0
  9  8  1  0  0  0
  4  3  2  0  0  0
  8 11  1  0  0  0
  3  1  1  0  0  0
  1 14  1  0  0  0
 14 15  1  0  0  0
 15 16  1  0  0  0
 16 18  1  0  0  0
 18 21  1  0  0  0
 18 17  1  0  0  0
 22 21  2  0  0  0
 21 23  1  0  0  0
 17 19  1  0  0  0
 17 20  1  0  0  0
  1  2  1  0  0  0
  4  5  1  0  0  0
  6  7  1  0  0  0
  9 12  1  0  0  0
 11 13  1  0  0  0
 23 24  1  0  0  0
M  END
> <minimizedAffinity>
-5.03159

$$$$
5HBN_RPI_A_206


 24 23  0  0  0  0  0  0  0  0999 V2000
   26.0380   28.1349    8.9607 N   0  0  0  0  0  0  0  0  0  0  0  0
   25.6512   29.0315    8.8348 H   0  0  0  0  0  0  0  0  0  0  0  0
   25.2479   27.0021    8.7202 C   0  0  0  0  0  0  0  0  0  0  0  0
   25.7661   26.0050    8.0695 N   0  0  0  0  0  0  0  0  0  0  0  0
   25.2274   25.2006    7.8906 H   0  0  0  0  0  0  0  0  0  0  0  0
   23.9032   26.9144    9.1936 N   0  0  0  0  0  0  0  0  0  0  0  0
   23.7465   26.3547    9.9883 H   0  0  0  0  0  0  0  0  0  0  0  0
   22.5866   27.6620    8.5355 P   0  0  0  0  0  0  0  0  0  0  0  0
   22.8038   29.1508    8.7223 O   0  0  0  0  0  0  0  0  0  0  0  0
   21.4165   27.2161    9.3763 O   0  0  0  0  0  0  0  0  0  0  0  0
   22.3921   27.3300    7.0856 O   0  0  0  0  0  0  0  0  0  0  0  0
   22.9272   29.3438    9.6649 H   0  0  0  0  0  0  0  0  0  0  0  0
   22.2551   26.3746    6.9883 H   0  0  0  0  0  0  0  0  0  0  0  0
   27.3901   28.0084    9.3837 C   0  0  0  0  0  0  0  0  0  0  0  0
   27.3951   27.3549   10.7408 C   0  0  0  0  0  0  0  0  0  0  0  0
   26.9292   28.3252   11.7973 C   0  0  0  0  0  0  0  0  0  0  0  0
   25.4520   26.4658   12.0356 N   0  0  0  0  0  0  0  0  0  0  0  0
   25.7032   27.7959   12.5034 C   0  0  0  0  0  0  0  0  0  0  0  0
   26.2648   25.8795   12.2253 H   0  0  0  0  0  0  0  0  0  0  0  0
   25.2746   26.4864   11.0313 H   0  0  0  0  0  0  0  0  0  0  0  0
   24.5394   28.7385   12.2597 C   0  0  0  0  0  0  0  0  0  0  0  0
   23.5976   28.8525   13.1036 O   0  0  0  0  0  0  0  0  0  0  0  0
   24.4975   29.3928   11.1856 O   0  0  0  0  0  0  0  0  0  0  0  0
   25.1904   29.3115   10.5602 H   0  0  0  0  0  0  0  0  0  0  0  0
 10  8  2  0  0  0
  6  8  1  0  0  0
  6  3  1  0  0  0
  9  8  1  0  0  0
  4  3  2  0  0  0
  8 11  1  0  0  0
  3  1  1  0  0  0
  1 14  1  0  0  0
 14 15  1  0  0  0
 15 16  1  0  0  0
 16 18  1  0  0  0
 18 21  1  0  0  0
 18 17  1  0  0  0
 22 21  2  0  0  0
 21 23  1  0  0  0
 17 19  1  0  0  0
 17 20  1  0  0  0
  1  2  1  0  0  0
  4  5  1  0  0  0
  6  7  1  0  0  0
  9 12  1  0  0  0
 11 13  1  0  0  0
 23 24  1  0  0  0
M  END
> <minimizedAffinity>
-4.89952

$$$$
5HBN_RPI_A_206


 24 23  0  0  0  0  0  0  0  0999 V2000
   25.0722   27.4141   10.3715 N   0  0  0  0  0  0  0  0  0  0  0  0
   24.5305   28.1608   10.7154 H   0  0  0  0  0  0  0  0  0  0  0  0
   25.1068   27.1640    8.9925 C   0  0  0  0  0  0  0  0  0  0  0  0
   26.2555   27.1559    8.3871 N   0  0  0  0  0  0  0  0  0  0  0  0
   26.3006   26.9821    7.4191 H   0  0  0  0  0  0  0  0  0  0  0  0
   23.9155   26.8965    8.2512 N   0  0  0  0  0  0  0  0  0  0  0  0
   24.0085   26.3393    7.4449 H   0  0  0  0  0  0  0  0  0  0  0  0
   22.3976   27.4326    8.6174 P   0  0  0  0  0  0  0  0  0  0  0  0
   22.2695   27.3526   10.1259 O   0  0  0  0  0  0  0  0  0  0  0  0
   21.4613   26.4364    7.9806 O   0  0  0  0  0  0  0  0  0  0  0  0
   22.1407   28.8295    8.1344 O   0  0  0  0  0  0  0  0  0  0  0  0
   22.4390   26.4430   10.4170 H   0  0  0  0  0  0  0  0  0  0  0  0
   22.2275   28.8588    7.1688 H   0  0  0  0  0  0  0  0  0  0  0  0
   25.8080   26.6054   11.2812 C   0  0  0  0  0  0  0  0  0  0  0  0
   25.3015   26.8878   12.6714 C   0  0  0  0  0  0  0  0  0  0  0  0
   24.2314   25.8972   13.0564 C   0  0  0  0  0  0  0  0  0  0  0  0
   23.0359   27.9584   12.9201 N   0  0  0  0  0  0  0  0  0  0  0  0
   22.9419   26.6091   13.3910 C   0  0  0  0  0  0  0  0  0  0  0  0
   23.2019   27.9565   11.9137 H   0  0  0  0  0  0  0  0  0  0  0  0
   23.8081   28.4298   13.3912 H   0  0  0  0  0  0  0  0  0  0  0  0
   22.6942   26.5198   14.8854 C   0  0  0  0  0  0  0  0  0  0  0  0
   23.5837   26.0733   15.6738 O   0  0  0  0  0  0  0  0  0  0  0  0
   21.5739   26.8673   15.3410 O   0  0  0  0  0  0  0  0  0  0  0  0
   20.9148   27.1973   14.7625 H   0  0  0  0  0  0  0  0  0  0  0  0
 10  8  2  0  0  0
  6  8  1  0  0  0
  6  3  1  0  0  0
  9  8  1  0  0  0
  4  3  2  0  0  0
  8 11  1  0  0  0
  3  1  1  0  0  0
  1 14  1  0  0  0
 14 15  1  0  0  0
 15 16  1  0  0  0
 16 18  1  0  0  0
 18 21  1  0  0  0
 18 17  1  0  0  0
 22 21  2  0  0  0
 21 23  1  0  0  0
 17 19  1  0  0  0
 17 20  1  0  0  0
  1  2  1  0  0  0
  4  5  1  0  0  0
  6  7  1  0  0  0
  9 12  1  0  0  0
 11 13  1  0  0  0
 23 24  1  0  0  0
M  END
> <minimizedAffinity>
-4.79733

$$$$
5HBN_RPI_A_206


 24 23  0  0  0  0  0  0  0  0999 V2000
   25.0693   28.3545    9.9425 N   0  0  0  0  0  0  0  0  0  0  0  0
   24.4499   29.1198    9.9374 H   0  0  0  0  0  0  0  0  0  0  0  0
   25.1038   27.4870    8.8417 C   0  0  0  0  0  0  0  0  0  0  0  0
   26.2546   27.1755    8.3271 N   0  0  0  0  0  0  0  0  0  0  0  0
   26.2998   26.5678    7.5539 H   0  0  0  0  0  0  0  0  0  0  0  0
   23.9099   26.9250    8.2950 N   0  0  0  0  0  0  0  0  0  0  0  0
   24.0195   26.2083    7.6291 H   0  0  0  0  0  0  0  0  0  0  0  0
   22.3637   27.3627    8.6733 P   0  0  0  0  0  0  0  0  0  0  0  0
   22.1968   28.7926    8.1979 O   0  0  0  0  0  0  0  0  0  0  0  0
   22.2983   27.3238   10.1797 O   0  0  0  0  0  0  0  0  0  0  0  0
   21.3351   26.4692    8.0457 O   0  0  0  0  0  0  0  0  0  0  0  0
   22.8702   29.3526    8.6147 H   0  0  0  0  0  0  0  0  0  0  0  0
   21.4592   25.5609    8.3625 H   0  0  0  0  0  0  0  0  0  0  0  0
   25.9156   28.1457   11.0664 C   0  0  0  0  0  0  0  0  0  0  0  0
   25.3445   27.0112   11.8760 C   0  0  0  0  0  0  0  0  0  0  0  0
   25.4960   27.2848   13.3514 C   0  0  0  0  0  0  0  0  0  0  0  0
   27.1334   25.5538   13.4894 N   0  0  0  0  0  0  0  0  0  0  0  0
   25.9224   26.0345   14.0841 C   0  0  0  0  0  0  0  0  0  0  0  0
   27.8516   26.2756   13.5496 H   0  0  0  0  0  0  0  0  0  0  0  0
   26.9635   25.3239   12.5103 H   0  0  0  0  0  0  0  0  0  0  0  0
   24.7963   25.0185   14.0373 C   0  0  0  0  0  0  0  0  0  0  0  0
   23.6884   25.2377   14.6174 O   0  0  0  0  0  0  0  0  0  0  0  0
   24.9817   23.9281   13.4372 O   0  0  0  0  0  0  0  0  0  0  0  0
   25.7979   23.7625   13.0078 H   0  0  0  0  0  0  0  0  0  0  0  0
 10  8  2  0  0  0
  6  8  1  0  0  0
  6  3  1  0  0  0
  9  8  1  0  0  0
  4  3  2  0  0  0
  8 11  1  0  0  0
  3  1  1  0  0  0
  1 14  1  0  0  0
 14 15  1  0  0  0
 15 16  1  0  0  0
 16 18  1  0  0  0
 18 21  1  0  0  0
 18 17  1  0  0  0
 22 21  2  0  0  0
 21 23  1  0  0  0
 17 19  1  0  0  0
 17 20  1  0  0  0
  1  2  1  0  0  0
  4  5  1  0  0  0
  6  7  1  0  0  0
  9 12  1  0  0  0
 11 13  1  0  0  0
 23 24  1  0  0  0
M  END
> <minimizedAffinity>
-4.65780

$$$$
5HBN_RPI_A_206


 24 23  0  0  0  0  0  0  0  0999 V2000
   24.9322   26.9363   12.9314 N   0  0  0  0  0  0  0  0  0  0  0  0
   25.7090   26.6301   13.4531 H   0  0  0  0  0  0  0  0  0  0  0  0
   23.7676   27.3400   13.5994 C   0  0  0  0  0  0  0  0  0  0  0  0
   23.8782   28.1112   14.6382 N   0  0  0  0  0  0  0  0  0  0  0  0
   23.0721   28.4055   15.1209 H   0  0  0  0  0  0  0  0  0  0  0  0
   22.4717   26.9424   13.1492 N   0  0  0  0  0  0  0  0  0  0  0  0
   22.4368   26.3095   12.3959 H   0  0  0  0  0  0  0  0  0  0  0  0
   21.0268   27.4429   13.7716 P   0  0  0  0  0  0  0  0  0  0  0  0
   21.0843   28.9571   13.8187 O   0  0  0  0  0  0  0  0  0  0  0  0
   20.9911   26.8980   15.1775 O   0  0  0  0  0  0  0  0  0  0  0  0
   19.8519   26.9794   12.9622 O   0  0  0  0  0  0  0  0  0  0  0  0
   21.8496   29.2354   14.3458 H   0  0  0  0  0  0  0  0  0  0  0  0
   19.8336   26.0098   12.9447 H   0  0  0  0  0  0  0  0  0  0  0  0
   25.0085   26.9625   11.5114 C   0  0  0  0  0  0  0  0  0  0  0  0
   24.8391   28.3900   11.0614 C   0  0  0  0  0  0  0  0  0  0  0  0
   24.5267   28.4469    9.5870 C   0  0  0  0  0  0  0  0  0  0  0  0
   24.8698   26.6589    8.0437 N   0  0  0  0  0  0  0  0  0  0  0  0
   24.0144   27.1122    9.0992 C   0  0  0  0  0  0  0  0  0  0  0  0
   25.8254   26.5788    8.3912 H   0  0  0  0  0  0  0  0  0  0  0  0
   24.8430   27.3272    7.2736 H   0  0  0  0  0  0  0  0  0  0  0  0
   22.5676   27.2595    8.6662 C   0  0  0  0  0  0  0  0  0  0  0  0
   21.6182   27.1755    9.5052 O   0  0  0  0  0  0  0  0  0  0  0  0
   22.3095   27.4369    7.4474 O   0  0  0  0  0  0  0  0  0  0  0  0
   23.0071   27.4994    6.8250 H   0  0  0  0  0  0  0  0  0  0  0  0
 10  8  2  0  0  0
  6  8  1  0  0  0
  6  3  1  0  0  0
  9  8  1  0  0  0
  4  3  2  0  0  0
  8 11  1  0  0  0
  3  1  1  0  0  0
  1 14  1  0  0  0
 14 15  1  0  0  0
 15 16  1  0  0  0
 16 18  1  0  0  0
 18 21  1  0  0  0
 18 17  1  0  0  0
 22 21  2  0  0  0
 21 23  1  0  0  0
 17 19  1  0  0  0
 17 20  1  0  0  0
  1  2  1  0  0  0
  4  5  1  0  0  0
  6  7  1  0  0  0
  9 12  1  0  0  0
 11 13  1  0  0  0
 23 24  1  0  0  0
M  END
> <minimizedAffinity>
-4.42671

$$$$
5HBN_RPI_A_206


 24 23  0  0  0  0  0  0  0  0999 V2000
   22.8077   27.5423   12.4918 N   0  0  0  0  0  0  0  0  0  0  0  0
   22.9499   28.3849   12.0030 H   0  0  0  0  0  0  0  0  0  0  0  0
   21.5348   27.2439   12.9980 C   0  0  0  0  0  0  0  0  0  0  0  0
   20.7100   26.5679   12.2571 N   0  0  0  0  0  0  0  0  0  0  0  0
   19.8116   26.3485   12.5947 H   0  0  0  0  0  0  0  0  0  0  0  0
   21.1395   27.6450   14.3106 N   0  0  0  0  0  0  0  0  0  0  0  0
   20.9234   26.9276   14.9492 H   0  0  0  0  0  0  0  0  0  0  0  0
   21.0103   29.1968   14.8590 P   0  0  0  0  0  0  0  0  0  0  0  0
   21.4193   29.1688   16.3185 O   0  0  0  0  0  0  0  0  0  0  0  0
   19.5437   29.5328   14.7550 O   0  0  0  0  0  0  0  0  0  0  0  0
   21.8610   30.1607   14.0859 O   0  0  0  0  0  0  0  0  0  0  0  0
   20.8580   28.5407   16.7996 H   0  0  0  0  0  0  0  0  0  0  0  0
   21.5835   30.1634   13.1565 H   0  0  0  0  0  0  0  0  0  0  0  0
   23.8969   26.6457   12.6738 C   0  0  0  0  0  0  0  0  0  0  0  0
   24.7902   26.7456   11.4652 C   0  0  0  0  0  0  0  0  0  0  0  0
   24.2009   27.6904   10.4479 C   0  0  0  0  0  0  0  0  0  0  0  0
   24.8911   27.4531    8.1755 N   0  0  0  0  0  0  0  0  0  0  0  0
   23.9473   26.9759    9.1414 C   0  0  0  0  0  0  0  0  0  0  0  0
   25.8385   27.2775    8.5103 H   0  0  0  0  0  0  0  0  0  0  0  0
   24.7594   28.4551    8.0377 H   0  0  0  0  0  0  0  0  0  0  0  0
   22.5065   27.1985    8.7208 C   0  0  0  0  0  0  0  0  0  0  0  0
   22.2055   27.4515    7.5135 O   0  0  0  0  0  0  0  0  0  0  0  0
   21.6020   27.1609    9.5948 O   0  0  0  0  0  0  0  0  0  0  0  0
   21.8199   26.9745   10.4869 H   0  0  0  0  0  0  0  0  0  0  0  0
 10  8  2  0  0  0
  6  8  1  0  0  0
  6  3  1  0  0  0
  9  8  1  0  0  0
  4  3  2  0  0  0
  8 11  1  0  0  0
  3  1  1  0  0  0
  1 14  1  0  0  0
 14 15  1  0  0  0
 15 16  1  0  0  0
 16 18  1  0  0  0
 18 21  1  0  0  0
 18 17  1  0  0  0
 22 21  2  0  0  0
 21 23  1  0  0  0
 17 19  1  0  0  0
 17 20  1  0  0  0
  1  2  1  0  0  0
  4  5  1  0  0  0
  6  7  1  0  0  0
  9 12  1  0  0  0
 11 13  1  0  0  0
 23 24  1  0  0  0
M  END
> <minimizedAffinity>
-4.39481

$$$$
