1ZHY_CLR_A_1001


 29 32  0  0  0  0  0  0  0  0999 V2000
   57.6141   36.3968   32.8541 C   0  0  0  0  0  0  0  0  0  0  0  0
   57.7504   36.6590   34.3581 C   0  0  0  0  0  0  0  0  0  0  0  0
   56.4230   36.4013   35.0761 C   0  0  0  0  0  0  0  0  0  0  0  0
   56.0170   34.9386   34.8816 C   0  0  0  0  0  0  0  0  0  0  0  0
   56.0025   34.5797   33.3930 C   0  0  0  0  0  0  0  0  0  0  0  0
   54.8929   33.9328   32.8611 C   0  0  0  0  0  0  0  0  0  0  0  0
   54.7095   33.5688   31.5324 C   0  0  0  0  0  0  0  0  0  0  0  0
   56.0059   33.6179   30.7155 C   0  0  0  0  0  0  0  0  0  0  0  0
   56.8183   34.8829   31.0246 C   0  0  0  0  0  0  0  0  0  0  0  0
   57.1975   34.9621   32.5102 C   0  0  0  0  0  0  0  0  0  0  0  0
   58.0296   35.0152   30.0911 C   0  0  0  0  0  0  0  0  0  0  0  0
   57.6645   34.8843   28.6059 C   0  0  0  0  0  0  0  0  0  0  0  0
   56.9239   33.5693   28.3453 C   0  0  0  0  0  0  0  0  0  0  0  0
   55.6704   33.5848   29.2219 C   0  0  0  0  0  0  0  0  0  0  0  0
   54.9234   32.3504   28.7194 C   0  0  0  0  0  0  0  0  0  0  0  0
   54.9991   32.5816   27.2069 C   0  0  0  0  0  0  0  0  0  0  0  0
   56.2202   33.4829   26.9865 C   0  0  0  0  0  0  0  0  0  0  0  0
   57.8129   32.3494   28.6241 C   0  0  0  0  0  0  0  0  0  0  0  0
   58.3398   33.9925   32.8302 C   0  0  0  0  0  0  0  0  0  0  0  0
   56.5691   36.6730   36.4726 O   0  0  0  0  0  0  0  0  0  0  0  0
   57.2523   36.0939   36.8449 H   0  0  0  0  0  0  0  0  0  0  0  0
   57.0807   33.0139   25.8066 C   0  0  0  0  0  0  0  0  0  0  0  0
   57.5472   34.2139   24.9800 C   0  0  0  0  0  0  0  0  0  0  0  0
   56.2838   32.0476   24.9236 C   0  0  0  0  0  0  0  0  0  0  0  0
   56.3220   32.4133   23.4369 C   0  0  0  0  0  0  0  0  0  0  0  0
   54.9235   32.6770   22.8697 C   0  0  0  0  0  0  0  0  0  0  0  0
   54.9415   33.0819   21.3914 C   0  0  0  0  0  0  0  0  0  0  0  0
   54.3745   31.9749   20.4994 C   0  0  0  0  0  0  0  0  0  0  0  0
   56.3483   33.4670   20.9284 C   0  0  0  0  0  0  0  0  0  0  0  0
  1  2  1  0  0  0
  1 10  1  0  0  0
  2  3  1  0  0  0
  3  4  1  0  0  0
  3 20  1  0  0  0
  4  5  1  0  0  0
  5  6  2  0  0  0
  5 10  1  0  0  0
  6  7  1  0  0  0
  7  8  1  0  0  0
  8  9  1  0  0  0
  8 14  1  0  0  0
  9 10  1  0  0  0
  9 11  1  0  0  0
 10 19  1  0  0  0
 11 12  1  0  0  0
 12 13  1  0  0  0
 13 14  1  0  0  0
 13 17  1  0  0  0
 13 18  1  0  0  0
 14 15  1  0  0  0
 15 16  1  0  0  0
 16 17  1  0  0  0
 17 22  1  0  0  0
 22 23  1  0  0  0
 22 24  1  0  0  0
 24 25  1  0  0  0
 25 26  1  0  0  0
 26 27  1  0  0  0
 27 28  1  0  0  0
 27 29  1  0  0  0
 20 21  1  0  0  0
M  END
> <minimizedAffinity>
-11.05826

$$$$
1ZHY_CLR_A_1001


 29 32  0  0  0  0  0  0  0  0999 V2000
   57.7306   32.5041   29.8371 C   0  0  0  0  0  0  0  0  0  0  0  0
   57.5633   32.8026   31.3312 C   0  0  0  0  0  0  0  0  0  0  0  0
   58.4614   33.9675   31.7556 C   0  0  0  0  0  0  0  0  0  0  0  0
   58.0689   35.2219   30.9715 C   0  0  0  0  0  0  0  0  0  0  0  0
   58.0811   34.9391   29.4666 C   0  0  0  0  0  0  0  0  0  0  0  0
   58.7495   35.8130   28.6166 C   0  0  0  0  0  0  0  0  0  0  0  0
   58.8818   35.6833   27.2392 C   0  0  0  0  0  0  0  0  0  0  0  0
   57.9138   34.6560   26.6406 C   0  0  0  0  0  0  0  0  0  0  0  0
   57.8458   33.3826   27.4946 C   0  0  0  0  0  0  0  0  0  0  0  0
   57.3803   33.6861   28.9258 C   0  0  0  0  0  0  0  0  0  0  0  0
   57.0076   32.2924   26.8126 C   0  0  0  0  0  0  0  0  0  0  0  0
   57.4342   32.0210   25.3632 C   0  0  0  0  0  0  0  0  0  0  0  0
   57.4095   33.3134   24.5416 C   0  0  0  0  0  0  0  0  0  0  0  0
   58.3672   34.2915   25.2243 C   0  0  0  0  0  0  0  0  0  0  0  0
   58.4202   35.4340   24.2114 C   0  0  0  0  0  0  0  0  0  0  0  0
   58.6657   34.6450   22.9215 C   0  0  0  0  0  0  0  0  0  0  0  0
   58.1295   33.2337   23.1910 C   0  0  0  0  0  0  0  0  0  0  0  0
   55.9894   33.8824   24.4166 C   0  0  0  0  0  0  0  0  0  0  0  0
   55.8711   33.9470   28.9609 C   0  0  0  0  0  0  0  0  0  0  0  0
   58.3043   34.2129   33.1557 O   0  0  0  0  0  0  0  0  0  0  0  0
   57.3792   34.4369   33.3429 H   0  0  0  0  0  0  0  0  0  0  0  0
   57.3064   32.6926   22.0154 C   0  0  0  0  0  0  0  0  0  0  0  0
   57.8282   31.3187   21.5900 C   0  0  0  0  0  0  0  0  0  0  0  0
   57.3706   33.6663   20.8338 C   0  0  0  0  0  0  0  0  0  0  0  0
   56.1211   33.6289   19.9489 C   0  0  0  0  0  0  0  0  0  0  0  0
   54.8355   33.8461   20.7534 C   0  0  0  0  0  0  0  0  0  0  0  0
   53.9299   32.6098   20.7836 C   0  0  0  0  0  0  0  0  0  0  0  0
   53.7010   32.1166   22.2143 C   0  0  0  0  0  0  0  0  0  0  0  0
   54.4884   31.4793   19.9165 C   0  0  0  0  0  0  0  0  0  0  0  0
  1  2  1  0  0  0
  1 10  1  0  0  0
  2  3  1  0  0  0
  3  4  1  0  0  0
  3 20  1  0  0  0
  4  5  1  0  0  0
  5  6  2  0  0  0
  5 10  1  0  0  0
  6  7  1  0  0  0
  7  8  1  0  0  0
  8  9  1  0  0  0
  8 14  1  0  0  0
  9 10  1  0  0  0
  9 11  1  0  0  0
 10 19  1  0  0  0
 11 12  1  0  0  0
 12 13  1  0  0  0
 13 14  1  0  0  0
 13 17  1  0  0  0
 13 18  1  0  0  0
 14 15  1  0  0  0
 15 16  1  0  0  0
 16 17  1  0  0  0
 17 22  1  0  0  0
 22 23  1  0  0  0
 22 24  1  0  0  0
 24 25  1  0  0  0
 25 26  1  0  0  0
 26 27  1  0  0  0
 27 28  1  0  0  0
 27 29  1  0  0  0
 20 21  1  0  0  0
M  END
> <minimizedAffinity>
-10.91697

$$$$
1ZHY_CLR_A_1001


 29 32  0  0  0  0  0  0  0  0999 V2000
   57.0977   32.8159   31.8762 C   0  0  0  0  0  0  0  0  0  0  0  0
   57.2624   33.3447   33.3055 C   0  0  0  0  0  0  0  0  0  0  0  0
   58.4893   34.2544   33.4093 C   0  0  0  0  0  0  0  0  0  0  0  0
   58.3121   35.4531   32.4744 C   0  0  0  0  0  0  0  0  0  0  0  0
   58.0022   34.9816   31.0509 C   0  0  0  0  0  0  0  0  0  0  0  0
   58.7248   35.5107   29.9876 C   0  0  0  0  0  0  0  0  0  0  0  0
   58.5898   35.1676   28.6476 C   0  0  0  0  0  0  0  0  0  0  0  0
   57.3034   34.3854   28.3582 C   0  0  0  0  0  0  0  0  0  0  0  0
   57.0490   33.3077   29.4210 C   0  0  0  0  0  0  0  0  0  0  0  0
   56.9209   33.9170   30.8244 C   0  0  0  0  0  0  0  0  0  0  0  0
   55.8560   32.4179   29.0452 C   0  0  0  0  0  0  0  0  0  0  0  0
   55.9525   31.8477   27.6232 C   0  0  0  0  0  0  0  0  0  0  0  0
   56.1289   32.9738   26.6002 C   0  0  0  0  0  0  0  0  0  0  0  0
   57.4067   33.7234   26.9814 C   0  0  0  0  0  0  0  0  0  0  0  0
   57.5866   34.6598   25.7878 C   0  0  0  0  0  0  0  0  0  0  0  0
   57.4027   33.6700   24.6332 C   0  0  0  0  0  0  0  0  0  0  0  0
   56.5706   32.5159   25.2058 C   0  0  0  0  0  0  0  0  0  0  0  0
   54.9047   33.8986   26.5534 C   0  0  0  0  0  0  0  0  0  0  0  0
   55.5583   34.5955   30.9982 C   0  0  0  0  0  0  0  0  0  0  0  0
   58.6344   34.7174   34.7546 O   0  0  0  0  0  0  0  0  0  0  0  0
   57.8431   35.2160   35.0120 H   0  0  0  0  0  0  0  0  0  0  0  0
   55.4530   32.0783   24.2509 C   0  0  0  0  0  0  0  0  0  0  0  0
   55.8181   30.7534   23.5785 C   0  0  0  0  0  0  0  0  0  0  0  0
   55.2143   33.1567   23.1885 C   0  0  0  0  0  0  0  0  0  0  0  0
   54.8022   32.5865   21.8281 C   0  0  0  0  0  0  0  0  0  0  0  0
   55.6356   33.1668   20.6810 C   0  0  0  0  0  0  0  0  0  0  0  0
   57.1349   33.2202   20.9953 C   0  0  0  0  0  0  0  0  0  0  0  0
   57.8591   34.2333   20.1055 C   0  0  0  0  0  0  0  0  0  0  0  0
   57.7879   31.8420   20.8689 C   0  0  0  0  0  0  0  0  0  0  0  0
  1  2  1  0  0  0
  1 10  1  0  0  0
  2  3  1  0  0  0
  3  4  1  0  0  0
  3 20  1  0  0  0
  4  5  1  0  0  0
  5  6  2  0  0  0
  5 10  1  0  0  0
  6  7  1  0  0  0
  7  8  1  0  0  0
  8  9  1  0  0  0
  8 14  1  0  0  0
  9 10  1  0  0  0
  9 11  1  0  0  0
 10 19  1  0  0  0
 11 12  1  0  0  0
 12 13  1  0  0  0
 13 14  1  0  0  0
 13 17  1  0  0  0
 13 18  1  0  0  0
 14 15  1  0  0  0
 15 16  1  0  0  0
 16 17  1  0  0  0
 17 22  1  0  0  0
 22 23  1  0  0  0
 22 24  1  0  0  0
 24 25  1  0  0  0
 25 26  1  0  0  0
 26 27  1  0  0  0
 27 28  1  0  0  0
 27 29  1  0  0  0
 20 21  1  0  0  0
M  END
> <minimizedAffinity>
-10.66783

$$$$
1ZHY_CLR_A_1001


 29 32  0  0  0  0  0  0  0  0999 V2000
   54.3073   32.7298   23.1236 C   0  0  0  0  0  0  0  0  0  0  0  0
   54.0970   32.2458   21.6845 C   0  0  0  0  0  0  0  0  0  0  0  0
   54.9003   33.1016   20.7016 C   0  0  0  0  0  0  0  0  0  0  0  0
   56.3906   32.9874   21.0305 C   0  0  0  0  0  0  0  0  0  0  0  0
   56.6419   33.3243   22.5029 C   0  0  0  0  0  0  0  0  0  0  0  0
   57.6455   34.2287   22.8311 C   0  0  0  0  0  0  0  0  0  0  0  0
   57.9776   34.6636   24.1086 C   0  0  0  0  0  0  0  0  0  0  0  0
   57.3721   33.7895   25.2131 C   0  0  0  0  0  0  0  0  0  0  0  0
   55.9079   33.4393   24.9144 C   0  0  0  0  0  0  0  0  0  0  0  0
   55.7678   32.6806   23.5870 C   0  0  0  0  0  0  0  0  0  0  0  0
   55.2534   32.7058   26.0933 C   0  0  0  0  0  0  0  0  0  0  0  0
   55.4354   33.4332   27.4328 C   0  0  0  0  0  0  0  0  0  0  0  0
   56.9196   33.6873   27.7126 C   0  0  0  0  0  0  0  0  0  0  0  0
   57.4522   34.5288   26.5515 C   0  0  0  0  0  0  0  0  0  0  0  0
   58.8515   34.8917   27.0458 C   0  0  0  0  0  0  0  0  0  0  0  0
   58.5252   35.3707   28.4639 C   0  0  0  0  0  0  0  0  0  0  0  0
   57.2023   34.6902   28.8365 C   0  0  0  0  0  0  0  0  0  0  0  0
   57.6996   32.3767   27.8861 C   0  0  0  0  0  0  0  0  0  0  0  0
   56.2202   31.2253   23.7442 C   0  0  0  0  0  0  0  0  0  0  0  0
   54.6714   32.6454   19.3656 O   0  0  0  0  0  0  0  0  0  0  0  0
   54.9514   31.7199   19.2876 H   0  0  0  0  0  0  0  0  0  0  0  0
   57.2242   34.1226   30.2612 C   0  0  0  0  0  0  0  0  0  0  0  0
   55.9820   34.5744   31.0317 C   0  0  0  0  0  0  0  0  0  0  0  0
   58.4902   34.5818   30.9927 C   0  0  0  0  0  0  0  0  0  0  0  0
   58.2138   35.1331   32.3947 C   0  0  0  0  0  0  0  0  0  0  0  0
   58.6262   36.6023   32.5304 C   0  0  0  0  0  0  0  0  0  0  0  0
   57.7788   37.3721   33.5498 C   0  0  0  0  0  0  0  0  0  0  0  0
   58.4795   38.6531   34.0088 C   0  0  0  0  0  0  0  0  0  0  0  0
   57.4198   36.5029   34.7570 C   0  0  0  0  0  0  0  0  0  0  0  0
  1  2  1  0  0  0
  1 10  1  0  0  0
  2  3  1  0  0  0
  3  4  1  0  0  0
  3 20  1  0  0  0
  4  5  1  0  0  0
  5  6  2  0  0  0
  5 10  1  0  0  0
  6  7  1  0  0  0
  7  8  1  0  0  0
  8  9  1  0  0  0
  8 14  1  0  0  0
  9 10  1  0  0  0
  9 11  1  0  0  0
 10 19  1  0  0  0
 11 12  1  0  0  0
 12 13  1  0  0  0
 13 14  1  0  0  0
 13 17  1  0  0  0
 13 18  1  0  0  0
 14 15  1  0  0  0
 15 16  1  0  0  0
 16 17  1  0  0  0
 17 22  1  0  0  0
 22 23  1  0  0  0
 22 24  1  0  0  0
 24 25  1  0  0  0
 25 26  1  0  0  0
 26 27  1  0  0  0
 27 28  1  0  0  0
 27 29  1  0  0  0
 20 21  1  0  0  0
M  END
> <minimizedAffinity>
-10.63328

$$$$
1ZHY_CLR_A_1001


 29 32  0  0  0  0  0  0  0  0999 V2000
   55.1482   34.5726   33.1784 C   0  0  0  0  0  0  0  0  0  0  0  0
   55.2739   34.9650   34.6548 C   0  0  0  0  0  0  0  0  0  0  0  0
   56.2025   33.9993   35.3956 C   0  0  0  0  0  0  0  0  0  0  0  0
   57.5968   34.0540   34.7670 C   0  0  0  0  0  0  0  0  0  0  0  0
   57.5144   33.8081   33.2579 C   0  0  0  0  0  0  0  0  0  0  0  0
   58.3639   32.8750   32.6743 C   0  0  0  0  0  0  0  0  0  0  0  0
   58.3939   32.5133   31.3327 C   0  0  0  0  0  0  0  0  0  0  0  0
   57.6345   33.4950   30.4326 C   0  0  0  0  0  0  0  0  0  0  0  0
   56.2914   33.9035   31.0529 C   0  0  0  0  0  0  0  0  0  0  0  0
   56.4812   34.5736   32.4211 C   0  0  0  0  0  0  0  0  0  0  0  0
   55.4591   34.7530   30.0823 C   0  0  0  0  0  0  0  0  0  0  0  0
   55.3097   34.1127   28.6952 C   0  0  0  0  0  0  0  0  0  0  0  0
   56.6829   33.7974   28.0947 C   0  0  0  0  0  0  0  0  0  0  0  0
   57.3851   32.8482   29.0673 C   0  0  0  0  0  0  0  0  0  0  0  0
   58.6237   32.4444   28.2692 C   0  0  0  0  0  0  0  0  0  0  0  0
   57.9790   32.0849   26.9268 C   0  0  0  0  0  0  0  0  0  0  0  0
   56.6575   32.8619   26.8810 C   0  0  0  0  0  0  0  0  0  0  0  0
   57.4982   35.0719   27.8359 C   0  0  0  0  0  0  0  0  0  0  0  0
   56.9901   36.0091   32.2555 C   0  0  0  0  0  0  0  0  0  0  0  0
   56.2868   34.3724   36.7737 O   0  0  0  0  0  0  0  0  0  0  0  0
   56.6396   35.2732   36.8437 H   0  0  0  0  0  0  0  0  0  0  0  0
   56.4232   33.5261   25.5185 C   0  0  0  0  0  0  0  0  0  0  0  0
   55.1524   32.9734   24.8702 C   0  0  0  0  0  0  0  0  0  0  0  0
   57.6266   33.2861   24.6005 C   0  0  0  0  0  0  0  0  0  0  0  0
   57.9228   34.4651   23.6688 C   0  0  0  0  0  0  0  0  0  0  0  0
   58.6150   34.0213   22.3761 C   0  0  0  0  0  0  0  0  0  0  0  0
   57.6468   33.4140   21.3546 C   0  0  0  0  0  0  0  0  0  0  0  0
   57.9279   31.9263   21.1304 C   0  0  0  0  0  0  0  0  0  0  0  0
   57.6853   34.1670   20.0229 C   0  0  0  0  0  0  0  0  0  0  0  0
  1  2  1  0  0  0
  1 10  1  0  0  0
  2  3  1  0  0  0
  3  4  1  0  0  0
  3 20  1  0  0  0
  4  5  1  0  0  0
  5  6  2  0  0  0
  5 10  1  0  0  0
  6  7  1  0  0  0
  7  8  1  0  0  0
  8  9  1  0  0  0
  8 14  1  0  0  0
  9 10  1  0  0  0
  9 11  1  0  0  0
 10 19  1  0  0  0
 11 12  1  0  0  0
 12 13  1  0  0  0
 13 14  1  0  0  0
 13 17  1  0  0  0
 13 18  1  0  0  0
 14 15  1  0  0  0
 15 16  1  0  0  0
 16 17  1  0  0  0
 17 22  1  0  0  0
 22 23  1  0  0  0
 22 24  1  0  0  0
 24 25  1  0  0  0
 25 26  1  0  0  0
 26 27  1  0  0  0
 27 28  1  0  0  0
 27 29  1  0  0  0
 20 21  1  0  0  0
M  END
> <minimizedAffinity>
-10.42713

$$$$
1ZHY_CLR_A_1001


 29 32  0  0  0  0  0  0  0  0999 V2000
   55.5475   33.6579   26.1985 C   0  0  0  0  0  0  0  0  0  0  0  0
   55.6784   33.2642   24.7229 C   0  0  0  0  0  0  0  0  0  0  0  0
   56.6289   34.2147   23.9902 C   0  0  0  0  0  0  0  0  0  0  0  0
   58.0170   34.1364   24.6299 C   0  0  0  0  0  0  0  0  0  0  0  0
   57.9267   34.3828   26.1385 C   0  0  0  0  0  0  0  0  0  0  0  0
   58.7870   35.3012   26.7294 C   0  0  0  0  0  0  0  0  0  0  0  0
   58.8122   35.6617   28.0714 C   0  0  0  0  0  0  0  0  0  0  0  0
   58.0294   34.6923   28.9648 C   0  0  0  0  0  0  0  0  0  0  0  0
   56.6846   34.3066   28.3336 C   0  0  0  0  0  0  0  0  0  0  0  0
   56.8742   33.6342   26.9664 C   0  0  0  0  0  0  0  0  0  0  0  0
   55.8306   33.4706   29.2969 C   0  0  0  0  0  0  0  0  0  0  0  0
   55.6808   34.1126   30.6832 C   0  0  0  0  0  0  0  0  0  0  0  0
   57.0543   34.4045   31.2948 C   0  0  0  0  0  0  0  0  0  0  0  0
   57.7800   35.3424   30.3285 C   0  0  0  0  0  0  0  0  0  0  0  0
   59.0187   35.7250   31.1368 C   0  0  0  0  0  0  0  0  0  0  0  0
   58.3694   36.0944   32.4742 C   0  0  0  0  0  0  0  0  0  0  0  0
   57.0348   35.3396   32.5089 C   0  0  0  0  0  0  0  0  0  0  0  0
   57.8461   33.1164   31.5592 C   0  0  0  0  0  0  0  0  0  0  0  0
   57.3577   32.1903   27.1351 C   0  0  0  0  0  0  0  0  0  0  0  0
   56.7179   33.8410   22.6126 O   0  0  0  0  0  0  0  0  0  0  0  0
   57.0563   32.9345   22.5447 H   0  0  0  0  0  0  0  0  0  0  0  0
   56.7785   34.6787   33.8690 C   0  0  0  0  0  0  0  0  0  0  0  0
   55.3003   34.7956   34.2458 C   0  0  0  0  0  0  0  0  0  0  0  0
   57.6475   35.3355   34.9470 C   0  0  0  0  0  0  0  0  0  0  0  0
   56.8874   36.3555   35.7999 C   0  0  0  0  0  0  0  0  0  0  0  0
   57.8261   37.3653   36.4680 C   0  0  0  0  0  0  0  0  0  0  0  0
   57.6848   38.7825   35.9012 C   0  0  0  0  0  0  0  0  0  0  0  0
   58.5868   38.9921   34.6826 C   0  0  0  0  0  0  0  0  0  0  0  0
   57.9727   39.8466   36.9627 C   0  0  0  0  0  0  0  0  0  0  0  0
  1  2  1  0  0  0
  1 10  1  0  0  0
  2  3  1  0  0  0
  3  4  1  0  0  0
  3 20  1  0  0  0
  4  5  1  0  0  0
  5  6  2  0  0  0
  5 10  1  0  0  0
  6  7  1  0  0  0
  7  8  1  0  0  0
  8  9  1  0  0  0
  8 14  1  0  0  0
  9 10  1  0  0  0
  9 11  1  0  0  0
 10 19  1  0  0  0
 11 12  1  0  0  0
 12 13  1  0  0  0
 13 14  1  0  0  0
 13 17  1  0  0  0
 13 18  1  0  0  0
 14 15  1  0  0  0
 15 16  1  0  0  0
 16 17  1  0  0  0
 17 22  1  0  0  0
 22 23  1  0  0  0
 22 24  1  0  0  0
 24 25  1  0  0  0
 25 26  1  0  0  0
 26 27  1  0  0  0
 27 28  1  0  0  0
 27 29  1  0  0  0
 20 21  1  0  0  0
M  END
> <minimizedAffinity>
-10.40258

$$$$
1ZHY_CLR_A_1001


 29 32  0  0  0  0  0  0  0  0999 V2000
   54.3322   32.7326   23.1327 C   0  0  0  0  0  0  0  0  0  0  0  0
   54.0339   32.1807   21.7342 C   0  0  0  0  0  0  0  0  0  0  0  0
   54.7892   32.9748   20.6652 C   0  0  0  0  0  0  0  0  0  0  0  0
   56.2945   32.8555   20.9141 C   0  0  0  0  0  0  0  0  0  0  0  0
   56.6341   33.2616   22.3509 C   0  0  0  0  0  0  0  0  0  0  0  0
   57.6653   34.1666   22.5754 C   0  0  0  0  0  0  0  0  0  0  0  0
   58.0754   34.6597   23.8084 C   0  0  0  0  0  0  0  0  0  0  0  0
   57.5243   33.8505   24.9882 C   0  0  0  0  0  0  0  0  0  0  0  0
   56.0414   33.5071   24.7913 C   0  0  0  0  0  0  0  0  0  0  0  0
   55.8163   32.6854   23.5141 C   0  0  0  0  0  0  0  0  0  0  0  0
   55.4474   32.8429   26.0412 C   0  0  0  0  0  0  0  0  0  0  0  0
   55.7145   33.6333   27.3297 C   0  0  0  0  0  0  0  0  0  0  0  0
   57.2153   33.8794   27.5114 C   0  0  0  0  0  0  0  0  0  0  0  0
   57.6899   34.6543   26.2809 C   0  0  0  0  0  0  0  0  0  0  0  0
   59.1195   35.0211   26.6758 C   0  0  0  0  0  0  0  0  0  0  0  0
   58.8809   35.5748   28.0841 C   0  0  0  0  0  0  0  0  0  0  0  0
   57.5738   34.9328   28.5653 C   0  0  0  0  0  0  0  0  0  0  0  0
   57.9886   32.5679   27.7062 C   0  0  0  0  0  0  0  0  0  0  0  0
   56.2601   31.2334   23.7187 C   0  0  0  0  0  0  0  0  0  0  0  0
   54.4786   32.4560   19.3691 O   0  0  0  0  0  0  0  0  0  0  0  0
   54.7428   31.5239   19.3222 H   0  0  0  0  0  0  0  0  0  0  0  0
   57.6711   34.4367   30.0133 C   0  0  0  0  0  0  0  0  0  0  0  0
   58.3304   35.4989   30.8951 C   0  0  0  0  0  0  0  0  0  0  0  0
   58.4760   33.1339   30.0718 C   0  0  0  0  0  0  0  0  0  0  0  0
   57.8930   32.1044   31.0444 C   0  0  0  0  0  0  0  0  0  0  0  0
   56.6291   32.6178   31.7415 C   0  0  0  0  0  0  0  0  0  0  0  0
   55.3405   32.0213   31.1642 C   0  0  0  0  0  0  0  0  0  0  0  0
   55.6306   31.1064   29.9720 C   0  0  0  0  0  0  0  0  0  0  0  0
   54.3430   33.1111   30.7654 C   0  0  0  0  0  0  0  0  0  0  0  0
  1  2  1  0  0  0
  1 10  1  0  0  0
  2  3  1  0  0  0
  3  4  1  0  0  0
  3 20  1  0  0  0
  4  5  1  0  0  0
  5  6  2  0  0  0
  5 10  1  0  0  0
  6  7  1  0  0  0
  7  8  1  0  0  0
  8  9  1  0  0  0
  8 14  1  0  0  0
  9 10  1  0  0  0
  9 11  1  0  0  0
 10 19  1  0  0  0
 11 12  1  0  0  0
 12 13  1  0  0  0
 13 14  1  0  0  0
 13 17  1  0  0  0
 13 18  1  0  0  0
 14 15  1  0  0  0
 15 16  1  0  0  0
 16 17  1  0  0  0
 17 22  1  0  0  0
 22 23  1  0  0  0
 22 24  1  0  0  0
 24 25  1  0  0  0
 25 26  1  0  0  0
 26 27  1  0  0  0
 27 28  1  0  0  0
 27 29  1  0  0  0
 20 21  1  0  0  0
M  END
> <minimizedAffinity>
-9.88001

$$$$
1ZHY_CLR_A_1001


 29 32  0  0  0  0  0  0  0  0999 V2000
   57.2958   32.9853   31.9707 C   0  0  0  0  0  0  0  0  0  0  0  0
   57.2099   33.3966   33.4447 C   0  0  0  0  0  0  0  0  0  0  0  0
   58.3286   34.3797   33.7997 C   0  0  0  0  0  0  0  0  0  0  0  0
   58.1864   35.6402   32.9434 C   0  0  0  0  0  0  0  0  0  0  0  0
   58.1234   35.2748   31.4578 C   0  0  0  0  0  0  0  0  0  0  0  0
   58.9432   35.9461   30.5578 C   0  0  0  0  0  0  0  0  0  0  0  0
   59.0301   35.7135   29.1903 C   0  0  0  0  0  0  0  0  0  0  0  0
   57.8685   34.8693   28.6533 C   0  0  0  0  0  0  0  0  0  0  0  0
   57.5567   33.6867   29.5806 C   0  0  0  0  0  0  0  0  0  0  0  0
   57.1789   34.1592   30.9917 C   0  0  0  0  0  0  0  0  0  0  0  0
   56.5085   32.7499   28.9640 C   0  0  0  0  0  0  0  0  0  0  0  0
   56.8545   32.3155   27.5329 C   0  0  0  0  0  0  0  0  0  0  0  0
   57.0797   33.5371   26.6369 C   0  0  0  0  0  0  0  0  0  0  0  0
   58.2224   34.3402   27.2607 C   0  0  0  0  0  0  0  0  0  0  0  0
   58.4914   35.3887   26.1825 C   0  0  0  0  0  0  0  0  0  0  0  0
   58.5580   34.4937   24.9410 C   0  0  0  0  0  0  0  0  0  0  0  0
   57.7527   33.2368   25.2931 C   0  0  0  0  0  0  0  0  0  0  0  0
   55.8013   34.3719   26.4791 C   0  0  0  0  0  0  0  0  0  0  0  0
   55.7532   34.7199   31.0118 C   0  0  0  0  0  0  0  0  0  0  0  0
   58.2408   34.7316   35.1831 O   0  0  0  0  0  0  0  0  0  0  0  0
   57.3819   35.1474   35.3570 H   0  0  0  0  0  0  0  0  0  0  0  0
   56.8236   32.8057   24.1515 C   0  0  0  0  0  0  0  0  0  0  0  0
   56.3693   31.3589   24.3546 C   0  0  0  0  0  0  0  0  0  0  0  0
   57.5421   32.9450   22.8051 C   0  0  0  0  0  0  0  0  0  0  0  0
   56.6641   33.5581   21.7101 C   0  0  0  0  0  0  0  0  0  0  0  0
   56.1321   32.5021   20.7360 C   0  0  0  0  0  0  0  0  0  0  0  0
   54.6164   32.5891   20.5250 C   0  0  0  0  0  0  0  0  0  0  0  0
   53.8734   32.7518   21.8531 C   0  0  0  0  0  0  0  0  0  0  0  0
   54.0814   31.3741   19.7639 C   0  0  0  0  0  0  0  0  0  0  0  0
  1  2  1  0  0  0
  1 10  1  0  0  0
  2  3  1  0  0  0
  3  4  1  0  0  0
  3 20  1  0  0  0
  4  5  1  0  0  0
  5  6  2  0  0  0
  5 10  1  0  0  0
  6  7  1  0  0  0
  7  8  1  0  0  0
  8  9  1  0  0  0
  8 14  1  0  0  0
  9 10  1  0  0  0
  9 11  1  0  0  0
 10 19  1  0  0  0
 11 12  1  0  0  0
 12 13  1  0  0  0
 13 14  1  0  0  0
 13 17  1  0  0  0
 13 18  1  0  0  0
 14 15  1  0  0  0
 15 16  1  0  0  0
 16 17  1  0  0  0
 17 22  1  0  0  0
 22 23  1  0  0  0
 22 24  1  0  0  0
 24 25  1  0  0  0
 25 26  1  0  0  0
 26 27  1  0  0  0
 27 28  1  0  0  0
 27 29  1  0  0  0
 20 21  1  0  0  0
M  END
> <minimizedAffinity>
-9.61375

$$$$
1ZHY_CLR_A_1001


 29 32  0  0  0  0  0  0  0  0999 V2000
   58.7511   33.0891   31.2736 C   0  0  0  0  0  0  0  0  0  0  0  0
   58.4889   32.8990   32.7717 C   0  0  0  0  0  0  0  0  0  0  0  0
   57.4568   33.9118   33.2745 C   0  0  0  0  0  0  0  0  0  0  0  0
   56.1368   33.7033   32.5288 C   0  0  0  0  0  0  0  0  0  0  0  0
   56.3643   33.7418   31.0150 C   0  0  0  0  0  0  0  0  0  0  0  0
   55.5473   34.5429   30.2254 C   0  0  0  0  0  0  0  0  0  0  0  0
   55.6422   34.7137   28.8494 C   0  0  0  0  0  0  0  0  0  0  0  0
   56.5228   33.6549   28.1757 C   0  0  0  0  0  0  0  0  0  0  0  0
   57.8088   33.4016   28.9742 C   0  0  0  0  0  0  0  0  0  0  0  0
   57.5034   32.9188   30.3993 C   0  0  0  0  0  0  0  0  0  0  0  0
   58.7646   32.4674   28.2193 C   0  0  0  0  0  0  0  0  0  0  0  0
   59.0329   32.9161   26.7760 C   0  0  0  0  0  0  0  0  0  0  0  0
   57.7181   33.0784   26.0073 C   0  0  0  0  0  0  0  0  0  0  0  0
   56.8880   34.1178   26.7626 C   0  0  0  0  0  0  0  0  0  0  0  0
   55.7243   34.3469   25.7995 C   0  0  0  0  0  0  0  0  0  0  0  0
   56.4900   34.5480   24.4880 C   0  0  0  0  0  0  0  0  0  0  0  0
   57.8352   33.8371   24.6809 C   0  0  0  0  0  0  0  0  0  0  0  0
   56.9778   31.7423   25.8555 C   0  0  0  0  0  0  0  0  0  0  0  0
   57.0637   31.4512   30.3917 C   0  0  0  0  0  0  0  0  0  0  0  0
   57.2450   33.7293   34.6771 O   0  0  0  0  0  0  0  0  0  0  0  0
   56.9180   32.8308   34.8404 H   0  0  0  0  0  0  0  0  0  0  0  0
   58.2302   33.0030   23.4559 C   0  0  0  0  0  0  0  0  0  0  0  0
   58.9081   33.8875   22.4076 C   0  0  0  0  0  0  0  0  0  0  0  0
   56.9916   32.3316   22.8529 C   0  0  0  0  0  0  0  0  0  0  0  0
   57.1016   32.1015   21.3427 C   0  0  0  0  0  0  0  0  0  0  0  0
   55.8623   31.4046   20.7718 C   0  0  0  0  0  0  0  0  0  0  0  0
   54.7875   32.3874   20.2939 C   0  0  0  0  0  0  0  0  0  0  0  0
   55.3954   33.7353   19.8988 C   0  0  0  0  0  0  0  0  0  0  0  0
   53.6960   32.5870   21.3476 C   0  0  0  0  0  0  0  0  0  0  0  0
  1  2  1  0  0  0
  1 10  1  0  0  0
  2  3  1  0  0  0
  3  4  1  0  0  0
  3 20  1  0  0  0
  4  5  1  0  0  0
  5  6  2  0  0  0
  5 10  1  0  0  0
  6  7  1  0  0  0
  7  8  1  0  0  0
  8  9  1  0  0  0
  8 14  1  0  0  0
  9 10  1  0  0  0
  9 11  1  0  0  0
 10 19  1  0  0  0
 11 12  1  0  0  0
 12 13  1  0  0  0
 13 14  1  0  0  0
 13 17  1  0  0  0
 13 18  1  0  0  0
 14 15  1  0  0  0
 15 16  1  0  0  0
 16 17  1  0  0  0
 17 22  1  0  0  0
 22 23  1  0  0  0
 22 24  1  0  0  0
 24 25  1  0  0  0
 25 26  1  0  0  0
 26 27  1  0  0  0
 27 28  1  0  0  0
 27 29  1  0  0  0
 20 21  1  0  0  0
M  END
> <minimizedAffinity>
-9.40971

$$$$
