3ZSY_OM3_A_1214


 35 38  0  0  0  0  0  0  0  0999 V2000
   -9.0656   44.6355    0.1941 C   0  0  0  0  0  0  0  0  0  0  0  0
   -9.0695   40.4243   -0.6212 C   0  0  0  0  0  0  0  0  0  0  0  0
   -9.7865   41.3043   -1.3863 C   0  0  0  0  0  0  0  0  0  0  0  0
   -8.3344   40.9245    0.4391 C   0  0  0  0  0  0  0  0  0  0  0  0
   -9.7442   42.6528   -1.0921 C   0  0  0  0  0  0  0  0  0  0  0  0
   -8.2961   42.2747    0.7485 C   0  0  0  0  0  0  0  0  0  0  0  0
   -9.0191   43.1580   -0.0386 C   0  0  0  0  0  0  0  0  0  0  0  0
   -7.4692   42.7197    1.9198 C   0  0  0  0  0  0  0  0  0  0  0  0
   -6.1200   42.7809    1.7243 N   0  0  0  0  0  0  0  0  0  0  0  0
   -7.9517   43.0241    2.9950 O   0  0  0  0  0  0  0  0  0  0  0  0
   -5.7397   42.5815    0.8384 H   0  0  0  0  0  0  0  0  0  0  0  0
   -5.2478   43.1411    2.8271 C   0  0  0  0  0  0  0  0  0  0  0  0
   -3.6908   47.1697    3.4118 C   0  0  0  0  0  0  0  0  0  0  0  0
   -5.1608   46.9456    3.1952 C   0  0  0  0  0  0  0  0  0  0  0  0
   -2.9807   46.2602    2.4404 C   0  0  0  0  0  0  0  0  0  0  0  0
   -5.5034   45.5196    3.5778 C   0  0  0  0  0  0  0  0  0  0  0  0
   -3.3130   44.8074    2.7461 C   0  0  0  0  0  0  0  0  0  0  0  0
   -4.8023   44.5879    2.6183 C   0  0  0  0  0  0  0  0  0  0  0  0
  -10.0712   45.6419    2.1932 C   0  0  0  0  0  0  0  0  0  0  0  0
  -10.3177   45.1786    0.7978 N   0  0  0  0  0  0  0  0  0  0  0  0
  -10.9713   44.3962    0.8311 H   0  0  0  0  0  0  0  0  0  0  0  0
  -11.0547   46.1945   -0.0456 C   0  0  0  0  0  0  0  0  0  0  0  0
  -11.9691   45.0990   -2.0580 C   0  0  0  0  0  0  0  0  0  0  0  0
  -12.9612   44.5218   -2.8326 C   0  0  0  0  0  0  0  0  0  0  0  0
  -13.5228   45.5404   -0.2668 C   0  0  0  0  0  0  0  0  0  0  0  0
  -12.2273   45.5992   -0.7891 C   0  0  0  0  0  0  0  0  0  0  0  0
  -14.2325   44.4727   -2.3096 C   0  0  0  0  0  0  0  0  0  0  0  0
  -14.5074   44.9646   -1.0690 C   0  0  0  0  0  0  0  0  0  0  0  0
  -16.3306   44.1357   -1.9360 C   0  0  0  0  0  0  0  0  0  0  0  0
  -15.3290   43.9576   -2.9395 O   0  0  0  0  0  0  0  0  0  0  0  0
  -15.8481   44.8063   -0.7661 O   0  0  0  0  0  0  0  0  0  0  0  0
  -13.8675   46.0311    1.1022 C   0  0  0  0  0  0  0  0  0  0  0  0
  -14.5479   45.2605    1.8457 O   0  0  0  0  0  0  0  0  0  0  0  0
  -13.4203   47.1397    1.4845 O   0  0  0  0  0  0  0  0  0  0  0  0
  -14.8592   44.4421    1.5121 H   0  0  0  0  0  0  0  0  0  0  0  0
  2  3  1  0  0  0
  2  4  2  0  0  0
  3  5  2  0  0  0
  4  6  1  0  0  0
  5  7  1  0  0  0
 23 24  1  0  0  0
 23 26  2  0  0  0
 24 27  2  0  0  0
  6  7  2  0  0  0
  6  8  1  0  0  0
 25 26  1  0  0  0
 25 28  2  0  0  0
 25 32  1  0  0  0
  7  1  1  0  0  0
 26 22  1  0  0  0
 27 28  1  0  0  0
 27 30  1  0  0  0
 28 31  1  0  0  0
  8  9  1  0  0  0
  8 10  2  0  0  0
 32 33  1  0  0  0
 32 34  2  0  0  0
 13 14  1  0  0  0
 13 15  1  0  0  0
 14 16  1  0  0  0
 15 17  1  0  0  0
 16 18  1  0  0  0
 17 18  1  0  0  0
 29 30  1  0  0  0
 29 31  1  0  0  0
 18 12  1  0  0  0
 19 20  1  0  0  0
  1 20  1  0  0  0
 22 20  1  0  0  0
 12  9  1  0  0  0
  9 11  1  0  0  0
 20 21  1  0  0  0
 33 35  1  0  0  0
M  CHG 1  20   1
M  END
> <minimizedAffinity>
-8.47018

$$$$
3ZSY_OM3_A_1214


 35 38  0  0  0  0  0  0  0  0999 V2000
   -9.2416   45.2099    0.3201 C   0  0  0  0  0  0  0  0  0  0  0  0
   -8.0938   41.0852    0.5793 C   0  0  0  0  0  0  0  0  0  0  0  0
   -9.0713   41.5055   -0.2818 C   0  0  0  0  0  0  0  0  0  0  0  0
   -7.4748   42.0286    1.3803 C   0  0  0  0  0  0  0  0  0  0  0  0
   -9.3977   42.8461   -0.3382 C   0  0  0  0  0  0  0  0  0  0  0  0
   -7.8048   43.3739    1.3385 C   0  0  0  0  0  0  0  0  0  0  0  0
   -8.7902   43.7898    0.4562 C   0  0  0  0  0  0  0  0  0  0  0  0
   -7.0763   44.3203    2.2480 C   0  0  0  0  0  0  0  0  0  0  0  0
   -7.3647   44.2292    3.5788 N   0  0  0  0  0  0  0  0  0  0  0  0
   -6.2603   45.1296    1.8472 O   0  0  0  0  0  0  0  0  0  0  0  0
   -7.9882   43.5397    3.9030 H   0  0  0  0  0  0  0  0  0  0  0  0
   -6.7488   45.1522    4.5144 C   0  0  0  0  0  0  0  0  0  0  0  0
   -3.0875   44.2964    6.7184 C   0  0  0  0  0  0  0  0  0  0  0  0
   -3.0364   44.6100    5.2497 C   0  0  0  0  0  0  0  0  0  0  0  0
   -4.2710   43.3813    6.9106 C   0  0  0  0  0  0  0  0  0  0  0  0
   -4.2784   45.3909    4.8692 C   0  0  0  0  0  0  0  0  0  0  0  0
   -5.5536   44.0940    6.5088 C   0  0  0  0  0  0  0  0  0  0  0  0
   -5.4794   44.4946    5.0540 C   0  0  0  0  0  0  0  0  0  0  0  0
  -10.5951   45.9543    2.2265 C   0  0  0  0  0  0  0  0  0  0  0  0
  -10.6197   45.5228    0.7997 N   0  0  0  0  0  0  0  0  0  0  0  0
  -11.1397   44.6474    0.7389 H   0  0  0  0  0  0  0  0  0  0  0  0
  -11.4192   46.4491   -0.0888 C   0  0  0  0  0  0  0  0  0  0  0  0
  -12.1454   45.1816   -2.0769 C   0  0  0  0  0  0  0  0  0  0  0  0
  -13.0522   44.4941   -2.8659 C   0  0  0  0  0  0  0  0  0  0  0  0
  -13.8221   45.6128   -0.3977 C   0  0  0  0  0  0  0  0  0  0  0  0
  -12.5064   45.7326   -0.8551 C   0  0  0  0  0  0  0  0  0  0  0  0
  -14.3445   44.3857   -2.4071 C   0  0  0  0  0  0  0  0  0  0  0  0
  -14.7199   44.9258   -1.2139 C   0  0  0  0  0  0  0  0  0  0  0  0
  -16.4328   43.9244   -2.1229 C   0  0  0  0  0  0  0  0  0  0  0  0
  -15.3674   43.7609   -3.0610 O   0  0  0  0  0  0  0  0  0  0  0  0
  -16.0619   44.6914   -0.9717 O   0  0  0  0  0  0  0  0  0  0  0  0
  -14.2742   46.1539    0.9201 C   0  0  0  0  0  0  0  0  0  0  0  0
  -14.5410   47.3926    0.9834 O   0  0  0  0  0  0  0  0  0  0  0  0
  -14.4370   45.3639    1.8816 O   0  0  0  0  0  0  0  0  0  0  0  0
  -14.4015   47.9407    0.2364 H   0  0  0  0  0  0  0  0  0  0  0  0
  2  3  1  0  0  0
  2  4  2  0  0  0
  3  5  2  0  0  0
  4  6  1  0  0  0
  5  7  1  0  0  0
 23 24  1  0  0  0
 23 26  2  0  0  0
 24 27  2  0  0  0
  6  7  2  0  0  0
  6  8  1  0  0  0
 25 26  1  0  0  0
 25 28  2  0  0  0
 25 32  1  0  0  0
  7  1  1  0  0  0
 26 22  1  0  0  0
 27 28  1  0  0  0
 27 30  1  0  0  0
 28 31  1  0  0  0
  8  9  1  0  0  0
  8 10  2  0  0  0
 32 33  1  0  0  0
 32 34  2  0  0  0
 13 14  1  0  0  0
 13 15  1  0  0  0
 14 16  1  0  0  0
 15 17  1  0  0  0
 16 18  1  0  0  0
 17 18  1  0  0  0
 29 30  1  0  0  0
 29 31  1  0  0  0
 18 12  1  0  0  0
 19 20  1  0  0  0
  1 20  1  0  0  0
 22 20  1  0  0  0
 12  9  1  0  0  0
  9 11  1  0  0  0
 20 21  1  0  0  0
 33 35  1  0  0  0
M  CHG 1  20   1
M  END
> <minimizedAffinity>
-8.44051

$$$$
3ZSY_OM3_A_1214


 35 38  0  0  0  0  0  0  0  0999 V2000
   -9.6904   47.8615    1.4957 C   0  0  0  0  0  0  0  0  0  0  0  0
  -10.4722   48.0373    5.7095 C   0  0  0  0  0  0  0  0  0  0  0  0
  -11.3492   48.5542    4.7945 C   0  0  0  0  0  0  0  0  0  0  0  0
   -9.3085   47.4507    5.2443 C   0  0  0  0  0  0  0  0  0  0  0  0
  -11.0595   48.4629    3.4475 C   0  0  0  0  0  0  0  0  0  0  0  0
   -9.0044   47.3657    3.8949 C   0  0  0  0  0  0  0  0  0  0  0  0
   -9.9042   47.8848    2.9765 C   0  0  0  0  0  0  0  0  0  0  0  0
   -7.7159   46.7109    3.4893 C   0  0  0  0  0  0  0  0  0  0  0  0
   -7.7807   45.3858    3.1694 N   0  0  0  0  0  0  0  0  0  0  0  0
   -6.6573   47.3089    3.4315 O   0  0  0  0  0  0  0  0  0  0  0  0
   -8.6477   44.9194    3.1698 H   0  0  0  0  0  0  0  0  0  0  0  0
   -6.5669   44.6667    2.8285 C   0  0  0  0  0  0  0  0  0  0  0  0
   -8.5405   42.2771   -0.2359 C   0  0  0  0  0  0  0  0  0  0  0  0
   -7.6135   41.6303    0.7543 C   0  0  0  0  0  0  0  0  0  0  0  0
   -7.8782   43.5679   -0.6487 C   0  0  0  0  0  0  0  0  0  0  0  0
   -7.5215   42.5061    1.9879 C   0  0  0  0  0  0  0  0  0  0  0  0
   -7.7201   44.4830    0.5564 C   0  0  0  0  0  0  0  0  0  0  0  0
   -6.8612   43.8074    1.5996 C   0  0  0  0  0  0  0  0  0  0  0  0
  -10.7281   47.8275   -0.7274 C   0  0  0  0  0  0  0  0  0  0  0  0
  -10.8018   47.3078    0.6679 N   0  0  0  0  0  0  0  0  0  0  0  0
  -11.6624   47.6527    1.0930 H   0  0  0  0  0  0  0  0  0  0  0  0
  -10.9734   45.8069    0.7360 C   0  0  0  0  0  0  0  0  0  0  0  0
  -11.5139   44.6781   -1.3900 C   0  0  0  0  0  0  0  0  0  0  0  0
  -12.3580   44.1572   -2.3562 C   0  0  0  0  0  0  0  0  0  0  0  0
  -13.3805   45.4047   -0.0465 C   0  0  0  0  0  0  0  0  0  0  0  0
  -12.0012   45.2893   -0.2429 C   0  0  0  0  0  0  0  0  0  0  0  0
  -13.7131   44.2796   -2.1537 C   0  0  0  0  0  0  0  0  0  0  0  0
  -14.2107   44.8825   -1.0377 C   0  0  0  0  0  0  0  0  0  0  0  0
  -15.8650   44.1938   -2.2836 C   0  0  0  0  0  0  0  0  0  0  0  0
  -14.6845   43.8415   -3.0075 O   0  0  0  0  0  0  0  0  0  0  0  0
  -15.5942   44.8887   -1.0609 O   0  0  0  0  0  0  0  0  0  0  0  0
  -13.9759   46.0226    1.1772 C   0  0  0  0  0  0  0  0  0  0  0  0
  -14.7011   45.2847    1.9114 O   0  0  0  0  0  0  0  0  0  0  0  0
  -13.6855   47.2090    1.4656 O   0  0  0  0  0  0  0  0  0  0  0  0
  -14.8888   44.4044    1.6509 H   0  0  0  0  0  0  0  0  0  0  0  0
  2  3  1  0  0  0
  2  4  2  0  0  0
  3  5  2  0  0  0
  4  6  1  0  0  0
  5  7  1  0  0  0
 23 24  1  0  0  0
 23 26  2  0  0  0
 24 27  2  0  0  0
  6  7  2  0  0  0
  6  8  1  0  0  0
 25 26  1  0  0  0
 25 28  2  0  0  0
 25 32  1  0  0  0
  7  1  1  0  0  0
 26 22  1  0  0  0
 27 28  1  0  0  0
 27 30  1  0  0  0
 28 31  1  0  0  0
  8  9  1  0  0  0
  8 10  2  0  0  0
 32 33  1  0  0  0
 32 34  2  0  0  0
 13 14  1  0  0  0
 13 15  1  0  0  0
 14 16  1  0  0  0
 15 17  1  0  0  0
 16 18  1  0  0  0
 17 18  1  0  0  0
 29 30  1  0  0  0
 29 31  1  0  0  0
 18 12  1  0  0  0
 19 20  1  0  0  0
  1 20  1  0  0  0
 22 20  1  0  0  0
 12  9  1  0  0  0
  9 11  1  0  0  0
 20 21  1  0  0  0
 33 35  1  0  0  0
M  CHG 1  20   1
M  END
> <minimizedAffinity>
-8.13819

$$$$
3ZSY_OM3_A_1214


 35 38  0  0  0  0  0  0  0  0999 V2000
  -10.1499   46.7409   -0.2429 C   0  0  0  0  0  0  0  0  0  0  0  0
   -6.8661   49.4987   -0.3381 C   0  0  0  0  0  0  0  0  0  0  0  0
   -8.0127   49.7229   -1.0513 C   0  0  0  0  0  0  0  0  0  0  0  0
   -6.7818   48.3465    0.4235 C   0  0  0  0  0  0  0  0  0  0  0  0
   -9.0479   48.8118   -0.9792 C   0  0  0  0  0  0  0  0  0  0  0  0
   -7.8112   47.4212    0.4919 C   0  0  0  0  0  0  0  0  0  0  0  0
   -8.9715   47.6629   -0.2276 C   0  0  0  0  0  0  0  0  0  0  0  0
   -7.6240   46.2010    1.3462 C   0  0  0  0  0  0  0  0  0  0  0  0
   -7.2040   45.0700    0.7085 N   0  0  0  0  0  0  0  0  0  0  0  0
   -7.8206   46.1957    2.5474 O   0  0  0  0  0  0  0  0  0  0  0  0
   -6.9988   45.0928   -0.2541 H   0  0  0  0  0  0  0  0  0  0  0  0
   -7.0607   43.8332    1.4546 C   0  0  0  0  0  0  0  0  0  0  0  0
   -9.0133   40.7942   -0.9842 C   0  0  0  0  0  0  0  0  0  0  0  0
   -9.5036   42.2145   -1.0009 C   0  0  0  0  0  0  0  0  0  0  0  0
   -8.7120   40.4719    0.4582 C   0  0  0  0  0  0  0  0  0  0  0  0
   -8.3789   43.1292   -0.5586 C   0  0  0  0  0  0  0  0  0  0  0  0
   -7.6117   41.3844    0.9789 C   0  0  0  0  0  0  0  0  0  0  0  0
   -8.0578   42.8248    0.8851 C   0  0  0  0  0  0  0  0  0  0  0  0
  -11.2323   47.3680    1.8679 C   0  0  0  0  0  0  0  0  0  0  0  0
  -10.6340   46.2518    1.0813 N   0  0  0  0  0  0  0  0  0  0  0  0
   -9.8047   45.9211    1.5746 H   0  0  0  0  0  0  0  0  0  0  0  0
  -11.5093   45.0196    1.0352 C   0  0  0  0  0  0  0  0  0  0  0  0
  -11.8186   44.3620   -1.3223 C   0  0  0  0  0  0  0  0  0  0  0  0
  -12.5179   44.2423   -2.5114 C   0  0  0  0  0  0  0  0  0  0  0  0
  -13.6733   45.4786   -0.2591 C   0  0  0  0  0  0  0  0  0  0  0  0
  -12.3755   44.9617   -0.2012 C   0  0  0  0  0  0  0  0  0  0  0  0
  -13.7925   44.7575   -2.5575 C   0  0  0  0  0  0  0  0  0  0  0  0
  -14.3540   45.3561   -1.4699 C   0  0  0  0  0  0  0  0  0  0  0  0
  -15.7868   45.3621   -3.1161 C   0  0  0  0  0  0  0  0  0  0  0  0
  -14.6140   44.7429   -3.6480 O   0  0  0  0  0  0  0  0  0  0  0  0
  -15.6335   45.7959   -1.7598 O   0  0  0  0  0  0  0  0  0  0  0  0
  -14.3472   46.1097    0.9161 C   0  0  0  0  0  0  0  0  0  0  0  0
  -14.5804   47.3555    0.8574 O   0  0  0  0  0  0  0  0  0  0  0  0
  -14.7138   45.3844    1.8724 O   0  0  0  0  0  0  0  0  0  0  0  0
  -14.2849   47.8532    0.1205 H   0  0  0  0  0  0  0  0  0  0  0  0
  2  3  1  0  0  0
  2  4  2  0  0  0
  3  5  2  0  0  0
  4  6  1  0  0  0
  5  7  1  0  0  0
 23 24  1  0  0  0
 23 26  2  0  0  0
 24 27  2  0  0  0
  6  7  2  0  0  0
  6  8  1  0  0  0
 25 26  1  0  0  0
 25 28  2  0  0  0
 25 32  1  0  0  0
  7  1  1  0  0  0
 26 22  1  0  0  0
 27 28  1  0  0  0
 27 30  1  0  0  0
 28 31  1  0  0  0
  8  9  1  0  0  0
  8 10  2  0  0  0
 32 33  1  0  0  0
 32 34  2  0  0  0
 13 14  1  0  0  0
 13 15  1  0  0  0
 14 16  1  0  0  0
 15 17  1  0  0  0
 16 18  1  0  0  0
 17 18  1  0  0  0
 29 30  1  0  0  0
 29 31  1  0  0  0
 18 12  1  0  0  0
 19 20  1  0  0  0
  1 20  1  0  0  0
 22 20  1  0  0  0
 12  9  1  0  0  0
  9 11  1  0  0  0
 20 21  1  0  0  0
 33 35  1  0  0  0
M  CHG 1  20   1
M  END
> <minimizedAffinity>
-7.95761

$$$$
3ZSY_OM3_A_1214


 35 38  0  0  0  0  0  0  0  0999 V2000
  -10.0720   44.5354    1.3906 C   0  0  0  0  0  0  0  0  0  0  0  0
  -10.4317   41.5267   -1.6452 C   0  0  0  0  0  0  0  0  0  0  0  0
   -9.5208   41.4162   -0.6295 C   0  0  0  0  0  0  0  0  0  0  0  0
  -11.2452   42.6455   -1.6783 C   0  0  0  0  0  0  0  0  0  0  0  0
   -9.4505   42.4050    0.3318 C   0  0  0  0  0  0  0  0  0  0  0  0
  -11.1730   43.6481   -0.7244 C   0  0  0  0  0  0  0  0  0  0  0  0
  -10.2526   43.5216    0.3050 C   0  0  0  0  0  0  0  0  0  0  0  0
  -12.0984   44.8238   -0.8470 C   0  0  0  0  0  0  0  0  0  0  0  0
  -13.4249   44.5786   -0.6401 N   0  0  0  0  0  0  0  0  0  0  0  0
  -11.7117   45.9482   -1.1071 O   0  0  0  0  0  0  0  0  0  0  0  0
  -13.7262   43.6778   -0.3813 H   0  0  0  0  0  0  0  0  0  0  0  0
  -14.3898   45.6505   -0.8031 C   0  0  0  0  0  0  0  0  0  0  0  0
  -15.8476   44.1552   -4.6286 C   0  0  0  0  0  0  0  0  0  0  0  0
  -15.6294   45.6273   -4.4197 C   0  0  0  0  0  0  0  0  0  0  0  0
  -16.4937   43.6440   -3.3653 C   0  0  0  0  0  0  0  0  0  0  0  0
  -14.6355   45.8229   -3.2922 C   0  0  0  0  0  0  0  0  0  0  0  0
  -15.5595   43.8456   -2.1817 C   0  0  0  0  0  0  0  0  0  0  0  0
  -15.2602   45.3169   -2.0140 C   0  0  0  0  0  0  0  0  0  0  0  0
   -8.2021   45.2295   -0.0385 C   0  0  0  0  0  0  0  0  0  0  0  0
   -8.9611   45.5158    1.2124 N   0  0  0  0  0  0  0  0  0  0  0  0
   -8.3360   45.3736    2.0057 H   0  0  0  0  0  0  0  0  0  0  0  0
   -9.3529   46.9697    1.3516 C   0  0  0  0  0  0  0  0  0  0  0  0
   -8.6374   47.2149    3.6998 C   0  0  0  0  0  0  0  0  0  0  0  0
   -8.8005   47.5466    5.0343 C   0  0  0  0  0  0  0  0  0  0  0  0
  -10.9117   47.8370    3.1918 C   0  0  0  0  0  0  0  0  0  0  0  0
   -9.6649   47.3588    2.7777 C   0  0  0  0  0  0  0  0  0  0  0  0
  -10.0324   48.0128    5.4307 C   0  0  0  0  0  0  0  0  0  0  0  0
  -11.0555   48.1543    4.5420 C   0  0  0  0  0  0  0  0  0  0  0  0
  -11.7226   48.7981    6.5177 C   0  0  0  0  0  0  0  0  0  0  0  0
  -10.3728   48.3679    6.7045 O   0  0  0  0  0  0  0  0  0  0  0  0
  -12.1895   48.6331    5.1739 O   0  0  0  0  0  0  0  0  0  0  0  0
  -12.0530   48.0459    2.2499 C   0  0  0  0  0  0  0  0  0  0  0  0
  -12.1090   49.1544    1.6353 O   0  0  0  0  0  0  0  0  0  0  0  0
  -12.8621   47.1069    2.0526 O   0  0  0  0  0  0  0  0  0  0  0  0
  -11.4803   49.8243    1.8192 H   0  0  0  0  0  0  0  0  0  0  0  0
  2  3  1  0  0  0
  2  4  2  0  0  0
  3  5  2  0  0  0
  4  6  1  0  0  0
  5  7  1  0  0  0
 23 24  1  0  0  0
 23 26  2  0  0  0
 24 27  2  0  0  0
  6  7  2  0  0  0
  6  8  1  0  0  0
 25 26  1  0  0  0
 25 28  2  0  0  0
 25 32  1  0  0  0
  7  1  1  0  0  0
 26 22  1  0  0  0
 27 28  1  0  0  0
 27 30  1  0  0  0
 28 31  1  0  0  0
  8  9  1  0  0  0
  8 10  2  0  0  0
 32 33  1  0  0  0
 32 34  2  0  0  0
 13 14  1  0  0  0
 13 15  1  0  0  0
 14 16  1  0  0  0
 15 17  1  0  0  0
 16 18  1  0  0  0
 17 18  1  0  0  0
 29 30  1  0  0  0
 29 31  1  0  0  0
 18 12  1  0  0  0
 19 20  1  0  0  0
  1 20  1  0  0  0
 22 20  1  0  0  0
 12  9  1  0  0  0
  9 11  1  0  0  0
 20 21  1  0  0  0
 33 35  1  0  0  0
M  CHG 1  20   1
M  END
> <minimizedAffinity>
-7.89843

$$$$
3ZSY_OM3_A_1214


 35 38  0  0  0  0  0  0  0  0999 V2000
   -8.5276   44.7978   -0.1045 C   0  0  0  0  0  0  0  0  0  0  0  0
  -10.3261   41.1366   -1.4308 C   0  0  0  0  0  0  0  0  0  0  0  0
   -9.1329   41.1485   -0.7602 C   0  0  0  0  0  0  0  0  0  0  0  0
  -10.9505   42.3460   -1.6806 C   0  0  0  0  0  0  0  0  0  0  0  0
   -8.5992   42.3516   -0.3424 C   0  0  0  0  0  0  0  0  0  0  0  0
  -10.4159   43.5586   -1.2754 C   0  0  0  0  0  0  0  0  0  0  0  0
   -9.2111   43.5581   -0.5891 C   0  0  0  0  0  0  0  0  0  0  0  0
  -11.1689   44.8175   -1.5944 C   0  0  0  0  0  0  0  0  0  0  0  0
  -12.5295   44.7198   -1.6336 N   0  0  0  0  0  0  0  0  0  0  0  0
  -10.6203   45.8840   -1.8022 O   0  0  0  0  0  0  0  0  0  0  0  0
  -12.9699   43.8666   -1.4159 H   0  0  0  0  0  0  0  0  0  0  0  0
  -13.3249   45.8781   -1.9972 C   0  0  0  0  0  0  0  0  0  0  0  0
  -16.7483   43.8588   -3.7857 C   0  0  0  0  0  0  0  0  0  0  0  0
  -16.5501   45.3360   -3.9776 C   0  0  0  0  0  0  0  0  0  0  0  0
  -16.4240   43.5768   -2.3399 C   0  0  0  0  0  0  0  0  0  0  0  0
  -15.0858   45.6677   -3.7695 C   0  0  0  0  0  0  0  0  0  0  0  0
  -14.9714   43.9256   -2.0523 C   0  0  0  0  0  0  0  0  0  0  0  0
  -14.7359   45.3924   -2.3266 C   0  0  0  0  0  0  0  0  0  0  0  0
   -7.8360   44.6125    2.2424 C   0  0  0  0  0  0  0  0  0  0  0  0
   -8.8182   45.2173    1.2979 N   0  0  0  0  0  0  0  0  0  0  0  0
   -9.7421   44.8425    1.5135 H   0  0  0  0  0  0  0  0  0  0  0  0
   -9.0041   46.7039    1.5031 C   0  0  0  0  0  0  0  0  0  0  0  0
  -11.4266   46.4521    1.8958 C   0  0  0  0  0  0  0  0  0  0  0  0
  -12.7637   46.7799    1.7472 C   0  0  0  0  0  0  0  0  0  0  0  0
  -10.7512   48.2246    0.4061 C   0  0  0  0  0  0  0  0  0  0  0  0
  -10.4222   47.1581    1.2480 C   0  0  0  0  0  0  0  0  0  0  0  0
  -13.0754   47.8288    0.9136 C   0  0  0  0  0  0  0  0  0  0  0  0
  -12.1043   48.5295    0.2636 C   0  0  0  0  0  0  0  0  0  0  0  0
  -14.0553   49.3742   -0.2293 C   0  0  0  0  0  0  0  0  0  0  0  0
  -14.3365   48.2744    0.6385 O   0  0  0  0  0  0  0  0  0  0  0  0
  -12.6605   49.5289   -0.5150 O   0  0  0  0  0  0  0  0  0  0  0  0
   -9.7219   49.0477   -0.2988 C   0  0  0  0  0  0  0  0  0  0  0  0
   -9.6331   48.9204   -1.5580 O   0  0  0  0  0  0  0  0  0  0  0  0
   -9.0419   49.8714    0.3602 O   0  0  0  0  0  0  0  0  0  0  0  0
  -10.1637   48.2897   -2.0038 H   0  0  0  0  0  0  0  0  0  0  0  0
  2  3  1  0  0  0
  2  4  2  0  0  0
  3  5  2  0  0  0
  4  6  1  0  0  0
  5  7  1  0  0  0
 23 24  1  0  0  0
 23 26  2  0  0  0
 24 27  2  0  0  0
  6  7  2  0  0  0
  6  8  1  0  0  0
 25 26  1  0  0  0
 25 28  2  0  0  0
 25 32  1  0  0  0
  7  1  1  0  0  0
 26 22  1  0  0  0
 27 28  1  0  0  0
 27 30  1  0  0  0
 28 31  1  0  0  0
  8  9  1  0  0  0
  8 10  2  0  0  0
 32 33  1  0  0  0
 32 34  2  0  0  0
 13 14  1  0  0  0
 13 15  1  0  0  0
 14 16  1  0  0  0
 15 17  1  0  0  0
 16 18  1  0  0  0
 17 18  1  0  0  0
 29 30  1  0  0  0
 29 31  1  0  0  0
 18 12  1  0  0  0
 19 20  1  0  0  0
  1 20  1  0  0  0
 22 20  1  0  0  0
 12  9  1  0  0  0
  9 11  1  0  0  0
 20 21  1  0  0  0
 33 35  1  0  0  0
M  CHG 1  20   1
M  END
> <minimizedAffinity>
-7.84898

$$$$
3ZSY_OM3_A_1214


 35 38  0  0  0  0  0  0  0  0999 V2000
   -7.7823   45.9365    0.3672 C   0  0  0  0  0  0  0  0  0  0  0  0
   -6.4516   42.6443    2.7732 C   0  0  0  0  0  0  0  0  0  0  0  0
   -6.2049   43.9419    3.1325 C   0  0  0  0  0  0  0  0  0  0  0  0
   -7.1458   42.4092    1.5994 C   0  0  0  0  0  0  0  0  0  0  0  0
   -6.6642   44.9687    2.3315 C   0  0  0  0  0  0  0  0  0  0  0  0
   -7.5996   43.4334    0.7838 C   0  0  0  0  0  0  0  0  0  0  0  0
   -7.3518   44.7442    1.1621 C   0  0  0  0  0  0  0  0  0  0  0  0
   -8.3432   43.0764   -0.4705 C   0  0  0  0  0  0  0  0  0  0  0  0
   -9.6709   42.7932   -0.3314 N   0  0  0  0  0  0  0  0  0  0  0  0
   -7.8163   43.0427   -1.5672 O   0  0  0  0  0  0  0  0  0  0  0  0
  -10.1028   42.8704    0.5499 H   0  0  0  0  0  0  0  0  0  0  0  0
  -10.4440   42.3778   -1.4874 C   0  0  0  0  0  0  0  0  0  0  0  0
  -13.2186   45.7277   -1.7633 C   0  0  0  0  0  0  0  0  0  0  0  0
  -13.4536   44.4767   -2.5620 C   0  0  0  0  0  0  0  0  0  0  0  0
  -11.7400   46.0115   -1.8544 C   0  0  0  0  0  0  0  0  0  0  0  0
  -12.7298   43.3236   -1.8958 C   0  0  0  0  0  0  0  0  0  0  0  0
  -10.9493   44.8692   -1.2344 C   0  0  0  0  0  0  0  0  0  0  0  0
  -11.2447   43.5852   -1.9736 C   0  0  0  0  0  0  0  0  0  0  0  0
   -6.4008   47.6010   -0.7910 C   0  0  0  0  0  0  0  0  0  0  0  0
   -6.9639   47.1748    0.5220 N   0  0  0  0  0  0  0  0  0  0  0  0
   -6.1894   46.9203    1.1350 H   0  0  0  0  0  0  0  0  0  0  0  0
   -7.6320   48.3016    1.2773 C   0  0  0  0  0  0  0  0  0  0  0  0
   -9.5538   47.3623    2.5065 C   0  0  0  0  0  0  0  0  0  0  0  0
  -10.8968   47.1249    2.7460 C   0  0  0  0  0  0  0  0  0  0  0  0
  -10.0578   48.6331    0.5195 C   0  0  0  0  0  0  0  0  0  0  0  0
   -9.1238   48.1093    1.4183 C   0  0  0  0  0  0  0  0  0  0  0  0
  -11.8061   47.6424    1.8530 C   0  0  0  0  0  0  0  0  0  0  0  0
  -11.4035   48.3722    0.7752 C   0  0  0  0  0  0  0  0  0  0  0  0
  -13.5824   48.2503    0.7900 C   0  0  0  0  0  0  0  0  0  0  0  0
  -13.1612   47.4911    1.9249 O   0  0  0  0  0  0  0  0  0  0  0  0
  -12.4929   48.7792    0.0256 O   0  0  0  0  0  0  0  0  0  0  0  0
   -9.6697   49.4712   -0.6556 C   0  0  0  0  0  0  0  0  0  0  0  0
   -9.5270   50.7172   -0.4639 O   0  0  0  0  0  0  0  0  0  0  0  0
   -9.4357   48.9117   -1.7544 O   0  0  0  0  0  0  0  0  0  0  0  0
   -9.7153   51.0865    0.3764 H   0  0  0  0  0  0  0  0  0  0  0  0
  2  3  1  0  0  0
  2  4  2  0  0  0
  3  5  2  0  0  0
  4  6  1  0  0  0
  5  7  1  0  0  0
 23 24  1  0  0  0
 23 26  2  0  0  0
 24 27  2  0  0  0
  6  7  2  0  0  0
  6  8  1  0  0  0
 25 26  1  0  0  0
 25 28  2  0  0  0
 25 32  1  0  0  0
  7  1  1  0  0  0
 26 22  1  0  0  0
 27 28  1  0  0  0
 27 30  1  0  0  0
 28 31  1  0  0  0
  8  9  1  0  0  0
  8 10  2  0  0  0
 32 33  1  0  0  0
 32 34  2  0  0  0
 13 14  1  0  0  0
 13 15  1  0  0  0
 14 16  1  0  0  0
 15 17  1  0  0  0
 16 18  1  0  0  0
 17 18  1  0  0  0
 29 30  1  0  0  0
 29 31  1  0  0  0
 18 12  1  0  0  0
 19 20  1  0  0  0
  1 20  1  0  0  0
 22 20  1  0  0  0
 12  9  1  0  0  0
  9 11  1  0  0  0
 20 21  1  0  0  0
 33 35  1  0  0  0
M  CHG 1  20   1
M  END
> <minimizedAffinity>
-7.81266

$$$$
3ZSY_OM3_A_1214


 35 38  0  0  0  0  0  0  0  0999 V2000
   -7.2099   46.2537    1.7842 C   0  0  0  0  0  0  0  0  0  0  0  0
   -3.2912   45.5777    3.3921 C   0  0  0  0  0  0  0  0  0  0  0  0
   -3.6902   46.8174    2.9706 C   0  0  0  0  0  0  0  0  0  0  0  0
   -4.1872   44.5286    3.2854 C   0  0  0  0  0  0  0  0  0  0  0  0
   -4.9663   46.9882    2.4713 C   0  0  0  0  0  0  0  0  0  0  0  0
   -5.4653   44.6890    2.7744 C   0  0  0  0  0  0  0  0  0  0  0  0
   -5.8618   45.9509    2.3587 C   0  0  0  0  0  0  0  0  0  0  0  0
   -6.3640   43.4888    2.6988 C   0  0  0  0  0  0  0  0  0  0  0  0
   -6.3913   42.8228    1.5080 N   0  0  0  0  0  0  0  0  0  0  0  0
   -7.0362   43.1033    3.6373 O   0  0  0  0  0  0  0  0  0  0  0  0
   -5.8083   43.1094    0.7682 H   0  0  0  0  0  0  0  0  0  0  0  0
   -7.2828   41.6904    1.3360 C   0  0  0  0  0  0  0  0  0  0  0  0
  -10.5770   42.4072   -1.4263 C   0  0  0  0  0  0  0  0  0  0  0  0
   -9.8597   41.0868   -1.4231 C   0  0  0  0  0  0  0  0  0  0  0  0
   -9.5094   43.4644   -1.2933 C   0  0  0  0  0  0  0  0  0  0  0  0
   -9.1945   40.8908   -0.0754 C   0  0  0  0  0  0  0  0  0  0  0  0
   -8.7735   43.3009    0.0282 C   0  0  0  0  0  0  0  0  0  0  0  0
   -8.1200   41.9399    0.0822 C   0  0  0  0  0  0  0  0  0  0  0  0
   -7.7574   46.8956    4.0883 C   0  0  0  0  0  0  0  0  0  0  0  0
   -8.3107   46.5088    2.7590 N   0  0  0  0  0  0  0  0  0  0  0  0
   -8.8007   45.6202    2.8625 H   0  0  0  0  0  0  0  0  0  0  0  0
   -9.4013   47.4377    2.2748 C   0  0  0  0  0  0  0  0  0  0  0  0
  -11.1546   45.7269    1.9829 C   0  0  0  0  0  0  0  0  0  0  0  0
  -12.1187   45.0237    1.2803 C   0  0  0  0  0  0  0  0  0  0  0  0
  -10.6243   47.0720    0.0524 C   0  0  0  0  0  0  0  0  0  0  0  0
  -10.4146   46.7436    1.3951 C   0  0  0  0  0  0  0  0  0  0  0  0
  -12.3136   45.3533   -0.0409 C   0  0  0  0  0  0  0  0  0  0  0  0
  -11.5924   46.3433   -0.6376 C   0  0  0  0  0  0  0  0  0  0  0  0
  -13.0024   45.5092   -2.0796 C   0  0  0  0  0  0  0  0  0  0  0  0
  -13.2052   44.7539   -0.8837 O   0  0  0  0  0  0  0  0  0  0  0  0
  -11.9624   46.4869   -1.9631 O   0  0  0  0  0  0  0  0  0  0  0  0
   -9.8867   48.1740   -0.6369 C   0  0  0  0  0  0  0  0  0  0  0  0
  -10.5362   49.2275   -0.9161 O   0  0  0  0  0  0  0  0  0  0  0  0
   -8.6562   48.0466   -0.8487 O   0  0  0  0  0  0  0  0  0  0  0  0
  -11.4550   49.2724   -0.7380 H   0  0  0  0  0  0  0  0  0  0  0  0
  2  3  1  0  0  0
  2  4  2  0  0  0
  3  5  2  0  0  0
  4  6  1  0  0  0
  5  7  1  0  0  0
 23 24  1  0  0  0
 23 26  2  0  0  0
 24 27  2  0  0  0
  6  7  2  0  0  0
  6  8  1  0  0  0
 25 26  1  0  0  0
 25 28  2  0  0  0
 25 32  1  0  0  0
  7  1  1  0  0  0
 26 22  1  0  0  0
 27 28  1  0  0  0
 27 30  1  0  0  0
 28 31  1  0  0  0
  8  9  1  0  0  0
  8 10  2  0  0  0
 32 33  1  0  0  0
 32 34  2  0  0  0
 13 14  1  0  0  0
 13 15  1  0  0  0
 14 16  1  0  0  0
 15 17  1  0  0  0
 16 18  1  0  0  0
 17 18  1  0  0  0
 29 30  1  0  0  0
 29 31  1  0  0  0
 18 12  1  0  0  0
 19 20  1  0  0  0
  1 20  1  0  0  0
 22 20  1  0  0  0
 12  9  1  0  0  0
  9 11  1  0  0  0
 20 21  1  0  0  0
 33 35  1  0  0  0
M  CHG 1  20   1
M  END
> <minimizedAffinity>
-7.80593

$$$$
3ZSY_OM3_A_1214


 35 38  0  0  0  0  0  0  0  0999 V2000
   -9.7201   45.6453    0.2220 C   0  0  0  0  0  0  0  0  0  0  0  0
  -12.0167   42.7331   -1.9327 C   0  0  0  0  0  0  0  0  0  0  0  0
  -12.5167   43.9755   -1.6501 C   0  0  0  0  0  0  0  0  0  0  0  0
  -10.7382   42.4266   -1.5011 C   0  0  0  0  0  0  0  0  0  0  0  0
  -11.7347   44.8837   -0.9641 C   0  0  0  0  0  0  0  0  0  0  0  0
   -9.9514   43.3278   -0.8018 C   0  0  0  0  0  0  0  0  0  0  0  0
  -10.4647   44.5866   -0.5288 C   0  0  0  0  0  0  0  0  0  0  0  0
   -8.5767   42.9009   -0.3757 C   0  0  0  0  0  0  0  0  0  0  0  0
   -8.4718   42.3308    0.8597 N   0  0  0  0  0  0  0  0  0  0  0  0
   -7.5924   43.0361   -1.0789 O   0  0  0  0  0  0  0  0  0  0  0  0
   -9.2781   42.1787    1.4036 H   0  0  0  0  0  0  0  0  0  0  0  0
   -7.1672   41.9496    1.3690 C   0  0  0  0  0  0  0  0  0  0  0  0
   -5.2395   44.3571    4.4485 C   0  0  0  0  0  0  0  0  0  0  0  0
   -6.7374   44.3276    4.3317 C   0  0  0  0  0  0  0  0  0  0  0  0
   -4.7107   44.4389    3.0383 C   0  0  0  0  0  0  0  0  0  0  0  0
   -7.1510   43.0555    3.6190 C   0  0  0  0  0  0  0  0  0  0  0  0
   -5.1244   43.2037    2.2524 C   0  0  0  0  0  0  0  0  0  0  0  0
   -6.6316   43.1132    2.2023 C   0  0  0  0  0  0  0  0  0  0  0  0
  -11.0192   45.8713    2.2913 C   0  0  0  0  0  0  0  0  0  0  0  0
  -10.5366   46.5676    1.0645 N   0  0  0  0  0  0  0  0  0  0  0  0
  -11.3473   46.8162    0.4977 H   0  0  0  0  0  0  0  0  0  0  0  0
   -9.9048   47.9111    1.3520 C   0  0  0  0  0  0  0  0  0  0  0  0
   -7.5178   47.4953    1.8164 C   0  0  0  0  0  0  0  0  0  0  0  0
   -6.1632   47.5001    1.5296 C   0  0  0  0  0  0  0  0  0  0  0  0
   -8.0453   48.5121   -0.3061 C   0  0  0  0  0  0  0  0  0  0  0  0
   -8.4589   47.9833    0.9202 C   0  0  0  0  0  0  0  0  0  0  0  0
   -5.7679   48.0260    0.3215 C   0  0  0  0  0  0  0  0  0  0  0  0
   -6.6758   48.5163   -0.5684 C   0  0  0  0  0  0  0  0  0  0  0  0
   -4.6705   48.6969   -1.4107 C   0  0  0  0  0  0  0  0  0  0  0  0
   -4.4780   48.1263   -0.1149 O   0  0  0  0  0  0  0  0  0  0  0  0
   -6.0414   48.9915   -1.7025 O   0  0  0  0  0  0  0  0  0  0  0  0
   -9.0035   49.0267   -1.3311 C   0  0  0  0  0  0  0  0  0  0  0  0
   -8.6663   50.0644   -1.9784 O   0  0  0  0  0  0  0  0  0  0  0  0
  -10.0578   48.3849   -1.5587 O   0  0  0  0  0  0  0  0  0  0  0  0
   -7.8678   50.5081   -1.7695 H   0  0  0  0  0  0  0  0  0  0  0  0
  2  3  1  0  0  0
  2  4  2  0  0  0
  3  5  2  0  0  0
  4  6  1  0  0  0
  5  7  1  0  0  0
 23 24  1  0  0  0
 23 26  2  0  0  0
 24 27  2  0  0  0
  6  7  2  0  0  0
  6  8  1  0  0  0
 25 26  1  0  0  0
 25 28  2  0  0  0
 25 32  1  0  0  0
  7  1  1  0  0  0
 26 22  1  0  0  0
 27 28  1  0  0  0
 27 30  1  0  0  0
 28 31  1  0  0  0
  8  9  1  0  0  0
  8 10  2  0  0  0
 32 33  1  0  0  0
 32 34  2  0  0  0
 13 14  1  0  0  0
 13 15  1  0  0  0
 14 16  1  0  0  0
 15 17  1  0  0  0
 16 18  1  0  0  0
 17 18  1  0  0  0
 29 30  1  0  0  0
 29 31  1  0  0  0
 18 12  1  0  0  0
 19 20  1  0  0  0
  1 20  1  0  0  0
 22 20  1  0  0  0
 12  9  1  0  0  0
  9 11  1  0  0  0
 20 21  1  0  0  0
 33 35  1  0  0  0
M  CHG 1  20   1
M  END
> <minimizedAffinity>
-7.77859

$$$$
3ZSY_OM3_A_1214


 35 38  0  0  0  0  0  0  0  0999 V2000
   -9.8704   45.3931    2.0773 C   0  0  0  0  0  0  0  0  0  0  0  0
   -8.6305   42.6942   -1.0174 C   0  0  0  0  0  0  0  0  0  0  0  0
   -9.7125   42.4268   -0.2227 C   0  0  0  0  0  0  0  0  0  0  0  0
   -7.9302   43.8675   -0.7992 C   0  0  0  0  0  0  0  0  0  0  0  0
  -10.0805   43.3322    0.7528 C   0  0  0  0  0  0  0  0  0  0  0  0
   -8.2855   44.7757    0.1853 C   0  0  0  0  0  0  0  0  0  0  0  0
   -9.3885   44.4988    0.9786 C   0  0  0  0  0  0  0  0  0  0  0  0
   -7.4619   46.0206    0.3446 C   0  0  0  0  0  0  0  0  0  0  0  0
   -7.7731   47.0656   -0.4761 N   0  0  0  0  0  0  0  0  0  0  0  0
   -6.5646   46.1225    1.1607 O   0  0  0  0  0  0  0  0  0  0  0  0
   -8.5317   46.9952   -1.0996 H   0  0  0  0  0  0  0  0  0  0  0  0
   -6.9816   48.2812   -0.4265 C   0  0  0  0  0  0  0  0  0  0  0  0
  -10.4023   50.6150    0.9328 C   0  0  0  0  0  0  0  0  0  0  0  0
   -9.8250   50.8370   -0.4367 C   0  0  0  0  0  0  0  0  0  0  0  0
   -9.2255   50.4583    1.8633 C   0  0  0  0  0  0  0  0  0  0  0  0
   -9.0743   49.5911   -0.8628 C   0  0  0  0  0  0  0  0  0  0  0  0
   -8.4037   49.2411    1.4663 C   0  0  0  0  0  0  0  0  0  0  0  0
   -7.8895   49.4117    0.0560 C   0  0  0  0  0  0  0  0  0  0  0  0
  -11.3323   47.1919    2.8820 C   0  0  0  0  0  0  0  0  0  0  0  0
  -11.0944   46.1991    1.7956 N   0  0  0  0  0  0  0  0  0  0  0  0
  -11.8689   45.5353    1.7934 H   0  0  0  0  0  0  0  0  0  0  0  0
  -11.1671   46.8025    0.4110 C   0  0  0  0  0  0  0  0  0  0  0  0
  -11.5035   45.5472   -1.6860 C   0  0  0  0  0  0  0  0  0  0  0  0
  -12.2331   44.8190   -2.6106 C   0  0  0  0  0  0  0  0  0  0  0  0
  -13.4294   45.7997   -0.2561 C   0  0  0  0  0  0  0  0  0  0  0  0
  -12.0757   46.0313   -0.5176 C   0  0  0  0  0  0  0  0  0  0  0  0
  -13.5648   44.6003   -2.3441 C   0  0  0  0  0  0  0  0  0  0  0  0
  -14.1463   45.0734   -1.2064 C   0  0  0  0  0  0  0  0  0  0  0  0
  -15.6298   43.9761   -2.3716 C   0  0  0  0  0  0  0  0  0  0  0  0
  -14.4330   43.9218   -3.1504 O   0  0  0  0  0  0  0  0  0  0  0  0
  -15.4865   44.7323   -1.1639 O   0  0  0  0  0  0  0  0  0  0  0  0
  -14.1042   46.2642    0.9939 C   0  0  0  0  0  0  0  0  0  0  0  0
  -14.5159   47.4638    1.0253 O   0  0  0  0  0  0  0  0  0  0  0  0
  -14.2974   45.4447    1.9247 O   0  0  0  0  0  0  0  0  0  0  0  0
  -14.3455   48.0367    0.3037 H   0  0  0  0  0  0  0  0  0  0  0  0
  2  3  1  0  0  0
  2  4  2  0  0  0
  3  5  2  0  0  0
  4  6  1  0  0  0
  5  7  1  0  0  0
 23 24  1  0  0  0
 23 26  2  0  0  0
 24 27  2  0  0  0
  6  7  2  0  0  0
  6  8  1  0  0  0
 25 26  1  0  0  0
 25 28  2  0  0  0
 25 32  1  0  0  0
  7  1  1  0  0  0
 26 22  1  0  0  0
 27 28  1  0  0  0
 27 30  1  0  0  0
 28 31  1  0  0  0
  8  9  1  0  0  0
  8 10  2  0  0  0
 32 33  1  0  0  0
 32 34  2  0  0  0
 13 14  1  0  0  0
 13 15  1  0  0  0
 14 16  1  0  0  0
 15 17  1  0  0  0
 16 18  1  0  0  0
 17 18  1  0  0  0
 29 30  1  0  0  0
 29 31  1  0  0  0
 18 12  1  0  0  0
 19 20  1  0  0  0
  1 20  1  0  0  0
 22 20  1  0  0  0
 12  9  1  0  0  0
  9 11  1  0  0  0
 20 21  1  0  0  0
 33 35  1  0  0  0
M  CHG 1  20   1
M  END
> <minimizedAffinity>
-7.74402

$$$$
