5O1F_9GQ_A_402
  RCSB PDB05121802173D
Coordinates from PDB:5O1F:A:402 Model:1 without hydrogens
 21 22  0  0  0  0            999 V2000
   91.0980   89.1200  -48.3160   C 0  0  0  0  0  0  0  0  0  0  0  0
   92.4890   89.6730  -41.6380   C 0  0  0  0  0  0  0  0  0  0  0  0
   89.9850   89.6740  -49.1880   C 0  0  0  0  0  0  0  0  0  0  0  0
   90.9280   93.7520  -45.4870   C 0  0  0  0  0  0  0  0  0  0  0  0
   91.4240   92.5910  -44.8810   C 0  0  0  0  0  0  0  0  0  0  0  0
   91.7520   92.6550  -43.5170   C 0  0  0  0  0  0  0  0  0  0  0  0
   91.5880   93.8490  -42.7910   C 0  0  0  0  0  0  0  0  0  0  0  0
   91.0900   94.9980  -43.4190   C 0  0  0  0  0  0  0  0  0  0  0  0
   90.7540   94.9520  -44.7720   C 0  0  0  0  0  0  0  0  0  0  0  0
   90.2230   96.1560  -45.4930   C 0  0  0  0  0  0  0  0  0  0  0  0
   90.9410   91.0990  -46.7480   C 0  0  0  0  0  0  0  0  0  0  0  0
   91.8510   90.2590  -47.6420   C 0  0  0  0  0  0  0  0  0  0  0  0
   93.6120   91.4230  -42.4650   C 0  0  0  0  0  0  0  0  0  0  0  0
   93.7680   90.2620  -41.7420   C 0  0  0  0  0  0  0  0  0  0  0  0
   91.5900   90.4860  -42.2940   C 0  0  0  0  0  0  0  0  0  0  0  0
   92.0590   93.9650  -40.7250   I 0  0  0  0  0  0  0  0  0  0  0  0
   92.2790   91.5570  -42.8110   N 0  0  0  0  0  0  0  0  0  0  0  0
   90.9250   96.1660  -42.7140   O 0  0  0  0  0  0  0  0  0  0  0  0
   90.1710   97.2350  -44.8280   O 0  0  0  0  0  0  0  0  0  0  0  0
   89.8900   95.9810  -46.7080   O 0  0  0  0  0  0  0  0  0  0  0  0
   91.6110   91.3900  -45.5130   O 0  0  0  0  0  0  0  0  0  0  0  0
  3  1  1  0  0  0  0
  1 12  1  0  0  0  0
 12 11  1  0  0  0  0
 11 21  1  0  0  0  0
 20 10  2  0  0  0  0
 21  5  1  0  0  0  0
 10 19  1  0  0  0  0
 10  9  1  0  0  0  0
  4  5  2  0  0  0  0
  4  9  1  0  0  0  0
  5  6  1  0  0  0  0
  9  8  2  0  0  0  0
  6 17  1  0  0  0  0
  6  7  2  0  0  0  0
  8  7  1  0  0  0  0
  8 18  1  0  0  0  0
 17 13  1  0  0  0  0
 17 15  1  0  0  0  0
  7 16  1  0  0  0  0
 13 14  2  0  0  0  0
 15  2  2  0  0  0  0
 14  2  1  0  0  0  0
A    1
C10
A    2
C13
A    3
C15
A    4
C01
A    5
C02
A    6
C03
A    7
C04
A    8
C05
A    9
C06
A   10
C07
A   11
C08
A   12
C09
A   13
C11
A   14
C12
A   15
C14
A   16
I01
A   17
N01
A   18
O01
A   19
O02
A   20
O03
A   21
O04
M  END
>  <InstanceId>
5O1F_9GQ_A_402

>  <ChemCompId>
9GQ

>  <PdbId>
5O1F

>  <ChainId>
A

>  <ResidueNumber>
402

>  <InsertionCode>


>  <Model>
1

>  <AltIds>


>  <MissingHeavyAtoms>
0

>  <ObservedFormula>
C15 N O4 I

>  <Name>
5-butoxy-3-iodanyl-2-oxidanyl-4-pyrrol-1-yl-benzoic acid

>  <SystematicName>
5-butoxy-3-iodanyl-2-oxidanyl-4-pyrrol-1-yl-benzoic acid

>  <Synonyms>


>  <Type>
NON-POLYMER

>  <Formula>
C15 H16 I N O4

>  <MolecularWeight>
401.196

>  <ModifiedDate>
2018-05-04

>  <Parent>


>  <OneLetterCode>


>  <SubcomponentList>


>  <AmbiguousFlag>
N

>  <InChI>
InChI=1S/C15H16INO4/c1-2-3-8-21-11-9-10(15(19)20)14(18)12(16)13(11)17-6-4-5-7-17/h4-7,9,18H,2-3,8H2,1H3,(H,19,20)

>  <InChIKey>
JDSAVJOLSIWVGB-UHFFFAOYSA-N

>  <SMILES>
CCCCOc1cc(c(c(c1n2cccc2)I)O)C(=O)O

$$$$
