5O1F_9GQ_A_402


 23 24  0  0  0  0  0  0  0  0999 V2000
   90.8477   93.5635  -45.9275 C   0  0  0  0  0  0  0  0  0  0  0  0
   91.4823   92.5140  -45.2515 C   0  0  0  0  0  0  0  0  0  0  0  0
   91.8443   92.7245  -43.9110 C   0  0  0  0  0  0  0  0  0  0  0  0
   91.5779   93.9516  -43.2762 C   0  0  0  0  0  0  0  0  0  0  0  0
   90.9420   94.9872  -43.9731 C   0  0  0  0  0  0  0  0  0  0  0  0
   90.5705   94.7946  -45.3037 C   0  0  0  0  0  0  0  0  0  0  0  0
   92.0985   94.2867  -41.2463 I   0  0  0  0  0  0  0  0  0  0  0  0
   90.6767   96.1866  -43.3571 O   0  0  0  0  0  0  0  0  0  0  0  0
   90.2509   96.8731  -43.8319 H   0  0  0  0  0  0  0  0  0  0  0  0
   92.9485   90.0369  -41.7841 C   0  0  0  0  0  0  0  0  0  0  0  0
   93.8730   91.7230  -42.9286 C   0  0  0  0  0  0  0  0  0  0  0  0
   94.1720   90.6693  -42.0948 C   0  0  0  0  0  0  0  0  0  0  0  0
   91.9396   90.7183  -42.4302 C   0  0  0  0  0  0  0  0  0  0  0  0
   92.5061   91.7490  -43.1416 N   0  0  0  0  0  0  0  0  0  0  0  0
   89.8930   95.8736  -46.0963 C   0  0  0  0  0  0  0  0  0  0  0  0
   88.8738   95.5262  -46.7669 O   0  0  0  0  0  0  0  0  0  0  0  0
   90.3985   97.0372  -46.0068 O   0  0  0  0  0  0  0  0  0  0  0  0
   88.5896   94.6334  -46.7587 H   0  0  0  0  0  0  0  0  0  0  0  0
   91.7752   91.2902  -45.7930 O   0  0  0  0  0  0  0  0  0  0  0  0
   91.4657   91.0019  -47.1641 C   0  0  0  0  0  0  0  0  0  0  0  0
   90.0969   90.3299  -47.2527 C   0  0  0  0  0  0  0  0  0  0  0  0
   89.4046   90.6141  -48.5788 C   0  0  0  0  0  0  0  0  0  0  0  0
   88.8856   92.0411  -48.6013 C   0  0  0  0  0  0  0  0  0  0  0  0
 23 22  1  0  0  0
 22 21  1  0  0  0
 21 20  1  0  0  0
 20 19  1  0  0  0
 17 15  2  0  0  0
 19  2  1  0  0  0
 15 16  1  0  0  0
 15  6  1  0  0  0
  1  2  2  0  0  0
  1  6  1  0  0  0
  2  3  1  0  0  0
  6  5  2  0  0  0
  3 14  1  0  0  0
  3  4  2  0  0  0
  5  4  1  0  0  0
  5  8  1  0  0  0
 14 11  1  0  0  0
 14 13  1  0  0  0
  4  7  1  0  0  0
 11 12  2  0  0  0
 13 10  2  0  0  0
 12 10  1  0  0  0
  8  9  1  0  0  0
 16 18  1  0  0  0
M  END
> <minimizedAffinity>
-6.50401

$$$$
5O1F_9GQ_A_402


 23 24  0  0  0  0  0  0  0  0999 V2000
   90.5576   95.7129  -45.6582 C   0  0  0  0  0  0  0  0  0  0  0  0
   91.0386   94.4471  -45.3009 C   0  0  0  0  0  0  0  0  0  0  0  0
   91.3834   94.2349  -43.9562 C   0  0  0  0  0  0  0  0  0  0  0  0
   91.2504   95.2642  -43.0064 C   0  0  0  0  0  0  0  0  0  0  0  0
   90.7669   96.5227  -43.3875 C   0  0  0  0  0  0  0  0  0  0  0  0
   90.4145   96.7505  -44.7178 C   0  0  0  0  0  0  0  0  0  0  0  0
   91.7473   94.9618  -40.9655 I   0  0  0  0  0  0  0  0  0  0  0  0
   90.6321   97.5307  -42.4633 O   0  0  0  0  0  0  0  0  0  0  0  0
   90.3079   98.3689  -42.7283 H   0  0  0  0  0  0  0  0  0  0  0  0
   93.2634   91.3310  -42.9565 C   0  0  0  0  0  0  0  0  0  0  0  0
   91.1160   91.9516  -43.0622 C   0  0  0  0  0  0  0  0  0  0  0  0
   91.9388   90.9014  -42.7229 C   0  0  0  0  0  0  0  0  0  0  0  0
   93.2153   92.6237  -43.4321 C   0  0  0  0  0  0  0  0  0  0  0  0
   91.8977   93.0105  -43.4890 N   0  0  0  0  0  0  0  0  0  0  0  0
   89.8981   98.0818  -45.1787 C   0  0  0  0  0  0  0  0  0  0  0  0
   90.5583   98.6564  -46.0969 O   0  0  0  0  0  0  0  0  0  0  0  0
   88.8377   98.4987  -44.6135 O   0  0  0  0  0  0  0  0  0  0  0  0
   91.3308   98.2531  -46.4411 H   0  0  0  0  0  0  0  0  0  0  0  0
   91.1956   93.3919  -46.1604 O   0  0  0  0  0  0  0  0  0  0  0  0
   90.0566   92.7638  -46.7663 C   0  0  0  0  0  0  0  0  0  0  0  0
   90.2814   91.2551  -46.8442 C   0  0  0  0  0  0  0  0  0  0  0  0
   91.7527   90.8878  -46.7070 C   0  0  0  0  0  0  0  0  0  0  0  0
   92.1749   89.9866  -47.8540 C   0  0  0  0  0  0  0  0  0  0  0  0
 23 22  1  0  0  0
 22 21  1  0  0  0
 21 20  1  0  0  0
 20 19  1  0  0  0
 17 15  2  0  0  0
 19  2  1  0  0  0
 15 16  1  0  0  0
 15  6  1  0  0  0
  1  2  2  0  0  0
  1  6  1  0  0  0
  2  3  1  0  0  0
  6  5  2  0  0  0
  3 14  1  0  0  0
  3  4  2  0  0  0
  5  4  1  0  0  0
  5  8  1  0  0  0
 14 11  1  0  0  0
 14 13  1  0  0  0
  4  7  1  0  0  0
 11 12  2  0  0  0
 13 10  2  0  0  0
 12 10  1  0  0  0
  8  9  1  0  0  0
 16 18  1  0  0  0
M  END
> <minimizedAffinity>
-6.03501

$$$$
5O1F_9GQ_A_402


 23 24  0  0  0  0  0  0  0  0999 V2000
   91.7569   92.1981  -45.0424 C   0  0  0  0  0  0  0  0  0  0  0  0
   91.8212   93.4102  -44.3439 C   0  0  0  0  0  0  0  0  0  0  0  0
   91.0199   94.4699  -44.7991 C   0  0  0  0  0  0  0  0  0  0  0  0
   90.1855   94.3129  -45.9211 C   0  0  0  0  0  0  0  0  0  0  0  0
   90.1381   93.0906  -46.6039 C   0  0  0  0  0  0  0  0  0  0  0  0
   90.9231   92.0252  -46.1633 C   0  0  0  0  0  0  0  0  0  0  0  0
   88.9519   95.8936  -46.6163 I   0  0  0  0  0  0  0  0  0  0  0  0
   89.3227   92.9309  -47.6985 O   0  0  0  0  0  0  0  0  0  0  0  0
   89.2981   92.1093  -48.1485 H   0  0  0  0  0  0  0  0  0  0  0  0
   91.2726   97.9170  -43.7892 C   0  0  0  0  0  0  0  0  0  0  0  0
   90.7230   95.9591  -42.8554 C   0  0  0  0  0  0  0  0  0  0  0  0
   90.8675   97.3011  -42.5850 C   0  0  0  0  0  0  0  0  0  0  0  0
   91.3670   96.9406  -44.7574 C   0  0  0  0  0  0  0  0  0  0  0  0
   91.0207   95.7383  -44.1885 N   0  0  0  0  0  0  0  0  0  0  0  0
   90.9138   90.6979  -46.8631 C   0  0  0  0  0  0  0  0  0  0  0  0
   89.8112   90.0706  -46.8695 O   0  0  0  0  0  0  0  0  0  0  0  0
   92.0107   90.3367  -47.3960 O   0  0  0  0  0  0  0  0  0  0  0  0
   89.0621   90.4355  -46.4408 H   0  0  0  0  0  0  0  0  0  0  0  0
   92.6024   93.6455  -43.2434 O   0  0  0  0  0  0  0  0  0  0  0  0
   92.3302   92.9892  -41.9969 C   0  0  0  0  0  0  0  0  0  0  0  0
   93.6382   92.7458  -41.2467 C   0  0  0  0  0  0  0  0  0  0  0  0
   94.2365   91.3827  -41.5670 C   0  0  0  0  0  0  0  0  0  0  0  0
   93.1308   90.3786  -41.8413 C   0  0  0  0  0  0  0  0  0  0  0  0
 23 22  1  0  0  0
 22 21  1  0  0  0
 21 20  1  0  0  0
 20 19  1  0  0  0
 17 15  2  0  0  0
 19  2  1  0  0  0
 15 16  1  0  0  0
 15  6  1  0  0  0
  1  2  2  0  0  0
  1  6  1  0  0  0
  2  3  1  0  0  0
  6  5  2  0  0  0
  3 14  1  0  0  0
  3  4  2  0  0  0
  5  4  1  0  0  0
  5  8  1  0  0  0
 14 11  1  0  0  0
 14 13  1  0  0  0
  4  7  1  0  0  0
 11 12  2  0  0  0
 13 10  2  0  0  0
 12 10  1  0  0  0
  8  9  1  0  0  0
 16 18  1  0  0  0
M  END
> <minimizedAffinity>
-5.62120

$$$$
5O1F_9GQ_A_402


 23 24  0  0  0  0  0  0  0  0999 V2000
   90.7195   94.0454  -45.5677 C   0  0  0  0  0  0  0  0  0  0  0  0
   90.5586   95.4203  -45.3556 C   0  0  0  0  0  0  0  0  0  0  0  0
   90.8383   95.9208  -44.0737 C   0  0  0  0  0  0  0  0  0  0  0  0
   91.2626   95.0638  -43.0416 C   0  0  0  0  0  0  0  0  0  0  0  0
   91.4163   93.6915  -43.2776 C   0  0  0  0  0  0  0  0  0  0  0  0
   91.1481   93.1770  -44.5461 C   0  0  0  0  0  0  0  0  0  0  0  0
   91.7091   95.7994  -41.1017 I   0  0  0  0  0  0  0  0  0  0  0  0
   91.8333   92.8504  -42.2741 O   0  0  0  0  0  0  0  0  0  0  0  0
   91.9331   91.9340  -42.4420 H   0  0  0  0  0  0  0  0  0  0  0  0
   91.0792   99.4442  -43.3712 C   0  0  0  0  0  0  0  0  0  0  0  0
   89.5540   97.8199  -43.1639 C   0  0  0  0  0  0  0  0  0  0  0  0
   89.7687   99.1593  -42.9295 C   0  0  0  0  0  0  0  0  0  0  0  0
   91.6284   98.2779  -43.8586 C   0  0  0  0  0  0  0  0  0  0  0  0
   90.6900   97.2806  -43.7410 N   0  0  0  0  0  0  0  0  0  0  0  0
   91.2908   91.7144  -44.8491 C   0  0  0  0  0  0  0  0  0  0  0  0
   90.9751   90.9116  -43.9191 O   0  0  0  0  0  0  0  0  0  0  0  0
   91.7009   91.4206  -46.0167 O   0  0  0  0  0  0  0  0  0  0  0  0
   90.6835   91.2434  -43.0927 H   0  0  0  0  0  0  0  0  0  0  0  0
   90.1535   96.3222  -46.3039 O   0  0  0  0  0  0  0  0  0  0  0  0
   88.8564   96.2181  -46.9084 C   0  0  0  0  0  0  0  0  0  0  0  0
   87.9222   97.2660  -46.3068 C   0  0  0  0  0  0  0  0  0  0  0  0
   86.7014   96.6352  -45.6509 C   0  0  0  0  0  0  0  0  0  0  0  0
   86.1406   97.5646  -44.5889 C   0  0  0  0  0  0  0  0  0  0  0  0
 23 22  1  0  0  0
 22 21  1  0  0  0
 21 20  1  0  0  0
 20 19  1  0  0  0
 17 15  2  0  0  0
 19  2  1  0  0  0
 15 16  1  0  0  0
 15  6  1  0  0  0
  1  2  2  0  0  0
  1  6  1  0  0  0
  2  3  1  0  0  0
  6  5  2  0  0  0
  3 14  1  0  0  0
  3  4  2  0  0  0
  5  4  1  0  0  0
  5  8  1  0  0  0
 14 11  1  0  0  0
 14 13  1  0  0  0
  4  7  1  0  0  0
 11 12  2  0  0  0
 13 10  2  0  0  0
 12 10  1  0  0  0
  8  9  1  0  0  0
 16 18  1  0  0  0
M  END
> <minimizedAffinity>
-5.46443

$$$$
5O1F_9GQ_A_402


 23 24  0  0  0  0  0  0  0  0999 V2000
   91.5696   92.1550  -44.2617 C   0  0  0  0  0  0  0  0  0  0  0  0
   91.2150   93.3605  -44.8799 C   0  0  0  0  0  0  0  0  0  0  0  0
   91.1908   94.5191  -44.0866 C   0  0  0  0  0  0  0  0  0  0  0  0
   91.5103   94.4626  -42.7176 C   0  0  0  0  0  0  0  0  0  0  0  0
   91.8620   93.2448  -42.1211 C   0  0  0  0  0  0  0  0  0  0  0  0
   91.8965   92.0844  -42.8944 C   0  0  0  0  0  0  0  0  0  0  0  0
   91.4988   96.2027  -41.5028 I   0  0  0  0  0  0  0  0  0  0  0  0
   92.1779   93.1844  -40.7851 O   0  0  0  0  0  0  0  0  0  0  0  0
   92.4119   92.3650  -40.3955 H   0  0  0  0  0  0  0  0  0  0  0  0
   89.6656   97.5151  -45.3765 C   0  0  0  0  0  0  0  0  0  0  0  0
   91.7331   96.7387  -45.0158 C   0  0  0  0  0  0  0  0  0  0  0  0
   91.0378   97.8241  -45.4989 C   0  0  0  0  0  0  0  0  0  0  0  0
   89.5590   96.2555  -44.8275 C   0  0  0  0  0  0  0  0  0  0  0  0
   90.8277   95.7801  -44.5963 N   0  0  0  0  0  0  0  0  0  0  0  0
   92.2604   90.7543  -42.3028 C   0  0  0  0  0  0  0  0  0  0  0  0
   91.3614   89.8597  -42.3292 O   0  0  0  0  0  0  0  0  0  0  0  0
   93.4423   90.6481  -41.8450 O   0  0  0  0  0  0  0  0  0  0  0  0
   90.5198   90.0517  -42.6935 H   0  0  0  0  0  0  0  0  0  0  0  0
   90.8935   93.5029  -46.2040 O   0  0  0  0  0  0  0  0  0  0  0  0
   90.0519   92.5446  -46.8614 C   0  0  0  0  0  0  0  0  0  0  0  0
   90.9071   91.6009  -47.7045 C   0  0  0  0  0  0  0  0  0  0  0  0
   90.4674   90.1499  -47.5631 C   0  0  0  0  0  0  0  0  0  0  0  0
   91.4014   89.2430  -48.3449 C   0  0  0  0  0  0  0  0  0  0  0  0
 23 22  1  0  0  0
 22 21  1  0  0  0
 21 20  1  0  0  0
 20 19  1  0  0  0
 17 15  2  0  0  0
 19  2  1  0  0  0
 15 16  1  0  0  0
 15  6  1  0  0  0
  1  2  2  0  0  0
  1  6  1  0  0  0
  2  3  1  0  0  0
  6  5  2  0  0  0
  3 14  1  0  0  0
  3  4  2  0  0  0
  5  4  1  0  0  0
  5  8  1  0  0  0
 14 11  1  0  0  0
 14 13  1  0  0  0
  4  7  1  0  0  0
 11 12  2  0  0  0
 13 10  2  0  0  0
 12 10  1  0  0  0
  8  9  1  0  0  0
 16 18  1  0  0  0
M  END
> <minimizedAffinity>
-5.40205

$$$$
5O1F_9GQ_A_402


 23 24  0  0  0  0  0  0  0  0999 V2000
   90.9899   96.7232  -43.5822 C   0  0  0  0  0  0  0  0  0  0  0  0
   90.1259   96.5467  -44.6701 C   0  0  0  0  0  0  0  0  0  0  0  0
   89.0610   97.4511  -44.8120 C   0  0  0  0  0  0  0  0  0  0  0  0
   88.8730   98.4948  -43.8874 C   0  0  0  0  0  0  0  0  0  0  0  0
   89.7505   98.6514  -42.8067 C   0  0  0  0  0  0  0  0  0  0  0  0
   90.8170   97.7657  -42.6523 C   0  0  0  0  0  0  0  0  0  0  0  0
   87.2824   99.8848  -44.0914 I   0  0  0  0  0  0  0  0  0  0  0  0
   89.5734   99.6708  -41.9024 O   0  0  0  0  0  0  0  0  0  0  0  0
   90.1658   99.7670  -41.1829 H   0  0  0  0  0  0  0  0  0  0  0  0
   86.3545   96.7909  -47.0936 C   0  0  0  0  0  0  0  0  0  0  0  0
   88.2783   97.9339  -47.1008 C   0  0  0  0  0  0  0  0  0  0  0  0
   87.1968   97.6019  -47.8851 C   0  0  0  0  0  0  0  0  0  0  0  0
   86.9413   96.6473  -45.8548 C   0  0  0  0  0  0  0  0  0  0  0  0
   88.1187   97.3563  -45.8536 N   0  0  0  0  0  0  0  0  0  0  0  0
   91.7812   97.8858  -41.5089 C   0  0  0  0  0  0  0  0  0  0  0  0
   92.1156   99.0626  -41.1735 O   0  0  0  0  0  0  0  0  0  0  0  0
   92.1588   96.7943  -40.9762 O   0  0  0  0  0  0  0  0  0  0  0  0
   91.7726   99.7984  -41.6413 H   0  0  0  0  0  0  0  0  0  0  0  0
   90.2391   95.5613  -45.6151 O   0  0  0  0  0  0  0  0  0  0  0  0
   91.3410   94.6426  -45.5883 C   0  0  0  0  0  0  0  0  0  0  0  0
   90.9194   93.3533  -44.8861 C   0  0  0  0  0  0  0  0  0  0  0  0
   91.8855   92.9645  -43.7752 C   0  0  0  0  0  0  0  0  0  0  0  0
   91.2509   93.2181  -42.4191 C   0  0  0  0  0  0  0  0  0  0  0  0
 23 22  1  0  0  0
 22 21  1  0  0  0
 21 20  1  0  0  0
 20 19  1  0  0  0
 17 15  2  0  0  0
 19  2  1  0  0  0
 15 16  1  0  0  0
 15  6  1  0  0  0
  1  2  2  0  0  0
  1  6  1  0  0  0
  2  3  1  0  0  0
  6  5  2  0  0  0
  3 14  1  0  0  0
  3  4  2  0  0  0
  5  4  1  0  0  0
  5  8  1  0  0  0
 14 11  1  0  0  0
 14 13  1  0  0  0
  4  7  1  0  0  0
 11 12  2  0  0  0
 13 10  2  0  0  0
 12 10  1  0  0  0
  8  9  1  0  0  0
 16 18  1  0  0  0
M  END
> <minimizedAffinity>
-5.37062

$$$$
5O1F_9GQ_A_402


 23 24  0  0  0  0  0  0  0  0999 V2000
   91.0918   92.7520  -45.7220 C   0  0  0  0  0  0  0  0  0  0  0  0
   91.3271   93.9396  -45.0182 C   0  0  0  0  0  0  0  0  0  0  0  0
   90.6100   95.0827  -45.4072 C   0  0  0  0  0  0  0  0  0  0  0  0
   89.6903   95.0299  -46.4707 C   0  0  0  0  0  0  0  0  0  0  0  0
   89.4717   93.8301  -47.1602 C   0  0  0  0  0  0  0  0  0  0  0  0
   90.1711   92.6832  -46.7846 C   0  0  0  0  0  0  0  0  0  0  0  0
   88.5814   96.7391  -47.0645 I   0  0  0  0  0  0  0  0  0  0  0  0
   88.5724   93.7722  -48.1976 O   0  0  0  0  0  0  0  0  0  0  0  0
   88.4333   92.9649  -48.6525 H   0  0  0  0  0  0  0  0  0  0  0  0
   90.5239   98.1295  -43.4901 C   0  0  0  0  0  0  0  0  0  0  0  0
   91.7104   97.2791  -45.1862 C   0  0  0  0  0  0  0  0  0  0  0  0
   91.5732   98.3979  -44.3959 C   0  0  0  0  0  0  0  0  0  0  0  0
   90.0486   96.8624  -43.7507 C   0  0  0  0  0  0  0  0  0  0  0  0
   90.7821   96.3342  -44.7861 N   0  0  0  0  0  0  0  0  0  0  0  0
   89.9785   91.3754  -47.4945 C   0  0  0  0  0  0  0  0  0  0  0  0
   89.8242   91.4331  -48.7523 O   0  0  0  0  0  0  0  0  0  0  0  0
   90.0037   90.3327  -46.7667 O   0  0  0  0  0  0  0  0  0  0  0  0
   89.8223   92.2634  -49.1865 H   0  0  0  0  0  0  0  0  0  0  0  0
   92.2007   94.0761  -43.9718 O   0  0  0  0  0  0  0  0  0  0  0  0
   92.5682   92.9438  -43.1707 C   0  0  0  0  0  0  0  0  0  0  0  0
   92.5216   93.3224  -41.6918 C   0  0  0  0  0  0  0  0  0  0  0  0
   91.3304   94.2135  -41.3664 C   0  0  0  0  0  0  0  0  0  0  0  0
   91.8087   95.5337  -40.7883 C   0  0  0  0  0  0  0  0  0  0  0  0
 23 22  1  0  0  0
 22 21  1  0  0  0
 21 20  1  0  0  0
 20 19  1  0  0  0
 17 15  2  0  0  0
 19  2  1  0  0  0
 15 16  1  0  0  0
 15  6  1  0  0  0
  1  2  2  0  0  0
  1  6  1  0  0  0
  2  3  1  0  0  0
  6  5  2  0  0  0
  3 14  1  0  0  0
  3  4  2  0  0  0
  5  4  1  0  0  0
  5  8  1  0  0  0
 14 11  1  0  0  0
 14 13  1  0  0  0
  4  7  1  0  0  0
 11 12  2  0  0  0
 13 10  2  0  0  0
 12 10  1  0  0  0
  8  9  1  0  0  0
 16 18  1  0  0  0
M  END
> <minimizedAffinity>
-5.24915

$$$$
5O1F_9GQ_A_402


 23 24  0  0  0  0  0  0  0  0999 V2000
   90.7139   93.9831  -45.4172 C   0  0  0  0  0  0  0  0  0  0  0  0
   90.8809   92.7083  -45.9723 C   0  0  0  0  0  0  0  0  0  0  0  0
   90.1790   92.4124  -47.1522 C   0  0  0  0  0  0  0  0  0  0  0  0
   89.3363   93.3680  -47.7490 C   0  0  0  0  0  0  0  0  0  0  0  0
   89.1851   94.6371  -47.1752 C   0  0  0  0  0  0  0  0  0  0  0  0
   89.8783   94.9507  -46.0061 C   0  0  0  0  0  0  0  0  0  0  0  0
   88.2802   92.9507  -49.5418 I   0  0  0  0  0  0  0  0  0  0  0  0
   88.3657   95.5753  -47.7556 O   0  0  0  0  0  0  0  0  0  0  0  0
   88.2713   96.4213  -47.3639 H   0  0  0  0  0  0  0  0  0  0  0  0
   90.8241   89.4727  -49.1291 C   0  0  0  0  0  0  0  0  0  0  0  0
   89.3686   90.1181  -47.5566 C   0  0  0  0  0  0  0  0  0  0  0  0
   89.7038   89.0623  -48.3740 C   0  0  0  0  0  0  0  0  0  0  0  0
   91.1404   90.7616  -48.7575 C   0  0  0  0  0  0  0  0  0  0  0  0
   90.2535   91.1570  -47.7848 N   0  0  0  0  0  0  0  0  0  0  0  0
   89.7460   96.2928  -45.3481 C   0  0  0  0  0  0  0  0  0  0  0  0
   90.8057   96.7875  -44.8565 O   0  0  0  0  0  0  0  0  0  0  0  0
   88.5850   96.8120  -45.3605 O   0  0  0  0  0  0  0  0  0  0  0  0
   91.6113   96.3116  -44.9053 H   0  0  0  0  0  0  0  0  0  0  0  0
   91.6819   91.7231  -45.4580 O   0  0  0  0  0  0  0  0  0  0  0  0
   91.7009   91.4545  -44.0486 C   0  0  0  0  0  0  0  0  0  0  0  0
   93.0552   91.8543  -43.4665 C   0  0  0  0  0  0  0  0  0  0  0  0
   93.1381   91.5821  -41.9706 C   0  0  0  0  0  0  0  0  0  0  0  0
   94.4588   90.9122  -41.6344 C   0  0  0  0  0  0  0  0  0  0  0  0
 23 22  1  0  0  0
 22 21  1  0  0  0
 21 20  1  0  0  0
 20 19  1  0  0  0
 17 15  2  0  0  0
 19  2  1  0  0  0
 15 16  1  0  0  0
 15  6  1  0  0  0
  1  2  2  0  0  0
  1  6  1  0  0  0
  2  3  1  0  0  0
  6  5  2  0  0  0
  3 14  1  0  0  0
  3  4  2  0  0  0
  5  4  1  0  0  0
  5  8  1  0  0  0
 14 11  1  0  0  0
 14 13  1  0  0  0
  4  7  1  0  0  0
 11 12  2  0  0  0
 13 10  2  0  0  0
 12 10  1  0  0  0
  8  9  1  0  0  0
 16 18  1  0  0  0
M  END
> <minimizedAffinity>
-5.10482

$$$$
5O1F_9GQ_A_402


 23 24  0  0  0  0  0  0  0  0999 V2000
   90.7341   94.1992  -45.6576 C   0  0  0  0  0  0  0  0  0  0  0  0
   90.5851   95.5650  -45.3862 C   0  0  0  0  0  0  0  0  0  0  0  0
   90.8463   96.0034  -44.0779 C   0  0  0  0  0  0  0  0  0  0  0  0
   91.2409   95.0954  -43.0782 C   0  0  0  0  0  0  0  0  0  0  0  0
   91.3832   93.7334  -43.3736 C   0  0  0  0  0  0  0  0  0  0  0  0
   91.1331   93.2802  -44.6688 C   0  0  0  0  0  0  0  0  0  0  0  0
   91.6591   95.7369  -41.0990 I   0  0  0  0  0  0  0  0  0  0  0  0
   91.7713   92.8426  -42.4018 O   0  0  0  0  0  0  0  0  0  0  0  0
   91.8636   91.9336  -42.6094 H   0  0  0  0  0  0  0  0  0  0  0  0
   91.1213   99.4795  -43.1795 C   0  0  0  0  0  0  0  0  0  0  0  0
   89.5468   97.8895  -43.1623 C   0  0  0  0  0  0  0  0  0  0  0  0
   89.7765   99.2091  -42.8448 C   0  0  0  0  0  0  0  0  0  0  0  0
   91.6754   98.3243  -43.6873 C   0  0  0  0  0  0  0  0  0  0  0  0
   90.7075   97.3485  -43.6865 N   0  0  0  0  0  0  0  0  0  0  0  0
   91.2645   91.8312  -45.0354 C   0  0  0  0  0  0  0  0  0  0  0  0
   90.9272   90.9911  -44.1467 O   0  0  0  0  0  0  0  0  0  0  0  0
   91.6880   91.5854  -46.2092 O   0  0  0  0  0  0  0  0  0  0  0  0
   90.6274   91.2887  -43.3104 H   0  0  0  0  0  0  0  0  0  0  0  0
   90.2086   96.5139  -46.2998 O   0  0  0  0  0  0  0  0  0  0  0  0
   88.8243   96.7173  -46.6178 C   0  0  0  0  0  0  0  0  0  0  0  0
   88.4130   95.7793  -47.7510 C   0  0  0  0  0  0  0  0  0  0  0  0
   88.3765   96.4898  -49.0972 C   0  0  0  0  0  0  0  0  0  0  0  0
   88.1301   95.4867  -50.2104 C   0  0  0  0  0  0  0  0  0  0  0  0
 23 22  1  0  0  0
 22 21  1  0  0  0
 21 20  1  0  0  0
 20 19  1  0  0  0
 17 15  2  0  0  0
 19  2  1  0  0  0
 15 16  1  0  0  0
 15  6  1  0  0  0
  1  2  2  0  0  0
  1  6  1  0  0  0
  2  3  1  0  0  0
  6  5  2  0  0  0
  3 14  1  0  0  0
  3  4  2  0  0  0
  5  4  1  0  0  0
  5  8  1  0  0  0
 14 11  1  0  0  0
 14 13  1  0  0  0
  4  7  1  0  0  0
 11 12  2  0  0  0
 13 10  2  0  0  0
 12 10  1  0  0  0
  8  9  1  0  0  0
 16 18  1  0  0  0
M  END
> <minimizedAffinity>
-5.10407

$$$$
5O1F_9GQ_A_402


 23 24  0  0  0  0  0  0  0  0999 V2000
   90.8516   92.4990  -45.9111 C   0  0  0  0  0  0  0  0  0  0  0  0
   90.9968   93.7181  -45.2375 C   0  0  0  0  0  0  0  0  0  0  0  0
   90.2930   94.8271  -45.7346 C   0  0  0  0  0  0  0  0  0  0  0  0
   89.4740   94.7106  -46.8727 C   0  0  0  0  0  0  0  0  0  0  0  0
   89.3444   93.4802  -47.5301 C   0  0  0  0  0  0  0  0  0  0  0  0
   90.0319   92.3665  -47.0478 C   0  0  0  0  0  0  0  0  0  0  0  0
   88.3863   96.3674  -47.6314 I   0  0  0  0  0  0  0  0  0  0  0  0
   88.5436   93.3601  -48.6403 O   0  0  0  0  0  0  0  0  0  0  0  0
   88.4635   92.5328  -49.0729 H   0  0  0  0  0  0  0  0  0  0  0  0
   89.9008   98.0132  -44.1034 C   0  0  0  0  0  0  0  0  0  0  0  0
   91.4832   96.9351  -45.2615 C   0  0  0  0  0  0  0  0  0  0  0  0
   91.2117   98.1207  -44.6167 C   0  0  0  0  0  0  0  0  0  0  0  0
   89.4076   96.7733  -44.4481 C   0  0  0  0  0  0  0  0  0  0  0  0
   90.3813   96.1054  -45.1516 N   0  0  0  0  0  0  0  0  0  0  0  0
   89.9323   91.0281  -47.7188 C   0  0  0  0  0  0  0  0  0  0  0  0
   89.8076   90.0220  -46.9563 O   0  0  0  0  0  0  0  0  0  0  0  0
   89.9675   91.0337  -48.9902 O   0  0  0  0  0  0  0  0  0  0  0  0
   89.7942   90.1376  -46.0266 H   0  0  0  0  0  0  0  0  0  0  0  0
   91.7695   93.9164  -44.1238 O   0  0  0  0  0  0  0  0  0  0  0  0
   92.7869   92.9725  -43.7596 C   0  0  0  0  0  0  0  0  0  0  0  0
   92.7406   92.7209  -42.2537 C   0  0  0  0  0  0  0  0  0  0  0  0
   93.1736   91.3055  -41.8965 C   0  0  0  0  0  0  0  0  0  0  0  0
   94.6480   91.2866  -41.5335 C   0  0  0  0  0  0  0  0  0  0  0  0
 23 22  1  0  0  0
 22 21  1  0  0  0
 21 20  1  0  0  0
 20 19  1  0  0  0
 17 15  2  0  0  0
 19  2  1  0  0  0
 15 16  1  0  0  0
 15  6  1  0  0  0
  1  2  2  0  0  0
  1  6  1  0  0  0
  2  3  1  0  0  0
  6  5  2  0  0  0
  3 14  1  0  0  0
  3  4  2  0  0  0
  5  4  1  0  0  0
  5  8  1  0  0  0
 14 11  1  0  0  0
 14 13  1  0  0  0
  4  7  1  0  0  0
 11 12  2  0  0  0
 13 10  2  0  0  0
 12 10  1  0  0  0
  8  9  1  0  0  0
 16 18  1  0  0  0
M  END
> <minimizedAffinity>
-5.06313

$$$$
