3G35_F13_A_1
  RCSB PDB12061708413D
Coordinates from PDB:3G35:A:1 Model:1 without hydrogens
 21 23  0  0  0  0            999 V2000
  -11.6260   59.7310   11.6930   F 0  0  0  0  0  0  0  0  0  0  0  0
  -10.8240   58.7840   11.1570   C 0  0  0  0  0  0  0  0  0  0  0  0
  -10.1490   57.9090   12.0020   C 0  0  0  0  0  0  0  0  0  0  0  0
  -10.6740   58.6690    9.7830   C 0  0  0  0  0  0  0  0  0  0  0  0
   -9.8450   57.6920    9.2360   C 0  0  0  0  0  0  0  0  0  0  0  0
   -9.1530   56.8250   10.0810   C 0  0  0  0  0  0  0  0  0  0  0  0
   -9.3120   56.9310   11.4670   C 0  0  0  0  0  0  0  0  0  0  0  0
   -8.5630   56.0080   12.3910   C 0  0  0  0  0  0  0  0  0  0  0  0
   -8.9420   55.9010   13.5470   O 0  0  0  0  0  0  0  0  0  0  0  0
   -7.4940   55.3630   11.9080   N 0  0  0  0  0  0  0  0  0  0  0  0
   -6.6540   54.5780   12.6430   C 0  0  0  0  0  0  0  0  0  0  0  0
   -7.0880   53.8180   13.7370   C 0  0  0  0  0  0  0  0  0  0  0  0
   -6.1890   53.0380   14.4650   C 0  0  0  0  0  0  0  0  0  0  0  0
   -4.8450   52.9800   14.1120   C 0  0  0  0  0  0  0  0  0  0  0  0
   -4.4150   53.7270   13.0210   C 0  0  0  0  0  0  0  0  0  0  0  0
   -5.3040   54.5250   12.2970   C 0  0  0  0  0  0  0  0  0  0  0  0
   -2.9890   53.6790   12.6260   C 0  0  0  0  0  0  0  0  0  0  0  0
   -2.5270   53.9570   11.3930   N 0  0  0  0  0  0  0  0  0  0  0  0
   -1.1490   53.7940   11.3940   N 0  0  0  0  0  0  0  0  0  0  0  0
   -0.7910   53.3980   12.6820   N 0  0  0  0  0  0  0  0  0  0  0  0
   -1.9640   53.3260   13.4290   N 0  0  0  0  0  0  0  0  0  0  0  0
  1  2  1  0  0  0  0
  2  3  2  0  0  0  0
  2  4  1  0  0  0  0
  3  7  1  0  0  0  0
  4  5  2  0  0  0  0
  5  6  1  0  0  0  0
  6  7  2  0  0  0  0
  7  8  1  0  0  0  0
  8  9  2  0  0  0  0
  8 10  1  0  0  0  0
 10 11  1  0  0  0  0
 11 12  2  0  0  0  0
 11 16  1  0  0  0  0
 12 13  1  0  0  0  0
 13 14  2  0  0  0  0
 14 15  1  0  0  0  0
 15 16  2  0  0  0  0
 15 17  1  0  0  0  0
 17 18  2  0  0  0  0
 17 21  1  0  0  0  0
 18 19  1  0  0  0  0
 19 20  2  0  0  0  0
 20 21  1  0  0  0  0
A    1
F21
A    2
C16
A    3
C15
A    4
C17
A    5
C18
A    6
C19
A    7
C14
A    8
C13
A    9
O20
A   10
N12
A   11
C10
A   12
C9
A   13
C8
A   14
C7
A   15
C6
A   16
C11
A   17
C4
A   18
N5
A   19
N1
A   20
N2
A   21
N3
M  END
>  <InstanceId>
3G35_F13_A_1

>  <ChemCompId>
F13

>  <PdbId>
3G35

>  <ChainId>
A

>  <ResidueNumber>
1

>  <InsertionCode>


>  <Model>
1

>  <AltIds>


>  <MissingHeavyAtoms>
0

>  <ObservedFormula>
C14 N5 O F

>  <Name>
3-fluoro-N-[3-(1H-tetrazol-5-yl)phenyl]benzamide

>  <SystematicName>
3-fluoro-N-[3-(1H-1,2,3,4-tetrazol-5-yl)phenyl]benzamide

>  <Synonyms>


>  <Type>
NON-POLYMER

>  <Formula>
C14 H10 F N5 O

>  <MolecularWeight>
283.261

>  <ModifiedDate>
2011-06-04

>  <Parent>


>  <OneLetterCode>


>  <SubcomponentList>


>  <AmbiguousFlag>
N

>  <InChI>
InChI=1S/C14H10FN5O/c15-11-5-1-4-10(7-11)14(21)16-12-6-2-3-9(8-12)13-17-19-20-18-13/h1-8H,(H,16,21)(H,17,18,19,20)

>  <InChIKey>
GAKOBKPDJJGRIL-UHFFFAOYSA-N

>  <SMILES>
c1cc(cc(c1)NC(=O)c2cccc(c2)F)c3[nH]nnn3

$$$$
