1NJA_DCM_A_317


 25 26  0  0  0  0  0  0  0  0999 V2000
   16.0696   46.5424  -53.3673 C   0  0  0  0  0  0  0  0  0  0  0  0
   15.3391   46.4396  -54.7022 C   0  0  0  0  0  0  0  0  0  0  0  0
   16.5372   46.3603  -55.6310 C   0  0  0  0  0  0  0  0  0  0  0  0
   17.4902   47.4759  -55.1810 C   0  0  0  0  0  0  0  0  0  0  0  0
   17.2682   47.3900  -53.6972 O   0  0  0  0  0  0  0  0  0  0  0  0
   17.1859   45.0917  -55.3793 O   0  0  0  0  0  0  0  0  0  0  0  0
   17.4194   45.0287  -54.4399 H   0  0  0  0  0  0  0  0  0  0  0  0
   15.2250   46.9952  -52.2894 N   0  0  0  0  0  0  0  0  0  0  0  0
   14.1864   46.2257  -51.8287 C   0  0  0  0  0  0  0  0  0  0  0  0
   13.4263   46.7769  -50.8132 N   0  0  0  0  0  0  0  0  0  0  0  0
   13.6988   48.0050  -50.3005 C   0  0  0  0  0  0  0  0  0  0  0  0
   14.7736   48.7671  -50.7942 C   0  0  0  0  0  0  0  0  0  0  0  0
   15.5187   48.1949  -51.8136 C   0  0  0  0  0  0  0  0  0  0  0  0
   13.9576   45.1060  -52.2734 O   0  0  0  0  0  0  0  0  0  0  0  0
   12.9812   48.5137  -49.3218 N   0  0  0  0  0  0  0  0  0  0  0  0
   12.2221   48.0068  -48.9531 H   0  0  0  0  0  0  0  0  0  0  0  0
   13.2035   49.4012  -48.9583 H   0  0  0  0  0  0  0  0  0  0  0  0
   17.0268   48.8299  -55.7289 C   0  0  0  0  0  0  0  0  0  0  0  0
   16.9934   48.7134  -57.1816 O   0  0  0  0  0  0  0  0  0  0  0  0
   15.9459   49.3494  -58.1519 P   0  0  0  0  0  0  0  0  0  0  0  0
   16.3463   49.1799  -59.5703 O   0  0  0  0  0  0  0  0  0  0  0  0
   14.7168   48.5903  -57.9252 O   0  0  0  0  0  0  0  0  0  0  0  0
   15.7630   50.8149  -57.9266 O   0  0  0  0  0  0  0  0  0  0  0  0
   14.8849   47.6481  -58.0832 H   0  0  0  0  0  0  0  0  0  0  0  0
   16.6019   51.2742  -58.0885 H   0  0  0  0  0  0  0  0  0  0  0  0
  8  9  1  0  0  0
  8 13  1  0  0  0
  8  1  1  0  0  0
  9 10  1  0  0  0
  9 14  2  0  0  0
 10 11  2  0  0  0
 11 12  1  0  0  0
 11 15  1  0  0  0
 12 13  2  0  0  0
  1  2  1  0  0  0
  1  5  1  0  0  0
  2  3  1  0  0  0
  3  4  1  0  0  0
  3  6  1  0  0  0
  4  5  1  0  0  0
  4 18  1  0  0  0
 18 19  1  0  0  0
 19 20  1  0  0  0
 20 21  2  0  0  0
 20 22  1  0  0  0
 20 23  1  0  0  0
 15 16  1  0  0  0
 15 17  1  0  0  0
  6  7  1  0  0  0
 22 24  1  0  0  0
 23 25  1  0  0  0
M  END
> <minimizedAffinity>
-8.29844

$$$$
1NJA_DCM_A_317


 25 26  0  0  0  0  0  0  0  0999 V2000
   17.5436   46.2414  -53.3845 C   0  0  0  0  0  0  0  0  0  0  0  0
   16.0956   46.7204  -53.3983 C   0  0  0  0  0  0  0  0  0  0  0  0
   15.7464   46.4013  -54.8408 C   0  0  0  0  0  0  0  0  0  0  0  0
   16.9089   46.9443  -55.6828 C   0  0  0  0  0  0  0  0  0  0  0  0
   18.0436   46.6231  -54.7514 O   0  0  0  0  0  0  0  0  0  0  0  0
   15.7402   44.9599  -54.9669 O   0  0  0  0  0  0  0  0  0  0  0  0
   16.6003   44.6074  -54.6897 H   0  0  0  0  0  0  0  0  0  0  0  0
   18.2940   46.7296  -52.2537 N   0  0  0  0  0  0  0  0  0  0  0  0
   19.4703   46.1354  -51.8710 C   0  0  0  0  0  0  0  0  0  0  0  0
   20.0852   46.6702  -50.7536 N   0  0  0  0  0  0  0  0  0  0  0  0
   19.5562   47.7254  -50.0811 C   0  0  0  0  0  0  0  0  0  0  0  0
   18.3492   48.3132  -50.5021 C   0  0  0  0  0  0  0  0  0  0  0  0
   17.7503   47.7580  -51.6223 C   0  0  0  0  0  0  0  0  0  0  0  0
   19.9611   45.2004  -52.4944 O   0  0  0  0  0  0  0  0  0  0  0  0
   20.1578   48.2392  -49.0297 N   0  0  0  0  0  0  0  0  0  0  0  0
   21.0041   47.8520  -48.7086 H   0  0  0  0  0  0  0  0  0  0  0  0
   19.7617   49.0109  -48.5641 H   0  0  0  0  0  0  0  0  0  0  0  0
   16.7686   48.4578  -55.8771 C   0  0  0  0  0  0  0  0  0  0  0  0
   16.9425   48.7231  -57.3000 O   0  0  0  0  0  0  0  0  0  0  0  0
   15.8987   49.3639  -58.2712 P   0  0  0  0  0  0  0  0  0  0  0  0
   16.3049   49.2020  -59.6888 O   0  0  0  0  0  0  0  0  0  0  0  0
   14.6689   48.6032  -58.0535 O   0  0  0  0  0  0  0  0  0  0  0  0
   15.7144   50.8282  -58.0390 O   0  0  0  0  0  0  0  0  0  0  0  0
   14.8380   47.6619  -58.2157 H   0  0  0  0  0  0  0  0  0  0  0  0
   16.5538   51.2885  -58.1950 H   0  0  0  0  0  0  0  0  0  0  0  0
  8  9  1  0  0  0
  8 13  1  0  0  0
  8  1  1  0  0  0
  9 10  1  0  0  0
  9 14  2  0  0  0
 10 11  2  0  0  0
 11 12  1  0  0  0
 11 15  1  0  0  0
 12 13  2  0  0  0
  1  2  1  0  0  0
  1  5  1  0  0  0
  2  3  1  0  0  0
  3  4  1  0  0  0
  3  6  1  0  0  0
  4  5  1  0  0  0
  4 18  1  0  0  0
 18 19  1  0  0  0
 19 20  1  0  0  0
 20 21  2  0  0  0
 20 22  1  0  0  0
 20 23  1  0  0  0
 15 16  1  0  0  0
 15 17  1  0  0  0
  6  7  1  0  0  0
 22 24  1  0  0  0
 23 25  1  0  0  0
M  END
> <minimizedAffinity>
-8.08431

$$$$
1NJA_DCM_A_317


 25 26  0  0  0  0  0  0  0  0999 V2000
   18.2788   46.9744  -53.6887 C   0  0  0  0  0  0  0  0  0  0  0  0
   18.4692   48.0749  -52.6500 C   0  0  0  0  0  0  0  0  0  0  0  0
   18.9617   47.2316  -51.4879 C   0  0  0  0  0  0  0  0  0  0  0  0
   18.0045   46.0351  -51.4036 C   0  0  0  0  0  0  0  0  0  0  0  0
   17.7715   45.8168  -52.8721 O   0  0  0  0  0  0  0  0  0  0  0  0
   20.2697   46.7310  -51.8514 O   0  0  0  0  0  0  0  0  0  0  0  0
   20.2078   46.2412  -52.6863 H   0  0  0  0  0  0  0  0  0  0  0  0
   17.4731   47.3850  -54.8122 N   0  0  0  0  0  0  0  0  0  0  0  0
   16.8908   46.4622  -55.6445 C   0  0  0  0  0  0  0  0  0  0  0  0
   16.1671   46.9738  -56.7063 N   0  0  0  0  0  0  0  0  0  0  0  0
   16.0374   48.3111  -56.9066 C   0  0  0  0  0  0  0  0  0  0  0  0
   16.6456   49.2305  -56.0322 C   0  0  0  0  0  0  0  0  0  0  0  0
   17.3678   48.6940  -54.9775 C   0  0  0  0  0  0  0  0  0  0  0  0
   16.9856   45.2556  -55.4477 O   0  0  0  0  0  0  0  0  0  0  0  0
   15.3317   48.7887  -57.9092 N   0  0  0  0  0  0  0  0  0  0  0  0
   14.8929   48.1729  -58.5398 H   0  0  0  0  0  0  0  0  0  0  0  0
   15.2425   49.7618  -58.0289 H   0  0  0  0  0  0  0  0  0  0  0  0
   16.7065   46.4362  -50.6946 C   0  0  0  0  0  0  0  0  0  0  0  0
   15.7469   45.3626  -50.9222 O   0  0  0  0  0  0  0  0  0  0  0  0
   14.4260   45.4431  -51.7540 P   0  0  0  0  0  0  0  0  0  0  0  0
   13.7111   46.7210  -51.5159 O   0  0  0  0  0  0  0  0  0  0  0  0
   14.8604   45.4102  -53.1499 O   0  0  0  0  0  0  0  0  0  0  0  0
   13.4679   44.3444  -51.4270 O   0  0  0  0  0  0  0  0  0  0  0  0
   15.4787   46.1395  -53.3134 H   0  0  0  0  0  0  0  0  0  0  0  0
   13.2095   44.4077  -50.4941 H   0  0  0  0  0  0  0  0  0  0  0  0
  8  9  1  0  0  0
  8 13  1  0  0  0
  8  1  1  0  0  0
  9 10  1  0  0  0
  9 14  2  0  0  0
 10 11  2  0  0  0
 11 12  1  0  0  0
 11 15  1  0  0  0
 12 13  2  0  0  0
  1  2  1  0  0  0
  1  5  1  0  0  0
  2  3  1  0  0  0
  3  4  1  0  0  0
  3  6  1  0  0  0
  4  5  1  0  0  0
  4 18  1  0  0  0
 18 19  1  0  0  0
 19 20  1  0  0  0
 20 21  2  0  0  0
 20 22  1  0  0  0
 20 23  1  0  0  0
 15 16  1  0  0  0
 15 17  1  0  0  0
  6  7  1  0  0  0
 22 24  1  0  0  0
 23 25  1  0  0  0
M  END
> <minimizedAffinity>
-7.93601

$$$$
1NJA_DCM_A_317


 25 26  0  0  0  0  0  0  0  0999 V2000
   16.6118   46.1786  -52.9476 C   0  0  0  0  0  0  0  0  0  0  0  0
   15.5174   46.0762  -54.0050 C   0  0  0  0  0  0  0  0  0  0  0  0
   16.3685   46.2279  -55.2529 C   0  0  0  0  0  0  0  0  0  0  0  0
   17.2901   47.4260  -54.9878 C   0  0  0  0  0  0  0  0  0  0  0  0
   17.5513   47.2024  -53.5249 O   0  0  0  0  0  0  0  0  0  0  0  0
   17.1940   45.0436  -55.3499 O   0  0  0  0  0  0  0  0  0  0  0  0
   17.7135   44.9440  -54.5368 H   0  0  0  0  0  0  0  0  0  0  0  0
   16.1014   46.4328  -51.6227 N   0  0  0  0  0  0  0  0  0  0  0  0
   16.6774   45.8596  -50.5169 C   0  0  0  0  0  0  0  0  0  0  0  0
   16.0828   46.1513  -49.3027 N   0  0  0  0  0  0  0  0  0  0  0  0
   14.9969   46.9625  -49.2135 C   0  0  0  0  0  0  0  0  0  0  0  0
   14.4324   47.5364  -50.3676 C   0  0  0  0  0  0  0  0  0  0  0  0
   15.0438   47.2271  -51.5727 C   0  0  0  0  0  0  0  0  0  0  0  0
   17.6739   45.1493  -50.5953 O   0  0  0  0  0  0  0  0  0  0  0  0
   14.4490   47.2490  -48.0520 N   0  0  0  0  0  0  0  0  0  0  0  0
   14.8192   46.8643  -47.2248 H   0  0  0  0  0  0  0  0  0  0  0  0
   13.6688   47.8480  -48.0101 H   0  0  0  0  0  0  0  0  0  0  0  0
   16.5384   48.7415  -55.2174 C   0  0  0  0  0  0  0  0  0  0  0  0
   16.9333   49.2347  -56.5312 O   0  0  0  0  0  0  0  0  0  0  0  0
   16.0112   49.4296  -57.7782 P   0  0  0  0  0  0  0  0  0  0  0  0
   15.5442   50.8328  -57.8944 O   0  0  0  0  0  0  0  0  0  0  0  0
   16.8666   49.1312  -58.9262 O   0  0  0  0  0  0  0  0  0  0  0  0
   14.7903   48.5697  -57.7358 O   0  0  0  0  0  0  0  0  0  0  0  0
   17.6431   49.7124  -58.9105 H   0  0  0  0  0  0  0  0  0  0  0  0
   14.2568   48.8039  -56.9602 H   0  0  0  0  0  0  0  0  0  0  0  0
  8  9  1  0  0  0
  8 13  1  0  0  0
  8  1  1  0  0  0
  9 10  1  0  0  0
  9 14  2  0  0  0
 10 11  2  0  0  0
 11 12  1  0  0  0
 11 15  1  0  0  0
 12 13  2  0  0  0
  1  2  1  0  0  0
  1  5  1  0  0  0
  2  3  1  0  0  0
  3  4  1  0  0  0
  3  6  1  0  0  0
  4  5  1  0  0  0
  4 18  1  0  0  0
 18 19  1  0  0  0
 19 20  1  0  0  0
 20 21  2  0  0  0
 20 22  1  0  0  0
 20 23  1  0  0  0
 15 16  1  0  0  0
 15 17  1  0  0  0
  6  7  1  0  0  0
 22 24  1  0  0  0
 23 25  1  0  0  0
M  END
> <minimizedAffinity>
-7.86580

$$$$
1NJA_DCM_A_317


 25 26  0  0  0  0  0  0  0  0999 V2000
   14.2596   46.3098  -49.8383 C   0  0  0  0  0  0  0  0  0  0  0  0
   13.3900   46.6694  -51.0386 C   0  0  0  0  0  0  0  0  0  0  0  0
   14.0098   45.7484  -52.0740 C   0  0  0  0  0  0  0  0  0  0  0  0
   15.5277   45.9322  -51.9427 C   0  0  0  0  0  0  0  0  0  0  0  0
   15.6166   46.0930  -50.4511 O   0  0  0  0  0  0  0  0  0  0  0  0
   13.6896   44.3929  -51.6820 O   0  0  0  0  0  0  0  0  0  0  0  0
   14.0097   44.2329  -50.7804 H   0  0  0  0  0  0  0  0  0  0  0  0
   14.1726   47.2688  -48.7645 N   0  0  0  0  0  0  0  0  0  0  0  0
   13.3904   47.0326  -47.6620 C   0  0  0  0  0  0  0  0  0  0  0  0
   13.3608   48.0373  -46.7121 N   0  0  0  0  0  0  0  0  0  0  0  0
   14.0705   49.1859  -46.8621 C   0  0  0  0  0  0  0  0  0  0  0  0
   14.8652   49.3951  -48.0042 C   0  0  0  0  0  0  0  0  0  0  0  0
   14.8763   48.3755  -48.9434 C   0  0  0  0  0  0  0  0  0  0  0  0
   12.7715   45.9843  -47.5145 O   0  0  0  0  0  0  0  0  0  0  0  0
   14.0506   50.1286  -45.9443 N   0  0  0  0  0  0  0  0  0  0  0  0
   13.5050   50.0142  -45.1328 H   0  0  0  0  0  0  0  0  0  0  0  0
   14.5813   50.9484  -46.0691 H   0  0  0  0  0  0  0  0  0  0  0  0
   15.9770   47.2090  -52.6611 C   0  0  0  0  0  0  0  0  0  0  0  0
   16.9329   46.8078  -53.6860 O   0  0  0  0  0  0  0  0  0  0  0  0
   16.6100   46.1493  -55.0664 P   0  0  0  0  0  0  0  0  0  0  0  0
   17.3570   46.8037  -56.1684 O   0  0  0  0  0  0  0  0  0  0  0  0
   17.0826   44.7710  -54.9429 O   0  0  0  0  0  0  0  0  0  0  0  0
   15.1607   46.2275  -55.4205 O   0  0  0  0  0  0  0  0  0  0  0  0
   18.0250   44.7717  -54.7130 H   0  0  0  0  0  0  0  0  0  0  0  0
   14.8948   47.1577  -55.4908 H   0  0  0  0  0  0  0  0  0  0  0  0
  8  9  1  0  0  0
  8 13  1  0  0  0
  8  1  1  0  0  0
  9 10  1  0  0  0
  9 14  2  0  0  0
 10 11  2  0  0  0
 11 12  1  0  0  0
 11 15  1  0  0  0
 12 13  2  0  0  0
  1  2  1  0  0  0
  1  5  1  0  0  0
  2  3  1  0  0  0
  3  4  1  0  0  0
  3  6  1  0  0  0
  4  5  1  0  0  0
  4 18  1  0  0  0
 18 19  1  0  0  0
 19 20  1  0  0  0
 20 21  2  0  0  0
 20 22  1  0  0  0
 20 23  1  0  0  0
 15 16  1  0  0  0
 15 17  1  0  0  0
  6  7  1  0  0  0
 22 24  1  0  0  0
 23 25  1  0  0  0
M  END
> <minimizedAffinity>
-7.43952

$$$$
1NJA_DCM_A_317


 25 26  0  0  0  0  0  0  0  0999 V2000
   17.4898   46.2340  -52.7669 C   0  0  0  0  0  0  0  0  0  0  0  0
   18.2795   47.2930  -52.0045 C   0  0  0  0  0  0  0  0  0  0  0  0
   18.3222   46.6302  -50.6394 C   0  0  0  0  0  0  0  0  0  0  0  0
   16.8884   46.1625  -50.3560 C   0  0  0  0  0  0  0  0  0  0  0  0
   16.4985   45.7449  -51.7460 O   0  0  0  0  0  0  0  0  0  0  0  0
   19.1576   45.4554  -50.7642 O   0  0  0  0  0  0  0  0  0  0  0  0
   18.8059   44.8813  -51.4625 H   0  0  0  0  0  0  0  0  0  0  0  0
   16.9570   46.7126  -54.0188 N   0  0  0  0  0  0  0  0  0  0  0  0
   16.7963   45.8714  -55.0910 C   0  0  0  0  0  0  0  0  0  0  0  0
   16.3064   46.4494  -56.2481 N   0  0  0  0  0  0  0  0  0  0  0  0
   15.9978   47.7707  -56.3135 C   0  0  0  0  0  0  0  0  0  0  0  0
   16.1722   48.6052  -55.1941 C   0  0  0  0  0  0  0  0  0  0  0  0
   16.6671   48.0038  -54.0473 C   0  0  0  0  0  0  0  0  0  0  0  0
   17.0495   44.6735  -55.0232 O   0  0  0  0  0  0  0  0  0  0  0  0
   15.5150   48.3081  -57.4133 N   0  0  0  0  0  0  0  0  0  0  0  0
   15.3806   47.7524  -58.2148 H   0  0  0  0  0  0  0  0  0  0  0  0
   15.2882   49.2659  -57.4347 H   0  0  0  0  0  0  0  0  0  0  0  0
   16.0281   47.3348  -49.8724 C   0  0  0  0  0  0  0  0  0  0  0  0
   14.7869   47.2964  -50.6360 O   0  0  0  0  0  0  0  0  0  0  0  0
   13.3370   47.4855  -50.0835 P   0  0  0  0  0  0  0  0  0  0  0  0
   12.3753   46.5818  -50.7612 O   0  0  0  0  0  0  0  0  0  0  0  0
   13.4200   47.0992  -48.6755 O   0  0  0  0  0  0  0  0  0  0  0  0
   12.8246   48.8770  -50.2657 O   0  0  0  0  0  0  0  0  0  0  0  0
   13.7563   46.1919  -48.6085 H   0  0  0  0  0  0  0  0  0  0  0  0
   12.7876   49.0865  -51.2121 H   0  0  0  0  0  0  0  0  0  0  0  0
  8  9  1  0  0  0
  8 13  1  0  0  0
  8  1  1  0  0  0
  9 10  1  0  0  0
  9 14  2  0  0  0
 10 11  2  0  0  0
 11 12  1  0  0  0
 11 15  1  0  0  0
 12 13  2  0  0  0
  1  2  1  0  0  0
  1  5  1  0  0  0
  2  3  1  0  0  0
  3  4  1  0  0  0
  3  6  1  0  0  0
  4  5  1  0  0  0
  4 18  1  0  0  0
 18 19  1  0  0  0
 19 20  1  0  0  0
 20 21  2  0  0  0
 20 22  1  0  0  0
 20 23  1  0  0  0
 15 16  1  0  0  0
 15 17  1  0  0  0
  6  7  1  0  0  0
 22 24  1  0  0  0
 23 25  1  0  0  0
M  END
> <minimizedAffinity>
-7.38151

$$$$
1NJA_DCM_A_317


 25 26  0  0  0  0  0  0  0  0999 V2000
   15.0265   45.9860  -52.3264 C   0  0  0  0  0  0  0  0  0  0  0  0
   15.3375   45.6154  -50.8799 C   0  0  0  0  0  0  0  0  0  0  0  0
   13.9442   45.7410  -50.2906 C   0  0  0  0  0  0  0  0  0  0  0  0
   13.3908   47.0766  -50.8052 C   0  0  0  0  0  0  0  0  0  0  0  0
   13.9793   47.0575  -52.1879 O   0  0  0  0  0  0  0  0  0  0  0  0
   13.1449   44.6782  -50.8608 O   0  0  0  0  0  0  0  0  0  0  0  0
   13.1633   44.7434  -51.8285 H   0  0  0  0  0  0  0  0  0  0  0  0
   16.2017   46.3154  -53.0950 N   0  0  0  0  0  0  0  0  0  0  0  0
   16.4801   45.6765  -54.2771 C   0  0  0  0  0  0  0  0  0  0  0  0
   17.6506   46.0537  -54.9100 N   0  0  0  0  0  0  0  0  0  0  0  0
   18.4703   47.0052  -54.3922 C   0  0  0  0  0  0  0  0  0  0  0  0
   18.1535   47.6429  -53.1786 C   0  0  0  0  0  0  0  0  0  0  0  0
   16.9772   47.2460  -52.5616 C   0  0  0  0  0  0  0  0  0  0  0  0
   15.7262   44.8372  -54.7577 O   0  0  0  0  0  0  0  0  0  0  0  0
   19.5727   47.3706  -55.0107 N   0  0  0  0  0  0  0  0  0  0  0  0
   19.8239   46.9445  -55.8619 H   0  0  0  0  0  0  0  0  0  0  0  0
   20.1464   48.0700  -54.6222 H   0  0  0  0  0  0  0  0  0  0  0  0
   13.9534   48.2418  -49.9842 C   0  0  0  0  0  0  0  0  0  0  0  0
   13.7065   49.4594  -50.7470 O   0  0  0  0  0  0  0  0  0  0  0  0
   12.7615   50.6404  -50.3526 P   0  0  0  0  0  0  0  0  0  0  0  0
   12.2951   51.3853  -51.5477 O   0  0  0  0  0  0  0  0  0  0  0  0
   11.6049   50.0009  -49.7267 O   0  0  0  0  0  0  0  0  0  0  0  0
   13.4214   51.6347  -49.4538 O   0  0  0  0  0  0  0  0  0  0  0  0
   11.2117   49.3664  -50.3461 H   0  0  0  0  0  0  0  0  0  0  0  0
   14.1798   52.0305  -49.9111 H   0  0  0  0  0  0  0  0  0  0  0  0
  8  9  1  0  0  0
  8 13  1  0  0  0
  8  1  1  0  0  0
  9 10  1  0  0  0
  9 14  2  0  0  0
 10 11  2  0  0  0
 11 12  1  0  0  0
 11 15  1  0  0  0
 12 13  2  0  0  0
  1  2  1  0  0  0
  1  5  1  0  0  0
  2  3  1  0  0  0
  3  4  1  0  0  0
  3  6  1  0  0  0
  4  5  1  0  0  0
  4 18  1  0  0  0
 18 19  1  0  0  0
 19 20  1  0  0  0
 20 21  2  0  0  0
 20 22  1  0  0  0
 20 23  1  0  0  0
 15 16  1  0  0  0
 15 17  1  0  0  0
  6  7  1  0  0  0
 22 24  1  0  0  0
 23 25  1  0  0  0
M  END
> <minimizedAffinity>
-7.21688

$$$$
1NJA_DCM_A_317


 25 26  0  0  0  0  0  0  0  0999 V2000
   17.7796   46.4390  -52.8873 C   0  0  0  0  0  0  0  0  0  0  0  0
   19.1790   47.0220  -52.7203 C   0  0  0  0  0  0  0  0  0  0  0  0
   19.3770   46.7613  -51.2380 C   0  0  0  0  0  0  0  0  0  0  0  0
   18.0885   47.2370  -50.5535 C   0  0  0  0  0  0  0  0  0  0  0  0
   17.0965   46.8136  -51.6000 O   0  0  0  0  0  0  0  0  0  0  0  0
   19.4686   45.3273  -51.0680 O   0  0  0  0  0  0  0  0  0  0  0  0
   18.6738   44.9072  -51.4322 H   0  0  0  0  0  0  0  0  0  0  0  0
   17.1356   46.8462  -54.1120 N   0  0  0  0  0  0  0  0  0  0  0  0
   16.8603   45.9406  -55.1056 C   0  0  0  0  0  0  0  0  0  0  0  0
   16.2695   46.4522  -56.2467 N   0  0  0  0  0  0  0  0  0  0  0  0
   15.9750   47.7726  -56.3702 C   0  0  0  0  0  0  0  0  0  0  0  0
   16.2683   48.6742  -55.3306 C   0  0  0  0  0  0  0  0  0  0  0  0
   16.8628   48.1385  -54.1987 C   0  0  0  0  0  0  0  0  0  0  0  0
   17.1016   44.7446  -54.9825 O   0  0  0  0  0  0  0  0  0  0  0  0
   15.3962   48.2473  -57.4524 N   0  0  0  0  0  0  0  0  0  0  0  0
   15.1772   47.6436  -58.1987 H   0  0  0  0  0  0  0  0  0  0  0  0
   15.1822   49.2061  -57.5159 H   0  0  0  0  0  0  0  0  0  0  0  0
   18.0993   48.7607  -50.3906 C   0  0  0  0  0  0  0  0  0  0  0  0
   19.1867   49.0840  -49.4751 O   0  0  0  0  0  0  0  0  0  0  0  0
   19.4262   50.4442  -48.7431 P   0  0  0  0  0  0  0  0  0  0  0  0
   18.4411   51.4695  -49.1660 O   0  0  0  0  0  0  0  0  0  0  0  0
   19.2080   50.1504  -47.3272 O   0  0  0  0  0  0  0  0  0  0  0  0
   20.7823   51.0129  -49.0069 O   0  0  0  0  0  0  0  0  0  0  0  0
   18.3177   49.7848  -47.2064 H   0  0  0  0  0  0  0  0  0  0  0  0
   20.8794   51.1905  -49.9555 H   0  0  0  0  0  0  0  0  0  0  0  0
  8  9  1  0  0  0
  8 13  1  0  0  0
  8  1  1  0  0  0
  9 10  1  0  0  0
  9 14  2  0  0  0
 10 11  2  0  0  0
 11 12  1  0  0  0
 11 15  1  0  0  0
 12 13  2  0  0  0
  1  2  1  0  0  0
  1  5  1  0  0  0
  2  3  1  0  0  0
  3  4  1  0  0  0
  3  6  1  0  0  0
  4  5  1  0  0  0
  4 18  1  0  0  0
 18 19  1  0  0  0
 19 20  1  0  0  0
 20 21  2  0  0  0
 20 22  1  0  0  0
 20 23  1  0  0  0
 15 16  1  0  0  0
 15 17  1  0  0  0
  6  7  1  0  0  0
 22 24  1  0  0  0
 23 25  1  0  0  0
M  END
> <minimizedAffinity>
-6.99960

$$$$
1NJA_DCM_A_317


 25 26  0  0  0  0  0  0  0  0999 V2000
   18.5838   46.3702  -53.1852 C   0  0  0  0  0  0  0  0  0  0  0  0
   19.2457   47.5084  -52.4153 C   0  0  0  0  0  0  0  0  0  0  0  0
   19.8171   46.7170  -51.2526 C   0  0  0  0  0  0  0  0  0  0  0  0
   18.6802   45.8085  -50.7657 C   0  0  0  0  0  0  0  0  0  0  0  0
   18.0585   45.4780  -52.0934 O   0  0  0  0  0  0  0  0  0  0  0  0
   20.8637   45.8731  -51.7875 O   0  0  0  0  0  0  0  0  0  0  0  0
   20.5006   45.3161  -52.4938 H   0  0  0  0  0  0  0  0  0  0  0  0
   17.6345   46.8260  -54.1708 N   0  0  0  0  0  0  0  0  0  0  0  0
   17.0197   45.9463  -55.0259 C   0  0  0  0  0  0  0  0  0  0  0  0
   16.1527   46.5023  -55.9488 N   0  0  0  0  0  0  0  0  0  0  0  0
   15.9211   47.8399  -55.9987 C   0  0  0  0  0  0  0  0  0  0  0  0
   16.5664   48.7143  -55.1049 C   0  0  0  0  0  0  0  0  0  0  0  0
   17.4328   48.1340  -54.1914 C   0  0  0  0  0  0  0  0  0  0  0  0
   17.2085   44.7363  -54.9626 O   0  0  0  0  0  0  0  0  0  0  0  0
   15.0804   48.3580  -56.8684 N   0  0  0  0  0  0  0  0  0  0  0  0
   14.6120   47.7744  -57.5080 H   0  0  0  0  0  0  0  0  0  0  0  0
   14.9199   49.3293  -56.8793 H   0  0  0  0  0  0  0  0  0  0  0  0
   17.7058   46.5958  -49.8831 C   0  0  0  0  0  0  0  0  0  0  0  0
   17.2036   45.6721  -48.8732 O   0  0  0  0  0  0  0  0  0  0  0  0
   16.8563   46.0037  -47.3857 P   0  0  0  0  0  0  0  0  0  0  0  0
   17.4615   47.2895  -46.9602 O   0  0  0  0  0  0  0  0  0  0  0  0
   15.4013   46.1488  -47.3646 O   0  0  0  0  0  0  0  0  0  0  0  0
   17.3411   44.9611  -46.4317 O   0  0  0  0  0  0  0  0  0  0  0  0
   15.1356   46.8341  -47.9976 H   0  0  0  0  0  0  0  0  0  0  0  0
   18.3080   44.9018  -46.4815 H   0  0  0  0  0  0  0  0  0  0  0  0
  8  9  1  0  0  0
  8 13  1  0  0  0
  8  1  1  0  0  0
  9 10  1  0  0  0
  9 14  2  0  0  0
 10 11  2  0  0  0
 11 12  1  0  0  0
 11 15  1  0  0  0
 12 13  2  0  0  0
  1  2  1  0  0  0
  1  5  1  0  0  0
  2  3  1  0  0  0
  3  4  1  0  0  0
  3  6  1  0  0  0
  4  5  1  0  0  0
  4 18  1  0  0  0
 18 19  1  0  0  0
 19 20  1  0  0  0
 20 21  2  0  0  0
 20 22  1  0  0  0
 20 23  1  0  0  0
 15 16  1  0  0  0
 15 17  1  0  0  0
  6  7  1  0  0  0
 22 24  1  0  0  0
 23 25  1  0  0  0
M  END
> <minimizedAffinity>
-6.92972

$$$$
1NJA_DCM_A_317


 25 26  0  0  0  0  0  0  0  0999 V2000
   16.8558   46.1412  -52.5674 C   0  0  0  0  0  0  0  0  0  0  0  0
   17.5504   47.1076  -51.6137 C   0  0  0  0  0  0  0  0  0  0  0  0
   17.3886   46.3317  -50.3189 C   0  0  0  0  0  0  0  0  0  0  0  0
   15.9207   45.8863  -50.2784 C   0  0  0  0  0  0  0  0  0  0  0  0
   15.7220   45.5989  -51.7400 O   0  0  0  0  0  0  0  0  0  0  0  0
   18.2110   45.1463  -50.4292 O   0  0  0  0  0  0  0  0  0  0  0  0
   17.9501   44.6439  -51.2168 H   0  0  0  0  0  0  0  0  0  0  0  0
   16.5132   46.7392  -53.8344 N   0  0  0  0  0  0  0  0  0  0  0  0
   16.1560   45.9674  -54.9114 C   0  0  0  0  0  0  0  0  0  0  0  0
   15.8794   46.6498  -56.0822 N   0  0  0  0  0  0  0  0  0  0  0  0
   15.9521   48.0043  -56.1560 C   0  0  0  0  0  0  0  0  0  0  0  0
   16.3192   48.7661  -55.0314 C   0  0  0  0  0  0  0  0  0  0  0  0
   16.5944   48.0598  -53.8707 C   0  0  0  0  0  0  0  0  0  0  0  0
   16.0643   44.7469  -54.8368 O   0  0  0  0  0  0  0  0  0  0  0  0
   15.6694   48.6462  -57.2693 N   0  0  0  0  0  0  0  0  0  0  0  0
   15.4090   48.1435  -58.0748 H   0  0  0  0  0  0  0  0  0  0  0  0
   15.7184   49.6291  -57.2969 H   0  0  0  0  0  0  0  0  0  0  0  0
   15.0232   47.0399  -49.8179 C   0  0  0  0  0  0  0  0  0  0  0  0
   13.8443   46.4433  -49.2018 O   0  0  0  0  0  0  0  0  0  0  0  0
   13.4521   46.4832  -47.6892 P   0  0  0  0  0  0  0  0  0  0  0  0
   12.1844   45.7551  -47.4374 O   0  0  0  0  0  0  0  0  0  0  0  0
   14.5339   45.7773  -47.0037 O   0  0  0  0  0  0  0  0  0  0  0  0
   13.2613   47.8735  -47.1769 O   0  0  0  0  0  0  0  0  0  0  0  0
   14.6191   44.8829  -47.3693 H   0  0  0  0  0  0  0  0  0  0  0  0
   12.5361   48.2995  -47.6602 H   0  0  0  0  0  0  0  0  0  0  0  0
  8  9  1  0  0  0
  8 13  1  0  0  0
  8  1  1  0  0  0
  9 10  1  0  0  0
  9 14  2  0  0  0
 10 11  2  0  0  0
 11 12  1  0  0  0
 11 15  1  0  0  0
 12 13  2  0  0  0
  1  2  1  0  0  0
  1  5  1  0  0  0
  2  3  1  0  0  0
  3  4  1  0  0  0
  3  6  1  0  0  0
  4  5  1  0  0  0
  4 18  1  0  0  0
 18 19  1  0  0  0
 19 20  1  0  0  0
 20 21  2  0  0  0
 20 22  1  0  0  0
 20 23  1  0  0  0
 15 16  1  0  0  0
 15 17  1  0  0  0
  6  7  1  0  0  0
 22 24  1  0  0  0
 23 25  1  0  0  0
M  END
> <minimizedAffinity>
-6.86981

$$$$
