1NJA_DCM_A_317
  RCSB PDB12061703253D
Coordinates from PDB:1NJA:A:317 Model:1 without hydrogens
 20 21  0  0  0  0            999 V2000
   15.1840   46.7700  -52.4170   N 0  0  0  0  0  0  0  0  0  0  0  0
   14.3930   45.8310  -51.8040   C 0  0  0  0  0  0  0  0  0  0  0  0
   13.6130   46.2850  -50.7560   N 0  0  0  0  0  0  0  0  0  0  0  0
   13.6360   47.5830  -50.3560   C 0  0  0  0  0  0  0  0  0  0  0  0
   14.4610   48.5200  -51.0050   C 0  0  0  0  0  0  0  0  0  0  0  0
   15.2310   48.0420  -52.0540   C 0  0  0  0  0  0  0  0  0  0  0  0
   14.3930   44.6540  -52.1480   O 0  0  0  0  0  0  0  0  0  0  0  0
   12.9040   48.0020  -49.3460   N 0  0  0  0  0  0  0  0  0  0  0  0
   16.0180   46.4250  -53.5420   C 0  0  0  0  0  0  0  0  0  0  0  0
   15.2480   46.3280  -54.8550   C 0  0  0  0  0  0  0  0  0  0  0  0
   16.4140   46.3740  -55.8260   C 0  0  0  0  0  0  0  0  0  0  0  0
   17.3030   47.5340  -55.3580   C 0  0  0  0  0  0  0  0  0  0  0  0
   17.1420   47.3690  -53.8730   O 0  0  0  0  0  0  0  0  0  0  0  0
   17.1580   45.1450  -55.6540   O 0  0  0  0  0  0  0  0  0  0  0  0
   16.7270   48.8740  -55.8280   C 0  0  0  0  0  0  0  0  0  0  0  0
   16.9780   48.9670  -57.2610   O 0  0  0  0  0  0  0  0  0  0  0  0
   15.9390   49.3110  -58.3770   P 0  0  0  0  0  0  0  0  0  0  0  0
   16.4890   49.0510  -59.7300   O 0  0  0  0  0  0  0  0  0  0  0  0
   14.8250   48.3920  -58.1470   O 0  0  0  0  0  0  0  0  0  0  0  0
   15.5140   50.7430  -58.3510   O 0  0  0  0  0  0  0  0  0  0  0  0
  1  2  1  0  0  0  0
  1  6  1  0  0  0  0
  1  9  1  0  0  0  0
  2  3  1  0  0  0  0
  2  7  2  0  0  0  0
  3  4  2  0  0  0  0
  4  5  1  0  0  0  0
  4  8  1  0  0  0  0
  5  6  2  0  0  0  0
  9 10  1  0  0  0  0
  9 13  1  0  0  0  0
 10 11  1  0  0  0  0
 11 12  1  0  0  0  0
 11 14  1  0  0  0  0
 12 13  1  0  0  0  0
 12 15  1  0  0  0  0
 15 16  1  0  0  0  0
 16 17  1  0  0  0  0
 17 18  2  0  0  0  0
 17 19  1  0  0  0  0
 17 20  1  0  0  0  0
A    1
N1
A    2
C2
A    3
N3
A    4
C4
A    5
C5
A    6
C6
A    7
O2
A    8
N4
A    9
C1'
A   10
C2'
A   11
C3'
A   12
C4'
A   13
O4'
A   14
O3'
A   15
C5'
A   16
O5'
A   17
P
A   18
O1P
A   19
O2P
A   20
O3P
M  END
>  <InstanceId>
1NJA_DCM_A_317

>  <ChemCompId>
DCM

>  <PdbId>
1NJA

>  <ChainId>
A

>  <ResidueNumber>
317

>  <InsertionCode>


>  <Model>
1

>  <AltIds>


>  <MissingHeavyAtoms>
0

>  <ObservedFormula>
C9 N3 O7 P

>  <Name>
2'-DEOXYCYTIDINE-5'-MONOPHOSPHATE

>  <SystematicName>
[(2R,3S,5R)-5-(4-amino-2-oxo-pyrimidin-1-yl)-3-hydroxy-oxolan-2-yl]methyl dihydrogen phosphate

>  <Synonyms>


>  <Type>
NON-POLYMER

>  <Formula>
C9 H14 N3 O7 P

>  <MolecularWeight>
307.197

>  <ModifiedDate>
2011-06-04

>  <Parent>


>  <OneLetterCode>


>  <SubcomponentList>


>  <AmbiguousFlag>
N

>  <InChI>
InChI=1S/C9H14N3O7P/c10-7-1-2-12(9(14)11-7)8-3-5(13)6(19-8)4-18-20(15,16)17/h1-2,5-6,8,13H,3-4H2,(H2,10,11,14)(H2,15,16,17)/t5-,6+,8+/m0/s1

>  <InChIKey>
NCMVOABPESMRCP-SHYZEUOFSA-N

>  <SMILES>
C1[C@@H]([C@H](O[C@H]1N2C=CC(=NC2=O)N)COP(=O)(O)O)O

$$$$
