5KR0_478_A_101


 39 41  0  0  0  0  0  0  0  0999 V2000
  -17.6977   13.7120  -19.2437 C   0  0  0  0  0  0  0  0  0  0  0  0
  -18.0890   14.7674  -18.4401 O   0  0  0  0  0  0  0  0  0  0  0  0
  -17.3061   15.1757  -18.0386 H   0  0  0  0  0  0  0  0  0  0  0  0
  -16.8070   14.2421  -20.3457 C   0  0  0  0  0  0  0  0  0  0  0  0
  -17.7499   14.9379  -22.5369 C   0  0  0  0  0  0  0  0  0  0  0  0
  -17.5742   15.1265  -21.1432 N   0  0  0  0  0  0  0  0  0  0  0  0
  -17.4488   13.9070  -23.0862 O   0  0  0  0  0  0  0  0  0  0  0  0
  -18.0018   15.9018  -20.7129 H   0  0  0  0  0  0  0  0  0  0  0  0
  -18.3277   16.0366  -23.2791 O   0  0  0  0  0  0  0  0  0  0  0  0
  -18.7495   17.1054  -25.4093 C   0  0  0  0  0  0  0  0  0  0  0  0
  -19.9938   15.3614  -24.6281 C   0  0  0  0  0  0  0  0  0  0  0  0
  -18.7484   15.7427  -24.6427 C   0  0  0  0  0  0  0  0  0  0  0  0
  -20.9019   16.6925  -24.9161 C   0  0  0  0  0  0  0  0  0  0  0  0
  -20.0764   17.7215  -24.9474 O   0  0  0  0  0  0  0  0  0  0  0  0
  -15.6249   15.0613  -19.7860 C   0  0  0  0  0  0  0  0  0  0  0  0
  -14.6711   15.3780  -20.9488 C   0  0  0  0  0  0  0  0  0  0  0  0
  -14.6223   16.6740  -21.4994 C   0  0  0  0  0  0  0  0  0  0  0  0
  -13.8730   14.3854  -21.4654 C   0  0  0  0  0  0  0  0  0  0  0  0
  -13.7630   16.9437  -22.5477 C   0  0  0  0  0  0  0  0  0  0  0  0
  -13.0115   14.6687  -22.5269 C   0  0  0  0  0  0  0  0  0  0  0  0
  -12.9609   15.9499  -23.0651 C   0  0  0  0  0  0  0  0  0  0  0  0
  -16.9810   12.6517  -18.3687 C   0  0  0  0  0  0  0  0  0  0  0  0
  -17.1013   11.3192  -18.9374 N   0  0  0  0  0  0  0  0  0  0  0  0
  -14.7450   11.5092  -19.9547 O   0  0  0  0  0  0  0  0  0  0  0  0
  -15.9489    9.5693  -20.3718 O   0  0  0  0  0  0  0  0  0  0  0  0
  -15.6722   10.5587  -19.3998 S   0  0  0  0  0  0  0  0  0  0  0  0
  -14.9183    9.8221  -17.9406 C   0  0  0  0  0  0  0  0  0  0  0  0
  -14.2068   10.6757  -17.0931 C   0  0  0  0  0  0  0  0  0  0  0  0
  -13.6113   10.1730  -15.9427 C   0  0  0  0  0  0  0  0  0  0  0  0
  -13.7279    8.8100  -15.6438 C   0  0  0  0  0  0  0  0  0  0  0  0
  -14.4385    7.9508  -16.4887 C   0  0  0  0  0  0  0  0  0  0  0  0
  -15.0443    8.4552  -17.6576 C   0  0  0  0  0  0  0  0  0  0  0  0
  -13.0911    8.3156  -14.4395 N   0  0  0  0  0  0  0  0  0  0  0  0
  -12.5948    8.9337  -13.8557 H   0  0  0  0  0  0  0  0  0  0  0  0
  -13.1550    7.3615  -14.2051 H   0  0  0  0  0  0  0  0  0  0  0  0
  -18.1751   10.4348  -18.4753 C   0  0  0  0  0  0  0  0  0  0  0  0
  -19.5341   10.6181  -19.2321 C   0  0  0  0  0  0  0  0  0  0  0  0
  -19.4075   10.1855  -20.6684 C   0  0  0  0  0  0  0  0  0  0  0  0
  -20.5529    9.7103  -18.5618 C   0  0  0  0  0  0  0  0  0  0  0  0
 10 12  1  0  0  0
 10 14  1  0  0  0
 11 12  1  0  0  0
 11 13  1  0  0  0
  5  6  1  0  0  0
  5  9  1  0  0  0
  5  7  2  0  0  0
 12  9  1  0  0  0
  4  1  1  0  0  0
  4 15  1  0  0  0
  4  6  1  0  0  0
  1 22  1  0  0  0
  1  2  1  0  0  0
 15 16  1  0  0  0
 16 17  2  0  0  0
 16 18  1  0  0  0
 17 19  1  0  0  0
 18 20  2  0  0  0
 19 21  2  0  0  0
 20 21  1  0  0  0
 22 23  1  0  0  0
 36 37  1  0  0  0
 36 23  1  0  0  0
 37 38  1  0  0  0
 37 39  1  0  0  0
 27 28  2  0  0  0
 27 32  1  0  0  0
 27 26  1  0  0  0
 28 29  1  0  0  0
 29 30  2  0  0  0
 30 31  1  0  0  0
 30 33  1  0  0  0
 31 32  2  0  0  0
 13 14  1  0  0  0
 23 26  1  0  0  0
 24 26  2  0  0  0
 25 26  2  0  0  0
  6  8  1  0  0  0
 33 34  1  0  0  0
 33 35  1  0  0  0
  2  3  1  0  0  0
M  END
> <minimizedAffinity>
-9.26227

$$$$
5KR0_478_A_101


 39 41  0  0  0  0  0  0  0  0999 V2000
  -18.2651   12.1375  -20.2580 C   0  0  0  0  0  0  0  0  0  0  0  0
  -19.5603   12.6190  -20.3138 O   0  0  0  0  0  0  0  0  0  0  0  0
  -19.6418   13.3954  -19.7381 H   0  0  0  0  0  0  0  0  0  0  0  0
  -17.3233   13.2121  -20.7552 C   0  0  0  0  0  0  0  0  0  0  0  0
  -17.7729   14.7536  -22.6515 C   0  0  0  0  0  0  0  0  0  0  0  0
  -18.0981   14.2206  -21.3791 N   0  0  0  0  0  0  0  0  0  0  0  0
  -16.9577   14.2347  -23.3734 O   0  0  0  0  0  0  0  0  0  0  0  0
  -18.8929   14.5645  -20.9109 H   0  0  0  0  0  0  0  0  0  0  0  0
  -18.4788   15.9476  -23.0616 O   0  0  0  0  0  0  0  0  0  0  0  0
  -18.6308   17.8052  -24.6057 C   0  0  0  0  0  0  0  0  0  0  0  0
  -19.5057   15.7469  -25.0508 C   0  0  0  0  0  0  0  0  0  0  0  0
  -18.4491   16.2570  -24.4851 C   0  0  0  0  0  0  0  0  0  0  0  0
  -20.6409   16.9257  -25.0877 C   0  0  0  0  0  0  0  0  0  0  0  0
  -20.1470   17.9557  -24.4271 O   0  0  0  0  0  0  0  0  0  0  0  0
  -16.5616   13.8903  -19.5970 C   0  0  0  0  0  0  0  0  0  0  0  0
  -15.1802   14.3161  -20.1193 C   0  0  0  0  0  0  0  0  0  0  0  0
  -14.3534   13.3913  -20.7873 C   0  0  0  0  0  0  0  0  0  0  0  0
  -14.7426   15.6034  -19.9180 C   0  0  0  0  0  0  0  0  0  0  0  0
  -13.1118   13.7868  -21.2480 C   0  0  0  0  0  0  0  0  0  0  0  0
  -13.4849   15.9904  -20.3845 C   0  0  0  0  0  0  0  0  0  0  0  0
  -12.6728   15.0775  -21.0485 C   0  0  0  0  0  0  0  0  0  0  0  0
  -17.9497   11.7084  -18.8020 C   0  0  0  0  0  0  0  0  0  0  0  0
  -17.7308   10.2747  -18.7026 N   0  0  0  0  0  0  0  0  0  0  0  0
  -19.2605    8.7428  -20.0940 O   0  0  0  0  0  0  0  0  0  0  0  0
  -20.2463   10.0440  -18.4443 O   0  0  0  0  0  0  0  0  0  0  0  0
  -19.0953    9.2911  -18.7738 S   0  0  0  0  0  0  0  0  0  0  0  0
  -18.8774    7.9265  -17.6202 C   0  0  0  0  0  0  0  0  0  0  0  0
  -19.3395    6.6714  -18.0256 C   0  0  0  0  0  0  0  0  0  0  0  0
  -19.1904    5.5733  -17.1873 C   0  0  0  0  0  0  0  0  0  0  0  0
  -18.5788    5.7360  -15.9383 C   0  0  0  0  0  0  0  0  0  0  0  0
  -18.1147    6.9900  -15.5270 C   0  0  0  0  0  0  0  0  0  0  0  0
  -18.2639    8.1078  -16.3732 C   0  0  0  0  0  0  0  0  0  0  0  0
  -18.4428    4.5724  -15.0850 N   0  0  0  0  0  0  0  0  0  0  0  0
  -18.7748    3.6971  -15.3896 H   0  0  0  0  0  0  0  0  0  0  0  0
  -18.0185    4.6574  -14.2007 H   0  0  0  0  0  0  0  0  0  0  0  0
  -16.4975    9.6967  -19.2447 C   0  0  0  0  0  0  0  0  0  0  0  0
  -15.3599    9.4931  -18.1874 C   0  0  0  0  0  0  0  0  0  0  0  0
  -14.4630    8.3504  -18.5823 C   0  0  0  0  0  0  0  0  0  0  0  0
  -14.5197   10.7600  -18.1751 C   0  0  0  0  0  0  0  0  0  0  0  0
 10 12  1  0  0  0
 10 14  1  0  0  0
 11 12  1  0  0  0
 11 13  1  0  0  0
  5  6  1  0  0  0
  5  9  1  0  0  0
  5  7  2  0  0  0
 12  9  1  0  0  0
  4  1  1  0  0  0
  4 15  1  0  0  0
  4  6  1  0  0  0
  1 22  1  0  0  0
  1  2  1  0  0  0
 15 16  1  0  0  0
 16 17  2  0  0  0
 16 18  1  0  0  0
 17 19  1  0  0  0
 18 20  2  0  0  0
 19 21  2  0  0  0
 20 21  1  0  0  0
 22 23  1  0  0  0
 36 37  1  0  0  0
 36 23  1  0  0  0
 37 38  1  0  0  0
 37 39  1  0  0  0
 27 28  2  0  0  0
 27 32  1  0  0  0
 27 26  1  0  0  0
 28 29  1  0  0  0
 29 30  2  0  0  0
 30 31  1  0  0  0
 30 33  1  0  0  0
 31 32  2  0  0  0
 13 14  1  0  0  0
 23 26  1  0  0  0
 24 26  2  0  0  0
 25 26  2  0  0  0
  6  8  1  0  0  0
 33 34  1  0  0  0
 33 35  1  0  0  0
  2  3  1  0  0  0
M  END
> <minimizedAffinity>
-9.21757

$$$$
5KR0_478_A_101


 39 41  0  0  0  0  0  0  0  0999 V2000
  -14.8219   12.8001  -20.5024 C   0  0  0  0  0  0  0  0  0  0  0  0
  -13.4725   12.8714  -20.2080 O   0  0  0  0  0  0  0  0  0  0  0  0
  -13.3514   13.3068  -19.3497 H   0  0  0  0  0  0  0  0  0  0  0  0
  -15.5106   11.9751  -19.4375 C   0  0  0  0  0  0  0  0  0  0  0  0
  -17.7662   12.3358  -18.4594 C   0  0  0  0  0  0  0  0  0  0  0  0
  -16.9084   12.1605  -19.5740 N   0  0  0  0  0  0  0  0  0  0  0  0
  -17.3404   12.5589  -17.3531 O   0  0  0  0  0  0  0  0  0  0  0  0
  -17.2989   12.1678  -20.4776 H   0  0  0  0  0  0  0  0  0  0  0  0
  -19.1887   12.2535  -18.7080 O   0  0  0  0  0  0  0  0  0  0  0  0
  -18.7226    9.8951  -18.9879 C   0  0  0  0  0  0  0  0  0  0  0  0
  -20.7689   10.8130  -19.4003 C   0  0  0  0  0  0  0  0  0  0  0  0
  -19.7970   10.9400  -18.5425 C   0  0  0  0  0  0  0  0  0  0  0  0
  -20.1461   10.0666  -20.7172 C   0  0  0  0  0  0  0  0  0  0  0  0
  -18.8470    9.9525  -20.5159 O   0  0  0  0  0  0  0  0  0  0  0  0
  -15.2434   10.4657  -19.6168 C   0  0  0  0  0  0  0  0  0  0  0  0
  -14.7311    9.9097  -18.2786 C   0  0  0  0  0  0  0  0  0  0  0  0
  -14.8220    8.5324  -17.9961 C   0  0  0  0  0  0  0  0  0  0  0  0
  -14.1962   10.7652  -17.3453 C   0  0  0  0  0  0  0  0  0  0  0  0
  -14.3612    8.0468  -16.7869 C   0  0  0  0  0  0  0  0  0  0  0  0
  -13.7373   10.2637  -16.1257 C   0  0  0  0  0  0  0  0  0  0  0  0
  -13.8230    8.9031  -15.8512 C   0  0  0  0  0  0  0  0  0  0  0  0
  -15.3942   14.2381  -20.5924 C   0  0  0  0  0  0  0  0  0  0  0  0
  -15.9897   14.4961  -21.8933 N   0  0  0  0  0  0  0  0  0  0  0  0
  -18.2698   14.8678  -20.7594 O   0  0  0  0  0  0  0  0  0  0  0  0
  -18.0758   13.0905  -22.2394 O   0  0  0  0  0  0  0  0  0  0  0  0
  -17.6689   14.4216  -21.9885 S   0  0  0  0  0  0  0  0  0  0  0  0
  -18.2156   15.5129  -23.3116 C   0  0  0  0  0  0  0  0  0  0  0  0
  -18.9413   14.9324  -24.3554 C   0  0  0  0  0  0  0  0  0  0  0  0
  -19.4037   15.7214  -25.4016 C   0  0  0  0  0  0  0  0  0  0  0  0
  -19.1347   17.0955  -25.4014 C   0  0  0  0  0  0  0  0  0  0  0  0
  -18.4084   17.6820  -24.3595 C   0  0  0  0  0  0  0  0  0  0  0  0
  -17.9362   16.8862  -23.2957 C   0  0  0  0  0  0  0  0  0  0  0  0
  -19.6262   17.8902  -26.5092 N   0  0  0  0  0  0  0  0  0  0  0  0
  -20.1358   17.4618  -27.2344 H   0  0  0  0  0  0  0  0  0  0  0  0
  -19.4505   18.8586  -26.5364 H   0  0  0  0  0  0  0  0  0  0  0  0
  -15.3392   15.4401  -22.8069 C   0  0  0  0  0  0  0  0  0  0  0  0
  -13.9648   15.9910  -22.2962 C   0  0  0  0  0  0  0  0  0  0  0  0
  -12.9234   15.9149  -23.3805 C   0  0  0  0  0  0  0  0  0  0  0  0
  -14.1650   17.4570  -21.9468 C   0  0  0  0  0  0  0  0  0  0  0  0
 10 12  1  0  0  0
 10 14  1  0  0  0
 11 12  1  0  0  0
 11 13  1  0  0  0
  5  6  1  0  0  0
  5  9  1  0  0  0
  5  7  2  0  0  0
 12  9  1  0  0  0
  4  1  1  0  0  0
  4 15  1  0  0  0
  4  6  1  0  0  0
  1 22  1  0  0  0
  1  2  1  0  0  0
 15 16  1  0  0  0
 16 17  2  0  0  0
 16 18  1  0  0  0
 17 19  1  0  0  0
 18 20  2  0  0  0
 19 21  2  0  0  0
 20 21  1  0  0  0
 22 23  1  0  0  0
 36 37  1  0  0  0
 36 23  1  0  0  0
 37 38  1  0  0  0
 37 39  1  0  0  0
 27 28  2  0  0  0
 27 32  1  0  0  0
 27 26  1  0  0  0
 28 29  1  0  0  0
 29 30  2  0  0  0
 30 31  1  0  0  0
 30 33  1  0  0  0
 31 32  2  0  0  0
 13 14  1  0  0  0
 23 26  1  0  0  0
 24 26  2  0  0  0
 25 26  2  0  0  0
  6  8  1  0  0  0
 33 34  1  0  0  0
 33 35  1  0  0  0
  2  3  1  0  0  0
M  END
> <minimizedAffinity>
-9.08212

$$$$
5KR0_478_A_101


 39 41  0  0  0  0  0  0  0  0999 V2000
  -18.2072   13.0780  -18.8733 C   0  0  0  0  0  0  0  0  0  0  0  0
  -18.2411   13.8749  -17.7435 O   0  0  0  0  0  0  0  0  0  0  0  0
  -17.3394   13.9993  -17.4084 H   0  0  0  0  0  0  0  0  0  0  0  0
  -17.3855   13.7735  -19.9363 C   0  0  0  0  0  0  0  0  0  0  0  0
  -18.0682   14.5801  -22.1852 C   0  0  0  0  0  0  0  0  0  0  0  0
  -18.2729   14.4780  -20.7865 N   0  0  0  0  0  0  0  0  0  0  0  0
  -17.2605   13.8973  -22.7653 O   0  0  0  0  0  0  0  0  0  0  0  0
  -19.0621   14.9134  -20.3905 H   0  0  0  0  0  0  0  0  0  0  0  0
  -18.8884   15.5334  -22.8996 O   0  0  0  0  0  0  0  0  0  0  0  0
  -18.3276   17.5235  -24.1576 C   0  0  0  0  0  0  0  0  0  0  0  0
  -19.2884   15.6857  -25.1061 C   0  0  0  0  0  0  0  0  0  0  0  0
  -18.3932   15.9620  -24.2011 C   0  0  0  0  0  0  0  0  0  0  0  0
  -20.1970   17.0330  -25.3027 C   0  0  0  0  0  0  0  0  0  0  0  0
  -19.7946   17.9036  -24.3965 O   0  0  0  0  0  0  0  0  0  0  0  0
  -16.4273   14.8201  -19.3294 C   0  0  0  0  0  0  0  0  0  0  0  0
  -15.0830   14.7209  -20.0680 C   0  0  0  0  0  0  0  0  0  0  0  0
  -14.4030   15.8867  -20.4724 C   0  0  0  0  0  0  0  0  0  0  0  0
  -14.5499   13.4860  -20.3501 C   0  0  0  0  0  0  0  0  0  0  0  0
  -13.1970   15.7826  -21.1395 C   0  0  0  0  0  0  0  0  0  0  0  0
  -13.3328   13.3931  -21.0279 C   0  0  0  0  0  0  0  0  0  0  0  0
  -12.6606   14.5451  -21.4212 C   0  0  0  0  0  0  0  0  0  0  0  0
  -17.6250   11.6920  -18.4946 C   0  0  0  0  0  0  0  0  0  0  0  0
  -18.5240   10.6134  -18.8711 N   0  0  0  0  0  0  0  0  0  0  0  0
  -18.1571    8.0913  -19.2279 O   0  0  0  0  0  0  0  0  0  0  0  0
  -19.2410    8.7618  -17.2883 O   0  0  0  0  0  0  0  0  0  0  0  0
  -18.2160    9.0992  -18.2025 S   0  0  0  0  0  0  0  0  0  0  0  0
  -16.6189    9.1542  -17.3740 C   0  0  0  0  0  0  0  0  0  0  0  0
  -16.5951    8.8221  -16.0167 C   0  0  0  0  0  0  0  0  0  0  0  0
  -15.3923    8.8322  -15.3210 C   0  0  0  0  0  0  0  0  0  0  0  0
  -14.2114    9.1792  -15.9885 C   0  0  0  0  0  0  0  0  0  0  0  0
  -14.2291    9.5129  -17.3469 C   0  0  0  0  0  0  0  0  0  0  0  0
  -15.4467    9.5050  -18.0577 C   0  0  0  0  0  0  0  0  0  0  0  0
  -12.9740    9.1854  -15.2338 N   0  0  0  0  0  0  0  0  0  0  0  0
  -12.9790    8.9479  -14.2784 H   0  0  0  0  0  0  0  0  0  0  0  0
  -12.1286    9.4271  -15.6766 H   0  0  0  0  0  0  0  0  0  0  0  0
  -19.9314   10.9148  -19.1490 C   0  0  0  0  0  0  0  0  0  0  0  0
  -20.3422   10.7547  -20.6520 C   0  0  0  0  0  0  0  0  0  0  0  0
  -19.1239   10.6383  -21.5285 C   0  0  0  0  0  0  0  0  0  0  0  0
  -21.1265    9.4579  -20.7725 C   0  0  0  0  0  0  0  0  0  0  0  0
 10 12  1  0  0  0
 10 14  1  0  0  0
 11 12  1  0  0  0
 11 13  1  0  0  0
  5  6  1  0  0  0
  5  9  1  0  0  0
  5  7  2  0  0  0
 12  9  1  0  0  0
  4  1  1  0  0  0
  4 15  1  0  0  0
  4  6  1  0  0  0
  1 22  1  0  0  0
  1  2  1  0  0  0
 15 16  1  0  0  0
 16 17  2  0  0  0
 16 18  1  0  0  0
 17 19  1  0  0  0
 18 20  2  0  0  0
 19 21  2  0  0  0
 20 21  1  0  0  0
 22 23  1  0  0  0
 36 37  1  0  0  0
 36 23  1  0  0  0
 37 38  1  0  0  0
 37 39  1  0  0  0
 27 28  2  0  0  0
 27 32  1  0  0  0
 27 26  1  0  0  0
 28 29  1  0  0  0
 29 30  2  0  0  0
 30 31  1  0  0  0
 30 33  1  0  0  0
 31 32  2  0  0  0
 13 14  1  0  0  0
 23 26  1  0  0  0
 24 26  2  0  0  0
 25 26  2  0  0  0
  6  8  1  0  0  0
 33 34  1  0  0  0
 33 35  1  0  0  0
  2  3  1  0  0  0
M  END
> <minimizedAffinity>
-9.01663

$$$$
5KR0_478_A_101


 39 41  0  0  0  0  0  0  0  0999 V2000
  -18.1520   11.9573  -19.9777 C   0  0  0  0  0  0  0  0  0  0  0  0
  -19.4702   12.3730  -19.9302 O   0  0  0  0  0  0  0  0  0  0  0  0
  -19.5440   13.1486  -19.3524 H   0  0  0  0  0  0  0  0  0  0  0  0
  -17.3088   13.0739  -20.5529 C   0  0  0  0  0  0  0  0  0  0  0  0
  -18.0905   14.3029  -22.5661 C   0  0  0  0  0  0  0  0  0  0  0  0
  -18.1763   13.9986  -21.1845 N   0  0  0  0  0  0  0  0  0  0  0  0
  -17.4309   13.6395  -23.3277 O   0  0  0  0  0  0  0  0  0  0  0  0
  -18.8653   14.4472  -20.6430 H   0  0  0  0  0  0  0  0  0  0  0  0
  -18.8482   15.4424  -23.0345 O   0  0  0  0  0  0  0  0  0  0  0  0
  -18.5124   17.4118  -24.4006 C   0  0  0  0  0  0  0  0  0  0  0  0
  -19.6713   15.5848  -25.1211 C   0  0  0  0  0  0  0  0  0  0  0  0
  -18.6113   15.8515  -24.4126 C   0  0  0  0  0  0  0  0  0  0  0  0
  -20.5783   16.9472  -25.1508 C   0  0  0  0  0  0  0  0  0  0  0  0
  -19.9912   17.8173  -24.3511 O   0  0  0  0  0  0  0  0  0  0  0  0
  -16.5559   13.8515  -19.4528 C   0  0  0  0  0  0  0  0  0  0  0  0
  -15.1968   14.2881  -20.0224 C   0  0  0  0  0  0  0  0  0  0  0  0
  -14.7519   15.6162  -19.8694 C   0  0  0  0  0  0  0  0  0  0  0  0
  -14.4185   13.3803  -20.7000 C   0  0  0  0  0  0  0  0  0  0  0  0
  -13.5295   15.9960  -20.3904 C   0  0  0  0  0  0  0  0  0  0  0  0
  -13.1870   13.7765  -21.2252 C   0  0  0  0  0  0  0  0  0  0  0  0
  -12.7474   15.0864  -21.0682 C   0  0  0  0  0  0  0  0  0  0  0  0
  -17.6992   11.5553  -18.5504 C   0  0  0  0  0  0  0  0  0  0  0  0
  -17.3419   10.1479  -18.4794 N   0  0  0  0  0  0  0  0  0  0  0  0
  -14.9166   10.9727  -18.2331 O   0  0  0  0  0  0  0  0  0  0  0  0
  -15.3102    9.1838  -19.6585 O   0  0  0  0  0  0  0  0  0  0  0  0
  -15.6990    9.7823  -18.4375 S   0  0  0  0  0  0  0  0  0  0  0  0
  -15.3967    8.6657  -17.0583 C   0  0  0  0  0  0  0  0  0  0  0  0
  -15.0523    9.2458  -15.8344 C   0  0  0  0  0  0  0  0  0  0  0  0
  -14.8182    8.4406  -14.7264 C   0  0  0  0  0  0  0  0  0  0  0  0
  -14.9275    7.0499  -14.8479 C   0  0  0  0  0  0  0  0  0  0  0  0
  -15.2716    6.4637  -16.0706 C   0  0  0  0  0  0  0  0  0  0  0  0
  -15.5096    7.2757  -17.1983 C   0  0  0  0  0  0  0  0  0  0  0  0
  -14.6722    6.2373  -13.6754 N   0  0  0  0  0  0  0  0  0  0  0  0
  -14.4311    6.6659  -12.8224 H   0  0  0  0  0  0  0  0  0  0  0  0
  -14.7399    5.2568  -13.7317 H   0  0  0  0  0  0  0  0  0  0  0  0
  -18.2218    9.2183  -17.7648 C   0  0  0  0  0  0  0  0  0  0  0  0
  -19.0368    8.2562  -18.6941 C   0  0  0  0  0  0  0  0  0  0  0  0
  -19.3380    6.9611  -17.9884 C   0  0  0  0  0  0  0  0  0  0  0  0
  -20.3613    8.9363  -19.0015 C   0  0  0  0  0  0  0  0  0  0  0  0
 10 12  1  0  0  0
 10 14  1  0  0  0
 11 12  1  0  0  0
 11 13  1  0  0  0
  5  6  1  0  0  0
  5  9  1  0  0  0
  5  7  2  0  0  0
 12  9  1  0  0  0
  4  1  1  0  0  0
  4 15  1  0  0  0
  4  6  1  0  0  0
  1 22  1  0  0  0
  1  2  1  0  0  0
 15 16  1  0  0  0
 16 17  2  0  0  0
 16 18  1  0  0  0
 17 19  1  0  0  0
 18 20  2  0  0  0
 19 21  2  0  0  0
 20 21  1  0  0  0
 22 23  1  0  0  0
 36 37  1  0  0  0
 36 23  1  0  0  0
 37 38  1  0  0  0
 37 39  1  0  0  0
 27 28  2  0  0  0
 27 32  1  0  0  0
 27 26  1  0  0  0
 28 29  1  0  0  0
 29 30  2  0  0  0
 30 31  1  0  0  0
 30 33  1  0  0  0
 31 32  2  0  0  0
 13 14  1  0  0  0
 23 26  1  0  0  0
 24 26  2  0  0  0
 25 26  2  0  0  0
  6  8  1  0  0  0
 33 34  1  0  0  0
 33 35  1  0  0  0
  2  3  1  0  0  0
M  END
> <minimizedAffinity>
-8.93753

$$$$
5KR0_478_A_101


 39 41  0  0  0  0  0  0  0  0999 V2000
  -16.4302   10.3179  -18.9540 C   0  0  0  0  0  0  0  0  0  0  0  0
  -15.9283    9.7176  -20.0944 O   0  0  0  0  0  0  0  0  0  0  0  0
  -14.9934    9.4972  -19.9591 H   0  0  0  0  0  0  0  0  0  0  0  0
  -16.3225    9.3432  -17.8020 C   0  0  0  0  0  0  0  0  0  0  0  0
  -18.0871    8.1463  -16.5261 C   0  0  0  0  0  0  0  0  0  0  0  0
  -17.5234    8.5939  -17.7470 N   0  0  0  0  0  0  0  0  0  0  0  0
  -17.7084    8.5580  -15.4574 O   0  0  0  0  0  0  0  0  0  0  0  0
  -17.9841    8.3756  -18.5892 H   0  0  0  0  0  0  0  0  0  0  0  0
  -19.1588    7.1790  -16.6148 O   0  0  0  0  0  0  0  0  0  0  0  0
  -21.4825    7.4147  -15.9806 C   0  0  0  0  0  0  0  0  0  0  0  0
  -20.8200    6.9289  -18.1079 C   0  0  0  0  0  0  0  0  0  0  0  0
  -20.4353    7.6751  -17.1120 C   0  0  0  0  0  0  0  0  0  0  0  0
  -21.8082    5.7808  -17.4875 C   0  0  0  0  0  0  0  0  0  0  0  0
  -21.7879    5.9240  -16.1759 O   0  0  0  0  0  0  0  0  0  0  0  0
  -15.1765    8.3307  -18.0103 C   0  0  0  0  0  0  0  0  0  0  0  0
  -14.4017    8.2087  -16.6886 C   0  0  0  0  0  0  0  0  0  0  0  0
  -13.4853    9.2073  -16.3036 C   0  0  0  0  0  0  0  0  0  0  0  0
  -14.5922    7.1096  -15.8857 C   0  0  0  0  0  0  0  0  0  0  0  0
  -12.7921    9.0827  -15.1144 C   0  0  0  0  0  0  0  0  0  0  0  0
  -13.8836    6.9927  -14.6884 C   0  0  0  0  0  0  0  0  0  0  0  0
  -12.9838    7.9822  -14.3077 C   0  0  0  0  0  0  0  0  0  0  0  0
  -15.6466   11.6291  -18.6888 C   0  0  0  0  0  0  0  0  0  0  0  0
  -16.2321   12.7547  -19.3984 N   0  0  0  0  0  0  0  0  0  0  0  0
  -18.1185   14.5040  -19.4667 O   0  0  0  0  0  0  0  0  0  0  0  0
  -17.9240   13.1984  -17.5577 O   0  0  0  0  0  0  0  0  0  0  0  0
  -17.7992   13.1930  -18.9664 S   0  0  0  0  0  0  0  0  0  0  0  0
  -18.9454   12.0151  -19.7010 C   0  0  0  0  0  0  0  0  0  0  0  0
  -19.8684   11.4080  -18.8451 C   0  0  0  0  0  0  0  0  0  0  0  0
  -20.7895   10.4987  -19.3507 C   0  0  0  0  0  0  0  0  0  0  0  0
  -20.7823   10.1963  -20.7178 C   0  0  0  0  0  0  0  0  0  0  0  0
  -19.8604   10.8005  -21.5792 C   0  0  0  0  0  0  0  0  0  0  0  0
  -18.9230   11.7234  -21.0717 C   0  0  0  0  0  0  0  0  0  0  0  0
  -21.7522    9.2402  -21.2133 N   0  0  0  0  0  0  0  0  0  0  0  0
  -22.3941    8.8240  -20.5936 H   0  0  0  0  0  0  0  0  0  0  0  0
  -21.7692    9.0069  -22.1696 H   0  0  0  0  0  0  0  0  0  0  0  0
  -15.3661   13.8462  -19.8540 C   0  0  0  0  0  0  0  0  0  0  0  0
  -14.7256   13.6171  -21.2649 C   0  0  0  0  0  0  0  0  0  0  0  0
  -15.1066   14.7252  -22.2100 C   0  0  0  0  0  0  0  0  0  0  0  0
  -13.2160   13.6549  -21.0897 C   0  0  0  0  0  0  0  0  0  0  0  0
 10 12  1  0  0  0
 10 14  1  0  0  0
 11 12  1  0  0  0
 11 13  1  0  0  0
  5  6  1  0  0  0
  5  9  1  0  0  0
  5  7  2  0  0  0
 12  9  1  0  0  0
  4  1  1  0  0  0
  4 15  1  0  0  0
  4  6  1  0  0  0
  1 22  1  0  0  0
  1  2  1  0  0  0
 15 16  1  0  0  0
 16 17  2  0  0  0
 16 18  1  0  0  0
 17 19  1  0  0  0
 18 20  2  0  0  0
 19 21  2  0  0  0
 20 21  1  0  0  0
 22 23  1  0  0  0
 36 37  1  0  0  0
 36 23  1  0  0  0
 37 38  1  0  0  0
 37 39  1  0  0  0
 27 28  2  0  0  0
 27 32  1  0  0  0
 27 26  1  0  0  0
 28 29  1  0  0  0
 29 30  2  0  0  0
 30 31  1  0  0  0
 30 33  1  0  0  0
 31 32  2  0  0  0
 13 14  1  0  0  0
 23 26  1  0  0  0
 24 26  2  0  0  0
 25 26  2  0  0  0
  6  8  1  0  0  0
 33 34  1  0  0  0
 33 35  1  0  0  0
  2  3  1  0  0  0
M  END
> <minimizedAffinity>
-8.87805

$$$$
5KR0_478_A_101


 39 41  0  0  0  0  0  0  0  0999 V2000
  -15.0998   13.7429  -19.5941 C   0  0  0  0  0  0  0  0  0  0  0  0
  -15.9338   14.7895  -19.2450 O   0  0  0  0  0  0  0  0  0  0  0  0
  -16.8038   14.6598  -19.6537 H   0  0  0  0  0  0  0  0  0  0  0  0
  -15.6932   12.4521  -19.0741 C   0  0  0  0  0  0  0  0  0  0  0  0
  -18.1432   12.6394  -18.7046 C   0  0  0  0  0  0  0  0  0  0  0  0
  -17.0292   12.3652  -19.5368 N   0  0  0  0  0  0  0  0  0  0  0  0
  -18.0229   13.1727  -17.6294 O   0  0  0  0  0  0  0  0  0  0  0  0
  -17.1902   12.1044  -20.4724 H   0  0  0  0  0  0  0  0  0  0  0  0
  -19.4462   12.2663  -19.2098 O   0  0  0  0  0  0  0  0  0  0  0  0
  -18.7374   10.0710  -18.4776 C   0  0  0  0  0  0  0  0  0  0  0  0
  -20.6101   10.4159  -19.7322 C   0  0  0  0  0  0  0  0  0  0  0  0
  -19.9738   10.9883  -18.7503 C   0  0  0  0  0  0  0  0  0  0  0  0
  -19.5462    9.4123  -20.4672 C   0  0  0  0  0  0  0  0  0  0  0  0
  -18.3737    9.6091  -19.8946 O   0  0  0  0  0  0  0  0  0  0  0  0
  -14.9516   11.2154  -19.6242 C   0  0  0  0  0  0  0  0  0  0  0  0
  -14.6302   10.2871  -18.4422 C   0  0  0  0  0  0  0  0  0  0  0  0
  -14.7482    8.8898  -18.5792 C   0  0  0  0  0  0  0  0  0  0  0  0
  -14.2413   10.8256  -17.2389 C   0  0  0  0  0  0  0  0  0  0  0  0
  -14.4601    8.0672  -17.5066 C   0  0  0  0  0  0  0  0  0  0  0  0
  -13.9565    9.9848  -16.1613 C   0  0  0  0  0  0  0  0  0  0  0  0
  -14.0682    8.6057  -16.3003 C   0  0  0  0  0  0  0  0  0  0  0  0
  -14.9255   13.7303  -21.1345 C   0  0  0  0  0  0  0  0  0  0  0  0
  -15.1277   15.0515  -21.7063 N   0  0  0  0  0  0  0  0  0  0  0  0
  -12.6410   15.4493  -21.1759 O   0  0  0  0  0  0  0  0  0  0  0  0
  -14.1336   17.1637  -20.7073 O   0  0  0  0  0  0  0  0  0  0  0  0
  -13.8329   16.1240  -21.6177 S   0  0  0  0  0  0  0  0  0  0  0  0
  -13.5273   16.7886  -23.2624 C   0  0  0  0  0  0  0  0  0  0  0  0
  -12.5748   16.1321  -24.0465 C   0  0  0  0  0  0  0  0  0  0  0  0
  -12.3007   16.5867  -25.3307 C   0  0  0  0  0  0  0  0  0  0  0  0
  -12.9823   17.7042  -25.8278 C   0  0  0  0  0  0  0  0  0  0  0  0
  -13.9364   18.3656  -25.0473 C   0  0  0  0  0  0  0  0  0  0  0  0
  -14.2181   17.9093  -23.7434 C   0  0  0  0  0  0  0  0  0  0  0  0
  -12.6702   18.1567  -27.1688 N   0  0  0  0  0  0  0  0  0  0  0  0
  -11.9960   17.6798  -27.7048 H   0  0  0  0  0  0  0  0  0  0  0  0
  -13.1325   18.9409  -27.5437 H   0  0  0  0  0  0  0  0  0  0  0  0
  -16.0051   15.2041  -22.8707 C   0  0  0  0  0  0  0  0  0  0  0  0
  -17.4322   15.7564  -22.5366 C   0  0  0  0  0  0  0  0  0  0  0  0
  -17.9255   16.6593  -23.6355 C   0  0  0  0  0  0  0  0  0  0  0  0
  -18.3730   14.5648  -22.4574 C   0  0  0  0  0  0  0  0  0  0  0  0
 10 12  1  0  0  0
 10 14  1  0  0  0
 11 12  1  0  0  0
 11 13  1  0  0  0
  5  6  1  0  0  0
  5  9  1  0  0  0
  5  7  2  0  0  0
 12  9  1  0  0  0
  4  1  1  0  0  0
  4 15  1  0  0  0
  4  6  1  0  0  0
  1 22  1  0  0  0
  1  2  1  0  0  0
 15 16  1  0  0  0
 16 17  2  0  0  0
 16 18  1  0  0  0
 17 19  1  0  0  0
 18 20  2  0  0  0
 19 21  2  0  0  0
 20 21  1  0  0  0
 22 23  1  0  0  0
 36 37  1  0  0  0
 36 23  1  0  0  0
 37 38  1  0  0  0
 37 39  1  0  0  0
 27 28  2  0  0  0
 27 32  1  0  0  0
 27 26  1  0  0  0
 28 29  1  0  0  0
 29 30  2  0  0  0
 30 31  1  0  0  0
 30 33  1  0  0  0
 31 32  2  0  0  0
 13 14  1  0  0  0
 23 26  1  0  0  0
 24 26  2  0  0  0
 25 26  2  0  0  0
  6  8  1  0  0  0
 33 34  1  0  0  0
 33 35  1  0  0  0
  2  3  1  0  0  0
M  END
> <minimizedAffinity>
-8.85454

$$$$
5KR0_478_A_101


 39 41  0  0  0  0  0  0  0  0999 V2000
  -15.7564   13.2155  -19.4775 C   0  0  0  0  0  0  0  0  0  0  0  0
  -16.3929   14.4110  -19.1975 O   0  0  0  0  0  0  0  0  0  0  0  0
  -17.1372   14.5317  -19.8078 H   0  0  0  0  0  0  0  0  0  0  0  0
  -16.7379   12.0817  -19.2773 C   0  0  0  0  0  0  0  0  0  0  0  0
  -16.3859   10.0162  -17.9417 C   0  0  0  0  0  0  0  0  0  0  0  0
  -16.4120   11.4280  -18.0636 N   0  0  0  0  0  0  0  0  0  0  0  0
  -16.4199    9.2900  -18.9043 O   0  0  0  0  0  0  0  0  0  0  0  0
  -16.1953   11.9753  -17.2744 H   0  0  0  0  0  0  0  0  0  0  0  0
  -16.2975    9.4755  -16.6030 O   0  0  0  0  0  0  0  0  0  0  0  0
  -16.1493    7.5779  -15.1081 C   0  0  0  0  0  0  0  0  0  0  0  0
  -14.3868    8.3190  -16.3510 C   0  0  0  0  0  0  0  0  0  0  0  0
  -15.6741    8.1647  -16.4772 C   0  0  0  0  0  0  0  0  0  0  0  0
  -14.0650    8.3337  -14.7461 C   0  0  0  0  0  0  0  0  0  0  0  0
  -15.2267    8.3043  -14.1209 O   0  0  0  0  0  0  0  0  0  0  0  0
  -18.1863   12.5939  -19.1305 C   0  0  0  0  0  0  0  0  0  0  0  0
  -19.1295   11.5325  -19.7190 C   0  0  0  0  0  0  0  0  0  0  0  0
  -19.0654   11.2001  -21.0866 C   0  0  0  0  0  0  0  0  0  0  0  0
  -20.0525   10.9163  -18.9082 C   0  0  0  0  0  0  0  0  0  0  0  0
  -19.9225   10.2468  -21.6032 C   0  0  0  0  0  0  0  0  0  0  0  0
  -20.9157    9.9575  -19.4421 C   0  0  0  0  0  0  0  0  0  0  0  0
  -20.8470    9.6269  -20.7911 C   0  0  0  0  0  0  0  0  0  0  0  0
  -15.2051   13.2657  -20.9256 C   0  0  0  0  0  0  0  0  0  0  0  0
  -15.1958   14.6226  -21.4474 N   0  0  0  0  0  0  0  0  0  0  0  0
  -12.6304   14.6393  -21.2441 O   0  0  0  0  0  0  0  0  0  0  0  0
  -13.8226   16.1992  -20.0064 O   0  0  0  0  0  0  0  0  0  0  0  0
  -13.7784   15.5070  -21.2390 S   0  0  0  0  0  0  0  0  0  0  0  0
  -13.6181   16.6618  -22.6105 C   0  0  0  0  0  0  0  0  0  0  0  0
  -14.1702   17.9340  -22.4382 C   0  0  0  0  0  0  0  0  0  0  0  0
  -14.0698   18.8773  -23.4537 C   0  0  0  0  0  0  0  0  0  0  0  0
  -13.4162   18.5417  -24.6456 C   0  0  0  0  0  0  0  0  0  0  0  0
  -12.8620   17.2697  -24.8239 C   0  0  0  0  0  0  0  0  0  0  0  0
  -12.9614   16.3084  -23.7972 C   0  0  0  0  0  0  0  0  0  0  0  0
  -13.3327   19.5457  -25.6875 N   0  0  0  0  0  0  0  0  0  0  0  0
  -13.7280   20.4361  -25.5459 H   0  0  0  0  0  0  0  0  0  0  0  0
  -12.8806   19.3373  -26.5368 H   0  0  0  0  0  0  0  0  0  0  0  0
  -15.9729   14.9354  -22.6503 C   0  0  0  0  0  0  0  0  0  0  0  0
  -17.3704   15.5834  -22.3666 C   0  0  0  0  0  0  0  0  0  0  0  0
  -17.6692   16.6669  -23.3681 C   0  0  0  0  0  0  0  0  0  0  0  0
  -18.4181   14.4946  -22.5342 C   0  0  0  0  0  0  0  0  0  0  0  0
 10 12  1  0  0  0
 10 14  1  0  0  0
 11 12  1  0  0  0
 11 13  1  0  0  0
  5  6  1  0  0  0
  5  9  1  0  0  0
  5  7  2  0  0  0
 12  9  1  0  0  0
  4  1  1  0  0  0
  4 15  1  0  0  0
  4  6  1  0  0  0
  1 22  1  0  0  0
  1  2  1  0  0  0
 15 16  1  0  0  0
 16 17  2  0  0  0
 16 18  1  0  0  0
 17 19  1  0  0  0
 18 20  2  0  0  0
 19 21  2  0  0  0
 20 21  1  0  0  0
 22 23  1  0  0  0
 36 37  1  0  0  0
 36 23  1  0  0  0
 37 38  1  0  0  0
 37 39  1  0  0  0
 27 28  2  0  0  0
 27 32  1  0  0  0
 27 26  1  0  0  0
 28 29  1  0  0  0
 29 30  2  0  0  0
 30 31  1  0  0  0
 30 33  1  0  0  0
 31 32  2  0  0  0
 13 14  1  0  0  0
 23 26  1  0  0  0
 24 26  2  0  0  0
 25 26  2  0  0  0
  6  8  1  0  0  0
 33 34  1  0  0  0
 33 35  1  0  0  0
  2  3  1  0  0  0
M  END
> <minimizedAffinity>
-8.83879

$$$$
5KR0_478_A_101


 39 41  0  0  0  0  0  0  0  0999 V2000
  -17.7620    9.2951  -18.4233 C   0  0  0  0  0  0  0  0  0  0  0  0
  -18.4240    8.4670  -19.3115 O   0  0  0  0  0  0  0  0  0  0  0  0
  -17.8024    7.8141  -19.6695 H   0  0  0  0  0  0  0  0  0  0  0  0
  -17.2260    8.4581  -17.2828 C   0  0  0  0  0  0  0  0  0  0  0  0
  -18.7729    7.3370  -15.6939 C   0  0  0  0  0  0  0  0  0  0  0  0
  -18.1875    7.4633  -16.9785 N   0  0  0  0  0  0  0  0  0  0  0  0
  -18.6595    8.1933  -14.8520 O   0  0  0  0  0  0  0  0  0  0  0  0
  -18.4595    6.8356  -17.6864 H   0  0  0  0  0  0  0  0  0  0  0  0
  -19.5351    6.1350  -15.4365 O   0  0  0  0  0  0  0  0  0  0  0  0
  -21.5204    4.8973  -14.8165 C   0  0  0  0  0  0  0  0  0  0  0  0
  -21.5867    6.8057  -16.0631 C   0  0  0  0  0  0  0  0  0  0  0  0
  -20.9265    6.3249  -15.0484 C   0  0  0  0  0  0  0  0  0  0  0  0
  -22.2539    5.5307  -16.8432 C   0  0  0  0  0  0  0  0  0  0  0  0
  -21.8021    4.4401  -16.2536 O   0  0  0  0  0  0  0  0  0  0  0  0
  -15.9292    7.7176  -17.6726 C   0  0  0  0  0  0  0  0  0  0  0  0
  -14.8831    7.9788  -16.5773 C   0  0  0  0  0  0  0  0  0  0  0  0
  -14.0977    9.1482  -16.6046 C   0  0  0  0  0  0  0  0  0  0  0  0
  -14.7017    7.0568  -15.5744 C   0  0  0  0  0  0  0  0  0  0  0  0
  -13.1578    9.3682  -15.6155 C   0  0  0  0  0  0  0  0  0  0  0  0
  -13.7465    7.2880  -14.5826 C   0  0  0  0  0  0  0  0  0  0  0  0
  -12.9763    8.4455  -14.6084 C   0  0  0  0  0  0  0  0  0  0  0  0
  -16.6363   10.0468  -19.1793 C   0  0  0  0  0  0  0  0  0  0  0  0
  -17.0957   11.3309  -19.6829 N   0  0  0  0  0  0  0  0  0  0  0  0
  -15.7407   12.3425  -17.7430 O   0  0  0  0  0  0  0  0  0  0  0  0
  -17.6185   13.4981  -18.4674 O   0  0  0  0  0  0  0  0  0  0  0  0
  -16.5277   12.7044  -18.8921 S   0  0  0  0  0  0  0  0  0  0  0  0
  -15.4769   13.6245  -20.0277 C   0  0  0  0  0  0  0  0  0  0  0  0
  -14.2676   13.0301  -20.3981 C   0  0  0  0  0  0  0  0  0  0  0  0
  -13.4160   13.6819  -21.2817 C   0  0  0  0  0  0  0  0  0  0  0  0
  -13.7780   14.9344  -21.7924 C   0  0  0  0  0  0  0  0  0  0  0  0
  -14.9870   15.5345  -21.4249 C   0  0  0  0  0  0  0  0  0  0  0  0
  -15.8546   14.8781  -20.5281 C   0  0  0  0  0  0  0  0  0  0  0  0
  -12.8660   15.5908  -22.7078 N   0  0  0  0  0  0  0  0  0  0  0  0
  -12.0191   15.1547  -22.9562 H   0  0  0  0  0  0  0  0  0  0  0  0
  -13.0935   16.4729  -23.0812 H   0  0  0  0  0  0  0  0  0  0  0  0
  -17.3689   11.4852  -21.1149 C   0  0  0  0  0  0  0  0  0  0  0  0
  -18.8596   11.8245  -21.4556 C   0  0  0  0  0  0  0  0  0  0  0  0
  -19.7420   11.6175  -20.2536 C   0  0  0  0  0  0  0  0  0  0  0  0
  -18.9166   13.2981  -21.8251 C   0  0  0  0  0  0  0  0  0  0  0  0
 10 12  1  0  0  0
 10 14  1  0  0  0
 11 12  1  0  0  0
 11 13  1  0  0  0
  5  6  1  0  0  0
  5  9  1  0  0  0
  5  7  2  0  0  0
 12  9  1  0  0  0
  4  1  1  0  0  0
  4 15  1  0  0  0
  4  6  1  0  0  0
  1 22  1  0  0  0
  1  2  1  0  0  0
 15 16  1  0  0  0
 16 17  2  0  0  0
 16 18  1  0  0  0
 17 19  1  0  0  0
 18 20  2  0  0  0
 19 21  2  0  0  0
 20 21  1  0  0  0
 22 23  1  0  0  0
 36 37  1  0  0  0
 36 23  1  0  0  0
 37 38  1  0  0  0
 37 39  1  0  0  0
 27 28  2  0  0  0
 27 32  1  0  0  0
 27 26  1  0  0  0
 28 29  1  0  0  0
 29 30  2  0  0  0
 30 31  1  0  0  0
 30 33  1  0  0  0
 31 32  2  0  0  0
 13 14  1  0  0  0
 23 26  1  0  0  0
 24 26  2  0  0  0
 25 26  2  0  0  0
  6  8  1  0  0  0
 33 34  1  0  0  0
 33 35  1  0  0  0
  2  3  1  0  0  0
M  END
> <minimizedAffinity>
-8.77420

$$$$
5KR0_478_A_101


 39 41  0  0  0  0  0  0  0  0999 V2000
  -16.7503   14.1428  -19.8487 C   0  0  0  0  0  0  0  0  0  0  0  0
  -17.0003   15.1540  -18.9390 O   0  0  0  0  0  0  0  0  0  0  0  0
  -17.0492   14.7802  -18.0453 H   0  0  0  0  0  0  0  0  0  0  0  0
  -15.4197   13.5047  -19.5154 C   0  0  0  0  0  0  0  0  0  0  0  0
  -15.3669   11.6615  -17.8499 C   0  0  0  0  0  0  0  0  0  0  0  0
  -15.6588   12.1586  -19.1446 N   0  0  0  0  0  0  0  0  0  0  0  0
  -15.1092   12.3935  -16.9264 O   0  0  0  0  0  0  0  0  0  0  0  0
  -16.0424   11.5448  -19.8120 H   0  0  0  0  0  0  0  0  0  0  0  0
  -15.4087   10.2264  -17.6741 O   0  0  0  0  0  0  0  0  0  0  0  0
  -14.1952    8.2705  -18.4220 C   0  0  0  0  0  0  0  0  0  0  0  0
  -14.0027    9.1193  -16.3143 C   0  0  0  0  0  0  0  0  0  0  0  0
  -14.1225    9.5563  -17.5355 C   0  0  0  0  0  0  0  0  0  0  0  0
  -14.5147    7.5646  -16.3134 C   0  0  0  0  0  0  0  0  0  0  0  0
  -14.9868    7.3147  -17.5200 O   0  0  0  0  0  0  0  0  0  0  0  0
  -14.4772   13.4680  -20.7370 C   0  0  0  0  0  0  0  0  0  0  0  0
  -14.3098   14.9059  -21.2536 C   0  0  0  0  0  0  0  0  0  0  0  0
  -14.4911   15.1992  -22.6197 C   0  0  0  0  0  0  0  0  0  0  0  0
  -13.9645   15.9083  -20.3791 C   0  0  0  0  0  0  0  0  0  0  0  0
  -14.3332   16.4959  -23.0712 C   0  0  0  0  0  0  0  0  0  0  0  0
  -13.8041   17.2139  -20.8474 C   0  0  0  0  0  0  0  0  0  0  0  0
  -13.9889   17.5022  -22.1952 C   0  0  0  0  0  0  0  0  0  0  0  0
  -17.9179   13.1239  -19.8023 C   0  0  0  0  0  0  0  0  0  0  0  0
  -18.2879   12.6736  -21.1341 N   0  0  0  0  0  0  0  0  0  0  0  0
  -16.9474   10.5399  -21.6571 O   0  0  0  0  0  0  0  0  0  0  0  0
  -19.0962   10.7044  -22.5185 O   0  0  0  0  0  0  0  0  0  0  0  0
  -18.2830   11.0116  -21.4029 S   0  0  0  0  0  0  0  0  0  0  0  0
  -18.8983   10.1913  -19.9234 C   0  0  0  0  0  0  0  0  0  0  0  0
  -20.2316   10.4242  -19.5753 C   0  0  0  0  0  0  0  0  0  0  0  0
  -20.7725    9.8113  -18.4517 C   0  0  0  0  0  0  0  0  0  0  0  0
  -19.9725    8.9649  -17.6744 C   0  0  0  0  0  0  0  0  0  0  0  0
  -18.6372    8.7283  -18.0177 C   0  0  0  0  0  0  0  0  0  0  0  0
  -18.0829    9.3481  -19.1564 C   0  0  0  0  0  0  0  0  0  0  0  0
  -20.5646    8.3447  -16.5059 N   0  0  0  0  0  0  0  0  0  0  0  0
  -21.5059    8.5218  -16.2783 H   0  0  0  0  0  0  0  0  0  0  0  0
  -20.0254    7.7464  -15.9397 H   0  0  0  0  0  0  0  0  0  0  0  0
  -19.2682   13.4428  -21.9064 C   0  0  0  0  0  0  0  0  0  0  0  0
  -18.6689   14.2003  -23.1394 C   0  0  0  0  0  0  0  0  0  0  0  0
  -19.7492   14.5480  -24.1285 C   0  0  0  0  0  0  0  0  0  0  0  0
  -18.0725   15.5014  -22.6269 C   0  0  0  0  0  0  0  0  0  0  0  0
 10 12  1  0  0  0
 10 14  1  0  0  0
 11 12  1  0  0  0
 11 13  1  0  0  0
  5  6  1  0  0  0
  5  9  1  0  0  0
  5  7  2  0  0  0
 12  9  1  0  0  0
  4  1  1  0  0  0
  4 15  1  0  0  0
  4  6  1  0  0  0
  1 22  1  0  0  0
  1  2  1  0  0  0
 15 16  1  0  0  0
 16 17  2  0  0  0
 16 18  1  0  0  0
 17 19  1  0  0  0
 18 20  2  0  0  0
 19 21  2  0  0  0
 20 21  1  0  0  0
 22 23  1  0  0  0
 36 37  1  0  0  0
 36 23  1  0  0  0
 37 38  1  0  0  0
 37 39  1  0  0  0
 27 28  2  0  0  0
 27 32  1  0  0  0
 27 26  1  0  0  0
 28 29  1  0  0  0
 29 30  2  0  0  0
 30 31  1  0  0  0
 30 33  1  0  0  0
 31 32  2  0  0  0
 13 14  1  0  0  0
 23 26  1  0  0  0
 24 26  2  0  0  0
 25 26  2  0  0  0
  6  8  1  0  0  0
 33 34  1  0  0  0
 33 35  1  0  0  0
  2  3  1  0  0  0
M  END
> <minimizedAffinity>
-8.70785

$$$$
