5KR0_478_A_101
  RCSB PDB12061718393D
Coordinates from PDB:5KR0:A:101 Model:1 without hydrogens
 35 37  0  0  0  0            999 V2000
  -18.6840   16.9350  -25.3020   C 0  0  0  0  0  0  0  0  0  0  0  0
  -19.8140   15.1650  -24.4130   C 0  0  0  0  0  0  0  0  0  0  0  0
  -17.6260   14.8100  -22.3820   C 0  0  0  0  0  0  0  0  0  0  0  0
  -18.5860   15.5870  -24.5160   C 0  0  0  0  0  0  0  0  0  0  0  0
  -16.7170   14.1520  -20.1650   C 0  0  0  0  0  0  0  0  0  0  0  0
  -17.6500   13.7790  -19.0340   C 0  0  0  0  0  0  0  0  0  0  0  0
  -15.4510   14.8710  -19.6530   C 0  0  0  0  0  0  0  0  0  0  0  0
  -14.5540   15.1770  -20.8630   C 0  0  0  0  0  0  0  0  0  0  0  0
  -14.5950   16.4430  -21.4800   C 0  0  0  0  0  0  0  0  0  0  0  0
  -13.7190   14.2030  -21.3560   C 0  0  0  0  0  0  0  0  0  0  0  0
  -13.7860   16.7030  -22.5700   C 0  0  0  0  0  0  0  0  0  0  0  0
  -12.9090   14.4760  -22.4600   C 0  0  0  0  0  0  0  0  0  0  0  0
  -12.9470   15.7280  -23.0640   C 0  0  0  0  0  0  0  0  0  0  0  0
  -17.0500   12.6840  -18.1150   C 0  0  0  0  0  0  0  0  0  0  0  0
  -18.2250   10.4710  -18.3870   C 0  0  0  0  0  0  0  0  0  0  0  0
  -19.5530   10.7480  -19.1700   C 0  0  0  0  0  0  0  0  0  0  0  0
  -15.1420    9.6410  -17.6850   C 0  0  0  0  0  0  0  0  0  0  0  0
  -14.4330   10.3000  -16.6770   C 0  0  0  0  0  0  0  0  0  0  0  0
  -14.0180    9.6010  -15.5500   C 0  0  0  0  0  0  0  0  0  0  0  0
  -14.3130    8.2370  -15.4360   C 0  0  0  0  0  0  0  0  0  0  0  0
  -15.0220    7.5720  -16.4420   C 0  0  0  0  0  0  0  0  0  0  0  0
  -15.4450    8.2760  -17.5880   C 0  0  0  0  0  0  0  0  0  0  0  0
  -19.3560   10.5340  -20.6470   C 0  0  0  0  0  0  0  0  0  0  0  0
  -20.5830    9.7390  -18.6880   C 0  0  0  0  0  0  0  0  0  0  0  0
  -20.7840   16.4600  -24.6610   C 0  0  0  0  0  0  0  0  0  0  0  0
  -17.3930   15.0680  -21.0080   N 0  0  0  0  0  0  0  0  0  0  0  0
  -17.1200   11.3700  -18.7330   N 0  0  0  0  0  0  0  0  0  0  0  0
  -13.8620    7.5350  -14.2510   N 0  0  0  0  0  0  0  0  0  0  0  0
  -18.0870   15.9190  -23.1880   O 0  0  0  0  0  0  0  0  0  0  0  0
  -17.4650   13.7160  -22.8640   O 0  0  0  0  0  0  0  0  0  0  0  0
  -17.9080   14.9080  -18.2780   O 0  0  0  0  0  0  0  0  0  0  0  0
  -14.6360   11.6060  -19.3630   O 0  0  0  0  0  0  0  0  0  0  0  0
  -15.8090    9.8090  -20.2470   O 0  0  0  0  0  0  0  0  0  0  0  0
  -19.9980   17.5150  -24.7630   O 0  0  0  0  0  0  0  0  0  0  0  0
  -15.6560   10.6250  -19.1020   S 0  0  0  0  0  0  0  0  0  0  0  0
  1  4  1  0  0  0  0
  1 34  1  0  0  0  0
  2  4  1  0  0  0  0
  2 25  1  0  0  0  0
  3 26  1  0  0  0  0
  3 29  1  0  0  0  0
  3 30  2  0  0  0  0
  4 29  1  0  0  0  0
  5  6  1  0  0  0  0
  5  7  1  0  0  0  0
  5 26  1  0  0  0  0
  6 14  1  0  0  0  0
  6 31  1  0  0  0  0
  7  8  1  0  0  0  0
  8  9  2  0  0  0  0
  8 10  1  0  0  0  0
  9 11  1  0  0  0  0
 10 12  2  0  0  0  0
 11 13  2  0  0  0  0
 12 13  1  0  0  0  0
 14 27  1  0  0  0  0
 15 16  1  0  0  0  0
 15 27  1  0  0  0  0
 16 23  1  0  0  0  0
 16 24  1  0  0  0  0
 17 18  2  0  0  0  0
 17 22  1  0  0  0  0
 17 35  1  0  0  0  0
 18 19  1  0  0  0  0
 19 20  2  0  0  0  0
 20 21  1  0  0  0  0
 20 28  1  0  0  0  0
 21 22  2  0  0  0  0
 25 34  1  0  0  0  0
 27 35  1  0  0  0  0
 32 35  2  0  0  0  0
 33 35  2  0  0  0  0
A    1
C1
A    2
C2
A    3
C3
A    4
C4
A    5
C5
A    6
C6
A    7
C7
A    8
C8
A    9
C9
A   10
C10
A   11
C11
A   12
C12
A   13
C13
A   14
C14
A   15
C15
A   16
C16
A   17
C17
A   18
C18
A   19
C19
A   20
C20
A   21
C21
A   22
C22
A   23
C23
A   24
C24
A   25
C25
A   26
N1
A   27
N2
A   28
N3
A   29
O1
A   30
O2
A   31
O3
A   32
O4
A   33
O5
A   34
O6
A   35
S1
M  END
>  <InstanceId>
5KR0_478_A_101

>  <ChemCompId>
478

>  <PdbId>
5KR0

>  <ChainId>
A

>  <ResidueNumber>
101

>  <InsertionCode>


>  <Model>
1

>  <AltIds>


>  <MissingHeavyAtoms>
0

>  <ObservedFormula>
C25 N3 O6 S

>  <Name>
{3-[(4-AMINO-BENZENESULFONYL)-ISOBUTYL-AMINO]-1-BENZYL-2-HYDROXY-PROPYL}-CARBAMIC ACID TETRAHYDRO-FURAN-3-YL ESTER

>  <SystematicName>
[(3S)-oxolan-3-yl] N-[(2S,3R)-4-[(4-aminophenyl)sulfonyl-(2-methylpropyl)amino]-3-hydroxy-1-phenyl-butan-2-yl]carbamate

>  <Synonyms>
Amprenavir

>  <Type>
NON-POLYMER

>  <Formula>
C25 H35 N3 O6 S

>  <MolecularWeight>
505.627

>  <ModifiedDate>
2011-06-04

>  <Parent>


>  <OneLetterCode>


>  <SubcomponentList>


>  <AmbiguousFlag>
N

>  <InChI>
InChI=1S/C25H35N3O6S/c1-18(2)15-28(35(31,32)22-10-8-20(26)9-11-22)16-24(29)23(14-19-6-4-3-5-7-19)27-25(30)34-21-12-13-33-17-21/h3-11,18,21,23-24,29H,12-17,26H2,1-2H3,(H,27,30)/t21-,23-,24+/m0/s1

>  <InChIKey>
YMARZQAQMVYCKC-OEMFJLHTSA-N

>  <SMILES>
CC(C)C[N@](C[C@H]([C@H](Cc1ccccc1)NC(=O)O[C@H]2CCOC2)O)S(=O)(=O)c3ccc(cc3)N

$$$$
