2BAK_AQZ_A_401


 45 50  0  0  0  0  0  0  0  0999 V2000
   -4.4178    1.7374   18.8638 C   0  0  0  0  0  0  0  0  0  0  0  0
   -3.4083    2.3311   18.0907 C   0  0  0  0  0  0  0  0  0  0  0  0
   -3.6292    2.5755   16.7263 C   0  0  0  0  0  0  0  0  0  0  0  0
   -4.8399    2.1935   16.1565 C   0  0  0  0  0  0  0  0  0  0  0  0
   -5.8363    1.6217   16.9166 C   0  0  0  0  0  0  0  0  0  0  0  0
   -5.6632    1.3674   18.2654 C   0  0  0  0  0  0  0  0  0  0  0  0
   -6.8411    0.7371   18.9898 C   0  0  0  0  0  0  0  0  0  0  0  0
   -2.6052    3.1709   15.9610 N   0  0  0  0  0  0  0  0  0  0  0  0
   -1.3690    2.6129   15.6830 C   0  0  0  0  0  0  0  0  0  0  0  0
   -0.9880    1.4937   16.0811 O   0  0  0  0  0  0  0  0  0  0  0  0
   -2.7859    4.0650   15.5906 H   0  0  0  0  0  0  0  0  0  0  0  0
   -0.4611    3.4198   14.7847 C   0  0  0  0  0  0  0  0  0  0  0  0
   -0.7104    4.7160   14.2817 C   0  0  0  0  0  0  0  0  0  0  0  0
    0.2511    5.2765   13.4333 C   0  0  0  0  0  0  0  0  0  0  0  0
    1.4063    4.6195   13.0584 N   0  0  0  0  0  0  0  0  0  0  0  0
    1.6281    3.3702   13.5092 C   0  0  0  0  0  0  0  0  0  0  0  0
    0.6942    2.7518   14.3666 C   0  0  0  0  0  0  0  0  0  0  0  0
    2.7988    2.6828   13.1060 N   0  0  0  0  0  0  0  0  0  0  0  0
    3.8528    3.3920   12.3269 C   0  0  0  0  0  0  0  0  0  0  0  0
    4.9324    2.4050   11.7727 C   0  0  0  0  0  0  0  0  0  0  0  0
    5.2495    1.4028   12.7402 O   0  0  0  0  0  0  0  0  0  0  0  0
    4.0224    0.7224   13.0564 C   0  0  0  0  0  0  0  0  0  0  0  0
    3.2729    1.6278   14.0022 C   0  0  0  0  0  0  0  0  0  0  0  0
   -4.2239    1.5437   20.2377 N   0  0  0  0  0  0  0  0  0  0  0  0
   -4.2029    2.3483   20.8048 H   0  0  0  0  0  0  0  0  0  0  0  0
   -4.2660   -0.1512   25.0728 C   0  0  0  0  0  0  0  0  0  0  0  0
   -3.9987   -1.2115   24.1897 C   0  0  0  0  0  0  0  0  0  0  0  0
   -3.9389   -1.0306   22.8174 C   0  0  0  0  0  0  0  0  0  0  0  0
   -3.6827   -2.1058   22.0832 N   0  0  0  0  0  0  0  0  0  0  0  0
   -3.6313   -1.9377   20.7705 C   0  0  0  0  0  0  0  0  0  0  0  0
   -3.8189   -0.7793   20.1294 N   0  0  0  0  0  0  0  0  0  0  0  0
   -4.0563    0.3010   20.8817 C   0  0  0  0  0  0  0  0  0  0  0  0
   -4.1482    0.2462   22.2673 C   0  0  0  0  0  0  0  0  0  0  0  0
   -4.4000    1.3512   23.1163 C   0  0  0  0  0  0  0  0  0  0  0  0
   -4.4618    1.1286   24.5261 C   0  0  0  0  0  0  0  0  0  0  0  0
   -3.1900   -0.5262   27.2398 C   0  0  0  0  0  0  0  0  0  0  0  0
   -4.3496   -0.2207   26.4675 O   0  0  0  0  0  0  0  0  0  0  0  0
   -4.7084    2.0853   25.4678 O   0  0  0  0  0  0  0  0  0  0  0  0
   -3.7107    3.1090   25.5664 C   0  0  0  0  0  0  0  0  0  0  0  0
   -4.3702    4.5167   25.5841 C   0  0  0  0  0  0  0  0  0  0  0  0
   -4.4870    5.1293   24.2483 N   0  0  0  0  0  0  0  0  0  0  0  0
   -3.3248    5.0886   23.3474 C   0  0  0  0  0  0  0  0  0  0  0  0
   -3.9676    5.6821   22.1029 C   0  0  0  0  0  0  0  0  0  0  0  0
   -4.6701    6.8926   22.7115 C   0  0  0  0  0  0  0  0  0  0  0  0
   -4.9673    6.5203   24.1742 C   0  0  0  0  0  0  0  0  0  0  0  0
 36 37  1  0  0  0
 37 26  1  0  0  0
 26 27  2  0  0  0
 26 35  1  0  0  0
 27 28  1  0  0  0
 28 29  2  0  0  0
 28 33  1  0  0  0
 29 30  1  0  0  0
 30 31  2  0  0  0
 31 32  1  0  0  0
 32 24  1  0  0  0
 32 33  2  0  0  0
 24  1  1  0  0  0
  1  2  2  0  0  0
  1  6  1  0  0  0
  2  3  1  0  0  0
  3  8  1  0  0  0
  3  4  2  0  0  0
  8  9  1  0  0  0
  9 10  2  0  0  0
  9 12  1  0  0  0
 12 13  2  0  0  0
 12 17  1  0  0  0
 13 14  1  0  0  0
 14 15  2  0  0  0
 15 16  1  0  0  0
 16 17  2  0  0  0
 16 18  1  0  0  0
 18 19  1  0  0  0
 18 23  1  0  0  0
 19 20  1  0  0  0
 20 21  1  0  0  0
 21 22  1  0  0  0
 22 23  1  0  0  0
  4  5  1  0  0  0
  5  6  2  0  0  0
  6  7  1  0  0  0
 33 34  1  0  0  0
 34 35  2  0  0  0
 35 38  1  0  0  0
 38 39  1  0  0  0
 39 40  1  0  0  0
 40 41  1  0  0  0
 41 42  1  0  0  0
 41 45  1  0  0  0
 42 43  1  0  0  0
 43 44  1  0  0  0
 44 45  1  0  0  0
 24 25  1  0  0  0
  8 11  1  0  0  0
M  END
> <minimizedAffinity>
-11.75991

$$$$
2BAK_AQZ_A_401


 45 50  0  0  0  0  0  0  0  0999 V2000
   -4.5027    1.7155   18.8523 C   0  0  0  0  0  0  0  0  0  0  0  0
   -3.4888    2.3137   18.0885 C   0  0  0  0  0  0  0  0  0  0  0  0
   -3.6981    2.5566   16.7220 C   0  0  0  0  0  0  0  0  0  0  0  0
   -4.9016    2.1686   16.1410 C   0  0  0  0  0  0  0  0  0  0  0  0
   -5.9023    1.5923   16.8920 C   0  0  0  0  0  0  0  0  0  0  0  0
   -5.7407    1.3393   18.2424 C   0  0  0  0  0  0  0  0  0  0  0  0
   -6.9223    0.7035   18.9559 C   0  0  0  0  0  0  0  0  0  0  0  0
   -2.6698    3.1567   15.9662 N   0  0  0  0  0  0  0  0  0  0  0  0
   -1.4348    2.5973   15.6856 C   0  0  0  0  0  0  0  0  0  0  0  0
   -1.0590    1.4724   16.0724 O   0  0  0  0  0  0  0  0  0  0  0  0
   -2.8462    4.0554   15.6050 H   0  0  0  0  0  0  0  0  0  0  0  0
   -0.5216    3.4107   14.7987 C   0  0  0  0  0  0  0  0  0  0  0  0
   -0.7696    4.7090   14.3003 C   0  0  0  0  0  0  0  0  0  0  0  0
    0.1975    5.2758   13.4625 C   0  0  0  0  0  0  0  0  0  0  0  0
    1.3571    4.6231   13.0935 N   0  0  0  0  0  0  0  0  0  0  0  0
    1.5779    3.3720   13.5396 C   0  0  0  0  0  0  0  0  0  0  0  0
    0.6385    2.7472   14.3863 C   0  0  0  0  0  0  0  0  0  0  0  0
    2.7532    2.6891   13.1423 N   0  0  0  0  0  0  0  0  0  0  0  0
    3.8337    3.4170   12.4186 C   0  0  0  0  0  0  0  0  0  0  0  0
    4.9196    2.4411   11.8567 C   0  0  0  0  0  0  0  0  0  0  0  0
    5.2021    1.4007   12.7941 O   0  0  0  0  0  0  0  0  0  0  0  0
    3.9613    0.7206   13.0519 C   0  0  0  0  0  0  0  0  0  0  0  0
    3.1942    1.5971   14.0106 C   0  0  0  0  0  0  0  0  0  0  0  0
   -4.3209    1.5231   20.2281 N   0  0  0  0  0  0  0  0  0  0  0  0
   -4.3428    2.3248   20.7990 H   0  0  0  0  0  0  0  0  0  0  0  0
   -4.2152   -0.1674   25.0637 C   0  0  0  0  0  0  0  0  0  0  0  0
   -3.9423   -1.2220   24.1755 C   0  0  0  0  0  0  0  0  0  0  0  0
   -3.9174   -1.0411   22.8021 C   0  0  0  0  0  0  0  0  0  0  0  0
   -3.6519   -2.1106   22.0629 N   0  0  0  0  0  0  0  0  0  0  0  0
   -3.6337   -1.9426   20.7493 C   0  0  0  0  0  0  0  0  0  0  0  0
   -3.8630   -0.7897   20.1120 N   0  0  0  0  0  0  0  0  0  0  0  0
   -4.1094    0.2853   20.8688 C   0  0  0  0  0  0  0  0  0  0  0  0
   -4.1692    0.2299   22.2561 C   0  0  0  0  0  0  0  0  0  0  0  0
   -4.4284    1.3294   23.1099 C   0  0  0  0  0  0  0  0  0  0  0  0
   -4.4536    1.1068   24.5208 C   0  0  0  0  0  0  0  0  0  0  0  0
   -4.8013   -1.3946   27.0995 C   0  0  0  0  0  0  0  0  0  0  0  0
   -4.2662   -0.2374   26.4600 O   0  0  0  0  0  0  0  0  0  0  0  0
   -4.7020    2.0583   25.4673 O   0  0  0  0  0  0  0  0  0  0  0  0
   -3.7777    3.1531   25.4823 C   0  0  0  0  0  0  0  0  0  0  0  0
   -2.8356    3.0577   26.7153 C   0  0  0  0  0  0  0  0  0  0  0  0
   -1.5634    2.3686   26.4326 N   0  0  0  0  0  0  0  0  0  0  0  0
   -1.2285    1.1589   27.1997 C   0  0  0  0  0  0  0  0  0  0  0  0
    0.0416    0.7558   26.4658 C   0  0  0  0  0  0  0  0  0  0  0  0
    0.7671    2.0978   26.4222 C   0  0  0  0  0  0  0  0  0  0  0  0
   -0.3305    3.1753   26.4521 C   0  0  0  0  0  0  0  0  0  0  0  0
 36 37  1  0  0  0
 37 26  1  0  0  0
 26 27  2  0  0  0
 26 35  1  0  0  0
 27 28  1  0  0  0
 28 29  2  0  0  0
 28 33  1  0  0  0
 29 30  1  0  0  0
 30 31  2  0  0  0
 31 32  1  0  0  0
 32 24  1  0  0  0
 32 33  2  0  0  0
 24  1  1  0  0  0
  1  2  2  0  0  0
  1  6  1  0  0  0
  2  3  1  0  0  0
  3  8  1  0  0  0
  3  4  2  0  0  0
  8  9  1  0  0  0
  9 10  2  0  0  0
  9 12  1  0  0  0
 12 13  2  0  0  0
 12 17  1  0  0  0
 13 14  1  0  0  0
 14 15  2  0  0  0
 15 16  1  0  0  0
 16 17  2  0  0  0
 16 18  1  0  0  0
 18 19  1  0  0  0
 18 23  1  0  0  0
 19 20  1  0  0  0
 20 21  1  0  0  0
 21 22  1  0  0  0
 22 23  1  0  0  0
  4  5  1  0  0  0
  5  6  2  0  0  0
  6  7  1  0  0  0
 33 34  1  0  0  0
 34 35  2  0  0  0
 35 38  1  0  0  0
 38 39  1  0  0  0
 39 40  1  0  0  0
 40 41  1  0  0  0
 41 42  1  0  0  0
 41 45  1  0  0  0
 42 43  1  0  0  0
 43 44  1  0  0  0
 44 45  1  0  0  0
 24 25  1  0  0  0
  8 11  1  0  0  0
M  END
> <minimizedAffinity>
-11.67557

$$$$
2BAK_AQZ_A_401


 45 50  0  0  0  0  0  0  0  0999 V2000
   -3.8234    2.9097   19.4557 C   0  0  0  0  0  0  0  0  0  0  0  0
   -2.9385    3.3578   18.4630 C   0  0  0  0  0  0  0  0  0  0  0  0
   -3.1254    2.9564   17.1311 C   0  0  0  0  0  0  0  0  0  0  0  0
   -4.1717    2.0918   16.8241 C   0  0  0  0  0  0  0  0  0  0  0  0
   -5.0483    1.6608   17.7953 C   0  0  0  0  0  0  0  0  0  0  0  0
   -4.9044    2.0355   19.1193 C   0  0  0  0  0  0  0  0  0  0  0  0
   -5.9407    1.4942   20.0901 C   0  0  0  0  0  0  0  0  0  0  0  0
   -2.2273    3.4127   16.1442 N   0  0  0  0  0  0  0  0  0  0  0  0
   -1.0249    2.8179   15.8018 C   0  0  0  0  0  0  0  0  0  0  0  0
   -0.5661    1.7854   16.3306 O   0  0  0  0  0  0  0  0  0  0  0  0
   -2.4783    4.2287   15.6539 H   0  0  0  0  0  0  0  0  0  0  0  0
   -0.2650    3.4592   14.6645 C   0  0  0  0  0  0  0  0  0  0  0  0
   -0.6771    4.5725   13.8989 C   0  0  0  0  0  0  0  0  0  0  0  0
    0.1644    4.9917   12.8623 C   0  0  0  0  0  0  0  0  0  0  0  0
    1.3529    4.3622   12.5494 N   0  0  0  0  0  0  0  0  0  0  0  0
    1.7296    3.2796   13.2559 C   0  0  0  0  0  0  0  0  0  0  0  0
    0.9219    2.8087   14.3122 C   0  0  0  0  0  0  0  0  0  0  0  0
    2.9346    2.6152   12.9213 N   0  0  0  0  0  0  0  0  0  0  0  0
    3.9957    3.3291   12.1563 C   0  0  0  0  0  0  0  0  0  0  0  0
    5.1246    2.3573   11.6783 C   0  0  0  0  0  0  0  0  0  0  0  0
    5.4344    1.4000   12.6925 O   0  0  0  0  0  0  0  0  0  0  0  0
    4.2171    0.6933   12.9878 C   0  0  0  0  0  0  0  0  0  0  0  0
    3.4057    1.6076   13.8719 C   0  0  0  0  0  0  0  0  0  0  0  0
   -3.6755    3.3530   20.7764 N   0  0  0  0  0  0  0  0  0  0  0  0
   -3.4240    2.6797   21.4492 H   0  0  0  0  0  0  0  0  0  0  0  0
   -3.9113    5.7060   25.3218 C   0  0  0  0  0  0  0  0  0  0  0  0
   -4.0927    6.6366   24.2842 C   0  0  0  0  0  0  0  0  0  0  0  0
   -4.0660    6.2667   22.9493 C   0  0  0  0  0  0  0  0  0  0  0  0
   -4.2459    7.2327   22.0574 N   0  0  0  0  0  0  0  0  0  0  0  0
   -4.2145    6.8835   20.7802 C   0  0  0  0  0  0  0  0  0  0  0  0
   -4.0140    5.6442   20.3201 N   0  0  0  0  0  0  0  0  0  0  0  0
   -3.8541    4.6761   21.2291 C   0  0  0  0  0  0  0  0  0  0  0  0
   -3.8528    4.9224   22.5969 C   0  0  0  0  0  0  0  0  0  0  0  0
   -3.6857    3.9430   23.6059 C   0  0  0  0  0  0  0  0  0  0  0  0
   -3.7118    4.3595   24.9722 C   0  0  0  0  0  0  0  0  0  0  0  0
   -3.6966    7.2943   27.1726 C   0  0  0  0  0  0  0  0  0  0  0  0
   -3.9184    5.9684   26.6959 O   0  0  0  0  0  0  0  0  0  0  0  0
   -3.5522    3.5400   26.0520 O   0  0  0  0  0  0  0  0  0  0  0  0
   -2.4409    2.6393   25.9693 C   0  0  0  0  0  0  0  0  0  0  0  0
   -2.9011    1.1766   26.2257 C   0  0  0  0  0  0  0  0  0  0  0  0
   -3.2241    0.4360   24.9926 N   0  0  0  0  0  0  0  0  0  0  0  0
   -4.6220    0.3978   24.5360 C   0  0  0  0  0  0  0  0  0  0  0  0
   -4.4195   -0.3190   23.2096 C   0  0  0  0  0  0  0  0  0  0  0  0
   -3.5228   -1.4699   23.6574 C   0  0  0  0  0  0  0  0  0  0  0  0
   -2.7612   -0.9593   24.8927 C   0  0  0  0  0  0  0  0  0  0  0  0
 36 37  1  0  0  0
 37 26  1  0  0  0
 26 27  2  0  0  0
 26 35  1  0  0  0
 27 28  1  0  0  0
 28 29  2  0  0  0
 28 33  1  0  0  0
 29 30  1  0  0  0
 30 31  2  0  0  0
 31 32  1  0  0  0
 32 24  1  0  0  0
 32 33  2  0  0  0
 24  1  1  0  0  0
  1  2  2  0  0  0
  1  6  1  0  0  0
  2  3  1  0  0  0
  3  8  1  0  0  0
  3  4  2  0  0  0
  8  9  1  0  0  0
  9 10  2  0  0  0
  9 12  1  0  0  0
 12 13  2  0  0  0
 12 17  1  0  0  0
 13 14  1  0  0  0
 14 15  2  0  0  0
 15 16  1  0  0  0
 16 17  2  0  0  0
 16 18  1  0  0  0
 18 19  1  0  0  0
 18 23  1  0  0  0
 19 20  1  0  0  0
 20 21  1  0  0  0
 21 22  1  0  0  0
 22 23  1  0  0  0
  4  5  1  0  0  0
  5  6  2  0  0  0
  6  7  1  0  0  0
 33 34  1  0  0  0
 34 35  2  0  0  0
 35 38  1  0  0  0
 38 39  1  0  0  0
 39 40  1  0  0  0
 40 41  1  0  0  0
 41 42  1  0  0  0
 41 45  1  0  0  0
 42 43  1  0  0  0
 43 44  1  0  0  0
 44 45  1  0  0  0
 24 25  1  0  0  0
  8 11  1  0  0  0
M  END
> <minimizedAffinity>
-11.05871

$$$$
2BAK_AQZ_A_401


 45 50  0  0  0  0  0  0  0  0999 V2000
   -3.8354    3.0456   19.4874 C   0  0  0  0  0  0  0  0  0  0  0  0
   -2.9168    3.4383   18.5018 C   0  0  0  0  0  0  0  0  0  0  0  0
   -3.0851    2.9998   17.1792 C   0  0  0  0  0  0  0  0  0  0  0  0
   -4.1474    2.1539   16.8753 C   0  0  0  0  0  0  0  0  0  0  0  0
   -5.0567    1.7773   17.8391 C   0  0  0  0  0  0  0  0  0  0  0  0
   -4.9320    2.1900   19.1537 C   0  0  0  0  0  0  0  0  0  0  0  0
   -6.0039    1.7074   20.1168 C   0  0  0  0  0  0  0  0  0  0  0  0
   -2.1533    3.4006   16.1994 N   0  0  0  0  0  0  0  0  0  0  0  0
   -0.9880    2.7323   15.8641 C   0  0  0  0  0  0  0  0  0  0  0  0
   -0.5984    1.6722   16.3939 O   0  0  0  0  0  0  0  0  0  0  0  0
   -2.3492    4.2315   15.7091 H   0  0  0  0  0  0  0  0  0  0  0  0
   -0.1815    3.3266   14.7334 C   0  0  0  0  0  0  0  0  0  0  0  0
    0.8768    2.7029   14.0360 C   0  0  0  0  0  0  0  0  0  0  0  0
    1.5187    3.4441   13.0374 C   0  0  0  0  0  0  0  0  0  0  0  0
    1.1788    4.7448   12.7221 N   0  0  0  0  0  0  0  0  0  0  0  0
    0.1936    5.3522   13.4102 C   0  0  0  0  0  0  0  0  0  0  0  0
   -0.4896    4.6565   14.4296 C   0  0  0  0  0  0  0  0  0  0  0  0
   -0.1405    6.6948   13.1081 N   0  0  0  0  0  0  0  0  0  0  0  0
   -0.2815    7.1303   11.6899 C   0  0  0  0  0  0  0  0  0  0  0  0
   -0.4056    8.6849   11.5663 C   0  0  0  0  0  0  0  0  0  0  0  0
   -1.2285    9.2135   12.6076 O   0  0  0  0  0  0  0  0  0  0  0  0
   -0.6255    8.8278   13.8551 C   0  0  0  0  0  0  0  0  0  0  0  0
   -0.9997    7.3825   14.0722 C   0  0  0  0  0  0  0  0  0  0  0  0
   -3.7047    3.5266   20.7967 N   0  0  0  0  0  0  0  0  0  0  0  0
   -3.4645    2.8724   21.4922 H   0  0  0  0  0  0  0  0  0  0  0  0
   -3.9360    6.0194   25.2672 C   0  0  0  0  0  0  0  0  0  0  0  0
   -4.1229    6.9167   24.2016 C   0  0  0  0  0  0  0  0  0  0  0  0
   -4.0985    6.5054   22.8788 C   0  0  0  0  0  0  0  0  0  0  0  0
   -4.2836    7.4426   21.9577 N   0  0  0  0  0  0  0  0  0  0  0  0
   -4.2544    7.0539   20.6920 C   0  0  0  0  0  0  0  0  0  0  0  0
   -4.0513    5.8014   20.2702 N   0  0  0  0  0  0  0  0  0  0  0  0
   -3.8862    4.8625   21.2085 C   0  0  0  0  0  0  0  0  0  0  0  0
   -3.8822    5.1514   22.5679 C   0  0  0  0  0  0  0  0  0  0  0  0
   -3.7095    4.2045   23.6065 C   0  0  0  0  0  0  0  0  0  0  0  0
   -3.7334    4.6632   24.9592 C   0  0  0  0  0  0  0  0  0  0  0  0
   -3.7105    7.6632   27.0675 C   0  0  0  0  0  0  0  0  0  0  0  0
   -3.9404    6.3245   26.6324 O   0  0  0  0  0  0  0  0  0  0  0  0
   -3.5685    3.8783   26.0635 O   0  0  0  0  0  0  0  0  0  0  0  0
   -2.8341    2.6681   25.8419 C   0  0  0  0  0  0  0  0  0  0  0  0
   -2.5755    1.9303   27.1857 C   0  0  0  0  0  0  0  0  0  0  0  0
   -1.4220    1.0134   27.1418 N   0  0  0  0  0  0  0  0  0  0  0  0
   -0.0687    1.5830   27.0513 C   0  0  0  0  0  0  0  0  0  0  0  0
    0.7387    0.3008   27.1863 C   0  0  0  0  0  0  0  0  0  0  0  0
    0.0020   -0.5897   26.1896 C   0  0  0  0  0  0  0  0  0  0  0  0
   -1.4418   -0.0616   26.1343 C   0  0  0  0  0  0  0  0  0  0  0  0
 36 37  1  0  0  0
 37 26  1  0  0  0
 26 27  2  0  0  0
 26 35  1  0  0  0
 27 28  1  0  0  0
 28 29  2  0  0  0
 28 33  1  0  0  0
 29 30  1  0  0  0
 30 31  2  0  0  0
 31 32  1  0  0  0
 32 24  1  0  0  0
 32 33  2  0  0  0
 24  1  1  0  0  0
  1  2  2  0  0  0
  1  6  1  0  0  0
  2  3  1  0  0  0
  3  8  1  0  0  0
  3  4  2  0  0  0
  8  9  1  0  0  0
  9 10  2  0  0  0
  9 12  1  0  0  0
 12 13  2  0  0  0
 12 17  1  0  0  0
 13 14  1  0  0  0
 14 15  2  0  0  0
 15 16  1  0  0  0
 16 17  2  0  0  0
 16 18  1  0  0  0
 18 19  1  0  0  0
 18 23  1  0  0  0
 19 20  1  0  0  0
 20 21  1  0  0  0
 21 22  1  0  0  0
 22 23  1  0  0  0
  4  5  1  0  0  0
  5  6  2  0  0  0
  6  7  1  0  0  0
 33 34  1  0  0  0
 34 35  2  0  0  0
 35 38  1  0  0  0
 38 39  1  0  0  0
 39 40  1  0  0  0
 40 41  1  0  0  0
 41 42  1  0  0  0
 41 45  1  0  0  0
 42 43  1  0  0  0
 43 44  1  0  0  0
 44 45  1  0  0  0
 24 25  1  0  0  0
  8 11  1  0  0  0
M  END
> <minimizedAffinity>
-10.07754

$$$$
2BAK_AQZ_A_401


 45 50  0  0  0  0  0  0  0  0999 V2000
   -3.2051    2.7267   19.1723 C   0  0  0  0  0  0  0  0  0  0  0  0
   -2.0756    2.8049   18.3432 C   0  0  0  0  0  0  0  0  0  0  0  0
   -2.1458    2.3295   17.0245 C   0  0  0  0  0  0  0  0  0  0  0  0
   -3.3312    1.7578   16.5722 C   0  0  0  0  0  0  0  0  0  0  0  0
   -4.4443    1.6913   17.3809 C   0  0  0  0  0  0  0  0  0  0  0  0
   -4.4210    2.1522   18.6851 C   0  0  0  0  0  0  0  0  0  0  0  0
   -5.7166    2.0242   19.4691 C   0  0  0  0  0  0  0  0  0  0  0  0
   -1.0025    2.4125   16.2031 N   0  0  0  0  0  0  0  0  0  0  0  0
   -0.9088    3.1051   15.0079 C   0  0  0  0  0  0  0  0  0  0  0  0
   -1.8378    3.7551   14.4877 O   0  0  0  0  0  0  0  0  0  0  0  0
   -0.1974    1.9344   16.5073 H   0  0  0  0  0  0  0  0  0  0  0  0
    0.4457    3.0983   14.3389 C   0  0  0  0  0  0  0  0  0  0  0  0
    1.3894    2.0474   14.3596 C   0  0  0  0  0  0  0  0  0  0  0  0
    2.6055    2.2571   13.6997 C   0  0  0  0  0  0  0  0  0  0  0  0
    2.9244    3.4358   13.0549 N   0  0  0  0  0  0  0  0  0  0  0  0
    2.0398    4.4509   13.0646 C   0  0  0  0  0  0  0  0  0  0  0  0
    0.7972    4.2995   13.7148 C   0  0  0  0  0  0  0  0  0  0  0  0
    2.3735    5.6706   12.4271 N   0  0  0  0  0  0  0  0  0  0  0  0
    1.3487    6.7421   12.2774 C   0  0  0  0  0  0  0  0  0  0  0  0
    1.8399    7.8924   11.3379 C   0  0  0  0  0  0  0  0  0  0  0  0
    3.2176    8.1881   11.5738 O   0  0  0  0  0  0  0  0  0  0  0  0
    3.9516    6.9716   11.3500 C   0  0  0  0  0  0  0  0  0  0  0  0
    3.7537    6.1295   12.5861 C   0  0  0  0  0  0  0  0  0  0  0  0
   -3.1576    3.2517   20.4704 N   0  0  0  0  0  0  0  0  0  0  0  0
   -2.8642    2.6452   21.1882 H   0  0  0  0  0  0  0  0  0  0  0  0
   -4.1506    5.7216   24.8482 C   0  0  0  0  0  0  0  0  0  0  0  0
   -4.2672    6.6013   23.7582 C   0  0  0  0  0  0  0  0  0  0  0  0
   -4.0417    6.1924   22.4537 C   0  0  0  0  0  0  0  0  0  0  0  0
   -4.1781    7.1120   21.5068 N   0  0  0  0  0  0  0  0  0  0  0  0
   -3.9569    6.7261   20.2593 C   0  0  0  0  0  0  0  0  0  0  0  0
   -3.6064    5.4928   19.8801 N   0  0  0  0  0  0  0  0  0  0  0  0
   -3.4919    4.5699   20.8415 C   0  0  0  0  0  0  0  0  0  0  0  0
   -3.6845    4.8590   22.1872 C   0  0  0  0  0  0  0  0  0  0  0  0
   -3.5748    3.9287   23.2492 C   0  0  0  0  0  0  0  0  0  0  0  0
   -3.8072    4.3850   24.5828 C   0  0  0  0  0  0  0  0  0  0  0  0
   -3.6169    7.0818   26.8127 C   0  0  0  0  0  0  0  0  0  0  0  0
   -4.3537    6.0262   26.1984 O   0  0  0  0  0  0  0  0  0  0  0  0
   -3.7261    3.6157   25.7073 O   0  0  0  0  0  0  0  0  0  0  0  0
   -2.8513    2.4854   25.6057 C   0  0  0  0  0  0  0  0  0  0  0  0
   -3.6382    1.1624   25.8240 C   0  0  0  0  0  0  0  0  0  0  0  0
   -3.6156    0.2640   24.6553 N   0  0  0  0  0  0  0  0  0  0  0  0
   -4.4910    0.5676   23.5128 C   0  0  0  0  0  0  0  0  0  0  0  0
   -4.0094   -0.5086   22.5515 C   0  0  0  0  0  0  0  0  0  0  0  0
   -4.0217   -1.7230   23.4757 C   0  0  0  0  0  0  0  0  0  0  0  0
   -3.8055   -1.1770   24.8976 C   0  0  0  0  0  0  0  0  0  0  0  0
 36 37  1  0  0  0
 37 26  1  0  0  0
 26 27  2  0  0  0
 26 35  1  0  0  0
 27 28  1  0  0  0
 28 29  2  0  0  0
 28 33  1  0  0  0
 29 30  1  0  0  0
 30 31  2  0  0  0
 31 32  1  0  0  0
 32 24  1  0  0  0
 32 33  2  0  0  0
 24  1  1  0  0  0
  1  2  2  0  0  0
  1  6  1  0  0  0
  2  3  1  0  0  0
  3  8  1  0  0  0
  3  4  2  0  0  0
  8  9  1  0  0  0
  9 10  2  0  0  0
  9 12  1  0  0  0
 12 13  2  0  0  0
 12 17  1  0  0  0
 13 14  1  0  0  0
 14 15  2  0  0  0
 15 16  1  0  0  0
 16 17  2  0  0  0
 16 18  1  0  0  0
 18 19  1  0  0  0
 18 23  1  0  0  0
 19 20  1  0  0  0
 20 21  1  0  0  0
 21 22  1  0  0  0
 22 23  1  0  0  0
  4  5  1  0  0  0
  5  6  2  0  0  0
  6  7  1  0  0  0
 33 34  1  0  0  0
 34 35  2  0  0  0
 35 38  1  0  0  0
 38 39  1  0  0  0
 39 40  1  0  0  0
 40 41  1  0  0  0
 41 42  1  0  0  0
 41 45  1  0  0  0
 42 43  1  0  0  0
 43 44  1  0  0  0
 44 45  1  0  0  0
 24 25  1  0  0  0
  8 11  1  0  0  0
M  END
> <minimizedAffinity>
-9.82886

$$$$
2BAK_AQZ_A_401


 45 50  0  0  0  0  0  0  0  0999 V2000
   -3.7224    3.2222   19.6150 C   0  0  0  0  0  0  0  0  0  0  0  0
   -2.8756    3.6057   18.5638 C   0  0  0  0  0  0  0  0  0  0  0  0
   -3.0383    3.0309   17.2937 C   0  0  0  0  0  0  0  0  0  0  0  0
   -4.0210    2.0633   17.1083 C   0  0  0  0  0  0  0  0  0  0  0  0
   -4.8609    1.6945   18.1360 C   0  0  0  0  0  0  0  0  0  0  0  0
   -4.7393    2.2389   19.4021 C   0  0  0  0  0  0  0  0  0  0  0  0
   -5.7305    1.7496   20.4449 C   0  0  0  0  0  0  0  0  0  0  0  0
   -2.1789    3.4242   16.2471 N   0  0  0  0  0  0  0  0  0  0  0  0
   -1.0189    2.7749   15.8602 C   0  0  0  0  0  0  0  0  0  0  0  0
   -0.5697    1.7417   16.3957 O   0  0  0  0  0  0  0  0  0  0  0  0
   -2.4264    4.2346   15.7457 H   0  0  0  0  0  0  0  0  0  0  0  0
   -0.2988    3.3540   14.6650 C   0  0  0  0  0  0  0  0  0  0  0  0
   -0.7737    4.3716   13.8080 C   0  0  0  0  0  0  0  0  0  0  0  0
    0.0404    4.7430   12.7320 C   0  0  0  0  0  0  0  0  0  0  0  0
    1.2605    4.1538   12.4660 N   0  0  0  0  0  0  0  0  0  0  0  0
    1.6981    3.1596   13.2617 C   0  0  0  0  0  0  0  0  0  0  0  0
    0.9208    2.7404   14.3617 C   0  0  0  0  0  0  0  0  0  0  0  0
    2.9366    2.5347   12.9771 N   0  0  0  0  0  0  0  0  0  0  0  0
    3.0983    1.0669   13.1778 C   0  0  0  0  0  0  0  0  0  0  0  0
    4.5921    0.6210   13.0471 C   0  0  0  0  0  0  0  0  0  0  0  0
    5.2386    1.3164   11.9796 O   0  0  0  0  0  0  0  0  0  0  0  0
    5.1284    2.7214   12.2672 C   0  0  0  0  0  0  0  0  0  0  0  0
    3.7227    3.1174   11.8892 C   0  0  0  0  0  0  0  0  0  0  0  0
   -3.6017    3.8343   20.8694 N   0  0  0  0  0  0  0  0  0  0  0  0
   -3.3358    3.2605   21.6239 H   0  0  0  0  0  0  0  0  0  0  0  0
   -4.2770    6.6850   25.0730 C   0  0  0  0  0  0  0  0  0  0  0  0
   -4.3613    7.4891   23.9232 C   0  0  0  0  0  0  0  0  0  0  0  0
   -4.2062    6.9703   22.6479 C   0  0  0  0  0  0  0  0  0  0  0  0
   -4.3030    7.8261   21.6384 N   0  0  0  0  0  0  0  0  0  0  0  0
   -4.1488    7.3346   20.4183 C   0  0  0  0  0  0  0  0  0  0  0  0
   -3.9018    6.0539   20.1240 N   0  0  0  0  0  0  0  0  0  0  0  0
   -3.8266    5.1976   21.1488 C   0  0  0  0  0  0  0  0  0  0  0  0
   -3.9565    5.5978   22.4734 C   0  0  0  0  0  0  0  0  0  0  0  0
   -3.8836    4.7418   23.5991 C   0  0  0  0  0  0  0  0  0  0  0  0
   -4.0412    5.3104   24.9001 C   0  0  0  0  0  0  0  0  0  0  0  0
   -3.6383    8.1906   26.8948 C   0  0  0  0  0  0  0  0  0  0  0  0
   -4.4161    7.1017   26.4011 O   0  0  0  0  0  0  0  0  0  0  0  0
   -3.9830    4.6212   26.0768 O   0  0  0  0  0  0  0  0  0  0  0  0
   -2.7300    3.9779   26.3402 C   0  0  0  0  0  0  0  0  0  0  0  0
   -1.9059    4.7888   27.3796 C   0  0  0  0  0  0  0  0  0  0  0  0
   -0.4481    4.6806   27.1889 N   0  0  0  0  0  0  0  0  0  0  0  0
    0.0675    3.7077   26.2135 C   0  0  0  0  0  0  0  0  0  0  0  0
    1.5433    4.0721   26.2711 C   0  0  0  0  0  0  0  0  0  0  0  0
    1.7518    4.1209   27.7822 C   0  0  0  0  0  0  0  0  0  0  0  0
    0.3849    4.4830   28.3882 C   0  0  0  0  0  0  0  0  0  0  0  0
 36 37  1  0  0  0
 37 26  1  0  0  0
 26 27  2  0  0  0
 26 35  1  0  0  0
 27 28  1  0  0  0
 28 29  2  0  0  0
 28 33  1  0  0  0
 29 30  1  0  0  0
 30 31  2  0  0  0
 31 32  1  0  0  0
 32 24  1  0  0  0
 32 33  2  0  0  0
 24  1  1  0  0  0
  1  2  2  0  0  0
  1  6  1  0  0  0
  2  3  1  0  0  0
  3  8  1  0  0  0
  3  4  2  0  0  0
  8  9  1  0  0  0
  9 10  2  0  0  0
  9 12  1  0  0  0
 12 13  2  0  0  0
 12 17  1  0  0  0
 13 14  1  0  0  0
 14 15  2  0  0  0
 15 16  1  0  0  0
 16 17  2  0  0  0
 16 18  1  0  0  0
 18 19  1  0  0  0
 18 23  1  0  0  0
 19 20  1  0  0  0
 20 21  1  0  0  0
 21 22  1  0  0  0
 22 23  1  0  0  0
  4  5  1  0  0  0
  5  6  2  0  0  0
  6  7  1  0  0  0
 33 34  1  0  0  0
 34 35  2  0  0  0
 35 38  1  0  0  0
 38 39  1  0  0  0
 39 40  1  0  0  0
 40 41  1  0  0  0
 41 42  1  0  0  0
 41 45  1  0  0  0
 42 43  1  0  0  0
 43 44  1  0  0  0
 44 45  1  0  0  0
 24 25  1  0  0  0
  8 11  1  0  0  0
M  END
> <minimizedAffinity>
-9.82696

$$$$
2BAK_AQZ_A_401


 45 50  0  0  0  0  0  0  0  0999 V2000
   -3.5354    0.9814   26.0666 C   0  0  0  0  0  0  0  0  0  0  0  0
   -3.7801    1.2727   24.7158 C   0  0  0  0  0  0  0  0  0  0  0  0
   -4.5579    0.3953   23.9443 C   0  0  0  0  0  0  0  0  0  0  0  0
   -5.0476   -0.7688   24.5285 C   0  0  0  0  0  0  0  0  0  0  0  0
   -4.8184   -1.0502   25.8574 C   0  0  0  0  0  0  0  0  0  0  0  0
   -4.0618   -0.2111   26.6557 C   0  0  0  0  0  0  0  0  0  0  0  0
   -3.8878   -0.6344   28.1048 C   0  0  0  0  0  0  0  0  0  0  0  0
   -4.7941    0.6996   22.5877 N   0  0  0  0  0  0  0  0  0  0  0  0
   -4.4039   -0.0669   21.5027 C   0  0  0  0  0  0  0  0  0  0  0  0
   -3.7787   -1.1436   21.5806 O   0  0  0  0  0  0  0  0  0  0  0  0
   -5.2809    1.5333   22.3944 H   0  0  0  0  0  0  0  0  0  0  0  0
   -4.8299    0.4372   20.1438 C   0  0  0  0  0  0  0  0  0  0  0  0
   -6.1433    0.4483   19.6240 C   0  0  0  0  0  0  0  0  0  0  0  0
   -6.3194    0.9306   18.3221 C   0  0  0  0  0  0  0  0  0  0  0  0
   -5.2781    1.3722   17.5301 N   0  0  0  0  0  0  0  0  0  0  0  0
   -4.0215    1.3292   18.0119 C   0  0  0  0  0  0  0  0  0  0  0  0
   -3.7807    0.8517   19.3172 C   0  0  0  0  0  0  0  0  0  0  0  0
   -2.9477    1.7564   17.1934 N   0  0  0  0  0  0  0  0  0  0  0  0
   -3.2153    2.5515   15.9616 C   0  0  0  0  0  0  0  0  0  0  0  0
   -1.9341    2.7075   15.0778 C   0  0  0  0  0  0  0  0  0  0  0  0
   -0.7805    2.9323   15.8900 O   0  0  0  0  0  0  0  0  0  0  0  0
   -0.6732    1.8116   16.7851 C   0  0  0  0  0  0  0  0  0  0  0  0
   -1.6873    2.0487   17.8766 C   0  0  0  0  0  0  0  0  0  0  0  0
   -2.8081    1.8819   26.8557 N   0  0  0  0  0  0  0  0  0  0  0  0
   -3.2977    2.3450   27.5734 H   0  0  0  0  0  0  0  0  0  0  0  0
   -0.0333    6.0625   25.8186 C   0  0  0  0  0  0  0  0  0  0  0  0
    0.8093    4.9491   25.9797 C   0  0  0  0  0  0  0  0  0  0  0  0
    0.3166    3.6887   26.2765 C   0  0  0  0  0  0  0  0  0  0  0  0
    1.2076    2.7143   26.4090 N   0  0  0  0  0  0  0  0  0  0  0  0
    0.7404    1.5094   26.6990 C   0  0  0  0  0  0  0  0  0  0  0  0
   -0.5486    1.1986   26.8712 N   0  0  0  0  0  0  0  0  0  0  0  0
   -1.4386    2.1850   26.7151 C   0  0  0  0  0  0  0  0  0  0  0  0
   -1.0677    3.4925   26.4251 C   0  0  0  0  0  0  0  0  0  0  0  0
   -1.9601    4.5783   26.2517 C   0  0  0  0  0  0  0  0  0  0  0  0
   -1.4183    5.8660   25.9531 C   0  0  0  0  0  0  0  0  0  0  0  0
    1.2872    7.6222   24.4703 C   0  0  0  0  0  0  0  0  0  0  0  0
    0.3548    7.3731   25.5206 O   0  0  0  0  0  0  0  0  0  0  0  0
   -2.1449    7.0072   25.7725 O   0  0  0  0  0  0  0  0  0  0  0  0
   -3.5466    6.8044   25.5554 C   0  0  0  0  0  0  0  0  0  0  0  0
   -4.0159    7.5498   24.2743 C   0  0  0  0  0  0  0  0  0  0  0  0
   -3.8073    6.7793   23.0349 N   0  0  0  0  0  0  0  0  0  0  0  0
   -4.7784    6.9250   21.9395 C   0  0  0  0  0  0  0  0  0  0  0  0
   -4.0720    6.0895   20.8826 C   0  0  0  0  0  0  0  0  0  0  0  0
   -3.7273    4.8496   21.7028 C   0  0  0  0  0  0  0  0  0  0  0  0
   -3.6028    5.3255   23.1604 C   0  0  0  0  0  0  0  0  0  0  0  0
 36 37  1  0  0  0
 37 26  1  0  0  0
 26 27  2  0  0  0
 26 35  1  0  0  0
 27 28  1  0  0  0
 28 29  2  0  0  0
 28 33  1  0  0  0
 29 30  1  0  0  0
 30 31  2  0  0  0
 31 32  1  0  0  0
 32 24  1  0  0  0
 32 33  2  0  0  0
 24  1  1  0  0  0
  1  2  2  0  0  0
  1  6  1  0  0  0
  2  3  1  0  0  0
  3  8  1  0  0  0
  3  4  2  0  0  0
  8  9  1  0  0  0
  9 10  2  0  0  0
  9 12  1  0  0  0
 12 13  2  0  0  0
 12 17  1  0  0  0
 13 14  1  0  0  0
 14 15  2  0  0  0
 15 16  1  0  0  0
 16 17  2  0  0  0
 16 18  1  0  0  0
 18 19  1  0  0  0
 18 23  1  0  0  0
 19 20  1  0  0  0
 20 21  1  0  0  0
 21 22  1  0  0  0
 22 23  1  0  0  0
  4  5  1  0  0  0
  5  6  2  0  0  0
  6  7  1  0  0  0
 33 34  1  0  0  0
 34 35  2  0  0  0
 35 38  1  0  0  0
 38 39  1  0  0  0
 39 40  1  0  0  0
 40 41  1  0  0  0
 41 42  1  0  0  0
 41 45  1  0  0  0
 42 43  1  0  0  0
 43 44  1  0  0  0
 44 45  1  0  0  0
 24 25  1  0  0  0
  8 11  1  0  0  0
M  END
> <minimizedAffinity>
-9.74135

$$$$
2BAK_AQZ_A_401


 45 50  0  0  0  0  0  0  0  0999 V2000
   -4.0854    0.8659   24.1859 C   0  0  0  0  0  0  0  0  0  0  0  0
   -4.2219    1.2568   22.8451 C   0  0  0  0  0  0  0  0  0  0  0  0
   -4.3882    0.2817   21.8493 C   0  0  0  0  0  0  0  0  0  0  0  0
   -4.3828   -1.0625   22.2090 C   0  0  0  0  0  0  0  0  0  0  0  0
   -4.2610   -1.4473   23.5260 C   0  0  0  0  0  0  0  0  0  0  0  0
   -4.1001   -0.5200   24.5400 C   0  0  0  0  0  0  0  0  0  0  0  0
   -3.9813   -1.0753   25.9495 C   0  0  0  0  0  0  0  0  0  0  0  0
   -4.5222    0.6888   20.5057 N   0  0  0  0  0  0  0  0  0  0  0  0
   -5.7151    0.8997   19.8353 C   0  0  0  0  0  0  0  0  0  0  0  0
   -6.8481    0.7524   20.3360 O   0  0  0  0  0  0  0  0  0  0  0  0
   -3.6917    0.8364   19.9981 H   0  0  0  0  0  0  0  0  0  0  0  0
   -5.6007    1.3967   18.4133 C   0  0  0  0  0  0  0  0  0  0  0  0
   -6.6626    1.5950   17.5030 C   0  0  0  0  0  0  0  0  0  0  0  0
   -6.3365    2.0328   16.2144 C   0  0  0  0  0  0  0  0  0  0  0  0
   -5.0401    2.2582   15.7959 N   0  0  0  0  0  0  0  0  0  0  0  0
   -4.0247    2.0357   16.6519 C   0  0  0  0  0  0  0  0  0  0  0  0
   -4.2907    1.5924   17.9643 C   0  0  0  0  0  0  0  0  0  0  0  0
   -2.6921    2.2403   16.2186 N   0  0  0  0  0  0  0  0  0  0  0  0
   -2.3708    3.3587   15.2876 C   0  0  0  0  0  0  0  0  0  0  0  0
   -0.9082    3.2613   14.7412 C   0  0  0  0  0  0  0  0  0  0  0  0
   -0.0074    2.8485   15.7704 O   0  0  0  0  0  0  0  0  0  0  0  0
   -0.4777    1.5784   16.2543 C   0  0  0  0  0  0  0  0  0  0  0  0
   -1.6386    1.8821   17.1687 C   0  0  0  0  0  0  0  0  0  0  0  0
   -3.9767    1.8369   25.1900 N   0  0  0  0  0  0  0  0  0  0  0  0
   -4.7988    2.0686   25.6796 H   0  0  0  0  0  0  0  0  0  0  0  0
   -2.5235    6.7206   25.7286 C   0  0  0  0  0  0  0  0  0  0  0  0
   -1.4483    5.8608   26.0119 C   0  0  0  0  0  0  0  0  0  0  0  0
   -1.5711    4.4822   25.9508 C   0  0  0  0  0  0  0  0  0  0  0  0
   -0.4889    3.7720   26.2427 N   0  0  0  0  0  0  0  0  0  0  0  0
   -0.6045    2.4536   26.1916 C   0  0  0  0  0  0  0  0  0  0  0  0
   -1.7182    1.7849   25.8745 N   0  0  0  0  0  0  0  0  0  0  0  0
   -2.7966    2.5121   25.5625 C   0  0  0  0  0  0  0  0  0  0  0  0
   -2.8012    3.9014   25.5952 C   0  0  0  0  0  0  0  0  0  0  0  0
   -3.9090    4.7251   25.2798 C   0  0  0  0  0  0  0  0  0  0  0  0
   -3.7502    6.1425   25.3595 C   0  0  0  0  0  0  0  0  0  0  0  0
   -2.0814    8.8049   26.9344 C   0  0  0  0  0  0  0  0  0  0  0  0
   -2.5112    8.1191   25.7600 O   0  0  0  0  0  0  0  0  0  0  0  0
   -4.7240    7.0633   25.1009 O   0  0  0  0  0  0  0  0  0  0  0  0
   -5.4548    6.8469   23.8876 C   0  0  0  0  0  0  0  0  0  0  0  0
   -4.6347    7.3340   22.6599 C   0  0  0  0  0  0  0  0  0  0  0  0
   -4.3699    6.2739   21.6703 N   0  0  0  0  0  0  0  0  0  0  0  0
   -3.6167    5.0833   22.0935 C   0  0  0  0  0  0  0  0  0  0  0  0
   -3.7371    4.2604   20.8198 C   0  0  0  0  0  0  0  0  0  0  0  0
   -3.3648    5.3138   19.7801 C   0  0  0  0  0  0  0  0  0  0  0  0
   -3.7523    6.6707   20.3927 C   0  0  0  0  0  0  0  0  0  0  0  0
 36 37  1  0  0  0
 37 26  1  0  0  0
 26 27  2  0  0  0
 26 35  1  0  0  0
 27 28  1  0  0  0
 28 29  2  0  0  0
 28 33  1  0  0  0
 29 30  1  0  0  0
 30 31  2  0  0  0
 31 32  1  0  0  0
 32 24  1  0  0  0
 32 33  2  0  0  0
 24  1  1  0  0  0
  1  2  2  0  0  0
  1  6  1  0  0  0
  2  3  1  0  0  0
  3  8  1  0  0  0
  3  4  2  0  0  0
  8  9  1  0  0  0
  9 10  2  0  0  0
  9 12  1  0  0  0
 12 13  2  0  0  0
 12 17  1  0  0  0
 13 14  1  0  0  0
 14 15  2  0  0  0
 15 16  1  0  0  0
 16 17  2  0  0  0
 16 18  1  0  0  0
 18 19  1  0  0  0
 18 23  1  0  0  0
 19 20  1  0  0  0
 20 21  1  0  0  0
 21 22  1  0  0  0
 22 23  1  0  0  0
  4  5  1  0  0  0
  5  6  2  0  0  0
  6  7  1  0  0  0
 33 34  1  0  0  0
 34 35  2  0  0  0
 35 38  1  0  0  0
 38 39  1  0  0  0
 39 40  1  0  0  0
 40 41  1  0  0  0
 41 42  1  0  0  0
 41 45  1  0  0  0
 42 43  1  0  0  0
 43 44  1  0  0  0
 44 45  1  0  0  0
 24 25  1  0  0  0
  8 11  1  0  0  0
M  END
> <minimizedAffinity>
-9.71645

$$$$
2BAK_AQZ_A_401


 45 50  0  0  0  0  0  0  0  0999 V2000
   -4.1056    2.4364   19.1536 C   0  0  0  0  0  0  0  0  0  0  0  0
   -3.1782    2.9295   18.2229 C   0  0  0  0  0  0  0  0  0  0  0  0
   -3.3744    2.6941   16.8532 C   0  0  0  0  0  0  0  0  0  0  0  0
   -4.4739    1.9454   16.4446 C   0  0  0  0  0  0  0  0  0  0  0  0
   -5.3915    1.4711   17.3559 C   0  0  0  0  0  0  0  0  0  0  0  0
   -5.2400    1.6838   18.7144 C   0  0  0  0  0  0  0  0  0  0  0  0
   -6.3246    1.1115   19.6120 C   0  0  0  0  0  0  0  0  0  0  0  0
   -2.4334    3.1938   15.9292 N   0  0  0  0  0  0  0  0  0  0  0  0
   -1.1394    2.7325   15.7568 C   0  0  0  0  0  0  0  0  0  0  0  0
   -0.6235    1.8017   16.4077 O   0  0  0  0  0  0  0  0  0  0  0  0
   -2.7231    3.9386   15.3542 H   0  0  0  0  0  0  0  0  0  0  0  0
   -0.3400    3.3883   14.6555 C   0  0  0  0  0  0  0  0  0  0  0  0
   -0.7261    4.5102   13.8889 C   0  0  0  0  0  0  0  0  0  0  0  0
    0.1516    4.9429   12.8884 C   0  0  0  0  0  0  0  0  0  0  0  0
    1.3516    4.3186   12.6111 N   0  0  0  0  0  0  0  0  0  0  0  0
    1.7043    3.2280   13.3177 C   0  0  0  0  0  0  0  0  0  0  0  0
    0.8598    2.7435   14.3384 C   0  0  0  0  0  0  0  0  0  0  0  0
    2.9217    2.5691   13.0188 N   0  0  0  0  0  0  0  0  0  0  0  0
    3.0467    1.0982   13.2231 C   0  0  0  0  0  0  0  0  0  0  0  0
    4.5261    0.6120   13.0740 C   0  0  0  0  0  0  0  0  0  0  0  0
    5.1765    1.2861   11.9952 O   0  0  0  0  0  0  0  0  0  0  0  0
    5.1079    2.6944   12.2788 C   0  0  0  0  0  0  0  0  0  0  0  0
    3.7082    3.1267   11.9182 C   0  0  0  0  0  0  0  0  0  0  0  0
   -3.9453    2.7172   20.5167 N   0  0  0  0  0  0  0  0  0  0  0  0
   -3.8115    1.9501   21.1192 H   0  0  0  0  0  0  0  0  0  0  0  0
   -4.0404    4.6020   25.2803 C   0  0  0  0  0  0  0  0  0  0  0  0
   -4.0491    5.6502   24.3439 C   0  0  0  0  0  0  0  0  0  0  0  0
   -4.0190    5.4189   22.9782 C   0  0  0  0  0  0  0  0  0  0  0  0
   -4.0272    6.4868   22.1906 N   0  0  0  0  0  0  0  0  0  0  0  0
   -3.9919    6.2693   20.8846 C   0  0  0  0  0  0  0  0  0  0  0  0
   -3.9456    5.0678   20.2998 N   0  0  0  0  0  0  0  0  0  0  0  0
   -3.9581    3.9988   21.1037 C   0  0  0  0  0  0  0  0  0  0  0  0
   -3.9790    4.1012   22.4895 C   0  0  0  0  0  0  0  0  0  0  0  0
   -3.9900    3.0099   23.3919 C   0  0  0  0  0  0  0  0  0  0  0  0
   -4.0144    3.2837   24.7938 C   0  0  0  0  0  0  0  0  0  0  0  0
   -2.9627    5.3007   27.3646 C   0  0  0  0  0  0  0  0  0  0  0  0
   -4.0677    4.7206   26.6739 O   0  0  0  0  0  0  0  0  0  0  0  0
   -4.0138    2.3437   25.7834 O   0  0  0  0  0  0  0  0  0  0  0  0
   -2.8301    1.5392   25.8533 C   0  0  0  0  0  0  0  0  0  0  0  0
   -3.1257    0.1909   26.5686 C   0  0  0  0  0  0  0  0  0  0  0  0
   -2.9534    0.2501   28.0315 N   0  0  0  0  0  0  0  0  0  0  0  0
   -4.1335    0.0678   28.8907 C   0  0  0  0  0  0  0  0  0  0  0  0
   -3.4423    0.0602   30.2458 C   0  0  0  0  0  0  0  0  0  0  0  0
   -2.5412    1.2829   30.0974 C   0  0  0  0  0  0  0  0  0  0  0  0
   -2.2633    1.4256   28.5911 C   0  0  0  0  0  0  0  0  0  0  0  0
 36 37  1  0  0  0
 37 26  1  0  0  0
 26 27  2  0  0  0
 26 35  1  0  0  0
 27 28  1  0  0  0
 28 29  2  0  0  0
 28 33  1  0  0  0
 29 30  1  0  0  0
 30 31  2  0  0  0
 31 32  1  0  0  0
 32 24  1  0  0  0
 32 33  2  0  0  0
 24  1  1  0  0  0
  1  2  2  0  0  0
  1  6  1  0  0  0
  2  3  1  0  0  0
  3  8  1  0  0  0
  3  4  2  0  0  0
  8  9  1  0  0  0
  9 10  2  0  0  0
  9 12  1  0  0  0
 12 13  2  0  0  0
 12 17  1  0  0  0
 13 14  1  0  0  0
 14 15  2  0  0  0
 15 16  1  0  0  0
 16 17  2  0  0  0
 16 18  1  0  0  0
 18 19  1  0  0  0
 18 23  1  0  0  0
 19 20  1  0  0  0
 20 21  1  0  0  0
 21 22  1  0  0  0
 22 23  1  0  0  0
  4  5  1  0  0  0
  5  6  2  0  0  0
  6  7  1  0  0  0
 33 34  1  0  0  0
 34 35  2  0  0  0
 35 38  1  0  0  0
 38 39  1  0  0  0
 39 40  1  0  0  0
 40 41  1  0  0  0
 41 42  1  0  0  0
 41 45  1  0  0  0
 42 43  1  0  0  0
 43 44  1  0  0  0
 44 45  1  0  0  0
 24 25  1  0  0  0
  8 11  1  0  0  0
M  END
> <minimizedAffinity>
-9.51936

$$$$
2BAK_AQZ_A_401


 45 50  0  0  0  0  0  0  0  0999 V2000
   -3.6481    6.2798   23.7582 C   0  0  0  0  0  0  0  0  0  0  0  0
   -3.6664    5.4081   22.6586 C   0  0  0  0  0  0  0  0  0  0  0  0
   -3.9856    5.9018   21.3841 C   0  0  0  0  0  0  0  0  0  0  0  0
   -4.3104    7.2473   21.2401 C   0  0  0  0  0  0  0  0  0  0  0  0
   -4.2812    8.1066   22.3163 C   0  0  0  0  0  0  0  0  0  0  0  0
   -3.9672    7.6638   23.5888 C   0  0  0  0  0  0  0  0  0  0  0  0
   -3.9667    8.7138   24.6875 C   0  0  0  0  0  0  0  0  0  0  0  0
   -4.0021    5.0141   20.2884 N   0  0  0  0  0  0  0  0  0  0  0  0
   -4.1761    3.6423   20.3562 C   0  0  0  0  0  0  0  0  0  0  0  0
   -4.3405    2.9974   21.4113 O   0  0  0  0  0  0  0  0  0  0  0  0
   -3.8786    5.4057   19.3936 H   0  0  0  0  0  0  0  0  0  0  0  0
   -4.2202    2.9107   19.0352 C   0  0  0  0  0  0  0  0  0  0  0  0
   -5.1969    1.9776   18.6220 C   0  0  0  0  0  0  0  0  0  0  0  0
   -5.0343    1.3852   17.3646 C   0  0  0  0  0  0  0  0  0  0  0  0
   -3.9671    1.6561   16.5314 N   0  0  0  0  0  0  0  0  0  0  0  0
   -3.0171    2.5190   16.9391 C   0  0  0  0  0  0  0  0  0  0  0  0
   -3.1254    3.1468   18.1976 C   0  0  0  0  0  0  0  0  0  0  0  0
   -1.9073    2.7797   16.0990 N   0  0  0  0  0  0  0  0  0  0  0  0
   -1.6508    4.1619   15.6045 C   0  0  0  0  0  0  0  0  0  0  0  0
   -0.5387    4.1914   14.5047 C   0  0  0  0  0  0  0  0  0  0  0  0
    0.5233    3.2934   14.8315 O   0  0  0  0  0  0  0  0  0  0  0  0
   -0.0592    1.9848   14.9607 C   0  0  0  0  0  0  0  0  0  0  0  0
   -0.7202    1.9524   16.3164 C   0  0  0  0  0  0  0  0  0  0  0  0
   -3.2745    5.8040   25.0218 N   0  0  0  0  0  0  0  0  0  0  0  0
   -3.9855    5.7227   25.6979 H   0  0  0  0  0  0  0  0  0  0  0  0
   -0.8831    1.4349   26.2240 C   0  0  0  0  0  0  0  0  0  0  0  0
    0.0024    2.5202   26.3409 C   0  0  0  0  0  0  0  0  0  0  0  0
   -0.3858    3.8212   26.0647 C   0  0  0  0  0  0  0  0  0  0  0  0
    0.5375    4.7636   26.2068 N   0  0  0  0  0  0  0  0  0  0  0  0
    0.1716    6.0076   25.9373 C   0  0  0  0  0  0  0  0  0  0  0  0
   -1.0450    6.3874   25.5328 N   0  0  0  0  0  0  0  0  0  0  0  0
   -1.9724    5.4311   25.4128 C   0  0  0  0  0  0  0  0  0  0  0  0
   -1.7033    4.0890   25.6532 C   0  0  0  0  0  0  0  0  0  0  0  0
   -2.6393    3.0324   25.5405 C   0  0  0  0  0  0  0  0  0  0  0  0
   -2.2043    1.7020   25.8262 C   0  0  0  0  0  0  0  0  0  0  0  0
    0.7502   -0.3744   26.4541 C   0  0  0  0  0  0  0  0  0  0  0  0
   -0.5988    0.0884   26.4754 O   0  0  0  0  0  0  0  0  0  0  0  0
   -2.9810    0.5823   25.7495 O   0  0  0  0  0  0  0  0  0  0  0  0
   -4.3668    0.8244   25.4773 C   0  0  0  0  0  0  0  0  0  0  0  0
   -4.9665   -0.3274   24.6225 C   0  0  0  0  0  0  0  0  0  0  0  0
   -4.2618   -0.5415   23.3454 N   0  0  0  0  0  0  0  0  0  0  0  0
   -4.8630   -0.0177   22.1092 C   0  0  0  0  0  0  0  0  0  0  0  0
   -3.7362   -0.3429   21.1403 C   0  0  0  0  0  0  0  0  0  0  0  0
   -3.4509   -1.7901   21.5321 C   0  0  0  0  0  0  0  0  0  0  0  0
   -3.8596   -1.9187   23.0096 C   0  0  0  0  0  0  0  0  0  0  0  0
 36 37  1  0  0  0
 37 26  1  0  0  0
 26 27  2  0  0  0
 26 35  1  0  0  0
 27 28  1  0  0  0
 28 29  2  0  0  0
 28 33  1  0  0  0
 29 30  1  0  0  0
 30 31  2  0  0  0
 31 32  1  0  0  0
 32 24  1  0  0  0
 32 33  2  0  0  0
 24  1  1  0  0  0
  1  2  2  0  0  0
  1  6  1  0  0  0
  2  3  1  0  0  0
  3  8  1  0  0  0
  3  4  2  0  0  0
  8  9  1  0  0  0
  9 10  2  0  0  0
  9 12  1  0  0  0
 12 13  2  0  0  0
 12 17  1  0  0  0
 13 14  1  0  0  0
 14 15  2  0  0  0
 15 16  1  0  0  0
 16 17  2  0  0  0
 16 18  1  0  0  0
 18 19  1  0  0  0
 18 23  1  0  0  0
 19 20  1  0  0  0
 20 21  1  0  0  0
 21 22  1  0  0  0
 22 23  1  0  0  0
  4  5  1  0  0  0
  5  6  2  0  0  0
  6  7  1  0  0  0
 33 34  1  0  0  0
 34 35  2  0  0  0
 35 38  1  0  0  0
 38 39  1  0  0  0
 39 40  1  0  0  0
 40 41  1  0  0  0
 41 42  1  0  0  0
 41 45  1  0  0  0
 42 43  1  0  0  0
 43 44  1  0  0  0
 44 45  1  0  0  0
 24 25  1  0  0  0
  8 11  1  0  0  0
M  END
> <minimizedAffinity>
-9.46751

$$$$
