4GR3_R45_A_306


 52 54  0  0  0  0  0  0  0  0999 V2000
    9.6466   26.4964    4.7405 O   0  0  0  0  0  0  0  0  0  0  0  0
    8.4266   26.5208    4.4372 C   0  0  0  0  0  0  0  0  0  0  0  0
    7.6305   27.5408    4.7246 N   0  0  0  0  0  0  0  0  0  0  0  0
    6.6632   27.4651    4.5579 H   0  0  0  0  0  0  0  0  0  0  0  0
    8.1699   28.7717    5.2840 C   0  0  0  0  0  0  0  0  0  0  0  0
    7.6568   29.0654    6.6884 C   0  0  0  0  0  0  0  0  0  0  0  0
    6.4705   28.9237    6.9849 O   0  0  0  0  0  0  0  0  0  0  0  0
    8.5696   29.4732    7.5604 N   0  0  0  0  0  0  0  0  0  0  0  0
    9.5192   29.4722    7.3003 H   0  0  0  0  0  0  0  0  0  0  0  0
    8.1980   29.9199    8.8875 C   0  0  0  0  0  0  0  0  0  0  0  0
    8.6975   31.3505    9.1129 C   0  0  0  0  0  0  0  0  0  0  0  0
    9.7656   31.7308    8.6237 O   0  0  0  0  0  0  0  0  0  0  0  0
    7.9311   32.1332    9.8658 N   0  0  0  0  0  0  0  0  0  0  0  0
    7.0867   31.7870   10.2352 H   0  0  0  0  0  0  0  0  0  0  0  0
    8.2078   33.0591   10.0541 H   0  0  0  0  0  0  0  0  0  0  0  0
    8.7953   28.9752    9.9207 C   0  0  0  0  0  0  0  0  0  0  0  0
    7.7845   28.2222   10.7480 C   0  0  0  0  0  0  0  0  0  0  0  0
    6.7937   29.1629   11.3871 C   0  0  0  0  0  0  0  0  0  0  0  0
    7.2249   30.0252   12.1850 O   0  0  0  0  0  0  0  0  0  0  0  0
    5.5825   29.0169   11.1162 O   0  0  0  0  0  0  0  0  0  0  0  0
    5.3145   28.3541   10.5105 H   0  0  0  0  0  0  0  0  0  0  0  0
    7.8879   29.9496    4.3439 C   0  0  0  0  0  0  0  0  0  0  0  0
    9.1451   30.6265    3.8146 C   0  0  0  0  0  0  0  0  0  0  0  0
    9.4643   31.9133    4.5448 C   0  0  0  0  0  0  0  0  0  0  0  0
    9.6389   32.9520    3.8731 O   0  0  0  0  0  0  0  0  0  0  0  0
    9.5446   31.8827    5.7902 O   0  0  0  0  0  0  0  0  0  0  0  0
    9.4050   31.0777    6.2490 H   0  0  0  0  0  0  0  0  0  0  0  0
    7.7958   25.3699    3.7144 C   0  0  0  0  0  0  0  0  0  0  0  0
    8.8791   24.8498    2.7612 C   0  0  0  0  0  0  0  0  0  0  0  0
    8.6318   25.1842    0.9946 P   0  0  0  0  0  0  0  0  0  0  0  0
    8.9921   23.9849    0.1336 O   0  0  0  0  0  0  0  0  0  0  0  0
    7.2542   25.7608    0.7632 O   0  0  0  0  0  0  0  0  0  0  0  0
    8.8471   24.2022   -0.8005 H   0  0  0  0  0  0  0  0  0  0  0  0
    9.7555   26.4580    0.5543 C   0  0  0  0  0  0  0  0  0  0  0  0
    9.8634   27.6153    1.3239 C   0  0  0  0  0  0  0  0  0  0  0  0
   10.7605   28.6160    0.9466 C   0  0  0  0  0  0  0  0  0  0  0  0
   11.5324   28.4700   -0.2042 C   0  0  0  0  0  0  0  0  0  0  0  0
   12.7578   29.8266   -0.7294 Br  0  0  0  0  0  0  0  0  0  0  0  0
   11.4165   27.3166   -0.9759 C   0  0  0  0  0  0  0  0  0  0  0  0
   10.5262   26.3186   -0.5906 C   0  0  0  0  0  0  0  0  0  0  0  0
    7.4574   24.2969    4.7359 C   0  0  0  0  0  0  0  0  0  0  0  0
    3.7632   24.3137    4.7878 N   0  0  0  0  0  0  0  0  0  0  0  0
    4.9686   24.7053    4.4029 O   0  0  0  0  0  0  0  0  0  0  0  0
    5.3494   23.1001    5.8298 C   0  0  0  0  0  0  0  0  0  0  0  0
    3.9656   23.3041    5.6679 C   0  0  0  0  0  0  0  0  0  0  0  0
    5.9888   24.0209    4.9972 C   0  0  0  0  0  0  0  0  0  0  0  0
    2.8175   22.6369    6.3463 C   0  0  0  0  0  0  0  0  0  0  0  0
    2.9831   21.5862    7.2403 C   0  0  0  0  0  0  0  0  0  0  0  0
    1.8703   21.0138    7.8649 C   0  0  0  0  0  0  0  0  0  0  0  0
    0.5926   21.5139    7.6128 C   0  0  0  0  0  0  0  0  0  0  0  0
    0.4315   22.5776    6.7301 C   0  0  0  0  0  0  0  0  0  0  0  0
    1.5434   23.1447    6.1100 C   0  0  0  0  0  0  0  0  0  0  0  0
 38 37  1  0  0  0
 36 37  2  0  0  0
 36 35  1  0  0  0
 37 39  1  0  0  0
 35 34  2  0  0  0
 39 40  2  0  0  0
 34 40  1  0  0  0
 34 30  1  0  0  0
 32 30  2  0  0  0
 30 31  1  0  0  0
 30 29  1  0  0  0
 25 24  2  0  0  0
 29 28  1  0  0  0
 24 26  1  0  0  0
 24 23  1  0  0  0
 23 22  1  0  0  0
 28 41  1  0  0  0
 28  2  1  0  0  0
 41 46  1  0  0  0
  3  2  1  0  0  0
  3  5  1  0  0  0
  2  1  2  0  0  0
 22  5  1  0  0  0
 46 44  2  0  0  0
 46 43  1  0  0  0
 44 45  1  0  0  0
  5  6  1  0  0  0
 48 49  2  0  0  0
 48 47  1  0  0  0
 43 42  1  0  0  0
 45 47  1  0  0  0
 45 42  2  0  0  0
 49 50  1  0  0  0
 47 52  2  0  0  0
  6  7  2  0  0  0
  6  8  1  0  0  0
 50 51  2  0  0  0
 52 51  1  0  0  0
  8 10  1  0  0  0
 13 11  1  0  0  0
 11 10  1  0  0  0
 11 12  2  0  0  0
 10 16  1  0  0  0
 16 17  1  0  0  0
 17 18  1  0  0  0
 18 19  2  0  0  0
 18 20  1  0  0  0
 31 33  1  0  0  0
  3  4  1  0  0  0
 26 27  1  0  0  0
  8  9  1  0  0  0
 20 21  1  0  0  0
 13 14  1  0  0  0
 13 15  1  0  0  0
M  END
> <minimizedAffinity>
-9.83543

$$$$
4GR3_R45_A_306


 52 54  0  0  0  0  0  0  0  0999 V2000
    9.5298   26.6129    4.7939 O   0  0  0  0  0  0  0  0  0  0  0  0
    8.3279   26.6997    4.4347 C   0  0  0  0  0  0  0  0  0  0  0  0
    7.5453   27.7161    4.7681 N   0  0  0  0  0  0  0  0  0  0  0  0
    6.5861   27.6840    4.5486 H   0  0  0  0  0  0  0  0  0  0  0  0
    8.0877   28.8793    5.4549 C   0  0  0  0  0  0  0  0  0  0  0  0
    7.5234   29.0616    6.8587 C   0  0  0  0  0  0  0  0  0  0  0  0
    6.3131   29.1593    7.0602 O   0  0  0  0  0  0  0  0  0  0  0  0
    8.4183   29.1003    7.8373 N   0  0  0  0  0  0  0  0  0  0  0  0
    9.3637   28.9160    7.6336 H   0  0  0  0  0  0  0  0  0  0  0  0
    8.0329   29.4080    9.1995 C   0  0  0  0  0  0  0  0  0  0  0  0
    9.0232   30.4071    9.8064 C   0  0  0  0  0  0  0  0  0  0  0  0
   10.2377   30.1855    9.7833 O   0  0  0  0  0  0  0  0  0  0  0  0
    8.5001   31.4960   10.3612 N   0  0  0  0  0  0  0  0  0  0  0  0
    7.5250   31.6310   10.3562 H   0  0  0  0  0  0  0  0  0  0  0  0
    9.0880   32.1674   10.7770 H   0  0  0  0  0  0  0  0  0  0  0  0
    8.0014   28.1230   10.0147 C   0  0  0  0  0  0  0  0  0  0  0  0
    7.9116   28.3228   11.5064 C   0  0  0  0  0  0  0  0  0  0  0  0
    8.9787   27.5373   12.2269 C   0  0  0  0  0  0  0  0  0  0  0  0
    8.7922   26.3132   12.4091 O   0  0  0  0  0  0  0  0  0  0  0  0
    9.9862   28.1512   12.6388 O   0  0  0  0  0  0  0  0  0  0  0  0
   10.0751   29.0693   12.4741 H   0  0  0  0  0  0  0  0  0  0  0  0
    7.8701   30.1418    4.6125 C   0  0  0  0  0  0  0  0  0  0  0  0
    8.7275   30.1955    3.3552 C   0  0  0  0  0  0  0  0  0  0  0  0
   10.0343   30.9273    3.5731 C   0  0  0  0  0  0  0  0  0  0  0  0
   11.0464   30.5368    2.9537 O   0  0  0  0  0  0  0  0  0  0  0  0
   10.0481   31.8899    4.3679 O   0  0  0  0  0  0  0  0  0  0  0  0
    9.2615   32.1447    4.8088 H   0  0  0  0  0  0  0  0  0  0  0  0
    7.7048   25.6324    3.5875 C   0  0  0  0  0  0  0  0  0  0  0  0
    8.7654   25.2814    2.5365 C   0  0  0  0  0  0  0  0  0  0  0  0
    9.0073   26.4825    1.1976 P   0  0  0  0  0  0  0  0  0  0  0  0
    7.7639   27.3223    0.9564 O   0  0  0  0  0  0  0  0  0  0  0  0
   10.2838   27.2598    1.4218 O   0  0  0  0  0  0  0  0  0  0  0  0
    7.9323   27.9498    0.2362 H   0  0  0  0  0  0  0  0  0  0  0  0
    9.2687   25.5615   -0.2729 C   0  0  0  0  0  0  0  0  0  0  0  0
   10.0099   24.3810   -0.2563 C   0  0  0  0  0  0  0  0  0  0  0  0
   10.2084   23.6719   -1.4422 C   0  0  0  0  0  0  0  0  0  0  0  0
    9.6855   24.1494   -2.6421 C   0  0  0  0  0  0  0  0  0  0  0  0
    9.9495   23.1929   -4.2649 Br  0  0  0  0  0  0  0  0  0  0  0  0
    8.9526   25.3335   -2.6574 C   0  0  0  0  0  0  0  0  0  0  0  0
    8.7510   26.0322   -1.4707 C   0  0  0  0  0  0  0  0  0  0  0  0
    7.4396   24.4228    4.4682 C   0  0  0  0  0  0  0  0  0  0  0  0
    3.7549   24.3545    4.7291 N   0  0  0  0  0  0  0  0  0  0  0  0
    4.9271   24.7707    4.2739 O   0  0  0  0  0  0  0  0  0  0  0  0
    5.4256   23.1866    5.6880 C   0  0  0  0  0  0  0  0  0  0  0  0
    4.0304   23.3571    5.6033 C   0  0  0  0  0  0  0  0  0  0  0  0
    5.9951   24.1151    4.8142 C   0  0  0  0  0  0  0  0  0  0  0  0
    2.9385   22.6692    6.3503 C   0  0  0  0  0  0  0  0  0  0  0  0
    3.1828   21.6618    7.2756 C   0  0  0  0  0  0  0  0  0  0  0  0
    2.1200   21.0679    7.9639 C   0  0  0  0  0  0  0  0  0  0  0  0
    0.8133   21.5038    7.7434 C   0  0  0  0  0  0  0  0  0  0  0  0
    0.5733   22.5248    6.8288 C   0  0  0  0  0  0  0  0  0  0  0  0
    1.6356   23.1135    6.1452 C   0  0  0  0  0  0  0  0  0  0  0  0
 38 37  1  0  0  0
 36 37  2  0  0  0
 36 35  1  0  0  0
 37 39  1  0  0  0
 35 34  2  0  0  0
 39 40  2  0  0  0
 34 40  1  0  0  0
 34 30  1  0  0  0
 32 30  2  0  0  0
 30 31  1  0  0  0
 30 29  1  0  0  0
 25 24  2  0  0  0
 29 28  1  0  0  0
 24 26  1  0  0  0
 24 23  1  0  0  0
 23 22  1  0  0  0
 28 41  1  0  0  0
 28  2  1  0  0  0
 41 46  1  0  0  0
  3  2  1  0  0  0
  3  5  1  0  0  0
  2  1  2  0  0  0
 22  5  1  0  0  0
 46 44  2  0  0  0
 46 43  1  0  0  0
 44 45  1  0  0  0
  5  6  1  0  0  0
 48 49  2  0  0  0
 48 47  1  0  0  0
 43 42  1  0  0  0
 45 47  1  0  0  0
 45 42  2  0  0  0
 49 50  1  0  0  0
 47 52  2  0  0  0
  6  7  2  0  0  0
  6  8  1  0  0  0
 50 51  2  0  0  0
 52 51  1  0  0  0
  8 10  1  0  0  0
 13 11  1  0  0  0
 11 10  1  0  0  0
 11 12  2  0  0  0
 10 16  1  0  0  0
 16 17  1  0  0  0
 17 18  1  0  0  0
 18 19  2  0  0  0
 18 20  1  0  0  0
 31 33  1  0  0  0
  3  4  1  0  0  0
 26 27  1  0  0  0
  8  9  1  0  0  0
 20 21  1  0  0  0
 13 14  1  0  0  0
 13 15  1  0  0  0
M  END
> <minimizedAffinity>
-9.30756

$$$$
4GR3_R45_A_306


 52 54  0  0  0  0  0  0  0  0999 V2000
   10.2416   26.2875    3.4983 O   0  0  0  0  0  0  0  0  0  0  0  0
    8.9842   26.2934    3.4973 C   0  0  0  0  0  0  0  0  0  0  0  0
    8.2648   26.9022    2.5653 N   0  0  0  0  0  0  0  0  0  0  0  0
    7.2876   26.9645    2.6682 H   0  0  0  0  0  0  0  0  0  0  0  0
    8.9028   27.4798    1.3912 C   0  0  0  0  0  0  0  0  0  0  0  0
    9.0238   28.9971    1.4622 C   0  0  0  0  0  0  0  0  0  0  0  0
    8.3397   29.7332    0.7513 O   0  0  0  0  0  0  0  0  0  0  0  0
    9.9034   29.4632    2.3391 N   0  0  0  0  0  0  0  0  0  0  0  0
   10.3502   28.8368    2.9533 H   0  0  0  0  0  0  0  0  0  0  0  0
   10.2200   30.8751    2.4115 C   0  0  0  0  0  0  0  0  0  0  0  0
   11.6503   31.1127    1.9164 C   0  0  0  0  0  0  0  0  0  0  0  0
   12.5767   31.2752    2.7164 O   0  0  0  0  0  0  0  0  0  0  0  0
   11.8221   31.1476    0.5987 N   0  0  0  0  0  0  0  0  0  0  0  0
   11.0537   31.0125   -0.0017 H   0  0  0  0  0  0  0  0  0  0  0  0
   12.7179   31.3084    0.2232 H   0  0  0  0  0  0  0  0  0  0  0  0
   10.0652   31.3512    3.8490 C   0  0  0  0  0  0  0  0  0  0  0  0
    8.8955   32.2721    4.0873 C   0  0  0  0  0  0  0  0  0  0  0  0
    8.6304   32.4463    5.5618 C   0  0  0  0  0  0  0  0  0  0  0  0
    7.7280   33.2396    5.9120 O   0  0  0  0  0  0  0  0  0  0  0  0
    9.3466   31.8153    6.3684 O   0  0  0  0  0  0  0  0  0  0  0  0
   10.0087   31.2333    6.0510 H   0  0  0  0  0  0  0  0  0  0  0  0
    8.1606   27.0517    0.1198 C   0  0  0  0  0  0  0  0  0  0  0  0
    8.9437   26.0763   -0.7486 C   0  0  0  0  0  0  0  0  0  0  0  0
    9.4631   24.8890    0.0333 C   0  0  0  0  0  0  0  0  0  0  0  0
    8.6371   24.1298    0.5825 O   0  0  0  0  0  0  0  0  0  0  0  0
   10.6981   24.7196    0.1011 O   0  0  0  0  0  0  0  0  0  0  0  0
   11.2773   25.3177   -0.3288 H   0  0  0  0  0  0  0  0  0  0  0  0
    8.2160   25.5918    4.5756 C   0  0  0  0  0  0  0  0  0  0  0  0
    7.2752   26.6545    5.1572 C   0  0  0  0  0  0  0  0  0  0  0  0
    7.9456   28.3342    5.3083 P   0  0  0  0  0  0  0  0  0  0  0  0
    9.4647   28.3452    5.2678 O   0  0  0  0  0  0  0  0  0  0  0  0
    7.2620   29.2565    4.3255 O   0  0  0  0  0  0  0  0  0  0  0  0
    9.7838   29.2574    5.3511 H   0  0  0  0  0  0  0  0  0  0  0  0
    7.4942   28.9225    6.8986 C   0  0  0  0  0  0  0  0  0  0  0  0
    8.1231   28.4405    8.0455 C   0  0  0  0  0  0  0  0  0  0  0  0
    7.7393   28.9208    9.2988 C   0  0  0  0  0  0  0  0  0  0  0  0
    6.7193   29.8637    9.4075 C   0  0  0  0  0  0  0  0  0  0  0  0
    6.1866   30.5254   11.1094 Br  0  0  0  0  0  0  0  0  0  0  0  0
    6.0868   30.3373    8.2608 C   0  0  0  0  0  0  0  0  0  0  0  0
    6.4789   29.8608    7.0132 C   0  0  0  0  0  0  0  0  0  0  0  0
    7.3987   24.4846    3.9314 C   0  0  0  0  0  0  0  0  0  0  0  0
    5.6098   22.2848    6.2999 N   0  0  0  0  0  0  0  0  0  0  0  0
    6.6624   22.7640    5.6545 O   0  0  0  0  0  0  0  0  0  0  0  0
    4.9905   23.9645    4.9327 C   0  0  0  0  0  0  0  0  0  0  0  0
    4.5526   23.0214    5.8822 C   0  0  0  0  0  0  0  0  0  0  0  0
    6.3685   23.7840    4.7969 C   0  0  0  0  0  0  0  0  0  0  0  0
    3.1752   22.7338    6.3755 C   0  0  0  0  0  0  0  0  0  0  0  0
    2.0596   23.4354    5.9350 C   0  0  0  0  0  0  0  0  0  0  0  0
    0.7882   23.1063    6.4157 C   0  0  0  0  0  0  0  0  0  0  0  0
    0.6327   22.0544    7.3188 C   0  0  0  0  0  0  0  0  0  0  0  0
    1.7497   21.3424    7.7451 C   0  0  0  0  0  0  0  0  0  0  0  0
    3.0147   21.6741    7.2634 C   0  0  0  0  0  0  0  0  0  0  0  0
 38 37  1  0  0  0
 36 37  2  0  0  0
 36 35  1  0  0  0
 37 39  1  0  0  0
 35 34  2  0  0  0
 39 40  2  0  0  0
 34 40  1  0  0  0
 34 30  1  0  0  0
 32 30  2  0  0  0
 30 31  1  0  0  0
 30 29  1  0  0  0
 25 24  2  0  0  0
 29 28  1  0  0  0
 24 26  1  0  0  0
 24 23  1  0  0  0
 23 22  1  0  0  0
 28 41  1  0  0  0
 28  2  1  0  0  0
 41 46  1  0  0  0
  3  2  1  0  0  0
  3  5  1  0  0  0
  2  1  2  0  0  0
 22  5  1  0  0  0
 46 44  2  0  0  0
 46 43  1  0  0  0
 44 45  1  0  0  0
  5  6  1  0  0  0
 48 49  2  0  0  0
 48 47  1  0  0  0
 43 42  1  0  0  0
 45 47  1  0  0  0
 45 42  2  0  0  0
 49 50  1  0  0  0
 47 52  2  0  0  0
  6  7  2  0  0  0
  6  8  1  0  0  0
 50 51  2  0  0  0
 52 51  1  0  0  0
  8 10  1  0  0  0
 13 11  1  0  0  0
 11 10  1  0  0  0
 11 12  2  0  0  0
 10 16  1  0  0  0
 16 17  1  0  0  0
 17 18  1  0  0  0
 18 19  2  0  0  0
 18 20  1  0  0  0
 31 33  1  0  0  0
  3  4  1  0  0  0
 26 27  1  0  0  0
  8  9  1  0  0  0
 20 21  1  0  0  0
 13 14  1  0  0  0
 13 15  1  0  0  0
M  END
> <minimizedAffinity>
-8.91852

$$$$
4GR3_R45_A_306


 52 54  0  0  0  0  0  0  0  0999 V2000
    9.9395   26.9078    4.4161 O   0  0  0  0  0  0  0  0  0  0  0  0
    8.7106   26.6469    4.4699 C   0  0  0  0  0  0  0  0  0  0  0  0
    7.8324   27.4258    5.0853 N   0  0  0  0  0  0  0  0  0  0  0  0
    6.9010   27.1233    5.1870 H   0  0  0  0  0  0  0  0  0  0  0  0
    8.2290   28.7233    5.6126 C   0  0  0  0  0  0  0  0  0  0  0  0
    7.6613   29.0044    6.9985 C   0  0  0  0  0  0  0  0  0  0  0  0
    6.4505   29.1173    7.1893 O   0  0  0  0  0  0  0  0  0  0  0  0
    8.5536   29.1106    7.9744 N   0  0  0  0  0  0  0  0  0  0  0  0
    9.4993   28.9115    7.7869 H   0  0  0  0  0  0  0  0  0  0  0  0
    8.1649   29.5137    9.3106 C   0  0  0  0  0  0  0  0  0  0  0  0
    8.9239   30.7826    9.7119 C   0  0  0  0  0  0  0  0  0  0  0  0
   10.1563   30.7830    9.7901 O   0  0  0  0  0  0  0  0  0  0  0  0
    8.1849   31.8545    9.9797 N   0  0  0  0  0  0  0  0  0  0  0  0
    7.2044   31.8079    9.9039 H   0  0  0  0  0  0  0  0  0  0  0  0
    8.6180   32.6950   10.2539 H   0  0  0  0  0  0  0  0  0  0  0  0
    8.4630   28.3814   10.2832 C   0  0  0  0  0  0  0  0  0  0  0  0
    7.7595   28.4880   11.6123 C   0  0  0  0  0  0  0  0  0  0  0  0
    8.2259   27.4146   12.5637 C   0  0  0  0  0  0  0  0  0  0  0  0
    8.9570   26.5028   12.1161 O   0  0  0  0  0  0  0  0  0  0  0  0
    7.8338   27.4662   13.7492 O   0  0  0  0  0  0  0  0  0  0  0  0
    7.2868   28.1727   14.0314 H   0  0  0  0  0  0  0  0  0  0  0  0
    7.8429   29.8354    4.6303 C   0  0  0  0  0  0  0  0  0  0  0  0
    8.8313   30.9933    4.5952 C   0  0  0  0  0  0  0  0  0  0  0  0
    9.6251   31.0416    3.3074 C   0  0  0  0  0  0  0  0  0  0  0  0
    9.0735   31.4989    2.2842 O   0  0  0  0  0  0  0  0  0  0  0  0
   10.7992   30.6174    3.3198 O   0  0  0  0  0  0  0  0  0  0  0  0
   11.1685   30.2837    4.1136 H   0  0  0  0  0  0  0  0  0  0  0  0
    8.1627   25.4121    3.8216 C   0  0  0  0  0  0  0  0  0  0  0  0
    6.9239   25.0396    4.6459 C   0  0  0  0  0  0  0  0  0  0  0  0
    6.9034   23.3756    5.3699 P   0  0  0  0  0  0  0  0  0  0  0  0
    7.3241   22.3144    4.3666 O   0  0  0  0  0  0  0  0  0  0  0  0
    7.6590   23.3694    6.6786 O   0  0  0  0  0  0  0  0  0  0  0  0
    7.3005   21.4419    4.7898 H   0  0  0  0  0  0  0  0  0  0  0  0
    5.2362   23.0212    5.7869 C   0  0  0  0  0  0  0  0  0  0  0  0
    4.1876   23.7482    5.2256 C   0  0  0  0  0  0  0  0  0  0  0  0
    2.8710   23.4499    5.5806 C   0  0  0  0  0  0  0  0  0  0  0  0
    2.6038   22.4432    6.5060 C   0  0  0  0  0  0  0  0  0  0  0  0
    0.8143   22.0275    6.9986 Br  0  0  0  0  0  0  0  0  0  0  0  0
    3.6537   21.7240    7.0718 C   0  0  0  0  0  0  0  0  0  0  0  0
    4.9641   22.0204    6.7082 C   0  0  0  0  0  0  0  0  0  0  0  0
    7.7445   25.7668    2.4044 C   0  0  0  0  0  0  0  0  0  0  0  0
    9.5629   23.7077   -0.0661 N   0  0  0  0  0  0  0  0  0  0  0  0
    8.7386   23.9351    0.9454 O   0  0  0  0  0  0  0  0  0  0  0  0
    9.4383   25.9163    0.3595 C   0  0  0  0  0  0  0  0  0  0  0  0
   10.0060   24.9245   -0.4632 C   0  0  0  0  0  0  0  0  0  0  0  0
    8.6138   25.2544    1.2716 C   0  0  0  0  0  0  0  0  0  0  0  0
   10.9958   25.0559   -1.5707 C   0  0  0  0  0  0  0  0  0  0  0  0
   11.0166   24.1974   -2.6630 C   0  0  0  0  0  0  0  0  0  0  0  0
   11.9540   24.3830   -3.6842 C   0  0  0  0  0  0  0  0  0  0  0  0
   12.8539   25.4472   -3.6225 C   0  0  0  0  0  0  0  0  0  0  0  0
   12.8195   26.3157   -2.5358 C   0  0  0  0  0  0  0  0  0  0  0  0
   11.8835   26.1267   -1.5205 C   0  0  0  0  0  0  0  0  0  0  0  0
 38 37  1  0  0  0
 36 37  2  0  0  0
 36 35  1  0  0  0
 37 39  1  0  0  0
 35 34  2  0  0  0
 39 40  2  0  0  0
 34 40  1  0  0  0
 34 30  1  0  0  0
 32 30  2  0  0  0
 30 31  1  0  0  0
 30 29  1  0  0  0
 25 24  2  0  0  0
 29 28  1  0  0  0
 24 26  1  0  0  0
 24 23  1  0  0  0
 23 22  1  0  0  0
 28 41  1  0  0  0
 28  2  1  0  0  0
 41 46  1  0  0  0
  3  2  1  0  0  0
  3  5  1  0  0  0
  2  1  2  0  0  0
 22  5  1  0  0  0
 46 44  2  0  0  0
 46 43  1  0  0  0
 44 45  1  0  0  0
  5  6  1  0  0  0
 48 49  2  0  0  0
 48 47  1  0  0  0
 43 42  1  0  0  0
 45 47  1  0  0  0
 45 42  2  0  0  0
 49 50  1  0  0  0
 47 52  2  0  0  0
  6  7  2  0  0  0
  6  8  1  0  0  0
 50 51  2  0  0  0
 52 51  1  0  0  0
  8 10  1  0  0  0
 13 11  1  0  0  0
 11 10  1  0  0  0
 11 12  2  0  0  0
 10 16  1  0  0  0
 16 17  1  0  0  0
 17 18  1  0  0  0
 18 19  2  0  0  0
 18 20  1  0  0  0
 31 33  1  0  0  0
  3  4  1  0  0  0
 26 27  1  0  0  0
  8  9  1  0  0  0
 20 21  1  0  0  0
 13 14  1  0  0  0
 13 15  1  0  0  0
M  END
> <minimizedAffinity>
-8.88614

$$$$
4GR3_R45_A_306


 52 54  0  0  0  0  0  0  0  0999 V2000
    9.5076   27.0095    4.7993 O   0  0  0  0  0  0  0  0  0  0  0  0
    8.3780   26.6500    4.3798 C   0  0  0  0  0  0  0  0  0  0  0  0
    7.2600   27.3027    4.6639 N   0  0  0  0  0  0  0  0  0  0  0  0
    6.3925   26.9210    4.3971 H   0  0  0  0  0  0  0  0  0  0  0  0
    7.2998   28.5774    5.3657 C   0  0  0  0  0  0  0  0  0  0  0  0
    7.8111   29.7215    4.4987 C   0  0  0  0  0  0  0  0  0  0  0  0
    7.9447   30.8604    4.9459 O   0  0  0  0  0  0  0  0  0  0  0  0
    8.1049   29.4050    3.2443 N   0  0  0  0  0  0  0  0  0  0  0  0
    8.0768   28.4611    2.9659 H   0  0  0  0  0  0  0  0  0  0  0  0
    8.4664   30.4200    2.2757 C   0  0  0  0  0  0  0  0  0  0  0  0
    7.6395   30.2374    0.9989 C   0  0  0  0  0  0  0  0  0  0  0  0
    7.5011   31.1670    0.1980 O   0  0  0  0  0  0  0  0  0  0  0  0
    7.0803   29.0446    0.8215 N   0  0  0  0  0  0  0  0  0  0  0  0
    7.2182   28.3324    1.4871 H   0  0  0  0  0  0  0  0  0  0  0  0
    6.5283   28.8734    0.0245 H   0  0  0  0  0  0  0  0  0  0  0  0
    9.9538   30.3149    1.9699 C   0  0  0  0  0  0  0  0  0  0  0  0
   10.8540   31.0002    2.9664 C   0  0  0  0  0  0  0  0  0  0  0  0
   12.2140   31.2738    2.3745 C   0  0  0  0  0  0  0  0  0  0  0  0
   12.4223   30.9368    1.1874 O   0  0  0  0  0  0  0  0  0  0  0  0
   13.0821   31.7947    3.1071 O   0  0  0  0  0  0  0  0  0  0  0  0
   12.8717   32.0279    3.9899 H   0  0  0  0  0  0  0  0  0  0  0  0
    8.1322   28.4514    6.6471 C   0  0  0  0  0  0  0  0  0  0  0  0
    7.6312   29.3214    7.7920 C   0  0  0  0  0  0  0  0  0  0  0  0
    8.7277   30.1670    8.4031 C   0  0  0  0  0  0  0  0  0  0  0  0
    9.2276   29.8014    9.4879 O   0  0  0  0  0  0  0  0  0  0  0  0
    9.0850   31.1994    7.7989 O   0  0  0  0  0  0  0  0  0  0  0  0
    8.6788   31.4313    6.9870 H   0  0  0  0  0  0  0  0  0  0  0  0
    8.2358   25.4362    3.5129 C   0  0  0  0  0  0  0  0  0  0  0  0
    9.3514   25.5548    2.4668 C   0  0  0  0  0  0  0  0  0  0  0  0
    8.8613   25.3406    0.7325 P   0  0  0  0  0  0  0  0  0  0  0  0
    8.8121   23.8751    0.3331 O   0  0  0  0  0  0  0  0  0  0  0  0
    7.6088   26.1357    0.4449 O   0  0  0  0  0  0  0  0  0  0  0  0
    8.5473   23.8023   -0.5972 H   0  0  0  0  0  0  0  0  0  0  0  0
   10.1194   26.0729   -0.2473 C   0  0  0  0  0  0  0  0  0  0  0  0
   10.8455   25.3144   -1.1642 C   0  0  0  0  0  0  0  0  0  0  0  0
   11.8458   25.9210   -1.9258 C   0  0  0  0  0  0  0  0  0  0  0  0
   12.1325   27.2742   -1.7588 C   0  0  0  0  0  0  0  0  0  0  0  0
   13.4936   28.1123   -2.7899 Br  0  0  0  0  0  0  0  0  0  0  0  0
   11.4115   28.0278   -0.8360 C   0  0  0  0  0  0  0  0  0  0  0  0
   10.4098   27.4196   -0.0851 C   0  0  0  0  0  0  0  0  0  0  0  0
    8.4736   24.2076    4.3750 C   0  0  0  0  0  0  0  0  0  0  0  0
    6.2181   22.3994    6.6755 N   0  0  0  0  0  0  0  0  0  0  0  0
    7.3848   22.7916    6.1864 O   0  0  0  0  0  0  0  0  0  0  0  0
    5.9068   23.7947    4.9346 C   0  0  0  0  0  0  0  0  0  0  0  0
    5.2753   23.0182    5.9251 C   0  0  0  0  0  0  0  0  0  0  0  0
    7.2818   23.6367    5.1197 C   0  0  0  0  0  0  0  0  0  0  0  0
    3.8237   22.7779    6.1670 C   0  0  0  0  0  0  0  0  0  0  0  0
    3.3610   21.7955    7.0339 C   0  0  0  0  0  0  0  0  0  0  0  0
    1.9875   21.6307    7.2395 C   0  0  0  0  0  0  0  0  0  0  0  0
    1.0783   22.4701    6.5953 C   0  0  0  0  0  0  0  0  0  0  0  0
    1.5453   23.4643    5.7409 C   0  0  0  0  0  0  0  0  0  0  0  0
    2.9150   23.6246    5.5391 C   0  0  0  0  0  0  0  0  0  0  0  0
 38 37  1  0  0  0
 36 37  2  0  0  0
 36 35  1  0  0  0
 37 39  1  0  0  0
 35 34  2  0  0  0
 39 40  2  0  0  0
 34 40  1  0  0  0
 34 30  1  0  0  0
 32 30  2  0  0  0
 30 31  1  0  0  0
 30 29  1  0  0  0
 25 24  2  0  0  0
 29 28  1  0  0  0
 24 26  1  0  0  0
 24 23  1  0  0  0
 23 22  1  0  0  0
 28 41  1  0  0  0
 28  2  1  0  0  0
 41 46  1  0  0  0
  3  2  1  0  0  0
  3  5  1  0  0  0
  2  1  2  0  0  0
 22  5  1  0  0  0
 46 44  2  0  0  0
 46 43  1  0  0  0
 44 45  1  0  0  0
  5  6  1  0  0  0
 48 49  2  0  0  0
 48 47  1  0  0  0
 43 42  1  0  0  0
 45 47  1  0  0  0
 45 42  2  0  0  0
 49 50  1  0  0  0
 47 52  2  0  0  0
  6  7  2  0  0  0
  6  8  1  0  0  0
 50 51  2  0  0  0
 52 51  1  0  0  0
  8 10  1  0  0  0
 13 11  1  0  0  0
 11 10  1  0  0  0
 11 12  2  0  0  0
 10 16  1  0  0  0
 16 17  1  0  0  0
 17 18  1  0  0  0
 18 19  2  0  0  0
 18 20  1  0  0  0
 31 33  1  0  0  0
  3  4  1  0  0  0
 26 27  1  0  0  0
  8  9  1  0  0  0
 20 21  1  0  0  0
 13 14  1  0  0  0
 13 15  1  0  0  0
M  END
> <minimizedAffinity>
-8.75130

$$$$
4GR3_R45_A_306


 52 54  0  0  0  0  0  0  0  0999 V2000
    7.6393   25.5032    1.6955 O   0  0  0  0  0  0  0  0  0  0  0  0
    8.7804   25.4439    2.2203 C   0  0  0  0  0  0  0  0  0  0  0  0
    9.9026   25.4732    1.5157 N   0  0  0  0  0  0  0  0  0  0  0  0
   10.7643   25.3193    1.9664 H   0  0  0  0  0  0  0  0  0  0  0  0
    9.8758   25.7302    0.0831 C   0  0  0  0  0  0  0  0  0  0  0  0
   10.1260   24.4811   -0.7531 C   0  0  0  0  0  0  0  0  0  0  0  0
    9.8894   23.3545   -0.3173 O   0  0  0  0  0  0  0  0  0  0  0  0
   10.6047   24.6920   -1.9722 N   0  0  0  0  0  0  0  0  0  0  0  0
   10.6801   25.6145   -2.3077 H   0  0  0  0  0  0  0  0  0  0  0  0
   11.0189   23.5926   -2.8200 C   0  0  0  0  0  0  0  0  0  0  0  0
   12.3308   23.9477   -3.5271 C   0  0  0  0  0  0  0  0  0  0  0  0
   12.7619   25.1047   -3.5145 O   0  0  0  0  0  0  0  0  0  0  0  0
   12.9525   22.9543   -4.1545 N   0  0  0  0  0  0  0  0  0  0  0  0
   12.5716   22.0466   -4.1379 H   0  0  0  0  0  0  0  0  0  0  0  0
   13.7940   23.1262   -4.6359 H   0  0  0  0  0  0  0  0  0  0  0  0
    9.9240   23.3029   -3.8369 C   0  0  0  0  0  0  0  0  0  0  0  0
    9.8015   24.3217   -4.9415 C   0  0  0  0  0  0  0  0  0  0  0  0
    8.5958   25.2047   -4.7374 C   0  0  0  0  0  0  0  0  0  0  0  0
    8.0700   25.2366   -3.6022 O   0  0  0  0  0  0  0  0  0  0  0  0
    8.1563   25.8393   -5.7202 O   0  0  0  0  0  0  0  0  0  0  0  0
    8.5899   25.7791   -6.5486 H   0  0  0  0  0  0  0  0  0  0  0  0
   10.8759   26.8353   -0.2762 C   0  0  0  0  0  0  0  0  0  0  0  0
   10.2197   28.1395   -0.7090 C   0  0  0  0  0  0  0  0  0  0  0  0
    9.7854   28.1190   -2.1588 C   0  0  0  0  0  0  0  0  0  0  0  0
   10.5242   27.5563   -2.9942 O   0  0  0  0  0  0  0  0  0  0  0  0
    8.7070   28.6703   -2.4613 O   0  0  0  0  0  0  0  0  0  0  0  0
    8.1876   29.0795   -1.7973 H   0  0  0  0  0  0  0  0  0  0  0  0
    8.9329   25.3377    3.7071 C   0  0  0  0  0  0  0  0  0  0  0  0
    8.0475   26.4494    4.2839 C   0  0  0  0  0  0  0  0  0  0  0  0
    8.6677   28.1469    4.1177 P   0  0  0  0  0  0  0  0  0  0  0  0
   10.1811   28.2131    4.2401 O   0  0  0  0  0  0  0  0  0  0  0  0
    8.0861   28.7936    2.8819 O   0  0  0  0  0  0  0  0  0  0  0  0
   10.4731   29.1333    4.1462 H   0  0  0  0  0  0  0  0  0  0  0  0
    8.0268   29.0592    5.4727 C   0  0  0  0  0  0  0  0  0  0  0  0
    7.6628   28.4211    6.6574 C   0  0  0  0  0  0  0  0  0  0  0  0
    7.1489   29.1704    7.7171 C   0  0  0  0  0  0  0  0  0  0  0  0
    6.9813   30.5475    7.5875 C   0  0  0  0  0  0  0  0  0  0  0  0
    6.2814   31.5796    9.0238 Br  0  0  0  0  0  0  0  0  0  0  0  0
    7.3377   31.1813    6.3998 C   0  0  0  0  0  0  0  0  0  0  0  0
    7.8571   30.4304    5.3493 C   0  0  0  0  0  0  0  0  0  0  0  0
    8.3993   23.9831    4.1426 C   0  0  0  0  0  0  0  0  0  0  0  0
    4.7670   24.5180    4.5548 N   0  0  0  0  0  0  0  0  0  0  0  0
    5.9769   24.7568    4.0715 O   0  0  0  0  0  0  0  0  0  0  0  0
    6.2467   23.0355    5.3838 C   0  0  0  0  0  0  0  0  0  0  0  0
    4.8985   23.4416    5.3665 C   0  0  0  0  0  0  0  0  0  0  0  0
    6.9358   23.9027    4.5335 C   0  0  0  0  0  0  0  0  0  0  0  0
    3.7314   22.9057    6.1241 C   0  0  0  0  0  0  0  0  0  0  0  0
    3.8577   21.9243    7.0995 C   0  0  0  0  0  0  0  0  0  0  0  0
    2.7300   21.4760    7.7947 C   0  0  0  0  0  0  0  0  0  0  0  0
    1.4783   22.0322    7.5298 C   0  0  0  0  0  0  0  0  0  0  0  0
    1.3575   23.0272    6.5644 C   0  0  0  0  0  0  0  0  0  0  0  0
    2.4841   23.4706    5.8742 C   0  0  0  0  0  0  0  0  0  0  0  0
 38 37  1  0  0  0
 36 37  2  0  0  0
 36 35  1  0  0  0
 37 39  1  0  0  0
 35 34  2  0  0  0
 39 40  2  0  0  0
 34 40  1  0  0  0
 34 30  1  0  0  0
 32 30  2  0  0  0
 30 31  1  0  0  0
 30 29  1  0  0  0
 25 24  2  0  0  0
 29 28  1  0  0  0
 24 26  1  0  0  0
 24 23  1  0  0  0
 23 22  1  0  0  0
 28 41  1  0  0  0
 28  2  1  0  0  0
 41 46  1  0  0  0
  3  2  1  0  0  0
  3  5  1  0  0  0
  2  1  2  0  0  0
 22  5  1  0  0  0
 46 44  2  0  0  0
 46 43  1  0  0  0
 44 45  1  0  0  0
  5  6  1  0  0  0
 48 49  2  0  0  0
 48 47  1  0  0  0
 43 42  1  0  0  0
 45 47  1  0  0  0
 45 42  2  0  0  0
 49 50  1  0  0  0
 47 52  2  0  0  0
  6  7  2  0  0  0
  6  8  1  0  0  0
 50 51  2  0  0  0
 52 51  1  0  0  0
  8 10  1  0  0  0
 13 11  1  0  0  0
 11 10  1  0  0  0
 11 12  2  0  0  0
 10 16  1  0  0  0
 16 17  1  0  0  0
 17 18  1  0  0  0
 18 19  2  0  0  0
 18 20  1  0  0  0
 31 33  1  0  0  0
  3  4  1  0  0  0
 26 27  1  0  0  0
  8  9  1  0  0  0
 20 21  1  0  0  0
 13 14  1  0  0  0
 13 15  1  0  0  0
M  END
> <minimizedAffinity>
-8.69217

$$$$
4GR3_R45_A_306


 52 54  0  0  0  0  0  0  0  0999 V2000
    7.3916   25.3899    1.5066 O   0  0  0  0  0  0  0  0  0  0  0  0
    8.4836   25.4213    2.1293 C   0  0  0  0  0  0  0  0  0  0  0  0
    9.6579   25.5289    1.5242 N   0  0  0  0  0  0  0  0  0  0  0  0
   10.4859   25.4444    2.0502 H   0  0  0  0  0  0  0  0  0  0  0  0
    9.7377   25.7706    0.0910 C   0  0  0  0  0  0  0  0  0  0  0  0
   10.0385   24.5109   -0.7119 C   0  0  0  0  0  0  0  0  0  0  0  0
    9.8741   23.3876   -0.2361 O   0  0  0  0  0  0  0  0  0  0  0  0
   10.4785   24.7083   -1.9478 N   0  0  0  0  0  0  0  0  0  0  0  0
   10.4954   25.6223   -2.3133 H   0  0  0  0  0  0  0  0  0  0  0  0
   10.9344   23.6066   -2.7707 C   0  0  0  0  0  0  0  0  0  0  0  0
   12.2639   23.9724   -3.4383 C   0  0  0  0  0  0  0  0  0  0  0  0
   12.7049   25.1243   -3.3780 O   0  0  0  0  0  0  0  0  0  0  0  0
   12.8898   22.9946   -4.0857 N   0  0  0  0  0  0  0  0  0  0  0  0
   12.5005   22.0906   -4.1073 H   0  0  0  0  0  0  0  0  0  0  0  0
   13.7426   23.1744   -4.5436 H   0  0  0  0  0  0  0  0  0  0  0  0
    9.8771   23.2925   -3.8197 C   0  0  0  0  0  0  0  0  0  0  0  0
    9.6175   24.4016   -4.8074 C   0  0  0  0  0  0  0  0  0  0  0  0
    8.3454   25.1407   -4.4751 C   0  0  0  0  0  0  0  0  0  0  0  0
    8.4000   26.0658   -3.6340 O   0  0  0  0  0  0  0  0  0  0  0  0
    7.2878   24.7737   -5.0305 O   0  0  0  0  0  0  0  0  0  0  0  0
    7.3043   24.0745   -5.6540 H   0  0  0  0  0  0  0  0  0  0  0  0
   10.7700   26.8647   -0.2056 C   0  0  0  0  0  0  0  0  0  0  0  0
   10.2252   28.0097   -1.0489 C   0  0  0  0  0  0  0  0  0  0  0  0
   11.0349   28.2425   -2.3063 C   0  0  0  0  0  0  0  0  0  0  0  0
   11.7601   29.2577   -2.3686 O   0  0  0  0  0  0  0  0  0  0  0  0
   10.9409   27.4112   -3.2330 O   0  0  0  0  0  0  0  0  0  0  0  0
   10.3825   26.6648   -3.1379 H   0  0  0  0  0  0  0  0  0  0  0  0
    8.5127   25.3399    3.6251 C   0  0  0  0  0  0  0  0  0  0  0  0
    7.5302   26.4147    4.1068 C   0  0  0  0  0  0  0  0  0  0  0  0
    8.2584   27.9174    4.8177 P   0  0  0  0  0  0  0  0  0  0  0  0
    7.2652   28.6753    5.6830 O   0  0  0  0  0  0  0  0  0  0  0  0
    9.5795   27.5929    5.4758 O   0  0  0  0  0  0  0  0  0  0  0  0
    7.6903   29.4691    6.0435 H   0  0  0  0  0  0  0  0  0  0  0  0
    8.6486   28.9791    3.4762 C   0  0  0  0  0  0  0  0  0  0  0  0
    9.9650   29.1327    3.0441 C   0  0  0  0  0  0  0  0  0  0  0  0
   10.2481   29.9894    1.9790 C   0  0  0  0  0  0  0  0  0  0  0  0
    9.2240   30.7038    1.3608 C   0  0  0  0  0  0  0  0  0  0  0  0
    9.5967   31.8749   -0.0910 Br  0  0  0  0  0  0  0  0  0  0  0  0
    7.9108   30.5550    1.7999 C   0  0  0  0  0  0  0  0  0  0  0  0
    7.6333   29.6934    2.8572 C   0  0  0  0  0  0  0  0  0  0  0  0
    8.0074   23.9665    4.0348 C   0  0  0  0  0  0  0  0  0  0  0  0
    4.3923   24.4324    4.6378 N   0  0  0  0  0  0  0  0  0  0  0  0
    5.5670   24.6835    4.0798 O   0  0  0  0  0  0  0  0  0  0  0  0
    5.9514   23.0087    5.4233 C   0  0  0  0  0  0  0  0  0  0  0  0
    4.5951   23.3839    5.4711 C   0  0  0  0  0  0  0  0  0  0  0  0
    6.5706   23.8652    4.5106 C   0  0  0  0  0  0  0  0  0  0  0  0
    3.4855   22.8451    6.3090 C   0  0  0  0  0  0  0  0  0  0  0  0
    3.6809   21.8564    7.2656 C   0  0  0  0  0  0  0  0  0  0  0  0
    2.6064   21.4055    8.0389 C   0  0  0  0  0  0  0  0  0  0  0  0
    1.3400   21.9661    7.8709 C   0  0  0  0  0  0  0  0  0  0  0  0
    1.1509   22.9681    6.9240 C   0  0  0  0  0  0  0  0  0  0  0  0
    2.2247   23.4142    6.1557 C   0  0  0  0  0  0  0  0  0  0  0  0
 38 37  1  0  0  0
 36 37  2  0  0  0
 36 35  1  0  0  0
 37 39  1  0  0  0
 35 34  2  0  0  0
 39 40  2  0  0  0
 34 40  1  0  0  0
 34 30  1  0  0  0
 32 30  2  0  0  0
 30 31  1  0  0  0
 30 29  1  0  0  0
 25 24  2  0  0  0
 29 28  1  0  0  0
 24 26  1  0  0  0
 24 23  1  0  0  0
 23 22  1  0  0  0
 28 41  1  0  0  0
 28  2  1  0  0  0
 41 46  1  0  0  0
  3  2  1  0  0  0
  3  5  1  0  0  0
  2  1  2  0  0  0
 22  5  1  0  0  0
 46 44  2  0  0  0
 46 43  1  0  0  0
 44 45  1  0  0  0
  5  6  1  0  0  0
 48 49  2  0  0  0
 48 47  1  0  0  0
 43 42  1  0  0  0
 45 47  1  0  0  0
 45 42  2  0  0  0
 49 50  1  0  0  0
 47 52  2  0  0  0
  6  7  2  0  0  0
  6  8  1  0  0  0
 50 51  2  0  0  0
 52 51  1  0  0  0
  8 10  1  0  0  0
 13 11  1  0  0  0
 11 10  1  0  0  0
 11 12  2  0  0  0
 10 16  1  0  0  0
 16 17  1  0  0  0
 17 18  1  0  0  0
 18 19  2  0  0  0
 18 20  1  0  0  0
 31 33  1  0  0  0
  3  4  1  0  0  0
 26 27  1  0  0  0
  8  9  1  0  0  0
 20 21  1  0  0  0
 13 14  1  0  0  0
 13 15  1  0  0  0
M  END
> <minimizedAffinity>
-8.68361

$$$$
4GR3_R45_A_306


 52 54  0  0  0  0  0  0  0  0999 V2000
   10.1050   26.8520    2.2741 O   0  0  0  0  0  0  0  0  0  0  0  0
    9.0349   26.4508    2.7986 C   0  0  0  0  0  0  0  0  0  0  0  0
    7.8766   26.4326    2.1546 N   0  0  0  0  0  0  0  0  0  0  0  0
    7.0519   26.2075    2.6429 H   0  0  0  0  0  0  0  0  0  0  0  0
    7.8097   26.7418    0.7337 C   0  0  0  0  0  0  0  0  0  0  0  0
    8.7076   25.8498   -0.1150 C   0  0  0  0  0  0  0  0  0  0  0  0
    8.6525   24.6222   -0.0421 O   0  0  0  0  0  0  0  0  0  0  0  0
    9.5382   26.4825   -0.9334 N   0  0  0  0  0  0  0  0  0  0  0  0
    9.4712   27.4603   -1.0269 H   0  0  0  0  0  0  0  0  0  0  0  0
   10.5417   25.7642   -1.6922 C   0  0  0  0  0  0  0  0  0  0  0  0
   11.8532   26.5562   -1.6991 C   0  0  0  0  0  0  0  0  0  0  0  0
   11.9185   27.6741   -1.1788 O   0  0  0  0  0  0  0  0  0  0  0  0
   12.8887   25.9809   -2.3022 N   0  0  0  0  0  0  0  0  0  0  0  0
   12.7904   25.0873   -2.7036 H   0  0  0  0  0  0  0  0  0  0  0  0
   13.7540   26.4483   -2.3475 H   0  0  0  0  0  0  0  0  0  0  0  0
   10.0386   25.5494   -3.1126 C   0  0  0  0  0  0  0  0  0  0  0  0
    9.6701   24.1256   -3.4442 C   0  0  0  0  0  0  0  0  0  0  0  0
   10.7124   23.1605   -2.9371 C   0  0  0  0  0  0  0  0  0  0  0  0
   10.4220   22.4341   -1.9602 O   0  0  0  0  0  0  0  0  0  0  0  0
   11.8308   23.1536   -3.4946 O   0  0  0  0  0  0  0  0  0  0  0  0
   11.9944   23.7192   -4.2236 H   0  0  0  0  0  0  0  0  0  0  0  0
    8.1326   28.2218    0.4972 C   0  0  0  0  0  0  0  0  0  0  0  0
    6.9649   29.0224   -0.0632 C   0  0  0  0  0  0  0  0  0  0  0  0
    7.1803   29.4349   -1.5035 C   0  0  0  0  0  0  0  0  0  0  0  0
    7.9903   28.7825   -2.1953 O   0  0  0  0  0  0  0  0  0  0  0  0
    6.5419   30.4148   -1.9402 O   0  0  0  0  0  0  0  0  0  0  0  0
    5.9451   30.8721   -1.3810 H   0  0  0  0  0  0  0  0  0  0  0  0
    9.0155   25.9573    4.2132 C   0  0  0  0  0  0  0  0  0  0  0  0
    8.0000   26.8498    4.9377 C   0  0  0  0  0  0  0  0  0  0  0  0
    8.1840   28.6401    4.7045 P   0  0  0  0  0  0  0  0  0  0  0  0
    9.6160   29.0255    4.3724 O   0  0  0  0  0  0  0  0  0  0  0  0
    7.1340   29.1493    3.7442 O   0  0  0  0  0  0  0  0  0  0  0  0
    9.6734   29.9867    4.2556 H   0  0  0  0  0  0  0  0  0  0  0  0
    7.8187   29.3956    6.2456 C   0  0  0  0  0  0  0  0  0  0  0  0
    7.7932   30.7834    6.3746 C   0  0  0  0  0  0  0  0  0  0  0  0
    7.5068   31.3579    7.6141 C   0  0  0  0  0  0  0  0  0  0  0  0
    7.2658   30.5505    8.7238 C   0  0  0  0  0  0  0  0  0  0  0  0
    6.8751   31.3210   10.4183 Br  0  0  0  0  0  0  0  0  0  0  0  0
    7.3003   29.1643    8.5941 C   0  0  0  0  0  0  0  0  0  0  0  0
    7.5786   28.5969    7.3541 C   0  0  0  0  0  0  0  0  0  0  0  0
    8.5193   24.5210    4.2072 C   0  0  0  0  0  0  0  0  0  0  0  0
    4.8289   24.6356    4.3375 N   0  0  0  0  0  0  0  0  0  0  0  0
    6.0352   24.9872    3.9185 O   0  0  0  0  0  0  0  0  0  0  0  0
    6.4057   23.4034    5.3718 C   0  0  0  0  0  0  0  0  0  0  0  0
    5.0244   23.6401    5.2349 C   0  0  0  0  0  0  0  0  0  0  0  0
    7.0502   24.2892    4.5058 C   0  0  0  0  0  0  0  0  0  0  0  0
    3.8747   23.0179    5.9521 C   0  0  0  0  0  0  0  0  0  0  0  0
    4.0368   22.0156    6.9007 C   0  0  0  0  0  0  0  0  0  0  0  0
    2.9228   21.4849    7.5589 C   0  0  0  0  0  0  0  0  0  0  0  0
    1.6474   21.9792    7.2847 C   0  0  0  0  0  0  0  0  0  0  0  0
    1.4897   22.9949    6.3467 C   0  0  0  0  0  0  0  0  0  0  0  0
    2.6029   23.5206    5.6933 C   0  0  0  0  0  0  0  0  0  0  0  0
 38 37  1  0  0  0
 36 37  2  0  0  0
 36 35  1  0  0  0
 37 39  1  0  0  0
 35 34  2  0  0  0
 39 40  2  0  0  0
 34 40  1  0  0  0
 34 30  1  0  0  0
 32 30  2  0  0  0
 30 31  1  0  0  0
 30 29  1  0  0  0
 25 24  2  0  0  0
 29 28  1  0  0  0
 24 26  1  0  0  0
 24 23  1  0  0  0
 23 22  1  0  0  0
 28 41  1  0  0  0
 28  2  1  0  0  0
 41 46  1  0  0  0
  3  2  1  0  0  0
  3  5  1  0  0  0
  2  1  2  0  0  0
 22  5  1  0  0  0
 46 44  2  0  0  0
 46 43  1  0  0  0
 44 45  1  0  0  0
  5  6  1  0  0  0
 48 49  2  0  0  0
 48 47  1  0  0  0
 43 42  1  0  0  0
 45 47  1  0  0  0
 45 42  2  0  0  0
 49 50  1  0  0  0
 47 52  2  0  0  0
  6  7  2  0  0  0
  6  8  1  0  0  0
 50 51  2  0  0  0
 52 51  1  0  0  0
  8 10  1  0  0  0
 13 11  1  0  0  0
 11 10  1  0  0  0
 11 12  2  0  0  0
 10 16  1  0  0  0
 16 17  1  0  0  0
 17 18  1  0  0  0
 18 19  2  0  0  0
 18 20  1  0  0  0
 31 33  1  0  0  0
  3  4  1  0  0  0
 26 27  1  0  0  0
  8  9  1  0  0  0
 20 21  1  0  0  0
 13 14  1  0  0  0
 13 15  1  0  0  0
M  END
> <minimizedAffinity>
-8.66995

$$$$
4GR3_R45_A_306


 52 54  0  0  0  0  0  0  0  0999 V2000
    7.3853   25.3916    2.2890 O   0  0  0  0  0  0  0  0  0  0  0  0
    8.4641   25.5058    2.9250 C   0  0  0  0  0  0  0  0  0  0  0  0
    9.5949   25.9093    2.3636 N   0  0  0  0  0  0  0  0  0  0  0  0
   10.4319   25.8818    2.8812 H   0  0  0  0  0  0  0  0  0  0  0  0
    9.6136   26.3927    0.9906 C   0  0  0  0  0  0  0  0  0  0  0  0
   10.0014   25.3170   -0.0166 C   0  0  0  0  0  0  0  0  0  0  0  0
    9.9491   24.1199    0.2652 O   0  0  0  0  0  0  0  0  0  0  0  0
   10.3883   25.7568   -1.2069 N   0  0  0  0  0  0  0  0  0  0  0  0
   10.3152   26.7166   -1.4134 H   0  0  0  0  0  0  0  0  0  0  0  0
   10.9162   24.8537   -2.2092 C   0  0  0  0  0  0  0  0  0  0  0  0
   11.7790   25.6325   -3.2073 C   0  0  0  0  0  0  0  0  0  0  0  0
   11.2678   26.4431   -3.9860 O   0  0  0  0  0  0  0  0  0  0  0  0
   13.0826   25.3727   -3.1915 N   0  0  0  0  0  0  0  0  0  0  0  0
   13.4463   24.7180   -2.5525 H   0  0  0  0  0  0  0  0  0  0  0  0
   13.6843   25.8349   -3.8187 H   0  0  0  0  0  0  0  0  0  0  0  0
    9.7613   24.1654   -2.9228 C   0  0  0  0  0  0  0  0  0  0  0  0
   10.1313   22.8940   -3.6437 C   0  0  0  0  0  0  0  0  0  0  0  0
    9.7102   22.9456   -5.0911 C   0  0  0  0  0  0  0  0  0  0  0  0
   10.5484   23.3263   -5.9389 O   0  0  0  0  0  0  0  0  0  0  0  0
    8.5326   22.6375   -5.3741 O   0  0  0  0  0  0  0  0  0  0  0  0
    7.9461   22.3586   -4.6987 H   0  0  0  0  0  0  0  0  0  0  0  0
   10.5375   27.6103    0.8697 C   0  0  0  0  0  0  0  0  0  0  0  0
    9.8730   28.9251    1.2552 C   0  0  0  0  0  0  0  0  0  0  0  0
   10.8346   29.8922    1.9116 C   0  0  0  0  0  0  0  0  0  0  0  0
   10.6607   30.1812    3.1144 O   0  0  0  0  0  0  0  0  0  0  0  0
   11.7609   30.3657    1.2215 O   0  0  0  0  0  0  0  0  0  0  0  0
   11.8493   30.1175    0.3223 H   0  0  0  0  0  0  0  0  0  0  0  0
    8.5262   25.1865    4.3875 C   0  0  0  0  0  0  0  0  0  0  0  0
    7.6524   26.2468    5.0694 C   0  0  0  0  0  0  0  0  0  0  0  0
    8.2091   27.9683    4.9274 P   0  0  0  0  0  0  0  0  0  0  0  0
    9.7249   28.0768    4.9268 O   0  0  0  0  0  0  0  0  0  0  0  0
    7.5079   28.6473    3.7737 O   0  0  0  0  0  0  0  0  0  0  0  0
    9.9823   29.0088    4.8497 H   0  0  0  0  0  0  0  0  0  0  0  0
    7.6593   28.8029    6.3697 C   0  0  0  0  0  0  0  0  0  0  0  0
    7.0296   30.0435    6.2829 C   0  0  0  0  0  0  0  0  0  0  0  0
    6.6086   30.6886    7.4470 C   0  0  0  0  0  0  0  0  0  0  0  0
    6.8325   30.1066    8.6929 C   0  0  0  0  0  0  0  0  0  0  0  0
    6.2644   30.9759   10.2865 Br  0  0  0  0  0  0  0  0  0  0  0  0
    7.4695   28.8711    8.7774 C   0  0  0  0  0  0  0  0  0  0  0  0
    7.8800   28.2286    7.6130 C   0  0  0  0  0  0  0  0  0  0  0  0
    7.9165   23.8106    4.5984 C   0  0  0  0  0  0  0  0  0  0  0  0
    4.2693   24.3679    4.7891 N   0  0  0  0  0  0  0  0  0  0  0  0
    5.5059   24.5905    4.3701 O   0  0  0  0  0  0  0  0  0  0  0  0
    5.6921   22.9016    5.7378 C   0  0  0  0  0  0  0  0  0  0  0  0
    4.3491   23.3116    5.6334 C   0  0  0  0  0  0  0  0  0  0  0  0
    6.4328   23.7449    4.9070 C   0  0  0  0  0  0  0  0  0  0  0  0
    3.1381   22.7988    6.3361 C   0  0  0  0  0  0  0  0  0  0  0  0
    3.1989   21.8070    7.3074 C   0  0  0  0  0  0  0  0  0  0  0  0
    2.0321   21.3812    7.9502 C   0  0  0  0  0  0  0  0  0  0  0  0
    0.8067   21.9700    7.6373 C   0  0  0  0  0  0  0  0  0  0  0  0
    0.7512   22.9750    6.6764 C   0  0  0  0  0  0  0  0  0  0  0  0
    1.9166   23.3959    6.0385 C   0  0  0  0  0  0  0  0  0  0  0  0
 38 37  1  0  0  0
 36 37  2  0  0  0
 36 35  1  0  0  0
 37 39  1  0  0  0
 35 34  2  0  0  0
 39 40  2  0  0  0
 34 40  1  0  0  0
 34 30  1  0  0  0
 32 30  2  0  0  0
 30 31  1  0  0  0
 30 29  1  0  0  0
 25 24  2  0  0  0
 29 28  1  0  0  0
 24 26  1  0  0  0
 24 23  1  0  0  0
 23 22  1  0  0  0
 28 41  1  0  0  0
 28  2  1  0  0  0
 41 46  1  0  0  0
  3  2  1  0  0  0
  3  5  1  0  0  0
  2  1  2  0  0  0
 22  5  1  0  0  0
 46 44  2  0  0  0
 46 43  1  0  0  0
 44 45  1  0  0  0
  5  6  1  0  0  0
 48 49  2  0  0  0
 48 47  1  0  0  0
 43 42  1  0  0  0
 45 47  1  0  0  0
 45 42  2  0  0  0
 49 50  1  0  0  0
 47 52  2  0  0  0
  6  7  2  0  0  0
  6  8  1  0  0  0
 50 51  2  0  0  0
 52 51  1  0  0  0
  8 10  1  0  0  0
 13 11  1  0  0  0
 11 10  1  0  0  0
 11 12  2  0  0  0
 10 16  1  0  0  0
 16 17  1  0  0  0
 17 18  1  0  0  0
 18 19  2  0  0  0
 18 20  1  0  0  0
 31 33  1  0  0  0
  3  4  1  0  0  0
 26 27  1  0  0  0
  8  9  1  0  0  0
 20 21  1  0  0  0
 13 14  1  0  0  0
 13 15  1  0  0  0
M  END
> <minimizedAffinity>
-8.57052

$$$$
4GR3_R45_A_306


 52 54  0  0  0  0  0  0  0  0999 V2000
   10.1624   25.0888    4.0484 O   0  0  0  0  0  0  0  0  0  0  0  0
    8.9691   25.3379    3.7401 C   0  0  0  0  0  0  0  0  0  0  0  0
    8.6105   25.7946    2.5486 N   0  0  0  0  0  0  0  0  0  0  0  0
    7.6784   26.0710    2.3938 H   0  0  0  0  0  0  0  0  0  0  0  0
    9.5790   25.8921    1.4663 C   0  0  0  0  0  0  0  0  0  0  0  0
    9.6444   27.2824    0.8460 C   0  0  0  0  0  0  0  0  0  0  0  0
    9.0121   27.5657   -0.1714 O   0  0  0  0  0  0  0  0  0  0  0  0
   10.4166   28.1575    1.4768 N   0  0  0  0  0  0  0  0  0  0  0  0
   10.8191   27.9105    2.3406 H   0  0  0  0  0  0  0  0  0  0  0  0
   10.6797   29.4690    0.9205 C   0  0  0  0  0  0  0  0  0  0  0  0
   11.9227   29.4143    0.0264 C   0  0  0  0  0  0  0  0  0  0  0  0
   12.9802   29.9432    0.3822 O   0  0  0  0  0  0  0  0  0  0  0  0
   11.7867   28.7879   -1.1382 N   0  0  0  0  0  0  0  0  0  0  0  0
   10.9238   28.3804   -1.3802 H   0  0  0  0  0  0  0  0  0  0  0  0
   12.5490   28.7315   -1.7587 H   0  0  0  0  0  0  0  0  0  0  0  0
   10.8795   30.4644    2.0546 C   0  0  0  0  0  0  0  0  0  0  0  0
   10.3091   31.8365    1.7993 C   0  0  0  0  0  0  0  0  0  0  0  0
    8.8161   31.7765    1.5937 C   0  0  0  0  0  0  0  0  0  0  0  0
    8.3530   32.1629    0.4971 O   0  0  0  0  0  0  0  0  0  0  0  0
    8.1060   31.3748    2.5402 O   0  0  0  0  0  0  0  0  0  0  0  0
    8.5059   31.0965    3.3406 H   0  0  0  0  0  0  0  0  0  0  0  0
    9.2882   24.8322    0.3973 C   0  0  0  0  0  0  0  0  0  0  0  0
   10.4388   24.6096   -0.5749 C   0  0  0  0  0  0  0  0  0  0  0  0
    9.9781   24.5373   -2.0148 C   0  0  0  0  0  0  0  0  0  0  0  0
   10.4514   23.6433   -2.7477 O   0  0  0  0  0  0  0  0  0  0  0  0
    9.1458   25.3784   -2.4127 O   0  0  0  0  0  0  0  0  0  0  0  0
    8.8201   26.0302   -1.8236 H   0  0  0  0  0  0  0  0  0  0  0  0
    7.8637   25.1225    4.7284 C   0  0  0  0  0  0  0  0  0  0  0  0
    7.2074   26.4975    4.9054 C   0  0  0  0  0  0  0  0  0  0  0  0
    8.3175   27.9331    4.8871 P   0  0  0  0  0  0  0  0  0  0  0  0
    9.7456   27.5512    5.2394 O   0  0  0  0  0  0  0  0  0  0  0  0
    8.1493   28.7032    3.5977 O   0  0  0  0  0  0  0  0  0  0  0  0
   10.3063   28.3425    5.2190 H   0  0  0  0  0  0  0  0  0  0  0  0
    7.7730   29.0153    6.1565 C   0  0  0  0  0  0  0  0  0  0  0  0
    7.5547   28.5476    7.4514 C   0  0  0  0  0  0  0  0  0  0  0  0
    7.1147   29.4290    8.4404 C   0  0  0  0  0  0  0  0  0  0  0  0
    6.8755   30.7668    8.1333 C   0  0  0  0  0  0  0  0  0  0  0  0
    6.2750   31.9776    9.4717 Br  0  0  0  0  0  0  0  0  0  0  0  0
    7.0861   31.2296    6.8368 C   0  0  0  0  0  0  0  0  0  0  0  0
    7.5325   30.3482    5.8566 C   0  0  0  0  0  0  0  0  0  0  0  0
    6.8638   24.1549    4.1176 C   0  0  0  0  0  0  0  0  0  0  0  0
    5.0765   22.1886    6.6844 N   0  0  0  0  0  0  0  0  0  0  0  0
    6.1291   22.6064    5.9975 O   0  0  0  0  0  0  0  0  0  0  0  0
    4.4552   23.7269    5.1606 C   0  0  0  0  0  0  0  0  0  0  0  0
    4.0181   22.8784    6.1959 C   0  0  0  0  0  0  0  0  0  0  0  0
    5.8339   23.5381    5.0450 C   0  0  0  0  0  0  0  0  0  0  0  0
    2.6405   22.6358    6.7125 C   0  0  0  0  0  0  0  0  0  0  0  0
    1.5274   23.3085    6.2234 C   0  0  0  0  0  0  0  0  0  0  0  0
    0.2556   23.0229    6.7302 C   0  0  0  0  0  0  0  0  0  0  0  0
    0.0972   22.0422    7.7097 C   0  0  0  0  0  0  0  0  0  0  0  0
    1.2116   21.3580    8.1853 C   0  0  0  0  0  0  0  0  0  0  0  0
    2.4770   21.6461    7.6773 C   0  0  0  0  0  0  0  0  0  0  0  0
 38 37  1  0  0  0
 36 37  2  0  0  0
 36 35  1  0  0  0
 37 39  1  0  0  0
 35 34  2  0  0  0
 39 40  2  0  0  0
 34 40  1  0  0  0
 34 30  1  0  0  0
 32 30  2  0  0  0
 30 31  1  0  0  0
 30 29  1  0  0  0
 25 24  2  0  0  0
 29 28  1  0  0  0
 24 26  1  0  0  0
 24 23  1  0  0  0
 23 22  1  0  0  0
 28 41  1  0  0  0
 28  2  1  0  0  0
 41 46  1  0  0  0
  3  2  1  0  0  0
  3  5  1  0  0  0
  2  1  2  0  0  0
 22  5  1  0  0  0
 46 44  2  0  0  0
 46 43  1  0  0  0
 44 45  1  0  0  0
  5  6  1  0  0  0
 48 49  2  0  0  0
 48 47  1  0  0  0
 43 42  1  0  0  0
 45 47  1  0  0  0
 45 42  2  0  0  0
 49 50  1  0  0  0
 47 52  2  0  0  0
  6  7  2  0  0  0
  6  8  1  0  0  0
 50 51  2  0  0  0
 52 51  1  0  0  0
  8 10  1  0  0  0
 13 11  1  0  0  0
 11 10  1  0  0  0
 11 12  2  0  0  0
 10 16  1  0  0  0
 16 17  1  0  0  0
 17 18  1  0  0  0
 18 19  2  0  0  0
 18 20  1  0  0  0
 31 33  1  0  0  0
  3  4  1  0  0  0
 26 27  1  0  0  0
  8  9  1  0  0  0
 20 21  1  0  0  0
 13 14  1  0  0  0
 13 15  1  0  0  0
M  END
> <minimizedAffinity>
-8.50264

$$$$
