1A4K_FRA_H_3083
  RCSB PDB12061701573D
Coordinates from PDB:1A4K:H:3083 Model:1 without hydrogens
 31 34  0  0  0  0            999 V2000
   50.2860   52.8420   -3.1240   C 0  0  0  0  0  0  0  0  0  0  0  0
   51.1620   53.9170   -2.4930   C 0  0  0  0  0  0  0  0  0  0  0  0
   50.8850   55.1150   -2.6590   O 0  0  0  0  0  0  0  0  0  0  0  0
   52.2350   53.6590   -1.7540   N 0  0  0  0  0  0  0  0  0  0  0  0
   53.2650   54.4200   -1.1020   C 0  0  0  0  0  0  0  0  0  0  0  0
   52.9360   55.6750   -0.5450   C 0  0  0  0  0  0  0  0  0  0  0  0
   53.9010   56.4450    0.0810   C 0  0  0  0  0  0  0  0  0  0  0  0
   55.2450   56.0050    0.1910   C 0  0  0  0  0  0  0  0  0  0  0  0
   55.5860   54.7260   -0.3700   C 0  0  0  0  0  0  0  0  0  0  0  0
   54.6030   53.9410   -1.0110   C 0  0  0  0  0  0  0  0  0  0  0  0
   56.2310   56.9060    0.8570   N 0  0  0  0  0  0  0  0  0  0  0  0
   56.0470   57.5970    2.0360   C 0  0  0  0  0  0  0  0  0  0  0  0
   57.2500   58.4580    2.3960   C 0  0  0  0  0  0  0  0  0  0  0  0
   58.2570   58.1630    1.2260   C 0  0  0  0  0  0  0  0  0  0  0  0
   57.4640   57.1880    0.3660   C 0  0  0  0  0  0  0  0  0  0  0  0
   55.0390   57.5760    2.7530   O 0  0  0  0  0  0  0  0  0  0  0  0
   57.9560   56.7450   -0.6760   O 0  0  0  0  0  0  0  0  0  0  0  0
   56.9910   60.0720    2.5010   C 0  0  0  0  0  0  0  0  0  0  0  0
   56.4420   60.6330    1.0870   C 0  0  0  0  0  0  0  0  0  0  0  0
   57.4930   60.2660   -0.0840   C 0  0  0  0  0  0  0  0  0  0  0  0
   59.3000   60.4320    1.7600   C 0  0  0  0  0  0  0  0  0  0  0  0
   58.3790   60.7280    2.7710   C 0  0  0  0  0  0  0  0  0  0  0  0
   58.7680   59.5000    0.5310   C 0  0  0  0  0  0  0  0  0  0  0  0
   59.6760   59.0830   -0.5740   N 0  0  0  0  0  0  0  0  0  0  0  0
   60.9740   58.8130   -0.4580   C 0  0  0  0  0  0  0  0  0  0  0  0
   61.6140   58.8990    0.5950   O 0  0  0  0  0  0  0  0  0  0  0  0
   61.4560   58.3780   -1.6840   O 0  0  0  0  0  0  0  0  0  0  0  0
   62.8550   57.9820   -1.7930   C 0  0  0  0  0  0  0  0  0  0  0  0
   62.7550   56.5810   -2.3620   C 0  0  0  0  0  0  0  0  0  0  0  0
   62.8570   55.6150   -1.5650   O 0  0  0  0  0  0  0  0  0  0  0  0
   62.5680   56.4280   -3.5860   O 0  0  0  0  0  0  0  0  0  0  0  0
  1  2  1  0  0  0  0
  2  3  2  0  0  0  0
  2  4  1  0  0  0  0
  4  5  1  0  0  0  0
  5  6  2  0  0  0  0
  5 10  1  0  0  0  0
  6  7  1  0  0  0  0
  7  8  2  0  0  0  0
  8  9  1  0  0  0  0
  8 11  1  0  0  0  0
  9 10  2  0  0  0  0
 11 12  1  0  0  0  0
 11 15  1  0  0  0  0
 12 13  1  0  0  0  0
 12 16  2  0  0  0  0
 13 14  1  0  0  0  0
 13 18  1  0  0  0  0
 14 15  1  0  0  0  0
 14 23  1  0  0  0  0
 15 17  2  0  0  0  0
 18 19  1  0  0  0  0
 18 22  1  0  0  0  0
 19 20  1  0  0  0  0
 20 23  1  0  0  0  0
 21 22  1  0  0  0  0
 21 23  1  0  0  0  0
 23 24  1  0  0  0  0
 24 25  1  0  0  0  0
 25 26  2  0  0  0  0
 25 27  1  0  0  0  0
 27 28  1  0  0  0  0
 28 29  1  0  0  0  0
 29 30  2  0  0  0  0
 29 31  1  0  0  0  0
A    1
C22
A    2
C1
A    3
O3
A    4
N1
A    5
C2
A    6
C7
A    7
C6
A    8
C5
A    9
C4
A   10
C3
A   11
N5
A   12
C11
A   13
C10
A   14
C9
A   15
C8
A   16
O11
A   17
O8
A   18
C12
A   19
C17
A   20
C16
A   21
C14
A   22
C13
A   23
C15
A   24
N15
A   25
C18
A   26
O18
A   27
O19
A   28
C19
A   29
C20
A   30
O20
A   31
O21
M  END
>  <InstanceId>
1A4K_FRA_H_3083

>  <ChemCompId>
FRA

>  <PdbId>
1A4K

>  <ChainId>
H

>  <ResidueNumber>
3083

>  <InsertionCode>


>  <Model>
1

>  <AltIds>


>  <MissingHeavyAtoms>
0

>  <ObservedFormula>
C21 N3 O7

>  <Name>
[4-(4-ACETYLAMINO-PHENYL)-3,5-DIOXO-4-AZA-TRICYCLO[5.2.2.0 2,6]UNDEC-1-YLCARBAMOYLOXY]-ACETIC ACID

>  <SystematicName>


>  <Synonyms>


>  <Type>
NON-POLYMER

>  <Formula>
C21 H23 N3 O7

>  <MolecularWeight>
429.423

>  <ModifiedDate>
2011-06-04

>  <Parent>


>  <OneLetterCode>


>  <SubcomponentList>


>  <AmbiguousFlag>
N

>  <InChI>
InChI=1S/C21H23N3O7/c1-11(25)22-13-2-4-14(5-3-13)24-18(28)16-12-6-8-21(9-7-12,17(16)19(24)29)23-20(30)31-10-15(26)27/h2-5,12,16-17H,6-10H2,1H3,(H,22,25)(H,23,30)(H,26,27)/t12-,16-,17+,21-/m1/s1

>  <InChIKey>
WBCOLMYVEBTZOA-OKRSVSQCSA-N

>  <SMILES>
CC(=O)Nc1ccc(cc1)N2C(=O)[C@@H]3C4CCC([C@@H]3C2=O)(CC4)NC(=O)OCC(=O)O

$$$$
