3LQ2_TDP_A_887


 30 31  0  0  0  0  0  0  0  0999 V2000
   22.5275  -63.2821    0.1207 N   0  0  0  0  0  0  0  0  0  0  0  0
   21.7560  -63.3826   -0.9463 C   0  0  0  0  0  0  0  0  0  0  0  0
   20.2671  -64.0512   -0.6105 S   0  0  0  0  0  0  0  0  0  0  0  0
   20.6587  -64.2217    1.0599 C   0  0  0  0  0  0  0  0  0  0  0  0
   21.9240  -63.7574    1.3068 C   0  0  0  0  0  0  0  0  0  0  0  0
   22.6469  -63.7193    2.6235 C   0  0  0  0  0  0  0  0  0  0  0  0
   23.9376  -62.7371    0.0763 C   0  0  0  0  0  0  0  0  0  0  0  0
   24.3705  -59.2232    1.3823 N   0  0  0  0  0  0  0  0  0  0  0  0
   24.1659  -58.4480    0.2572 C   0  0  0  0  0  0  0  0  0  0  0  0
   24.2668  -56.9709    0.4219 C   0  0  0  0  0  0  0  0  0  0  0  0
   23.8839  -58.9701   -0.9407 N   0  0  0  0  0  0  0  0  0  0  0  0
   23.7920  -60.3580   -1.0706 C   0  0  0  0  0  0  0  0  0  0  0  0
   23.5240  -60.8148   -2.2783 N   0  0  0  0  0  0  0  0  0  0  0  0
   24.0039  -61.2256    0.1119 C   0  0  0  0  0  0  0  0  0  0  0  0
   24.2886  -60.5978    1.3016 C   0  0  0  0  0  0  0  0  0  0  0  0
   23.3934  -60.1861   -3.0245 H   0  0  0  0  0  0  0  0  0  0  0  0
   23.4544  -61.7845   -2.4336 H   0  0  0  0  0  0  0  0  0  0  0  0
   19.6856  -64.8121    2.0372 C   0  0  0  0  0  0  0  0  0  0  0  0
   18.3195  -65.0246    1.4358 C   0  0  0  0  0  0  0  0  0  0  0  0
   17.3313  -64.8300    2.4889 O   0  0  0  0  0  0  0  0  0  0  0  0
   15.9209  -64.0787    2.2250 P   0  0  0  0  0  0  0  0  0  0  0  0
   14.9772  -64.4946    3.2892 O   0  0  0  0  0  0  0  0  0  0  0  0
   16.1798  -62.6219    2.0283 O   0  0  0  0  0  0  0  0  0  0  0  0
   16.8128  -62.5010    1.3033 H   0  0  0  0  0  0  0  0  0  0  0  0
   15.4058  -64.6906    0.8227 O   0  0  0  0  0  0  0  0  0  0  0  0
   14.4173  -65.8785    0.3687 P   0  0  0  0  0  0  0  0  0  0  0  0
   13.0435  -65.2050    0.0624 O   0  0  0  0  0  0  0  0  0  0  0  0
   14.9690  -66.4437   -0.8912 O   0  0  0  0  0  0  0  0  0  0  0  0
   14.2562  -66.8056    1.5247 O   0  0  0  0  0  0  0  0  0  0  0  0
   13.8903  -66.3197    2.2803 H   0  0  0  0  0  0  0  0  0  0  0  0
  8  9  2  0  0  0
  8 15  1  0  0  0
  9 10  1  0  0  0
  9 11  1  0  0  0
 11 12  2  0  0  0
 12 13  1  0  0  0
 12 14  1  0  0  0
 14 15  2  0  0  0
 14  7  1  0  0  0
  7  1  1  0  0  0
  1  2  2  0  0  0
  1  5  1  0  0  0
  2  3  1  0  0  0
  3  4  1  0  0  0
  4  5  2  0  0  0
  4 18  1  0  0  0
  5  6  1  0  0  0
 18 19  1  0  0  0
 19 20  1  0  0  0
 20 21  1  0  0  0
 21 25  1  0  0  0
 21 22  2  0  0  0
 21 23  1  0  0  0
 25 26  1  0  0  0
 26 27  2  0  0  0
 26 28  1  0  0  0
 26 29  1  0  0  0
 13 16  1  0  0  0
 13 17  1  0  0  0
 23 24  1  0  0  0
 29 30  1  0  0  0
M  CHG 1   1   1
M  CHG 1  28  -1
M  END
> <minimizedAffinity>
-9.16683

$$$$
3LQ2_TDP_A_887


 30 31  0  0  0  0  0  0  0  0999 V2000
   22.4206  -63.3030    0.0048 N   0  0  0  0  0  0  0  0  0  0  0  0
   21.5786  -63.3250   -1.0123 C   0  0  0  0  0  0  0  0  0  0  0  0
   20.0945  -63.9688   -0.6129 S   0  0  0  0  0  0  0  0  0  0  0  0
   20.5883  -64.2389    1.0168 C   0  0  0  0  0  0  0  0  0  0  0  0
   21.8809  -63.8238    1.2025 C   0  0  0  0  0  0  0  0  0  0  0  0
   22.6886  -63.8761    2.4684 C   0  0  0  0  0  0  0  0  0  0  0  0
   23.8413  -62.7960   -0.1053 C   0  0  0  0  0  0  0  0  0  0  0  0
   23.7988  -59.1165   -0.9424 N   0  0  0  0  0  0  0  0  0  0  0  0
   24.1412  -58.5228    0.2571 C   0  0  0  0  0  0  0  0  0  0  0  0
   24.2184  -57.0353    0.2817 C   0  0  0  0  0  0  0  0  0  0  0  0
   24.4018  -59.2248    1.3645 N   0  0  0  0  0  0  0  0  0  0  0  0
   24.3254  -60.6189    1.3169 C   0  0  0  0  0  0  0  0  0  0  0  0
   24.5806  -61.2563    2.4428 N   0  0  0  0  0  0  0  0  0  0  0  0
   23.9621  -61.2954    0.0495 C   0  0  0  0  0  0  0  0  0  0  0  0
   23.7123  -60.4899   -1.0365 C   0  0  0  0  0  0  0  0  0  0  0  0
   24.8169  -60.7491    3.2529 H   0  0  0  0  0  0  0  0  0  0  0  0
   24.5350  -62.2392    2.4733 H   0  0  0  0  0  0  0  0  0  0  0  0
   19.6627  -64.8531    2.0251 C   0  0  0  0  0  0  0  0  0  0  0  0
   18.2639  -65.0322    1.4919 C   0  0  0  0  0  0  0  0  0  0  0  0
   17.3311  -64.6809    2.5548 O   0  0  0  0  0  0  0  0  0  0  0  0
   15.8750  -64.0395    2.2522 P   0  0  0  0  0  0  0  0  0  0  0  0
   14.9417  -64.5132    3.3013 O   0  0  0  0  0  0  0  0  0  0  0  0
   16.0294  -62.5696    2.0433 O   0  0  0  0  0  0  0  0  0  0  0  0
   16.6674  -62.4096    1.3303 H   0  0  0  0  0  0  0  0  0  0  0  0
   15.4375  -64.7027    0.8468 O   0  0  0  0  0  0  0  0  0  0  0  0
   14.4205  -65.8601    0.3772 P   0  0  0  0  0  0  0  0  0  0  0  0
   13.0551  -65.1538    0.1096 O   0  0  0  0  0  0  0  0  0  0  0  0
   14.9428  -66.4017   -0.9054 O   0  0  0  0  0  0  0  0  0  0  0  0
   14.2593  -66.8143    1.5109 O   0  0  0  0  0  0  0  0  0  0  0  0
   13.9137  -66.3419    2.2844 H   0  0  0  0  0  0  0  0  0  0  0  0
  8  9  2  0  0  0
  8 15  1  0  0  0
  9 10  1  0  0  0
  9 11  1  0  0  0
 11 12  2  0  0  0
 12 13  1  0  0  0
 12 14  1  0  0  0
 14 15  2  0  0  0
 14  7  1  0  0  0
  7  1  1  0  0  0
  1  2  2  0  0  0
  1  5  1  0  0  0
  2  3  1  0  0  0
  3  4  1  0  0  0
  4  5  2  0  0  0
  4 18  1  0  0  0
  5  6  1  0  0  0
 18 19  1  0  0  0
 19 20  1  0  0  0
 20 21  1  0  0  0
 21 25  1  0  0  0
 21 22  2  0  0  0
 21 23  1  0  0  0
 25 26  1  0  0  0
 26 27  2  0  0  0
 26 28  1  0  0  0
 26 29  1  0  0  0
 13 16  1  0  0  0
 13 17  1  0  0  0
 23 24  1  0  0  0
 29 30  1  0  0  0
M  CHG 1   1   1
M  CHG 1  28  -1
M  END
> <minimizedAffinity>
-8.92036

$$$$
3LQ2_TDP_A_887


 30 31  0  0  0  0  0  0  0  0999 V2000
   19.0838  -64.1054   -0.3226 N   0  0  0  0  0  0  0  0  0  0  0  0
   18.5055  -63.4279   -1.2973 C   0  0  0  0  0  0  0  0  0  0  0  0
   16.9469  -62.9659   -0.9313 S   0  0  0  0  0  0  0  0  0  0  0  0
   17.0334  -63.7070    0.6231 C   0  0  0  0  0  0  0  0  0  0  0  0
   18.2607  -64.2864    0.8118 C   0  0  0  0  0  0  0  0  0  0  0  0
   18.7486  -65.0285    2.0237 C   0  0  0  0  0  0  0  0  0  0  0  0
   20.4862  -64.6636   -0.4189 C   0  0  0  0  0  0  0  0  0  0  0  0
   22.9244  -61.8064   -0.7832 N   0  0  0  0  0  0  0  0  0  0  0  0
   23.5242  -61.7517    0.4602 C   0  0  0  0  0  0  0  0  0  0  0  0
   24.5656  -60.7067    0.6671 C   0  0  0  0  0  0  0  0  0  0  0  0
   23.2089  -62.5883    1.4540 N   0  0  0  0  0  0  0  0  0  0  0  0
   22.2309  -63.5618    1.2359 C   0  0  0  0  0  0  0  0  0  0  0  0
   21.9537  -64.3495    2.2565 N   0  0  0  0  0  0  0  0  0  0  0  0
   21.5635  -63.6549   -0.0838 C   0  0  0  0  0  0  0  0  0  0  0  0
   21.9544  -62.7518   -1.0441 C   0  0  0  0  0  0  0  0  0  0  0  0
   22.4328  -64.2374    3.1093 H   0  0  0  0  0  0  0  0  0  0  0  0
   21.2676  -65.0498    2.1658 H   0  0  0  0  0  0  0  0  0  0  0  0
   15.8725  -63.6750    1.5728 C   0  0  0  0  0  0  0  0  0  0  0  0
   15.2223  -65.0254    1.7366 C   0  0  0  0  0  0  0  0  0  0  0  0
   14.1159  -65.1072    0.7918 O   0  0  0  0  0  0  0  0  0  0  0  0
   14.2156  -65.9504   -0.5875 P   0  0  0  0  0  0  0  0  0  0  0  0
   12.9260  -66.6529   -0.7861 O   0  0  0  0  0  0  0  0  0  0  0  0
   14.7130  -65.0495   -1.6687 O   0  0  0  0  0  0  0  0  0  0  0  0
   15.5611  -64.6617   -1.4019 H   0  0  0  0  0  0  0  0  0  0  0  0
   15.3549  -67.0553   -0.2916 O   0  0  0  0  0  0  0  0  0  0  0  0
   16.7482  -67.4952   -0.9696 P   0  0  0  0  0  0  0  0  0  0  0  0
   16.4936  -68.8935   -1.6133 O   0  0  0  0  0  0  0  0  0  0  0  0
   17.0345  -66.5125   -2.0483 O   0  0  0  0  0  0  0  0  0  0  0  0
   17.7596  -67.6376    0.1161 O   0  0  0  0  0  0  0  0  0  0  0  0
   17.4583  -68.3041    0.7532 H   0  0  0  0  0  0  0  0  0  0  0  0
  8  9  2  0  0  0
  8 15  1  0  0  0
  9 10  1  0  0  0
  9 11  1  0  0  0
 11 12  2  0  0  0
 12 13  1  0  0  0
 12 14  1  0  0  0
 14 15  2  0  0  0
 14  7  1  0  0  0
  7  1  1  0  0  0
  1  2  2  0  0  0
  1  5  1  0  0  0
  2  3  1  0  0  0
  3  4  1  0  0  0
  4  5  2  0  0  0
  4 18  1  0  0  0
  5  6  1  0  0  0
 18 19  1  0  0  0
 19 20  1  0  0  0
 20 21  1  0  0  0
 21 25  1  0  0  0
 21 22  2  0  0  0
 21 23  1  0  0  0
 25 26  1  0  0  0
 26 27  2  0  0  0
 26 28  1  0  0  0
 26 29  1  0  0  0
 13 16  1  0  0  0
 13 17  1  0  0  0
 23 24  1  0  0  0
 29 30  1  0  0  0
M  CHG 1   1   1
M  CHG 1  28  -1
M  END
> <minimizedAffinity>
-8.55510

$$$$
3LQ2_TDP_A_887


 30 31  0  0  0  0  0  0  0  0999 V2000
   22.3685  -63.3874    0.2833 N   0  0  0  0  0  0  0  0  0  0  0  0
   22.0236  -63.9860    1.4087 C   0  0  0  0  0  0  0  0  0  0  0  0
   20.4100  -64.3992    1.4565 S   0  0  0  0  0  0  0  0  0  0  0  0
   20.1396  -63.7470   -0.1166 C   0  0  0  0  0  0  0  0  0  0  0  0
   21.3010  -63.2322   -0.6297 C   0  0  0  0  0  0  0  0  0  0  0  0
   21.5027  -62.5781   -1.9672 C   0  0  0  0  0  0  0  0  0  0  0  0
   23.7681  -62.8860    0.0057 C   0  0  0  0  0  0  0  0  0  0  0  0
   23.8766  -59.2167   -0.8691 N   0  0  0  0  0  0  0  0  0  0  0  0
   24.1469  -58.6173    0.3459 C   0  0  0  0  0  0  0  0  0  0  0  0
   24.2589  -57.1318    0.3611 C   0  0  0  0  0  0  0  0  0  0  0  0
   24.3101  -59.3123    1.4762 N   0  0  0  0  0  0  0  0  0  0  0  0
   24.2029  -60.7046    1.4371 C   0  0  0  0  0  0  0  0  0  0  0  0
   24.3611  -61.3346    2.5848 N   0  0  0  0  0  0  0  0  0  0  0  0
   23.9146  -61.3870    0.1538 C   0  0  0  0  0  0  0  0  0  0  0  0
   23.7631  -60.5887   -0.9554 C   0  0  0  0  0  0  0  0  0  0  0  0
   24.5513  -60.8238    3.4046 H   0  0  0  0  0  0  0  0  0  0  0  0
   24.2891  -62.3158    2.6217 H   0  0  0  0  0  0  0  0  0  0  0  0
   18.7830  -63.7798   -0.7564 C   0  0  0  0  0  0  0  0  0  0  0  0
   18.1383  -65.1403   -0.6752 C   0  0  0  0  0  0  0  0  0  0  0  0
   16.7944  -65.0327   -1.2281 O   0  0  0  0  0  0  0  0  0  0  0  0
   15.4749  -65.4419   -0.3827 P   0  0  0  0  0  0  0  0  0  0  0  0
   14.3235  -65.4587   -1.3154 O   0  0  0  0  0  0  0  0  0  0  0  0
   15.7716  -66.6719    0.4092 O   0  0  0  0  0  0  0  0  0  0  0  0
   16.5461  -66.5152    0.9718 H   0  0  0  0  0  0  0  0  0  0  0  0
   15.2737  -64.2170    0.6496 O   0  0  0  0  0  0  0  0  0  0  0  0
   15.7347  -63.8821    2.1562 P   0  0  0  0  0  0  0  0  0  0  0  0
   16.9713  -64.7897    2.4421 O   0  0  0  0  0  0  0  0  0  0  0  0
   16.1668  -62.4593    2.1710 O   0  0  0  0  0  0  0  0  0  0  0  0
   14.6245  -64.2723    3.0710 O   0  0  0  0  0  0  0  0  0  0  0  0
   14.4378  -65.2186    2.9677 H   0  0  0  0  0  0  0  0  0  0  0  0
  8  9  2  0  0  0
  8 15  1  0  0  0
  9 10  1  0  0  0
  9 11  1  0  0  0
 11 12  2  0  0  0
 12 13  1  0  0  0
 12 14  1  0  0  0
 14 15  2  0  0  0
 14  7  1  0  0  0
  7  1  1  0  0  0
  1  2  2  0  0  0
  1  5  1  0  0  0
  2  3  1  0  0  0
  3  4  1  0  0  0
  4  5  2  0  0  0
  4 18  1  0  0  0
  5  6  1  0  0  0
 18 19  1  0  0  0
 19 20  1  0  0  0
 20 21  1  0  0  0
 21 25  1  0  0  0
 21 22  2  0  0  0
 21 23  1  0  0  0
 25 26  1  0  0  0
 26 27  2  0  0  0
 26 28  1  0  0  0
 26 29  1  0  0  0
 13 16  1  0  0  0
 13 17  1  0  0  0
 23 24  1  0  0  0
 29 30  1  0  0  0
M  CHG 1   1   1
M  CHG 1  28  -1
M  END
> <minimizedAffinity>
-7.74339

$$$$
3LQ2_TDP_A_887


 30 31  0  0  0  0  0  0  0  0999 V2000
   22.5261  -63.3085    0.3160 N   0  0  0  0  0  0  0  0  0  0  0  0
   22.2884  -63.8745    1.4851 C   0  0  0  0  0  0  0  0  0  0  0  0
   20.7030  -64.3554    1.6636 S   0  0  0  0  0  0  0  0  0  0  0  0
   20.2939  -63.7814    0.0900 C   0  0  0  0  0  0  0  0  0  0  0  0
   21.3917  -63.2380   -0.5239 C   0  0  0  0  0  0  0  0  0  0  0  0
   21.4694  -62.6316   -1.8964 C   0  0  0  0  0  0  0  0  0  0  0  0
   23.8782  -62.7583   -0.0797 C   0  0  0  0  0  0  0  0  0  0  0  0
   23.8898  -59.0647   -0.8529 N   0  0  0  0  0  0  0  0  0  0  0  0
   24.1860  -58.4939    0.3699 C   0  0  0  0  0  0  0  0  0  0  0  0
   24.2702  -57.0076    0.4237 C   0  0  0  0  0  0  0  0  0  0  0  0
   24.3972  -59.2167    1.4745 N   0  0  0  0  0  0  0  0  0  0  0  0
   24.3154  -60.6093    1.3992 C   0  0  0  0  0  0  0  0  0  0  0  0
   24.5209  -61.2676    2.5232 N   0  0  0  0  0  0  0  0  0  0  0  0
   24.0007  -61.2614    0.1064 C   0  0  0  0  0  0  0  0  0  0  0  0
   23.7998  -60.4357   -0.9746 C   0  0  0  0  0  0  0  0  0  0  0  0
   24.7265  -60.7760    3.3511 H   0  0  0  0  0  0  0  0  0  0  0  0
   24.4688  -62.2507    2.5345 H   0  0  0  0  0  0  0  0  0  0  0  0
   18.8992  -63.8999   -0.4498 C   0  0  0  0  0  0  0  0  0  0  0  0
   18.0361  -64.8199    0.3759 C   0  0  0  0  0  0  0  0  0  0  0  0
   17.4054  -65.7732   -0.5278 O   0  0  0  0  0  0  0  0  0  0  0  0
   15.8464  -65.6625   -0.9529 P   0  0  0  0  0  0  0  0  0  0  0  0
   15.7607  -64.7875   -2.1459 O   0  0  0  0  0  0  0  0  0  0  0  0
   15.2690  -67.0367   -1.0312 O   0  0  0  0  0  0  0  0  0  0  0  0
   15.3972  -67.4901   -0.1833 H   0  0  0  0  0  0  0  0  0  0  0  0
   15.1537  -64.8972    0.2883 O   0  0  0  0  0  0  0  0  0  0  0  0
   14.1784  -65.3045    1.5038 P   0  0  0  0  0  0  0  0  0  0  0  0
   14.6529  -64.4735    2.7363 O   0  0  0  0  0  0  0  0  0  0  0  0
   12.8085  -64.8669    1.1255 O   0  0  0  0  0  0  0  0  0  0  0  0
   14.3828  -66.7534    1.7876 O   0  0  0  0  0  0  0  0  0  0  0  0
   15.3113  -66.9093    2.0209 H   0  0  0  0  0  0  0  0  0  0  0  0
  8  9  2  0  0  0
  8 15  1  0  0  0
  9 10  1  0  0  0
  9 11  1  0  0  0
 11 12  2  0  0  0
 12 13  1  0  0  0
 12 14  1  0  0  0
 14 15  2  0  0  0
 14  7  1  0  0  0
  7  1  1  0  0  0
  1  2  2  0  0  0
  1  5  1  0  0  0
  2  3  1  0  0  0
  3  4  1  0  0  0
  4  5  2  0  0  0
  4 18  1  0  0  0
  5  6  1  0  0  0
 18 19  1  0  0  0
 19 20  1  0  0  0
 20 21  1  0  0  0
 21 25  1  0  0  0
 21 22  2  0  0  0
 21 23  1  0  0  0
 25 26  1  0  0  0
 26 27  2  0  0  0
 26 28  1  0  0  0
 26 29  1  0  0  0
 13 16  1  0  0  0
 13 17  1  0  0  0
 23 24  1  0  0  0
 29 30  1  0  0  0
M  CHG 1   1   1
M  CHG 1  28  -1
M  END
> <minimizedAffinity>
-7.59461

$$$$
3LQ2_TDP_A_887


 30 31  0  0  0  0  0  0  0  0999 V2000
   18.4457  -64.5868    0.0005 N   0  0  0  0  0  0  0  0  0  0  0  0
   18.6685  -63.8623   -1.0808 C   0  0  0  0  0  0  0  0  0  0  0  0
   20.1494  -63.0988   -1.0572 S   0  0  0  0  0  0  0  0  0  0  0  0
   20.5316  -63.7676    0.4854 C   0  0  0  0  0  0  0  0  0  0  0  0
   19.5067  -64.5588    0.9335 C   0  0  0  0  0  0  0  0  0  0  0  0
   19.4370  -65.3274    2.2227 C   0  0  0  0  0  0  0  0  0  0  0  0
   17.1629  -65.3527    0.2360 C   0  0  0  0  0  0  0  0  0  0  0  0
   18.2503  -68.3890   -1.7235 N   0  0  0  0  0  0  0  0  0  0  0  0
   17.0767  -69.1050   -1.8604 C   0  0  0  0  0  0  0  0  0  0  0  0
   17.1497  -70.3941   -2.6033 C   0  0  0  0  0  0  0  0  0  0  0  0
   15.9094  -68.6844   -1.3629 N   0  0  0  0  0  0  0  0  0  0  0  0
   15.8648  -67.4710   -0.6719 C   0  0  0  0  0  0  0  0  0  0  0  0
   14.6887  -67.1146   -0.1936 N   0  0  0  0  0  0  0  0  0  0  0  0
   17.1012  -66.6718   -0.5033 C   0  0  0  0  0  0  0  0  0  0  0  0
   18.2537  -67.1853   -1.0499 C   0  0  0  0  0  0  0  0  0  0  0  0
   13.9032  -67.6898   -0.3393 H   0  0  0  0  0  0  0  0  0  0  0  0
   14.5963  -66.2732    0.3092 H   0  0  0  0  0  0  0  0  0  0  0  0
   21.8320  -63.4665    1.1701 C   0  0  0  0  0  0  0  0  0  0  0  0
   22.7245  -62.5717    0.3481 C   0  0  0  0  0  0  0  0  0  0  0  0
   23.8386  -63.3752   -0.1383 O   0  0  0  0  0  0  0  0  0  0  0  0
   24.4553  -63.1910   -1.6246 P   0  0  0  0  0  0  0  0  0  0  0  0
   23.4389  -62.5061   -2.4577 O   0  0  0  0  0  0  0  0  0  0  0  0
   25.8141  -62.5838   -1.5113 O   0  0  0  0  0  0  0  0  0  0  0  0
   26.3687  -63.1367   -0.9389 H   0  0  0  0  0  0  0  0  0  0  0  0
   24.6245  -64.7010   -2.1700 O   0  0  0  0  0  0  0  0  0  0  0  0
   24.2721  -65.4896   -3.5296 P   0  0  0  0  0  0  0  0  0  0  0  0
   25.6012  -66.1591   -3.9984 O   0  0  0  0  0  0  0  0  0  0  0  0
   23.2958  -66.5531   -3.1731 O   0  0  0  0  0  0  0  0  0  0  0  0
   23.8510  -64.4832   -4.5454 O   0  0  0  0  0  0  0  0  0  0  0  0
   24.5703  -63.8485   -4.6891 H   0  0  0  0  0  0  0  0  0  0  0  0
  8  9  2  0  0  0
  8 15  1  0  0  0
  9 10  1  0  0  0
  9 11  1  0  0  0
 11 12  2  0  0  0
 12 13  1  0  0  0
 12 14  1  0  0  0
 14 15  2  0  0  0
 14  7  1  0  0  0
  7  1  1  0  0  0
  1  2  2  0  0  0
  1  5  1  0  0  0
  2  3  1  0  0  0
  3  4  1  0  0  0
  4  5  2  0  0  0
  4 18  1  0  0  0
  5  6  1  0  0  0
 18 19  1  0  0  0
 19 20  1  0  0  0
 20 21  1  0  0  0
 21 25  1  0  0  0
 21 22  2  0  0  0
 21 23  1  0  0  0
 25 26  1  0  0  0
 26 27  2  0  0  0
 26 28  1  0  0  0
 26 29  1  0  0  0
 13 16  1  0  0  0
 13 17  1  0  0  0
 23 24  1  0  0  0
 29 30  1  0  0  0
M  CHG 1   1   1
M  CHG 1  28  -1
M  END
> <minimizedAffinity>
-7.47877

$$$$
3LQ2_TDP_A_887


 30 31  0  0  0  0  0  0  0  0999 V2000
   18.1312  -64.1667    0.8195 N   0  0  0  0  0  0  0  0  0  0  0  0
   18.8040  -64.6718    1.8373 C   0  0  0  0  0  0  0  0  0  0  0  0
   20.4305  -64.8446    1.5190 S   0  0  0  0  0  0  0  0  0  0  0  0
   20.2431  -64.2084   -0.0725 C   0  0  0  0  0  0  0  0  0  0  0  0
   18.9335  -63.8819   -0.3085 C   0  0  0  0  0  0  0  0  0  0  0  0
   18.3450  -63.2969   -1.5611 C   0  0  0  0  0  0  0  0  0  0  0  0
   16.6360  -63.9404    0.8440 C   0  0  0  0  0  0  0  0  0  0  0  0
   15.6410  -67.1505   -0.8725 N   0  0  0  0  0  0  0  0  0  0  0  0
   14.4251  -67.4491   -0.2885 C   0  0  0  0  0  0  0  0  0  0  0  0
   13.7362  -68.6875   -0.7480 C   0  0  0  0  0  0  0  0  0  0  0  0
   13.8626  -66.6785    0.6479 N   0  0  0  0  0  0  0  0  0  0  0  0
   14.5260  -65.5207    1.0613 C   0  0  0  0  0  0  0  0  0  0  0  0
   13.9286  -64.8079    1.9961 N   0  0  0  0  0  0  0  0  0  0  0  0
   15.8323  -65.1638    0.4595 C   0  0  0  0  0  0  0  0  0  0  0  0
   16.3312  -66.0171   -0.4962 C   0  0  0  0  0  0  0  0  0  0  0  0
   13.0596  -65.0982    2.3566 H   0  0  0  0  0  0  0  0  0  0  0  0
   14.3514  -63.9853    2.3336 H   0  0  0  0  0  0  0  0  0  0  0  0
   21.4108  -64.0703   -1.0042 C   0  0  0  0  0  0  0  0  0  0  0  0
   22.1314  -62.7566   -0.8372 C   0  0  0  0  0  0  0  0  0  0  0  0
   23.2396  -62.7303   -1.7830 O   0  0  0  0  0  0  0  0  0  0  0  0
   24.6862  -63.3730   -1.4401 P   0  0  0  0  0  0  0  0  0  0  0  0
   25.7144  -62.5972   -2.1729 O   0  0  0  0  0  0  0  0  0  0  0  0
   24.8144  -63.5100    0.0407 O   0  0  0  0  0  0  0  0  0  0  0  0
   24.0764  -64.0392    0.3815 H   0  0  0  0  0  0  0  0  0  0  0  0
   24.6191  -64.8549   -2.0771 O   0  0  0  0  0  0  0  0  0  0  0  0
   24.3121  -65.4805   -3.5293 P   0  0  0  0  0  0  0  0  0  0  0  0
   25.6604  -66.0812   -4.0354 O   0  0  0  0  0  0  0  0  0  0  0  0
   23.3372  -66.5852   -3.3280 O   0  0  0  0  0  0  0  0  0  0  0  0
   23.9091  -64.3645   -4.4315 O   0  0  0  0  0  0  0  0  0  0  0  0
   24.6256  -63.7125   -4.4793 H   0  0  0  0  0  0  0  0  0  0  0  0
  8  9  2  0  0  0
  8 15  1  0  0  0
  9 10  1  0  0  0
  9 11  1  0  0  0
 11 12  2  0  0  0
 12 13  1  0  0  0
 12 14  1  0  0  0
 14 15  2  0  0  0
 14  7  1  0  0  0
  7  1  1  0  0  0
  1  2  2  0  0  0
  1  5  1  0  0  0
  2  3  1  0  0  0
  3  4  1  0  0  0
  4  5  2  0  0  0
  4 18  1  0  0  0
  5  6  1  0  0  0
 18 19  1  0  0  0
 19 20  1  0  0  0
 20 21  1  0  0  0
 21 25  1  0  0  0
 21 22  2  0  0  0
 21 23  1  0  0  0
 25 26  1  0  0  0
 26 27  2  0  0  0
 26 28  1  0  0  0
 26 29  1  0  0  0
 13 16  1  0  0  0
 13 17  1  0  0  0
 23 24  1  0  0  0
 29 30  1  0  0  0
M  CHG 1   1   1
M  CHG 1  28  -1
M  END
> <minimizedAffinity>
-7.44283

$$$$
3LQ2_TDP_A_887


 30 31  0  0  0  0  0  0  0  0999 V2000
   18.8501  -63.9354   -0.0106 N   0  0  0  0  0  0  0  0  0  0  0  0
   18.2875  -62.9751   -0.7213 C   0  0  0  0  0  0  0  0  0  0  0  0
   17.1824  -63.5490   -1.8286 S   0  0  0  0  0  0  0  0  0  0  0  0
   17.4580  -65.1798   -1.3414 C   0  0  0  0  0  0  0  0  0  0  0  0
   18.3921  -65.2311   -0.3403 C   0  0  0  0  0  0  0  0  0  0  0  0
   18.9139  -66.4501    0.3663 C   0  0  0  0  0  0  0  0  0  0  0  0
   19.9085  -63.6792    1.0390 C   0  0  0  0  0  0  0  0  0  0  0  0
   22.6250  -62.8386   -1.4420 N   0  0  0  0  0  0  0  0  0  0  0  0
   23.7721  -62.8921   -0.6740 C   0  0  0  0  0  0  0  0  0  0  0  0
   25.0630  -62.6032   -1.3592 C   0  0  0  0  0  0  0  0  0  0  0  0
   23.7583  -63.1912    0.6289 N   0  0  0  0  0  0  0  0  0  0  0  0
   22.5362  -63.4608    1.2495 C   0  0  0  0  0  0  0  0  0  0  0  0
   22.5843  -63.7370    2.5381 N   0  0  0  0  0  0  0  0  0  0  0  0
   21.2821  -63.4148    0.4614 C   0  0  0  0  0  0  0  0  0  0  0  0
   21.3961  -63.0986   -0.8719 C   0  0  0  0  0  0  0  0  0  0  0  0
   23.4502  -63.7523    3.0062 H   0  0  0  0  0  0  0  0  0  0  0  0
   21.7543  -63.9280    3.0319 H   0  0  0  0  0  0  0  0  0  0  0  0
   16.7309  -66.3237   -1.9843 C   0  0  0  0  0  0  0  0  0  0  0  0
   15.9239  -67.1251   -0.9945 C   0  0  0  0  0  0  0  0  0  0  0  0
   14.6375  -66.4621   -0.8244 O   0  0  0  0  0  0  0  0  0  0  0  0
   14.1379  -65.8961    0.6086 P   0  0  0  0  0  0  0  0  0  0  0  0
   12.8392  -65.2133    0.4008 O   0  0  0  0  0  0  0  0  0  0  0  0
   14.2145  -66.9959    1.6150 O   0  0  0  0  0  0  0  0  0  0  0  0
   15.1185  -67.3465    1.6426 H   0  0  0  0  0  0  0  0  0  0  0  0
   15.2401  -64.7825    0.9975 O   0  0  0  0  0  0  0  0  0  0  0  0
   15.7063  -64.0329    2.3449 P   0  0  0  0  0  0  0  0  0  0  0  0
   17.0319  -64.7261    2.7890 O   0  0  0  0  0  0  0  0  0  0  0  0
   15.9994  -62.6223    1.9768 O   0  0  0  0  0  0  0  0  0  0  0  0
   14.6635  -64.2694    3.3834 O   0  0  0  0  0  0  0  0  0  0  0  0
   14.5664  -65.2229    3.5329 H   0  0  0  0  0  0  0  0  0  0  0  0
  8  9  2  0  0  0
  8 15  1  0  0  0
  9 10  1  0  0  0
  9 11  1  0  0  0
 11 12  2  0  0  0
 12 13  1  0  0  0
 12 14  1  0  0  0
 14 15  2  0  0  0
 14  7  1  0  0  0
  7  1  1  0  0  0
  1  2  2  0  0  0
  1  5  1  0  0  0
  2  3  1  0  0  0
  3  4  1  0  0  0
  4  5  2  0  0  0
  4 18  1  0  0  0
  5  6  1  0  0  0
 18 19  1  0  0  0
 19 20  1  0  0  0
 20 21  1  0  0  0
 21 25  1  0  0  0
 21 22  2  0  0  0
 21 23  1  0  0  0
 25 26  1  0  0  0
 26 27  2  0  0  0
 26 28  1  0  0  0
 26 29  1  0  0  0
 13 16  1  0  0  0
 13 17  1  0  0  0
 23 24  1  0  0  0
 29 30  1  0  0  0
M  CHG 1   1   1
M  CHG 1  28  -1
M  END
> <minimizedAffinity>
-7.42009

$$$$
3LQ2_TDP_A_887


 30 31  0  0  0  0  0  0  0  0999 V2000
   17.5485  -64.5212    0.6972 N   0  0  0  0  0  0  0  0  0  0  0  0
   17.3581  -63.9258   -0.4660 C   0  0  0  0  0  0  0  0  0  0  0  0
   18.7631  -63.3128   -1.1195 S   0  0  0  0  0  0  0  0  0  0  0  0
   19.6945  -63.8696    0.2204 C   0  0  0  0  0  0  0  0  0  0  0  0
   18.8941  -64.5111    1.1288 C   0  0  0  0  0  0  0  0  0  0  0  0
   19.3054  -65.1459    2.4271 C   0  0  0  0  0  0  0  0  0  0  0  0
   16.4284  -65.1320    1.5095 C   0  0  0  0  0  0  0  0  0  0  0  0
   12.9674  -64.8816    0.0264 N   0  0  0  0  0  0  0  0  0  0  0  0
   12.9038  -65.9883   -0.7981 C   0  0  0  0  0  0  0  0  0  0  0  0
   11.6393  -66.1986   -1.5572 C   0  0  0  0  0  0  0  0  0  0  0  0
   13.9142  -66.8539   -0.9280 N   0  0  0  0  0  0  0  0  0  0  0  0
   15.0894  -66.6375   -0.2043 C   0  0  0  0  0  0  0  0  0  0  0  0
   16.0552  -67.5175   -0.3828 N   0  0  0  0  0  0  0  0  0  0  0  0
   15.1985  -65.4626    0.6921 C   0  0  0  0  0  0  0  0  0  0  0  0
   14.1074  -64.6286    0.7607 C   0  0  0  0  0  0  0  0  0  0  0  0
   15.9213  -68.2783   -0.9931 H   0  0  0  0  0  0  0  0  0  0  0  0
   16.9101  -67.4136    0.0942 H   0  0  0  0  0  0  0  0  0  0  0  0
   21.1743  -63.6356    0.2979 C   0  0  0  0  0  0  0  0  0  0  0  0
   21.9462  -64.4878   -0.6772 C   0  0  0  0  0  0  0  0  0  0  0  0
   22.6353  -63.5974   -1.6023 O   0  0  0  0  0  0  0  0  0  0  0  0
   24.2313  -63.3333   -1.5233 P   0  0  0  0  0  0  0  0  0  0  0  0
   24.5227  -62.0811   -2.2604 O   0  0  0  0  0  0  0  0  0  0  0  0
   24.6687  -63.4437   -0.1004 O   0  0  0  0  0  0  0  0  0  0  0  0
   24.4123  -64.3110    0.2502 H   0  0  0  0  0  0  0  0  0  0  0  0
   24.8750  -64.5661   -2.3431 O   0  0  0  0  0  0  0  0  0  0  0  0
   24.4197  -65.5089   -3.5671 P   0  0  0  0  0  0  0  0  0  0  0  0
   23.8630  -64.5518   -4.6666 O   0  0  0  0  0  0  0  0  0  0  0  0
   25.6463  -66.1733   -4.0820 O   0  0  0  0  0  0  0  0  0  0  0  0
   23.3157  -66.3854   -3.0824 O   0  0  0  0  0  0  0  0  0  0  0  0
   22.5779  -65.8359   -2.7749 H   0  0  0  0  0  0  0  0  0  0  0  0
  8  9  2  0  0  0
  8 15  1  0  0  0
  9 10  1  0  0  0
  9 11  1  0  0  0
 11 12  2  0  0  0
 12 13  1  0  0  0
 12 14  1  0  0  0
 14 15  2  0  0  0
 14  7  1  0  0  0
  7  1  1  0  0  0
  1  2  2  0  0  0
  1  5  1  0  0  0
  2  3  1  0  0  0
  3  4  1  0  0  0
  4  5  2  0  0  0
  4 18  1  0  0  0
  5  6  1  0  0  0
 18 19  1  0  0  0
 19 20  1  0  0  0
 20 21  1  0  0  0
 21 25  1  0  0  0
 21 22  2  0  0  0
 21 23  1  0  0  0
 25 26  1  0  0  0
 26 27  2  0  0  0
 26 28  1  0  0  0
 26 29  1  0  0  0
 13 16  1  0  0  0
 13 17  1  0  0  0
 23 24  1  0  0  0
 29 30  1  0  0  0
M  CHG 1   1   1
M  CHG 1  28  -1
M  END
> <minimizedAffinity>
-6.78392

$$$$
3LQ2_TDP_A_887


 30 31  0  0  0  0  0  0  0  0999 V2000
   20.6502  -63.7909   -0.4325 N   0  0  0  0  0  0  0  0  0  0  0  0
   19.8755  -63.3255   -1.3952 C   0  0  0  0  0  0  0  0  0  0  0  0
   18.2518  -63.4767   -1.0526 S   0  0  0  0  0  0  0  0  0  0  0  0
   18.5854  -64.2058    0.4739 C   0  0  0  0  0  0  0  0  0  0  0  0
   19.9372  -64.3090    0.6722 C   0  0  0  0  0  0  0  0  0  0  0  0
   20.6486  -64.8781    1.8670 C   0  0  0  0  0  0  0  0  0  0  0  0
   22.1605  -63.7981   -0.5135 C   0  0  0  0  0  0  0  0  0  0  0  0
   23.7423  -60.9096    1.3292 N   0  0  0  0  0  0  0  0  0  0  0  0
   23.9679  -59.9886    0.3245 C   0  0  0  0  0  0  0  0  0  0  0  0
   24.5999  -58.6974    0.7154 C   0  0  0  0  0  0  0  0  0  0  0  0
   23.6412  -60.2144   -0.9520 N   0  0  0  0  0  0  0  0  0  0  0  0
   23.0474  -61.4317   -1.2945 C   0  0  0  0  0  0  0  0  0  0  0  0
   22.7591  -61.6020   -2.5700 N   0  0  0  0  0  0  0  0  0  0  0  0
   22.7874  -62.4467   -0.2467 C   0  0  0  0  0  0  0  0  0  0  0  0
   23.1575  -62.1244    1.0377 C   0  0  0  0  0  0  0  0  0  0  0  0
   22.9567  -60.8884   -3.2188 H   0  0  0  0  0  0  0  0  0  0  0  0
   22.3464  -62.4427   -2.8733 H   0  0  0  0  0  0  0  0  0  0  0  0
   17.4822  -64.6396    1.3934 C   0  0  0  0  0  0  0  0  0  0  0  0
   16.2527  -63.7759    1.2690 C   0  0  0  0  0  0  0  0  0  0  0  0
   15.6179  -64.0816   -0.0065 O   0  0  0  0  0  0  0  0  0  0  0  0
   14.9438  -65.5216   -0.3152 P   0  0  0  0  0  0  0  0  0  0  0  0
   14.8895  -66.2809    0.9563 O   0  0  0  0  0  0  0  0  0  0  0  0
   13.6770  -65.3083   -1.0752 O   0  0  0  0  0  0  0  0  0  0  0  0
   13.8643  -64.7996   -1.8796 H   0  0  0  0  0  0  0  0  0  0  0  0
   16.0007  -66.2485   -1.2955 O   0  0  0  0  0  0  0  0  0  0  0  0
   16.7481  -67.6746   -1.3425 P   0  0  0  0  0  0  0  0  0  0  0  0
   17.7565  -67.6740   -0.1518 O   0  0  0  0  0  0  0  0  0  0  0  0
   15.7135  -68.7144   -1.0980 O   0  0  0  0  0  0  0  0  0  0  0  0
   17.5085  -67.7498   -2.6223 O   0  0  0  0  0  0  0  0  0  0  0  0
   18.1481  -67.0216   -2.6617 H   0  0  0  0  0  0  0  0  0  0  0  0
  8  9  2  0  0  0
  8 15  1  0  0  0
  9 10  1  0  0  0
  9 11  1  0  0  0
 11 12  2  0  0  0
 12 13  1  0  0  0
 12 14  1  0  0  0
 14 15  2  0  0  0
 14  7  1  0  0  0
  7  1  1  0  0  0
  1  2  2  0  0  0
  1  5  1  0  0  0
  2  3  1  0  0  0
  3  4  1  0  0  0
  4  5  2  0  0  0
  4 18  1  0  0  0
  5  6  1  0  0  0
 18 19  1  0  0  0
 19 20  1  0  0  0
 20 21  1  0  0  0
 21 25  1  0  0  0
 21 22  2  0  0  0
 21 23  1  0  0  0
 25 26  1  0  0  0
 26 27  2  0  0  0
 26 28  1  0  0  0
 26 29  1  0  0  0
 13 16  1  0  0  0
 13 17  1  0  0  0
 23 24  1  0  0  0
 29 30  1  0  0  0
M  CHG 1   1   1
M  CHG 1  28  -1
M  END
> <minimizedAffinity>
-6.49298

$$$$
