1O0N_U3P_A_1101


 26 27  0  0  0  0  0  0  0  0999 V2000
   39.2437    0.2493   12.4470 C   0  0  0  0  0  0  0  0  0  0  0  0
   38.6554   -0.8522   11.7009 O   0  0  0  0  0  0  0  0  0  0  0  0
   38.0799    1.0693   13.0005 C   0  0  0  0  0  0  0  0  0  0  0  0
   36.9166    0.0822   12.9724 C   0  0  0  0  0  0  0  0  0  0  0  0
   35.6605    0.7060   12.8086 O   0  0  0  0  0  0  0  0  0  0  0  0
   37.2457   -0.7547   11.7386 C   0  0  0  0  0  0  0  0  0  0  0  0
   35.6623    1.2266   11.9901 H   0  0  0  0  0  0  0  0  0  0  0  0
   36.6787   -2.1133   11.7998 N   0  0  0  0  0  0  0  0  0  0  0  0
   35.4265   -2.3237   11.2322 C   0  0  0  0  0  0  0  0  0  0  0  0
   34.9487   -3.6078   11.3449 N   0  0  0  0  0  0  0  0  0  0  0  0
   35.5743   -4.6799   11.9524 C   0  0  0  0  0  0  0  0  0  0  0  0
   36.8608   -4.3862   12.5027 C   0  0  0  0  0  0  0  0  0  0  0  0
   37.3594   -3.1471   12.4078 C   0  0  0  0  0  0  0  0  0  0  0  0
   34.7827   -1.4402   10.6778 O   0  0  0  0  0  0  0  0  0  0  0  0
   35.0042   -5.7700   11.9938 O   0  0  0  0  0  0  0  0  0  0  0  0
   34.0642   -3.7828   10.9496 H   0  0  0  0  0  0  0  0  0  0  0  0
   40.4868   -1.6921   13.2028 O   0  0  0  0  0  0  0  0  0  0  0  0
   40.2014   -0.3073   13.4775 C   0  0  0  0  0  0  0  0  0  0  0  0
   41.1011   -2.0344   13.8709 H   0  0  0  0  0  0  0  0  0  0  0  0
   37.8035    2.1891   12.1680 O   0  0  0  0  0  0  0  0  0  0  0  0
   37.4779    3.6161   12.8368 P   0  0  0  0  0  0  0  0  0  0  0  0
   38.1062    3.6185   14.2245 O   0  0  0  0  0  0  0  0  0  0  0  0
   35.9645    3.7421   12.8572 O   0  0  0  0  0  0  0  0  0  0  0  0
   38.1622    4.5675   11.8649 O   0  0  0  0  0  0  0  0  0  0  0  0
   37.9286    4.4677   14.6583 H   0  0  0  0  0  0  0  0  0  0  0  0
   38.0358    5.4815   12.1641 H   0  0  0  0  0  0  0  0  0  0  0  0
  8  9  1  0  0  0
  8 13  1  0  0  0
  8  6  1  0  0  0
  9 10  1  0  0  0
  9 14  2  0  0  0
 10 11  1  0  0  0
 11 12  1  0  0  0
 11 15  2  0  0  0
 12 13  2  0  0  0
 21 22  1  0  0  0
 21 23  2  0  0  0
 21 24  1  0  0  0
 21 20  1  0  0  0
 17 18  1  0  0  0
 18  1  1  0  0  0
  1  2  1  0  0  0
  1  3  1  0  0  0
  2  6  1  0  0  0
  3 20  1  0  0  0
  3  4  1  0  0  0
  4  5  1  0  0  0
  4  6  1  0  0  0
 10 16  1  0  0  0
 22 25  1  0  0  0
 24 26  1  0  0  0
 17 19  1  0  0  0
  5  7  1  0  0  0
M  END
> <minimizedAffinity>
-6.87095

$$$$
1O0N_U3P_A_1101


 26 27  0  0  0  0  0  0  0  0999 V2000
   36.3472   -5.0563   13.4004 C   0  0  0  0  0  0  0  0  0  0  0  0
   36.6052   -3.6833   13.8060 O   0  0  0  0  0  0  0  0  0  0  0  0
   35.6813   -4.9856   12.0275 C   0  0  0  0  0  0  0  0  0  0  0  0
   36.0848   -3.6052   11.5176 C   0  0  0  0  0  0  0  0  0  0  0  0
   35.1400   -3.0397   10.6337 O   0  0  0  0  0  0  0  0  0  0  0  0
   36.1350   -2.7958   12.8113 C   0  0  0  0  0  0  0  0  0  0  0  0
   34.2783   -2.9820   11.0752 H   0  0  0  0  0  0  0  0  0  0  0  0
   37.0517   -1.6450   12.7320 N   0  0  0  0  0  0  0  0  0  0  0  0
   36.5412   -0.4347   12.2747 C   0  0  0  0  0  0  0  0  0  0  0  0
   37.4557    0.5894   12.2050 N   0  0  0  0  0  0  0  0  0  0  0  0
   38.7967    0.5336   12.5346 C   0  0  0  0  0  0  0  0  0  0  0  0
   39.2427   -0.7406   13.0053 C   0  0  0  0  0  0  0  0  0  0  0  0
   38.3785   -1.7598   13.0900 C   0  0  0  0  0  0  0  0  0  0  0  0
   35.3702   -0.2798   11.9477 O   0  0  0  0  0  0  0  0  0  0  0  0
   39.4971    1.5361   12.3946 O   0  0  0  0  0  0  0  0  0  0  0  0
   37.1185    1.4573   11.8853 H   0  0  0  0  0  0  0  0  0  0  0  0
   37.4568   -7.0513   14.2217 O   0  0  0  0  0  0  0  0  0  0  0  0
   37.6393   -5.8412   13.4622 C   0  0  0  0  0  0  0  0  0  0  0  0
   38.2924   -7.5429   14.2523 H   0  0  0  0  0  0  0  0  0  0  0  0
   34.2666   -5.0810   12.1413 O   0  0  0  0  0  0  0  0  0  0  0  0
   33.5418   -6.4947   11.8852 P   0  0  0  0  0  0  0  0  0  0  0  0
   32.1668   -6.1980   11.3004 O   0  0  0  0  0  0  0  0  0  0  0  0
   33.4887   -7.1967   13.2308 O   0  0  0  0  0  0  0  0  0  0  0  0
   34.4919   -7.1441   10.8885 O   0  0  0  0  0  0  0  0  0  0  0  0
   31.6999   -7.0316   11.1329 H   0  0  0  0  0  0  0  0  0  0  0  0
   34.1582   -8.0229   10.6492 H   0  0  0  0  0  0  0  0  0  0  0  0
  8  9  1  0  0  0
  8 13  1  0  0  0
  8  6  1  0  0  0
  9 10  1  0  0  0
  9 14  2  0  0  0
 10 11  1  0  0  0
 11 12  1  0  0  0
 11 15  2  0  0  0
 12 13  2  0  0  0
 21 22  1  0  0  0
 21 23  2  0  0  0
 21 24  1  0  0  0
 21 20  1  0  0  0
 17 18  1  0  0  0
 18  1  1  0  0  0
  1  2  1  0  0  0
  1  3  1  0  0  0
  2  6  1  0  0  0
  3 20  1  0  0  0
  3  4  1  0  0  0
  4  5  1  0  0  0
  4  6  1  0  0  0
 10 16  1  0  0  0
 22 25  1  0  0  0
 24 26  1  0  0  0
 17 19  1  0  0  0
  5  7  1  0  0  0
M  END
> <minimizedAffinity>
-6.27541

$$$$
1O0N_U3P_A_1101


 26 27  0  0  0  0  0  0  0  0999 V2000
   36.5099   -1.6042   12.3416 C   0  0  0  0  0  0  0  0  0  0  0  0
   35.8338   -2.5944   13.1654 O   0  0  0  0  0  0  0  0  0  0  0  0
   37.8344   -2.2304   11.9093 C   0  0  0  0  0  0  0  0  0  0  0  0
   37.5832   -3.7256   12.0823 C   0  0  0  0  0  0  0  0  0  0  0  0
   38.7548   -4.4569   12.3760 O   0  0  0  0  0  0  0  0  0  0  0  0
   36.6419   -3.7482   13.2841 C   0  0  0  0  0  0  0  0  0  0  0  0
   39.1637   -4.1027   13.1811 H   0  0  0  0  0  0  0  0  0  0  0  0
   35.7705   -4.9360   13.3073 N   0  0  0  0  0  0  0  0  0  0  0  0
   36.1698   -6.0230   14.0777 C   0  0  0  0  0  0  0  0  0  0  0  0
   35.3220   -7.1044   14.0357 N   0  0  0  0  0  0  0  0  0  0  0  0
   34.1446   -7.2135   13.3203 C   0  0  0  0  0  0  0  0  0  0  0  0
   33.7977   -6.0522   12.5619 C   0  0  0  0  0  0  0  0  0  0  0  0
   34.5981   -4.9790   12.5824 C   0  0  0  0  0  0  0  0  0  0  0  0
   37.1998   -6.0338   14.7421 O   0  0  0  0  0  0  0  0  0  0  0  0
   33.5030   -8.2630   13.3661 O   0  0  0  0  0  0  0  0  0  0  0  0
   35.5820   -7.8865   14.5741 H   0  0  0  0  0  0  0  0  0  0  0  0
   36.2898   -0.3483   10.2777 O   0  0  0  0  0  0  0  0  0  0  0  0
   35.5875   -1.1822   11.2190 C   0  0  0  0  0  0  0  0  0  0  0  0
   35.6863   -0.0862    9.5650 H   0  0  0  0  0  0  0  0  0  0  0  0
   38.8990   -1.8033   12.7505 O   0  0  0  0  0  0  0  0  0  0  0  0
   40.0230   -0.8099   12.1681 P   0  0  0  0  0  0  0  0  0  0  0  0
   40.1744   -1.1193   10.6842 O   0  0  0  0  0  0  0  0  0  0  0  0
   41.2836   -1.0733   12.9731 O   0  0  0  0  0  0  0  0  0  0  0  0
   39.3926    0.5494   12.4377 O   0  0  0  0  0  0  0  0  0  0  0  0
   40.8472   -0.5361   10.2993 H   0  0  0  0  0  0  0  0  0  0  0  0
   39.9868    1.2493   12.1247 H   0  0  0  0  0  0  0  0  0  0  0  0
  8  9  1  0  0  0
  8 13  1  0  0  0
  8  6  1  0  0  0
  9 10  1  0  0  0
  9 14  2  0  0  0
 10 11  1  0  0  0
 11 12  1  0  0  0
 11 15  2  0  0  0
 12 13  2  0  0  0
 21 22  1  0  0  0
 21 23  2  0  0  0
 21 24  1  0  0  0
 21 20  1  0  0  0
 17 18  1  0  0  0
 18  1  1  0  0  0
  1  2  1  0  0  0
  1  3  1  0  0  0
  2  6  1  0  0  0
  3 20  1  0  0  0
  3  4  1  0  0  0
  4  5  1  0  0  0
  4  6  1  0  0  0
 10 16  1  0  0  0
 22 25  1  0  0  0
 24 26  1  0  0  0
 17 19  1  0  0  0
  5  7  1  0  0  0
M  END
> <minimizedAffinity>
-6.12549

$$$$
1O0N_U3P_A_1101


 26 27  0  0  0  0  0  0  0  0999 V2000
   37.9099   -1.8547   13.5838 C   0  0  0  0  0  0  0  0  0  0  0  0
   37.7118   -0.4569   13.9344 O   0  0  0  0  0  0  0  0  0  0  0  0
   37.4001   -2.0200   12.1534 C   0  0  0  0  0  0  0  0  0  0  0  0
   37.4342   -0.5956   11.6069 C   0  0  0  0  0  0  0  0  0  0  0  0
   36.4636   -0.3584   10.6093 O   0  0  0  0  0  0  0  0  0  0  0  0
   37.1100    0.2256   12.8526 C   0  0  0  0  0  0  0  0  0  0  0  0
   35.5812   -0.5469   10.9653 H   0  0  0  0  0  0  0  0  0  0  0  0
   37.6539    1.5937   12.7946 N   0  0  0  0  0  0  0  0  0  0  0  0
   36.7746    2.6539   12.9877 C   0  0  0  0  0  0  0  0  0  0  0  0
   37.3445    3.9017   12.8981 N   0  0  0  0  0  0  0  0  0  0  0  0
   38.6698    4.1965   12.6401 C   0  0  0  0  0  0  0  0  0  0  0  0
   39.5114    3.0543   12.4633 C   0  0  0  0  0  0  0  0  0  0  0  0
   38.9910    1.8234   12.5477 C   0  0  0  0  0  0  0  0  0  0  0  0
   35.5792    2.5032   13.2132 O   0  0  0  0  0  0  0  0  0  0  0  0
   39.0257    5.3725   12.5668 O   0  0  0  0  0  0  0  0  0  0  0  0
   36.7427    4.6693   13.0324 H   0  0  0  0  0  0  0  0  0  0  0  0
   39.5000   -3.6429   13.9831 O   0  0  0  0  0  0  0  0  0  0  0  0
   39.3608   -2.2200   13.8084 C   0  0  0  0  0  0  0  0  0  0  0  0
   40.4343   -3.8613   14.1259 H   0  0  0  0  0  0  0  0  0  0  0  0
   36.0711   -2.5269   12.1409 O   0  0  0  0  0  0  0  0  0  0  0  0
   35.8183   -4.1010   12.3598 P   0  0  0  0  0  0  0  0  0  0  0  0
   37.1761   -4.7890   12.3006 O   0  0  0  0  0  0  0  0  0  0  0  0
   34.8696   -4.5379   11.2573 O   0  0  0  0  0  0  0  0  0  0  0  0
   35.1966   -4.1159   13.7495 O   0  0  0  0  0  0  0  0  0  0  0  0
   37.0608   -5.7435   12.4293 H   0  0  0  0  0  0  0  0  0  0  0  0
   34.9934   -5.0298   14.0030 H   0  0  0  0  0  0  0  0  0  0  0  0
  8  9  1  0  0  0
  8 13  1  0  0  0
  8  6  1  0  0  0
  9 10  1  0  0  0
  9 14  2  0  0  0
 10 11  1  0  0  0
 11 12  1  0  0  0
 11 15  2  0  0  0
 12 13  2  0  0  0
 21 22  1  0  0  0
 21 23  2  0  0  0
 21 24  1  0  0  0
 21 20  1  0  0  0
 17 18  1  0  0  0
 18  1  1  0  0  0
  1  2  1  0  0  0
  1  3  1  0  0  0
  2  6  1  0  0  0
  3 20  1  0  0  0
  3  4  1  0  0  0
  4  5  1  0  0  0
  4  6  1  0  0  0
 10 16  1  0  0  0
 22 25  1  0  0  0
 24 26  1  0  0  0
 17 19  1  0  0  0
  5  7  1  0  0  0
M  END
> <minimizedAffinity>
-6.00380

$$$$
1O0N_U3P_A_1101


 26 27  0  0  0  0  0  0  0  0999 V2000
   39.4243    0.8653   12.4520 C   0  0  0  0  0  0  0  0  0  0  0  0
   38.6831   -0.2546   11.8927 O   0  0  0  0  0  0  0  0  0  0  0  0
   38.3881    1.8221   13.0386 C   0  0  0  0  0  0  0  0  0  0  0  0
   37.1669    0.9295   13.2391 C   0  0  0  0  0  0  0  0  0  0  0  0
   35.9441    1.6294   13.1469 O   0  0  0  0  0  0  0  0  0  0  0  0
   37.2965   -0.0456   12.0714 C   0  0  0  0  0  0  0  0  0  0  0  0
   35.8863    2.0669   12.2831 H   0  0  0  0  0  0  0  0  0  0  0  0
   36.6522   -1.3441   12.3349 N   0  0  0  0  0  0  0  0  0  0  0  0
   36.9135   -1.9672   13.5506 C   0  0  0  0  0  0  0  0  0  0  0  0
   36.2982   -3.1847   13.7207 N   0  0  0  0  0  0  0  0  0  0  0  0
   35.4692   -3.8325   12.8245 C   0  0  0  0  0  0  0  0  0  0  0  0
   35.2415   -3.1242   11.6036 C   0  0  0  0  0  0  0  0  0  0  0  0
   35.8215   -1.9338   11.4053 C   0  0  0  0  0  0  0  0  0  0  0  0
   37.6408   -1.4841   14.4108 O   0  0  0  0  0  0  0  0  0  0  0  0
   35.0102   -4.9374   13.1135 O   0  0  0  0  0  0  0  0  0  0  0  0
   36.4665   -3.6456   14.5743 H   0  0  0  0  0  0  0  0  0  0  0  0
   40.4255   -1.1010   13.4605 O   0  0  0  0  0  0  0  0  0  0  0  0
   40.4552    0.3386   13.4262 C   0  0  0  0  0  0  0  0  0  0  0  0
   41.0909   -1.4232   14.0885 H   0  0  0  0  0  0  0  0  0  0  0  0
   38.0923    2.8742   12.1281 O   0  0  0  0  0  0  0  0  0  0  0  0
   38.1884    4.4030   12.6211 P   0  0  0  0  0  0  0  0  0  0  0  0
   38.5829    5.2433   11.4133 O   0  0  0  0  0  0  0  0  0  0  0  0
   39.2177    4.4271   13.7376 O   0  0  0  0  0  0  0  0  0  0  0  0
   36.7630    4.6579   13.0916 O   0  0  0  0  0  0  0  0  0  0  0  0
   38.6503    6.1747   11.6755 H   0  0  0  0  0  0  0  0  0  0  0  0
   36.6889    5.5675   13.4203 H   0  0  0  0  0  0  0  0  0  0  0  0
  8  9  1  0  0  0
  8 13  1  0  0  0
  8  6  1  0  0  0
  9 10  1  0  0  0
  9 14  2  0  0  0
 10 11  1  0  0  0
 11 12  1  0  0  0
 11 15  2  0  0  0
 12 13  2  0  0  0
 21 22  1  0  0  0
 21 23  2  0  0  0
 21 24  1  0  0  0
 21 20  1  0  0  0
 17 18  1  0  0  0
 18  1  1  0  0  0
  1  2  1  0  0  0
  1  3  1  0  0  0
  2  6  1  0  0  0
  3 20  1  0  0  0
  3  4  1  0  0  0
  4  5  1  0  0  0
  4  6  1  0  0  0
 10 16  1  0  0  0
 22 25  1  0  0  0
 24 26  1  0  0  0
 17 19  1  0  0  0
  5  7  1  0  0  0
M  END
> <minimizedAffinity>
-5.93285

$$$$
1O0N_U3P_A_1101


 26 27  0  0  0  0  0  0  0  0999 V2000
   38.0228    1.2493   13.2679 C   0  0  0  0  0  0  0  0  0  0  0  0
   37.4378   -0.0180   13.6777 O   0  0  0  0  0  0  0  0  0  0  0  0
   39.0464    0.9239   12.1818 C   0  0  0  0  0  0  0  0  0  0  0  0
   38.5955   -0.4447   11.6799 C   0  0  0  0  0  0  0  0  0  0  0  0
   39.6561   -1.2327   11.1821 O   0  0  0  0  0  0  0  0  0  0  0  0
   38.0328   -1.0749   12.9517 C   0  0  0  0  0  0  0  0  0  0  0  0
   40.3264   -1.3469   11.8740 H   0  0  0  0  0  0  0  0  0  0  0  0
   37.0081   -2.0979   12.6794 N   0  0  0  0  0  0  0  0  0  0  0  0
   36.8292   -3.1083   13.6185 C   0  0  0  0  0  0  0  0  0  0  0  0
   35.8736   -4.0404   13.2904 N   0  0  0  0  0  0  0  0  0  0  0  0
   35.0960   -4.0708   12.1483 C   0  0  0  0  0  0  0  0  0  0  0  0
   35.3315   -2.9942   11.2375 C   0  0  0  0  0  0  0  0  0  0  0  0
   36.2521   -2.0659   11.5265 C   0  0  0  0  0  0  0  0  0  0  0  0
   37.4723   -3.1798   14.6595 O   0  0  0  0  0  0  0  0  0  0  0  0
   34.2943   -4.9907   11.9856 O   0  0  0  0  0  0  0  0  0  0  0  0
   35.7271   -4.7656   13.9400 H   0  0  0  0  0  0  0  0  0  0  0  0
   35.6480    1.7352   13.3673 O   0  0  0  0  0  0  0  0  0  0  0  0
   36.9153    2.1967   12.8618 C   0  0  0  0  0  0  0  0  0  0  0  0
   34.9490    2.3519   13.0992 H   0  0  0  0  0  0  0  0  0  0  0  0
   40.3591    0.8482   12.7243 O   0  0  0  0  0  0  0  0  0  0  0  0
   41.5486    1.6961   12.0492 P   0  0  0  0  0  0  0  0  0  0  0  0
   42.6791    1.7779   13.0669 O   0  0  0  0  0  0  0  0  0  0  0  0
   40.9580    3.0485   11.6905 O   0  0  0  0  0  0  0  0  0  0  0  0
   41.8871    0.8320   10.8423 O   0  0  0  0  0  0  0  0  0  0  0  0
   43.4161    2.2846   12.6915 H   0  0  0  0  0  0  0  0  0  0  0  0
   42.6076    1.2448   10.3409 H   0  0  0  0  0  0  0  0  0  0  0  0
  8  9  1  0  0  0
  8 13  1  0  0  0
  8  6  1  0  0  0
  9 10  1  0  0  0
  9 14  2  0  0  0
 10 11  1  0  0  0
 11 12  1  0  0  0
 11 15  2  0  0  0
 12 13  2  0  0  0
 21 22  1  0  0  0
 21 23  2  0  0  0
 21 24  1  0  0  0
 21 20  1  0  0  0
 17 18  1  0  0  0
 18  1  1  0  0  0
  1  2  1  0  0  0
  1  3  1  0  0  0
  2  6  1  0  0  0
  3 20  1  0  0  0
  3  4  1  0  0  0
  4  5  1  0  0  0
  4  6  1  0  0  0
 10 16  1  0  0  0
 22 25  1  0  0  0
 24 26  1  0  0  0
 17 19  1  0  0  0
  5  7  1  0  0  0
M  END
> <minimizedAffinity>
-5.83129

$$$$
1O0N_U3P_A_1101


 26 27  0  0  0  0  0  0  0  0999 V2000
   39.2163   -2.6918   13.6387 C   0  0  0  0  0  0  0  0  0  0  0  0
   38.4415   -3.6614   12.8800 O   0  0  0  0  0  0  0  0  0  0  0  0
   38.3878   -1.4091   13.6779 C   0  0  0  0  0  0  0  0  0  0  0  0
   36.9726   -1.9021   13.3906 C   0  0  0  0  0  0  0  0  0  0  0  0
   36.1653   -0.9362   12.7511 O   0  0  0  0  0  0  0  0  0  0  0  0
   37.2342   -3.0702   12.4427 C   0  0  0  0  0  0  0  0  0  0  0  0
   36.5862   -0.6609   11.9217 H   0  0  0  0  0  0  0  0  0  0  0  0
   36.1688   -4.0872   12.4788 N   0  0  0  0  0  0  0  0  0  0  0  0
   35.1441   -3.9920   11.5431 C   0  0  0  0  0  0  0  0  0  0  0  0
   34.1729   -4.9592   11.6484 N   0  0  0  0  0  0  0  0  0  0  0  0
   34.1169   -5.9878   12.5698 C   0  0  0  0  0  0  0  0  0  0  0  0
   35.2101   -6.0239   13.4905 C   0  0  0  0  0  0  0  0  0  0  0  0
   36.1762   -5.0999   13.4149 C   0  0  0  0  0  0  0  0  0  0  0  0
   35.0931   -3.1141   10.6893 O   0  0  0  0  0  0  0  0  0  0  0  0
   33.1636   -6.7662   12.5515 O   0  0  0  0  0  0  0  0  0  0  0  0
   33.4369   -4.9143   10.9961 H   0  0  0  0  0  0  0  0  0  0  0  0
   39.8221   -4.6978   14.8611 O   0  0  0  0  0  0  0  0  0  0  0  0
   39.5692   -3.2853   14.9849 C   0  0  0  0  0  0  0  0  0  0  0  0
   40.0467   -5.0635   15.7310 H   0  0  0  0  0  0  0  0  0  0  0  0
   38.8117   -0.4970   12.6720 O   0  0  0  0  0  0  0  0  0  0  0  0
   39.0199    1.0550   13.0426 P   0  0  0  0  0  0  0  0  0  0  0  0
   37.6630    1.7357   12.9160 O   0  0  0  0  0  0  0  0  0  0  0  0
   40.0583    1.5896   12.0719 O   0  0  0  0  0  0  0  0  0  0  0  0
   39.5124    0.9581   14.4800 O   0  0  0  0  0  0  0  0  0  0  0  0
   37.7518    2.6768   13.1332 H   0  0  0  0  0  0  0  0  0  0  0  0
   39.6780    1.8491   14.8258 H   0  0  0  0  0  0  0  0  0  0  0  0
  8  9  1  0  0  0
  8 13  1  0  0  0
  8  6  1  0  0  0
  9 10  1  0  0  0
  9 14  2  0  0  0
 10 11  1  0  0  0
 11 12  1  0  0  0
 11 15  2  0  0  0
 12 13  2  0  0  0
 21 22  1  0  0  0
 21 23  2  0  0  0
 21 24  1  0  0  0
 21 20  1  0  0  0
 17 18  1  0  0  0
 18  1  1  0  0  0
  1  2  1  0  0  0
  1  3  1  0  0  0
  2  6  1  0  0  0
  3 20  1  0  0  0
  3  4  1  0  0  0
  4  5  1  0  0  0
  4  6  1  0  0  0
 10 16  1  0  0  0
 22 25  1  0  0  0
 24 26  1  0  0  0
 17 19  1  0  0  0
  5  7  1  0  0  0
M  END
> <minimizedAffinity>
-5.72115

$$$$
1O0N_U3P_A_1101


 26 27  0  0  0  0  0  0  0  0999 V2000
   39.8865    1.8248   13.4972 C   0  0  0  0  0  0  0  0  0  0  0  0
   39.4631    0.5391   12.9643 O   0  0  0  0  0  0  0  0  0  0  0  0
   38.7516    2.8072   13.2138 C   0  0  0  0  0  0  0  0  0  0  0  0
   37.5460    1.8941   13.0106 C   0  0  0  0  0  0  0  0  0  0  0  0
   36.5752    2.4385   12.1417 O   0  0  0  0  0  0  0  0  0  0  0  0
   38.1876    0.6665   12.3684 C   0  0  0  0  0  0  0  0  0  0  0  0
   36.9822    2.6323   11.2829 H   0  0  0  0  0  0  0  0  0  0  0  0
   37.4260   -0.5712   12.6113 N   0  0  0  0  0  0  0  0  0  0  0  0
   36.4566   -0.9336   11.6820 C   0  0  0  0  0  0  0  0  0  0  0  0
   35.7696   -2.0859   11.9822 N   0  0  0  0  0  0  0  0  0  0  0  0
   35.9430   -2.8958   13.0885 C   0  0  0  0  0  0  0  0  0  0  0  0
   36.9636   -2.4623   13.9910 C   0  0  0  0  0  0  0  0  0  0  0  0
   37.6558   -1.3465   13.7284 C   0  0  0  0  0  0  0  0  0  0  0  0
   36.2164   -0.2815   10.6723 O   0  0  0  0  0  0  0  0  0  0  0  0
   35.2294   -3.8887   13.2302 O   0  0  0  0  0  0  0  0  0  0  0  0
   35.0785   -2.3645   11.3387 H   0  0  0  0  0  0  0  0  0  0  0  0
   41.6673    1.3803   15.0836 O   0  0  0  0  0  0  0  0  0  0  0  0
   40.2599    1.6576   14.9538 C   0  0  0  0  0  0  0  0  0  0  0  0
   41.8911    1.2758   16.0216 H   0  0  0  0  0  0  0  0  0  0  0  0
   39.0111    3.5600   12.0351 O   0  0  0  0  0  0  0  0  0  0  0  0
   38.9250    5.1662   12.0825 P   0  0  0  0  0  0  0  0  0  0  0  0
   40.0467    5.6522   12.9914 O   0  0  0  0  0  0  0  0  0  0  0  0
   37.5376    5.5039   12.5996 O   0  0  0  0  0  0  0  0  0  0  0  0
   39.1403    5.5227   10.6181 O   0  0  0  0  0  0  0  0  0  0  0  0
   40.0245    6.6205   13.0430 H   0  0  0  0  0  0  0  0  0  0  0  0
   39.1100    6.4864   10.5120 H   0  0  0  0  0  0  0  0  0  0  0  0
  8  9  1  0  0  0
  8 13  1  0  0  0
  8  6  1  0  0  0
  9 10  1  0  0  0
  9 14  2  0  0  0
 10 11  1  0  0  0
 11 12  1  0  0  0
 11 15  2  0  0  0
 12 13  2  0  0  0
 21 22  1  0  0  0
 21 23  2  0  0  0
 21 24  1  0  0  0
 21 20  1  0  0  0
 17 18  1  0  0  0
 18  1  1  0  0  0
  1  2  1  0  0  0
  1  3  1  0  0  0
  2  6  1  0  0  0
  3 20  1  0  0  0
  3  4  1  0  0  0
  4  5  1  0  0  0
  4  6  1  0  0  0
 10 16  1  0  0  0
 22 25  1  0  0  0
 24 26  1  0  0  0
 17 19  1  0  0  0
  5  7  1  0  0  0
M  END
> <minimizedAffinity>
-5.65473

$$$$
1O0N_U3P_A_1101


 26 27  0  0  0  0  0  0  0  0999 V2000
   35.9488   -3.8322   11.8647 C   0  0  0  0  0  0  0  0  0  0  0  0
   37.2953   -3.7760   12.4123 O   0  0  0  0  0  0  0  0  0  0  0  0
   35.1924   -4.8802   12.6789 C   0  0  0  0  0  0  0  0  0  0  0  0
   36.0027   -4.9674   13.9689 C   0  0  0  0  0  0  0  0  0  0  0  0
   35.9345   -6.2361   14.5849 O   0  0  0  0  0  0  0  0  0  0  0  0
   37.4211   -4.7099   13.4659 C   0  0  0  0  0  0  0  0  0  0  0  0
   36.2424   -6.9143   13.9634 H   0  0  0  0  0  0  0  0  0  0  0  0
   38.3016   -4.1402   14.5008 N   0  0  0  0  0  0  0  0  0  0  0  0
   39.0875   -5.0156   15.2428 C   0  0  0  0  0  0  0  0  0  0  0  0
   39.8672   -4.4191   16.2051 N   0  0  0  0  0  0  0  0  0  0  0  0
   39.9422   -3.0709   16.4998 C   0  0  0  0  0  0  0  0  0  0  0  0
   39.1129   -2.2360   15.6879 C   0  0  0  0  0  0  0  0  0  0  0  0
   38.3433   -2.7824   14.7381 C   0  0  0  0  0  0  0  0  0  0  0  0
   39.0896   -6.2290   15.0689 O   0  0  0  0  0  0  0  0  0  0  0  0
   40.6748   -2.6903   17.4127 O   0  0  0  0  0  0  0  0  0  0  0  0
   40.4340   -5.0177   16.7433 H   0  0  0  0  0  0  0  0  0  0  0  0
   34.6890   -2.1715   10.6235 O   0  0  0  0  0  0  0  0  0  0  0  0
   35.3533   -2.4414   11.8726 C   0  0  0  0  0  0  0  0  0  0  0  0
   34.3129   -1.2776   10.6438 H   0  0  0  0  0  0  0  0  0  0  0  0
   35.1827   -6.1358   12.0105 O   0  0  0  0  0  0  0  0  0  0  0  0
   33.8002   -6.9452   11.8588 P   0  0  0  0  0  0  0  0  0  0  0  0
   33.5330   -7.6366   13.1897 O   0  0  0  0  0  0  0  0  0  0  0  0
   33.9960   -7.9111   10.7034 O   0  0  0  0  0  0  0  0  0  0  0  0
   32.8221   -5.8173   11.5600 O   0  0  0  0  0  0  0  0  0  0  0  0
   32.7034   -8.1361   13.1338 H   0  0  0  0  0  0  0  0  0  0  0  0
   31.9314   -6.1838   11.4448 H   0  0  0  0  0  0  0  0  0  0  0  0
  8  9  1  0  0  0
  8 13  1  0  0  0
  8  6  1  0  0  0
  9 10  1  0  0  0
  9 14  2  0  0  0
 10 11  1  0  0  0
 11 12  1  0  0  0
 11 15  2  0  0  0
 12 13  2  0  0  0
 21 22  1  0  0  0
 21 23  2  0  0  0
 21 24  1  0  0  0
 21 20  1  0  0  0
 17 18  1  0  0  0
 18  1  1  0  0  0
  1  2  1  0  0  0
  1  3  1  0  0  0
  2  6  1  0  0  0
  3 20  1  0  0  0
  3  4  1  0  0  0
  4  5  1  0  0  0
  4  6  1  0  0  0
 10 16  1  0  0  0
 22 25  1  0  0  0
 24 26  1  0  0  0
 17 19  1  0  0  0
  5  7  1  0  0  0
M  END
> <minimizedAffinity>
-5.64537

$$$$
1O0N_U3P_A_1101


 26 27  0  0  0  0  0  0  0  0999 V2000
   36.7467   -2.4355   11.5497 C   0  0  0  0  0  0  0  0  0  0  0  0
   37.9091   -1.6065   11.8286 O   0  0  0  0  0  0  0  0  0  0  0  0
   36.3678   -3.1091   12.8672 C   0  0  0  0  0  0  0  0  0  0  0  0
   37.0174   -2.2101   13.9152 C   0  0  0  0  0  0  0  0  0  0  0  0
   37.3750   -2.8983   15.0951 O   0  0  0  0  0  0  0  0  0  0  0  0
   38.2743   -1.7387   13.1877 C   0  0  0  0  0  0  0  0  0  0  0  0
   37.9776   -3.6258   14.8751 H   0  0  0  0  0  0  0  0  0  0  0  0
   38.7644   -0.4375   13.6750 N   0  0  0  0  0  0  0  0  0  0  0  0
   39.6973   -0.4366   14.7066 C   0  0  0  0  0  0  0  0  0  0  0  0
   40.0940    0.8108   15.1267 N   0  0  0  0  0  0  0  0  0  0  0  0
   39.6659    2.0305   14.6377 C   0  0  0  0  0  0  0  0  0  0  0  0
   38.7155    1.9459   13.5729 C   0  0  0  0  0  0  0  0  0  0  0  0
   38.3095    0.7473   13.1354 C   0  0  0  0  0  0  0  0  0  0  0  0
   40.1355   -1.4610   15.2175 O   0  0  0  0  0  0  0  0  0  0  0  0
   40.0987    3.0690   15.1370 O   0  0  0  0  0  0  0  0  0  0  0  0
   40.7552    0.8383   15.8555 H   0  0  0  0  0  0  0  0  0  0  0  0
   36.2393   -0.3733   10.3769 O   0  0  0  0  0  0  0  0  0  0  0  0
   35.6701   -1.5809   10.9175 C   0  0  0  0  0  0  0  0  0  0  0  0
   35.5379    0.1633    9.9756 H   0  0  0  0  0  0  0  0  0  0  0  0
   36.9023   -4.4254   12.9393 O   0  0  0  0  0  0  0  0  0  0  0  0
   35.9607   -5.6412   13.4132 P   0  0  0  0  0  0  0  0  0  0  0  0
   36.1914   -5.8359   14.9063 O   0  0  0  0  0  0  0  0  0  0  0  0
   36.3629   -6.8432   12.5766 O   0  0  0  0  0  0  0  0  0  0  0  0
   34.5774   -5.0967   13.0842 O   0  0  0  0  0  0  0  0  0  0  0  0
   35.6369   -6.5644   15.2268 H   0  0  0  0  0  0  0  0  0  0  0  0
   33.9054   -5.7520   13.3290 H   0  0  0  0  0  0  0  0  0  0  0  0
  8  9  1  0  0  0
  8 13  1  0  0  0
  8  6  1  0  0  0
  9 10  1  0  0  0
  9 14  2  0  0  0
 10 11  1  0  0  0
 11 12  1  0  0  0
 11 15  2  0  0  0
 12 13  2  0  0  0
 21 22  1  0  0  0
 21 23  2  0  0  0
 21 24  1  0  0  0
 21 20  1  0  0  0
 17 18  1  0  0  0
 18  1  1  0  0  0
  1  2  1  0  0  0
  1  3  1  0  0  0
  2  6  1  0  0  0
  3 20  1  0  0  0
  3  4  1  0  0  0
  4  5  1  0  0  0
  4  6  1  0  0  0
 10 16  1  0  0  0
 22 25  1  0  0  0
 24 26  1  0  0  0
 17 19  1  0  0  0
  5  7  1  0  0  0
M  END
> <minimizedAffinity>
-5.45118

$$$$
