1G30_T87_B_1


 43 47  0  0  0  0  0  0  0  0999 V2000
   16.8619  -13.4629   21.6735 N   0  0  0  0  0  0  0  0  0  0  0  0
   17.5507  -12.6341   20.7935 C   0  0  0  0  0  0  0  0  0  0  0  0
   18.9637  -12.5991   20.8082 N   0  0  0  0  0  0  0  0  0  0  0  0
   19.1653  -13.5260   21.8248 C   0  0  0  0  0  0  0  0  0  0  0  0
   17.9138  -14.0267   22.3315 C   0  0  0  0  0  0  0  0  0  0  0  0
   20.3971  -13.9932   22.3832 C   0  0  0  0  0  0  0  0  0  0  0  0
   20.3526  -14.9433   23.4196 C   0  0  0  0  0  0  0  0  0  0  0  0
   19.1177  -15.4498   23.9464 C   0  0  0  0  0  0  0  0  0  0  0  0
   17.8863  -14.9890   23.3826 C   0  0  0  0  0  0  0  0  0  0  0  0
   19.9537  -11.8262   19.9943 C   0  0  0  0  0  0  0  0  0  0  0  0
   18.3310  -15.9244   26.5358 C   0  0  0  0  0  0  0  0  0  0  0  0
   19.8342  -15.5867   26.4194 C   0  0  0  0  0  0  0  0  0  0  0  0
   19.1166  -16.2969   25.2953 C   0  0  0  0  0  0  0  0  0  0  0  0
   19.1004  -17.8005   24.9003 C   0  0  0  0  0  0  0  0  0  0  0  0
   20.2004  -18.4421   24.6891 N   0  0  0  0  0  0  0  0  0  0  0  0
   16.9213  -18.3588   23.6751 N   0  0  0  0  0  0  0  0  0  0  0  0
   17.7567  -18.5359   24.8024 C   0  0  0  0  0  0  0  0  0  0  0  0
   17.3524  -19.4158   25.8354 C   0  0  0  0  0  0  0  0  0  0  0  0
   16.1288  -20.0972   25.7295 C   0  0  0  0  0  0  0  0  0  0  0  0
   15.2929  -19.9230   24.6137 C   0  0  0  0  0  0  0  0  0  0  0  0
   15.6912  -19.0449   23.5745 C   0  0  0  0  0  0  0  0  0  0  0  0
   21.4984  -17.7390   24.8164 O   0  0  0  0  0  0  0  0  0  0  0  0
   22.3110  -17.9690   23.6671 C   0  0  0  0  0  0  0  0  0  0  0  0
   23.7479  -17.4655   23.9555 C   0  0  0  0  0  0  0  0  0  0  0  0
   24.4971  -18.1542   24.6600 O   0  0  0  0  0  0  0  0  0  0  0  0
   24.1677  -16.2646   23.4295 O   0  0  0  0  0  0  0  0  0  0  0  0
   23.7866  -14.1505   24.5828 C   0  0  0  0  0  0  0  0  0  0  0  0
   24.6941  -15.3888   24.4428 C   0  0  0  0  0  0  0  0  0  0  0  0
   16.7164  -11.7721   19.8139 C   0  0  0  0  0  0  0  0  0  0  0  0
   15.2670  -12.0774   19.6584 N   0  0  0  0  0  0  0  0  0  0  0  0
   14.9880  -12.3818   18.7647 H   0  0  0  0  0  0  0  0  0  0  0  0
   12.0941  -11.8851   22.5541 C   0  0  0  0  0  0  0  0  0  0  0  0
   12.9721  -10.7709   22.3479 C   0  0  0  0  0  0  0  0  0  0  0  0
   14.0174  -10.8210   21.4070 C   0  0  0  0  0  0  0  0  0  0  0  0
   14.2219  -11.9861   20.6408 C   0  0  0  0  0  0  0  0  0  0  0  0
   13.3796  -13.1042   20.8160 C   0  0  0  0  0  0  0  0  0  0  0  0
   12.3381  -13.0518   21.7556 C   0  0  0  0  0  0  0  0  0  0  0  0
   10.6848  -10.7382   24.1498 N   0  0  0  0  0  0  0  0  0  0  0  0
   10.2821  -12.8605   23.8245 N   0  0  0  0  0  0  0  0  0  0  0  0
   11.0465  -11.8314   23.4890 C   0  0  0  0  0  0  0  0  0  0  0  0
    9.9392  -10.7751   24.7916 H   0  0  0  0  0  0  0  0  0  0  0  0
    9.5654  -12.7452   24.4895 H   0  0  0  0  0  0  0  0  0  0  0  0
   10.4310  -13.7404   23.4087 H   0  0  0  0  0  0  0  0  0  0  0  0
 38 40  2  0  0  0
 39 40  1  0  0  0
 40 32  1  0  0  0
 32 33  2  0  0  0
 32 37  1  0  0  0
 33 34  1  0  0  0
 34 35  2  0  0  0
 35 36  1  0  0  0
 35 30  1  0  0  0
 36 37  2  0  0  0
 30 29  1  0  0  0
 29  2  1  0  0  0
  1  2  2  0  0  0
  1  5  1  0  0  0
  2  3  1  0  0  0
  3  4  1  0  0  0
  3 10  1  0  0  0
  4  5  2  0  0  0
  4  6  1  0  0  0
  5  9  1  0  0  0
  6  7  2  0  0  0
  7  8  1  0  0  0
  8  9  2  0  0  0
  8 13  1  0  0  0
 11 12  1  0  0  0
 11 13  1  0  0  0
 12 13  1  0  0  0
 13 14  1  0  0  0
 14 15  2  0  0  0
 14 17  1  0  0  0
 15 22  1  0  0  0
 16 17  2  0  0  0
 16 21  1  0  0  0
 17 18  1  0  0  0
 18 19  2  0  0  0
 19 20  1  0  0  0
 20 21  2  0  0  0
 22 23  1  0  0  0
 23 24  1  0  0  0
 24 25  2  0  0  0
 24 26  1  0  0  0
 26 28  1  0  0  0
 27 28  1  0  0  0
 38 41  1  0  0  0
 39 42  1  0  0  0
 39 43  1  0  0  0
 30 31  1  0  0  0
M  END
> <minimizedAffinity>
-8.77330

$$$$
1G30_T87_B_1


 43 47  0  0  0  0  0  0  0  0999 V2000
   15.6438  -15.4017   20.5692 N   0  0  0  0  0  0  0  0  0  0  0  0
   15.5005  -14.1671   19.9440 C   0  0  0  0  0  0  0  0  0  0  0  0
   16.3865  -13.1087   20.2487 N   0  0  0  0  0  0  0  0  0  0  0  0
   17.1733  -13.7818   21.1767 C   0  0  0  0  0  0  0  0  0  0  0  0
   16.7211  -15.1365   21.3606 C   0  0  0  0  0  0  0  0  0  0  0  0
   18.2981  -13.3002   21.9183 C   0  0  0  0  0  0  0  0  0  0  0  0
   18.9426  -14.1737   22.8130 C   0  0  0  0  0  0  0  0  0  0  0  0
   18.5046  -15.5245   23.0193 C   0  0  0  0  0  0  0  0  0  0  0  0
   17.3852  -16.0087   22.2718 C   0  0  0  0  0  0  0  0  0  0  0  0
   16.4773  -11.7031   19.7428 C   0  0  0  0  0  0  0  0  0  0  0  0
   18.6385  -17.7757   24.5888 C   0  0  0  0  0  0  0  0  0  0  0  0
   18.0691  -16.5533   25.3431 C   0  0  0  0  0  0  0  0  0  0  0  0
   19.0835  -16.3708   24.2382 C   0  0  0  0  0  0  0  0  0  0  0  0
   20.6128  -16.0993   24.3081 C   0  0  0  0  0  0  0  0  0  0  0  0
   21.3944  -16.4597   23.3460 N   0  0  0  0  0  0  0  0  0  0  0  0
   22.3201  -15.8599   26.2024 N   0  0  0  0  0  0  0  0  0  0  0  0
   21.1879  -15.3557   25.5213 C   0  0  0  0  0  0  0  0  0  0  0  0
   20.5982  -14.1441   25.9560 C   0  0  0  0  0  0  0  0  0  0  0  0
   21.1414  -13.4618   27.0570 C   0  0  0  0  0  0  0  0  0  0  0  0
   22.2641  -13.9592   27.7398 C   0  0  0  0  0  0  0  0  0  0  0  0
   22.8612  -15.1708   27.3099 C   0  0  0  0  0  0  0  0  0  0  0  0
   20.8328  -17.1481   22.1603 O   0  0  0  0  0  0  0  0  0  0  0  0
   21.3988  -18.4494   22.0179 C   0  0  0  0  0  0  0  0  0  0  0  0
   21.9282  -18.6144   20.5708 C   0  0  0  0  0  0  0  0  0  0  0  0
   22.5991  -17.7040   20.0677 O   0  0  0  0  0  0  0  0  0  0  0  0
   21.6440  -19.7635   19.8680 O   0  0  0  0  0  0  0  0  0  0  0  0
   19.3256  -20.3157   19.3527 C   0  0  0  0  0  0  0  0  0  0  0  0
   20.4732  -20.4283   20.3761 C   0  0  0  0  0  0  0  0  0  0  0  0
   14.3524  -14.0091   18.9166 C   0  0  0  0  0  0  0  0  0  0  0  0
   13.3324  -12.9494   19.1505 N   0  0  0  0  0  0  0  0  0  0  0  0
   12.9937  -12.4970   18.3444 H   0  0  0  0  0  0  0  0  0  0  0  0
   11.7251  -11.5184   22.8732 C   0  0  0  0  0  0  0  0  0  0  0  0
   11.6505  -12.9066   22.5234 C   0  0  0  0  0  0  0  0  0  0  0  0
   12.1682  -13.3885   21.3068 C   0  0  0  0  0  0  0  0  0  0  0  0
   12.7771  -12.5001   20.3977 C   0  0  0  0  0  0  0  0  0  0  0  0
   12.8682  -11.1263   20.7054 C   0  0  0  0  0  0  0  0  0  0  0  0
   12.3505  -10.6481   21.9193 C   0  0  0  0  0  0  0  0  0  0  0  0
   11.0429   -9.7552   24.3809 N   0  0  0  0  0  0  0  0  0  0  0  0
   10.8311  -11.8065   25.1017 N   0  0  0  0  0  0  0  0  0  0  0  0
   11.2140  -11.0395   24.0913 C   0  0  0  0  0  0  0  0  0  0  0  0
   10.6788   -9.4924   25.2570 H   0  0  0  0  0  0  0  0  0  0  0  0
   10.4822  -11.3967   25.9261 H   0  0  0  0  0  0  0  0  0  0  0  0
   10.8955  -12.7861   25.0281 H   0  0  0  0  0  0  0  0  0  0  0  0
 38 40  2  0  0  0
 39 40  1  0  0  0
 40 32  1  0  0  0
 32 33  2  0  0  0
 32 37  1  0  0  0
 33 34  1  0  0  0
 34 35  2  0  0  0
 35 36  1  0  0  0
 35 30  1  0  0  0
 36 37  2  0  0  0
 30 29  1  0  0  0
 29  2  1  0  0  0
  1  2  2  0  0  0
  1  5  1  0  0  0
  2  3  1  0  0  0
  3  4  1  0  0  0
  3 10  1  0  0  0
  4  5  2  0  0  0
  4  6  1  0  0  0
  5  9  1  0  0  0
  6  7  2  0  0  0
  7  8  1  0  0  0
  8  9  2  0  0  0
  8 13  1  0  0  0
 11 12  1  0  0  0
 11 13  1  0  0  0
 12 13  1  0  0  0
 13 14  1  0  0  0
 14 15  2  0  0  0
 14 17  1  0  0  0
 15 22  1  0  0  0
 16 17  2  0  0  0
 16 21  1  0  0  0
 17 18  1  0  0  0
 18 19  2  0  0  0
 19 20  1  0  0  0
 20 21  2  0  0  0
 22 23  1  0  0  0
 23 24  1  0  0  0
 24 25  2  0  0  0
 24 26  1  0  0  0
 26 28  1  0  0  0
 27 28  1  0  0  0
 38 41  1  0  0  0
 39 42  1  0  0  0
 39 43  1  0  0  0
 30 31  1  0  0  0
M  END
> <minimizedAffinity>
-8.68006

$$$$
1G30_T87_B_1


 43 47  0  0  0  0  0  0  0  0999 V2000
   17.4336  -14.2332   22.9675 N   0  0  0  0  0  0  0  0  0  0  0  0
   17.9986  -15.3091   23.6449 C   0  0  0  0  0  0  0  0  0  0  0  0
   17.8116  -16.6267   23.1685 N   0  0  0  0  0  0  0  0  0  0  0  0
   17.0354  -16.3177   22.0571 C   0  0  0  0  0  0  0  0  0  0  0  0
   16.8153  -14.8985   21.9515 C   0  0  0  0  0  0  0  0  0  0  0  0
   16.4686  -17.2001   21.0837 C   0  0  0  0  0  0  0  0  0  0  0  0
   15.7076  -16.6516   20.0354 C   0  0  0  0  0  0  0  0  0  0  0  0
   15.4675  -15.2421   19.9148 C   0  0  0  0  0  0  0  0  0  0  0  0
   16.0412  -14.3590   20.8831 C   0  0  0  0  0  0  0  0  0  0  0  0
   18.2916  -17.9510   23.6745 C   0  0  0  0  0  0  0  0  0  0  0  0
   14.4830  -14.8414   17.3812 C   0  0  0  0  0  0  0  0  0  0  0  0
   14.8710  -13.5233   18.0878 C   0  0  0  0  0  0  0  0  0  0  0  0
   14.3756  -14.7066   18.8862 C   0  0  0  0  0  0  0  0  0  0  0  0
   12.9769  -14.9935   19.5014 C   0  0  0  0  0  0  0  0  0  0  0  0
   12.3069  -14.0593   20.0886 N   0  0  0  0  0  0  0  0  0  0  0  0
   11.9579  -16.8856   18.1077 N   0  0  0  0  0  0  0  0  0  0  0  0
   12.3729  -16.3983   19.3687 C   0  0  0  0  0  0  0  0  0  0  0  0
   12.2455  -17.2266   20.5099 C   0  0  0  0  0  0  0  0  0  0  0  0
   11.7069  -18.5169   20.3762 C   0  0  0  0  0  0  0  0  0  0  0  0
   11.2897  -19.0057   19.1268 C   0  0  0  0  0  0  0  0  0  0  0  0
   11.4154  -18.1830   17.9791 C   0  0  0  0  0  0  0  0  0  0  0  0
   12.8771  -12.6954   20.1868 O   0  0  0  0  0  0  0  0  0  0  0  0
   13.1353  -12.3537   21.5472 C   0  0  0  0  0  0  0  0  0  0  0  0
   12.4448  -11.0042   21.8689 C   0  0  0  0  0  0  0  0  0  0  0  0
   11.6960  -10.4949   21.0253 O   0  0  0  0  0  0  0  0  0  0  0  0
   12.6750  -10.3927   23.0806 O   0  0  0  0  0  0  0  0  0  0  0  0
   11.0364  -11.7423   24.2801 C   0  0  0  0  0  0  0  0  0  0  0  0
   11.4816  -10.3211   23.8816 C   0  0  0  0  0  0  0  0  0  0  0  0
   18.8285  -15.0040   24.9164 C   0  0  0  0  0  0  0  0  0  0  0  0
   20.0584  -14.1754   24.7785 N   0  0  0  0  0  0  0  0  0  0  0  0
   19.9137  -13.2040   24.7099 H   0  0  0  0  0  0  0  0  0  0  0  0
   24.1260  -15.5632   24.6436 C   0  0  0  0  0  0  0  0  0  0  0  0
   23.8213  -14.2071   24.9945 C   0  0  0  0  0  0  0  0  0  0  0  0
   22.4954  -13.7378   25.0385 C   0  0  0  0  0  0  0  0  0  0  0  0
   21.4287  -14.6067   24.7325 C   0  0  0  0  0  0  0  0  0  0  0  0
   21.6883  -15.9482   24.3811 C   0  0  0  0  0  0  0  0  0  0  0  0
   23.0118  -16.4136   24.3374 C   0  0  0  0  0  0  0  0  0  0  0  0
   26.2519  -15.9359   23.5531 N   0  0  0  0  0  0  0  0  0  0  0  0
   26.0688  -16.6233   25.6186 N   0  0  0  0  0  0  0  0  0  0  0  0
   25.4499  -16.0325   24.6067 C   0  0  0  0  0  0  0  0  0  0  0  0
   27.1702  -16.2880   23.5995 H   0  0  0  0  0  0  0  0  0  0  0  0
   27.0000  -16.9261   25.5169 H   0  0  0  0  0  0  0  0  0  0  0  0
   25.5973  -16.7595   26.4720 H   0  0  0  0  0  0  0  0  0  0  0  0
 38 40  2  0  0  0
 39 40  1  0  0  0
 40 32  1  0  0  0
 32 33  2  0  0  0
 32 37  1  0  0  0
 33 34  1  0  0  0
 34 35  2  0  0  0
 35 36  1  0  0  0
 35 30  1  0  0  0
 36 37  2  0  0  0
 30 29  1  0  0  0
 29  2  1  0  0  0
  1  2  2  0  0  0
  1  5  1  0  0  0
  2  3  1  0  0  0
  3  4  1  0  0  0
  3 10  1  0  0  0
  4  5  2  0  0  0
  4  6  1  0  0  0
  5  9  1  0  0  0
  6  7  2  0  0  0
  7  8  1  0  0  0
  8  9  2  0  0  0
  8 13  1  0  0  0
 11 12  1  0  0  0
 11 13  1  0  0  0
 12 13  1  0  0  0
 13 14  1  0  0  0
 14 15  2  0  0  0
 14 17  1  0  0  0
 15 22  1  0  0  0
 16 17  2  0  0  0
 16 21  1  0  0  0
 17 18  1  0  0  0
 18 19  2  0  0  0
 19 20  1  0  0  0
 20 21  2  0  0  0
 22 23  1  0  0  0
 23 24  1  0  0  0
 24 25  2  0  0  0
 24 26  1  0  0  0
 26 28  1  0  0  0
 27 28  1  0  0  0
 38 41  1  0  0  0
 39 42  1  0  0  0
 39 43  1  0  0  0
 30 31  1  0  0  0
M  END
> <minimizedAffinity>
-8.57858

$$$$
1G30_T87_B_1


 43 47  0  0  0  0  0  0  0  0999 V2000
   17.3850  -12.9161   21.1467 N   0  0  0  0  0  0  0  0  0  0  0  0
   16.4235  -13.3194   20.2256 C   0  0  0  0  0  0  0  0  0  0  0  0
   15.9252  -14.6419   20.2508 N   0  0  0  0  0  0  0  0  0  0  0  0
   16.6755  -15.1063   21.3253 C   0  0  0  0  0  0  0  0  0  0  0  0
   17.5385  -14.0769   21.8441 C   0  0  0  0  0  0  0  0  0  0  0  0
   16.6832  -16.4078   21.9199 C   0  0  0  0  0  0  0  0  0  0  0  0
   17.5388  -16.6483   23.0103 C   0  0  0  0  0  0  0  0  0  0  0  0
   18.4137  -15.6409   23.5383 C   0  0  0  0  0  0  0  0  0  0  0  0
   18.4000  -14.3373   22.9494 C   0  0  0  0  0  0  0  0  0  0  0  0
   14.9076  -15.3438   19.4071 C   0  0  0  0  0  0  0  0  0  0  0  0
   19.3635  -17.0183   25.7177 C   0  0  0  0  0  0  0  0  0  0  0  0
   19.2919  -15.4937   25.9581 C   0  0  0  0  0  0  0  0  0  0  0  0
   19.5545  -16.0424   24.5749 C   0  0  0  0  0  0  0  0  0  0  0  0
   20.8826  -16.1732   23.7774 C   0  0  0  0  0  0  0  0  0  0  0  0
   21.7508  -15.2180   23.7747 N   0  0  0  0  0  0  0  0  0  0  0  0
   21.8152  -18.5564   23.6696 N   0  0  0  0  0  0  0  0  0  0  0  0
   21.1772  -17.4748   23.0192 C   0  0  0  0  0  0  0  0  0  0  0  0
   20.7921  -17.6089   21.6633 C   0  0  0  0  0  0  0  0  0  0  0  0
   21.0508  -18.8098   20.9822 C   0  0  0  0  0  0  0  0  0  0  0  0
   21.6874  -19.8867   21.6218 C   0  0  0  0  0  0  0  0  0  0  0  0
   22.0747  -19.7609   22.9796 C   0  0  0  0  0  0  0  0  0  0  0  0
   21.4797  -13.9751   24.5342 O   0  0  0  0  0  0  0  0  0  0  0  0
   22.4701  -13.7730   25.5404 C   0  0  0  0  0  0  0  0  0  0  0  0
   23.8607  -14.1355   24.9603 C   0  0  0  0  0  0  0  0  0  0  0  0
   24.4610  -13.3018   24.2700 O   0  0  0  0  0  0  0  0  0  0  0  0
   24.4044  -15.3738   25.2170 O   0  0  0  0  0  0  0  0  0  0  0  0
   25.2595  -17.3388   24.0539 C   0  0  0  0  0  0  0  0  0  0  0  0
   25.2878  -15.8014   24.1645 C   0  0  0  0  0  0  0  0  0  0  0  0
   15.9304  -12.2739   19.1949 C   0  0  0  0  0  0  0  0  0  0  0  0
   14.5035  -11.8497   19.2422 N   0  0  0  0  0  0  0  0  0  0  0  0
   14.1252  -11.5273   18.3924 H   0  0  0  0  0  0  0  0  0  0  0  0
   11.8784  -11.7784   22.6471 C   0  0  0  0  0  0  0  0  0  0  0  0
   11.8172  -12.8452   21.6916 C   0  0  0  0  0  0  0  0  0  0  0  0
   12.6669  -12.8795   20.5703 C   0  0  0  0  0  0  0  0  0  0  0  0
   13.6059  -11.8488   20.3647 C   0  0  0  0  0  0  0  0  0  0  0  0
   13.6954  -10.7808   21.2822 C   0  0  0  0  0  0  0  0  0  0  0  0
   12.8463  -10.7488   22.3994 C   0  0  0  0  0  0  0  0  0  0  0  0
   10.5992  -12.8269   24.4112 N   0  0  0  0  0  0  0  0  0  0  0  0
   10.5712  -10.6438   24.3360 N   0  0  0  0  0  0  0  0  0  0  0  0
   11.0342  -11.7488   23.7699 C   0  0  0  0  0  0  0  0  0  0  0  0
   10.0083  -12.7298   25.1927 H   0  0  0  0  0  0  0  0  0  0  0  0
    9.9824  -10.7033   25.1228 H   0  0  0  0  0  0  0  0  0  0  0  0
   10.8161   -9.7634   23.9698 H   0  0  0  0  0  0  0  0  0  0  0  0
 38 40  2  0  0  0
 39 40  1  0  0  0
 40 32  1  0  0  0
 32 33  2  0  0  0
 32 37  1  0  0  0
 33 34  1  0  0  0
 34 35  2  0  0  0
 35 36  1  0  0  0
 35 30  1  0  0  0
 36 37  2  0  0  0
 30 29  1  0  0  0
 29  2  1  0  0  0
  1  2  2  0  0  0
  1  5  1  0  0  0
  2  3  1  0  0  0
  3  4  1  0  0  0
  3 10  1  0  0  0
  4  5  2  0  0  0
  4  6  1  0  0  0
  5  9  1  0  0  0
  6  7  2  0  0  0
  7  8  1  0  0  0
  8  9  2  0  0  0
  8 13  1  0  0  0
 11 12  1  0  0  0
 11 13  1  0  0  0
 12 13  1  0  0  0
 13 14  1  0  0  0
 14 15  2  0  0  0
 14 17  1  0  0  0
 15 22  1  0  0  0
 16 17  2  0  0  0
 16 21  1  0  0  0
 17 18  1  0  0  0
 18 19  2  0  0  0
 19 20  1  0  0  0
 20 21  2  0  0  0
 22 23  1  0  0  0
 23 24  1  0  0  0
 24 25  2  0  0  0
 24 26  1  0  0  0
 26 28  1  0  0  0
 27 28  1  0  0  0
 38 41  1  0  0  0
 39 42  1  0  0  0
 39 43  1  0  0  0
 30 31  1  0  0  0
M  END
> <minimizedAffinity>
-8.54749

$$$$
1G30_T87_B_1


 43 47  0  0  0  0  0  0  0  0999 V2000
   17.3973  -13.1565   21.3231 N   0  0  0  0  0  0  0  0  0  0  0  0
   16.4922  -13.3265   20.2803 C   0  0  0  0  0  0  0  0  0  0  0  0
   15.8529  -14.5727   20.0898 N   0  0  0  0  0  0  0  0  0  0  0  0
   16.4396  -15.2508   21.1525 C   0  0  0  0  0  0  0  0  0  0  0  0
   17.3547  -14.4031   21.8720 C   0  0  0  0  0  0  0  0  0  0  0  0
   16.2475  -16.6060   21.5692 C   0  0  0  0  0  0  0  0  0  0  0  0
   16.9613  -17.0780   22.6858 C   0  0  0  0  0  0  0  0  0  0  0  0
   17.8848  -16.2546   23.4126 C   0  0  0  0  0  0  0  0  0  0  0  0
   18.0707  -14.8972   23.0012 C   0  0  0  0  0  0  0  0  0  0  0  0
   14.8523  -15.0397   19.0795 C   0  0  0  0  0  0  0  0  0  0  0  0
   18.8168  -18.3663   24.9030 C   0  0  0  0  0  0  0  0  0  0  0  0
   18.1642  -17.2651   25.7682 C   0  0  0  0  0  0  0  0  0  0  0  0
   18.8684  -16.9131   24.4786 C   0  0  0  0  0  0  0  0  0  0  0  0
   20.2849  -16.3215   24.2320 C   0  0  0  0  0  0  0  0  0  0  0  0
   20.9323  -16.5828   23.1462 N   0  0  0  0  0  0  0  0  0  0  0  0
   21.8101  -15.8753   26.2408 N   0  0  0  0  0  0  0  0  0  0  0  0
   20.8980  -15.3819   25.2792 C   0  0  0  0  0  0  0  0  0  0  0  0
   20.5685  -14.0048   25.2767 C   0  0  0  0  0  0  0  0  0  0  0  0
   21.1472  -13.1493   26.2285 C   0  0  0  0  0  0  0  0  0  0  0  0
   22.0514  -13.6340   27.1884 C   0  0  0  0  0  0  0  0  0  0  0  0
   22.3877  -15.0111   27.1967 C   0  0  0  0  0  0  0  0  0  0  0  0
   20.3251  -17.4637   22.1213 O   0  0  0  0  0  0  0  0  0  0  0  0
   21.3111  -17.9110   21.1929 C   0  0  0  0  0  0  0  0  0  0  0  0
   22.5503  -18.4141   21.9756 C   0  0  0  0  0  0  0  0  0  0  0  0
   22.4357  -19.3994   22.7158 O   0  0  0  0  0  0  0  0  0  0  0  0
   23.7540  -17.7600   21.8397 O   0  0  0  0  0  0  0  0  0  0  0  0
   24.4259  -16.8708   24.0083 C   0  0  0  0  0  0  0  0  0  0  0  0
   24.6204  -17.9895   22.9655 C   0  0  0  0  0  0  0  0  0  0  0  0
   16.2189  -12.1122   19.3587 C   0  0  0  0  0  0  0  0  0  0  0  0
   14.8928  -11.4398   19.4462 N   0  0  0  0  0  0  0  0  0  0  0  0
   14.6419  -10.8874   18.6709 H   0  0  0  0  0  0  0  0  0  0  0  0
   11.9562  -11.6533   22.5799 C   0  0  0  0  0  0  0  0  0  0  0  0
   12.9653  -10.6352   22.5837 C   0  0  0  0  0  0  0  0  0  0  0  0
   13.9353  -10.5557   21.5673 C   0  0  0  0  0  0  0  0  0  0  0  0
   13.9311  -11.4910   20.5130 C   0  0  0  0  0  0  0  0  0  0  0  0
   12.9549  -12.5089   20.4751 C   0  0  0  0  0  0  0  0  0  0  0  0
   11.9889  -12.5863   21.4904 C   0  0  0  0  0  0  0  0  0  0  0  0
   10.6480  -10.7183   24.3860 N   0  0  0  0  0  0  0  0  0  0  0  0
   10.2741  -12.8095   23.8770 N   0  0  0  0  0  0  0  0  0  0  0  0
   10.9840  -11.7276   23.5916 C   0  0  0  0  0  0  0  0  0  0  0  0
    9.9560  -10.8434   25.0750 H   0  0  0  0  0  0  0  0  0  0  0  0
    9.6090  -12.7847   24.6024 H   0  0  0  0  0  0  0  0  0  0  0  0
   10.4118  -13.6382   23.3635 H   0  0  0  0  0  0  0  0  0  0  0  0
 38 40  2  0  0  0
 39 40  1  0  0  0
 40 32  1  0  0  0
 32 33  2  0  0  0
 32 37  1  0  0  0
 33 34  1  0  0  0
 34 35  2  0  0  0
 35 36  1  0  0  0
 35 30  1  0  0  0
 36 37  2  0  0  0
 30 29  1  0  0  0
 29  2  1  0  0  0
  1  2  2  0  0  0
  1  5  1  0  0  0
  2  3  1  0  0  0
  3  4  1  0  0  0
  3 10  1  0  0  0
  4  5  2  0  0  0
  4  6  1  0  0  0
  5  9  1  0  0  0
  6  7  2  0  0  0
  7  8  1  0  0  0
  8  9  2  0  0  0
  8 13  1  0  0  0
 11 12  1  0  0  0
 11 13  1  0  0  0
 12 13  1  0  0  0
 13 14  1  0  0  0
 14 15  2  0  0  0
 14 17  1  0  0  0
 15 22  1  0  0  0
 16 17  2  0  0  0
 16 21  1  0  0  0
 17 18  1  0  0  0
 18 19  2  0  0  0
 19 20  1  0  0  0
 20 21  2  0  0  0
 22 23  1  0  0  0
 23 24  1  0  0  0
 24 25  2  0  0  0
 24 26  1  0  0  0
 26 28  1  0  0  0
 27 28  1  0  0  0
 38 41  1  0  0  0
 39 42  1  0  0  0
 39 43  1  0  0  0
 30 31  1  0  0  0
M  END
> <minimizedAffinity>
-8.51011

$$$$
1G30_T87_B_1


 43 47  0  0  0  0  0  0  0  0999 V2000
   17.4391  -16.9524   22.5552 N   0  0  0  0  0  0  0  0  0  0  0  0
   16.9172  -18.1363   23.0666 C   0  0  0  0  0  0  0  0  0  0  0  0
   15.6042  -18.5380   22.7312 N   0  0  0  0  0  0  0  0  0  0  0  0
   15.2825  -17.4646   21.9080 C   0  0  0  0  0  0  0  0  0  0  0  0
   16.3750  -16.5312   21.8153 C   0  0  0  0  0  0  0  0  0  0  0  0
   14.0649  -17.2074   21.2019 C   0  0  0  0  0  0  0  0  0  0  0  0
   13.9682  -16.0397   20.4233 C   0  0  0  0  0  0  0  0  0  0  0  0
   15.0401  -15.0910   20.3231 C   0  0  0  0  0  0  0  0  0  0  0  0
   16.2605  -15.3523   21.0223 C   0  0  0  0  0  0  0  0  0  0  0  0
   14.7951  -19.7364   23.1176 C   0  0  0  0  0  0  0  0  0  0  0  0
   13.7078  -13.3812   18.6347 C   0  0  0  0  0  0  0  0  0  0  0  0
   15.1742  -13.6194   18.2102 C   0  0  0  0  0  0  0  0  0  0  0  0
   14.7792  -13.6628   19.6680 C   0  0  0  0  0  0  0  0  0  0  0  0
   14.9452  -12.5992   20.7898 C   0  0  0  0  0  0  0  0  0  0  0  0
   16.0919  -12.0534   21.0210 N   0  0  0  0  0  0  0  0  0  0  0  0
   12.7775  -13.1254   22.0487 N   0  0  0  0  0  0  0  0  0  0  0  0
   13.7163  -12.1671   21.6014 C   0  0  0  0  0  0  0  0  0  0  0  0
   13.5244  -10.8023   21.9262 C   0  0  0  0  0  0  0  0  0  0  0  0
   12.4056  -10.4181   22.6835 C   0  0  0  0  0  0  0  0  0  0  0  0
   11.4676  -11.3650   23.1280 C   0  0  0  0  0  0  0  0  0  0  0  0
   11.6534  -12.7335   22.8083 C   0  0  0  0  0  0  0  0  0  0  0  0
   17.2705  -12.4476   20.2144 O   0  0  0  0  0  0  0  0  0  0  0  0
   18.3922  -11.6231   20.5247 C   0  0  0  0  0  0  0  0  0  0  0  0
   19.6819  -12.4799   20.4606 C   0  0  0  0  0  0  0  0  0  0  0  0
   20.6924  -12.0077   19.9241 O   0  0  0  0  0  0  0  0  0  0  0  0
   19.6848  -13.7483   20.9957 O   0  0  0  0  0  0  0  0  0  0  0  0
   20.6472  -14.0110   23.2205 C   0  0  0  0  0  0  0  0  0  0  0  0
   19.3705  -13.7397   22.4000 C   0  0  0  0  0  0  0  0  0  0  0  0
   17.8229  -18.9796   23.9979 C   0  0  0  0  0  0  0  0  0  0  0  0
   18.1300  -18.4520   25.3564 N   0  0  0  0  0  0  0  0  0  0  0  0
   17.5671  -18.7978   26.0864 H   0  0  0  0  0  0  0  0  0  0  0  0
   21.0803  -15.5428   26.5061 C   0  0  0  0  0  0  0  0  0  0  0  0
   21.4689  -16.8366   26.0266 C   0  0  0  0  0  0  0  0  0  0  0  0
   20.5145  -17.8001   25.6510 C   0  0  0  0  0  0  0  0  0  0  0  0
   19.1395  -17.5046   25.7424 C   0  0  0  0  0  0  0  0  0  0  0  0
   18.7174  -16.2426   26.2112 C   0  0  0  0  0  0  0  0  0  0  0  0
   19.6714  -15.2835   26.5858 C   0  0  0  0  0  0  0  0  0  0  0  0
   21.7484  -13.3211   27.1885 N   0  0  0  0  0  0  0  0  0  0  0  0
   23.3371  -14.8034   26.9625 N   0  0  0  0  0  0  0  0  0  0  0  0
   22.0342  -14.5790   26.8743 C   0  0  0  0  0  0  0  0  0  0  0  0
   22.4703  -12.6998   27.4375 H   0  0  0  0  0  0  0  0  0  0  0  0
   23.9451  -14.0759   27.2278 H   0  0  0  0  0  0  0  0  0  0  0  0
   23.6973  -15.6976   26.7628 H   0  0  0  0  0  0  0  0  0  0  0  0
 38 40  2  0  0  0
 39 40  1  0  0  0
 40 32  1  0  0  0
 32 33  2  0  0  0
 32 37  1  0  0  0
 33 34  1  0  0  0
 34 35  2  0  0  0
 35 36  1  0  0  0
 35 30  1  0  0  0
 36 37  2  0  0  0
 30 29  1  0  0  0
 29  2  1  0  0  0
  1  2  2  0  0  0
  1  5  1  0  0  0
  2  3  1  0  0  0
  3  4  1  0  0  0
  3 10  1  0  0  0
  4  5  2  0  0  0
  4  6  1  0  0  0
  5  9  1  0  0  0
  6  7  2  0  0  0
  7  8  1  0  0  0
  8  9  2  0  0  0
  8 13  1  0  0  0
 11 12  1  0  0  0
 11 13  1  0  0  0
 12 13  1  0  0  0
 13 14  1  0  0  0
 14 15  2  0  0  0
 14 17  1  0  0  0
 15 22  1  0  0  0
 16 17  2  0  0  0
 16 21  1  0  0  0
 17 18  1  0  0  0
 18 19  2  0  0  0
 19 20  1  0  0  0
 20 21  2  0  0  0
 22 23  1  0  0  0
 23 24  1  0  0  0
 24 25  2  0  0  0
 24 26  1  0  0  0
 26 28  1  0  0  0
 27 28  1  0  0  0
 38 41  1  0  0  0
 39 42  1  0  0  0
 39 43  1  0  0  0
 30 31  1  0  0  0
M  END
> <minimizedAffinity>
-8.43319

$$$$
1G30_T87_B_1


 43 47  0  0  0  0  0  0  0  0999 V2000
   17.1318  -15.8239   22.9916 N   0  0  0  0  0  0  0  0  0  0  0  0
   17.6306  -17.0349   23.4610 C   0  0  0  0  0  0  0  0  0  0  0  0
   17.4655  -18.2147   22.7001 N   0  0  0  0  0  0  0  0  0  0  0  0
   16.7808  -17.6539   21.6278 C   0  0  0  0  0  0  0  0  0  0  0  0
   16.5858  -16.2394   21.8142 C   0  0  0  0  0  0  0  0  0  0  0  0
   16.2803  -18.2920   20.4489 C   0  0  0  0  0  0  0  0  0  0  0  0
   15.6085  -17.5114   19.4906 C   0  0  0  0  0  0  0  0  0  0  0  0
   15.3948  -16.1025   19.6589 C   0  0  0  0  0  0  0  0  0  0  0  0
   15.9024  -15.4629   20.8334 C   0  0  0  0  0  0  0  0  0  0  0  0
   17.8899  -19.6292   22.9429 C   0  0  0  0  0  0  0  0  0  0  0  0
   14.5571  -15.2346   17.1902 C   0  0  0  0  0  0  0  0  0  0  0  0
   15.0053  -14.0776   18.1109 C   0  0  0  0  0  0  0  0  0  0  0  0
   14.3914  -15.3296   18.6930 C   0  0  0  0  0  0  0  0  0  0  0  0
   12.9494  -15.6005   19.2072 C   0  0  0  0  0  0  0  0  0  0  0  0
   12.2453  -14.6555   19.7340 N   0  0  0  0  0  0  0  0  0  0  0  0
   12.0116  -17.4969   17.7632 N   0  0  0  0  0  0  0  0  0  0  0  0
   12.3463  -17.0025   19.0452 C   0  0  0  0  0  0  0  0  0  0  0  0
   12.1390  -17.8214   20.1815 C   0  0  0  0  0  0  0  0  0  0  0  0
   11.6020  -19.1095   20.0221 C   0  0  0  0  0  0  0  0  0  0  0  0
   11.2644  -19.6051   18.7515 C   0  0  0  0  0  0  0  0  0  0  0  0
   11.4703  -18.7920   17.6087 C   0  0  0  0  0  0  0  0  0  0  0  0
   12.8169  -13.2944   19.8595 O   0  0  0  0  0  0  0  0  0  0  0  0
   12.7954  -12.8620   21.2185 C   0  0  0  0  0  0  0  0  0  0  0  0
   13.9077  -11.8038   21.4295 C   0  0  0  0  0  0  0  0  0  0  0  0
   13.5878  -10.6436   21.7190 O   0  0  0  0  0  0  0  0  0  0  0  0
   15.2284  -12.1661   21.2900 O   0  0  0  0  0  0  0  0  0  0  0  0
   17.3083  -11.9252   20.0406 C   0  0  0  0  0  0  0  0  0  0  0  0
   15.9166  -11.3332   20.3395 C   0  0  0  0  0  0  0  0  0  0  0  0
   18.3638  -17.0316   24.8252 C   0  0  0  0  0  0  0  0  0  0  0  0
   19.0639  -15.7879   25.2509 N   0  0  0  0  0  0  0  0  0  0  0  0
   18.5050  -15.1175   25.7063 H   0  0  0  0  0  0  0  0  0  0  0  0
   23.1774  -14.6399   24.7502 C   0  0  0  0  0  0  0  0  0  0  0  0
   22.7556  -15.9901   24.5177 C   0  0  0  0  0  0  0  0  0  0  0  0
   21.4138  -16.3812   24.6819 C   0  0  0  0  0  0  0  0  0  0  0  0
   20.4478  -15.4373   25.0847 C   0  0  0  0  0  0  0  0  0  0  0  0
   20.8243  -14.0990   25.3247 C   0  0  0  0  0  0  0  0  0  0  0  0
   22.1635  -13.7116   25.1608 C   0  0  0  0  0  0  0  0  0  0  0  0
   24.9009  -13.0477   24.1654 N   0  0  0  0  0  0  0  0  0  0  0  0
   25.5641  -15.0248   24.8161 N   0  0  0  0  0  0  0  0  0  0  0  0
   24.5162  -14.2490   24.5793 C   0  0  0  0  0  0  0  0  0  0  0  0
   25.8592  -12.8439   24.0686 H   0  0  0  0  0  0  0  0  0  0  0  0
   26.4747  -14.6793   24.6727 H   0  0  0  0  0  0  0  0  0  0  0  0
   25.4319  -15.9466   25.1355 H   0  0  0  0  0  0  0  0  0  0  0  0
 38 40  2  0  0  0
 39 40  1  0  0  0
 40 32  1  0  0  0
 32 33  2  0  0  0
 32 37  1  0  0  0
 33 34  1  0  0  0
 34 35  2  0  0  0
 35 36  1  0  0  0
 35 30  1  0  0  0
 36 37  2  0  0  0
 30 29  1  0  0  0
 29  2  1  0  0  0
  1  2  2  0  0  0
  1  5  1  0  0  0
  2  3  1  0  0  0
  3  4  1  0  0  0
  3 10  1  0  0  0
  4  5  2  0  0  0
  4  6  1  0  0  0
  5  9  1  0  0  0
  6  7  2  0  0  0
  7  8  1  0  0  0
  8  9  2  0  0  0
  8 13  1  0  0  0
 11 12  1  0  0  0
 11 13  1  0  0  0
 12 13  1  0  0  0
 13 14  1  0  0  0
 14 15  2  0  0  0
 14 17  1  0  0  0
 15 22  1  0  0  0
 16 17  2  0  0  0
 16 21  1  0  0  0
 17 18  1  0  0  0
 18 19  2  0  0  0
 19 20  1  0  0  0
 20 21  2  0  0  0
 22 23  1  0  0  0
 23 24  1  0  0  0
 24 25  2  0  0  0
 24 26  1  0  0  0
 26 28  1  0  0  0
 27 28  1  0  0  0
 38 41  1  0  0  0
 39 42  1  0  0  0
 39 43  1  0  0  0
 30 31  1  0  0  0
M  END
> <minimizedAffinity>
-8.38165

$$$$
1G30_T87_B_1


 43 47  0  0  0  0  0  0  0  0999 V2000
   16.8632  -13.4689   21.6953 N   0  0  0  0  0  0  0  0  0  0  0  0
   17.5298  -12.6135   20.8239 C   0  0  0  0  0  0  0  0  0  0  0  0
   18.9424  -12.5613   20.8204 N   0  0  0  0  0  0  0  0  0  0  0  0
   19.1690  -13.5067   21.8145 C   0  0  0  0  0  0  0  0  0  0  0  0
   17.9306  -14.0332   22.3272 C   0  0  0  0  0  0  0  0  0  0  0  0
   20.4138  -13.9702   22.3464 C   0  0  0  0  0  0  0  0  0  0  0  0
   20.3949  -14.9423   23.3631 C   0  0  0  0  0  0  0  0  0  0  0  0
   19.1734  -15.4748   23.8956 C   0  0  0  0  0  0  0  0  0  0  0  0
   17.9291  -15.0176   23.3581 C   0  0  0  0  0  0  0  0  0  0  0  0
   19.9118  -11.7595   20.0098 C   0  0  0  0  0  0  0  0  0  0  0  0
   18.1295  -16.3089   26.2964 C   0  0  0  0  0  0  0  0  0  0  0  0
   19.4426  -15.5111   26.4596 C   0  0  0  0  0  0  0  0  0  0  0  0
   19.2010  -16.3499   25.2263 C   0  0  0  0  0  0  0  0  0  0  0  0
   19.7345  -17.7595   24.8450 C   0  0  0  0  0  0  0  0  0  0  0  0
   18.9565  -18.6404   24.3112 N   0  0  0  0  0  0  0  0  0  0  0  0
   22.1458  -17.9814   24.0099 N   0  0  0  0  0  0  0  0  0  0  0  0
   21.2169  -18.0869   25.0710 C   0  0  0  0  0  0  0  0  0  0  0  0
   21.6694  -18.4789   26.3541 C   0  0  0  0  0  0  0  0  0  0  0  0
   23.0307  -18.7605   26.5556 C   0  0  0  0  0  0  0  0  0  0  0  0
   23.9579  -18.6607   25.5046 C   0  0  0  0  0  0  0  0  0  0  0  0
   23.5130  -18.2674   24.2174 C   0  0  0  0  0  0  0  0  0  0  0  0
   17.5333  -18.3115   24.0632 O   0  0  0  0  0  0  0  0  0  0  0  0
   17.1762  -18.6035   22.7136 C   0  0  0  0  0  0  0  0  0  0  0  0
   15.6353  -18.5235   22.5702 C   0  0  0  0  0  0  0  0  0  0  0  0
   14.9356  -18.5088   23.5910 O   0  0  0  0  0  0  0  0  0  0  0  0
   15.0692  -18.4732   21.3163 O   0  0  0  0  0  0  0  0  0  0  0  0
   15.3790  -16.2885   20.2790 C   0  0  0  0  0  0  0  0  0  0  0  0
   14.4268  -17.2099   21.0671 C   0  0  0  0  0  0  0  0  0  0  0  0
   16.6720  -11.7416   19.8738 C   0  0  0  0  0  0  0  0  0  0  0  0
   15.2421  -12.1068   19.6737 N   0  0  0  0  0  0  0  0  0  0  0  0
   15.0010  -12.4093   18.7684 H   0  0  0  0  0  0  0  0  0  0  0  0
   12.0697  -11.9316   22.5711 C   0  0  0  0  0  0  0  0  0  0  0  0
   12.3091  -13.1236   21.8117 C   0  0  0  0  0  0  0  0  0  0  0  0
   13.3407  -13.1940   20.8571 C   0  0  0  0  0  0  0  0  0  0  0  0
   14.1676  -12.0760   20.6278 C   0  0  0  0  0  0  0  0  0  0  0  0
   13.9623  -10.8841   21.3542 C   0  0  0  0  0  0  0  0  0  0  0  0
   12.9322  -10.8163   22.3054 C   0  0  0  0  0  0  0  0  0  0  0  0
   10.7113  -10.7672   24.1980 N   0  0  0  0  0  0  0  0  0  0  0  0
   10.2733  -12.8837   23.8807 N   0  0  0  0  0  0  0  0  0  0  0  0
   11.0437  -11.8647   23.5289 C   0  0  0  0  0  0  0  0  0  0  0  0
    9.9796  -10.7946   24.8560 H   0  0  0  0  0  0  0  0  0  0  0  0
    9.5731  -12.7594   24.5615 H   0  0  0  0  0  0  0  0  0  0  0  0
   10.4012  -13.7653   23.4614 H   0  0  0  0  0  0  0  0  0  0  0  0
 38 40  2  0  0  0
 39 40  1  0  0  0
 40 32  1  0  0  0
 32 33  2  0  0  0
 32 37  1  0  0  0
 33 34  1  0  0  0
 34 35  2  0  0  0
 35 36  1  0  0  0
 35 30  1  0  0  0
 36 37  2  0  0  0
 30 29  1  0  0  0
 29  2  1  0  0  0
  1  2  2  0  0  0
  1  5  1  0  0  0
  2  3  1  0  0  0
  3  4  1  0  0  0
  3 10  1  0  0  0
  4  5  2  0  0  0
  4  6  1  0  0  0
  5  9  1  0  0  0
  6  7  2  0  0  0
  7  8  1  0  0  0
  8  9  2  0  0  0
  8 13  1  0  0  0
 11 12  1  0  0  0
 11 13  1  0  0  0
 12 13  1  0  0  0
 13 14  1  0  0  0
 14 15  2  0  0  0
 14 17  1  0  0  0
 15 22  1  0  0  0
 16 17  2  0  0  0
 16 21  1  0  0  0
 17 18  1  0  0  0
 18 19  2  0  0  0
 19 20  1  0  0  0
 20 21  2  0  0  0
 22 23  1  0  0  0
 23 24  1  0  0  0
 24 25  2  0  0  0
 24 26  1  0  0  0
 26 28  1  0  0  0
 27 28  1  0  0  0
 38 41  1  0  0  0
 39 42  1  0  0  0
 39 43  1  0  0  0
 30 31  1  0  0  0
M  END
> <minimizedAffinity>
-8.31511

$$$$
1G30_T87_B_1


 43 47  0  0  0  0  0  0  0  0999 V2000
   17.6898  -14.2676   23.1478 N   0  0  0  0  0  0  0  0  0  0  0  0
   18.0958  -15.4453   23.7672 C   0  0  0  0  0  0  0  0  0  0  0  0
   17.6973  -16.6971   23.2455 N   0  0  0  0  0  0  0  0  0  0  0  0
   16.9549  -16.2255   22.1686 C   0  0  0  0  0  0  0  0  0  0  0  0
   16.9547  -14.7862   22.1241 C   0  0  0  0  0  0  0  0  0  0  0  0
   16.2380  -16.9682   21.1777 C   0  0  0  0  0  0  0  0  0  0  0  0
   15.5489  -16.2653   20.1727 C   0  0  0  0  0  0  0  0  0  0  0  0
   15.5272  -14.8317   20.1134 C   0  0  0  0  0  0  0  0  0  0  0  0
   16.2508  -14.0893   21.0990 C   0  0  0  0  0  0  0  0  0  0  0  0
   17.9773  -18.0997   23.6864 C   0  0  0  0  0  0  0  0  0  0  0  0
   14.4513  -14.3124   17.6392 C   0  0  0  0  0  0  0  0  0  0  0  0
   15.2019  -13.0990   18.2320 C   0  0  0  0  0  0  0  0  0  0  0  0
   14.5096  -14.0916   19.1367 C   0  0  0  0  0  0  0  0  0  0  0  0
   13.1414  -14.0042   19.8699 C   0  0  0  0  0  0  0  0  0  0  0  0
   12.2323  -14.9019   19.6854 N   0  0  0  0  0  0  0  0  0  0  0  0
   13.7368  -11.7220   20.8686 N   0  0  0  0  0  0  0  0  0  0  0  0
   12.8910  -12.8552   20.8561 C   0  0  0  0  0  0  0  0  0  0  0  0
   11.7945  -12.9136   21.7501 C   0  0  0  0  0  0  0  0  0  0  0  0
   11.5633  -11.8500   22.6378 C   0  0  0  0  0  0  0  0  0  0  0  0
   12.4020  -10.7229   22.6573 C   0  0  0  0  0  0  0  0  0  0  0  0
   13.5009  -10.6561   21.7644 C   0  0  0  0  0  0  0  0  0  0  0  0
   12.4882  -16.0287   18.7581 O   0  0  0  0  0  0  0  0  0  0  0  0
   11.2766  -16.7178   18.4558 C   0  0  0  0  0  0  0  0  0  0  0  0
   11.6012  -18.2039   18.1597 C   0  0  0  0  0  0  0  0  0  0  0  0
   11.9488  -18.5281   17.0169 O   0  0  0  0  0  0  0  0  0  0  0  0
   11.4960  -19.1380   19.1655 O   0  0  0  0  0  0  0  0  0  0  0  0
   12.9515  -18.8611   21.1019 C   0  0  0  0  0  0  0  0  0  0  0  0
   12.7817  -19.4927   19.7059 C   0  0  0  0  0  0  0  0  0  0  0  0
   18.9897  -15.3256   25.0263 C   0  0  0  0  0  0  0  0  0  0  0  0
   20.2074  -14.4712   24.9529 N   0  0  0  0  0  0  0  0  0  0  0  0
   20.0486  -13.4996   24.9595 H   0  0  0  0  0  0  0  0  0  0  0  0
   24.2941  -15.7839   24.6987 C   0  0  0  0  0  0  0  0  0  0  0  0
   23.9608  -14.5230   25.2936 C   0  0  0  0  0  0  0  0  0  0  0  0
   22.6284  -14.0785   25.3797 C   0  0  0  0  0  0  0  0  0  0  0  0
   21.5836  -14.8777   24.8737 C   0  0  0  0  0  0  0  0  0  0  0  0
   21.8717  -16.1244   24.2794 C   0  0  0  0  0  0  0  0  0  0  0  0
   23.2017  -16.5652   24.1942 C   0  0  0  0  0  0  0  0  0  0  0  0
   26.3585  -16.2096   23.5134 N   0  0  0  0  0  0  0  0  0  0  0  0
   26.3171  -16.7193   25.6373 N   0  0  0  0  0  0  0  0  0  0  0  0
   25.6242  -16.2298   24.6194 C   0  0  0  0  0  0  0  0  0  0  0  0
   27.2860  -16.5391   23.5323 H   0  0  0  0  0  0  0  0  0  0  0  0
   27.2475  -17.0122   25.5039 H   0  0  0  0  0  0  0  0  0  0  0  0
   25.9015  -16.7900   26.5269 H   0  0  0  0  0  0  0  0  0  0  0  0
 38 40  2  0  0  0
 39 40  1  0  0  0
 40 32  1  0  0  0
 32 33  2  0  0  0
 32 37  1  0  0  0
 33 34  1  0  0  0
 34 35  2  0  0  0
 35 36  1  0  0  0
 35 30  1  0  0  0
 36 37  2  0  0  0
 30 29  1  0  0  0
 29  2  1  0  0  0
  1  2  2  0  0  0
  1  5  1  0  0  0
  2  3  1  0  0  0
  3  4  1  0  0  0
  3 10  1  0  0  0
  4  5  2  0  0  0
  4  6  1  0  0  0
  5  9  1  0  0  0
  6  7  2  0  0  0
  7  8  1  0  0  0
  8  9  2  0  0  0
  8 13  1  0  0  0
 11 12  1  0  0  0
 11 13  1  0  0  0
 12 13  1  0  0  0
 13 14  1  0  0  0
 14 15  2  0  0  0
 14 17  1  0  0  0
 15 22  1  0  0  0
 16 17  2  0  0  0
 16 21  1  0  0  0
 17 18  1  0  0  0
 18 19  2  0  0  0
 19 20  1  0  0  0
 20 21  2  0  0  0
 22 23  1  0  0  0
 23 24  1  0  0  0
 24 25  2  0  0  0
 24 26  1  0  0  0
 26 28  1  0  0  0
 27 28  1  0  0  0
 38 41  1  0  0  0
 39 42  1  0  0  0
 39 43  1  0  0  0
 30 31  1  0  0  0
M  END
> <minimizedAffinity>
-7.91595

$$$$
1G30_T87_B_1


 43 47  0  0  0  0  0  0  0  0999 V2000
   15.6086  -15.0832   20.3329 N   0  0  0  0  0  0  0  0  0  0  0  0
   14.8046  -15.4099   19.2456 C   0  0  0  0  0  0  0  0  0  0  0  0
   14.5950  -16.7638   18.8976 N   0  0  0  0  0  0  0  0  0  0  0  0
   15.3670  -17.3387   19.9010 C   0  0  0  0  0  0  0  0  0  0  0  0
   15.9649  -16.3336   20.7412 C   0  0  0  0  0  0  0  0  0  0  0  0
   15.6161  -18.7235   20.1607 C   0  0  0  0  0  0  0  0  0  0  0  0
   16.4431  -19.0704   21.2446 C   0  0  0  0  0  0  0  0  0  0  0  0
   17.0566  -18.0863   22.0897 C   0  0  0  0  0  0  0  0  0  0  0  0
   16.8009  -16.7021   21.8353 C   0  0  0  0  0  0  0  0  0  0  0  0
   13.7949  -17.4040   17.8067 C   0  0  0  0  0  0  0  0  0  0  0  0
   18.0962  -19.6974   24.0578 C   0  0  0  0  0  0  0  0  0  0  0  0
   17.8082  -18.2613   24.5499 C   0  0  0  0  0  0  0  0  0  0  0  0
   18.1986  -18.5177   23.1129 C   0  0  0  0  0  0  0  0  0  0  0  0
   19.5633  -18.3352   22.3908 C   0  0  0  0  0  0  0  0  0  0  0  0
   20.2598  -17.2604   22.5519 N   0  0  0  0  0  0  0  0  0  0  0  0
   19.7954  -19.5153   20.1293 N   0  0  0  0  0  0  0  0  0  0  0  0
   20.1029  -19.4696   21.5089 C   0  0  0  0  0  0  0  0  0  0  0  0
   20.9323  -20.4710   22.0694 C   0  0  0  0  0  0  0  0  0  0  0  0
   21.4350  -21.4961   21.2513 C   0  0  0  0  0  0  0  0  0  0  0  0
   21.1305  -21.5489   19.8807 C   0  0  0  0  0  0  0  0  0  0  0  0
   20.3020  -20.5492   19.3117 C   0  0  0  0  0  0  0  0  0  0  0  0
   19.7529  -16.1799   23.4298 O   0  0  0  0  0  0  0  0  0  0  0  0
   20.0754  -14.8994   22.8907 C   0  0  0  0  0  0  0  0  0  0  0  0
   21.0149  -14.1587   23.8757 C   0  0  0  0  0  0  0  0  0  0  0  0
   22.2389  -14.2229   23.7036 O   0  0  0  0  0  0  0  0  0  0  0  0
   20.4782  -13.4461   24.9241 O   0  0  0  0  0  0  0  0  0  0  0  0
   21.3597  -13.3147   27.1936 C   0  0  0  0  0  0  0  0  0  0  0  0
   20.5800  -14.1619   26.1683 C   0  0  0  0  0  0  0  0  0  0  0  0
   14.1590  -14.2471   18.4520 C   0  0  0  0  0  0  0  0  0  0  0  0
   14.2633  -12.8678   19.0043 N   0  0  0  0  0  0  0  0  0  0  0  0
   14.8426  -12.2495   18.5029 H   0  0  0  0  0  0  0  0  0  0  0  0
   12.2836  -11.2830   22.4768 C   0  0  0  0  0  0  0  0  0  0  0  0
   13.4670  -10.6637   21.9563 C   0  0  0  0  0  0  0  0  0  0  0  0
   14.1279  -11.1738   20.8235 C   0  0  0  0  0  0  0  0  0  0  0  0
   13.6299  -12.3203   20.1725 C   0  0  0  0  0  0  0  0  0  0  0  0
   12.4684  -12.9590   20.6557 C   0  0  0  0  0  0  0  0  0  0  0  0
   11.8114  -12.4485   21.7862 C   0  0  0  0  0  0  0  0  0  0  0  0
   11.9478   -9.6374   24.2166 N   0  0  0  0  0  0  0  0  0  0  0  0
   10.5816  -11.3418   24.1938 N   0  0  0  0  0  0  0  0  0  0  0  0
   11.6206  -10.7688   23.6039 C   0  0  0  0  0  0  0  0  0  0  0  0
   11.4371   -9.3380   25.0032 H   0  0  0  0  0  0  0  0  0  0  0  0
   10.1689  -10.9202   24.9820 H   0  0  0  0  0  0  0  0  0  0  0  0
   10.2223  -12.1890   23.8440 H   0  0  0  0  0  0  0  0  0  0  0  0
 38 40  2  0  0  0
 39 40  1  0  0  0
 40 32  1  0  0  0
 32 33  2  0  0  0
 32 37  1  0  0  0
 33 34  1  0  0  0
 34 35  2  0  0  0
 35 36  1  0  0  0
 35 30  1  0  0  0
 36 37  2  0  0  0
 30 29  1  0  0  0
 29  2  1  0  0  0
  1  2  2  0  0  0
  1  5  1  0  0  0
  2  3  1  0  0  0
  3  4  1  0  0  0
  3 10  1  0  0  0
  4  5  2  0  0  0
  4  6  1  0  0  0
  5  9  1  0  0  0
  6  7  2  0  0  0
  7  8  1  0  0  0
  8  9  2  0  0  0
  8 13  1  0  0  0
 11 12  1  0  0  0
 11 13  1  0  0  0
 12 13  1  0  0  0
 13 14  1  0  0  0
 14 15  2  0  0  0
 14 17  1  0  0  0
 15 22  1  0  0  0
 16 17  2  0  0  0
 16 21  1  0  0  0
 17 18  1  0  0  0
 18 19  2  0  0  0
 19 20  1  0  0  0
 20 21  2  0  0  0
 22 23  1  0  0  0
 23 24  1  0  0  0
 24 25  2  0  0  0
 24 26  1  0  0  0
 26 28  1  0  0  0
 27 28  1  0  0  0
 38 41  1  0  0  0
 39 42  1  0  0  0
 39 43  1  0  0  0
 30 31  1  0  0  0
M  END
> <minimizedAffinity>
-7.78676

$$$$
