1G30_T87_B_1
  RCSB PDB12061702333D
Coordinates from PDB:1G30:B:1 Model:1 without hydrogens
 39 43  0  0  0  0            999 V2000
   10.2730  -12.6880   23.9230   N 0  0  0  0  0  0  0  0  0  0  0  0
   10.8730  -10.6680   24.4990   N 0  0  0  0  0  0  0  0  0  0  0  0
   11.0970  -11.6780   23.6710   C 0  0  0  0  0  0  0  0  0  0  0  0
   12.0790  -11.6850   22.6660   C 0  0  0  0  0  0  0  0  0  0  0  0
   12.0990  -12.6910   21.6450   C 0  0  0  0  0  0  0  0  0  0  0  0
   13.0860  -12.7030   20.6420   C 0  0  0  0  0  0  0  0  0  0  0  0
   14.0860  -11.7100   20.6240   C 0  0  0  0  0  0  0  0  0  0  0  0
   14.0990  -10.7020   21.6110   C 0  0  0  0  0  0  0  0  0  0  0  0
   13.1130  -10.6920   22.6100   C 0  0  0  0  0  0  0  0  0  0  0  0
   15.1220  -11.6910   19.6280   N 0  0  0  0  0  0  0  0  0  0  0  0
   16.5750  -11.4160   19.8050   C 0  0  0  0  0  0  0  0  0  0  0  0
   16.7180  -13.2600   21.5130   N 0  0  0  0  0  0  0  0  0  0  0  0
   17.4080  -12.3860   20.6790   C 0  0  0  0  0  0  0  0  0  0  0  0
   18.8210  -12.4030   20.6440   N 0  0  0  0  0  0  0  0  0  0  0  0
   19.0210  -13.4180   21.5730   C 0  0  0  0  0  0  0  0  0  0  0  0
   17.7690  -13.9140   22.0830   C 0  0  0  0  0  0  0  0  0  0  0  0
   20.2520  -13.9740   22.0450   C 0  0  0  0  0  0  0  0  0  0  0  0
   20.2060  -15.0050   23.0010   C 0  0  0  0  0  0  0  0  0  0  0  0
   18.9710  -15.5090   23.5300   C 0  0  0  0  0  0  0  0  0  0  0  0
   17.7400  -14.9590   23.0520   C 0  0  0  0  0  0  0  0  0  0  0  0
   19.8120  -11.6010   19.8600   C 0  0  0  0  0  0  0  0  0  0  0  0
   18.0980  -17.6840   24.9640   C 0  0  0  0  0  0  0  0  0  0  0  0
   17.7220  -16.3400   25.6270   C 0  0  0  0  0  0  0  0  0  0  0  0
   18.9830  -16.4650   24.8040   C 0  0  0  0  0  0  0  0  0  0  0  0
   20.4640  -16.6310   25.2470   C 0  0  0  0  0  0  0  0  0  0  0  0
   21.1550  -17.6570   24.8780   N 0  0  0  0  0  0  0  0  0  0  0  0
   22.4130  -15.7230   26.6390   N 0  0  0  0  0  0  0  0  0  0  0  0
   21.1190  -15.5360   26.1000   C 0  0  0  0  0  0  0  0  0  0  0  0
   20.4370  -14.3180   26.3370   C 0  0  0  0  0  0  0  0  0  0  0  0
   21.0510  -13.3150   27.1050   C 0  0  0  0  0  0  0  0  0  0  0  0
   22.3350  -13.4960   27.6460   C 0  0  0  0  0  0  0  0  0  0  0  0
   23.0250  -14.7120   27.4120   C 0  0  0  0  0  0  0  0  0  0  0  0
   20.5310  -18.6970   24.0270   O 0  0  0  0  0  0  0  0  0  0  0  0
   21.1310  -19.9690   24.2640   C 0  0  0  0  0  0  0  0  0  0  0  0
   20.4590  -21.0230   23.3480   C 0  0  0  0  0  0  0  0  0  0  0  0
   20.6110  -22.2250   23.6010   O 0  0  0  0  0  0  0  0  0  0  0  0
   19.7090  -20.6100   22.2700   O 0  0  0  0  0  0  0  0  0  0  0  0
   18.1330  -21.2130   20.5100   C 0  0  0  0  0  0  0  0  0  0  0  0
   19.1640  -21.7220   21.5370   C 0  0  0  0  0  0  0  0  0  0  0  0
  1  3  2  0  0  0  0
  2  3  1  0  0  0  0
  3  4  1  0  0  0  0
  4  5  2  0  0  0  0
  4  9  1  0  0  0  0
  5  6  1  0  0  0  0
  6  7  2  0  0  0  0
  7  8  1  0  0  0  0
  7 10  1  0  0  0  0
  8  9  2  0  0  0  0
 10 11  1  0  0  0  0
 11 13  1  0  0  0  0
 12 13  2  0  0  0  0
 12 16  1  0  0  0  0
 13 14  1  0  0  0  0
 14 15  1  0  0  0  0
 14 21  1  0  0  0  0
 15 16  2  0  0  0  0
 15 17  1  0  0  0  0
 16 20  1  0  0  0  0
 17 18  2  0  0  0  0
 18 19  1  0  0  0  0
 19 20  2  0  0  0  0
 19 24  1  0  0  0  0
 22 23  1  0  0  0  0
 22 24  1  0  0  0  0
 23 24  1  0  0  0  0
 24 25  1  0  0  0  0
 25 26  2  0  0  0  0
 25 28  1  0  0  0  0
 26 33  1  0  0  0  0
 27 28  2  0  0  0  0
 27 32  1  0  0  0  0
 28 29  1  0  0  0  0
 29 30  2  0  0  0  0
 30 31  1  0  0  0  0
 31 32  2  0  0  0  0
 33 34  1  0  0  0  0
 34 35  1  0  0  0  0
 35 36  2  0  0  0  0
 35 37  1  0  0  0  0
 37 39  1  0  0  0  0
 38 39  1  0  0  0  0
A    1
N1
A    2
N2
A    3
C1
A    4
C2
A    5
C3
A    6
C4
A    7
C5
A    8
C6
A    9
C7
A   10
N
A   11
C
A   12
N3
A   13
C8
A   14
N9
A   15
C3A
A   16
C7A
A   17
C10
A   18
C11
A   19
C12
A   20
C13
A   21
C14
A   22
C9
A   23
C15
A   24
C16
A   25
C17
A   26
N4
A   27
N5
A   28
C18
A   29
C19
A   30
C20
A   31
C21
A   32
C22
A   33
OH
A   34
C23
A   35
C24
A   36
O2
A   37
O3
A   38
C25
A   39
C26
M  END
>  <InstanceId>
1G30_T87_B_1

>  <ChemCompId>
T87

>  <PdbId>
1G30

>  <ChainId>
B

>  <ResidueNumber>
1

>  <InsertionCode>


>  <Model>
1

>  <AltIds>


>  <MissingHeavyAtoms>
0

>  <ObservedFormula>
C29 N7 O3

>  <Name>
[(1-{2[(4-CARBAMIMIDOYL-PHENYLAMINO)-METHYL]-1-METHYL-1H-BENZOIMIDAZOL-5-YL}-CYCLOPROPYL)-PYRIDIN-2-YL-METHYLENEAMINOOXY]-ACETIC ACID ETHYL ESTER

>  <SystematicName>
ethyl 2-[[[1-[2-[[(4-carbamimidoylphenyl)amino]methyl]-1-methyl-benzimidazol-5-yl]cyclopropyl]-pyridin-2-yl-methylidene]amino]oxyethanoate

>  <Synonyms>


>  <Type>
NON-POLYMER

>  <Formula>
C29 H31 N7 O3

>  <MolecularWeight>
525.602

>  <ModifiedDate>
2011-06-04

>  <Parent>


>  <OneLetterCode>


>  <SubcomponentList>


>  <AmbiguousFlag>
N

>  <InChI>
InChI=1S/C29H31N7O3/c1-3-38-26(37)18-39-35-27(22-6-4-5-15-32-22)29(13-14-29)20-9-12-24-23(16-20)34-25(36(24)2)17-33-21-10-7-19(8-11-21)28(30)31/h4-12,15-16,33H,3,13-14,17-18H2,1-2H3,(H3,30,31)/b35-27-

>  <InChIKey>
RNOYCNIZOAIUSV-LSWMGQQCSA-N

>  <SMILES>
[H]/N=C(/c1ccc(cc1)NCc2nc3cc(ccc3n2C)C4(CC4)/C(=N\OCC(=O)OCC)/c5ccccn5)\N

$$$$
