4ZWZ_510_A_302
  RCSB PDB12061716423D
Coordinates from PDB:4ZWZ:A:302 Model:1 without hydrogens
 28 29  0  0  0  0            999 V2000
   16.6850    7.4890   12.7700   C 0  0  0  0  0  0  0  0  0  0  0  0
   15.4220    7.7350   12.1170   C 0  0  0  0  0  0  0  0  0  0  0  0
   15.3760    8.9740   11.3430   C 0  0  0  0  0  0  0  0  0  0  0  0
   16.3350   10.0840   11.5940   C 0  0  0  0  0  0  0  0  0  0  0  0
   17.2010    9.9910   12.8680   C 0  0  0  0  0  0  0  0  0  0  0  0
   18.5650   10.2510   12.7080   C 0  0  0  0  0  0  0  0  0  0  0  0
   15.1660    6.5760   11.2740   O 0  0  0  0  0  0  0  0  0  0  0  0
   15.2300    8.7200    9.9030   O 0  0  0  0  0  0  0  0  0  0  0  0
   17.1030   10.3690   10.4400   O 0  0  0  0  0  0  0  0  0  0  0  0
   18.9980   10.8530   13.8680   O 0  0  0  0  0  0  0  0  0  0  0  0
   17.0810    8.6330   13.4950   O 0  0  0  0  0  0  0  0  0  0  0  0
   16.3090    6.4170   14.2100   S 0  0  0  0  0  0  0  0  0  0  0  0
   14.9870    6.9960   14.8610   O 0  0  0  0  0  0  0  0  0  0  0  0
   17.5820    6.5720   15.1880   O 0  0  0  0  0  0  0  0  0  0  0  0
   16.1040    5.0970   13.7890   N 0  0  0  0  0  0  0  0  0  0  0  0
   15.5180    4.3610   14.5610   C 0  0  0  0  0  0  0  0  0  0  0  0
   16.3010    2.9200   14.6250   C 0  0  0  0  0  0  0  0  0  0  0  0
   16.4730    2.5520   16.0990   O 0  0  0  0  0  0  0  0  0  0  0  0
   15.6000    1.3550   16.7360   S 0  0  0  0  0  0  0  0  0  0  0  0
   14.1100    1.6400   16.3570   O 0  0  0  0  0  0  0  0  0  0  0  0
   15.8550    1.4120   18.2680   O 0  0  0  0  0  0  0  0  0  0  0  0
   16.0680   -0.0330   15.9720   N 0  0  0  0  0  0  0  0  0  0  0  0
   17.3500    3.1320   14.2180   C 0  0  0  0  0  0  0  0  0  0  0  0
   17.2050    4.2970   13.2240   C 0  0  0  0  0  0  0  0  0  0  0  0
   16.9850    3.5920   11.8630   C 0  0  0  0  0  0  0  0  0  0  0  0
   17.7430    3.7830   11.0130   O 0  0  0  0  0  0  0  0  0  0  0  0
   15.9190    2.7210   11.6700   O 0  0  0  0  0  0  0  0  0  0  0  0
   16.0680    1.6340   10.7670   C 0  0  0  0  0  0  0  0  0  0  0  0
  1  2  1  0  0  0  0
  1 11  1  0  0  0  0
  1 12  1  0  0  0  0
  2  3  1  0  0  0  0
  2  7  1  0  0  0  0
  3  4  1  0  0  0  0
  3  8  1  0  0  0  0
  4  5  1  0  0  0  0
  4  9  1  0  0  0  0
  5  6  1  0  0  0  0
  5 11  1  0  0  0  0
  6 10  1  0  0  0  0
 12 13  2  0  0  0  0
 12 14  2  0  0  0  0
 12 15  1  0  0  0  0
 15 16  1  0  0  0  0
 15 24  1  0  0  0  0
 16 17  1  0  0  0  0
 17 18  1  0  0  0  0
 17 23  1  0  0  0  0
 18 19  1  0  0  0  0
 19 20  2  0  0  0  0
 19 21  2  0  0  0  0
 19 22  1  0  0  0  0
 23 24  1  0  0  0  0
 24 25  1  0  0  0  0
 25 26  2  0  0  0  0
 25 27  1  0  0  0  0
 27 28  1  0  0  0  0
A    1
C1
A    2
C2
A    3
C3
A    4
C4
A    5
C5
A    6
C6
A    7
O2
A    8
O3
A    9
O4
A   10
O6
A   11
O5
A   12
SBN
A   13
OAN
A   14
OAO
A   15
N
A   16
CD1
A   17
CG
A   18
OD2
A   19
SBM
A   20
OAL
A   21
OAM
A   22
NAF
A   23
CB
A   24
CA
A   25
C
A   26
O
A   27
OAS
A   28
CAA
M  END
>  <InstanceId>
4ZWZ_510_A_302

>  <ChemCompId>
510

>  <PdbId>
4ZWZ

>  <ChainId>
A

>  <ResidueNumber>
302

>  <InsertionCode>


>  <Model>
1

>  <AltIds>


>  <MissingHeavyAtoms>
0

>  <ObservedFormula>
C12 N2 O12 S2

>  <Name>
methyl (2S,4R)-1-[(2S,3R,4R,5S,6S)-6-(hydroxymethyl)-3,4,5-tris(oxidanyl)oxan-2-yl]sulfonyl-4-sulfamoyloxy-pyrrolidine-2-carboxylate

>  <SystematicName>
methyl (2S,4R)-1-[(2S,3R,4R,5S,6S)-6-(hydroxymethyl)-3,4,5-tris(oxidanyl)oxan-2-yl]sulfonyl-4-sulfamoyloxy-pyrrolidine-2-carboxylate

>  <Synonyms>


>  <Type>
NON-POLYMER

>  <Formula>
C12 H22 N2 O12 S2

>  <MolecularWeight>
450.439

>  <ModifiedDate>
2015-07-31

>  <Parent>


>  <OneLetterCode>


>  <SubcomponentList>


>  <AmbiguousFlag>
N

>  <InChI>
InChI=1S/C12H22N2O12S2/c1-24-11(19)6-2-5(26-28(13,22)23)3-14(6)27(20,21)12-10(18)9(17)8(16)7(4-15)25-12/h5-10,12,15-18H,2-4H2,1H3,(H2,13,22,23)/t5-,6+,7+,8-,9-,10-,12+/m1/s1

>  <InChIKey>
UAWWGJXMKLHLED-ROERLBIISA-N

>  <SMILES>
COC(=O)[C@@H]1C[C@H](CN1S(=O)(=O)[C@H]2[C@@H]([C@@H]([C@@H]([C@@H](O2)CO)O)O)O)OS(=O)(=O)N

$$$$
