2OYM_MNI_A_600
  RCSB PDB12061706343D
Coordinates from PDB:2OYM:A:600 Model:1 without hydrogens
 22 23  0  0  0  0            999 V2000
   25.3250   58.5110  -32.7080   O 0  0  0  0  0  0  0  0  0  0  0  0
   24.6690   57.5440  -32.3470   C 0  0  0  0  0  0  0  0  0  0  0  0
   24.8110   56.2730  -33.1330   C 0  0  0  0  0  0  0  0  0  0  0  0
   24.1070   55.1120  -32.8110   C 0  0  0  0  0  0  0  0  0  0  0  0
   24.2660   53.9600  -33.5690   C 0  0  0  0  0  0  0  0  0  0  0  0
   25.1150   53.9530  -34.6800   C 0  0  0  0  0  0  0  0  0  0  0  0
   25.2750   52.8330  -35.4470   N 0  0  0  0  0  0  0  0  0  0  0  0
   26.1610   52.8410  -36.6020   C 0  0  0  0  0  0  0  0  0  0  0  0
   24.5750   51.6060  -35.1180   C 0  0  0  0  0  0  0  0  0  0  0  0
   25.8000   55.1190  -35.0010   C 0  0  0  0  0  0  0  0  0  0  0  0
   25.6530   56.2640  -34.2340   C 0  0  0  0  0  0  0  0  0  0  0  0
   23.9110   57.6250  -31.2440   N 0  0  0  0  0  0  0  0  0  0  0  0
   23.6830   58.8600  -30.5000   C 0  0  0  0  0  0  0  0  0  0  0  0
   24.1770   58.9690  -29.0740   C 0  0  0  0  0  0  0  0  0  0  0  0
   23.7900   57.8450  -28.2380   N 0  0  0  0  0  0  0  0  0  0  0  0
   24.9040   57.4260  -27.4190   C 0  0  0  0  0  0  0  0  0  0  0  0
   24.4910   57.0810  -25.9990   C 0  0  0  0  0  0  0  0  0  0  0  0
   23.4210   56.1360  -26.0670   O 0  0  0  0  0  0  0  0  0  0  0  0
   25.8960   58.5690  -27.5330   C 0  0  0  0  0  0  0  0  0  0  0  0
   27.2480   58.1760  -27.2870   O 0  0  0  0  0  0  0  0  0  0  0  0
   25.6790   59.0260  -28.9600   C 0  0  0  0  0  0  0  0  0  0  0  0
   26.2270   60.3270  -29.2000   O 0  0  0  0  0  0  0  0  0  0  0  0
  1  2  2  0  0  0  0
  2 12  1  0  0  0  0
  2  3  1  0  0  0  0
  3  4  2  0  0  0  0
  3 11  1  0  0  0  0
  4  5  1  0  0  0  0
  5  6  2  0  0  0  0
  6 10  1  0  0  0  0
  6  7  1  0  0  0  0
  7  8  1  0  0  0  0
  7  9  1  0  0  0  0
 10 11  2  0  0  0  0
 12 13  1  0  0  0  0
 13 14  1  0  0  0  0
 14 15  1  0  0  0  0
 14 21  1  0  0  0  0
 15 16  1  0  0  0  0
 16 17  1  0  0  0  0
 16 19  1  0  0  0  0
 17 18  1  0  0  0  0
 19 20  1  0  0  0  0
 19 21  1  0  0  0  0
 21 22  1  0  0  0  0
A    1
O1B
A    2
C1B
A    3
C2B
A    4
C3B
A    5
C4B
A    6
C5B
A    7
N5B
A    8
C8B
A    9
C9B
A   10
C6B
A   11
C7B
A   12
N1B
A   13
C1A
A   14
C2A
A   15
N5A
A   16
C5M
A   17
C6A
A   18
O6A
A   19
C4A
A   20
O4A
A   21
C3A
A   22
O3A
M  END
>  <InstanceId>
2OYM_MNI_A_600

>  <ChemCompId>
MNI

>  <PdbId>
2OYM

>  <ChainId>
A

>  <ResidueNumber>
600

>  <InsertionCode>


>  <Model>
1

>  <AltIds>


>  <MissingHeavyAtoms>
0

>  <ObservedFormula>
C15 N3 O4

>  <Name>
N-{[(2R,3R,4R,5R)-3,4-DIHYDROXY-5-(HYDROXYMETHYL)PYRROLIDIN-2-YL]METHYL}-4-(DIMETHYLAMINO)BENZAMIDE

>  <SystematicName>
N-[[(2R,3R,4R,5R)-3,4-dihydroxy-5-(hydroxymethyl)pyrrolidin-2-yl]methyl]-4-dimethylamino-benzamide

>  <Synonyms>
1-(4-DIMETHYLAMINO)BENZOYLAMINO-1,2,5-TRIDEOXY-2,5-IMINO-D-MANNITOL

>  <Type>
NON-POLYMER

>  <Formula>
C15 H23 N3 O4

>  <MolecularWeight>
309.361

>  <ModifiedDate>
2011-06-04

>  <Parent>


>  <OneLetterCode>


>  <SubcomponentList>


>  <AmbiguousFlag>


>  <InChI>
InChI=1S/C15H23N3O4/c1-18(2)10-5-3-9(4-6-10)15(22)16-7-11-13(20)14(21)12(8-19)17-11/h3-6,11-14,17,19-21H,7-8H2,1-2H3,(H,16,22)/t11-,12-,13-,14-/m1/s1

>  <InChIKey>
OULLPOCYJLHTGG-AAVRWANBSA-N

>  <SMILES>
CN(C)c1ccc(cc1)C(=O)NC[C@@H]2[C@H]([C@@H]([C@H](N2)CO)O)O

$$$$
