4CGI_NZL_A_1215


 35 38  0  0  0  0  0  0  0  0999 V2000
   74.7386   33.7294    0.5812 C   0  0  0  0  0  0  0  0  0  0  0  0
   75.6694   34.6079    0.0701 C   0  0  0  0  0  0  0  0  0  0  0  0
   75.1051   32.7642    1.4870 C   0  0  0  0  0  0  0  0  0  0  0  0
   76.9830   34.5566    0.4562 C   0  0  0  0  0  0  0  0  0  0  0  0
   76.4154   32.7150    1.8660 C   0  0  0  0  0  0  0  0  0  0  0  0
   77.3332   33.5912    1.3645 C   0  0  0  0  0  0  0  0  0  0  0  0
   77.0075   31.7597    2.8147 C   0  0  0  0  0  0  0  0  0  0  0  0
   78.6638   33.3385    1.9164 C   0  0  0  0  0  0  0  0  0  0  0  0
   78.4647   31.9270    2.4410 C   0  0  0  0  0  0  0  0  0  0  0  0
   80.3942   30.7722    3.3384 C   0  0  0  0  0  0  0  0  0  0  0  0
   79.3594   31.6559    3.5325 N   0  0  0  0  0  0  0  0  0  0  0  0
   80.3978   29.8265    2.5613 O   0  0  0  0  0  0  0  0  0  0  0  0
   79.2332   32.0955    4.4042 H   0  0  0  0  0  0  0  0  0  0  0  0
   81.5542   31.1013    4.2074 C   0  0  0  0  0  0  0  0  0  0  0  0
   82.2844   29.8181    4.4757 C   0  0  0  0  0  0  0  0  0  0  0  0
   81.9240   29.3653    5.8652 C   0  0  0  0  0  0  0  0  0  0  0  0
   83.1685   29.3601    6.7137 C   0  0  0  0  0  0  0  0  0  0  0  0
   83.9867   28.1393    6.3754 C   0  0  0  0  0  0  0  0  0  0  0  0
   83.1954   26.9660    6.7988 N   0  0  0  0  0  0  0  0  0  0  0  0
   83.0033   27.0282    7.7985 H   0  0  0  0  0  0  0  0  0  0  0  0
   83.7216   26.1136    6.6061 H   0  0  0  0  0  0  0  0  0  0  0  0
   79.6983   33.2457    0.8497 C   0  0  0  0  0  0  0  0  0  0  0  0
   80.5993   35.4563    1.1592 C   0  0  0  0  0  0  0  0  0  0  0  0
   81.5720   36.4156    1.2719 C   0  0  0  0  0  0  0  0  0  0  0  0
   82.2290   33.6972    0.8963 C   0  0  0  0  0  0  0  0  0  0  0  0
   80.9068   34.1177    0.9788 C   0  0  0  0  0  0  0  0  0  0  0  0
   82.8668   36.0017    1.1872 C   0  0  0  0  0  0  0  0  0  0  0  0
   83.1782   34.6901    1.0086 C   0  0  0  0  0  0  0  0  0  0  0  0
   84.9805   35.8322    1.3046 C   0  0  0  0  0  0  0  0  0  0  0  0
   83.9483   36.8234    1.2769 O   0  0  0  0  0  0  0  0  0  0  0  0
   84.5333   34.5144    0.9614 O   0  0  0  0  0  0  0  0  0  0  0  0
   82.6796   32.2904    0.7050 C   0  0  0  0  0  0  0  0  0  0  0  0
   83.4571   31.7936    1.5709 O   0  0  0  0  0  0  0  0  0  0  0  0
   82.2708   31.6643   -0.3045 O   0  0  0  0  0  0  0  0  0  0  0  0
   83.7303   32.3076    2.3052 H   0  0  0  0  0  0  0  0  0  0  0  0
  1  2  1  0  0  0
  1  3  2  0  0  0
  2  4  2  0  0  0
  3  5  1  0  0  0
  4  6  1  0  0  0
 23 24  1  0  0  0
 23 26  2  0  0  0
 24 27  2  0  0  0
 25 26  1  0  0  0
 25 28  2  0  0  0
 25 32  1  0  0  0
  5  6  2  0  0  0
  5  7  1  0  0  0
  6  8  1  0  0  0
 26 22  1  0  0  0
 27 28  1  0  0  0
 27 30  1  0  0  0
 28 31  1  0  0  0
 32 33  1  0  0  0
 32 34  2  0  0  0
 10 14  1  0  0  0
 10 11  1  0  0  0
 10 12  2  0  0  0
  7  9  1  0  0  0
 29 30  1  0  0  0
 29 31  1  0  0  0
  8  9  1  0  0  0
  8 22  1  0  0  0
  9 11  1  0  0  0
 14 15  1  0  0  0
 15 16  1  0  0  0
 16 17  1  0  0  0
 17 18  1  0  0  0
 18 19  1  0  0  0
 11 13  1  0  0  0
 19 20  1  0  0  0
 19 21  1  0  0  0
 33 35  1  0  0  0
M  END
> <minimizedAffinity>
-8.97978

$$$$
4CGI_NZL_A_1215


 35 38  0  0  0  0  0  0  0  0999 V2000
   74.4697   33.7456    0.5925 C   0  0  0  0  0  0  0  0  0  0  0  0
   75.2797   34.7491    0.1066 C   0  0  0  0  0  0  0  0  0  0  0  0
   74.9688   32.7863    1.4393 C   0  0  0  0  0  0  0  0  0  0  0  0
   76.6008   34.8308    0.4603 C   0  0  0  0  0  0  0  0  0  0  0  0
   76.2863   32.8700    1.7861 C   0  0  0  0  0  0  0  0  0  0  0  0
   77.0839   33.8693    1.3099 C   0  0  0  0  0  0  0  0  0  0  0  0
   77.0095   31.9444    2.6711 C   0  0  0  0  0  0  0  0  0  0  0  0
   78.4495   33.7451    1.8185 C   0  0  0  0  0  0  0  0  0  0  0  0
   78.4273   32.2963    2.2743 C   0  0  0  0  0  0  0  0  0  0  0  0
   80.1724   30.9573    3.2858 C   0  0  0  0  0  0  0  0  0  0  0  0
   79.3771   32.0775    3.3303 N   0  0  0  0  0  0  0  0  0  0  0  0
   79.8807   29.8868    2.7690 O   0  0  0  0  0  0  0  0  0  0  0  0
   79.4567   32.7189    4.0729 H   0  0  0  0  0  0  0  0  0  0  0  0
   81.4761   31.1948    3.9588 C   0  0  0  0  0  0  0  0  0  0  0  0
   82.4496   30.1973    3.4026 C   0  0  0  0  0  0  0  0  0  0  0  0
   83.0663   29.4606    4.5611 C   0  0  0  0  0  0  0  0  0  0  0  0
   82.1559   28.3283    4.9583 C   0  0  0  0  0  0  0  0  0  0  0  0
   81.8618   28.4309    6.4338 C   0  0  0  0  0  0  0  0  0  0  0  0
   82.7804   29.4500    6.9810 N   0  0  0  0  0  0  0  0  0  0  0  0
   83.7448   29.1678    6.8056 H   0  0  0  0  0  0  0  0  0  0  0  0
   82.6297   29.5391    7.9859 H   0  0  0  0  0  0  0  0  0  0  0  0
   79.4577   33.8237    0.7257 C   0  0  0  0  0  0  0  0  0  0  0  0
   81.7956   33.6598    1.2748 C   0  0  0  0  0  0  0  0  0  0  0  0
   83.0501   34.1132    1.5907 C   0  0  0  0  0  0  0  0  0  0  0  0
   80.9274   35.9025    1.0855 C   0  0  0  0  0  0  0  0  0  0  0  0
   80.7452   34.5261    1.0201 C   0  0  0  0  0  0  0  0  0  0  0  0
   83.2253   35.4622    1.6577 C   0  0  0  0  0  0  0  0  0  0  0  0
   82.1997   36.3203    1.4109 C   0  0  0  0  0  0  0  0  0  0  0  0
   84.0234   37.4299    1.6995 C   0  0  0  0  0  0  0  0  0  0  0  0
   84.4031   36.0746    1.9594 O   0  0  0  0  0  0  0  0  0  0  0  0
   82.6127   37.6183    1.5296 O   0  0  0  0  0  0  0  0  0  0  0  0
   79.8769   36.9276    0.8321 C   0  0  0  0  0  0  0  0  0  0  0  0
   79.5983   37.7349    1.7659 O   0  0  0  0  0  0  0  0  0  0  0  0
   79.3158   36.9429   -0.2918 O   0  0  0  0  0  0  0  0  0  0  0  0
   80.0495   37.6774    2.5851 H   0  0  0  0  0  0  0  0  0  0  0  0
  1  2  1  0  0  0
  1  3  2  0  0  0
  2  4  2  0  0  0
  3  5  1  0  0  0
  4  6  1  0  0  0
 23 24  1  0  0  0
 23 26  2  0  0  0
 24 27  2  0  0  0
 25 26  1  0  0  0
 25 28  2  0  0  0
 25 32  1  0  0  0
  5  6  2  0  0  0
  5  7  1  0  0  0
  6  8  1  0  0  0
 26 22  1  0  0  0
 27 28  1  0  0  0
 27 30  1  0  0  0
 28 31  1  0  0  0
 32 33  1  0  0  0
 32 34  2  0  0  0
 10 14  1  0  0  0
 10 11  1  0  0  0
 10 12  2  0  0  0
  7  9  1  0  0  0
 29 30  1  0  0  0
 29 31  1  0  0  0
  8  9  1  0  0  0
  8 22  1  0  0  0
  9 11  1  0  0  0
 14 15  1  0  0  0
 15 16  1  0  0  0
 16 17  1  0  0  0
 17 18  1  0  0  0
 18 19  1  0  0  0
 11 13  1  0  0  0
 19 20  1  0  0  0
 19 21  1  0  0  0
 33 35  1  0  0  0
M  END
> <minimizedAffinity>
-8.38960

$$$$
4CGI_NZL_A_1215


 35 38  0  0  0  0  0  0  0  0999 V2000
   75.6002   35.9368   -0.8623 C   0  0  0  0  0  0  0  0  0  0  0  0
   76.7928   36.2345   -1.4858 C   0  0  0  0  0  0  0  0  0  0  0  0
   75.5691   35.1300    0.2487 C   0  0  0  0  0  0  0  0  0  0  0  0
   77.9833   35.7483   -1.0129 C   0  0  0  0  0  0  0  0  0  0  0  0
   76.7573   34.6454    0.7140 C   0  0  0  0  0  0  0  0  0  0  0  0
   77.9372   34.9482    0.0996 C   0  0  0  0  0  0  0  0  0  0  0  0
   76.9375   33.7665    1.8794 C   0  0  0  0  0  0  0  0  0  0  0  0
   79.0663   34.3124    0.7778 C   0  0  0  0  0  0  0  0  0  0  0  0
   78.3276   33.2508    1.5744 C   0  0  0  0  0  0  0  0  0  0  0  0
   79.3268   31.5633    2.9942 C   0  0  0  0  0  0  0  0  0  0  0  0
   79.0649   32.8912    2.7544 N   0  0  0  0  0  0  0  0  0  0  0  0
   78.6364   30.6173    2.6384 O   0  0  0  0  0  0  0  0  0  0  0  0
   79.3771   33.5841    3.3802 H   0  0  0  0  0  0  0  0  0  0  0  0
   80.5880   31.3927    3.7619 C   0  0  0  0  0  0  0  0  0  0  0  0
   81.1879   30.0829    3.3420 C   0  0  0  0  0  0  0  0  0  0  0  0
   82.2517   29.7217    4.3437 C   0  0  0  0  0  0  0  0  0  0  0  0
   81.9981   28.3225    4.8401 C   0  0  0  0  0  0  0  0  0  0  0  0
   82.0206   28.3264    6.3481 C   0  0  0  0  0  0  0  0  0  0  0  0
   82.6839   27.0748    6.7670 N   0  0  0  0  0  0  0  0  0  0  0  0
   82.1677   26.2763    6.3978 H   0  0  0  0  0  0  0  0  0  0  0  0
   82.7040   27.0251    7.7856 H   0  0  0  0  0  0  0  0  0  0  0  0
   79.9464   33.5822   -0.1757 C   0  0  0  0  0  0  0  0  0  0  0  0
   81.2323   34.7980   -1.8073 C   0  0  0  0  0  0  0  0  0  0  0  0
   82.3380   35.4106   -2.3376 C   0  0  0  0  0  0  0  0  0  0  0  0
   82.3993   34.2381    0.2283 C   0  0  0  0  0  0  0  0  0  0  0  0
   81.2463   34.2220   -0.5477 C   0  0  0  0  0  0  0  0  0  0  0  0
   83.4677   35.4220   -1.5769 C   0  0  0  0  0  0  0  0  0  0  0  0
   83.4913   34.8578   -0.3399 C   0  0  0  0  0  0  0  0  0  0  0  0
   85.3638   35.8520   -0.7221 C   0  0  0  0  0  0  0  0  0  0  0  0
   84.6481   35.9852   -1.9545 O   0  0  0  0  0  0  0  0  0  0  0  0
   84.7242   34.9974    0.2345 O   0  0  0  0  0  0  0  0  0  0  0  0
   82.5332   33.6542    1.5920 C   0  0  0  0  0  0  0  0  0  0  0  0
   83.2125   32.5942    1.7194 O   0  0  0  0  0  0  0  0  0  0  0  0
   81.9658   34.2367    2.5497 O   0  0  0  0  0  0  0  0  0  0  0  0
   83.6142   32.2022    0.9691 H   0  0  0  0  0  0  0  0  0  0  0  0
  1  2  1  0  0  0
  1  3  2  0  0  0
  2  4  2  0  0  0
  3  5  1  0  0  0
  4  6  1  0  0  0
 23 24  1  0  0  0
 23 26  2  0  0  0
 24 27  2  0  0  0
 25 26  1  0  0  0
 25 28  2  0  0  0
 25 32  1  0  0  0
  5  6  2  0  0  0
  5  7  1  0  0  0
  6  8  1  0  0  0
 26 22  1  0  0  0
 27 28  1  0  0  0
 27 30  1  0  0  0
 28 31  1  0  0  0
 32 33  1  0  0  0
 32 34  2  0  0  0
 10 14  1  0  0  0
 10 11  1  0  0  0
 10 12  2  0  0  0
  7  9  1  0  0  0
 29 30  1  0  0  0
 29 31  1  0  0  0
  8  9  1  0  0  0
  8 22  1  0  0  0
  9 11  1  0  0  0
 14 15  1  0  0  0
 15 16  1  0  0  0
 16 17  1  0  0  0
 17 18  1  0  0  0
 18 19  1  0  0  0
 11 13  1  0  0  0
 19 20  1  0  0  0
 19 21  1  0  0  0
 33 35  1  0  0  0
M  END
> <minimizedAffinity>
-8.33390

$$$$
4CGI_NZL_A_1215


 35 38  0  0  0  0  0  0  0  0999 V2000
   83.5461   37.5037    1.3701 C   0  0  0  0  0  0  0  0  0  0  0  0
   83.5167   36.2272    1.8890 C   0  0  0  0  0  0  0  0  0  0  0  0
   82.4190   38.0675    0.8243 C   0  0  0  0  0  0  0  0  0  0  0  0
   82.3644   35.4860    1.8896 C   0  0  0  0  0  0  0  0  0  0  0  0
   81.2744   37.3239    0.8242 C   0  0  0  0  0  0  0  0  0  0  0  0
   81.2461   36.0636    1.3458 C   0  0  0  0  0  0  0  0  0  0  0  0
   79.9707   37.7409    0.2860 C   0  0  0  0  0  0  0  0  0  0  0  0
   79.9143   35.4710    1.2281 C   0  0  0  0  0  0  0  0  0  0  0  0
   79.3169   36.3806    0.1684 C   0  0  0  0  0  0  0  0  0  0  0  0
   77.1229   36.3751   -0.8553 C   0  0  0  0  0  0  0  0  0  0  0  0
   77.8857   36.4330    0.2867 N   0  0  0  0  0  0  0  0  0  0  0  0
   77.4568   36.7683   -1.9653 O   0  0  0  0  0  0  0  0  0  0  0  0
   77.4588   36.5091    1.1706 H   0  0  0  0  0  0  0  0  0  0  0  0
   75.7971   35.7591   -0.5873 C   0  0  0  0  0  0  0  0  0  0  0  0
   76.0132   34.6610    0.4124 C   0  0  0  0  0  0  0  0  0  0  0  0
   74.7799   33.7982    0.4221 C   0  0  0  0  0  0  0  0  0  0  0  0
   74.9188   32.7626    1.5070 C   0  0  0  0  0  0  0  0  0  0  0  0
   76.3311   32.7931    2.0351 C   0  0  0  0  0  0  0  0  0  0  0  0
   76.5129   31.5647    2.8351 N   0  0  0  0  0  0  0  0  0  0  0  0
   75.8266   31.5456    3.5895 H   0  0  0  0  0  0  0  0  0  0  0  0
   77.4531   31.5525    3.2305 H   0  0  0  0  0  0  0  0  0  0  0  0
   79.9642   34.1087    0.6293 C   0  0  0  0  0  0  0  0  0  0  0  0
   79.7233   33.0199    2.7625 C   0  0  0  0  0  0  0  0  0  0  0  0
   79.9627   32.0798    3.7310 C   0  0  0  0  0  0  0  0  0  0  0  0
   81.2467   31.9604    1.2211 C   0  0  0  0  0  0  0  0  0  0  0  0
   80.3429   32.9718    1.5245 C   0  0  0  0  0  0  0  0  0  0  0  0
   80.8514   31.0918    3.4327 C   0  0  0  0  0  0  0  0  0  0  0  0
   81.4657   31.0373    2.2207 C   0  0  0  0  0  0  0  0  0  0  0  0
   81.9842   29.2961    3.3782 C   0  0  0  0  0  0  0  0  0  0  0  0
   81.2016   30.0855    4.2800 O   0  0  0  0  0  0  0  0  0  0  0  0
   82.3045   29.9600    2.1490 O   0  0  0  0  0  0  0  0  0  0  0  0
   81.9709   31.8058   -0.0713 C   0  0  0  0  0  0  0  0  0  0  0  0
   81.8549   30.7073   -0.6886 O   0  0  0  0  0  0  0  0  0  0  0  0
   82.6630   32.7682   -0.4872 O   0  0  0  0  0  0  0  0  0  0  0  0
   81.3244   30.0227   -0.3310 H   0  0  0  0  0  0  0  0  0  0  0  0
  1  2  1  0  0  0
  1  3  2  0  0  0
  2  4  2  0  0  0
  3  5  1  0  0  0
  4  6  1  0  0  0
 23 24  1  0  0  0
 23 26  2  0  0  0
 24 27  2  0  0  0
 25 26  1  0  0  0
 25 28  2  0  0  0
 25 32  1  0  0  0
  5  6  2  0  0  0
  5  7  1  0  0  0
  6  8  1  0  0  0
 26 22  1  0  0  0
 27 28  1  0  0  0
 27 30  1  0  0  0
 28 31  1  0  0  0
 32 33  1  0  0  0
 32 34  2  0  0  0
 10 14  1  0  0  0
 10 11  1  0  0  0
 10 12  2  0  0  0
  7  9  1  0  0  0
 29 30  1  0  0  0
 29 31  1  0  0  0
  8  9  1  0  0  0
  8 22  1  0  0  0
  9 11  1  0  0  0
 14 15  1  0  0  0
 15 16  1  0  0  0
 16 17  1  0  0  0
 17 18  1  0  0  0
 18 19  1  0  0  0
 11 13  1  0  0  0
 19 20  1  0  0  0
 19 21  1  0  0  0
 33 35  1  0  0  0
M  END
> <minimizedAffinity>
-8.22448

$$$$
4CGI_NZL_A_1215


 35 38  0  0  0  0  0  0  0  0999 V2000
   74.7225   33.1938    1.2044 C   0  0  0  0  0  0  0  0  0  0  0  0
   75.6984   32.4341    1.8127 C   0  0  0  0  0  0  0  0  0  0  0  0
   75.0535   34.1635    0.2899 C   0  0  0  0  0  0  0  0  0  0  0  0
   77.0246   32.6110    1.5175 C   0  0  0  0  0  0  0  0  0  0  0  0
   76.3762   34.3382    0.0016 C   0  0  0  0  0  0  0  0  0  0  0  0
   77.3396   33.5793    0.5992 C   0  0  0  0  0  0  0  0  0  0  0  0
   76.9351   35.3204   -0.9396 C   0  0  0  0  0  0  0  0  0  0  0  0
   78.6742   33.9529    0.1322 C   0  0  0  0  0  0  0  0  0  0  0  0
   78.3705   35.3188   -0.4590 C   0  0  0  0  0  0  0  0  0  0  0  0
   79.8058   36.9289   -1.5588 C   0  0  0  0  0  0  0  0  0  0  0  0
   79.3103   35.6483   -1.4951 N   0  0  0  0  0  0  0  0  0  0  0  0
   79.2284   37.9438   -1.1916 O   0  0  0  0  0  0  0  0  0  0  0  0
   79.5943   34.9685   -2.1481 H   0  0  0  0  0  0  0  0  0  0  0  0
   81.1718   36.9498   -2.1440 C   0  0  0  0  0  0  0  0  0  0  0  0
   82.0609   37.6623   -1.1674 C   0  0  0  0  0  0  0  0  0  0  0  0
   82.6221   36.6349   -0.2214 C   0  0  0  0  0  0  0  0  0  0  0  0
   82.0746   36.8926    1.1579 C   0  0  0  0  0  0  0  0  0  0  0  0
   83.0387   36.3415    2.1782 C   0  0  0  0  0  0  0  0  0  0  0  0
   83.3001   34.9372    1.8018 N   0  0  0  0  0  0  0  0  0  0  0  0
   82.4217   34.4188    1.7917 H   0  0  0  0  0  0  0  0  0  0  0  0
   83.9356   34.5162    2.4795 H   0  0  0  0  0  0  0  0  0  0  0  0
   79.6127   34.1870    1.2640 C   0  0  0  0  0  0  0  0  0  0  0  0
   79.8025   32.8481    3.2553 C   0  0  0  0  0  0  0  0  0  0  0  0
   80.2557   31.8244    4.0464 C   0  0  0  0  0  0  0  0  0  0  0  0
   81.0918   32.0864    1.3641 C   0  0  0  0  0  0  0  0  0  0  0  0
   80.2008   32.9870    1.9359 C   0  0  0  0  0  0  0  0  0  0  0  0
   81.1314   30.9452    3.4849 C   0  0  0  0  0  0  0  0  0  0  0  0
   81.5293   31.0745    2.1911 C   0  0  0  0  0  0  0  0  0  0  0  0
   82.3326   29.2563    3.0213 C   0  0  0  0  0  0  0  0  0  0  0  0
   81.6762   29.8779    4.1309 O   0  0  0  0  0  0  0  0  0  0  0  0
   82.3999   30.0774    1.8484 O   0  0  0  0  0  0  0  0  0  0  0  0
   81.5893   32.1336   -0.0391 C   0  0  0  0  0  0  0  0  0  0  0  0
   81.5614   31.0641   -0.7148 O   0  0  0  0  0  0  0  0  0  0  0  0
   82.0145   33.2283   -0.4856 O   0  0  0  0  0  0  0  0  0  0  0  0
   81.2331   30.2753   -0.3300 H   0  0  0  0  0  0  0  0  0  0  0  0
  1  2  1  0  0  0
  1  3  2  0  0  0
  2  4  2  0  0  0
  3  5  1  0  0  0
  4  6  1  0  0  0
 23 24  1  0  0  0
 23 26  2  0  0  0
 24 27  2  0  0  0
 25 26  1  0  0  0
 25 28  2  0  0  0
 25 32  1  0  0  0
  5  6  2  0  0  0
  5  7  1  0  0  0
  6  8  1  0  0  0
 26 22  1  0  0  0
 27 28  1  0  0  0
 27 30  1  0  0  0
 28 31  1  0  0  0
 32 33  1  0  0  0
 32 34  2  0  0  0
 10 14  1  0  0  0
 10 11  1  0  0  0
 10 12  2  0  0  0
  7  9  1  0  0  0
 29 30  1  0  0  0
 29 31  1  0  0  0
  8  9  1  0  0  0
  8 22  1  0  0  0
  9 11  1  0  0  0
 14 15  1  0  0  0
 15 16  1  0  0  0
 16 17  1  0  0  0
 17 18  1  0  0  0
 18 19  1  0  0  0
 11 13  1  0  0  0
 19 20  1  0  0  0
 19 21  1  0  0  0
 33 35  1  0  0  0
M  END
> <minimizedAffinity>
-8.02220

$$$$
4CGI_NZL_A_1215


 35 38  0  0  0  0  0  0  0  0999 V2000
   83.3126   35.6288   -2.1572 C   0  0  0  0  0  0  0  0  0  0  0  0
   81.9449   35.7766   -2.2419 C   0  0  0  0  0  0  0  0  0  0  0  0
   83.8820   34.9298   -1.1211 C   0  0  0  0  0  0  0  0  0  0  0  0
   81.1105   35.2230   -1.3068 C   0  0  0  0  0  0  0  0  0  0  0  0
   83.0468   34.3831   -0.1903 C   0  0  0  0  0  0  0  0  0  0  0  0
   81.6928   34.5241   -0.2810 C   0  0  0  0  0  0  0  0  0  0  0  0
   83.4552   33.6072    0.9905 C   0  0  0  0  0  0  0  0  0  0  0  0
   81.0148   33.8558    0.8292 C   0  0  0  0  0  0  0  0  0  0  0  0
   82.1776   33.7113    1.7958 C   0  0  0  0  0  0  0  0  0  0  0  0
   81.9951   31.3233    2.1505 C   0  0  0  0  0  0  0  0  0  0  0  0
   81.9756   32.5933    2.6759 N   0  0  0  0  0  0  0  0  0  0  0  0
   81.6768   31.0102    1.0109 O   0  0  0  0  0  0  0  0  0  0  0  0
   81.8257   32.7347    3.6386 H   0  0  0  0  0  0  0  0  0  0  0  0
   82.4631   30.3319    3.1542 C   0  0  0  0  0  0  0  0  0  0  0  0
   81.2947   29.4493    3.4825 C   0  0  0  0  0  0  0  0  0  0  0  0
   81.8119   28.2745    4.2685 C   0  0  0  0  0  0  0  0  0  0  0  0
   82.1287   28.7276    5.6696 C   0  0  0  0  0  0  0  0  0  0  0  0
   83.3477   27.9872    6.1598 C   0  0  0  0  0  0  0  0  0  0  0  0
   82.8608   26.7744    6.8481 N   0  0  0  0  0  0  0  0  0  0  0  0
   82.2463   27.0431    7.6166 H   0  0  0  0  0  0  0  0  0  0  0  0
   83.6549   26.2499    7.2153 H   0  0  0  0  0  0  0  0  0  0  0  0
   80.0271   34.7492    1.4947 C   0  0  0  0  0  0  0  0  0  0  0  0
   77.9752   35.3681    0.3989 C   0  0  0  0  0  0  0  0  0  0  0  0
   76.6431   35.2933    0.0841 C   0  0  0  0  0  0  0  0  0  0  0  0
   77.8365   33.4537    1.8600 C   0  0  0  0  0  0  0  0  0  0  0  0
   78.5755   34.4697    1.2656 C   0  0  0  0  0  0  0  0  0  0  0  0
   75.9202   34.2991    0.6705 C   0  0  0  0  0  0  0  0  0  0  0  0
   76.5006   33.4136    1.5238 C   0  0  0  0  0  0  0  0  0  0  0  0
   74.4522   32.8481    1.1705 C   0  0  0  0  0  0  0  0  0  0  0  0
   74.5909   34.0872    0.4676 O   0  0  0  0  0  0  0  0  0  0  0  0
   75.5848   32.5064    1.9797 O   0  0  0  0  0  0  0  0  0  0  0  0
   78.3712   32.4327    2.8036 C   0  0  0  0  0  0  0  0  0  0  0  0
   78.0248   31.2278    2.6325 O   0  0  0  0  0  0  0  0  0  0  0  0
   79.1368   32.8130    3.7243 O   0  0  0  0  0  0  0  0  0  0  0  0
   77.4504   31.0009    1.9279 H   0  0  0  0  0  0  0  0  0  0  0  0
  1  2  1  0  0  0
  1  3  2  0  0  0
  2  4  2  0  0  0
  3  5  1  0  0  0
  4  6  1  0  0  0
 23 24  1  0  0  0
 23 26  2  0  0  0
 24 27  2  0  0  0
 25 26  1  0  0  0
 25 28  2  0  0  0
 25 32  1  0  0  0
  5  6  2  0  0  0
  5  7  1  0  0  0
  6  8  1  0  0  0
 26 22  1  0  0  0
 27 28  1  0  0  0
 27 30  1  0  0  0
 28 31  1  0  0  0
 32 33  1  0  0  0
 32 34  2  0  0  0
 10 14  1  0  0  0
 10 11  1  0  0  0
 10 12  2  0  0  0
  7  9  1  0  0  0
 29 30  1  0  0  0
 29 31  1  0  0  0
  8  9  1  0  0  0
  8 22  1  0  0  0
  9 11  1  0  0  0
 14 15  1  0  0  0
 15 16  1  0  0  0
 16 17  1  0  0  0
 17 18  1  0  0  0
 18 19  1  0  0  0
 11 13  1  0  0  0
 19 20  1  0  0  0
 19 21  1  0  0  0
 33 35  1  0  0  0
M  END
> <minimizedAffinity>
-8.00261

$$$$
4CGI_NZL_A_1215


 35 38  0  0  0  0  0  0  0  0999 V2000
   74.9040   33.6727    0.8537 C   0  0  0  0  0  0  0  0  0  0  0  0
   75.7535   32.8276    1.5346 C   0  0  0  0  0  0  0  0  0  0  0  0
   75.3933   34.5851   -0.0487 C   0  0  0  0  0  0  0  0  0  0  0  0
   77.1072   32.8602    1.3257 C   0  0  0  0  0  0  0  0  0  0  0  0
   76.7428   34.6160   -0.2509 C   0  0  0  0  0  0  0  0  0  0  0  0
   77.5807   33.7728    0.4186 C   0  0  0  0  0  0  0  0  0  0  0  0
   77.4613   35.5168   -1.1649 C   0  0  0  0  0  0  0  0  0  0  0  0
   78.9745   33.9969    0.0364 C   0  0  0  0  0  0  0  0  0  0  0  0
   78.8545   35.3753   -0.5903 C   0  0  0  0  0  0  0  0  0  0  0  0
   80.5075   36.8116   -1.6231 C   0  0  0  0  0  0  0  0  0  0  0  0
   79.8886   35.5856   -1.5659 N   0  0  0  0  0  0  0  0  0  0  0  0
   80.0066   37.8863   -1.3190 O   0  0  0  0  0  0  0  0  0  0  0  0
   80.1493   34.8639   -2.1827 H   0  0  0  0  0  0  0  0  0  0  0  0
   81.9053   36.6875   -2.1127 C   0  0  0  0  0  0  0  0  0  0  0  0
   81.9991   35.3892   -2.8592 C   0  0  0  0  0  0  0  0  0  0  0  0
   82.4046   35.7005   -4.2749 C   0  0  0  0  0  0  0  0  0  0  0  0
   83.8178   35.2267   -4.4920 C   0  0  0  0  0  0  0  0  0  0  0  0
   84.0982   35.1850   -5.9732 C   0  0  0  0  0  0  0  0  0  0  0  0
   83.3319   34.0465   -6.5195 N   0  0  0  0  0  0  0  0  0  0  0  0
   83.6227   33.1865   -6.0545 H   0  0  0  0  0  0  0  0  0  0  0  0
   83.5078   33.9676   -7.5211 H   0  0  0  0  0  0  0  0  0  0  0  0
   79.8573   34.1539    1.2250 C   0  0  0  0  0  0  0  0  0  0  0  0
   79.8323   32.7634    3.1897 C   0  0  0  0  0  0  0  0  0  0  0  0
   80.1723   31.6993    3.9842 C   0  0  0  0  0  0  0  0  0  0  0  0
   81.2110   31.9732    1.3748 C   0  0  0  0  0  0  0  0  0  0  0  0
   80.3308   32.9089    1.9056 C   0  0  0  0  0  0  0  0  0  0  0  0
   81.0377   30.7857    3.4633 C   0  0  0  0  0  0  0  0  0  0  0  0
   81.5335   30.9209    2.2043 C   0  0  0  0  0  0  0  0  0  0  0  0
   82.1771   29.0435    3.0421 C   0  0  0  0  0  0  0  0  0  0  0  0
   81.4770   29.6761    4.1184 O   0  0  0  0  0  0  0  0  0  0  0  0
   82.3718   29.8851    1.8983 O   0  0  0  0  0  0  0  0  0  0  0  0
   81.8095   32.0235    0.0118 C   0  0  0  0  0  0  0  0  0  0  0  0
   81.6867   31.0043   -0.7280 O   0  0  0  0  0  0  0  0  0  0  0  0
   82.4086   33.0705   -0.3393 O   0  0  0  0  0  0  0  0  0  0  0  0
   81.2288   30.2496   -0.4137 H   0  0  0  0  0  0  0  0  0  0  0  0
  1  2  1  0  0  0
  1  3  2  0  0  0
  2  4  2  0  0  0
  3  5  1  0  0  0
  4  6  1  0  0  0
 23 24  1  0  0  0
 23 26  2  0  0  0
 24 27  2  0  0  0
 25 26  1  0  0  0
 25 28  2  0  0  0
 25 32  1  0  0  0
  5  6  2  0  0  0
  5  7  1  0  0  0
  6  8  1  0  0  0
 26 22  1  0  0  0
 27 28  1  0  0  0
 27 30  1  0  0  0
 28 31  1  0  0  0
 32 33  1  0  0  0
 32 34  2  0  0  0
 10 14  1  0  0  0
 10 11  1  0  0  0
 10 12  2  0  0  0
  7  9  1  0  0  0
 29 30  1  0  0  0
 29 31  1  0  0  0
  8  9  1  0  0  0
  8 22  1  0  0  0
  9 11  1  0  0  0
 14 15  1  0  0  0
 15 16  1  0  0  0
 16 17  1  0  0  0
 17 18  1  0  0  0
 18 19  1  0  0  0
 11 13  1  0  0  0
 19 20  1  0  0  0
 19 21  1  0  0  0
 33 35  1  0  0  0
M  END
> <minimizedAffinity>
-7.92292

$$$$
4CGI_NZL_A_1215


 35 38  0  0  0  0  0  0  0  0999 V2000
   75.6059   35.8190   -0.7428 C   0  0  0  0  0  0  0  0  0  0  0  0
   76.7780   36.2753   -1.3061 C   0  0  0  0  0  0  0  0  0  0  0  0
   75.6278   34.9468    0.3180 C   0  0  0  0  0  0  0  0  0  0  0  0
   77.9989   35.8862   -0.8210 C   0  0  0  0  0  0  0  0  0  0  0  0
   76.8464   34.5597    0.7956 C   0  0  0  0  0  0  0  0  0  0  0  0
   78.0052   35.0193    0.2411 C   0  0  0  0  0  0  0  0  0  0  0  0
   77.0844   33.6345    1.9138 C   0  0  0  0  0  0  0  0  0  0  0  0
   79.1748   34.4628    0.9203 C   0  0  0  0  0  0  0  0  0  0  0  0
   78.5290   33.2842    1.6281 C   0  0  0  0  0  0  0  0  0  0  0  0
   79.6020   31.6138    3.0139 C   0  0  0  0  0  0  0  0  0  0  0  0
   79.2659   32.9310    2.8103 N   0  0  0  0  0  0  0  0  0  0  0  0
   78.9754   30.6406    2.6158 O   0  0  0  0  0  0  0  0  0  0  0  0
   79.5254   33.6206    3.4632 H   0  0  0  0  0  0  0  0  0  0  0  0
   80.8577   31.4932    3.7999 C   0  0  0  0  0  0  0  0  0  0  0  0
   81.7926   30.6250    3.0100 C   0  0  0  0  0  0  0  0  0  0  0  0
   81.9504   29.3247    3.7516 C   0  0  0  0  0  0  0  0  0  0  0  0
   82.0539   29.6146    5.2260 C   0  0  0  0  0  0  0  0  0  0  0  0
   83.2857   28.9377    5.7728 C   0  0  0  0  0  0  0  0  0  0  0  0
   82.8194   27.9141    6.7302 N   0  0  0  0  0  0  0  0  0  0  0  0
   82.2740   28.3612    7.4671 H   0  0  0  0  0  0  0  0  0  0  0  0
   83.6243   27.4418    7.1418 H   0  0  0  0  0  0  0  0  0  0  0  0
   80.1535   33.8867   -0.0425 C   0  0  0  0  0  0  0  0  0  0  0  0
   82.2196   33.9059    1.1923 C   0  0  0  0  0  0  0  0  0  0  0  0
   83.5178   34.2472    1.4701 C   0  0  0  0  0  0  0  0  0  0  0  0
   82.2231   35.1753   -0.8590 C   0  0  0  0  0  0  0  0  0  0  0  0
   81.5725   34.3504    0.0511 C   0  0  0  0  0  0  0  0  0  0  0  0
   84.1521   35.0585    0.5788 C   0  0  0  0  0  0  0  0  0  0  0  0
   83.5245   35.5010   -0.5434 C   0  0  0  0  0  0  0  0  0  0  0  0
   85.5873   36.1213   -0.5707 C   0  0  0  0  0  0  0  0  0  0  0  0
   85.4366   35.4912    0.7056 O   0  0  0  0  0  0  0  0  0  0  0  0
   84.3571   36.2911   -1.2864 O   0  0  0  0  0  0  0  0  0  0  0  0
   81.6322   35.7129   -2.1161 C   0  0  0  0  0  0  0  0  0  0  0  0
   81.7912   35.0453   -3.1792 O   0  0  0  0  0  0  0  0  0  0  0  0
   81.0071   36.8015   -2.0646 O   0  0  0  0  0  0  0  0  0  0  0  0
   82.2672   34.2385   -3.1590 H   0  0  0  0  0  0  0  0  0  0  0  0
  1  2  1  0  0  0
  1  3  2  0  0  0
  2  4  2  0  0  0
  3  5  1  0  0  0
  4  6  1  0  0  0
 23 24  1  0  0  0
 23 26  2  0  0  0
 24 27  2  0  0  0
 25 26  1  0  0  0
 25 28  2  0  0  0
 25 32  1  0  0  0
  5  6  2  0  0  0
  5  7  1  0  0  0
  6  8  1  0  0  0
 26 22  1  0  0  0
 27 28  1  0  0  0
 27 30  1  0  0  0
 28 31  1  0  0  0
 32 33  1  0  0  0
 32 34  2  0  0  0
 10 14  1  0  0  0
 10 11  1  0  0  0
 10 12  2  0  0  0
  7  9  1  0  0  0
 29 30  1  0  0  0
 29 31  1  0  0  0
  8  9  1  0  0  0
  8 22  1  0  0  0
  9 11  1  0  0  0
 14 15  1  0  0  0
 15 16  1  0  0  0
 16 17  1  0  0  0
 17 18  1  0  0  0
 18 19  1  0  0  0
 11 13  1  0  0  0
 19 20  1  0  0  0
 19 21  1  0  0  0
 33 35  1  0  0  0
M  END
> <minimizedAffinity>
-7.72672

$$$$
4CGI_NZL_A_1215


 35 38  0  0  0  0  0  0  0  0999 V2000
   76.6147   31.6948    2.6130 C   0  0  0  0  0  0  0  0  0  0  0  0
   76.0600   32.7928    1.9915 C   0  0  0  0  0  0  0  0  0  0  0  0
   77.9774   31.5358    2.6763 C   0  0  0  0  0  0  0  0  0  0  0  0
   76.8457   33.7646    1.4299 C   0  0  0  0  0  0  0  0  0  0  0  0
   78.7558   32.5050    2.1125 C   0  0  0  0  0  0  0  0  0  0  0  0
   78.2041   33.5949    1.5050 C   0  0  0  0  0  0  0  0  0  0  0  0
   80.2259   32.5193    2.0697 C   0  0  0  0  0  0  0  0  0  0  0  0
   79.2362   34.4866    0.9772 C   0  0  0  0  0  0  0  0  0  0  0  0
   80.4208   33.5358    0.9651 C   0  0  0  0  0  0  0  0  0  0  0  0
   82.7892   33.7314    0.5021 C   0  0  0  0  0  0  0  0  0  0  0  0
   81.6579   34.2583    1.0784 N   0  0  0  0  0  0  0  0  0  0  0  0
   83.0235   32.5423    0.3311 O   0  0  0  0  0  0  0  0  0  0  0  0
   81.6945   35.1159    1.5605 H   0  0  0  0  0  0  0  0  0  0  0  0
   83.7345   34.8027    0.0926 C   0  0  0  0  0  0  0  0  0  0  0  0
   82.9560   35.7908   -0.7257 C   0  0  0  0  0  0  0  0  0  0  0  0
   82.9984   35.3357   -2.1597 C   0  0  0  0  0  0  0  0  0  0  0  0
   81.9866   36.1229   -2.9505 C   0  0  0  0  0  0  0  0  0  0  0  0
   82.4944   36.2967   -4.3599 C   0  0  0  0  0  0  0  0  0  0  0  0
   82.2325   35.0262   -5.0664 N   0  0  0  0  0  0  0  0  0  0  0  0
   82.7084   34.2642   -4.5834 H   0  0  0  0  0  0  0  0  0  0  0  0
   82.5794   35.0915   -6.0233 H   0  0  0  0  0  0  0  0  0  0  0  0
   78.9799   34.8525   -0.4431 C   0  0  0  0  0  0  0  0  0  0  0  0
   79.6824   37.1475   -0.2590 C   0  0  0  0  0  0  0  0  0  0  0  0
   79.5993   38.5066   -0.4163 C   0  0  0  0  0  0  0  0  0  0  0  0
   77.5987   36.7885   -1.4202 C   0  0  0  0  0  0  0  0  0  0  0  0
   78.7103   36.2915   -0.7500 C   0  0  0  0  0  0  0  0  0  0  0  0
   78.5074   38.9916   -1.0703 C   0  0  0  0  0  0  0  0  0  0  0  0
   77.5473   38.1591   -1.5543 C   0  0  0  0  0  0  0  0  0  0  0  0
   77.1256   40.1841   -2.1561 C   0  0  0  0  0  0  0  0  0  0  0  0
   78.2719   40.3110   -1.3083 O   0  0  0  0  0  0  0  0  0  0  0  0
   76.5573   38.8685   -2.1756 O   0  0  0  0  0  0  0  0  0  0  0  0
   76.4938   35.9685   -1.9907 C   0  0  0  0  0  0  0  0  0  0  0  0
   76.4800   35.7798   -3.2418 O   0  0  0  0  0  0  0  0  0  0  0  0
   75.6278   35.5052   -1.2072 O   0  0  0  0  0  0  0  0  0  0  0  0
   77.1527   36.1500   -3.7789 H   0  0  0  0  0  0  0  0  0  0  0  0
  1  2  1  0  0  0
  1  3  2  0  0  0
  2  4  2  0  0  0
  3  5  1  0  0  0
  4  6  1  0  0  0
 23 24  1  0  0  0
 23 26  2  0  0  0
 24 27  2  0  0  0
 25 26  1  0  0  0
 25 28  2  0  0  0
 25 32  1  0  0  0
  5  6  2  0  0  0
  5  7  1  0  0  0
  6  8  1  0  0  0
 26 22  1  0  0  0
 27 28  1  0  0  0
 27 30  1  0  0  0
 28 31  1  0  0  0
 32 33  1  0  0  0
 32 34  2  0  0  0
 10 14  1  0  0  0
 10 11  1  0  0  0
 10 12  2  0  0  0
  7  9  1  0  0  0
 29 30  1  0  0  0
 29 31  1  0  0  0
  8  9  1  0  0  0
  8 22  1  0  0  0
  9 11  1  0  0  0
 14 15  1  0  0  0
 15 16  1  0  0  0
 16 17  1  0  0  0
 17 18  1  0  0  0
 18 19  1  0  0  0
 11 13  1  0  0  0
 19 20  1  0  0  0
 19 21  1  0  0  0
 33 35  1  0  0  0
M  END
> <minimizedAffinity>
-7.49112

$$$$
4CGI_NZL_A_1215


 35 38  0  0  0  0  0  0  0  0999 V2000
   83.4592   35.3974   -1.9405 C   0  0  0  0  0  0  0  0  0  0  0  0
   82.1160   35.4639   -2.2419 C   0  0  0  0  0  0  0  0  0  0  0  0
   83.8867   34.8811   -0.7417 C   0  0  0  0  0  0  0  0  0  0  0  0
   81.1669   35.0077   -1.3653 C   0  0  0  0  0  0  0  0  0  0  0  0
   82.9373   34.4310    0.1295 C   0  0  0  0  0  0  0  0  0  0  0  0
   81.6087   34.4907   -0.1748 C   0  0  0  0  0  0  0  0  0  0  0  0
   83.1861   33.8513    1.4581 C   0  0  0  0  0  0  0  0  0  0  0  0
   80.7913   33.9536    0.9125 C   0  0  0  0  0  0  0  0  0  0  0  0
   81.8001   34.0050    2.0470 C   0  0  0  0  0  0  0  0  0  0  0  0
   81.3480   31.7051    2.6535 C   0  0  0  0  0  0  0  0  0  0  0  0
   81.5001   33.0143    3.0438 N   0  0  0  0  0  0  0  0  0  0  0  0
   80.9512   31.3205    1.5613 O   0  0  0  0  0  0  0  0  0  0  0  0
   81.4051   33.2689    3.9901 H   0  0  0  0  0  0  0  0  0  0  0  0
   81.7325   30.7698    3.7427 C   0  0  0  0  0  0  0  0  0  0  0  0
   82.4095   29.5953    3.0990 C   0  0  0  0  0  0  0  0  0  0  0  0
   83.4747   29.1043    4.0422 C   0  0  0  0  0  0  0  0  0  0  0  0
   82.8516   28.1482    5.0252 C   0  0  0  0  0  0  0  0  0  0  0  0
   83.8628   27.8164    6.0937 C   0  0  0  0  0  0  0  0  0  0  0  0
   83.2602   26.7647    6.9380 N   0  0  0  0  0  0  0  0  0  0  0  0
   82.3864   27.1080    7.3368 H   0  0  0  0  0  0  0  0  0  0  0  0
   83.9048   26.5217    7.6902 H   0  0  0  0  0  0  0  0  0  0  0  0
   79.6905   34.8823    1.2901 C   0  0  0  0  0  0  0  0  0  0  0  0
   78.1139   33.4265    2.3805 C   0  0  0  0  0  0  0  0  0  0  0  0
   76.9163   32.7900    2.5795 C   0  0  0  0  0  0  0  0  0  0  0  0
   77.2741   34.6117    0.4545 C   0  0  0  0  0  0  0  0  0  0  0  0
   78.3029   34.3263    1.3444 C   0  0  0  0  0  0  0  0  0  0  0  0
   75.9107   33.0686    1.7042 C   0  0  0  0  0  0  0  0  0  0  0  0
   76.0875   33.9492    0.6832 C   0  0  0  0  0  0  0  0  0  0  0  0
   74.0320   33.3074    0.7430 C   0  0  0  0  0  0  0  0  0  0  0  0
   74.6648   32.5228    1.7592 O   0  0  0  0  0  0  0  0  0  0  0  0
   74.9436   34.0729   -0.0554 O   0  0  0  0  0  0  0  0  0  0  0  0
   77.3594   35.5583   -0.6924 C   0  0  0  0  0  0  0  0  0  0  0  0
   77.2682   35.0832   -1.8617 O   0  0  0  0  0  0  0  0  0  0  0  0
   77.5196   36.7801   -0.4479 O   0  0  0  0  0  0  0  0  0  0  0  0
   77.1490   34.1621   -1.9851 H   0  0  0  0  0  0  0  0  0  0  0  0
  1  2  1  0  0  0
  1  3  2  0  0  0
  2  4  2  0  0  0
  3  5  1  0  0  0
  4  6  1  0  0  0
 23 24  1  0  0  0
 23 26  2  0  0  0
 24 27  2  0  0  0
 25 26  1  0  0  0
 25 28  2  0  0  0
 25 32  1  0  0  0
  5  6  2  0  0  0
  5  7  1  0  0  0
  6  8  1  0  0  0
 26 22  1  0  0  0
 27 28  1  0  0  0
 27 30  1  0  0  0
 28 31  1  0  0  0
 32 33  1  0  0  0
 32 34  2  0  0  0
 10 14  1  0  0  0
 10 11  1  0  0  0
 10 12  2  0  0  0
  7  9  1  0  0  0
 29 30  1  0  0  0
 29 31  1  0  0  0
  8  9  1  0  0  0
  8 22  1  0  0  0
  9 11  1  0  0  0
 14 15  1  0  0  0
 15 16  1  0  0  0
 16 17  1  0  0  0
 17 18  1  0  0  0
 18 19  1  0  0  0
 11 13  1  0  0  0
 19 20  1  0  0  0
 19 21  1  0  0  0
 33 35  1  0  0  0
M  END
> <minimizedAffinity>
-7.42905

$$$$
