3HVI_619_A_267


 46 50  0  0  0  0  0  0  0  0999 V2000
   -5.3778   12.9876   12.4960 C   0  0  0  0  0  0  0  0  0  0  0  0
   -6.6377   13.0294   12.8471 C   0  0  0  0  0  0  0  0  0  0  0  0
   -7.7553   13.1642   11.8261 C   0  0  0  0  0  0  0  0  0  0  0  0
   -9.1141   12.7576   12.4206 C   0  0  0  0  0  0  0  0  0  0  0  0
  -10.1949   13.3527   11.7642 O   0  0  0  0  0  0  0  0  0  0  0  0
   -9.0486   11.2449   12.1885 C   0  0  0  0  0  0  0  0  0  0  0  0
  -10.2768   10.5505   12.2751 O   0  0  0  0  0  0  0  0  0  0  0  0
   -7.5342   12.2855   10.7118 O   0  0  0  0  0  0  0  0  0  0  0  0
   -8.3911   11.1614   10.8199 C   0  0  0  0  0  0  0  0  0  0  0  0
  -10.1543   13.1424   10.8182 H   0  0  0  0  0  0  0  0  0  0  0  0
  -10.8932   10.8997   11.6125 H   0  0  0  0  0  0  0  0  0  0  0  0
   -7.6172    9.9600   10.5973 N   0  0  0  0  0  0  0  0  0  0  0  0
   -6.9941    9.1939   11.6062 C   0  0  0  0  0  0  0  0  0  0  0  0
   -7.0178    9.5880    9.4117 C   0  0  0  0  0  0  0  0  0  0  0  0
   -7.2474   10.0761    8.1806 N   0  0  0  0  0  0  0  0  0  0  0  0
   -6.5103    9.5491    7.2063 C   0  0  0  0  0  0  0  0  0  0  0  0
   -5.6084    8.5605    7.4057 N   0  0  0  0  0  0  0  0  0  0  0  0
   -5.4173    8.0358    8.6380 C   0  0  0  0  0  0  0  0  0  0  0  0
   -6.1000    8.5597    9.7344 C   0  0  0  0  0  0  0  0  0  0  0  0
   -6.1417    8.3155   11.0927 N   0  0  0  0  0  0  0  0  0  0  0  0
   -4.4948    7.0407    8.6961 N   0  0  0  0  0  0  0  0  0  0  0  0
   -3.5459    7.3022    8.7200 H   0  0  0  0  0  0  0  0  0  0  0  0
   -4.8018    5.6081    8.7259 C   0  0  0  0  0  0  0  0  0  0  0  0
   -3.9202    4.8359    7.7934 C   0  0  0  0  0  0  0  0  0  0  0  0
   -4.2462   12.8503   13.4843 C   0  0  0  0  0  0  0  0  0  0  0  0
   -2.2661   14.1143   14.0165 C   0  0  0  0  0  0  0  0  0  0  0  0
   -1.7320   13.0922   14.4767 O   0  0  0  0  0  0  0  0  0  0  0  0
   -3.4568   14.0789   13.4428 N   0  0  0  0  0  0  0  0  0  0  0  0
   -3.8104   14.8779   12.9892 H   0  0  0  0  0  0  0  0  0  0  0  0
   -1.8402   17.8409   14.1267 C   0  0  0  0  0  0  0  0  0  0  0  0
   -2.3918   16.5733   14.1261 C   0  0  0  0  0  0  0  0  0  0  0  0
   -0.4330   17.9684   14.0805 C   0  0  0  0  0  0  0  0  0  0  0  0
    0.3835   16.8402   13.9905 C   0  0  0  0  0  0  0  0  0  0  0  0
    1.7382   16.9564   13.9602 O   0  0  0  0  0  0  0  0  0  0  0  0
   -0.1803   15.5417   14.0196 C   0  0  0  0  0  0  0  0  0  0  0  0
    0.6910   14.5219   13.9858 O   0  0  0  0  0  0  0  0  0  0  0  0
   -1.5619   15.4366   14.0619 C   0  0  0  0  0  0  0  0  0  0  0  0
    2.1354   17.8048   13.9405 H   0  0  0  0  0  0  0  0  0  0  0  0
    1.6118   14.6932   13.9583 H   0  0  0  0  0  0  0  0  0  0  0  0
   -5.1297   22.3816   14.3613 F   0  0  0  0  0  0  0  0  0  0  0  0
   -4.3165   21.2938   14.2957 C   0  0  0  0  0  0  0  0  0  0  0  0
   -2.9694   21.3953   14.6105 C   0  0  0  0  0  0  0  0  0  0  0  0
   -2.1785   20.2843   14.5227 C   0  0  0  0  0  0  0  0  0  0  0  0
   -4.8997   20.0800   13.9324 C   0  0  0  0  0  0  0  0  0  0  0  0
   -4.0718   18.9647   13.8623 C   0  0  0  0  0  0  0  0  0  0  0  0
   -2.7121   19.0416   14.1867 C   0  0  0  0  0  0  0  0  0  0  0  0
 40 41  1  0  0  0
 41 42  2  0  0  0
 41 44  1  0  0  0
 42 43  1  0  0  0
 43 46  2  0  0  0
 44 45  2  0  0  0
 45 46  1  0  0  0
 46 30  1  0  0  0
 30 31  2  0  0  0
 30 32  1  0  0  0
 31 37  1  0  0  0
 32 33  2  0  0  0
 33 34  1  0  0  0
 33 35  1  0  0  0
 35 36  1  0  0  0
 35 37  2  0  0  0
 37 26  1  0  0  0
 26 27  2  0  0  0
 26 28  1  0  0  0
 28 25  1  0  0  0
 25  1  1  0  0  0
  1  2  2  0  0  0
  2  3  1  0  0  0
  3  4  1  0  0  0
  3  8  1  0  0  0
  4  5  1  0  0  0
  4  6  1  0  0  0
  6  7  1  0  0  0
  6  9  1  0  0  0
  8  9  1  0  0  0
  9 12  1  0  0  0
 12 13  1  0  0  0
 12 14  1  0  0  0
 13 20  2  0  0  0
 14 15  2  0  0  0
 14 19  1  0  0  0
 15 16  1  0  0  0
 16 17  2  0  0  0
 17 18  1  0  0  0
 18 19  2  0  0  0
 18 21  1  0  0  0
 19 20  1  0  0  0
 21 23  1  0  0  0
 23 24  1  0  0  0
 34 38  1  0  0  0
 36 39  1  0  0  0
 28 29  1  0  0  0
  5 10  1  0  0  0
  7 11  1  0  0  0
 21 22  1  0  0  0
M  END
> <minimizedAffinity>
-9.26233

$$$$
3HVI_619_A_267


 46 50  0  0  0  0  0  0  0  0999 V2000
    1.9598   10.8405   15.9326 C   0  0  0  0  0  0  0  0  0  0  0  0
    1.5594    9.6126   15.7223 C   0  0  0  0  0  0  0  0  0  0  0  0
    1.2170    8.6694   16.8638 C   0  0  0  0  0  0  0  0  0  0  0  0
    0.0280    7.7614   16.5075 C   0  0  0  0  0  0  0  0  0  0  0  0
    0.0187    6.5674   17.2337 O   0  0  0  0  0  0  0  0  0  0  0  0
   -1.1253    8.6920   16.8953 C   0  0  0  0  0  0  0  0  0  0  0  0
   -2.3896    8.0798   17.0533 O   0  0  0  0  0  0  0  0  0  0  0  0
    0.8142    9.4067   18.0286 O   0  0  0  0  0  0  0  0  0  0  0  0
   -0.5955    9.3434   18.1631 C   0  0  0  0  0  0  0  0  0  0  0  0
    0.0298    6.7663   18.1830 H   0  0  0  0  0  0  0  0  0  0  0  0
   -2.3384    7.4071   17.7502 H   0  0  0  0  0  0  0  0  0  0  0  0
   -1.1021   10.6752   18.4112 N   0  0  0  0  0  0  0  0  0  0  0  0
   -1.2551   11.6834   17.4348 C   0  0  0  0  0  0  0  0  0  0  0  0
   -1.1317   11.3187   19.6311 C   0  0  0  0  0  0  0  0  0  0  0  0
   -0.9806   10.7806   20.8534 N   0  0  0  0  0  0  0  0  0  0  0  0
   -1.0336   11.6378   21.8697 C   0  0  0  0  0  0  0  0  0  0  0  0
   -1.2602   12.9627   21.7161 N   0  0  0  0  0  0  0  0  0  0  0  0
   -1.4635   13.4926   20.4879 C   0  0  0  0  0  0  0  0  0  0  0  0
   -1.3705   12.6864   19.3547 C   0  0  0  0  0  0  0  0  0  0  0  0
   -1.4810   12.8675   17.9904 N   0  0  0  0  0  0  0  0  0  0  0  0
   -1.6942   14.8310   20.4766 N   0  0  0  0  0  0  0  0  0  0  0  0
   -1.5581   15.3079   19.6261 H   0  0  0  0  0  0  0  0  0  0  0  0
   -2.1300   15.6204   21.6317 C   0  0  0  0  0  0  0  0  0  0  0  0
   -2.3252   17.0612   21.2726 C   0  0  0  0  0  0  0  0  0  0  0  0
    2.3030   11.8020   14.8219 C   0  0  0  0  0  0  0  0  0  0  0  0
    1.1990   13.9027   14.4095 C   0  0  0  0  0  0  0  0  0  0  0  0
    2.2949   14.4863   14.4234 O   0  0  0  0  0  0  0  0  0  0  0  0
    1.1096   12.5880   14.5180 N   0  0  0  0  0  0  0  0  0  0  0  0
    0.2416   12.1402   14.3944 H   0  0  0  0  0  0  0  0  0  0  0  0
   -2.4885   14.5123   14.0759 C   0  0  0  0  0  0  0  0  0  0  0  0
   -1.2619   13.9062   14.2731 C   0  0  0  0  0  0  0  0  0  0  0  0
   -2.5277   15.9079   13.8536 C   0  0  0  0  0  0  0  0  0  0  0  0
   -1.3500   16.6539   13.7890 C   0  0  0  0  0  0  0  0  0  0  0  0
   -1.3825   17.9988   13.5896 O   0  0  0  0  0  0  0  0  0  0  0  0
   -0.0963   16.0378   14.0201 C   0  0  0  0  0  0  0  0  0  0  0  0
    0.9714   16.8500   13.9932 O   0  0  0  0  0  0  0  0  0  0  0  0
   -0.0775   14.6681   14.2332 C   0  0  0  0  0  0  0  0  0  0  0  0
   -2.2000   18.4298   13.4346 H   0  0  0  0  0  0  0  0  0  0  0  0
    0.8583   17.7676   13.8412 H   0  0  0  0  0  0  0  0  0  0  0  0
   -7.2084   11.4793   14.2107 F   0  0  0  0  0  0  0  0  0  0  0  0
   -6.0705   12.2238   14.1972 C   0  0  0  0  0  0  0  0  0  0  0  0
   -5.3554   12.4474   15.3644 C   0  0  0  0  0  0  0  0  0  0  0  0
   -4.2224   13.2100   15.3166 C   0  0  0  0  0  0  0  0  0  0  0  0
   -5.6447   12.7192   12.9648 C   0  0  0  0  0  0  0  0  0  0  0  0
   -4.4824   13.4826   12.9459 C   0  0  0  0  0  0  0  0  0  0  0  0
   -3.7386   13.7112   14.1097 C   0  0  0  0  0  0  0  0  0  0  0  0
 40 41  1  0  0  0
 41 42  2  0  0  0
 41 44  1  0  0  0
 42 43  1  0  0  0
 43 46  2  0  0  0
 44 45  2  0  0  0
 45 46  1  0  0  0
 46 30  1  0  0  0
 30 31  2  0  0  0
 30 32  1  0  0  0
 31 37  1  0  0  0
 32 33  2  0  0  0
 33 34  1  0  0  0
 33 35  1  0  0  0
 35 36  1  0  0  0
 35 37  2  0  0  0
 37 26  1  0  0  0
 26 27  2  0  0  0
 26 28  1  0  0  0
 28 25  1  0  0  0
 25  1  1  0  0  0
  1  2  2  0  0  0
  2  3  1  0  0  0
  3  4  1  0  0  0
  3  8  1  0  0  0
  4  5  1  0  0  0
  4  6  1  0  0  0
  6  7  1  0  0  0
  6  9  1  0  0  0
  8  9  1  0  0  0
  9 12  1  0  0  0
 12 13  1  0  0  0
 12 14  1  0  0  0
 13 20  2  0  0  0
 14 15  2  0  0  0
 14 19  1  0  0  0
 15 16  1  0  0  0
 16 17  2  0  0  0
 17 18  1  0  0  0
 18 19  2  0  0  0
 18 21  1  0  0  0
 19 20  1  0  0  0
 21 23  1  0  0  0
 23 24  1  0  0  0
 34 38  1  0  0  0
 36 39  1  0  0  0
 28 29  1  0  0  0
  5 10  1  0  0  0
  7 11  1  0  0  0
 21 22  1  0  0  0
M  END
> <minimizedAffinity>
-9.20411

$$$$
3HVI_619_A_267


 46 50  0  0  0  0  0  0  0  0999 V2000
   -5.2142   12.4514   13.5066 C   0  0  0  0  0  0  0  0  0  0  0  0
   -5.2724   11.7087   14.5824 C   0  0  0  0  0  0  0  0  0  0  0  0
   -6.2223   10.5278   14.6966 C   0  0  0  0  0  0  0  0  0  0  0  0
   -5.4585    9.1952   14.7737 C   0  0  0  0  0  0  0  0  0  0  0  0
   -6.1888    8.1855   15.4064 O   0  0  0  0  0  0  0  0  0  0  0  0
   -5.2646    8.9285   13.2779 C   0  0  0  0  0  0  0  0  0  0  0  0
   -4.9155    7.6052   12.9241 O   0  0  0  0  0  0  0  0  0  0  0  0
   -7.0596   10.4350   13.5335 O   0  0  0  0  0  0  0  0  0  0  0  0
   -6.5927    9.3893   12.6980 C   0  0  0  0  0  0  0  0  0  0  0  0
   -7.0398    8.0709   14.9553 H   0  0  0  0  0  0  0  0  0  0  0  0
   -5.6112    6.9972   13.2196 H   0  0  0  0  0  0  0  0  0  0  0  0
   -6.5184    9.8750   11.3377 N   0  0  0  0  0  0  0  0  0  0  0  0
   -7.0558   11.0971   10.8787 C   0  0  0  0  0  0  0  0  0  0  0  0
   -6.3016    9.1075   10.2120 C   0  0  0  0  0  0  0  0  0  0  0  0
   -5.8400    7.8468   10.1473 N   0  0  0  0  0  0  0  0  0  0  0  0
   -5.7439    7.3317    8.9243 C   0  0  0  0  0  0  0  0  0  0  0  0
   -6.0480    8.0197    7.7998 N   0  0  0  0  0  0  0  0  0  0  0  0
   -6.4630    9.3057    7.8659 C   0  0  0  0  0  0  0  0  0  0  0  0
   -6.6510    9.9169    9.1044 C   0  0  0  0  0  0  0  0  0  0  0  0
   -7.0743   11.1523    9.5527 N   0  0  0  0  0  0  0  0  0  0  0  0
   -6.7204    9.8832    6.6638 N   0  0  0  0  0  0  0  0  0  0  0  0
   -6.5676   10.8525    6.5838 H   0  0  0  0  0  0  0  0  0  0  0  0
   -7.2077    9.1757    5.4766 C   0  0  0  0  0  0  0  0  0  0  0  0
   -8.7042    9.1367    5.4337 C   0  0  0  0  0  0  0  0  0  0  0  0
   -4.2800   13.6270   13.3607 C   0  0  0  0  0  0  0  0  0  0  0  0
   -2.0754   14.1203   14.1963 C   0  0  0  0  0  0  0  0  0  0  0  0
   -2.3847   15.3166   14.3187 O   0  0  0  0  0  0  0  0  0  0  0  0
   -2.9540   13.2105   13.8108 N   0  0  0  0  0  0  0  0  0  0  0  0
   -2.7153   12.2555   13.8270 H   0  0  0  0  0  0  0  0  0  0  0  0
    0.6291   11.9652   15.6531 C   0  0  0  0  0  0  0  0  0  0  0  0
   -0.6031   12.4595   15.2682 C   0  0  0  0  0  0  0  0  0  0  0  0
    1.7933   12.6653   15.2615 C   0  0  0  0  0  0  0  0  0  0  0  0
    1.7014   13.8560   14.5395 C   0  0  0  0  0  0  0  0  0  0  0  0
    2.8183   14.5260   14.1479 O   0  0  0  0  0  0  0  0  0  0  0  0
    0.4408   14.3461   14.1204 C   0  0  0  0  0  0  0  0  0  0  0  0
    0.4617   15.4665   13.3826 O   0  0  0  0  0  0  0  0  0  0  0  0
   -0.6895   13.6480   14.5165 C   0  0  0  0  0  0  0  0  0  0  0  0
    3.6641   14.2216   14.4123 H   0  0  0  0  0  0  0  0  0  0  0  0
    1.2795   15.8684   13.1640 H   0  0  0  0  0  0  0  0  0  0  0  0
    0.9898    7.2428   18.6635 F   0  0  0  0  0  0  0  0  0  0  0  0
    0.9245    8.3886   17.9341 C   0  0  0  0  0  0  0  0  0  0  0  0
    1.8285    8.6299   16.9101 C   0  0  0  0  0  0  0  0  0  0  0  0
    1.7411    9.7971   16.2048 C   0  0  0  0  0  0  0  0  0  0  0  0
   -0.1006    9.2838   18.2393 C   0  0  0  0  0  0  0  0  0  0  0  0
   -0.1707   10.4579   17.4973 C   0  0  0  0  0  0  0  0  0  0  0  0
    0.7238   10.7168   16.4519 C   0  0  0  0  0  0  0  0  0  0  0  0
 40 41  1  0  0  0
 41 42  2  0  0  0
 41 44  1  0  0  0
 42 43  1  0  0  0
 43 46  2  0  0  0
 44 45  2  0  0  0
 45 46  1  0  0  0
 46 30  1  0  0  0
 30 31  2  0  0  0
 30 32  1  0  0  0
 31 37  1  0  0  0
 32 33  2  0  0  0
 33 34  1  0  0  0
 33 35  1  0  0  0
 35 36  1  0  0  0
 35 37  2  0  0  0
 37 26  1  0  0  0
 26 27  2  0  0  0
 26 28  1  0  0  0
 28 25  1  0  0  0
 25  1  1  0  0  0
  1  2  2  0  0  0
  2  3  1  0  0  0
  3  4  1  0  0  0
  3  8  1  0  0  0
  4  5  1  0  0  0
  4  6  1  0  0  0
  6  7  1  0  0  0
  6  9  1  0  0  0
  8  9  1  0  0  0
  9 12  1  0  0  0
 12 13  1  0  0  0
 12 14  1  0  0  0
 13 20  2  0  0  0
 14 15  2  0  0  0
 14 19  1  0  0  0
 15 16  1  0  0  0
 16 17  2  0  0  0
 17 18  1  0  0  0
 18 19  2  0  0  0
 18 21  1  0  0  0
 19 20  1  0  0  0
 21 23  1  0  0  0
 23 24  1  0  0  0
 34 38  1  0  0  0
 36 39  1  0  0  0
 28 29  1  0  0  0
  5 10  1  0  0  0
  7 11  1  0  0  0
 21 22  1  0  0  0
M  END
> <minimizedAffinity>
-9.05068

$$$$
3HVI_619_A_267


 46 50  0  0  0  0  0  0  0  0999 V2000
   -5.1607   12.1817   13.5645 C   0  0  0  0  0  0  0  0  0  0  0  0
   -4.7527   11.3348   12.6544 C   0  0  0  0  0  0  0  0  0  0  0  0
   -5.5434   10.0853   12.3032 C   0  0  0  0  0  0  0  0  0  0  0  0
   -5.4709    9.7766   10.7984 C   0  0  0  0  0  0  0  0  0  0  0  0
   -5.6853    8.4261   10.5093 O   0  0  0  0  0  0  0  0  0  0  0  0
   -6.6118   10.6701   10.3022 C   0  0  0  0  0  0  0  0  0  0  0  0
   -7.0994   10.3903    9.0052 O   0  0  0  0  0  0  0  0  0  0  0  0
   -6.9367   10.2653   12.6016 O   0  0  0  0  0  0  0  0  0  0  0  0
   -7.6506   10.4981   11.3993 C   0  0  0  0  0  0  0  0  0  0  0  0
   -6.5378    8.1477   10.8789 H   0  0  0  0  0  0  0  0  0  0  0  0
   -7.4352    9.4808    8.9752 H   0  0  0  0  0  0  0  0  0  0  0  0
   -8.5221   11.6372   11.5857 N   0  0  0  0  0  0  0  0  0  0  0  0
   -8.1475   12.9868   11.4093 C   0  0  0  0  0  0  0  0  0  0  0  0
   -9.6829   11.6583   12.3309 C   0  0  0  0  0  0  0  0  0  0  0  0
  -10.3915   10.6113   12.7871 N   0  0  0  0  0  0  0  0  0  0  0  0
  -11.4705   10.9157   13.5038 C   0  0  0  0  0  0  0  0  0  0  0  0
  -11.8729   12.1851   13.7425 N   0  0  0  0  0  0  0  0  0  0  0  0
  -11.1859   13.2357   13.2379 C   0  0  0  0  0  0  0  0  0  0  0  0
  -10.0091   13.0225   12.5221 C   0  0  0  0  0  0  0  0  0  0  0  0
   -9.0602   13.8132   11.9050 N   0  0  0  0  0  0  0  0  0  0  0  0
  -11.7055   14.4536   13.5401 N   0  0  0  0  0  0  0  0  0  0  0  0
  -12.6794   14.5667   13.4500 H   0  0  0  0  0  0  0  0  0  0  0  0
  -10.9295   15.6124   13.9900 C   0  0  0  0  0  0  0  0  0  0  0  0
  -10.4245   15.4286   15.3879 C   0  0  0  0  0  0  0  0  0  0  0  0
   -4.4013   13.4322   13.9328 C   0  0  0  0  0  0  0  0  0  0  0  0
   -2.0972   13.9675   14.3873 C   0  0  0  0  0  0  0  0  0  0  0  0
   -2.3580   15.1787   14.3060 O   0  0  0  0  0  0  0  0  0  0  0  0
   -3.0402   13.0452   14.2963 N   0  0  0  0  0  0  0  0  0  0  0  0
   -2.8259   12.1006   14.4730 H   0  0  0  0  0  0  0  0  0  0  0  0
    0.6890   11.8126   15.6815 C   0  0  0  0  0  0  0  0  0  0  0  0
   -0.5639   12.3053   15.3675 C   0  0  0  0  0  0  0  0  0  0  0  0
    1.8280   12.5183   15.2307 C   0  0  0  0  0  0  0  0  0  0  0  0
    1.6934   13.7127   14.5215 C   0  0  0  0  0  0  0  0  0  0  0  0
    2.7853   14.3882   14.0731 O   0  0  0  0  0  0  0  0  0  0  0  0
    0.4105   14.2013   14.1748 C   0  0  0  0  0  0  0  0  0  0  0  0
    0.3878   15.3258   13.4433 O   0  0  0  0  0  0  0  0  0  0  0  0
   -0.6945   13.4976   14.6284 C   0  0  0  0  0  0  0  0  0  0  0  0
    3.6452   14.0849   14.2890 H   0  0  0  0  0  0  0  0  0  0  0  0
    1.1913   15.7313   13.1826 H   0  0  0  0  0  0  0  0  0  0  0  0
    1.2230    7.0849   18.6577 F   0  0  0  0  0  0  0  0  0  0  0  0
    1.0718    8.2303   17.9404 C   0  0  0  0  0  0  0  0  0  0  0  0
    0.2050    9.2253   18.3675 C   0  0  0  0  0  0  0  0  0  0  0  0
    0.0687   10.3586   17.6162 C   0  0  0  0  0  0  0  0  0  0  0  0
    1.8431    8.3691   16.7866 C   0  0  0  0  0  0  0  0  0  0  0  0
    1.6909    9.5379   16.0486 C   0  0  0  0  0  0  0  0  0  0  0  0
    0.8306   10.5602   16.4669 C   0  0  0  0  0  0  0  0  0  0  0  0
 40 41  1  0  0  0
 41 42  2  0  0  0
 41 44  1  0  0  0
 42 43  1  0  0  0
 43 46  2  0  0  0
 44 45  2  0  0  0
 45 46  1  0  0  0
 46 30  1  0  0  0
 30 31  2  0  0  0
 30 32  1  0  0  0
 31 37  1  0  0  0
 32 33  2  0  0  0
 33 34  1  0  0  0
 33 35  1  0  0  0
 35 36  1  0  0  0
 35 37  2  0  0  0
 37 26  1  0  0  0
 26 27  2  0  0  0
 26 28  1  0  0  0
 28 25  1  0  0  0
 25  1  1  0  0  0
  1  2  2  0  0  0
  2  3  1  0  0  0
  3  4  1  0  0  0
  3  8  1  0  0  0
  4  5  1  0  0  0
  4  6  1  0  0  0
  6  7  1  0  0  0
  6  9  1  0  0  0
  8  9  1  0  0  0
  9 12  1  0  0  0
 12 13  1  0  0  0
 12 14  1  0  0  0
 13 20  2  0  0  0
 14 15  2  0  0  0
 14 19  1  0  0  0
 15 16  1  0  0  0
 16 17  2  0  0  0
 17 18  1  0  0  0
 18 19  2  0  0  0
 18 21  1  0  0  0
 19 20  1  0  0  0
 21 23  1  0  0  0
 23 24  1  0  0  0
 34 38  1  0  0  0
 36 39  1  0  0  0
 28 29  1  0  0  0
  5 10  1  0  0  0
  7 11  1  0  0  0
 21 22  1  0  0  0
M  END
> <minimizedAffinity>
-8.95494

$$$$
3HVI_619_A_267


 46 50  0  0  0  0  0  0  0  0999 V2000
   -4.9251   12.3476   12.8737 C   0  0  0  0  0  0  0  0  0  0  0  0
   -6.1004   12.4073   12.3015 C   0  0  0  0  0  0  0  0  0  0  0  0
   -6.5145   11.4377   11.2069 C   0  0  0  0  0  0  0  0  0  0  0  0
   -8.0104   11.0921   11.2962 C   0  0  0  0  0  0  0  0  0  0  0  0
   -8.5481   10.6831   10.0728 O   0  0  0  0  0  0  0  0  0  0  0  0
   -7.9457    9.9526   12.3178 C   0  0  0  0  0  0  0  0  0  0  0  0
   -9.0885    9.1244   12.3962 O   0  0  0  0  0  0  0  0  0  0  0  0
   -5.8137   10.1912   11.3406 O   0  0  0  0  0  0  0  0  0  0  0  0
   -6.6828    9.2183   11.8955 C   0  0  0  0  0  0  0  0  0  0  0  0
   -8.0392    9.9314    9.7310 H   0  0  0  0  0  0  0  0  0  0  0  0
   -9.2451    8.7071   11.5346 H   0  0  0  0  0  0  0  0  0  0  0  0
   -5.9963    8.5364   12.9704 N   0  0  0  0  0  0  0  0  0  0  0  0
   -5.6552    9.1119   14.2136 C   0  0  0  0  0  0  0  0  0  0  0  0
   -5.2158    7.4055   12.8472 C   0  0  0  0  0  0  0  0  0  0  0  0
   -5.1555    6.5515   11.8111 N   0  0  0  0  0  0  0  0  0  0  0  0
   -4.2960    5.5447   11.9449 C   0  0  0  0  0  0  0  0  0  0  0  0
   -3.5464    5.3471   13.0537 N   0  0  0  0  0  0  0  0  0  0  0  0
   -3.6479    6.1795   14.1154 C   0  0  0  0  0  0  0  0  0  0  0  0
   -4.4783    7.2971   14.0507 C   0  0  0  0  0  0  0  0  0  0  0  0
   -4.8053    8.3461   14.8867 N   0  0  0  0  0  0  0  0  0  0  0  0
   -2.8513    5.8592   15.1679 N   0  0  0  0  0  0  0  0  0  0  0  0
   -3.2904    5.6699   16.0284 H   0  0  0  0  0  0  0  0  0  0  0  0
   -1.3892    5.7734   15.1221 C   0  0  0  0  0  0  0  0  0  0  0  0
   -0.7550    7.1282   15.1948 C   0  0  0  0  0  0  0  0  0  0  0  0
   -4.4858   13.2922   13.9650 C   0  0  0  0  0  0  0  0  0  0  0  0
   -2.1962   13.8980   14.4037 C   0  0  0  0  0  0  0  0  0  0  0  0
   -2.4885   15.0997   14.2935 O   0  0  0  0  0  0  0  0  0  0  0  0
   -3.1150   12.9495   14.3361 N   0  0  0  0  0  0  0  0  0  0  0  0
   -2.8761   12.0154   14.5352 H   0  0  0  0  0  0  0  0  0  0  0  0
    0.6459   11.8502   15.7491 C   0  0  0  0  0  0  0  0  0  0  0  0
   -0.6195   12.3022   15.4246 C   0  0  0  0  0  0  0  0  0  0  0  0
    1.7659   12.5725   15.2773 C   0  0  0  0  0  0  0  0  0  0  0  0
    1.5999   13.7437   14.5368 C   0  0  0  0  0  0  0  0  0  0  0  0
    2.6735   14.4346   14.0683 O   0  0  0  0  0  0  0  0  0  0  0  0
    0.3044   14.1899   14.1798 C   0  0  0  0  0  0  0  0  0  0  0  0
    0.2520   15.2935   13.4187 O   0  0  0  0  0  0  0  0  0  0  0  0
   -0.7817   13.4706   14.6543 C   0  0  0  0  0  0  0  0  0  0  0  0
    3.5412   14.1592   14.2904 H   0  0  0  0  0  0  0  0  0  0  0  0
    1.0444   15.7123   13.1455 H   0  0  0  0  0  0  0  0  0  0  0  0
    1.3029    7.2184   18.8489 F   0  0  0  0  0  0  0  0  0  0  0  0
    1.1217    8.3375   18.0979 C   0  0  0  0  0  0  0  0  0  0  0  0
    0.0684    9.2022   18.3562 C   0  0  0  0  0  0  0  0  0  0  0  0
   -0.0907   10.3116   17.5744 C   0  0  0  0  0  0  0  0  0  0  0  0
    2.0516    8.5883   17.0890 C   0  0  0  0  0  0  0  0  0  0  0  0
    1.8698    9.7307   16.3170 C   0  0  0  0  0  0  0  0  0  0  0  0
    0.8207   10.6232   16.5673 C   0  0  0  0  0  0  0  0  0  0  0  0
 40 41  1  0  0  0
 41 42  2  0  0  0
 41 44  1  0  0  0
 42 43  1  0  0  0
 43 46  2  0  0  0
 44 45  2  0  0  0
 45 46  1  0  0  0
 46 30  1  0  0  0
 30 31  2  0  0  0
 30 32  1  0  0  0
 31 37  1  0  0  0
 32 33  2  0  0  0
 33 34  1  0  0  0
 33 35  1  0  0  0
 35 36  1  0  0  0
 35 37  2  0  0  0
 37 26  1  0  0  0
 26 27  2  0  0  0
 26 28  1  0  0  0
 28 25  1  0  0  0
 25  1  1  0  0  0
  1  2  2  0  0  0
  2  3  1  0  0  0
  3  4  1  0  0  0
  3  8  1  0  0  0
  4  5  1  0  0  0
  4  6  1  0  0  0
  6  7  1  0  0  0
  6  9  1  0  0  0
  8  9  1  0  0  0
  9 12  1  0  0  0
 12 13  1  0  0  0
 12 14  1  0  0  0
 13 20  2  0  0  0
 14 15  2  0  0  0
 14 19  1  0  0  0
 15 16  1  0  0  0
 16 17  2  0  0  0
 17 18  1  0  0  0
 18 19  2  0  0  0
 18 21  1  0  0  0
 19 20  1  0  0  0
 21 23  1  0  0  0
 23 24  1  0  0  0
 34 38  1  0  0  0
 36 39  1  0  0  0
 28 29  1  0  0  0
  5 10  1  0  0  0
  7 11  1  0  0  0
 21 22  1  0  0  0
M  END
> <minimizedAffinity>
-8.80691

$$$$
3HVI_619_A_267


 46 50  0  0  0  0  0  0  0  0999 V2000
   -5.7517   12.7991   14.4207 C   0  0  0  0  0  0  0  0  0  0  0  0
   -6.9420   12.5642   13.9307 C   0  0  0  0  0  0  0  0  0  0  0  0
   -7.3972   13.1475   12.6032 C   0  0  0  0  0  0  0  0  0  0  0  0
   -8.8654   12.7979   12.3076 C   0  0  0  0  0  0  0  0  0  0  0  0
   -9.4779   13.7090   11.4427 O   0  0  0  0  0  0  0  0  0  0  0  0
   -8.6727   11.4202   11.6665 C   0  0  0  0  0  0  0  0  0  0  0  0
   -9.7693   10.9218   10.9266 O   0  0  0  0  0  0  0  0  0  0  0  0
   -6.6350   12.5960   11.5180 O   0  0  0  0  0  0  0  0  0  0  0  0
   -7.4157   11.6288   10.8365 C   0  0  0  0  0  0  0  0  0  0  0  0
   -8.9648   13.7706   10.6218 H   0  0  0  0  0  0  0  0  0  0  0  0
   -9.9738   11.5320   10.2008 H   0  0  0  0  0  0  0  0  0  0  0  0
   -6.6194   10.4372   10.6422 N   0  0  0  0  0  0  0  0  0  0  0  0
   -5.3716   10.1831   11.2519 C   0  0  0  0  0  0  0  0  0  0  0  0
   -6.7058    9.5677    9.5747 C   0  0  0  0  0  0  0  0  0  0  0  0
   -7.6938    9.4663    8.6690 N   0  0  0  0  0  0  0  0  0  0  0  0
   -7.5144    8.5483    7.7228 C   0  0  0  0  0  0  0  0  0  0  0  0
   -6.4372    7.7314    7.6714 N   0  0  0  0  0  0  0  0  0  0  0  0
   -5.4697    7.8013    8.6146 C   0  0  0  0  0  0  0  0  0  0  0  0
   -5.5374    8.7694    9.6151 C   0  0  0  0  0  0  0  0  0  0  0  0
   -4.7563    9.1512   10.6877 N   0  0  0  0  0  0  0  0  0  0  0  0
   -4.4526    6.9157    8.4533 N   0  0  0  0  0  0  0  0  0  0  0  0
   -3.5364    7.2754    8.4339 H   0  0  0  0  0  0  0  0  0  0  0  0
   -4.6130    5.4666    8.3060 C   0  0  0  0  0  0  0  0  0  0  0  0
   -5.1248    4.8378    9.5653 C   0  0  0  0  0  0  0  0  0  0  0  0
   -5.2688   12.2321   15.7327 C   0  0  0  0  0  0  0  0  0  0  0  0
   -2.9875   13.0000   15.8231 C   0  0  0  0  0  0  0  0  0  0  0  0
   -3.3718   14.1067   16.2346 O   0  0  0  0  0  0  0  0  0  0  0  0
   -3.8303   12.0008   15.6243 N   0  0  0  0  0  0  0  0  0  0  0  0
   -3.4896   11.1038   15.4039 H   0  0  0  0  0  0  0  0  0  0  0  0
    0.3482   11.2971   16.0564 C   0  0  0  0  0  0  0  0  0  0  0  0
   -0.9934   11.6002   16.1955 C   0  0  0  0  0  0  0  0  0  0  0  0
    1.1546   12.1393   15.2569 C   0  0  0  0  0  0  0  0  0  0  0  0
    0.6195   13.2794   14.6558 C   0  0  0  0  0  0  0  0  0  0  0  0
    1.3872   14.0852   13.8741 O   0  0  0  0  0  0  0  0  0  0  0  0
   -0.7605   13.5732   14.7743 C   0  0  0  0  0  0  0  0  0  0  0  0
   -1.1891   14.6591   14.1130 O   0  0  0  0  0  0  0  0  0  0  0  0
   -1.5346   12.7379   15.5648 C   0  0  0  0  0  0  0  0  0  0  0  0
    2.3031   13.9116   13.7796 H   0  0  0  0  0  0  0  0  0  0  0  0
   -0.5878   15.1636   13.6013 H   0  0  0  0  0  0  0  0  0  0  0  0
    2.5260    6.7901   18.5937 F   0  0  0  0  0  0  0  0  0  0  0  0
    1.9808    7.8812   17.9925 C   0  0  0  0  0  0  0  0  0  0  0  0
    1.3418    8.8584   18.7412 C   0  0  0  0  0  0  0  0  0  0  0  0
    0.7949    9.9361   18.1033 C   0  0  0  0  0  0  0  0  0  0  0  0
    2.1203    7.9857   16.6086 C   0  0  0  0  0  0  0  0  0  0  0  0
    1.5630    9.0989   15.9887 C   0  0  0  0  0  0  0  0  0  0  0  0
    0.9239   10.1030   16.7258 C   0  0  0  0  0  0  0  0  0  0  0  0
 40 41  1  0  0  0
 41 42  2  0  0  0
 41 44  1  0  0  0
 42 43  1  0  0  0
 43 46  2  0  0  0
 44 45  2  0  0  0
 45 46  1  0  0  0
 46 30  1  0  0  0
 30 31  2  0  0  0
 30 32  1  0  0  0
 31 37  1  0  0  0
 32 33  2  0  0  0
 33 34  1  0  0  0
 33 35  1  0  0  0
 35 36  1  0  0  0
 35 37  2  0  0  0
 37 26  1  0  0  0
 26 27  2  0  0  0
 26 28  1  0  0  0
 28 25  1  0  0  0
 25  1  1  0  0  0
  1  2  2  0  0  0
  2  3  1  0  0  0
  3  4  1  0  0  0
  3  8  1  0  0  0
  4  5  1  0  0  0
  4  6  1  0  0  0
  6  7  1  0  0  0
  6  9  1  0  0  0
  8  9  1  0  0  0
  9 12  1  0  0  0
 12 13  1  0  0  0
 12 14  1  0  0  0
 13 20  2  0  0  0
 14 15  2  0  0  0
 14 19  1  0  0  0
 15 16  1  0  0  0
 16 17  2  0  0  0
 17 18  1  0  0  0
 18 19  2  0  0  0
 18 21  1  0  0  0
 19 20  1  0  0  0
 21 23  1  0  0  0
 23 24  1  0  0  0
 34 38  1  0  0  0
 36 39  1  0  0  0
 28 29  1  0  0  0
  5 10  1  0  0  0
  7 11  1  0  0  0
 21 22  1  0  0  0
M  END
> <minimizedAffinity>
-8.68429

$$$$
3HVI_619_A_267


 46 50  0  0  0  0  0  0  0  0999 V2000
   -5.6577   19.5261   18.4481 C   0  0  0  0  0  0  0  0  0  0  0  0
   -4.8564   19.4529   17.4162 C   0  0  0  0  0  0  0  0  0  0  0  0
   -4.4876   20.6763   16.5933 C   0  0  0  0  0  0  0  0  0  0  0  0
   -5.5580   20.9865   15.5335 C   0  0  0  0  0  0  0  0  0  0  0  0
   -5.5665   22.3292   15.1459 O   0  0  0  0  0  0  0  0  0  0  0  0
   -5.0813   20.0565   14.4136 C   0  0  0  0  0  0  0  0  0  0  0  0
   -5.6008   20.3200   13.1255 O   0  0  0  0  0  0  0  0  0  0  0  0
   -3.2686   20.4518   15.8678 O   0  0  0  0  0  0  0  0  0  0  0  0
   -3.5699   20.1957   14.5065 C   0  0  0  0  0  0  0  0  0  0  0  0
   -4.6843   22.5803   14.8304 H   0  0  0  0  0  0  0  0  0  0  0  0
   -5.3543   21.2182   12.8550 H   0  0  0  0  0  0  0  0  0  0  0  0
   -2.8313   19.0293   14.0753 N   0  0  0  0  0  0  0  0  0  0  0  0
   -3.3886   17.7540   13.8386 C   0  0  0  0  0  0  0  0  0  0  0  0
   -1.4728   18.8320   14.2117 C   0  0  0  0  0  0  0  0  0  0  0  0
   -0.5285   19.7469   14.4907 N   0  0  0  0  0  0  0  0  0  0  0  0
    0.7139   19.2802   14.5863 C   0  0  0  0  0  0  0  0  0  0  0  0
    1.0403   17.9829   14.3847 N   0  0  0  0  0  0  0  0  0  0  0  0
    0.0941   17.0744   14.0530 C   0  0  0  0  0  0  0  0  0  0  0  0
   -1.2454   17.4533   13.9848 C   0  0  0  0  0  0  0  0  0  0  0  0
   -2.4465   16.8268   13.7179 N   0  0  0  0  0  0  0  0  0  0  0  0
    0.5585   15.8120   13.8648 N   0  0  0  0  0  0  0  0  0  0  0  0
    1.3804   15.7051   13.3335 H   0  0  0  0  0  0  0  0  0  0  0  0
   -0.0687   14.5966   14.3909 C   0  0  0  0  0  0  0  0  0  0  0  0
    0.8907   13.4468   14.4138 C   0  0  0  0  0  0  0  0  0  0  0  0
   -6.0396   18.3318   19.2871 C   0  0  0  0  0  0  0  0  0  0  0  0
   -4.3494   17.0384   20.4150 C   0  0  0  0  0  0  0  0  0  0  0  0
   -4.8216   17.3715   21.5140 O   0  0  0  0  0  0  0  0  0  0  0  0
   -4.9197   17.3937   19.2763 N   0  0  0  0  0  0  0  0  0  0  0  0
   -4.5906   17.0273   18.4238 H   0  0  0  0  0  0  0  0  0  0  0  0
   -2.1644   14.1519   19.4277 C   0  0  0  0  0  0  0  0  0  0  0  0
   -3.2274   15.0294   19.5320 C   0  0  0  0  0  0  0  0  0  0  0  0
   -0.9702   14.4471   20.1244 C   0  0  0  0  0  0  0  0  0  0  0  0
   -0.8789   15.5775   20.9376 C   0  0  0  0  0  0  0  0  0  0  0  0
    0.2721   15.8740   21.5987 O   0  0  0  0  0  0  0  0  0  0  0  0
   -1.9573   16.4912   21.0208 C   0  0  0  0  0  0  0  0  0  0  0  0
   -1.7511   17.5758   21.7832 O   0  0  0  0  0  0  0  0  0  0  0  0
   -3.1212   16.1833   20.3334 C   0  0  0  0  0  0  0  0  0  0  0  0
    1.0000   15.2853   21.5591 H   0  0  0  0  0  0  0  0  0  0  0  0
   -0.9263   17.6981   22.2107 H   0  0  0  0  0  0  0  0  0  0  0  0
   -2.5792    9.5420   16.2542 F   0  0  0  0  0  0  0  0  0  0  0  0
   -2.4568   10.6555   17.0251 C   0  0  0  0  0  0  0  0  0  0  0  0
   -1.3742   11.5089   16.8718 C   0  0  0  0  0  0  0  0  0  0  0  0
   -1.2768   12.6129   17.6712 C   0  0  0  0  0  0  0  0  0  0  0  0
   -3.4746   10.9127   17.9435 C   0  0  0  0  0  0  0  0  0  0  0  0
   -3.3533   12.0494   18.7355 C   0  0  0  0  0  0  0  0  0  0  0  0
   -2.2753   12.9307   18.5899 C   0  0  0  0  0  0  0  0  0  0  0  0
 40 41  1  0  0  0
 41 42  2  0  0  0
 41 44  1  0  0  0
 42 43  1  0  0  0
 43 46  2  0  0  0
 44 45  2  0  0  0
 45 46  1  0  0  0
 46 30  1  0  0  0
 30 31  2  0  0  0
 30 32  1  0  0  0
 31 37  1  0  0  0
 32 33  2  0  0  0
 33 34  1  0  0  0
 33 35  1  0  0  0
 35 36  1  0  0  0
 35 37  2  0  0  0
 37 26  1  0  0  0
 26 27  2  0  0  0
 26 28  1  0  0  0
 28 25  1  0  0  0
 25  1  1  0  0  0
  1  2  2  0  0  0
  2  3  1  0  0  0
  3  4  1  0  0  0
  3  8  1  0  0  0
  4  5  1  0  0  0
  4  6  1  0  0  0
  6  7  1  0  0  0
  6  9  1  0  0  0
  8  9  1  0  0  0
  9 12  1  0  0  0
 12 13  1  0  0  0
 12 14  1  0  0  0
 13 20  2  0  0  0
 14 15  2  0  0  0
 14 19  1  0  0  0
 15 16  1  0  0  0
 16 17  2  0  0  0
 17 18  1  0  0  0
 18 19  2  0  0  0
 18 21  1  0  0  0
 19 20  1  0  0  0
 21 23  1  0  0  0
 23 24  1  0  0  0
 34 38  1  0  0  0
 36 39  1  0  0  0
 28 29  1  0  0  0
  5 10  1  0  0  0
  7 11  1  0  0  0
 21 22  1  0  0  0
M  END
> <minimizedAffinity>
-8.61217

$$$$
3HVI_619_A_267


 46 50  0  0  0  0  0  0  0  0999 V2000
   -2.9631   15.3447   13.4916 C   0  0  0  0  0  0  0  0  0  0  0  0
   -2.7421   14.2494   14.1726 C   0  0  0  0  0  0  0  0  0  0  0  0
   -3.4705   12.9505   13.8693 C   0  0  0  0  0  0  0  0  0  0  0  0
   -4.8716   12.9286   14.5029 C   0  0  0  0  0  0  0  0  0  0  0  0
   -5.7543   12.0703   13.8414 O   0  0  0  0  0  0  0  0  0  0  0  0
   -4.5073   12.4281   15.9039 C   0  0  0  0  0  0  0  0  0  0  0  0
   -5.5772   11.9297   16.6820 O   0  0  0  0  0  0  0  0  0  0  0  0
   -2.7673   11.8308   14.4301 O   0  0  0  0  0  0  0  0  0  0  0  0
   -3.4332   11.3947   15.6031 C   0  0  0  0  0  0  0  0  0  0  0  0
   -5.3749   11.1781   13.8098 H   0  0  0  0  0  0  0  0  0  0  0  0
   -5.9875   11.1792   16.2245 H   0  0  0  0  0  0  0  0  0  0  0  0
   -2.4580   11.2174   16.6563 N   0  0  0  0  0  0  0  0  0  0  0  0
   -1.6701   12.2454   17.2183 C   0  0  0  0  0  0  0  0  0  0  0  0
   -1.8402   10.0329   17.0003 C   0  0  0  0  0  0  0  0  0  0  0  0
   -2.1975    8.7838   16.6557 N   0  0  0  0  0  0  0  0  0  0  0  0
   -1.4087    7.8138   17.1108 C   0  0  0  0  0  0  0  0  0  0  0  0
   -0.3330    8.0367   17.9005 N   0  0  0  0  0  0  0  0  0  0  0  0
   -0.0066    9.2913   18.2878 C   0  0  0  0  0  0  0  0  0  0  0  0
   -0.7373   10.3807   17.8168 C   0  0  0  0  0  0  0  0  0  0  0  0
   -0.6874   11.7529   17.9622 N   0  0  0  0  0  0  0  0  0  0  0  0
    1.0858    9.3730   19.0907 N   0  0  0  0  0  0  0  0  0  0  0  0
    1.0274    9.9608   19.8783 H   0  0  0  0  0  0  0  0  0  0  0  0
    2.3447    8.6543   18.8759 C   0  0  0  0  0  0  0  0  0  0  0  0
    3.1569    8.5775   20.1318 C   0  0  0  0  0  0  0  0  0  0  0  0
   -2.2540   16.6479   13.7652 C   0  0  0  0  0  0  0  0  0  0  0  0
   -2.9200   18.9010   14.2963 C   0  0  0  0  0  0  0  0  0  0  0  0
   -1.7352   19.2060   14.5079 O   0  0  0  0  0  0  0  0  0  0  0  0
   -3.2618   17.7016   13.8571 N   0  0  0  0  0  0  0  0  0  0  0  0
   -4.1925   17.5191   13.5929 H   0  0  0  0  0  0  0  0  0  0  0  0
   -5.7194   21.2389   13.4138 C   0  0  0  0  0  0  0  0  0  0  0  0
   -4.7178   20.2891   13.3392 C   0  0  0  0  0  0  0  0  0  0  0  0
   -6.0366   21.7927   14.6753 C   0  0  0  0  0  0  0  0  0  0  0  0
   -5.3240   21.4230   15.8169 C   0  0  0  0  0  0  0  0  0  0  0  0
   -5.6342   21.9418   17.0351 O   0  0  0  0  0  0  0  0  0  0  0  0
   -4.3183   20.4289   15.7449 C   0  0  0  0  0  0  0  0  0  0  0  0
   -3.7309   20.1021   16.9061 O   0  0  0  0  0  0  0  0  0  0  0  0
   -4.0190   19.8997   14.4990 C   0  0  0  0  0  0  0  0  0  0  0  0
   -6.2962   22.6008   17.1089 H   0  0  0  0  0  0  0  0  0  0  0  0
   -4.0026   20.5163   17.7015 H   0  0  0  0  0  0  0  0  0  0  0  0
   -8.4938   22.8290    8.8020 F   0  0  0  0  0  0  0  0  0  0  0  0
   -7.8049   22.4573    9.9140 C   0  0  0  0  0  0  0  0  0  0  0  0
   -7.1021   23.3930   10.6587 C   0  0  0  0  0  0  0  0  0  0  0  0
   -6.4113   22.9829   11.7641 C   0  0  0  0  0  0  0  0  0  0  0  0
   -7.8636   21.1137   10.2836 C   0  0  0  0  0  0  0  0  0  0  0  0
   -7.1594   20.7282   11.4192 C   0  0  0  0  0  0  0  0  0  0  0  0
   -6.4530   21.6574   12.1923 C   0  0  0  0  0  0  0  0  0  0  0  0
 40 41  1  0  0  0
 41 42  2  0  0  0
 41 44  1  0  0  0
 42 43  1  0  0  0
 43 46  2  0  0  0
 44 45  2  0  0  0
 45 46  1  0  0  0
 46 30  1  0  0  0
 30 31  2  0  0  0
 30 32  1  0  0  0
 31 37  1  0  0  0
 32 33  2  0  0  0
 33 34  1  0  0  0
 33 35  1  0  0  0
 35 36  1  0  0  0
 35 37  2  0  0  0
 37 26  1  0  0  0
 26 27  2  0  0  0
 26 28  1  0  0  0
 28 25  1  0  0  0
 25  1  1  0  0  0
  1  2  2  0  0  0
  2  3  1  0  0  0
  3  4  1  0  0  0
  3  8  1  0  0  0
  4  5  1  0  0  0
  4  6  1  0  0  0
  6  7  1  0  0  0
  6  9  1  0  0  0
  8  9  1  0  0  0
  9 12  1  0  0  0
 12 13  1  0  0  0
 12 14  1  0  0  0
 13 20  2  0  0  0
 14 15  2  0  0  0
 14 19  1  0  0  0
 15 16  1  0  0  0
 16 17  2  0  0  0
 17 18  1  0  0  0
 18 19  2  0  0  0
 18 21  1  0  0  0
 19 20  1  0  0  0
 21 23  1  0  0  0
 23 24  1  0  0  0
 34 38  1  0  0  0
 36 39  1  0  0  0
 28 29  1  0  0  0
  5 10  1  0  0  0
  7 11  1  0  0  0
 21 22  1  0  0  0
M  END
> <minimizedAffinity>
-8.21066

$$$$
3HVI_619_A_267


 46 50  0  0  0  0  0  0  0  0999 V2000
   -2.5353   18.2282   13.7000 C   0  0  0  0  0  0  0  0  0  0  0  0
   -3.6055   18.5468   14.3823 C   0  0  0  0  0  0  0  0  0  0  0  0
   -4.2849   19.8980   14.2323 C   0  0  0  0  0  0  0  0  0  0  0  0
   -3.3260   21.0518   14.5706 C   0  0  0  0  0  0  0  0  0  0  0  0
   -3.6818   22.2537   13.9524 O   0  0  0  0  0  0  0  0  0  0  0  0
   -3.5121   21.0973   16.0903 C   0  0  0  0  0  0  0  0  0  0  0  0
   -3.0665   22.2740   16.7346 O   0  0  0  0  0  0  0  0  0  0  0  0
   -5.3844   20.0183   15.1485 O   0  0  0  0  0  0  0  0  0  0  0  0
   -5.0045   20.8449   16.2356 C   0  0  0  0  0  0  0  0  0  0  0  0
   -4.5944   22.4814   14.1894 H   0  0  0  0  0  0  0  0  0  0  0  0
   -3.5469   23.0385   16.3800 H   0  0  0  0  0  0  0  0  0  0  0  0
   -5.3871   20.1980   17.4713 N   0  0  0  0  0  0  0  0  0  0  0  0
   -4.7474   19.0718   18.0330 C   0  0  0  0  0  0  0  0  0  0  0  0
   -6.6213   20.2791   18.0823 C   0  0  0  0  0  0  0  0  0  0  0  0
   -7.6049   21.1637   17.8443 N   0  0  0  0  0  0  0  0  0  0  0  0
   -8.7100   21.0033   18.5679 C   0  0  0  0  0  0  0  0  0  0  0  0
   -8.8492   20.0459   19.5135 N   0  0  0  0  0  0  0  0  0  0  0  0
   -7.8376   19.1899   19.7863 C   0  0  0  0  0  0  0  0  0  0  0  0
   -6.6599   19.2398   19.0426 C   0  0  0  0  0  0  0  0  0  0  0  0
   -5.4699   18.5402   19.0114 N   0  0  0  0  0  0  0  0  0  0  0  0
   -8.1037   18.2885   20.7668 N   0  0  0  0  0  0  0  0  0  0  0  0
   -8.2462   18.6363   21.6768 H   0  0  0  0  0  0  0  0  0  0  0  0
   -8.1951   16.8385   20.5757 C   0  0  0  0  0  0  0  0  0  0  0  0
   -9.0325   16.4913   19.3836 C   0  0  0  0  0  0  0  0  0  0  0  0
   -1.8405   16.8948   13.8232 C   0  0  0  0  0  0  0  0  0  0  0  0
   -2.4799   14.6328   14.3491 C   0  0  0  0  0  0  0  0  0  0  0  0
   -1.2858   14.2925   14.3574 O   0  0  0  0  0  0  0  0  0  0  0  0
   -2.8432   15.8921   14.1747 N   0  0  0  0  0  0  0  0  0  0  0  0
   -3.7865   16.1533   14.2813 H   0  0  0  0  0  0  0  0  0  0  0  0
   -5.1846   12.1708   13.5100 C   0  0  0  0  0  0  0  0  0  0  0  0
   -4.1433   13.0746   13.4112 C   0  0  0  0  0  0  0  0  0  0  0  0
   -5.6427   11.8016   14.7955 C   0  0  0  0  0  0  0  0  0  0  0  0
   -5.0869   12.3706   15.9422 C   0  0  0  0  0  0  0  0  0  0  0  0
   -5.5139   12.0086   17.1816 O   0  0  0  0  0  0  0  0  0  0  0  0
   -4.0010   13.2737   15.8415 C   0  0  0  0  0  0  0  0  0  0  0  0
   -3.4993   13.7212   17.0027 O   0  0  0  0  0  0  0  0  0  0  0  0
   -3.5677   13.6263   14.5728 C   0  0  0  0  0  0  0  0  0  0  0  0
   -6.2307   11.4123   17.2746 H   0  0  0  0  0  0  0  0  0  0  0  0
   -3.8603   13.4239   17.8146 H   0  0  0  0  0  0  0  0  0  0  0  0
   -7.5148    9.9903    8.8938 F   0  0  0  0  0  0  0  0  0  0  0  0
   -6.9522   10.5389   10.0036 C   0  0  0  0  0  0  0  0  0  0  0  0
   -7.4410   11.7233   10.5349 C   0  0  0  0  0  0  0  0  0  0  0  0
   -6.8443   12.2528   11.6444 C   0  0  0  0  0  0  0  0  0  0  0  0
   -5.8945    9.8469   10.5934 C   0  0  0  0  0  0  0  0  0  0  0  0
   -5.3146   10.4047   11.7277 C   0  0  0  0  0  0  0  0  0  0  0  0
   -5.7989   11.5929   12.2877 C   0  0  0  0  0  0  0  0  0  0  0  0
 40 41  1  0  0  0
 41 42  2  0  0  0
 41 44  1  0  0  0
 42 43  1  0  0  0
 43 46  2  0  0  0
 44 45  2  0  0  0
 45 46  1  0  0  0
 46 30  1  0  0  0
 30 31  2  0  0  0
 30 32  1  0  0  0
 31 37  1  0  0  0
 32 33  2  0  0  0
 33 34  1  0  0  0
 33 35  1  0  0  0
 35 36  1  0  0  0
 35 37  2  0  0  0
 37 26  1  0  0  0
 26 27  2  0  0  0
 26 28  1  0  0  0
 28 25  1  0  0  0
 25  1  1  0  0  0
  1  2  2  0  0  0
  2  3  1  0  0  0
  3  4  1  0  0  0
  3  8  1  0  0  0
  4  5  1  0  0  0
  4  6  1  0  0  0
  6  7  1  0  0  0
  6  9  1  0  0  0
  8  9  1  0  0  0
  9 12  1  0  0  0
 12 13  1  0  0  0
 12 14  1  0  0  0
 13 20  2  0  0  0
 14 15  2  0  0  0
 14 19  1  0  0  0
 15 16  1  0  0  0
 16 17  2  0  0  0
 17 18  1  0  0  0
 18 19  2  0  0  0
 18 21  1  0  0  0
 19 20  1  0  0  0
 21 23  1  0  0  0
 23 24  1  0  0  0
 34 38  1  0  0  0
 36 39  1  0  0  0
 28 29  1  0  0  0
  5 10  1  0  0  0
  7 11  1  0  0  0
 21 22  1  0  0  0
M  END
> <minimizedAffinity>
-8.13106

$$$$
3HVI_619_A_267


 46 50  0  0  0  0  0  0  0  0999 V2000
   -5.9967   20.0123   18.2318 C   0  0  0  0  0  0  0  0  0  0  0  0
   -4.9326   20.0781   17.4731 C   0  0  0  0  0  0  0  0  0  0  0  0
   -4.7704   21.1442   16.4021 C   0  0  0  0  0  0  0  0  0  0  0  0
   -5.5840   20.8055   15.1417 C   0  0  0  0  0  0  0  0  0  0  0  0
   -5.9137   21.9348   14.3874 O   0  0  0  0  0  0  0  0  0  0  0  0
   -4.5775   19.8977   14.4281 C   0  0  0  0  0  0  0  0  0  0  0  0
   -4.8145   19.6694   13.0533 O   0  0  0  0  0  0  0  0  0  0  0  0
   -3.4018   21.2318   15.9756 O   0  0  0  0  0  0  0  0  0  0  0  0
   -3.2584   20.5973   14.7161 C   0  0  0  0  0  0  0  0  0  0  0  0
   -5.1044   22.4176   14.1575 H   0  0  0  0  0  0  0  0  0  0  0  0
   -4.8010   20.5150   12.5781 H   0  0  0  0  0  0  0  0  0  0  0  0
   -2.1101   19.7193   14.7625 N   0  0  0  0  0  0  0  0  0  0  0  0
   -0.7651   20.1409   14.8417 C   0  0  0  0  0  0  0  0  0  0  0  0
   -2.0735   18.4069   14.3388 C   0  0  0  0  0  0  0  0  0  0  0  0
   -3.1111   17.5941   14.0754 N   0  0  0  0  0  0  0  0  0  0  0  0
   -2.7923   16.3711   13.6594 C   0  0  0  0  0  0  0  0  0  0  0  0
   -1.5178   15.9345   13.5357 N   0  0  0  0  0  0  0  0  0  0  0  0
   -0.4767   16.7388   13.8515 C   0  0  0  0  0  0  0  0  0  0  0  0
   -0.7052   18.0572   14.2419 C   0  0  0  0  0  0  0  0  0  0  0  0
    0.0728   19.1406   14.5987 N   0  0  0  0  0  0  0  0  0  0  0  0
    0.7478   16.1722   13.6962 N   0  0  0  0  0  0  0  0  0  0  0  0
    1.3208   16.5199   12.9751 H   0  0  0  0  0  0  0  0  0  0  0  0
    1.2825   15.0834   14.5185 C   0  0  0  0  0  0  0  0  0  0  0  0
    0.7402   13.7538   14.0930 C   0  0  0  0  0  0  0  0  0  0  0  0
   -6.1857   18.9696   19.3056 C   0  0  0  0  0  0  0  0  0  0  0  0
   -5.2491   16.8121   19.8251 C   0  0  0  0  0  0  0  0  0  0  0  0
   -5.9721   16.7358   20.8317 O   0  0  0  0  0  0  0  0  0  0  0  0
   -5.3373   17.8255   18.9804 N   0  0  0  0  0  0  0  0  0  0  0  0
   -4.8330   17.8091   18.1351 H   0  0  0  0  0  0  0  0  0  0  0  0
   -3.5803   14.0731   17.8773 C   0  0  0  0  0  0  0  0  0  0  0  0
   -4.4136   15.1117   18.2487 C   0  0  0  0  0  0  0  0  0  0  0  0
   -2.5665   13.6631   18.7733 C   0  0  0  0  0  0  0  0  0  0  0  0
   -2.4362   14.2628   20.0267 C   0  0  0  0  0  0  0  0  0  0  0  0
   -1.4540   13.8822   20.8869 O   0  0  0  0  0  0  0  0  0  0  0  0
   -3.2708   15.3458   20.3948 C   0  0  0  0  0  0  0  0  0  0  0  0
   -3.0294   15.8917   21.5964 O   0  0  0  0  0  0  0  0  0  0  0  0
   -4.2610   15.7317   19.5046 C   0  0  0  0  0  0  0  0  0  0  0  0
   -0.8886   13.1683   20.6662 H   0  0  0  0  0  0  0  0  0  0  0  0
   -2.3338   15.5611   22.1300 H   0  0  0  0  0  0  0  0  0  0  0  0
   -4.2017   11.5692   12.8935 F   0  0  0  0  0  0  0  0  0  0  0  0
   -4.0707   12.1860   14.0983 C   0  0  0  0  0  0  0  0  0  0  0  0
   -5.1605   12.3286   14.9443 C   0  0  0  0  0  0  0  0  0  0  0  0
   -4.9957   12.9640   16.1429 C   0  0  0  0  0  0  0  0  0  0  0  0
   -2.7983   12.6346   14.4523 C   0  0  0  0  0  0  0  0  0  0  0  0
   -2.6594   13.2676   15.6828 C   0  0  0  0  0  0  0  0  0  0  0  0
   -3.7429   13.4121   16.5574 C   0  0  0  0  0  0  0  0  0  0  0  0
 40 41  1  0  0  0
 41 42  2  0  0  0
 41 44  1  0  0  0
 42 43  1  0  0  0
 43 46  2  0  0  0
 44 45  2  0  0  0
 45 46  1  0  0  0
 46 30  1  0  0  0
 30 31  2  0  0  0
 30 32  1  0  0  0
 31 37  1  0  0  0
 32 33  2  0  0  0
 33 34  1  0  0  0
 33 35  1  0  0  0
 35 36  1  0  0  0
 35 37  2  0  0  0
 37 26  1  0  0  0
 26 27  2  0  0  0
 26 28  1  0  0  0
 28 25  1  0  0  0
 25  1  1  0  0  0
  1  2  2  0  0  0
  2  3  1  0  0  0
  3  4  1  0  0  0
  3  8  1  0  0  0
  4  5  1  0  0  0
  4  6  1  0  0  0
  6  7  1  0  0  0
  6  9  1  0  0  0
  8  9  1  0  0  0
  9 12  1  0  0  0
 12 13  1  0  0  0
 12 14  1  0  0  0
 13 20  2  0  0  0
 14 15  2  0  0  0
 14 19  1  0  0  0
 15 16  1  0  0  0
 16 17  2  0  0  0
 17 18  1  0  0  0
 18 19  2  0  0  0
 18 21  1  0  0  0
 19 20  1  0  0  0
 21 23  1  0  0  0
 23 24  1  0  0  0
 34 38  1  0  0  0
 36 39  1  0  0  0
 28 29  1  0  0  0
  5 10  1  0  0  0
  7 11  1  0  0  0
 21 22  1  0  0  0
M  END
> <minimizedAffinity>
-7.93189

$$$$
