1V2T_ANH_T_800


 35 36  0  0  0  0  0  0  0  0999 V2000
   -1.9301   17.7927   17.0727 C   0  0  0  0  0  0  0  0  0  0  0  0
   -0.5266   18.0265   16.6333 N   0  0  0  0  0  0  0  0  0  0  0  0
    0.4159   18.6117   17.3896 C   0  0  0  0  0  0  0  0  0  0  0  0
    0.1779   19.1762   18.4591 O   0  0  0  0  0  0  0  0  0  0  0  0
   -0.2730   17.7326   15.7286 H   0  0  0  0  0  0  0  0  0  0  0  0
    1.8400   18.5652   16.8785 C   0  0  0  0  0  0  0  0  0  0  0  0
    1.9591   18.6626   15.4058 N   0  0  0  0  0  0  0  0  0  0  0  0
    1.0115   18.6213   15.0306 H   0  0  0  0  0  0  0  0  0  0  0  0
    2.7001   20.0029   14.7074 S   0  0  0  0  0  0  0  0  0  0  0  0
    1.6663   20.5902   13.6617 O   0  0  0  0  0  0  0  0  0  0  0  0
    2.9846   20.9443   15.9220 O   0  0  0  0  0  0  0  0  0  0  0  0
    7.9905   18.1732   12.4884 C   0  0  0  0  0  0  0  0  0  0  0  0
    6.6760   18.6334   12.9693 C   0  0  0  0  0  0  0  0  0  0  0  0
    5.7090   19.2256   12.0799 C   0  0  0  0  0  0  0  0  0  0  0  0
    4.4491   19.6644   12.5973 C   0  0  0  0  0  0  0  0  0  0  0  0
    4.1986   19.4984   14.0038 C   0  0  0  0  0  0  0  0  0  0  0  0
    5.1646   18.9070   14.8787 C   0  0  0  0  0  0  0  0  0  0  0  0
    6.3948   18.4802   14.3564 C   0  0  0  0  0  0  0  0  0  0  0  0
   -2.7925   19.1073   17.3664 C   0  0  0  0  0  0  0  0  0  0  0  0
   -3.2594   19.7370   16.3932 O   0  0  0  0  0  0  0  0  0  0  0  0
   -2.9991   19.5270   18.7296 O   0  0  0  0  0  0  0  0  0  0  0  0
   -4.2869   19.9084   19.3537 C   0  0  0  0  0  0  0  0  0  0  0  0
   -1.9304   16.8765   18.3095 C   0  0  0  0  0  0  0  0  0  0  0  0
   -1.5799   15.4067   18.0997 C   0  0  0  0  0  0  0  0  0  0  0  0
   -0.6762   14.7873   18.9991 C   0  0  0  0  0  0  0  0  0  0  0  0
   -0.3154   13.4226   18.8484 C   0  0  0  0  0  0  0  0  0  0  0  0
   -0.8656   12.6649   17.7819 C   0  0  0  0  0  0  0  0  0  0  0  0
   -1.8012   13.2415   16.8223 C   0  0  0  0  0  0  0  0  0  0  0  0
   -2.1427   14.6377   17.0119 C   0  0  0  0  0  0  0  0  0  0  0  0
   -2.3399   12.4653   15.7711 C   0  0  0  0  0  0  0  0  0  0  0  0
   -3.2576   12.8794   14.9091 N   0  0  0  0  0  0  0  0  0  0  0  0
   -1.9974   11.1990   15.5168 N   0  0  0  0  0  0  0  0  0  0  0  0
   -3.6113   13.7962   14.9691 H   0  0  0  0  0  0  0  0  0  0  0  0
   -3.5856   12.2702   14.2087 H   0  0  0  0  0  0  0  0  0  0  0  0
   -1.3227   10.7498   16.0756 H   0  0  0  0  0  0  0  0  0  0  0  0
  2  1  1  0  0  0
  2  3  1  0  0  0
  1 23  1  0  0  0
  1 19  1  0  0  0
 23 24  1  0  0  0
 19 20  2  0  0  0
 19 21  1  0  0  0
 21 22  1  0  0  0
 24 25  2  0  0  0
 24 29  1  0  0  0
 25 26  1  0  0  0
 26 27  2  0  0  0
 27 28  1  0  0  0
 28 29  2  0  0  0
 28 30  1  0  0  0
 30 31  1  0  0  0
 30 32  2  0  0  0
  3  6  1  0  0  0
  3  4  2  0  0  0
  6  7  1  0  0  0
  7  9  1  0  0  0
 12 13  1  0  0  0
 13 14  1  0  0  0
 13 18  2  0  0  0
 14 15  2  0  0  0
 15 16  1  0  0  0
 16 17  2  0  0  0
 16  9  1  0  0  0
 17 18  1  0  0  0
  9 10  2  0  0  0
  9 11  2  0  0  0
  2  5  1  0  0  0
 31 33  1  0  0  0
 31 34  1  0  0  0
 32 35  1  0  0  0
  7  8  1  0  0  0
M  END
> <minimizedAffinity>
-8.19467

$$$$
1V2T_ANH_T_800


 35 36  0  0  0  0  0  0  0  0999 V2000
   -2.2065   17.7603   18.5823 C   0  0  0  0  0  0  0  0  0  0  0  0
   -0.9148   17.4719   17.8998 N   0  0  0  0  0  0  0  0  0  0  0  0
   -0.0418   18.4117   17.5032 C   0  0  0  0  0  0  0  0  0  0  0  0
   -0.2935   19.6183   17.5016 O   0  0  0  0  0  0  0  0  0  0  0  0
   -0.6859   16.5299   17.7281 H   0  0  0  0  0  0  0  0  0  0  0  0
    1.3176   17.9389   17.0342 C   0  0  0  0  0  0  0  0  0  0  0  0
    1.7450   18.5125   15.7378 N   0  0  0  0  0  0  0  0  0  0  0  0
    0.8974   18.8058   15.2520 H   0  0  0  0  0  0  0  0  0  0  0  0
    2.8021   19.8220   15.7036 S   0  0  0  0  0  0  0  0  0  0  0  0
    1.9557   21.0662   15.2111 O   0  0  0  0  0  0  0  0  0  0  0  0
    3.3019   19.9337   17.1802 O   0  0  0  0  0  0  0  0  0  0  0  0
    7.3054   18.5444   11.9159 C   0  0  0  0  0  0  0  0  0  0  0  0
    6.2422   18.8373   12.8929 C   0  0  0  0  0  0  0  0  0  0  0  0
    6.3736   18.4842   14.2838 C   0  0  0  0  0  0  0  0  0  0  0  0
    5.3089   18.7827   15.1921 C   0  0  0  0  0  0  0  0  0  0  0  0
    4.1335   19.4271   14.6710 C   0  0  0  0  0  0  0  0  0  0  0  0
    4.0133   19.7758   13.2881 C   0  0  0  0  0  0  0  0  0  0  0  0
    5.0663   19.4781   12.4100 C   0  0  0  0  0  0  0  0  0  0  0  0
   -2.0943   18.2427   20.1032 C   0  0  0  0  0  0  0  0  0  0  0  0
   -2.6742   19.2998   20.4318 O   0  0  0  0  0  0  0  0  0  0  0  0
   -1.3309   17.4567   21.0393 O   0  0  0  0  0  0  0  0  0  0  0  0
    0.1264   17.5445   21.2887 C   0  0  0  0  0  0  0  0  0  0  0  0
   -3.1188   16.5242   18.4889 C   0  0  0  0  0  0  0  0  0  0  0  0
   -2.4552   15.1744   18.2342 C   0  0  0  0  0  0  0  0  0  0  0  0
   -1.5834   14.6477   19.2200 C   0  0  0  0  0  0  0  0  0  0  0  0
   -0.9392   13.3966   19.0326 C   0  0  0  0  0  0  0  0  0  0  0  0
   -1.1692   12.6603   17.8412 C   0  0  0  0  0  0  0  0  0  0  0  0
   -2.0548   13.1453   16.7881 C   0  0  0  0  0  0  0  0  0  0  0  0
   -2.6921   14.4268   17.0191 C   0  0  0  0  0  0  0  0  0  0  0  0
   -2.2722   12.3916   15.6123 C   0  0  0  0  0  0  0  0  0  0  0  0
   -1.9146   11.1271   15.4390 N   0  0  0  0  0  0  0  0  0  0  0  0
   -2.8616   12.8659   14.5109 N   0  0  0  0  0  0  0  0  0  0  0  0
   -1.4662   10.6382   16.1664 H   0  0  0  0  0  0  0  0  0  0  0  0
   -2.0974   10.6768   14.5828 H   0  0  0  0  0  0  0  0  0  0  0  0
   -3.1838   13.7958   14.4866 H   0  0  0  0  0  0  0  0  0  0  0  0
  2  1  1  0  0  0
  2  3  1  0  0  0
  1 23  1  0  0  0
  1 19  1  0  0  0
 23 24  1  0  0  0
 19 20  2  0  0  0
 19 21  1  0  0  0
 21 22  1  0  0  0
 24 25  2  0  0  0
 24 29  1  0  0  0
 25 26  1  0  0  0
 26 27  2  0  0  0
 27 28  1  0  0  0
 28 29  2  0  0  0
 28 30  1  0  0  0
 30 31  1  0  0  0
 30 32  2  0  0  0
  3  6  1  0  0  0
  3  4  2  0  0  0
  6  7  1  0  0  0
  7  9  1  0  0  0
 12 13  1  0  0  0
 13 14  1  0  0  0
 13 18  2  0  0  0
 14 15  2  0  0  0
 15 16  1  0  0  0
 16 17  2  0  0  0
 16  9  1  0  0  0
 17 18  1  0  0  0
  9 10  2  0  0  0
  9 11  2  0  0  0
  2  5  1  0  0  0
 31 33  1  0  0  0
 31 34  1  0  0  0
 32 35  1  0  0  0
  7  8  1  0  0  0
M  END
> <minimizedAffinity>
-8.18911

$$$$
1V2T_ANH_T_800


 35 36  0  0  0  0  0  0  0  0999 V2000
   -3.2649   17.4100   17.6844 C   0  0  0  0  0  0  0  0  0  0  0  0
   -2.1772   18.3537   17.3051 N   0  0  0  0  0  0  0  0  0  0  0  0
   -2.1005   18.9846   16.1223 C   0  0  0  0  0  0  0  0  0  0  0  0
   -2.8226   18.7178   15.1597 O   0  0  0  0  0  0  0  0  0  0  0  0
   -1.4674   18.5263   17.9651 H   0  0  0  0  0  0  0  0  0  0  0  0
   -1.0612   20.0770   15.9874 C   0  0  0  0  0  0  0  0  0  0  0  0
    0.1653   19.6615   15.2697 N   0  0  0  0  0  0  0  0  0  0  0  0
    0.3474   20.3730   14.5618 H   0  0  0  0  0  0  0  0  0  0  0  0
    1.6029   19.4400   16.1168 S   0  0  0  0  0  0  0  0  0  0  0  0
    1.7023   20.6374   17.1480 O   0  0  0  0  0  0  0  0  0  0  0  0
    1.4287   18.0367   16.7823 O   0  0  0  0  0  0  0  0  0  0  0  0
    5.9805   19.3144   11.9840 C   0  0  0  0  0  0  0  0  0  0  0  0
    4.9550   19.3326   13.0417 C   0  0  0  0  0  0  0  0  0  0  0  0
    5.2631   18.9686   14.4016 C   0  0  0  0  0  0  0  0  0  0  0  0
    4.2298   18.9943   15.3912 C   0  0  0  0  0  0  0  0  0  0  0  0
    2.9074   19.3831   14.9810 C   0  0  0  0  0  0  0  0  0  0  0  0
    2.6118   19.7452   13.6282 C   0  0  0  0  0  0  0  0  0  0  0  0
    3.6357   19.7165   12.6695 C   0  0  0  0  0  0  0  0  0  0  0  0
   -4.6567   18.0845   18.0923 C   0  0  0  0  0  0  0  0  0  0  0  0
   -4.6470   18.9741   18.9699 O   0  0  0  0  0  0  0  0  0  0  0  0
   -5.8694   17.6475   17.4479 O   0  0  0  0  0  0  0  0  0  0  0  0
   -7.2506   18.0635   17.7838 C   0  0  0  0  0  0  0  0  0  0  0  0
   -2.7719   16.4944   18.8191 C   0  0  0  0  0  0  0  0  0  0  0  0
   -2.1501   15.1574   18.4279 C   0  0  0  0  0  0  0  0  0  0  0  0
   -1.1192   14.6224   19.2405 C   0  0  0  0  0  0  0  0  0  0  0  0
   -0.5059   13.3826   18.9210 C   0  0  0  0  0  0  0  0  0  0  0  0
   -0.9288   12.6662   17.7711 C   0  0  0  0  0  0  0  0  0  0  0  0
   -1.9844   13.1605   16.8937 C   0  0  0  0  0  0  0  0  0  0  0  0
   -2.5838   14.4301   17.2557 C   0  0  0  0  0  0  0  0  0  0  0  0
   -2.3921   12.4265   15.7567 C   0  0  0  0  0  0  0  0  0  0  0  0
   -3.2527   12.8508   14.8423 N   0  0  0  0  0  0  0  0  0  0  0  0
   -1.9661   11.1948   15.4618 N   0  0  0  0  0  0  0  0  0  0  0  0
   -3.6558   13.7453   14.9232 H   0  0  0  0  0  0  0  0  0  0  0  0
   -3.4889   12.2713   14.0822 H   0  0  0  0  0  0  0  0  0  0  0  0
   -1.3197   10.7432   16.0513 H   0  0  0  0  0  0  0  0  0  0  0  0
  2  1  1  0  0  0
  2  3  1  0  0  0
  1 23  1  0  0  0
  1 19  1  0  0  0
 23 24  1  0  0  0
 19 20  2  0  0  0
 19 21  1  0  0  0
 21 22  1  0  0  0
 24 25  2  0  0  0
 24 29  1  0  0  0
 25 26  1  0  0  0
 26 27  2  0  0  0
 27 28  1  0  0  0
 28 29  2  0  0  0
 28 30  1  0  0  0
 30 31  1  0  0  0
 30 32  2  0  0  0
  3  6  1  0  0  0
  3  4  2  0  0  0
  6  7  1  0  0  0
  7  9  1  0  0  0
 12 13  1  0  0  0
 13 14  1  0  0  0
 13 18  2  0  0  0
 14 15  2  0  0  0
 15 16  1  0  0  0
 16 17  2  0  0  0
 16  9  1  0  0  0
 17 18  1  0  0  0
  9 10  2  0  0  0
  9 11  2  0  0  0
  2  5  1  0  0  0
 31 33  1  0  0  0
 31 34  1  0  0  0
 32 35  1  0  0  0
  7  8  1  0  0  0
M  END
> <minimizedAffinity>
-8.12533

$$$$
1V2T_ANH_T_800


 35 36  0  0  0  0  0  0  0  0999 V2000
   -3.2836   17.5323   17.6364 C   0  0  0  0  0  0  0  0  0  0  0  0
   -2.0566   18.3164   17.3246 N   0  0  0  0  0  0  0  0  0  0  0  0
   -1.8332   18.9399   16.1567 C   0  0  0  0  0  0  0  0  0  0  0  0
   -2.5363   18.7853   15.1562 O   0  0  0  0  0  0  0  0  0  0  0  0
   -1.3636   18.3820   18.0208 H   0  0  0  0  0  0  0  0  0  0  0  0
   -0.6455   19.8761   16.0888 C   0  0  0  0  0  0  0  0  0  0  0  0
    0.2241   19.8401   17.2866 N   0  0  0  0  0  0  0  0  0  0  0  0
   -0.3852   19.6748   18.0878 H   0  0  0  0  0  0  0  0  0  0  0  0
    1.4737   18.7169   17.3869 S   0  0  0  0  0  0  0  0  0  0  0  0
    0.8146   17.3567   17.8586 O   0  0  0  0  0  0  0  0  0  0  0  0
    2.0532   18.6764   15.9360 O   0  0  0  0  0  0  0  0  0  0  0  0
    5.5645   20.6853   21.3430 C   0  0  0  0  0  0  0  0  0  0  0  0
    4.5935   20.2400   20.3283 C   0  0  0  0  0  0  0  0  0  0  0  0
    4.5764   20.7985   19.0000 C   0  0  0  0  0  0  0  0  0  0  0  0
    3.6078   20.3383   18.0525 C   0  0  0  0  0  0  0  0  0  0  0  0
    2.6756   19.3269   18.4725 C   0  0  0  0  0  0  0  0  0  0  0  0
    2.7021   18.7766   19.7935 C   0  0  0  0  0  0  0  0  0  0  0  0
    3.6586   19.2369   20.7109 C   0  0  0  0  0  0  0  0  0  0  0  0
   -4.5834   18.3925   17.9954 C   0  0  0  0  0  0  0  0  0  0  0  0
   -4.5955   19.0216   19.0751 O   0  0  0  0  0  0  0  0  0  0  0  0
   -5.6936   18.4123   17.0767 O   0  0  0  0  0  0  0  0  0  0  0  0
   -5.9445   19.4104   16.0116 C   0  0  0  0  0  0  0  0  0  0  0  0
   -2.9788   16.5408   18.7735 C   0  0  0  0  0  0  0  0  0  0  0  0
   -2.2999   15.2263   18.4013 C   0  0  0  0  0  0  0  0  0  0  0  0
   -1.2499   14.7458   19.2234 C   0  0  0  0  0  0  0  0  0  0  0  0
   -0.5838   13.5290   18.9215 C   0  0  0  0  0  0  0  0  0  0  0  0
   -0.9725   12.7807   17.7799 C   0  0  0  0  0  0  0  0  0  0  0  0
   -2.0453   13.2188   16.8935 C   0  0  0  0  0  0  0  0  0  0  0  0
   -2.6988   14.4664   17.2374 C   0  0  0  0  0  0  0  0  0  0  0  0
   -2.4180   12.4537   15.7649 C   0  0  0  0  0  0  0  0  0  0  0  0
   -3.2749   12.8394   14.8302 N   0  0  0  0  0  0  0  0  0  0  0  0
   -1.9580   11.2275   15.4999 N   0  0  0  0  0  0  0  0  0  0  0  0
   -3.7007   13.7252   14.8880 H   0  0  0  0  0  0  0  0  0  0  0  0
   -3.4856   12.2402   14.0780 H   0  0  0  0  0  0  0  0  0  0  0  0
   -1.3097   10.8030   16.1073 H   0  0  0  0  0  0  0  0  0  0  0  0
  2  1  1  0  0  0
  2  3  1  0  0  0
  1 23  1  0  0  0
  1 19  1  0  0  0
 23 24  1  0  0  0
 19 20  2  0  0  0
 19 21  1  0  0  0
 21 22  1  0  0  0
 24 25  2  0  0  0
 24 29  1  0  0  0
 25 26  1  0  0  0
 26 27  2  0  0  0
 27 28  1  0  0  0
 28 29  2  0  0  0
 28 30  1  0  0  0
 30 31  1  0  0  0
 30 32  2  0  0  0
  3  6  1  0  0  0
  3  4  2  0  0  0
  6  7  1  0  0  0
  7  9  1  0  0  0
 12 13  1  0  0  0
 13 14  1  0  0  0
 13 18  2  0  0  0
 14 15  2  0  0  0
 15 16  1  0  0  0
 16 17  2  0  0  0
 16  9  1  0  0  0
 17 18  1  0  0  0
  9 10  2  0  0  0
  9 11  2  0  0  0
  2  5  1  0  0  0
 31 33  1  0  0  0
 31 34  1  0  0  0
 32 35  1  0  0  0
  7  8  1  0  0  0
M  END
> <minimizedAffinity>
-7.93701

$$$$
1V2T_ANH_T_800


 35 36  0  0  0  0  0  0  0  0999 V2000
    0.1930   17.3032   19.9097 C   0  0  0  0  0  0  0  0  0  0  0  0
    1.3869   17.8345   19.1957 N   0  0  0  0  0  0  0  0  0  0  0  0
    1.3531   18.3897   17.9736 C   0  0  0  0  0  0  0  0  0  0  0  0
    0.3638   18.3605   17.2390 O   0  0  0  0  0  0  0  0  0  0  0  0
    2.2584   17.7747   19.6496 H   0  0  0  0  0  0  0  0  0  0  0  0
    2.6114   19.0807   17.4930 C   0  0  0  0  0  0  0  0  0  0  0  0
    2.9390   18.8240   16.0721 N   0  0  0  0  0  0  0  0  0  0  0  0
    2.3247   18.0722   15.7596 H   0  0  0  0  0  0  0  0  0  0  0  0
    2.8057   20.0624   14.9399 S   0  0  0  0  0  0  0  0  0  0  0  0
    1.2821   20.1140   14.5120 O   0  0  0  0  0  0  0  0  0  0  0  0
    3.2945   21.3282   15.7155 O   0  0  0  0  0  0  0  0  0  0  0  0
    6.3985   18.9847   10.2293 C   0  0  0  0  0  0  0  0  0  0  0  0
    5.5704   19.2347   11.4220 C   0  0  0  0  0  0  0  0  0  0  0  0
    6.0575   18.9675   12.7517 C   0  0  0  0  0  0  0  0  0  0  0  0
    5.2114   19.2195   13.8779 C   0  0  0  0  0  0  0  0  0  0  0  0
    3.8900   19.7313   13.6324 C   0  0  0  0  0  0  0  0  0  0  0  0
    3.4161   19.9955   12.3080 C   0  0  0  0  0  0  0  0  0  0  0  0
    4.2579   19.7449   11.2139 C   0  0  0  0  0  0  0  0  0  0  0  0
    0.0720   17.7064   21.4529 C   0  0  0  0  0  0  0  0  0  0  0  0
    0.2590   18.9012   21.7675 O   0  0  0  0  0  0  0  0  0  0  0  0
   -0.2396   16.6903   22.4263 O   0  0  0  0  0  0  0  0  0  0  0  0
   -1.3501   16.7127   23.4059 C   0  0  0  0  0  0  0  0  0  0  0  0
    0.1509   15.7718   19.7617 C   0  0  0  0  0  0  0  0  0  0  0  0
   -0.8662   15.1841   18.7884 C   0  0  0  0  0  0  0  0  0  0  0  0
   -2.0524   15.9127   18.5212 C   0  0  0  0  0  0  0  0  0  0  0  0
   -3.0321   15.4107   17.6247 C   0  0  0  0  0  0  0  0  0  0  0  0
   -2.8237   14.1607   16.9856 C   0  0  0  0  0  0  0  0  0  0  0  0
   -1.6250   13.3617   17.2162 C   0  0  0  0  0  0  0  0  0  0  0  0
   -0.6504   13.9102   18.1387 C   0  0  0  0  0  0  0  0  0  0  0  0
   -1.4374   12.1218   16.5640 C   0  0  0  0  0  0  0  0  0  0  0  0
   -2.2272   11.6280   15.6210 N   0  0  0  0  0  0  0  0  0  0  0  0
   -0.4364   11.2762   16.8255 N   0  0  0  0  0  0  0  0  0  0  0  0
   -3.0126   12.1391   15.3192 H   0  0  0  0  0  0  0  0  0  0  0  0
   -2.0284   10.7500   15.2224 H   0  0  0  0  0  0  0  0  0  0  0  0
    0.2361   11.5052   17.5070 H   0  0  0  0  0  0  0  0  0  0  0  0
  2  1  1  0  0  0
  2  3  1  0  0  0
  1 23  1  0  0  0
  1 19  1  0  0  0
 23 24  1  0  0  0
 19 20  2  0  0  0
 19 21  1  0  0  0
 21 22  1  0  0  0
 24 25  2  0  0  0
 24 29  1  0  0  0
 25 26  1  0  0  0
 26 27  2  0  0  0
 27 28  1  0  0  0
 28 29  2  0  0  0
 28 30  1  0  0  0
 30 31  1  0  0  0
 30 32  2  0  0  0
  3  6  1  0  0  0
  3  4  2  0  0  0
  6  7  1  0  0  0
  7  9  1  0  0  0
 12 13  1  0  0  0
 13 14  1  0  0  0
 13 18  2  0  0  0
 14 15  2  0  0  0
 15 16  1  0  0  0
 16 17  2  0  0  0
 16  9  1  0  0  0
 17 18  1  0  0  0
  9 10  2  0  0  0
  9 11  2  0  0  0
  2  5  1  0  0  0
 31 33  1  0  0  0
 31 34  1  0  0  0
 32 35  1  0  0  0
  7  8  1  0  0  0
M  END
> <minimizedAffinity>
-7.80141

$$$$
1V2T_ANH_T_800


 35 36  0  0  0  0  0  0  0  0999 V2000
   -3.2379   17.6876   17.4409 C   0  0  0  0  0  0  0  0  0  0  0  0
   -1.9570   18.4100   17.2065 N   0  0  0  0  0  0  0  0  0  0  0  0
   -1.6552   19.0686   16.0761 C   0  0  0  0  0  0  0  0  0  0  0  0
   -2.3291   18.9992   15.0464 O   0  0  0  0  0  0  0  0  0  0  0  0
   -1.2873   18.4043   17.9281 H   0  0  0  0  0  0  0  0  0  0  0  0
   -0.4136   19.9345   16.0908 C   0  0  0  0  0  0  0  0  0  0  0  0
    0.3400   19.9355   14.8163 N   0  0  0  0  0  0  0  0  0  0  0  0
    0.0923   20.7964   14.3285 H   0  0  0  0  0  0  0  0  0  0  0  0
    2.0211   19.8525   14.8316 S   0  0  0  0  0  0  0  0  0  0  0  0
    2.5269   21.1746   15.5410 O   0  0  0  0  0  0  0  0  0  0  0  0
    2.3205   18.5437   15.6316 O   0  0  0  0  0  0  0  0  0  0  0  0
    3.7206   19.1811    9.0939 C   0  0  0  0  0  0  0  0  0  0  0  0
    3.3665   19.3650   10.5122 C   0  0  0  0  0  0  0  0  0  0  0  0
    4.3614   19.6775   11.5068 C   0  0  0  0  0  0  0  0  0  0  0  0
    3.9681   19.8382   12.8733 C   0  0  0  0  0  0  0  0  0  0  0  0
    2.5778   19.6743   13.2027 C   0  0  0  0  0  0  0  0  0  0  0  0
    1.5967   19.3661   12.2072 C   0  0  0  0  0  0  0  0  0  0  0  0
    1.9974   19.2129   10.8714 C   0  0  0  0  0  0  0  0  0  0  0  0
   -4.5156   18.6116   17.7098 C   0  0  0  0  0  0  0  0  0  0  0  0
   -4.6786   19.0740   18.8592 O   0  0  0  0  0  0  0  0  0  0  0  0
   -5.4354   18.8764   16.6324 O   0  0  0  0  0  0  0  0  0  0  0  0
   -6.6748   18.1276   16.3213 C   0  0  0  0  0  0  0  0  0  0  0  0
   -3.0561   16.6918   18.6003 C   0  0  0  0  0  0  0  0  0  0  0  0
   -2.3605   15.3693   18.2927 C   0  0  0  0  0  0  0  0  0  0  0  0
   -1.3143   14.9360   19.1454 C   0  0  0  0  0  0  0  0  0  0  0  0
   -0.6332   13.7141   18.9037 C   0  0  0  0  0  0  0  0  0  0  0  0
   -1.0028   12.9127   17.7922 C   0  0  0  0  0  0  0  0  0  0  0  0
   -2.0706   13.3005   16.8769 C   0  0  0  0  0  0  0  0  0  0  0  0
   -2.7399   14.5552   17.1593 C   0  0  0  0  0  0  0  0  0  0  0  0
   -2.4242   12.4831   15.7793 C   0  0  0  0  0  0  0  0  0  0  0  0
   -1.9325   11.2764   15.5363 N   0  0  0  0  0  0  0  0  0  0  0  0
   -3.2996   12.8307   14.8314 N   0  0  0  0  0  0  0  0  0  0  0  0
   -1.2718   10.8814   16.1501 H   0  0  0  0  0  0  0  0  0  0  0  0
   -2.2280   10.7752   14.7422 H   0  0  0  0  0  0  0  0  0  0  0  0
   -3.7511   13.7044   14.8749 H   0  0  0  0  0  0  0  0  0  0  0  0
  2  1  1  0  0  0
  2  3  1  0  0  0
  1 23  1  0  0  0
  1 19  1  0  0  0
 23 24  1  0  0  0
 19 20  2  0  0  0
 19 21  1  0  0  0
 21 22  1  0  0  0
 24 25  2  0  0  0
 24 29  1  0  0  0
 25 26  1  0  0  0
 26 27  2  0  0  0
 27 28  1  0  0  0
 28 29  2  0  0  0
 28 30  1  0  0  0
 30 31  1  0  0  0
 30 32  2  0  0  0
  3  6  1  0  0  0
  3  4  2  0  0  0
  6  7  1  0  0  0
  7  9  1  0  0  0
 12 13  1  0  0  0
 13 14  1  0  0  0
 13 18  2  0  0  0
 14 15  2  0  0  0
 15 16  1  0  0  0
 16 17  2  0  0  0
 16  9  1  0  0  0
 17 18  1  0  0  0
  9 10  2  0  0  0
  9 11  2  0  0  0
  2  5  1  0  0  0
 31 33  1  0  0  0
 31 34  1  0  0  0
 32 35  1  0  0  0
  7  8  1  0  0  0
M  END
> <minimizedAffinity>
-7.77328

$$$$
1V2T_ANH_T_800


 35 36  0  0  0  0  0  0  0  0999 V2000
    2.9004   19.2742   16.6751 C   0  0  0  0  0  0  0  0  0  0  0  0
    1.5763   18.7788   17.1431 N   0  0  0  0  0  0  0  0  0  0  0  0
    1.3780   18.1253   18.2991 C   0  0  0  0  0  0  0  0  0  0  0  0
    2.2932   17.7103   19.0129 O   0  0  0  0  0  0  0  0  0  0  0  0
    0.7948   18.9411   16.5668 H   0  0  0  0  0  0  0  0  0  0  0  0
   -0.0559   17.8953   18.7262 C   0  0  0  0  0  0  0  0  0  0  0  0
   -0.2194   16.8529   19.7649 N   0  0  0  0  0  0  0  0  0  0  0  0
   -0.0871   17.3120   20.6661 H   0  0  0  0  0  0  0  0  0  0  0  0
   -1.6579   15.9850   19.8684 S   0  0  0  0  0  0  0  0  0  0  0  0
   -1.7473   15.4446   21.3540 O   0  0  0  0  0  0  0  0  0  0  0  0
   -2.7535   17.0387   19.5051 O   0  0  0  0  0  0  0  0  0  0  0  0
   -1.7569   11.7716   15.5676 C   0  0  0  0  0  0  0  0  0  0  0  0
   -1.6815   12.7708   16.6478 C   0  0  0  0  0  0  0  0  0  0  0  0
   -0.7979   12.6036   17.7738 C   0  0  0  0  0  0  0  0  0  0  0  0
   -0.7673   13.5987   18.8017 C   0  0  0  0  0  0  0  0  0  0  0  0
   -1.6352   14.7377   18.6690 C   0  0  0  0  0  0  0  0  0  0  0  0
   -2.5079   14.8959   17.5456 C   0  0  0  0  0  0  0  0  0  0  0  0
   -2.5255   13.9125   16.5450 C   0  0  0  0  0  0  0  0  0  0  0  0
    3.4132   20.6285   17.3541 C   0  0  0  0  0  0  0  0  0  0  0  0
    2.6803   21.6383   17.2848 O   0  0  0  0  0  0  0  0  0  0  0  0
    4.6944   20.6472   18.0138 O   0  0  0  0  0  0  0  0  0  0  0  0
    4.9394   20.7501   19.4708 C   0  0  0  0  0  0  0  0  0  0  0  0
    2.8731   19.4312   15.1442 C   0  0  0  0  0  0  0  0  0  0  0  0
    4.1802   19.2128   14.3885 C   0  0  0  0  0  0  0  0  0  0  0  0
    5.2800   18.6464   15.0804 C   0  0  0  0  0  0  0  0  0  0  0  0
    6.5193   18.4230   14.4249 C   0  0  0  0  0  0  0  0  0  0  0  0
    6.6622   18.7716   13.0565 C   0  0  0  0  0  0  0  0  0  0  0  0
    5.5698   19.3572   12.2869 C   0  0  0  0  0  0  0  0  0  0  0  0
    4.3221   19.5689   12.9941 C   0  0  0  0  0  0  0  0  0  0  0  0
    5.7346   19.6915   10.9235 C   0  0  0  0  0  0  0  0  0  0  0  0
    5.8858   20.9209   10.4517 N   0  0  0  0  0  0  0  0  0  0  0  0
    5.7478   18.8030    9.9255 N   0  0  0  0  0  0  0  0  0  0  0  0
    5.8967   21.6874   11.0694 H   0  0  0  0  0  0  0  0  0  0  0  0
    5.9873   21.0676    9.4834 H   0  0  0  0  0  0  0  0  0  0  0  0
    5.6457   17.8432   10.1196 H   0  0  0  0  0  0  0  0  0  0  0  0
  2  1  1  0  0  0
  2  3  1  0  0  0
  1 23  1  0  0  0
  1 19  1  0  0  0
 23 24  1  0  0  0
 19 20  2  0  0  0
 19 21  1  0  0  0
 21 22  1  0  0  0
 24 25  2  0  0  0
 24 29  1  0  0  0
 25 26  1  0  0  0
 26 27  2  0  0  0
 27 28  1  0  0  0
 28 29  2  0  0  0
 28 30  1  0  0  0
 30 31  1  0  0  0
 30 32  2  0  0  0
  3  6  1  0  0  0
  3  4  2  0  0  0
  6  7  1  0  0  0
  7  9  1  0  0  0
 12 13  1  0  0  0
 13 14  1  0  0  0
 13 18  2  0  0  0
 14 15  2  0  0  0
 15 16  1  0  0  0
 16 17  2  0  0  0
 16  9  1  0  0  0
 17 18  1  0  0  0
  9 10  2  0  0  0
  9 11  2  0  0  0
  2  5  1  0  0  0
 31 33  1  0  0  0
 31 34  1  0  0  0
 32 35  1  0  0  0
  7  8  1  0  0  0
M  END
> <minimizedAffinity>
-7.64457

$$$$
1V2T_ANH_T_800


 35 36  0  0  0  0  0  0  0  0999 V2000
   -3.3951   17.5737   17.3433 C   0  0  0  0  0  0  0  0  0  0  0  0
   -2.2858   18.5509   17.1643 N   0  0  0  0  0  0  0  0  0  0  0  0
   -1.9817   19.1459   15.9996 C   0  0  0  0  0  0  0  0  0  0  0  0
   -2.4723   18.8169   14.9179 O   0  0  0  0  0  0  0  0  0  0  0  0
   -1.7394   18.7755   17.9518 H   0  0  0  0  0  0  0  0  0  0  0  0
   -0.9770   20.2774   16.0429 C   0  0  0  0  0  0  0  0  0  0  0  0
    0.3510   19.9305   15.4877 N   0  0  0  0  0  0  0  0  0  0  0  0
    0.2228   19.7865   14.4860 H   0  0  0  0  0  0  0  0  0  0  0  0
    1.6421   20.9960   15.6638 S   0  0  0  0  0  0  0  0  0  0  0  0
    1.1607   22.3827   15.0703 O   0  0  0  0  0  0  0  0  0  0  0  0
    1.8990   21.0157   17.2053 O   0  0  0  0  0  0  0  0  0  0  0  0
    6.4977   18.5554   13.0703 C   0  0  0  0  0  0  0  0  0  0  0  0
    5.2922   19.1770   13.6457 C   0  0  0  0  0  0  0  0  0  0  0  0
    4.4512   20.0561   12.8733 C   0  0  0  0  0  0  0  0  0  0  0  0
    3.2954   20.6419   13.4804 C   0  0  0  0  0  0  0  0  0  0  0  0
    3.0200   20.3287   14.8568 C   0  0  0  0  0  0  0  0  0  0  0  0
    3.8602   19.4526   15.6151 C   0  0  0  0  0  0  0  0  0  0  0  0
    4.9890   18.8846   15.0055 C   0  0  0  0  0  0  0  0  0  0  0  0
   -4.8557   18.2051   17.5051 C   0  0  0  0  0  0  0  0  0  0  0  0
   -5.7378   17.5178   18.0629 O   0  0  0  0  0  0  0  0  0  0  0  0
   -5.1117   19.5315   17.0030 O   0  0  0  0  0  0  0  0  0  0  0  0
   -6.0554   20.5249   17.5654 C   0  0  0  0  0  0  0  0  0  0  0  0
   -3.0811   16.6612   18.5424 C   0  0  0  0  0  0  0  0  0  0  0  0
   -2.3878   15.3327   18.2564 C   0  0  0  0  0  0  0  0  0  0  0  0
   -1.3787   14.8861   19.1460 C   0  0  0  0  0  0  0  0  0  0  0  0
   -0.7014   13.6581   18.9256 C   0  0  0  0  0  0  0  0  0  0  0  0
   -1.0372   12.8639   17.7983 C   0  0  0  0  0  0  0  0  0  0  0  0
   -2.0661   13.2655   16.8451 C   0  0  0  0  0  0  0  0  0  0  0  0
   -2.7328   14.5260   17.1068 C   0  0  0  0  0  0  0  0  0  0  0  0
   -2.3867   12.4551   15.7322 C   0  0  0  0  0  0  0  0  0  0  0  0
   -1.9148   11.2358   15.5145 N   0  0  0  0  0  0  0  0  0  0  0  0
   -3.2056   12.8230   14.7426 N   0  0  0  0  0  0  0  0  0  0  0  0
   -1.2950   10.8253   16.1599 H   0  0  0  0  0  0  0  0  0  0  0  0
   -2.1839   10.7407   14.7072 H   0  0  0  0  0  0  0  0  0  0  0  0
   -3.6362   13.7081   14.7633 H   0  0  0  0  0  0  0  0  0  0  0  0
  2  1  1  0  0  0
  2  3  1  0  0  0
  1 23  1  0  0  0
  1 19  1  0  0  0
 23 24  1  0  0  0
 19 20  2  0  0  0
 19 21  1  0  0  0
 21 22  1  0  0  0
 24 25  2  0  0  0
 24 29  1  0  0  0
 25 26  1  0  0  0
 26 27  2  0  0  0
 27 28  1  0  0  0
 28 29  2  0  0  0
 28 30  1  0  0  0
 30 31  1  0  0  0
 30 32  2  0  0  0
  3  6  1  0  0  0
  3  4  2  0  0  0
  6  7  1  0  0  0
  7  9  1  0  0  0
 12 13  1  0  0  0
 13 14  1  0  0  0
 13 18  2  0  0  0
 14 15  2  0  0  0
 15 16  1  0  0  0
 16 17  2  0  0  0
 16  9  1  0  0  0
 17 18  1  0  0  0
  9 10  2  0  0  0
  9 11  2  0  0  0
  2  5  1  0  0  0
 31 33  1  0  0  0
 31 34  1  0  0  0
 32 35  1  0  0  0
  7  8  1  0  0  0
M  END
> <minimizedAffinity>
-7.44057

$$$$
1V2T_ANH_T_800


 35 36  0  0  0  0  0  0  0  0999 V2000
   -2.1281   14.2241   18.2507 C   0  0  0  0  0  0  0  0  0  0  0  0
   -0.9755   15.0992   18.6017 N   0  0  0  0  0  0  0  0  0  0  0  0
   -0.8126   15.6945   19.7941 C   0  0  0  0  0  0  0  0  0  0  0  0
   -1.6839   15.7246   20.6654 O   0  0  0  0  0  0  0  0  0  0  0  0
   -0.2876   15.2514   17.9140 H   0  0  0  0  0  0  0  0  0  0  0  0
    0.5210   16.3603   20.0581 C   0  0  0  0  0  0  0  0  0  0  0  0
    1.2308   16.8015   18.8359 N   0  0  0  0  0  0  0  0  0  0  0  0
    0.8331   16.2748   18.0582 H   0  0  0  0  0  0  0  0  0  0  0  0
    1.2064   18.4236   18.3868 S   0  0  0  0  0  0  0  0  0  0  0  0
    1.2323   18.4489   16.8038 O   0  0  0  0  0  0  0  0  0  0  0  0
   -0.1209   18.9616   19.0125 O   0  0  0  0  0  0  0  0  0  0  0  0
    5.8418   21.0781   21.1662 C   0  0  0  0  0  0  0  0  0  0  0  0
    4.7296   20.4536   20.4288 C   0  0  0  0  0  0  0  0  0  0  0  0
    4.5018   20.7227   19.0315 C   0  0  0  0  0  0  0  0  0  0  0  0
    3.4025   20.0976   18.3618 C   0  0  0  0  0  0  0  0  0  0  0  0
    2.5561   19.2184   19.1227 C   0  0  0  0  0  0  0  0  0  0  0  0
    2.7919   18.9557   20.5097 C   0  0  0  0  0  0  0  0  0  0  0  0
    3.8747   19.5749   21.1522 C   0  0  0  0  0  0  0  0  0  0  0  0
   -1.7566   12.7319   17.8107 C   0  0  0  0  0  0  0  0  0  0  0  0
   -1.9952   11.8032   18.6120 O   0  0  0  0  0  0  0  0  0  0  0  0
   -1.1583   12.5041   16.5195 O   0  0  0  0  0  0  0  0  0  0  0  0
   -1.8290   11.9624   15.3153 C   0  0  0  0  0  0  0  0  0  0  0  0
   -2.9666   14.9025   17.1526 C   0  0  0  0  0  0  0  0  0  0  0  0
   -3.1216   16.4188   17.2180 C   0  0  0  0  0  0  0  0  0  0  0  0
   -4.0256   16.9706   18.1601 C   0  0  0  0  0  0  0  0  0  0  0  0
   -4.2086   18.3748   18.2615 C   0  0  0  0  0  0  0  0  0  0  0  0
   -3.4773   19.2413   17.4078 C   0  0  0  0  0  0  0  0  0  0  0  0
   -2.5313   18.7382   16.4177 C   0  0  0  0  0  0  0  0  0  0  0  0
   -2.3746   17.2987   16.3467 C   0  0  0  0  0  0  0  0  0  0  0  0
   -1.8106   19.6213   15.5819 C   0  0  0  0  0  0  0  0  0  0  0  0
   -0.9821   20.5662   16.0033 N   0  0  0  0  0  0  0  0  0  0  0  0
   -1.8820   19.6234   14.2475 N   0  0  0  0  0  0  0  0  0  0  0  0
   -0.8249   20.6888   16.9674 H   0  0  0  0  0  0  0  0  0  0  0  0
   -0.5241   21.1455   15.3523 H   0  0  0  0  0  0  0  0  0  0  0  0
   -2.4601   18.9749   13.7845 H   0  0  0  0  0  0  0  0  0  0  0  0
  2  1  1  0  0  0
  2  3  1  0  0  0
  1 23  1  0  0  0
  1 19  1  0  0  0
 23 24  1  0  0  0
 19 20  2  0  0  0
 19 21  1  0  0  0
 21 22  1  0  0  0
 24 25  2  0  0  0
 24 29  1  0  0  0
 25 26  1  0  0  0
 26 27  2  0  0  0
 27 28  1  0  0  0
 28 29  2  0  0  0
 28 30  1  0  0  0
 30 31  1  0  0  0
 30 32  2  0  0  0
  3  6  1  0  0  0
  3  4  2  0  0  0
  6  7  1  0  0  0
  7  9  1  0  0  0
 12 13  1  0  0  0
 13 14  1  0  0  0
 13 18  2  0  0  0
 14 15  2  0  0  0
 15 16  1  0  0  0
 16 17  2  0  0  0
 16  9  1  0  0  0
 17 18  1  0  0  0
  9 10  2  0  0  0
  9 11  2  0  0  0
  2  5  1  0  0  0
 31 33  1  0  0  0
 31 34  1  0  0  0
 32 35  1  0  0  0
  7  8  1  0  0  0
M  END
> <minimizedAffinity>
-7.42476

$$$$
1V2T_ANH_T_800


 35 36  0  0  0  0  0  0  0  0999 V2000
   -1.4127   17.7280   18.6516 C   0  0  0  0  0  0  0  0  0  0  0  0
   -1.7394   19.0016   17.9527 N   0  0  0  0  0  0  0  0  0  0  0  0
   -1.0890   20.1601   18.1469 C   0  0  0  0  0  0  0  0  0  0  0  0
   -0.2695   20.3384   19.0501 O   0  0  0  0  0  0  0  0  0  0  0  0
   -2.4812   18.9937   17.3055 H   0  0  0  0  0  0  0  0  0  0  0  0
   -1.3982   21.2949   17.1939 C   0  0  0  0  0  0  0  0  0  0  0  0
   -0.2423   21.7352   16.3801 N   0  0  0  0  0  0  0  0  0  0  0  0
    0.5934   21.5657   16.9399 H   0  0  0  0  0  0  0  0  0  0  0  0
    0.0365   21.0455   14.8702 S   0  0  0  0  0  0  0  0  0  0  0  0
   -1.1290   19.9999   14.6350 O   0  0  0  0  0  0  0  0  0  0  0  0
    0.0066   22.2655   13.8940 O   0  0  0  0  0  0  0  0  0  0  0  0
    5.5553   18.6495   14.6207 C   0  0  0  0  0  0  0  0  0  0  0  0
    4.2064   19.2285   14.7477 C   0  0  0  0  0  0  0  0  0  0  0  0
    3.5069   19.2498   16.0074 C   0  0  0  0  0  0  0  0  0  0  0  0
    2.1946   19.8161   16.0773 C   0  0  0  0  0  0  0  0  0  0  0  0
    1.6184   20.3435   14.8698 C   0  0  0  0  0  0  0  0  0  0  0  0
    2.3221   20.3198   13.6237 C   0  0  0  0  0  0  0  0  0  0  0  0
    3.6086   19.7625   13.5713 C   0  0  0  0  0  0  0  0  0  0  0  0
   -0.0476   17.0233   18.2061 C   0  0  0  0  0  0  0  0  0  0  0  0
    0.1545   16.8457   16.9858 O   0  0  0  0  0  0  0  0  0  0  0  0
    0.8970   16.6122   19.2139 O   0  0  0  0  0  0  0  0  0  0  0  0
    1.9153   17.4619   19.8732 C   0  0  0  0  0  0  0  0  0  0  0  0
   -2.5870   16.7454   18.4947 C   0  0  0  0  0  0  0  0  0  0  0  0
   -2.2532   15.2647   18.3422 C   0  0  0  0  0  0  0  0  0  0  0  0
   -1.6812   14.5789   19.4430 C   0  0  0  0  0  0  0  0  0  0  0  0
   -1.3505   13.2012   19.3539 C   0  0  0  0  0  0  0  0  0  0  0  0
   -1.5947   12.4976   18.1457 C   0  0  0  0  0  0  0  0  0  0  0  0
   -2.1813   13.1437   16.9766 C   0  0  0  0  0  0  0  0  0  0  0  0
   -2.5036   14.5509   17.1096 C   0  0  0  0  0  0  0  0  0  0  0  0
   -2.4197   12.4207   15.7856 C   0  0  0  0  0  0  0  0  0  0  0  0
   -1.9439   11.2131   15.5173 N   0  0  0  0  0  0  0  0  0  0  0  0
   -3.1534   12.8717   14.7639 N   0  0  0  0  0  0  0  0  0  0  0  0
   -1.3818   10.7475   16.1780 H   0  0  0  0  0  0  0  0  0  0  0  0
   -2.1525   10.7817   14.6573 H   0  0  0  0  0  0  0  0  0  0  0  0
   -3.5756   13.7596   14.8152 H   0  0  0  0  0  0  0  0  0  0  0  0
  2  1  1  0  0  0
  2  3  1  0  0  0
  1 23  1  0  0  0
  1 19  1  0  0  0
 23 24  1  0  0  0
 19 20  2  0  0  0
 19 21  1  0  0  0
 21 22  1  0  0  0
 24 25  2  0  0  0
 24 29  1  0  0  0
 25 26  1  0  0  0
 26 27  2  0  0  0
 27 28  1  0  0  0
 28 29  2  0  0  0
 28 30  1  0  0  0
 30 31  1  0  0  0
 30 32  2  0  0  0
  3  6  1  0  0  0
  3  4  2  0  0  0
  6  7  1  0  0  0
  7  9  1  0  0  0
 12 13  1  0  0  0
 13 14  1  0  0  0
 13 18  2  0  0  0
 14 15  2  0  0  0
 15 16  1  0  0  0
 16 17  2  0  0  0
 16  9  1  0  0  0
 17 18  1  0  0  0
  9 10  2  0  0  0
  9 11  2  0  0  0
  2  5  1  0  0  0
 31 33  1  0  0  0
 31 34  1  0  0  0
 32 35  1  0  0  0
  7  8  1  0  0  0
M  END
> <minimizedAffinity>
-7.24508

$$$$
