1V2T_ANH_T_800
  RCSB PDB12061704173D
Coordinates from PDB:1V2T:T:800 Model:1 without hydrogens
 30 31  0  0  0  0            999 V2000
   -2.2950   17.9690   16.9110   N 0  0  0  0  0  0  0  0  0  0  0  0
   -3.5390   17.3060   17.3910   C 0  0  0  0  0  0  0  0  0  0  0  0
   -3.1940   16.3550   18.5510   C 0  0  0  0  0  0  0  0  0  0  0  0
   -4.7250   18.2880   17.8240   C 0  0  0  0  0  0  0  0  0  0  0  0
   -5.8640   18.0820   17.3530   O 0  0  0  0  0  0  0  0  0  0  0  0
   -4.4480   19.3740   18.7300   O 0  0  0  0  0  0  0  0  0  0  0  0
   -3.1410   19.7050   19.3430   C 0  0  0  0  0  0  0  0  0  0  0  0
   -2.4180   15.0850   18.2160   C 0  0  0  0  0  0  0  0  0  0  0  0
   -1.3990   14.6560   19.1030   C 0  0  0  0  0  0  0  0  0  0  0  0
   -0.6460   13.4820   18.8380   C 0  0  0  0  0  0  0  0  0  0  0  0
   -0.9150   12.7250   17.6680   C 0  0  0  0  0  0  0  0  0  0  0  0
   -1.9500   13.1110   16.7150   C 0  0  0  0  0  0  0  0  0  0  0  0
   -2.6950   14.3160   17.0230   C 0  0  0  0  0  0  0  0  0  0  0  0
   -2.2030   12.3380   15.5590   C 0  0  0  0  0  0  0  0  0  0  0  0
   -2.6820   12.8080   14.4160   N 0  0  0  0  0  0  0  0  0  0  0  0
   -2.0000   11.0200   15.4740   N 0  0  0  0  0  0  0  0  0  0  0  0
   -2.2320   18.7750   15.8390   C 0  0  0  0  0  0  0  0  0  0  0  0
   -0.9450   19.5430   15.6260   C 0  0  0  0  0  0  0  0  0  0  0  0
   -0.6660   19.8780   14.2110   N 0  0  0  0  0  0  0  0  0  0  0  0
   -3.1560   18.9130   15.0350   O 0  0  0  0  0  0  0  0  0  0  0  0
    3.8860   24.4330   16.2500   C 0  0  0  0  0  0  0  0  0  0  0  0
    2.8060   23.6850   15.5830   C 0  0  0  0  0  0  0  0  0  0  0  0
    3.0340   22.9510   14.3640   C 0  0  0  0  0  0  0  0  0  0  0  0
    1.9500   22.2470   13.7500   C 0  0  0  0  0  0  0  0  0  0  0  0
    0.6590   22.3060   14.3810   C 0  0  0  0  0  0  0  0  0  0  0  0
    0.4430   23.0360   15.5930   C 0  0  0  0  0  0  0  0  0  0  0  0
    1.5160   23.7200   16.1840   C 0  0  0  0  0  0  0  0  0  0  0  0
   -0.7030   21.4820   13.7020   S 0  0  0  0  0  0  0  0  0  0  0  0
   -0.7080   21.4480   12.1190   O 0  0  0  0  0  0  0  0  0  0  0  0
   -2.0190   22.0410   14.3330   O 0  0  0  0  0  0  0  0  0  0  0  0
  1  2  1  0  0  0  0
  1 17  1  0  0  0  0
  2  3  1  0  0  0  0
  2  4  1  0  0  0  0
  3  8  1  0  0  0  0
  4  5  2  0  0  0  0
  4  6  1  0  0  0  0
  6  7  1  0  0  0  0
  8  9  2  0  0  0  0
  8 13  1  0  0  0  0
  9 10  1  0  0  0  0
 10 11  2  0  0  0  0
 11 12  1  0  0  0  0
 12 13  2  0  0  0  0
 12 14  1  0  0  0  0
 14 15  1  0  0  0  0
 14 16  2  0  0  0  0
 17 18  1  0  0  0  0
 17 20  2  0  0  0  0
 18 19  1  0  0  0  0
 19 28  1  0  0  0  0
 21 22  1  0  0  0  0
 22 23  1  0  0  0  0
 22 27  2  0  0  0  0
 23 24  2  0  0  0  0
 24 25  1  0  0  0  0
 25 26  2  0  0  0  0
 25 28  1  0  0  0  0
 26 27  1  0  0  0  0
 28 29  2  0  0  0  0
 28 30  2  0  0  0  0
A    1
N12
A    2
C13
A    3
C30
A    4
C14
A    5
O17
A    6
O15
A    7
C16
A    8
C21
A    9
C22
A   10
C23
A   11
C24
A   12
C25
A   13
C26
A   14
C27
A   15
N28
A   16
N29
A   17
C11
A   18
C10
A   19
N9
A   20
O20
A   21
C1
A   22
C2
A   23
C3
A   24
C4
A   25
C5
A   26
C6
A   27
C7
A   28
S8
A   29
O18
A   30
O19
M  END
>  <InstanceId>
1V2T_ANH_T_800

>  <ChemCompId>
ANH

>  <PdbId>
1V2T

>  <ChainId>
T

>  <ResidueNumber>
800

>  <InsertionCode>


>  <Model>
1

>  <AltIds>


>  <MissingHeavyAtoms>
0

>  <ObservedFormula>
C20 N4 O5 S

>  <Name>
METHYL N-[(4-METHYLPHENYL)SULFONYL]GLYCYL-3-[AMINO(IMINO)METHYL]-D-PHENYLALANINATE

>  <SystematicName>
methyl (2S)-3-(3-carbamimidoylphenyl)-2-[2-[(4-methylphenyl)sulfonylamino]ethanoylamino]propanoate

>  <Synonyms>
NALPHA-(2-NAPHTHYLSULFONYLGLYCYL)-3-AMIDINO-D,L-PHENYLALANINE-ISOPROPYLESTER

>  <Type>
NON-POLYMER

>  <Formula>
C20 H24 N4 O5 S

>  <MolecularWeight>
432.493

>  <ModifiedDate>
2011-06-04

>  <Parent>


>  <OneLetterCode>


>  <SubcomponentList>


>  <AmbiguousFlag>
N

>  <InChI>
InChI=1S/C20H24N4O5S/c1-13-6-8-16(9-7-13)30(27,28)23-12-18(25)24-17(20(26)29-2)11-14-4-3-5-15(10-14)19(21)22/h3-10,17,23H,11-12H2,1-2H3,(H3,21,22)(H,24,25)/t17-/m0/s1

>  <InChIKey>
YAEIKQDHLCFGAA-KRWDZBQOSA-N

>  <SMILES>
Cc1ccc(cc1)S(=O)(=O)NCC(=O)N[C@@H](Cc2cccc(c2)C(=N)N)C(=O)OC

$$$$
