2VT3_ATP_A_302
  RCSB PDB12061707093D
Coordinates from PDB:2VT3:A:302 Model:1 without hydrogens
 31 33  0  0  0  0            999 V2000
   16.9100    7.4790  -34.1450   P 0  0  0  0  0  0  0  0  0  0  0  0
   15.4530    7.2910  -34.5290   O 0  0  0  0  0  0  0  0  0  0  0  0
   17.7200    8.3600  -35.0790   O 0  0  0  0  0  0  0  0  0  0  0  0
   17.5560    6.1910  -33.7250   O 0  0  0  0  0  0  0  0  0  0  0  0
   17.7470    9.0430  -31.7640   P 0  0  0  0  0  0  0  0  0  0  0  0
   16.8600    9.6000  -30.6750   O 0  0  0  0  0  0  0  0  0  0  0  0
   18.8010    8.0740  -31.2800   O 0  0  0  0  0  0  0  0  0  0  0  0
   16.7040    8.2930  -32.7560   O 0  0  0  0  0  0  0  0  0  0  0  0
   19.3350   11.4060  -32.2720   P 0  0  0  0  0  0  0  0  0  0  0  0
   19.4560   11.4330  -30.7710   O 0  0  0  0  0  0  0  0  0  0  0  0
   20.6030   11.4560  -33.0560   O 0  0  0  0  0  0  0  0  0  0  0  0
   18.3690   10.1860  -32.7220   O 0  0  0  0  0  0  0  0  0  0  0  0
   18.4860   12.7040  -32.6870   O 0  0  0  0  0  0  0  0  0  0  0  0
   17.1930   12.8630  -32.1230   C 0  0  0  0  0  0  0  0  0  0  0  0
   16.2380   13.1700  -33.2640   C 0  0  0  0  0  0  0  0  0  0  0  0
   16.5880   14.4700  -33.6960   O 0  0  0  0  0  0  0  0  0  0  0  0
   16.2820   12.2670  -34.5140   C 0  0  0  0  0  0  0  0  0  0  0  0
   14.9550   12.0050  -35.0170   O 0  0  0  0  0  0  0  0  0  0  0  0
   17.0160   13.0880  -35.5380   C 0  0  0  0  0  0  0  0  0  0  0  0
   16.6580   12.8160  -36.8860   O 0  0  0  0  0  0  0  0  0  0  0  0
   16.6080   14.4980  -35.1300   C 0  0  0  0  0  0  0  0  0  0  0  0
   17.5270   15.5320  -35.5880   N 0  0  0  0  0  0  0  0  0  0  0  0
   18.8650   15.4650  -35.6030   C 0  0  0  0  0  0  0  0  0  0  0  0
   19.3650   16.6220  -36.0580   N 0  0  0  0  0  0  0  0  0  0  0  0
   18.3430   17.4460  -36.3350   C 0  0  0  0  0  0  0  0  0  0  0  0
   18.1680   18.8080  -36.8660   C 0  0  0  0  0  0  0  0  0  0  0  0
   19.2300   19.5700  -37.1930   N 0  0  0  0  0  0  0  0  0  0  0  0
   16.9220   19.2930  -36.9830   N 0  0  0  0  0  0  0  0  0  0  0  0
   15.8450   18.5590  -36.6700   C 0  0  0  0  0  0  0  0  0  0  0  0
   15.9360   17.3100  -36.2150   N 0  0  0  0  0  0  0  0  0  0  0  0
   17.1280   16.7150  -36.0350   C 0  0  0  0  0  0  0  0  0  0  0  0
  1  2  2  0  0  0  0
  1  3  1  0  0  0  0
  1  4  1  0  0  0  0
  1  8  1  0  0  0  0
  5  6  2  0  0  0  0
  5  7  1  0  0  0  0
  5  8  1  0  0  0  0
  5 12  1  0  0  0  0
  9 10  2  0  0  0  0
  9 11  1  0  0  0  0
  9 12  1  0  0  0  0
  9 13  1  0  0  0  0
 13 14  1  0  0  0  0
 14 15  1  0  0  0  0
 15 16  1  0  0  0  0
 15 17  1  0  0  0  0
 16 21  1  0  0  0  0
 17 18  1  0  0  0  0
 17 19  1  0  0  0  0
 19 20  1  0  0  0  0
 19 21  1  0  0  0  0
 21 22  1  0  0  0  0
 22 23  1  0  0  0  0
 22 31  1  0  0  0  0
 23 24  2  0  0  0  0
 24 25  1  0  0  0  0
 25 26  1  0  0  0  0
 25 31  2  0  0  0  0
 26 27  1  0  0  0  0
 26 28  2  0  0  0  0
 28 29  1  0  0  0  0
 29 30  2  0  0  0  0
 30 31  1  0  0  0  0
A    1
PG
A    2
O1G
A    3
O2G
A    4
O3G
A    5
PB
A    6
O1B
A    7
O2B
A    8
O3B
A    9
PA
A   10
O1A
A   11
O2A
A   12
O3A
A   13
O5'
A   14
C5'
A   15
C4'
A   16
O4'
A   17
C3'
A   18
O3'
A   19
C2'
A   20
O2'
A   21
C1'
A   22
N9
A   23
C8
A   24
N7
A   25
C5
A   26
C6
A   27
N6
A   28
N1
A   29
C2
A   30
N3
A   31
C4
M  END
>  <InstanceId>
2VT3_ATP_A_302

>  <ChemCompId>
ATP

>  <PdbId>
2VT3

>  <ChainId>
A

>  <ResidueNumber>
302

>  <InsertionCode>


>  <Model>
1

>  <AltIds>


>  <MissingHeavyAtoms>
0

>  <ObservedFormula>
C10 N5 O13 P3

>  <Name>
ADENOSINE-5'-TRIPHOSPHATE

>  <SystematicName>
[[(2R,3S,4R,5R)-5-(6-aminopurin-9-yl)-3,4-dihydroxy-oxolan-2-yl]methoxy-hydroxy-phosphoryl] phosphono hydrogen phosphate

>  <Synonyms>


>  <Type>
NON-POLYMER

>  <Formula>
C10 H16 N5 O13 P3

>  <MolecularWeight>
507.181

>  <ModifiedDate>
2011-06-04

>  <Parent>


>  <OneLetterCode>


>  <SubcomponentList>


>  <AmbiguousFlag>
N

>  <InChI>
InChI=1S/C10H16N5O13P3/c11-8-5-9(13-2-12-8)15(3-14-5)10-7(17)6(16)4(26-10)1-25-30(21,22)28-31(23,24)27-29(18,19)20/h2-4,6-7,10,16-17H,1H2,(H,21,22)(H,23,24)(H2,11,12,13)(H2,18,19,20)/t4-,6-,7-,10-/m1/s1

>  <InChIKey>
ZKHQWZAMYRWXGA-KQYNXXCUSA-N

>  <SMILES>
c1nc(c2c(n1)n(cn2)[C@H]3[C@@H]([C@@H]([C@H](O3)CO[P@@](=O)(O)O[P@](=O)(O)OP(=O)(O)O)O)O)N

$$$$
