3HIG_BRN_A_901


 28 29  0  0  0  0  0  0  0  0999 V2000
  -28.7026  -12.9216   75.5370 N   0  0  0  0  0  0  0  0  0  0  0  0
  -28.0069  -13.3906   76.0522 H   0  0  0  0  0  0  0  0  0  0  0  0
  -28.8805  -13.2605   74.2368 C   0  0  0  0  0  0  0  0  0  0  0  0
  -27.8791  -13.8921   73.4951 C   0  0  0  0  0  0  0  0  0  0  0  0
  -28.0809  -14.1725   72.1458 C   0  0  0  0  0  0  0  0  0  0  0  0
  -29.3170  -13.9317   71.5523 C   0  0  0  0  0  0  0  0  0  0  0  0
  -30.3268  -13.3037   72.2862 C   0  0  0  0  0  0  0  0  0  0  0  0
  -30.1024  -12.9677   73.6216 C   0  0  0  0  0  0  0  0  0  0  0  0
  -29.5279  -14.3086   70.1179 C   0  0  0  0  0  0  0  0  0  0  0  0
  -30.5981  -14.8590   69.7584 N   0  0  0  0  0  0  0  0  0  0  0  0
  -28.5628  -14.1673   69.2230 N   0  0  0  0  0  0  0  0  0  0  0  0
  -31.3321  -14.9767   70.4038 H   0  0  0  0  0  0  0  0  0  0  0  0
  -27.7136  -13.7393   69.4782 H   0  0  0  0  0  0  0  0  0  0  0  0
  -28.6941  -14.4901   68.3023 H   0  0  0  0  0  0  0  0  0  0  0  0
  -29.4227  -11.9855   76.1515 N   0  0  0  0  0  0  0  0  0  0  0  0
  -29.0432  -11.5235   77.2576 N   0  0  0  0  0  0  0  0  0  0  0  0
  -29.7985  -10.5424   77.9191 C   0  0  0  0  0  0  0  0  0  0  0  0
  -29.5043  -10.3138   79.2543 C   0  0  0  0  0  0  0  0  0  0  0  0
  -30.2150   -9.3789   79.9795 C   0  0  0  0  0  0  0  0  0  0  0  0
  -31.2297   -8.6347   79.3973 C   0  0  0  0  0  0  0  0  0  0  0  0
  -31.5395   -8.8519   78.0568 C   0  0  0  0  0  0  0  0  0  0  0  0
  -30.8286   -9.8142   77.3240 C   0  0  0  0  0  0  0  0  0  0  0  0
  -31.9443   -7.6551   80.2801 C   0  0  0  0  0  0  0  0  0  0  0  0
  -31.2710   -6.6780   80.7307 N   0  0  0  0  0  0  0  0  0  0  0  0
  -33.2087   -7.8352   80.6591 N   0  0  0  0  0  0  0  0  0  0  0  0
  -30.3370   -6.5510   80.4463 H   0  0  0  0  0  0  0  0  0  0  0  0
  -33.7251   -8.5952   80.3057 H   0  0  0  0  0  0  0  0  0  0  0  0
  -33.6267   -7.2082   81.2927 H   0  0  0  0  0  0  0  0  0  0  0  0
  3  4  2  0  0  0
  3  8  1  0  0  0
  3  1  1  0  0  0
  4  5  1  0  0  0
  5  6  2  0  0  0
  6  7  1  0  0  0
  6  9  1  0  0  0
  7  8  2  0  0  0
  9 10  2  0  0  0
  9 11  1  0  0  0
  1 15  1  0  0  0
 15 16  2  0  0  0
 16 17  1  0  0  0
 17 18  2  0  0  0
 17 22  1  0  0  0
 18 19  1  0  0  0
 19 20  2  0  0  0
 20 21  1  0  0  0
 20 23  1  0  0  0
 21 22  2  0  0  0
 23 24  2  0  0  0
 23 25  1  0  0  0
 10 12  1  0  0  0
 11 13  1  0  0  0
 11 14  1  0  0  0
  1  2  1  0  0  0
 24 26  1  0  0  0
 25 27  1  0  0  0
 25 28  1  0  0  0
M  END
> <minimizedAffinity>
-10.17001

$$$$
3HIG_BRN_A_901


 28 29  0  0  0  0  0  0  0  0999 V2000
  -29.1687  -13.7977   74.5777 N   0  0  0  0  0  0  0  0  0  0  0  0
  -28.8716  -14.5886   75.0831 H   0  0  0  0  0  0  0  0  0  0  0  0
  -28.9950  -13.7889   73.2335 C   0  0  0  0  0  0  0  0  0  0  0  0
  -30.0756  -13.7256   72.3503 C   0  0  0  0  0  0  0  0  0  0  0  0
  -29.8579  -13.7761   70.9755 C   0  0  0  0  0  0  0  0  0  0  0  0
  -28.5623  -13.7752   70.4658 C   0  0  0  0  0  0  0  0  0  0  0  0
  -27.4742  -13.8348   71.3406 C   0  0  0  0  0  0  0  0  0  0  0  0
  -27.6957  -13.8458   72.7180 C   0  0  0  0  0  0  0  0  0  0  0  0
  -28.3578  -13.7583   68.9819 C   0  0  0  0  0  0  0  0  0  0  0  0
  -29.3065  -13.4592   68.2152 N   0  0  0  0  0  0  0  0  0  0  0  0
  -27.2152  -14.1534   68.4430 N   0  0  0  0  0  0  0  0  0  0  0  0
  -30.1672  -13.1623   68.5897 H   0  0  0  0  0  0  0  0  0  0  0  0
  -26.4554  -14.3938   69.0210 H   0  0  0  0  0  0  0  0  0  0  0  0
  -27.1252  -14.2070   67.4640 H   0  0  0  0  0  0  0  0  0  0  0  0
  -29.7215  -12.7889   75.2480 N   0  0  0  0  0  0  0  0  0  0  0  0
  -29.1253  -12.2856   76.2338 N   0  0  0  0  0  0  0  0  0  0  0  0
  -29.7019  -11.2272   76.9535 C   0  0  0  0  0  0  0  0  0  0  0  0
  -29.2463  -11.0216   78.2465 C   0  0  0  0  0  0  0  0  0  0  0  0
  -29.7768  -10.0135   79.0256 C   0  0  0  0  0  0  0  0  0  0  0  0
  -30.7660   -9.1719   78.5399 C   0  0  0  0  0  0  0  0  0  0  0  0
  -31.2364   -9.3646   77.2431 C   0  0  0  0  0  0  0  0  0  0  0  0
  -30.7092  -10.4001   76.4568 C   0  0  0  0  0  0  0  0  0  0  0  0
  -31.2791   -8.1179   79.4753 C   0  0  0  0  0  0  0  0  0  0  0  0
  -30.4214   -7.3682   80.0352 N   0  0  0  0  0  0  0  0  0  0  0  0
  -32.5703   -8.0159   79.7871 N   0  0  0  0  0  0  0  0  0  0  0  0
  -29.4688   -7.4489   79.7999 H   0  0  0  0  0  0  0  0  0  0  0  0
  -33.2302   -8.6006   79.3489 H   0  0  0  0  0  0  0  0  0  0  0  0
  -32.8647   -7.3559   80.4556 H   0  0  0  0  0  0  0  0  0  0  0  0
  3  4  2  0  0  0
  3  8  1  0  0  0
  3  1  1  0  0  0
  4  5  1  0  0  0
  5  6  2  0  0  0
  6  7  1  0  0  0
  6  9  1  0  0  0
  7  8  2  0  0  0
  9 10  2  0  0  0
  9 11  1  0  0  0
  1 15  1  0  0  0
 15 16  2  0  0  0
 16 17  1  0  0  0
 17 18  2  0  0  0
 17 22  1  0  0  0
 18 19  1  0  0  0
 19 20  2  0  0  0
 20 21  1  0  0  0
 20 23  1  0  0  0
 21 22  2  0  0  0
 23 24  2  0  0  0
 23 25  1  0  0  0
 10 12  1  0  0  0
 11 13  1  0  0  0
 11 14  1  0  0  0
  1  2  1  0  0  0
 24 26  1  0  0  0
 25 27  1  0  0  0
 25 28  1  0  0  0
M  END
> <minimizedAffinity>
-10.06132

$$$$
3HIG_BRN_A_901


 28 29  0  0  0  0  0  0  0  0999 V2000
  -28.8952  -12.1332   77.0312 N   0  0  0  0  0  0  0  0  0  0  0  0
  -28.2664  -12.7036   77.5297 H   0  0  0  0  0  0  0  0  0  0  0  0
  -29.4870  -11.1028   77.6835 C   0  0  0  0  0  0  0  0  0  0  0  0
  -30.4313  -10.2816   77.0626 C   0  0  0  0  0  0  0  0  0  0  0  0
  -30.9742   -9.1984   77.7496 C   0  0  0  0  0  0  0  0  0  0  0  0
  -30.6698   -8.9900   79.0921 C   0  0  0  0  0  0  0  0  0  0  0  0
  -29.7292   -9.8079   79.7237 C   0  0  0  0  0  0  0  0  0  0  0  0
  -29.1399  -10.8561   79.0161 C   0  0  0  0  0  0  0  0  0  0  0  0
  -31.3231   -7.8588   79.8254 C   0  0  0  0  0  0  0  0  0  0  0  0
  -30.6284   -6.9257   80.2987 N   0  0  0  0  0  0  0  0  0  0  0  0
  -32.6221   -7.8663   80.0798 N   0  0  0  0  0  0  0  0  0  0  0  0
  -29.6598   -6.8960   80.1248 H   0  0  0  0  0  0  0  0  0  0  0  0
  -33.1899   -8.5861   79.7210 H   0  0  0  0  0  0  0  0  0  0  0  0
  -33.0204   -7.1520   80.6279 H   0  0  0  0  0  0  0  0  0  0  0  0
  -29.1228  -12.4114   75.7493 N   0  0  0  0  0  0  0  0  0  0  0  0
  -28.3454  -13.1755   75.1227 N   0  0  0  0  0  0  0  0  0  0  0  0
  -28.5702  -13.4696   73.7686 C   0  0  0  0  0  0  0  0  0  0  0  0
  -29.8803  -13.4110   73.3196 C   0  0  0  0  0  0  0  0  0  0  0  0
  -30.1859  -13.7052   72.0062 C   0  0  0  0  0  0  0  0  0  0  0  0
  -29.1986  -14.0536   71.0972 C   0  0  0  0  0  0  0  0  0  0  0  0
  -27.8767  -14.1185   71.5312 C   0  0  0  0  0  0  0  0  0  0  0  0
  -27.5680  -13.8360   72.8703 C   0  0  0  0  0  0  0  0  0  0  0  0
  -29.6434  -14.3644   69.6989 C   0  0  0  0  0  0  0  0  0  0  0  0
  -30.7942  -14.8802   69.5547 N   0  0  0  0  0  0  0  0  0  0  0  0
  -28.8427  -14.1964   68.6475 N   0  0  0  0  0  0  0  0  0  0  0  0
  -31.3807  -15.0014   70.3361 H   0  0  0  0  0  0  0  0  0  0  0  0
  -27.9513  -13.7957   68.7667 H   0  0  0  0  0  0  0  0  0  0  0  0
  -29.1423  -14.4729   67.7514 H   0  0  0  0  0  0  0  0  0  0  0  0
  3  4  2  0  0  0
  3  8  1  0  0  0
  3  1  1  0  0  0
  4  5  1  0  0  0
  5  6  2  0  0  0
  6  7  1  0  0  0
  6  9  1  0  0  0
  7  8  2  0  0  0
  9 10  2  0  0  0
  9 11  1  0  0  0
  1 15  1  0  0  0
 15 16  2  0  0  0
 16 17  1  0  0  0
 17 18  2  0  0  0
 17 22  1  0  0  0
 18 19  1  0  0  0
 19 20  2  0  0  0
 20 21  1  0  0  0
 20 23  1  0  0  0
 21 22  2  0  0  0
 23 24  2  0  0  0
 23 25  1  0  0  0
 10 12  1  0  0  0
 11 13  1  0  0  0
 11 14  1  0  0  0
  1  2  1  0  0  0
 24 26  1  0  0  0
 25 27  1  0  0  0
 25 28  1  0  0  0
M  END
> <minimizedAffinity>
-10.03870

$$$$
3HIG_BRN_A_901


 28 29  0  0  0  0  0  0  0  0999 V2000
  -29.0633  -12.8578   75.7186 N   0  0  0  0  0  0  0  0  0  0  0  0
  -28.6596  -13.6278   76.1805 H   0  0  0  0  0  0  0  0  0  0  0  0
  -29.5110  -11.8197   76.4663 C   0  0  0  0  0  0  0  0  0  0  0  0
  -30.5247  -10.9698   76.0169 C   0  0  0  0  0  0  0  0  0  0  0  0
  -30.9171   -9.8804   76.7910 C   0  0  0  0  0  0  0  0  0  0  0  0
  -30.3871   -9.6923   78.0646 C   0  0  0  0  0  0  0  0  0  0  0  0
  -29.3753  -10.5389   78.5253 C   0  0  0  0  0  0  0  0  0  0  0  0
  -28.9397  -11.5942   77.7233 C   0  0  0  0  0  0  0  0  0  0  0  0
  -30.8794   -8.5528   78.9030 C   0  0  0  0  0  0  0  0  0  0  0  0
  -30.0682   -7.8492   79.5546 N   0  0  0  0  0  0  0  0  0  0  0  0
  -32.1741   -8.3255   79.0586 N   0  0  0  0  0  0  0  0  0  0  0  0
  -29.0997   -7.9973   79.4577 H   0  0  0  0  0  0  0  0  0  0  0  0
  -32.8315   -8.8625   78.5600 H   0  0  0  0  0  0  0  0  0  0  0  0
  -32.4796   -7.6195   79.6730 H   0  0  0  0  0  0  0  0  0  0  0  0
  -29.1428  -12.8869   74.3899 N   0  0  0  0  0  0  0  0  0  0  0  0
  -28.8389  -13.9337   73.7634 N   0  0  0  0  0  0  0  0  0  0  0  0
  -28.9106  -13.9739   72.3619 C   0  0  0  0  0  0  0  0  0  0  0  0
  -27.7294  -13.7760   71.6640 C   0  0  0  0  0  0  0  0  0  0  0  0
  -27.7202  -13.7818   70.2839 C   0  0  0  0  0  0  0  0  0  0  0  0
  -28.8808  -13.9967   69.5564 C   0  0  0  0  0  0  0  0  0  0  0  0
  -30.0771  -14.1964   70.2412 C   0  0  0  0  0  0  0  0  0  0  0  0
  -30.0896  -14.1737   71.6439 C   0  0  0  0  0  0  0  0  0  0  0  0
  -28.7588  -13.9707   68.0617 C   0  0  0  0  0  0  0  0  0  0  0  0
  -29.2415  -12.9656   67.4552 N   0  0  0  0  0  0  0  0  0  0  0  0
  -28.2487  -14.9922   67.3753 N   0  0  0  0  0  0  0  0  0  0  0  0
  -29.6168  -12.2143   67.9688 H   0  0  0  0  0  0  0  0  0  0  0  0
  -27.8760  -15.7686   67.8522 H   0  0  0  0  0  0  0  0  0  0  0  0
  -28.2445  -14.9706   66.3910 H   0  0  0  0  0  0  0  0  0  0  0  0
  3  4  2  0  0  0
  3  8  1  0  0  0
  3  1  1  0  0  0
  4  5  1  0  0  0
  5  6  2  0  0  0
  6  7  1  0  0  0
  6  9  1  0  0  0
  7  8  2  0  0  0
  9 10  2  0  0  0
  9 11  1  0  0  0
  1 15  1  0  0  0
 15 16  2  0  0  0
 16 17  1  0  0  0
 17 18  2  0  0  0
 17 22  1  0  0  0
 18 19  1  0  0  0
 19 20  2  0  0  0
 20 21  1  0  0  0
 20 23  1  0  0  0
 21 22  2  0  0  0
 23 24  2  0  0  0
 23 25  1  0  0  0
 10 12  1  0  0  0
 11 13  1  0  0  0
 11 14  1  0  0  0
  1  2  1  0  0  0
 24 26  1  0  0  0
 25 27  1  0  0  0
 25 28  1  0  0  0
M  END
> <minimizedAffinity>
-9.99260

$$$$
3HIG_BRN_A_901


 28 29  0  0  0  0  0  0  0  0999 V2000
  -31.4609   -7.9268   80.1735 N   0  0  0  0  0  0  0  0  0  0  0  0
  -32.3530   -7.6310   80.4665 H   0  0  0  0  0  0  0  0  0  0  0  0
  -31.3585   -8.6070   79.0056 C   0  0  0  0  0  0  0  0  0  0  0  0
  -30.2027   -9.3125   78.6616 C   0  0  0  0  0  0  0  0  0  0  0  0
  -30.1161   -9.9515   77.4269 C   0  0  0  0  0  0  0  0  0  0  0  0
  -31.2157   -9.9905   76.5739 C   0  0  0  0  0  0  0  0  0  0  0  0
  -32.3779   -9.2912   76.9102 C   0  0  0  0  0  0  0  0  0  0  0  0
  -32.4419   -8.6002   78.1206 C   0  0  0  0  0  0  0  0  0  0  0  0
  -31.1168  -10.7452   75.2837 C   0  0  0  0  0  0  0  0  0  0  0  0
  -30.5556  -11.8682   75.2482 N   0  0  0  0  0  0  0  0  0  0  0  0
  -31.5212  -10.2088   74.1432 N   0  0  0  0  0  0  0  0  0  0  0  0
  -30.2451  -12.2899   76.0819 H   0  0  0  0  0  0  0  0  0  0  0  0
  -31.9640   -9.3294   74.1425 H   0  0  0  0  0  0  0  0  0  0  0  0
  -31.3792  -10.6891   73.2956 H   0  0  0  0  0  0  0  0  0  0  0  0
  -30.4137   -7.6391   80.9438 N   0  0  0  0  0  0  0  0  0  0  0  0
  -29.7797   -6.5673   80.7705 N   0  0  0  0  0  0  0  0  0  0  0  0
  -28.6688   -6.2569   81.5708 C   0  0  0  0  0  0  0  0  0  0  0  0
  -28.8926   -6.1101   82.9309 C   0  0  0  0  0  0  0  0  0  0  0  0
  -27.8555   -5.7862   83.7820 C   0  0  0  0  0  0  0  0  0  0  0  0
  -26.5636   -5.6111   83.3097 C   0  0  0  0  0  0  0  0  0  0  0  0
  -26.3206   -5.7538   81.9456 C   0  0  0  0  0  0  0  0  0  0  0  0
  -27.3779   -6.0663   81.0781 C   0  0  0  0  0  0  0  0  0  0  0  0
  -25.5156   -5.2495   84.3198 C   0  0  0  0  0  0  0  0  0  0  0  0
  -24.7744   -6.1855   84.7509 N   0  0  0  0  0  0  0  0  0  0  0  0
  -25.4108   -4.0201   84.8221 N   0  0  0  0  0  0  0  0  0  0  0  0
  -24.8572   -7.0917   84.3751 H   0  0  0  0  0  0  0  0  0  0  0  0
  -25.9889   -3.2989   84.4831 H   0  0  0  0  0  0  0  0  0  0  0  0
  -24.7554   -3.8328   85.5325 H   0  0  0  0  0  0  0  0  0  0  0  0
  3  4  2  0  0  0
  3  8  1  0  0  0
  3  1  1  0  0  0
  4  5  1  0  0  0
  5  6  2  0  0  0
  6  7  1  0  0  0
  6  9  1  0  0  0
  7  8  2  0  0  0
  9 10  2  0  0  0
  9 11  1  0  0  0
  1 15  1  0  0  0
 15 16  2  0  0  0
 16 17  1  0  0  0
 17 18  2  0  0  0
 17 22  1  0  0  0
 18 19  1  0  0  0
 19 20  2  0  0  0
 20 21  1  0  0  0
 20 23  1  0  0  0
 21 22  2  0  0  0
 23 24  2  0  0  0
 23 25  1  0  0  0
 10 12  1  0  0  0
 11 13  1  0  0  0
 11 14  1  0  0  0
  1  2  1  0  0  0
 24 26  1  0  0  0
 25 27  1  0  0  0
 25 28  1  0  0  0
M  END
> <minimizedAffinity>
-8.63784

$$$$
3HIG_BRN_A_901


 28 29  0  0  0  0  0  0  0  0999 V2000
  -34.5331   -9.9253   75.2528 N   0  0  0  0  0  0  0  0  0  0  0  0
  -35.0954  -10.6905   74.9927 H   0  0  0  0  0  0  0  0  0  0  0  0
  -34.8206   -8.7074   74.7320 C   0  0  0  0  0  0  0  0  0  0  0  0
  -35.4226   -7.7027   75.4934 C   0  0  0  0  0  0  0  0  0  0  0  0
  -35.7535   -6.4842   74.9054 C   0  0  0  0  0  0  0  0  0  0  0  0
  -35.3873   -6.2130   73.5899 C   0  0  0  0  0  0  0  0  0  0  0  0
  -34.7813   -7.2098   72.8205 C   0  0  0  0  0  0  0  0  0  0  0  0
  -34.5053   -8.4518   73.3931 C   0  0  0  0  0  0  0  0  0  0  0  0
  -35.6933   -4.8680   73.0056 C   0  0  0  0  0  0  0  0  0  0  0  0
  -36.4803   -4.7645   72.0323 N   0  0  0  0  0  0  0  0  0  0  0  0
  -35.0701   -3.7793   73.4281 N   0  0  0  0  0  0  0  0  0  0  0  0
  -36.9567   -5.5584   71.6979 H   0  0  0  0  0  0  0  0  0  0  0  0
  -34.4478   -3.8324   74.1892 H   0  0  0  0  0  0  0  0  0  0  0  0
  -35.2289   -2.9165   72.9813 H   0  0  0  0  0  0  0  0  0  0  0  0
  -33.5273  -10.1373   76.0990 N   0  0  0  0  0  0  0  0  0  0  0  0
  -32.6471   -9.2550   76.2652 N   0  0  0  0  0  0  0  0  0  0  0  0
  -31.5773   -9.4703   77.1483 C   0  0  0  0  0  0  0  0  0  0  0  0
  -31.6129   -8.7953   78.3585 C   0  0  0  0  0  0  0  0  0  0  0  0
  -30.5889   -8.9390   79.2727 C   0  0  0  0  0  0  0  0  0  0  0  0
  -29.5061   -9.7668   79.0178 C   0  0  0  0  0  0  0  0  0  0  0  0
  -29.4534  -10.4522   77.8063 C   0  0  0  0  0  0  0  0  0  0  0  0
  -30.4859  -10.2930   76.8698 C   0  0  0  0  0  0  0  0  0  0  0  0
  -28.4448   -9.8400   80.0750 C   0  0  0  0  0  0  0  0  0  0  0  0
  -28.6186  -10.6712   81.0184 N   0  0  0  0  0  0  0  0  0  0  0  0
  -27.4009   -9.0125   80.0885 N   0  0  0  0  0  0  0  0  0  0  0  0
  -29.3923  -11.2798   81.0020 H   0  0  0  0  0  0  0  0  0  0  0  0
  -27.2723   -8.3703   79.3535 H   0  0  0  0  0  0  0  0  0  0  0  0
  -26.7580   -9.0432   80.8335 H   0  0  0  0  0  0  0  0  0  0  0  0
  3  4  2  0  0  0
  3  8  1  0  0  0
  3  1  1  0  0  0
  4  5  1  0  0  0
  5  6  2  0  0  0
  6  7  1  0  0  0
  6  9  1  0  0  0
  7  8  2  0  0  0
  9 10  2  0  0  0
  9 11  1  0  0  0
  1 15  1  0  0  0
 15 16  2  0  0  0
 16 17  1  0  0  0
 17 18  2  0  0  0
 17 22  1  0  0  0
 18 19  1  0  0  0
 19 20  2  0  0  0
 20 21  1  0  0  0
 20 23  1  0  0  0
 21 22  2  0  0  0
 23 24  2  0  0  0
 23 25  1  0  0  0
 10 12  1  0  0  0
 11 13  1  0  0  0
 11 14  1  0  0  0
  1  2  1  0  0  0
 24 26  1  0  0  0
 25 27  1  0  0  0
 25 28  1  0  0  0
M  END
> <minimizedAffinity>
-8.59957

$$$$
3HIG_BRN_A_901


 28 29  0  0  0  0  0  0  0  0999 V2000
  -29.3217   -9.4547   78.0687 N   0  0  0  0  0  0  0  0  0  0  0  0
  -28.8206  -10.2892   77.9211 H   0  0  0  0  0  0  0  0  0  0  0  0
  -28.7794   -8.5114   78.8769 C   0  0  0  0  0  0  0  0  0  0  0  0
  -29.4965   -7.9438   79.9330 C   0  0  0  0  0  0  0  0  0  0  0  0
  -28.9228   -6.9364   80.7051 C   0  0  0  0  0  0  0  0  0  0  0  0
  -27.5956   -6.5652   80.5075 C   0  0  0  0  0  0  0  0  0  0  0  0
  -26.8681   -7.1294   79.4562 C   0  0  0  0  0  0  0  0  0  0  0  0
  -27.4641   -8.0951   78.6445 C   0  0  0  0  0  0  0  0  0  0  0  0
  -26.9831   -5.5289   81.3991 C   0  0  0  0  0  0  0  0  0  0  0  0
  -26.1155   -5.8553   82.2465 N   0  0  0  0  0  0  0  0  0  0  0  0
  -27.4101   -4.2760   81.3877 N   0  0  0  0  0  0  0  0  0  0  0  0
  -25.7806   -6.7805   82.2768 H   0  0  0  0  0  0  0  0  0  0  0  0
  -28.0897   -3.9935   80.7339 H   0  0  0  0  0  0  0  0  0  0  0  0
  -27.0480   -3.6267   82.0331 H   0  0  0  0  0  0  0  0  0  0  0  0
  -30.4990   -9.3078   77.4646 N   0  0  0  0  0  0  0  0  0  0  0  0
  -30.8265  -10.0784   76.5268 N   0  0  0  0  0  0  0  0  0  0  0  0
  -32.0616   -9.9281   75.8766 C   0  0  0  0  0  0  0  0  0  0  0  0
  -32.1854  -10.4968   74.6185 C   0  0  0  0  0  0  0  0  0  0  0  0
  -33.3616  -10.3763   73.9065 C   0  0  0  0  0  0  0  0  0  0  0  0
  -34.4534   -9.6989   74.4276 C   0  0  0  0  0  0  0  0  0  0  0  0
  -34.3464   -9.1203   75.6901 C   0  0  0  0  0  0  0  0  0  0  0  0
  -33.1452   -9.2281   76.4069 C   0  0  0  0  0  0  0  0  0  0  0  0
  -35.6770   -9.6188   73.5640 C   0  0  0  0  0  0  0  0  0  0  0  0
  -36.1601  -10.7114   73.1353 N   0  0  0  0  0  0  0  0  0  0  0  0
  -36.1965   -8.4541   73.1787 N   0  0  0  0  0  0  0  0  0  0  0  0
  -35.7712  -11.5685   73.4242 H   0  0  0  0  0  0  0  0  0  0  0  0
  -35.8167   -7.6104   73.5152 H   0  0  0  0  0  0  0  0  0  0  0  0
  -36.9600   -8.4371   72.5575 H   0  0  0  0  0  0  0  0  0  0  0  0
  3  4  2  0  0  0
  3  8  1  0  0  0
  3  1  1  0  0  0
  4  5  1  0  0  0
  5  6  2  0  0  0
  6  7  1  0  0  0
  6  9  1  0  0  0
  7  8  2  0  0  0
  9 10  2  0  0  0
  9 11  1  0  0  0
  1 15  1  0  0  0
 15 16  2  0  0  0
 16 17  1  0  0  0
 17 18  2  0  0  0
 17 22  1  0  0  0
 18 19  1  0  0  0
 19 20  2  0  0  0
 20 21  1  0  0  0
 20 23  1  0  0  0
 21 22  2  0  0  0
 23 24  2  0  0  0
 23 25  1  0  0  0
 10 12  1  0  0  0
 11 13  1  0  0  0
 11 14  1  0  0  0
  1  2  1  0  0  0
 24 26  1  0  0  0
 25 27  1  0  0  0
 25 28  1  0  0  0
M  END
> <minimizedAffinity>
-8.50632

$$$$
3HIG_BRN_A_901


 28 29  0  0  0  0  0  0  0  0999 V2000
  -30.4184  -10.2050   76.9520 N   0  0  0  0  0  0  0  0  0  0  0  0
  -29.9732  -11.0812   77.0096 H   0  0  0  0  0  0  0  0  0  0  0  0
  -31.5127  -10.0885   76.1608 C   0  0  0  0  0  0  0  0  0  0  0  0
  -32.6487   -9.3865   76.5713 C   0  0  0  0  0  0  0  0  0  0  0  0
  -33.7739   -9.3382   75.7518 C   0  0  0  0  0  0  0  0  0  0  0  0
  -33.7401   -9.8889   74.4736 C   0  0  0  0  0  0  0  0  0  0  0  0
  -32.6073  -10.5902   74.0517 C   0  0  0  0  0  0  0  0  0  0  0  0
  -31.5025  -10.6902   74.8979 C   0  0  0  0  0  0  0  0  0  0  0  0
  -34.9409   -9.7603   73.5874 C   0  0  0  0  0  0  0  0  0  0  0  0
  -35.9548   -9.1325   73.9816 N   0  0  0  0  0  0  0  0  0  0  0  0
  -35.0027  -10.3850   72.4220 N   0  0  0  0  0  0  0  0  0  0  0  0
  -35.9358   -8.6591   74.8446 H   0  0  0  0  0  0  0  0  0  0  0  0
  -34.2224  -10.8845   72.0892 H   0  0  0  0  0  0  0  0  0  0  0  0
  -35.8291  -10.3500   71.8879 H   0  0  0  0  0  0  0  0  0  0  0  0
  -29.9161   -9.1921   77.6551 N   0  0  0  0  0  0  0  0  0  0  0  0
  -28.8634   -9.3503   78.3242 N   0  0  0  0  0  0  0  0  0  0  0  0
  -28.3289   -8.2923   79.0762 C   0  0  0  0  0  0  0  0  0  0  0  0
  -29.0448   -7.8866   80.1917 C   0  0  0  0  0  0  0  0  0  0  0  0
  -28.5954   -6.8405   80.9719 C   0  0  0  0  0  0  0  0  0  0  0  0
  -27.4158   -6.1750   80.6750 C   0  0  0  0  0  0  0  0  0  0  0  0
  -26.6839   -6.5688   79.5572 C   0  0  0  0  0  0  0  0  0  0  0  0
  -27.1493   -7.6209   78.7543 C   0  0  0  0  0  0  0  0  0  0  0  0
  -27.0273   -5.0460   81.5826 C   0  0  0  0  0  0  0  0  0  0  0  0
  -26.1293   -5.2777   82.4493 N   0  0  0  0  0  0  0  0  0  0  0  0
  -27.6505   -3.8688   81.5548 N   0  0  0  0  0  0  0  0  0  0  0  0
  -25.6729   -6.1498   82.4641 H   0  0  0  0  0  0  0  0  0  0  0  0
  -28.3460   -3.6959   80.8798 H   0  0  0  0  0  0  0  0  0  0  0  0
  -27.4155   -3.1719   82.2092 H   0  0  0  0  0  0  0  0  0  0  0  0
  3  4  2  0  0  0
  3  8  1  0  0  0
  3  1  1  0  0  0
  4  5  1  0  0  0
  5  6  2  0  0  0
  6  7  1  0  0  0
  6  9  1  0  0  0
  7  8  2  0  0  0
  9 10  2  0  0  0
  9 11  1  0  0  0
  1 15  1  0  0  0
 15 16  2  0  0  0
 16 17  1  0  0  0
 17 18  2  0  0  0
 17 22  1  0  0  0
 18 19  1  0  0  0
 19 20  2  0  0  0
 20 21  1  0  0  0
 20 23  1  0  0  0
 21 22  2  0  0  0
 23 24  2  0  0  0
 23 25  1  0  0  0
 10 12  1  0  0  0
 11 13  1  0  0  0
 11 14  1  0  0  0
  1  2  1  0  0  0
 24 26  1  0  0  0
 25 27  1  0  0  0
 25 28  1  0  0  0
M  END
> <minimizedAffinity>
-8.49909

$$$$
3HIG_BRN_A_901


 28 29  0  0  0  0  0  0  0  0999 V2000
  -30.2986   -6.5103   81.8563 N   0  0  0  0  0  0  0  0  0  0  0  0
  -31.1652   -6.2853   82.2658 H   0  0  0  0  0  0  0  0  0  0  0  0
  -29.1659   -6.2003   82.5332 C   0  0  0  0  0  0  0  0  0  0  0  0
  -29.1493   -6.0722   83.9243 C   0  0  0  0  0  0  0  0  0  0  0  0
  -27.9776   -5.6966   84.5771 C   0  0  0  0  0  0  0  0  0  0  0  0
  -26.7882   -5.5564   83.8673 C   0  0  0  0  0  0  0  0  0  0  0  0
  -26.7931   -5.6860   82.4759 C   0  0  0  0  0  0  0  0  0  0  0  0
  -27.9810   -6.0025   81.8162 C   0  0  0  0  0  0  0  0  0  0  0  0
  -25.5286   -5.2211   84.6053 C   0  0  0  0  0  0  0  0  0  0  0  0
  -25.3155   -4.0456   84.9931 N   0  0  0  0  0  0  0  0  0  0  0  0
  -24.5730   -6.1213   84.7747 N   0  0  0  0  0  0  0  0  0  0  0  0
  -26.0092   -3.3563   84.8792 H   0  0  0  0  0  0  0  0  0  0  0  0
  -24.7138   -7.0500   84.4798 H   0  0  0  0  0  0  0  0  0  0  0  0
  -23.7216   -5.8622   85.1956 H   0  0  0  0  0  0  0  0  0  0  0  0
  -30.2963   -7.1042   80.6648 N   0  0  0  0  0  0  0  0  0  0  0  0
  -30.6757   -8.2978   80.5551 N   0  0  0  0  0  0  0  0  0  0  0  0
  -30.6698   -8.9375   79.3054 C   0  0  0  0  0  0  0  0  0  0  0  0
  -31.7268   -8.6633   78.4516 C   0  0  0  0  0  0  0  0  0  0  0  0
  -31.8033   -9.2673   77.2129 C   0  0  0  0  0  0  0  0  0  0  0  0
  -30.8264  -10.1512   76.7805 C   0  0  0  0  0  0  0  0  0  0  0  0
  -29.7575  -10.4391   77.6260 C   0  0  0  0  0  0  0  0  0  0  0  0
  -29.6884   -9.8383   78.8918 C   0  0  0  0  0  0  0  0  0  0  0  0
  -31.0148  -10.7587   75.4223 C   0  0  0  0  0  0  0  0  0  0  0  0
  -30.5542  -11.9270   75.2376 N   0  0  0  0  0  0  0  0  0  0  0  0
  -31.5605  -10.0812   74.4133 N   0  0  0  0  0  0  0  0  0  0  0  0
  -30.1523  -12.4219   75.9878 H   0  0  0  0  0  0  0  0  0  0  0  0
  -31.9157   -9.1755   74.5637 H   0  0  0  0  0  0  0  0  0  0  0  0
  -31.6084  -10.4863   73.5173 H   0  0  0  0  0  0  0  0  0  0  0  0
  3  4  2  0  0  0
  3  8  1  0  0  0
  3  1  1  0  0  0
  4  5  1  0  0  0
  5  6  2  0  0  0
  6  7  1  0  0  0
  6  9  1  0  0  0
  7  8  2  0  0  0
  9 10  2  0  0  0
  9 11  1  0  0  0
  1 15  1  0  0  0
 15 16  2  0  0  0
 16 17  1  0  0  0
 17 18  2  0  0  0
 17 22  1  0  0  0
 18 19  1  0  0  0
 19 20  2  0  0  0
 20 21  1  0  0  0
 20 23  1  0  0  0
 21 22  2  0  0  0
 23 24  2  0  0  0
 23 25  1  0  0  0
 10 12  1  0  0  0
 11 13  1  0  0  0
 11 14  1  0  0  0
  1  2  1  0  0  0
 24 26  1  0  0  0
 25 27  1  0  0  0
 25 28  1  0  0  0
M  END
> <minimizedAffinity>
-8.41267

$$$$
3HIG_BRN_A_901


 28 29  0  0  0  0  0  0  0  0999 V2000
  -34.7302   -8.2397   78.5101 N   0  0  0  0  0  0  0  0  0  0  0  0
  -35.4339   -8.0248   79.1643 H   0  0  0  0  0  0  0  0  0  0  0  0
  -35.0987   -8.7638   77.3157 C   0  0  0  0  0  0  0  0  0  0  0  0
  -35.8376   -9.9461   77.2251 C   0  0  0  0  0  0  0  0  0  0  0  0
  -36.1476  -10.4821   75.9774 C   0  0  0  0  0  0  0  0  0  0  0  0
  -35.8255   -9.7908   74.8127 C   0  0  0  0  0  0  0  0  0  0  0  0
  -35.0898   -8.6054   74.8922 C   0  0  0  0  0  0  0  0  0  0  0  0
  -34.7267   -8.1008   76.1413 C   0  0  0  0  0  0  0  0  0  0  0  0
  -36.2338  -10.3566   73.4871 C   0  0  0  0  0  0  0  0  0  0  0  0
  -36.4123  -11.5926   73.3539 N   0  0  0  0  0  0  0  0  0  0  0  0
  -36.3152   -9.5905   72.4107 N   0  0  0  0  0  0  0  0  0  0  0  0
  -36.3574  -12.1853   74.1382 H   0  0  0  0  0  0  0  0  0  0  0  0
  -36.1796   -8.6184   72.4869 H   0  0  0  0  0  0  0  0  0  0  0  0
  -36.5114   -9.9929   71.5339 H   0  0  0  0  0  0  0  0  0  0  0  0
  -33.4631   -8.0012   78.8417 N   0  0  0  0  0  0  0  0  0  0  0  0
  -32.5636   -8.8199   78.5230 N   0  0  0  0  0  0  0  0  0  0  0  0
  -31.2252   -8.5836   78.8744 C   0  0  0  0  0  0  0  0  0  0  0  0
  -30.2518   -9.1731   78.0828 C   0  0  0  0  0  0  0  0  0  0  0  0
  -28.9133   -9.0044   78.3741 C   0  0  0  0  0  0  0  0  0  0  0  0
  -28.5016   -8.2353   79.4518 C   0  0  0  0  0  0  0  0  0  0  0  0
  -29.4662   -7.6362   80.2586 C   0  0  0  0  0  0  0  0  0  0  0  0
  -30.8271   -7.8215   79.9727 C   0  0  0  0  0  0  0  0  0  0  0  0
  -27.0236   -8.1286   79.6835 C   0  0  0  0  0  0  0  0  0  0  0  0
  -26.2693   -8.8743   78.9863 N   0  0  0  0  0  0  0  0  0  0  0  0
  -26.5109   -7.3548   80.6391 N   0  0  0  0  0  0  0  0  0  0  0  0
  -26.6550   -9.4435   78.2817 H   0  0  0  0  0  0  0  0  0  0  0  0
  -27.1019   -6.7789   81.1760 H   0  0  0  0  0  0  0  0  0  0  0  0
  -25.5411   -7.3589   80.8083 H   0  0  0  0  0  0  0  0  0  0  0  0
  3  4  2  0  0  0
  3  8  1  0  0  0
  3  1  1  0  0  0
  4  5  1  0  0  0
  5  6  2  0  0  0
  6  7  1  0  0  0
  6  9  1  0  0  0
  7  8  2  0  0  0
  9 10  2  0  0  0
  9 11  1  0  0  0
  1 15  1  0  0  0
 15 16  2  0  0  0
 16 17  1  0  0  0
 17 18  2  0  0  0
 17 22  1  0  0  0
 18 19  1  0  0  0
 19 20  2  0  0  0
 20 21  1  0  0  0
 20 23  1  0  0  0
 21 22  2  0  0  0
 23 24  2  0  0  0
 23 25  1  0  0  0
 10 12  1  0  0  0
 11 13  1  0  0  0
 11 14  1  0  0  0
  1  2  1  0  0  0
 24 26  1  0  0  0
 25 27  1  0  0  0
 25 28  1  0  0  0
M  END
> <minimizedAffinity>
-8.38633

$$$$
