3HIG_BRN_A_901
  RCSB PDB12061708543D
Coordinates from PDB:3HIG:A:901 Model:1 without hydrogens
 21 22  0  0  0  0            999 V2000
  -29.1450  -11.3280   77.5840   C 0  0  0  0  0  0  0  0  0  0  0  0
  -30.1170  -10.4880   77.0350   C 0  0  0  0  0  0  0  0  0  0  0  0
  -30.7170   -9.5070   77.8210   C 0  0  0  0  0  0  0  0  0  0  0  0
  -30.4400   -9.4270   79.1830   C 0  0  0  0  0  0  0  0  0  0  0  0
  -29.4720  -10.2650   79.7430   C 0  0  0  0  0  0  0  0  0  0  0  0
  -28.8270  -11.2070   78.9410   C 0  0  0  0  0  0  0  0  0  0  0  0
  -31.1530   -8.4080   80.0180   C 0  0  0  0  0  0  0  0  0  0  0  0
  -32.3130   -8.0370   79.7110   N 0  0  0  0  0  0  0  0  0  0  0  0
  -30.5470   -7.8040   81.0280   N 0  0  0  0  0  0  0  0  0  0  0  0
  -28.4990  -12.2580   76.8390   N 0  0  0  0  0  0  0  0  0  0  0  0
  -28.8090  -12.5200   75.5710   N 0  0  0  0  0  0  0  0  0  0  0  0
  -28.1610  -13.3860   74.9300   N 0  0  0  0  0  0  0  0  0  0  0  0
  -28.4730  -13.6650   73.5900   C 0  0  0  0  0  0  0  0  0  0  0  0
  -29.8160  -13.6940   73.2480   C 0  0  0  0  0  0  0  0  0  0  0  0
  -30.2050  -13.9800   71.9550   C 0  0  0  0  0  0  0  0  0  0  0  0
  -29.2720  -14.2330   70.9610   C 0  0  0  0  0  0  0  0  0  0  0  0
  -27.9180  -14.2090   71.2870   C 0  0  0  0  0  0  0  0  0  0  0  0
  -27.5230  -13.9350   72.6050   C 0  0  0  0  0  0  0  0  0  0  0  0
  -29.8050  -14.5440   69.5940   C 0  0  0  0  0  0  0  0  0  0  0  0
  -30.9020  -15.1790   69.5270   N 0  0  0  0  0  0  0  0  0  0  0  0
  -29.1250  -14.2530   68.4860   N 0  0  0  0  0  0  0  0  0  0  0  0
  1  2  2  0  0  0  0
  1  6  1  0  0  0  0
  1 10  1  0  0  0  0
  2  3  1  0  0  0  0
  3  4  2  0  0  0  0
  4  5  1  0  0  0  0
  4  7  1  0  0  0  0
  5  6  2  0  0  0  0
  7  8  2  0  0  0  0
  7  9  1  0  0  0  0
 10 11  1  0  0  0  0
 11 12  2  0  0  0  0
 12 13  1  0  0  0  0
 13 14  2  0  0  0  0
 13 18  1  0  0  0  0
 14 15  1  0  0  0  0
 15 16  2  0  0  0  0
 16 17  1  0  0  0  0
 16 19  1  0  0  0  0
 17 18  2  0  0  0  0
 19 20  2  0  0  0  0
 19 21  1  0  0  0  0
A    1
C1
A    2
C2
A    3
C3
A    4
C4
A    5
C5
A    6
C6
A    7
C7
A    8
NA
A    9
NB
A   10
N1
A   11
N
A   12
N1'
A   13
C1'
A   14
C2'
A   15
C3'
A   16
C4'
A   17
C5'
A   18
C6'
A   19
C7'
A   20
NA'
A   21
NB'
M  END
>  <InstanceId>
3HIG_BRN_A_901

>  <ChemCompId>
BRN

>  <PdbId>
3HIG

>  <ChainId>
A

>  <ResidueNumber>
901

>  <InsertionCode>


>  <Model>
1

>  <AltIds>


>  <MissingHeavyAtoms>
0

>  <ObservedFormula>
C14 N7

>  <Name>
BERENIL

>  <SystematicName>
4-[(2E)-2-(4-carbamimidoylphenyl)iminohydrazinyl]benzenecarboximidamide

>  <Synonyms>
DIMINAZINE ACETURATE; 1,3-TRIS-(4'AMIDINOPHENYL)TRIAZINE

>  <Type>
NON-POLYMER

>  <Formula>
C14 H15 N7

>  <MolecularWeight>
281.316

>  <ModifiedDate>
2011-06-04

>  <Parent>


>  <OneLetterCode>


>  <SubcomponentList>


>  <AmbiguousFlag>
N

>  <InChI>
InChI=1S/C14H15N7/c15-13(16)9-1-5-11(6-2-9)19-21-20-12-7-3-10(4-8-12)14(17)18/h1-8H,(H3,15,16)(H3,17,18)(H,19,20)

>  <InChIKey>
XNYZHCFCZNMTFY-UHFFFAOYSA-N

>  <SMILES>
c1cc(ccc1C(=N)N)N/N=N/c2ccc(cc2)C(=N)N

$$$$
