3QOX_SAH_A_417
  RCSB PDB12061710273D
Coordinates from PDB:3QOX:A:417 Model:1 without hydrogens
 26 28  0  0  0  0            999 V2000
   41.8560   51.3360    1.4430   N 0  0  0  0  0  0  0  0  0  0  0  0
   41.5950   52.7270    1.9560   C 0  0  0  0  0  0  0  0  0  0  0  0
   42.2760   52.9610    3.3260   C 0  0  0  0  0  0  0  0  0  0  0  0
   43.8070   52.8570    3.3140   C 0  0  0  0  0  0  0  0  0  0  0  0
   44.4650   53.1980    4.9230   S 0  0  0  0  0  0  0  0  0  0  0  0
   42.0710   53.7240    0.9240   C 0  0  0  0  0  0  0  0  0  0  0  0
   41.5410   54.8350    0.7830   O 0  0  0  0  0  0  0  0  0  0  0  0
   43.0140   53.4450    0.1850   O 0  0  0  0  0  0  0  0  0  0  0  0
   45.1710   51.6630    5.4490   C 0  0  0  0  0  0  0  0  0  0  0  0
   44.1380   50.8630    6.2410   C 0  0  0  0  0  0  0  0  0  0  0  0
   44.6050   49.5150    6.3440   O 0  0  0  0  0  0  0  0  0  0  0  0
   43.9540   51.3520    7.6820   C 0  0  0  0  0  0  0  0  0  0  0  0
   42.5650   51.5950    7.9370   O 0  0  0  0  0  0  0  0  0  0  0  0
   44.4170   50.1910    8.5490   C 0  0  0  0  0  0  0  0  0  0  0  0
   43.5890   50.0310    9.6960   O 0  0  0  0  0  0  0  0  0  0  0  0
   44.1750   49.0340    7.6140   C 0  0  0  0  0  0  0  0  0  0  0  0
   44.8820   47.8210    8.0420   N 0  0  0  0  0  0  0  0  0  0  0  0
   46.1780   47.7380    8.4470   C 0  0  0  0  0  0  0  0  0  0  0  0
   46.4740   46.4620    8.7670   N 0  0  0  0  0  0  0  0  0  0  0  0
   45.3670   45.7060    8.5770   C 0  0  0  0  0  0  0  0  0  0  0  0
   44.9950   44.2720    8.7310   C 0  0  0  0  0  0  0  0  0  0  0  0
   45.8930   43.3580    9.1770   N 0  0  0  0  0  0  0  0  0  0  0  0
   43.7220   43.9090    8.4150   N 0  0  0  0  0  0  0  0  0  0  0  0
   42.8150   44.8090    7.9680   C 0  0  0  0  0  0  0  0  0  0  0  0
   43.0870   46.1190    7.8160   N 0  0  0  0  0  0  0  0  0  0  0  0
   44.3170   46.6140    8.0890   C 0  0  0  0  0  0  0  0  0  0  0  0
  1  2  1  0  0  0  0
  2  3  1  0  0  0  0
  2  6  1  0  0  0  0
  3  4  1  0  0  0  0
  4  5  1  0  0  0  0
  5  9  1  0  0  0  0
  6  7  2  0  0  0  0
  6  8  1  0  0  0  0
  9 10  1  0  0  0  0
 10 11  1  0  0  0  0
 10 12  1  0  0  0  0
 11 16  1  0  0  0  0
 12 13  1  0  0  0  0
 12 14  1  0  0  0  0
 14 15  1  0  0  0  0
 14 16  1  0  0  0  0
 16 17  1  0  0  0  0
 17 18  1  0  0  0  0
 17 26  1  0  0  0  0
 18 19  2  0  0  0  0
 19 20  1  0  0  0  0
 20 21  1  0  0  0  0
 20 26  2  0  0  0  0
 21 22  1  0  0  0  0
 21 23  2  0  0  0  0
 23 24  1  0  0  0  0
 24 25  2  0  0  0  0
 25 26  1  0  0  0  0
A    1
N
A    2
CA
A    3
CB
A    4
CG
A    5
SD
A    6
C
A    7
O
A    8
OXT
A    9
C5'
A   10
C4'
A   11
O4'
A   12
C3'
A   13
O3'
A   14
C2'
A   15
O2'
A   16
C1'
A   17
N9
A   18
C8
A   19
N7
A   20
C5
A   21
C6
A   22
N6
A   23
N1
A   24
C2
A   25
N3
A   26
C4
M  END
>  <InstanceId>
3QOX_SAH_A_417

>  <ChemCompId>
SAH

>  <PdbId>
3QOX

>  <ChainId>
A

>  <ResidueNumber>
417

>  <InsertionCode>


>  <Model>
1

>  <AltIds>


>  <MissingHeavyAtoms>
0

>  <ObservedFormula>
C14 N6 O5 S

>  <Name>
S-ADENOSYL-L-HOMOCYSTEINE

>  <SystematicName>
(2S)-2-amino-4-[[(2S,3S,4R,5R)-5-(6-aminopurin-9-yl)-3,4-dihydroxy-oxolan-2-yl]methylsulfanyl]butanoic acid

>  <Synonyms>


>  <Type>
L-PEPTIDE LINKING

>  <Formula>
C14 H20 N6 O5 S

>  <MolecularWeight>
384.411

>  <ModifiedDate>
2011-06-04

>  <Parent>
CYS

>  <OneLetterCode>
C

>  <SubcomponentList>


>  <AmbiguousFlag>
N

>  <InChI>
InChI=1S/C14H20N6O5S/c15-6(14(23)24)1-2-26-3-7-9(21)10(22)13(25-7)20-5-19-8-11(16)17-4-18-12(8)20/h4-7,9-10,13,21-22H,1-3,15H2,(H,23,24)(H2,16,17,18)/t6-,7+,9+,10+,13+/m0/s1

>  <InChIKey>
ZJUKTBDSGOFHSH-WFMPWKQPSA-N

>  <SMILES>
c1nc(c2c(n1)n(cn2)[C@H]3[C@@H]([C@@H]([C@H](O3)CSCC[C@@H](C(=O)O)N)O)O)N

$$$$
