5U0F_7R1_A_302


 19 20  0  0  0  0  0  0  0  0999 V2000
   16.1061    4.7520   15.1745 C   0  0  0  0  0  0  0  0  0  0  0  0
   14.8911    4.3862   15.7381 C   0  0  0  0  0  0  0  0  0  0  0  0
   15.8811    2.3683   16.5396 C   0  0  0  0  0  0  0  0  0  0  0  0
   17.2082    3.9308   15.2737 C   0  0  0  0  0  0  0  0  0  0  0  0
   14.7951    3.1856   16.4093 C   0  0  0  0  0  0  0  0  0  0  0  0
   17.0497    2.7717   15.9742 C   0  0  0  0  0  0  0  0  0  0  0  0
   13.6763    1.2799   17.1015 C   0  0  0  0  0  0  0  0  0  0  0  0
   13.6424    2.7077   17.0020 O   0  0  0  0  0  0  0  0  0  0  0  0
   17.3024    0.9430   15.6458 C   0  0  0  0  0  0  0  0  0  0  0  0
   18.1348    1.9964   16.0552 O   0  0  0  0  0  0  0  0  0  0  0  0
   18.5775    4.2048   14.7269 C   0  0  0  0  0  0  0  0  0  0  0  0
   18.9207    3.2269   12.4736 C   0  0  0  0  0  0  0  0  0  0  0  0
   20.5086    4.5688   11.6694 C   0  0  0  0  0  0  0  0  0  0  0  0
   18.5129    4.4581   13.2259 C   0  0  0  0  0  0  0  0  0  0  0  0
   19.9907    3.3325   11.6630 N   0  0  0  0  0  0  0  0  0  0  0  0
   18.2873    2.1971   12.5949 O   0  0  0  0  0  0  0  0  0  0  0  0
   21.7950    5.0902   10.7732 S   0  0  0  0  0  0  0  0  0  0  0  0
   19.6381    5.7260   12.6432 S   0  0  0  0  0  0  0  0  0  0  0  0
   20.3507    2.5885   11.1280 H   0  0  0  0  0  0  0  0  0  0  0  0
  1  2  2  0  0  0
  1  4  1  0  0  0
  2  5  1  0  0  0
  3  5  2  0  0  0
  3  6  1  0  0  0
  4  6  2  0  0  0
  4 11  1  0  0  0
  5  8  1  0  0  0
  6 10  1  0  0  0
 12 14  1  0  0  0
 12 15  1  0  0  0
 12 16  2  0  0  0
 13 15  1  0  0  0
 13 17  2  0  0  0
 13 18  1  0  0  0
 14 11  1  0  0  0
 14 18  1  0  0  0
  7  8  1  0  0  0
  9 10  1  0  0  0
 15 19  1  0  0  0
M  END
> <minimizedAffinity>
-6.49563

$$$$
5U0F_7R1_A_302


 19 20  0  0  0  0  0  0  0  0999 V2000
   16.6838    3.4680   15.0352 C   0  0  0  0  0  0  0  0  0  0  0  0
   16.1308    2.5967   15.9641 C   0  0  0  0  0  0  0  0  0  0  0  0
   16.8138    0.7463   14.6209 C   0  0  0  0  0  0  0  0  0  0  0  0
   17.2895    2.9929   13.8922 C   0  0  0  0  0  0  0  0  0  0  0  0
   16.1971    1.2386   15.7353 C   0  0  0  0  0  0  0  0  0  0  0  0
   17.3437    1.6386   13.7430 C   0  0  0  0  0  0  0  0  0  0  0  0
   14.7957    0.8625   17.5402 C   0  0  0  0  0  0  0  0  0  0  0  0
   15.6766    0.2746   16.5768 O   0  0  0  0  0  0  0  0  0  0  0  0
   16.8265    0.3639   12.4689 C   0  0  0  0  0  0  0  0  0  0  0  0
   17.9376    1.2069   12.6268 O   0  0  0  0  0  0  0  0  0  0  0  0
   17.9355    3.8149   12.8170 C   0  0  0  0  0  0  0  0  0  0  0  0
   16.9741    4.2631   10.5750 C   0  0  0  0  0  0  0  0  0  0  0  0
   17.3644    6.4489   10.3786 C   0  0  0  0  0  0  0  0  0  0  0  0
   16.8847    4.5931   12.0349 C   0  0  0  0  0  0  0  0  0  0  0  0
   17.2366    5.2810    9.7335 N   0  0  0  0  0  0  0  0  0  0  0  0
   16.7971    3.1233   10.1928 O   0  0  0  0  0  0  0  0  0  0  0  0
   17.6460    7.9204    9.6818 S   0  0  0  0  0  0  0  0  0  0  0  0
   17.0860    6.3730   12.0997 S   0  0  0  0  0  0  0  0  0  0  0  0
   17.3244    5.1792    8.7582 H   0  0  0  0  0  0  0  0  0  0  0  0
  1  2  2  0  0  0
  1  4  1  0  0  0
  2  5  1  0  0  0
  3  5  2  0  0  0
  3  6  1  0  0  0
  4  6  2  0  0  0
  4 11  1  0  0  0
  5  8  1  0  0  0
  6 10  1  0  0  0
 12 14  1  0  0  0
 12 15  1  0  0  0
 12 16  2  0  0  0
 13 15  1  0  0  0
 13 17  2  0  0  0
 13 18  1  0  0  0
 14 11  1  0  0  0
 14 18  1  0  0  0
  7  8  1  0  0  0
  9 10  1  0  0  0
 15 19  1  0  0  0
M  END
> <minimizedAffinity>
-6.05604

$$$$
5U0F_7R1_A_302


 19 20  0  0  0  0  0  0  0  0999 V2000
   15.5386    3.2385   14.4296 C   0  0  0  0  0  0  0  0  0  0  0  0
   15.4499    2.6254   15.6721 C   0  0  0  0  0  0  0  0  0  0  0  0
   17.0116    0.9692   14.9560 C   0  0  0  0  0  0  0  0  0  0  0  0
   16.3462    2.7201   13.4405 C   0  0  0  0  0  0  0  0  0  0  0  0
   16.1871    1.4855   15.9142 C   0  0  0  0  0  0  0  0  0  0  0  0
   17.0678    1.6071   13.7569 C   0  0  0  0  0  0  0  0  0  0  0  0
   14.9073    0.9040   17.7545 C   0  0  0  0  0  0  0  0  0  0  0  0
   16.1760    0.7812   17.1025 O   0  0  0  0  0  0  0  0  0  0  0  0
   17.0273   -0.0141   12.8158 C   0  0  0  0  0  0  0  0  0  0  0  0
   17.8426    1.1279   12.7798 O   0  0  0  0  0  0  0  0  0  0  0  0
   16.5461    3.2833   12.0651 C   0  0  0  0  0  0  0  0  0  0  0  0
   16.9269    5.3672   10.7752 C   0  0  0  0  0  0  0  0  0  0  0  0
   19.0842    5.7361   11.1981 C   0  0  0  0  0  0  0  0  0  0  0  0
   16.9498    4.7504   12.1416 C   0  0  0  0  0  0  0  0  0  0  0  0
   18.0865    5.8727   10.3135 N   0  0  0  0  0  0  0  0  0  0  0  0
   15.8918    5.4111   10.1403 O   0  0  0  0  0  0  0  0  0  0  0  0
   20.6362    6.2693   11.0053 S   0  0  0  0  0  0  0  0  0  0  0  0
   18.6228    5.0252   12.7235 S   0  0  0  0  0  0  0  0  0  0  0  0
   18.1894    6.2935    9.4294 H   0  0  0  0  0  0  0  0  0  0  0  0
  1  2  2  0  0  0
  1  4  1  0  0  0
  2  5  1  0  0  0
  3  5  2  0  0  0
  3  6  1  0  0  0
  4  6  2  0  0  0
  4 11  1  0  0  0
  5  8  1  0  0  0
  6 10  1  0  0  0
 12 14  1  0  0  0
 12 15  1  0  0  0
 12 16  2  0  0  0
 13 15  1  0  0  0
 13 17  2  0  0  0
 13 18  1  0  0  0
 14 11  1  0  0  0
 14 18  1  0  0  0
  7  8  1  0  0  0
  9 10  1  0  0  0
 15 19  1  0  0  0
M  END
> <minimizedAffinity>
-5.81226

$$$$
5U0F_7R1_A_302


 19 20  0  0  0  0  0  0  0  0999 V2000
   15.3046    3.4996   14.9232 C   0  0  0  0  0  0  0  0  0  0  0  0
   15.0404    2.5279   15.8791 C   0  0  0  0  0  0  0  0  0  0  0  0
   16.7186    1.1338   14.9122 C   0  0  0  0  0  0  0  0  0  0  0  0
   16.2597    3.2950   13.9511 C   0  0  0  0  0  0  0  0  0  0  0  0
   15.7514    1.3468   15.8522 C   0  0  0  0  0  0  0  0  0  0  0  0
   16.9436    2.1163   14.0000 C   0  0  0  0  0  0  0  0  0  0  0  0
   15.1347    0.7883   18.0134 C   0  0  0  0  0  0  0  0  0  0  0  0
   15.5736    0.3033   16.7398 O   0  0  0  0  0  0  0  0  0  0  0  0
   17.1833    0.7609   12.7268 C   0  0  0  0  0  0  0  0  0  0  0  0
   17.8639    1.9461   13.0467 O   0  0  0  0  0  0  0  0  0  0  0  0
   16.6544    4.2578   12.8712 C   0  0  0  0  0  0  0  0  0  0  0  0
   16.2194    6.5997   12.1799 C   0  0  0  0  0  0  0  0  0  0  0  0
   18.0852    7.5988   12.8793 C   0  0  0  0  0  0  0  0  0  0  0  0
   16.4808    5.6948   13.3466 C   0  0  0  0  0  0  0  0  0  0  0  0
   17.1026    7.5938   11.9678 N   0  0  0  0  0  0  0  0  0  0  0  0
   15.2385    6.4321   11.4827 O   0  0  0  0  0  0  0  0  0  0  0  0
   19.3238    8.6887   12.9697 S   0  0  0  0  0  0  0  0  0  0  0  0
   17.9339    6.3923   14.1310 S   0  0  0  0  0  0  0  0  0  0  0  0
   17.0344    8.2413   11.2293 H   0  0  0  0  0  0  0  0  0  0  0  0
  1  2  2  0  0  0
  1  4  1  0  0  0
  2  5  1  0  0  0
  3  5  2  0  0  0
  3  6  1  0  0  0
  4  6  2  0  0  0
  4 11  1  0  0  0
  5  8  1  0  0  0
  6 10  1  0  0  0
 12 14  1  0  0  0
 12 15  1  0  0  0
 12 16  2  0  0  0
 13 15  1  0  0  0
 13 17  2  0  0  0
 13 18  1  0  0  0
 14 11  1  0  0  0
 14 18  1  0  0  0
  7  8  1  0  0  0
  9 10  1  0  0  0
 15 19  1  0  0  0
M  END
> <minimizedAffinity>
-5.79989

$$$$
5U0F_7R1_A_302


 19 20  0  0  0  0  0  0  0  0999 V2000
   15.6289    4.4347   14.2256 C   0  0  0  0  0  0  0  0  0  0  0  0
   14.8666    4.4060   15.3857 C   0  0  0  0  0  0  0  0  0  0  0  0
   16.0687    2.4786   16.1167 C   0  0  0  0  0  0  0  0  0  0  0  0
   16.6007    3.4856   13.9935 C   0  0  0  0  0  0  0  0  0  0  0  0
   15.0945    3.4143   16.3162 C   0  0  0  0  0  0  0  0  0  0  0  0
   16.7914    2.5506   14.9676 C   0  0  0  0  0  0  0  0  0  0  0  0
   14.8818    2.1515   18.2456 C   0  0  0  0  0  0  0  0  0  0  0  0
   14.3974    3.2739   17.5005 O   0  0  0  0  0  0  0  0  0  0  0  0
   16.7938    0.6798   15.0945 C   0  0  0  0  0  0  0  0  0  0  0  0
   17.7405    1.6446   14.7162 O   0  0  0  0  0  0  0  0  0  0  0  0
   17.5012    3.4045   12.7971 C   0  0  0  0  0  0  0  0  0  0  0  0
   17.2534    4.1683   10.4504 C   0  0  0  0  0  0  0  0  0  0  0  0
   18.9976    5.5443   10.2689 C   0  0  0  0  0  0  0  0  0  0  0  0
   17.2869    4.6054   11.8843 C   0  0  0  0  0  0  0  0  0  0  0  0
   18.1859    4.6896    9.6308 N   0  0  0  0  0  0  0  0  0  0  0  0
   16.4023    3.3903   10.0671 O   0  0  0  0  0  0  0  0  0  0  0  0
   20.2309    6.4080    9.5883 S   0  0  0  0  0  0  0  0  0  0  0  0
   18.6020    5.8218   11.9457 S   0  0  0  0  0  0  0  0  0  0  0  0
   18.2625    4.4687    8.6744 H   0  0  0  0  0  0  0  0  0  0  0  0
  1  2  2  0  0  0
  1  4  1  0  0  0
  2  5  1  0  0  0
  3  5  2  0  0  0
  3  6  1  0  0  0
  4  6  2  0  0  0
  4 11  1  0  0  0
  5  8  1  0  0  0
  6 10  1  0  0  0
 12 14  1  0  0  0
 12 15  1  0  0  0
 12 16  2  0  0  0
 13 15  1  0  0  0
 13 17  2  0  0  0
 13 18  1  0  0  0
 14 11  1  0  0  0
 14 18  1  0  0  0
  7  8  1  0  0  0
  9 10  1  0  0  0
 15 19  1  0  0  0
M  END
> <minimizedAffinity>
-5.73427

$$$$
5U0F_7R1_A_302


 19 20  0  0  0  0  0  0  0  0999 V2000
   17.8660    3.8082   12.0985 C   0  0  0  0  0  0  0  0  0  0  0  0
   18.8445    4.1645   11.1802 C   0  0  0  0  0  0  0  0  0  0  0  0
   19.1928    1.8593   10.6712 C   0  0  0  0  0  0  0  0  0  0  0  0
   17.5532    2.4849   12.3220 C   0  0  0  0  0  0  0  0  0  0  0  0
   19.5042    3.1752   10.4821 C   0  0  0  0  0  0  0  0  0  0  0  0
   18.2251    1.5606   11.5779 C   0  0  0  0  0  0  0  0  0  0  0  0
   21.7331    3.7367   10.1995 C   0  0  0  0  0  0  0  0  0  0  0  0
   20.5006    3.4017    9.5525 O   0  0  0  0  0  0  0  0  0  0  0  0
   17.7727    0.1544   10.4231 C   0  0  0  0  0  0  0  0  0  0  0  0
   17.9003    0.2865   11.8146 O   0  0  0  0  0  0  0  0  0  0  0  0
   16.5155    1.9609   13.2694 C   0  0  0  0  0  0  0  0  0  0  0  0
   16.6562    0.6661   15.3802 C   0  0  0  0  0  0  0  0  0  0  0  0
   15.6488    2.0606   16.7977 C   0  0  0  0  0  0  0  0  0  0  0  0
   17.0550    1.9383   14.6941 C   0  0  0  0  0  0  0  0  0  0  0  0
   15.9041    0.7810   16.4912 N   0  0  0  0  0  0  0  0  0  0  0  0
   17.0224   -0.4066   14.9424 O   0  0  0  0  0  0  0  0  0  0  0  0
   14.7962    2.5966   18.1076 S   0  0  0  0  0  0  0  0  0  0  0  0
   16.4045    3.2331   15.7492 S   0  0  0  0  0  0  0  0  0  0  0  0
   15.5796    0.0145   17.0170 H   0  0  0  0  0  0  0  0  0  0  0  0
  1  2  2  0  0  0
  1  4  1  0  0  0
  2  5  1  0  0  0
  3  5  2  0  0  0
  3  6  1  0  0  0
  4  6  2  0  0  0
  4 11  1  0  0  0
  5  8  1  0  0  0
  6 10  1  0  0  0
 12 14  1  0  0  0
 12 15  1  0  0  0
 12 16  2  0  0  0
 13 15  1  0  0  0
 13 17  2  0  0  0
 13 18  1  0  0  0
 14 11  1  0  0  0
 14 18  1  0  0  0
  7  8  1  0  0  0
  9 10  1  0  0  0
 15 19  1  0  0  0
M  END
> <minimizedAffinity>
-5.73403

$$$$
5U0F_7R1_A_302


 19 20  0  0  0  0  0  0  0  0999 V2000
   18.4343    5.3492   13.7833 C   0  0  0  0  0  0  0  0  0  0  0  0
   19.4656    6.1627   13.3334 C   0  0  0  0  0  0  0  0  0  0  0  0
   20.2811    4.3687   11.9877 C   0  0  0  0  0  0  0  0  0  0  0  0
   18.3245    4.0438   13.3556 C   0  0  0  0  0  0  0  0  0  0  0  0
   20.3856    5.6519   12.4424 C   0  0  0  0  0  0  0  0  0  0  0  0
   19.2521    3.6126   12.4539 C   0  0  0  0  0  0  0  0  0  0  0  0
   21.6911    6.0069   10.5628 C   0  0  0  0  0  0  0  0  0  0  0  0
   21.4584    6.3565   11.9316 O   0  0  0  0  0  0  0  0  0  0  0  0
   19.2984    2.8292   10.7510 C   0  0  0  0  0  0  0  0  0  0  0  0
   19.1200    2.3441   12.0560 O   0  0  0  0  0  0  0  0  0  0  0  0
   17.2601    3.0628   13.7477 C   0  0  0  0  0  0  0  0  0  0  0  0
   17.2126    2.1435   16.0508 C   0  0  0  0  0  0  0  0  0  0  0  0
   15.0160    1.9985   16.4012 C   0  0  0  0  0  0  0  0  0  0  0  0
   16.8161    3.3019   15.1854 C   0  0  0  0  0  0  0  0  0  0  0  0
   16.2209    1.4774   16.6721 N   0  0  0  0  0  0  0  0  0  0  0  0
   18.3843    1.8497   16.1818 O   0  0  0  0  0  0  0  0  0  0  0  0
   13.5710    1.4789   17.0111 S   0  0  0  0  0  0  0  0  0  0  0  0
   15.0406    3.4259   15.3975 S   0  0  0  0  0  0  0  0  0  0  0  0
   16.3641    0.6987   17.2572 H   0  0  0  0  0  0  0  0  0  0  0  0
  1  2  2  0  0  0
  1  4  1  0  0  0
  2  5  1  0  0  0
  3  5  2  0  0  0
  3  6  1  0  0  0
  4  6  2  0  0  0
  4 11  1  0  0  0
  5  8  1  0  0  0
  6 10  1  0  0  0
 12 14  1  0  0  0
 12 15  1  0  0  0
 12 16  2  0  0  0
 13 15  1  0  0  0
 13 17  2  0  0  0
 13 18  1  0  0  0
 14 11  1  0  0  0
 14 18  1  0  0  0
  7  8  1  0  0  0
  9 10  1  0  0  0
 15 19  1  0  0  0
M  END
> <minimizedAffinity>
-5.70569

$$$$
5U0F_7R1_A_302


 19 20  0  0  0  0  0  0  0  0999 V2000
   16.2762    2.2592   11.8303 C   0  0  0  0  0  0  0  0  0  0  0  0
   16.2865    0.9598   11.3412 C   0  0  0  0  0  0  0  0  0  0  0  0
   18.6718    1.0091   11.2875 C   0  0  0  0  0  0  0  0  0  0  0  0
   17.4523    2.9469   12.0376 C   0  0  0  0  0  0  0  0  0  0  0  0
   17.4943    0.3539   11.0666 C   0  0  0  0  0  0  0  0  0  0  0  0
   18.6103    2.2781   11.7709 C   0  0  0  0  0  0  0  0  0  0  0  0
   18.2013   -1.7966   11.5546 C   0  0  0  0  0  0  0  0  0  0  0  0
   17.6346   -0.9269   10.5686 O   0  0  0  0  0  0  0  0  0  0  0  0
   20.0908    2.6166   10.6713 C   0  0  0  0  0  0  0  0  0  0  0  0
   19.7343    2.9687   11.9824 O   0  0  0  0  0  0  0  0  0  0  0  0
   17.5882    4.3422   12.5702 C   0  0  0  0  0  0  0  0  0  0  0  0
   18.2022    3.8055   14.9125 C   0  0  0  0  0  0  0  0  0  0  0  0
   16.5605    2.4036   15.4677 C   0  0  0  0  0  0  0  0  0  0  0  0
   17.1493    4.4031   14.0279 C   0  0  0  0  0  0  0  0  0  0  0  0
   17.8442    2.7407   15.6549 N   0  0  0  0  0  0  0  0  0  0  0  0
   19.3160    4.2896   14.9519 O   0  0  0  0  0  0  0  0  0  0  0  0
   15.7534    1.1813   16.2322 S   0  0  0  0  0  0  0  0  0  0  0  0
   15.6731    3.4543   14.3935 S   0  0  0  0  0  0  0  0  0  0  0  0
   18.4542    2.2652   16.2641 H   0  0  0  0  0  0  0  0  0  0  0  0
  1  2  2  0  0  0
  1  4  1  0  0  0
  2  5  1  0  0  0
  3  5  2  0  0  0
  3  6  1  0  0  0
  4  6  2  0  0  0
  4 11  1  0  0  0
  5  8  1  0  0  0
  6 10  1  0  0  0
 12 14  1  0  0  0
 12 15  1  0  0  0
 12 16  2  0  0  0
 13 15  1  0  0  0
 13 17  2  0  0  0
 13 18  1  0  0  0
 14 11  1  0  0  0
 14 18  1  0  0  0
  7  8  1  0  0  0
  9 10  1  0  0  0
 15 19  1  0  0  0
M  END
> <minimizedAffinity>
-5.58733

$$$$
5U0F_7R1_A_302


 19 20  0  0  0  0  0  0  0  0999 V2000
   18.3212    1.8579   10.9824 C   0  0  0  0  0  0  0  0  0  0  0  0
   18.1863    0.4821   10.8533 C   0  0  0  0  0  0  0  0  0  0  0  0
   16.7414    0.4550   12.7523 C   0  0  0  0  0  0  0  0  0  0  0  0
   17.6853    2.5393   11.9975 C   0  0  0  0  0  0  0  0  0  0  0  0
   17.3993   -0.2042   11.7537 C   0  0  0  0  0  0  0  0  0  0  0  0
   16.9014    1.8024   12.8353 C   0  0  0  0  0  0  0  0  0  0  0  0
   18.3885   -2.2574   11.3427 C   0  0  0  0  0  0  0  0  0  0  0  0
   17.1956   -1.5704   11.7363 O   0  0  0  0  0  0  0  0  0  0  0  0
   16.7199    1.4662   14.6710 C   0  0  0  0  0  0  0  0  0  0  0  0
   16.2964    2.4893   13.8084 O   0  0  0  0  0  0  0  0  0  0  0  0
   17.7325    4.0174   12.2463 C   0  0  0  0  0  0  0  0  0  0  0  0
   19.2575    4.9187   13.9823 C   0  0  0  0  0  0  0  0  0  0  0  0
   19.8777    6.8417   13.0410 C   0  0  0  0  0  0  0  0  0  0  0  0
   19.1561    4.4619   12.5578 C   0  0  0  0  0  0  0  0  0  0  0  0
   19.6391    6.1932   14.1896 N   0  0  0  0  0  0  0  0  0  0  0  0
   19.0167    4.1487   14.8909 O   0  0  0  0  0  0  0  0  0  0  0  0
   20.4020    8.4017   12.8944 S   0  0  0  0  0  0  0  0  0  0  0  0
   19.7146    5.8705   11.6003 S   0  0  0  0  0  0  0  0  0  0  0  0
   19.7321    6.6012   15.0807 H   0  0  0  0  0  0  0  0  0  0  0  0
  1  2  2  0  0  0
  1  4  1  0  0  0
  2  5  1  0  0  0
  3  5  2  0  0  0
  3  6  1  0  0  0
  4  6  2  0  0  0
  4 11  1  0  0  0
  5  8  1  0  0  0
  6 10  1  0  0  0
 12 14  1  0  0  0
 12 15  1  0  0  0
 12 16  2  0  0  0
 13 15  1  0  0  0
 13 17  2  0  0  0
 13 18  1  0  0  0
 14 11  1  0  0  0
 14 18  1  0  0  0
  7  8  1  0  0  0
  9 10  1  0  0  0
 15 19  1  0  0  0
M  END
> <minimizedAffinity>
-5.37482

$$$$
5U0F_7R1_A_302


 19 20  0  0  0  0  0  0  0  0999 V2000
   16.5002    2.9653   13.2455 C   0  0  0  0  0  0  0  0  0  0  0  0
   16.2117    2.3942   14.4777 C   0  0  0  0  0  0  0  0  0  0  0  0
   17.0741    0.3086   13.7022 C   0  0  0  0  0  0  0  0  0  0  0  0
   17.0601    2.2176   12.2323 C   0  0  0  0  0  0  0  0  0  0  0  0
   16.4973    1.0612   14.6848 C   0  0  0  0  0  0  0  0  0  0  0  0
   17.3413    0.9135   12.5145 C   0  0  0  0  0  0  0  0  0  0  0  0
   15.6468    1.2410   16.8312 C   0  0  0  0  0  0  0  0  0  0  0  0
   16.2484    0.3785   15.8596 O   0  0  0  0  0  0  0  0  0  0  0  0
   16.9276   -0.7715   11.8036 C   0  0  0  0  0  0  0  0  0  0  0  0
   17.8848    0.2136   11.5146 O   0  0  0  0  0  0  0  0  0  0  0  0
   17.4332    2.7058   10.8644 C   0  0  0  0  0  0  0  0  0  0  0  0
   19.6356    3.3142   11.8292 C   0  0  0  0  0  0  0  0  0  0  0  0
   19.0866    5.1069   13.0348 C   0  0  0  0  0  0  0  0  0  0  0  0
   18.5098    3.7801   10.9554 C   0  0  0  0  0  0  0  0  0  0  0  0
   19.9014    4.0482   12.9264 N   0  0  0  0  0  0  0  0  0  0  0  0
   20.2746    2.3251   11.5296 O   0  0  0  0  0  0  0  0  0  0  0  0
   19.1353    6.2555   14.2217 S   0  0  0  0  0  0  0  0  0  0  0  0
   17.9632    5.3089   11.7148 S   0  0  0  0  0  0  0  0  0  0  0  0
   20.6113    3.8324   13.5735 H   0  0  0  0  0  0  0  0  0  0  0  0
  1  2  2  0  0  0
  1  4  1  0  0  0
  2  5  1  0  0  0
  3  5  2  0  0  0
  3  6  1  0  0  0
  4  6  2  0  0  0
  4 11  1  0  0  0
  5  8  1  0  0  0
  6 10  1  0  0  0
 12 14  1  0  0  0
 12 15  1  0  0  0
 12 16  2  0  0  0
 13 15  1  0  0  0
 13 17  2  0  0  0
 13 18  1  0  0  0
 14 11  1  0  0  0
 14 18  1  0  0  0
  7  8  1  0  0  0
  9 10  1  0  0  0
 15 19  1  0  0  0
M  END
> <minimizedAffinity>
-5.23737

$$$$
