3D1Y_ROC_A_201


 55 59  0  0  0  0  0  0  0  0999 V2000
   17.3552   23.9014   18.5260 C   0  0  0  0  0  0  0  0  0  0  0  0
   19.1042   24.8044   17.0973 C   0  0  0  0  0  0  0  0  0  0  0  0
   19.0535   23.8424   16.3256 O   0  0  0  0  0  0  0  0  0  0  0  0
   18.3249   24.9200   18.1813 N   0  0  0  0  0  0  0  0  0  0  0  0
   18.4136   25.7146   18.7556 H   0  0  0  0  0  0  0  0  0  0  0  0
   20.0600   25.9536   16.8869 C   0  0  0  0  0  0  0  0  0  0  0  0
   21.5323   26.5561   18.8272 C   0  0  0  0  0  0  0  0  0  0  0  0
   20.8931   27.5986   19.0314 O   0  0  0  0  0  0  0  0  0  0  0  0
   21.2434   25.7470   17.7791 N   0  0  0  0  0  0  0  0  0  0  0  0
   21.8411   24.9865   17.5958 H   0  0  0  0  0  0  0  0  0  0  0  0
   23.4755   25.0792   19.1364 N   0  0  0  0  0  0  0  0  0  0  0  0
   22.6683   26.0327   19.6520 C   0  0  0  0  0  0  0  0  0  0  0  0
   22.8662   26.5363   20.9160 C   0  0  0  0  0  0  0  0  0  0  0  0
   23.9180   26.0583   21.6955 C   0  0  0  0  0  0  0  0  0  0  0  0
   25.8898   24.4909   21.8787 C   0  0  0  0  0  0  0  0  0  0  0  0
   26.6953   23.4991   21.2864 C   0  0  0  0  0  0  0  0  0  0  0  0
   26.4151   23.0412   19.9763 C   0  0  0  0  0  0  0  0  0  0  0  0
   25.3398   23.5871   19.2922 C   0  0  0  0  0  0  0  0  0  0  0  0
   24.8074   25.0416   21.1920 C   0  0  0  0  0  0  0  0  0  0  0  0
   24.5204   24.5762   19.8547 C   0  0  0  0  0  0  0  0  0  0  0  0
   20.3653   26.0971   15.4148 C   0  0  0  0  0  0  0  0  0  0  0  0
   20.3056   27.5854   15.1391 C   0  0  0  0  0  0  0  0  0  0  0  0
   21.0041   28.3627   15.7799 O   0  0  0  0  0  0  0  0  0  0  0  0
   19.4701   28.0272   14.1760 N   0  0  0  0  0  0  0  0  0  0  0  0
   18.9172   27.3871   13.6723 H   0  0  0  0  0  0  0  0  0  0  0  0
   19.4135   28.9898   13.9770 H   0  0  0  0  0  0  0  0  0  0  0  0
   15.9573   24.3870   18.0540 C   0  0  0  0  0  0  0  0  0  0  0  0
   15.5099   25.5695   18.7022 O   0  0  0  0  0  0  0  0  0  0  0  0
   15.3489   25.3829   19.6403 H   0  0  0  0  0  0  0  0  0  0  0  0
   14.8720   23.3466   18.1273 C   0  0  0  0  0  0  0  0  0  0  0  0
   14.7264   22.5823   16.9067 N   0  0  0  0  0  0  0  0  0  0  0  0
   13.8716   21.4001   17.1032 C   0  0  0  0  0  0  0  0  0  0  0  0
   13.8078   20.5992   15.7877 C   0  0  0  0  0  0  0  0  0  0  0  0
   13.1600   21.4576   14.6811 C   0  0  0  0  0  0  0  0  0  0  0  0
   13.1687   20.7201   13.3017 C   0  0  0  0  0  0  0  0  0  0  0  0
   14.6179   20.4512   12.8197 C   0  0  0  0  0  0  0  0  0  0  0  0
   15.2598   21.8270   12.6054 C   0  0  0  0  0  0  0  0  0  0  0  0
   15.3603   22.5143   13.9839 C   0  0  0  0  0  0  0  0  0  0  0  0
   13.9615   22.7586   14.5972 C   0  0  0  0  0  0  0  0  0  0  0  0
   14.0247   23.4620   15.9120 C   0  0  0  0  0  0  0  0  0  0  0  0
   14.6054   20.4710   18.0722 C   0  0  0  0  0  0  0  0  0  0  0  0
   15.7848   20.1655   18.0113 O   0  0  0  0  0  0  0  0  0  0  0  0
   13.7614   20.0082   19.0425 N   0  0  0  0  0  0  0  0  0  0  0  0
   12.8370   20.3467   19.0524 H   0  0  0  0  0  0  0  0  0  0  0  0
   14.1558   19.0267   20.0806 C   0  0  0  0  0  0  0  0  0  0  0  0
   14.7525   17.7663   19.4416 C   0  0  0  0  0  0  0  0  0  0  0  0
   12.8470   18.7541   20.8638 C   0  0  0  0  0  0  0  0  0  0  0  0
   15.2433   19.6639   21.0079 C   0  0  0  0  0  0  0  0  0  0  0  0
   17.3294   23.6006   20.0193 C   0  0  0  0  0  0  0  0  0  0  0  0
   18.7138   23.3457   20.5915 C   0  0  0  0  0  0  0  0  0  0  0  0
   19.4590   22.2306   20.2249 C   0  0  0  0  0  0  0  0  0  0  0  0
   19.2616   24.2694   21.4459 C   0  0  0  0  0  0  0  0  0  0  0  0
   20.7930   22.0777   20.7544 C   0  0  0  0  0  0  0  0  0  0  0  0
   20.5486   24.1500   21.9749 C   0  0  0  0  0  0  0  0  0  0  0  0
   21.3142   23.0154   21.6062 C   0  0  0  0  0  0  0  0  0  0  0  0
  8  7  2  0  0  0
  7 12  1  0  0  0
 11 12  2  0  0  0
 11 20  1  0  0  0
 12 13  1  0  0  0
 13 14  2  0  0  0
 14 19  1  0  0  0
 19 15  2  0  0  0
 19 20  1  0  0  0
 15 16  1  0  0  0
 16 17  2  0  0  0
 17 18  1  0  0  0
 18 20  2  0  0  0
  9  6  1  0  0  0
  6  2  1  0  0  0
  6 21  1  0  0  0
  2  3  2  0  0  0
 21 22  1  0  0  0
 22 23  2  0  0  0
 22 24  1  0  0  0
 27 28  1  0  0  0
 27  1  1  0  0  0
  1  4  1  0  0  0
  1 49  1  0  0  0
 49 50  1  0  0  0
 50 51  2  0  0  0
 50 52  1  0  0  0
 51 53  1  0  0  0
 52 54  2  0  0  0
 53 55  2  0  0  0
 54 55  1  0  0  0
 31 30  1  0  0  0
 31 32  1  0  0  0
 31 40  1  0  0  0
 32 41  1  0  0  0
 32 33  1  0  0  0
 41 42  2  0  0  0
 33 34  1  0  0  0
 34 35  1  0  0  0
 34 39  1  0  0  0
 35 36  1  0  0  0
 36 37  1  0  0  0
 37 38  1  0  0  0
 38 39  1  0  0  0
 39 40  1  0  0  0
 43 45  1  0  0  0
 45 46  1  0  0  0
 45 47  1  0  0  0
 45 48  1  0  0  0
  7  9  1  0  0  0
  2  4  1  0  0  0
 27 30  1  0  0  0
 41 43  1  0  0  0
  9 10  1  0  0  0
 24 25  1  0  0  0
 24 26  1  0  0  0
 28 29  1  0  0  0
  4  5  1  0  0  0
 43 44  1  0  0  0
M  END
> <minimizedAffinity>
-12.50855

$$$$
3D1Y_ROC_A_201


 55 59  0  0  0  0  0  0  0  0999 V2000
   17.5969   23.7742   18.3945 C   0  0  0  0  0  0  0  0  0  0  0  0
   19.1711   24.8661   16.8961 C   0  0  0  0  0  0  0  0  0  0  0  0
   19.4163   23.8176   16.2927 O   0  0  0  0  0  0  0  0  0  0  0  0
   18.3089   24.9420   17.9190 N   0  0  0  0  0  0  0  0  0  0  0  0
   18.1563   25.8105   18.3568 H   0  0  0  0  0  0  0  0  0  0  0  0
   19.8276   26.1754   16.5310 C   0  0  0  0  0  0  0  0  0  0  0  0
   21.4874   26.8766   18.2770 C   0  0  0  0  0  0  0  0  0  0  0  0
   20.6573   27.6253   18.8131 O   0  0  0  0  0  0  0  0  0  0  0  0
   21.1940   26.1994   17.1404 N   0  0  0  0  0  0  0  0  0  0  0  0
   21.9148   25.6990   16.6939 H   0  0  0  0  0  0  0  0  0  0  0  0
   23.0556   25.8922   19.8972 N   0  0  0  0  0  0  0  0  0  0  0  0
   22.8787   26.6000   18.7594 C   0  0  0  0  0  0  0  0  0  0  0  0
   23.9460   27.0711   18.0320 C   0  0  0  0  0  0  0  0  0  0  0  0
   25.2460   26.8229   18.4690 C   0  0  0  0  0  0  0  0  0  0  0  0
   26.7411   25.7634   20.2070 C   0  0  0  0  0  0  0  0  0  0  0  0
   26.8602   25.0208   21.3976 C   0  0  0  0  0  0  0  0  0  0  0  0
   25.7020   24.5760   22.0798 C   0  0  0  0  0  0  0  0  0  0  0  0
   24.4564   24.8826   21.5539 C   0  0  0  0  0  0  0  0  0  0  0  0
   25.4885   26.0729   19.6760 C   0  0  0  0  0  0  0  0  0  0  0  0
   24.3055   25.6192   20.3703 C   0  0  0  0  0  0  0  0  0  0  0  0
   19.7729   26.3709   15.0344 C   0  0  0  0  0  0  0  0  0  0  0  0
   20.7024   27.5328   14.7505 C   0  0  0  0  0  0  0  0  0  0  0  0
   20.6764   28.5340   15.4573 O   0  0  0  0  0  0  0  0  0  0  0  0
   21.5530   27.4349   13.7075 N   0  0  0  0  0  0  0  0  0  0  0  0
   21.5587   26.6224   13.1516 H   0  0  0  0  0  0  0  0  0  0  0  0
   22.1678   28.1759   13.5025 H   0  0  0  0  0  0  0  0  0  0  0  0
   16.1863   23.7716   17.7442 C   0  0  0  0  0  0  0  0  0  0  0  0
   15.1378   24.1060   18.6427 O   0  0  0  0  0  0  0  0  0  0  0  0
   15.0498   23.4083   19.3109 H   0  0  0  0  0  0  0  0  0  0  0  0
   15.8281   22.4995   17.0236 C   0  0  0  0  0  0  0  0  0  0  0  0
   15.2470   21.4944   17.8882 N   0  0  0  0  0  0  0  0  0  0  0  0
   14.6779   20.3767   17.1178 C   0  0  0  0  0  0  0  0  0  0  0  0
   14.0229   19.3755   18.0900 C   0  0  0  0  0  0  0  0  0  0  0  0
   15.0906   18.7870   19.0359 C   0  0  0  0  0  0  0  0  0  0  0  0
   14.4524   17.8428   20.1073 C   0  0  0  0  0  0  0  0  0  0  0  0
   13.4717   18.6187   21.0243 C   0  0  0  0  0  0  0  0  0  0  0  0
   14.3166   19.6548   21.7749 C   0  0  0  0  0  0  0  0  0  0  0  0
   14.8554   20.6593   20.7339 C   0  0  0  0  0  0  0  0  0  0  0  0
   15.7892   19.9687   19.7124 C   0  0  0  0  0  0  0  0  0  0  0  0
   16.3610   20.9238   18.7183 C   0  0  0  0  0  0  0  0  0  0  0  0
   13.5050   20.9377   16.3115 C   0  0  0  0  0  0  0  0  0  0  0  0
   12.5202   21.4885   16.7751 O   0  0  0  0  0  0  0  0  0  0  0  0
   13.6930   20.7438   14.9717 N   0  0  0  0  0  0  0  0  0  0  0  0
   14.5410   20.3400   14.6766 H   0  0  0  0  0  0  0  0  0  0  0  0
   12.6956   21.1056   13.9370 C   0  0  0  0  0  0  0  0  0  0  0  0
   11.3286   20.4871   14.2564 C   0  0  0  0  0  0  0  0  0  0  0  0
   13.3104   20.5804   12.6153 C   0  0  0  0  0  0  0  0  0  0  0  0
   12.5296   22.6612   13.9004 C   0  0  0  0  0  0  0  0  0  0  0  0
   17.4746   23.7423   19.9128 C   0  0  0  0  0  0  0  0  0  0  0  0
   18.7834   23.3916   20.6005 C   0  0  0  0  0  0  0  0  0  0  0  0
   19.3987   22.1595   20.4099 C   0  0  0  0  0  0  0  0  0  0  0  0
   19.3988   24.3368   21.3823 C   0  0  0  0  0  0  0  0  0  0  0  0
   20.6728   21.9105   21.0406 C   0  0  0  0  0  0  0  0  0  0  0  0
   20.6307   24.1265   22.0059 C   0  0  0  0  0  0  0  0  0  0  0  0
   21.2638   22.8723   21.8166 C   0  0  0  0  0  0  0  0  0  0  0  0
  8  7  2  0  0  0
  7 12  1  0  0  0
 11 12  2  0  0  0
 11 20  1  0  0  0
 12 13  1  0  0  0
 13 14  2  0  0  0
 14 19  1  0  0  0
 19 15  2  0  0  0
 19 20  1  0  0  0
 15 16  1  0  0  0
 16 17  2  0  0  0
 17 18  1  0  0  0
 18 20  2  0  0  0
  9  6  1  0  0  0
  6  2  1  0  0  0
  6 21  1  0  0  0
  2  3  2  0  0  0
 21 22  1  0  0  0
 22 23  2  0  0  0
 22 24  1  0  0  0
 27 28  1  0  0  0
 27  1  1  0  0  0
  1  4  1  0  0  0
  1 49  1  0  0  0
 49 50  1  0  0  0
 50 51  2  0  0  0
 50 52  1  0  0  0
 51 53  1  0  0  0
 52 54  2  0  0  0
 53 55  2  0  0  0
 54 55  1  0  0  0
 31 30  1  0  0  0
 31 32  1  0  0  0
 31 40  1  0  0  0
 32 41  1  0  0  0
 32 33  1  0  0  0
 41 42  2  0  0  0
 33 34  1  0  0  0
 34 35  1  0  0  0
 34 39  1  0  0  0
 35 36  1  0  0  0
 36 37  1  0  0  0
 37 38  1  0  0  0
 38 39  1  0  0  0
 39 40  1  0  0  0
 43 45  1  0  0  0
 45 46  1  0  0  0
 45 47  1  0  0  0
 45 48  1  0  0  0
  7  9  1  0  0  0
  2  4  1  0  0  0
 27 30  1  0  0  0
 41 43  1  0  0  0
  9 10  1  0  0  0
 24 25  1  0  0  0
 24 26  1  0  0  0
 28 29  1  0  0  0
  4  5  1  0  0  0
 43 44  1  0  0  0
M  END
> <minimizedAffinity>
-11.08067

$$$$
3D1Y_ROC_A_201


 55 59  0  0  0  0  0  0  0  0999 V2000
   19.0218   23.9230   19.9365 C   0  0  0  0  0  0  0  0  0  0  0  0
   19.5506   24.7845   17.7243 C   0  0  0  0  0  0  0  0  0  0  0  0
   19.5930   23.6548   17.2288 O   0  0  0  0  0  0  0  0  0  0  0  0
   19.2820   25.0112   19.0174 N   0  0  0  0  0  0  0  0  0  0  0  0
   19.2612   25.9376   19.3497 H   0  0  0  0  0  0  0  0  0  0  0  0
   19.7994   26.0296   16.9080 C   0  0  0  0  0  0  0  0  0  0  0  0
   22.0176   26.9891   17.5819 C   0  0  0  0  0  0  0  0  0  0  0  0
   21.4831   27.7127   18.4349 O   0  0  0  0  0  0  0  0  0  0  0  0
   21.2782   26.2046   16.7608 N   0  0  0  0  0  0  0  0  0  0  0  0
   21.7361   25.7266   16.0320 H   0  0  0  0  0  0  0  0  0  0  0  0
   24.0482   27.5719   16.3208 N   0  0  0  0  0  0  0  0  0  0  0  0
   23.4872   26.8571   17.3214 C   0  0  0  0  0  0  0  0  0  0  0  0
   24.2339   26.0124   18.1083 C   0  0  0  0  0  0  0  0  0  0  0  0
   25.6017   25.8782   17.8771 C   0  0  0  0  0  0  0  0  0  0  0  0
   27.6049   26.5654   16.5009 C   0  0  0  0  0  0  0  0  0  0  0  0
   28.1304   27.3358   15.4457 C   0  0  0  0  0  0  0  0  0  0  0  0
   27.2831   28.1802   14.6883 C   0  0  0  0  0  0  0  0  0  0  0  0
   25.9346   28.2342   15.0059 C   0  0  0  0  0  0  0  0  0  0  0  0
   26.2482   26.6184   16.8223 C   0  0  0  0  0  0  0  0  0  0  0  0
   25.3821   27.4800   16.0510 C   0  0  0  0  0  0  0  0  0  0  0  0
   19.0156   25.9568   15.6191 C   0  0  0  0  0  0  0  0  0  0  0  0
   19.8707   26.6704   14.5923 C   0  0  0  0  0  0  0  0  0  0  0  0
   20.7716   26.0735   14.0137 O   0  0  0  0  0  0  0  0  0  0  0  0
   19.6142   27.9697   14.3343 N   0  0  0  0  0  0  0  0  0  0  0  0
   18.8862   28.4316   14.8096 H   0  0  0  0  0  0  0  0  0  0  0  0
   20.1550   28.4559   13.6706 H   0  0  0  0  0  0  0  0  0  0  0  0
   17.4910   23.6602   19.9517 C   0  0  0  0  0  0  0  0  0  0  0  0
   16.8730   23.9318   21.2018 O   0  0  0  0  0  0  0  0  0  0  0  0
   17.1899   23.2976   21.8638 H   0  0  0  0  0  0  0  0  0  0  0  0
   17.0838   22.2862   19.4913 C   0  0  0  0  0  0  0  0  0  0  0  0
   16.3342   22.2946   18.2531 N   0  0  0  0  0  0  0  0  0  0  0  0
   14.9530   21.8250   18.4496 C   0  0  0  0  0  0  0  0  0  0  0  0
   14.2302   21.7992   17.0883 C   0  0  0  0  0  0  0  0  0  0  0  0
   14.1535   23.2267   16.5073 C   0  0  0  0  0  0  0  0  0  0  0  0
   13.5185   23.2326   15.0778 C   0  0  0  0  0  0  0  0  0  0  0  0
   14.3855   22.4259   14.0767 C   0  0  0  0  0  0  0  0  0  0  0  0
   15.7272   23.1620   13.9828 C   0  0  0  0  0  0  0  0  0  0  0  0
   16.4128   23.0593   15.3620 C   0  0  0  0  0  0  0  0  0  0  0  0
   15.5842   23.7677   16.4593 C   0  0  0  0  0  0  0  0  0  0  0  0
   16.2440   23.7228   17.7973 C   0  0  0  0  0  0  0  0  0  0  0  0
   15.0327   20.3532   18.8593 C   0  0  0  0  0  0  0  0  0  0  0  0
   15.8087   19.5282   18.4062 O   0  0  0  0  0  0  0  0  0  0  0  0
   14.1056   20.0602   19.8199 N   0  0  0  0  0  0  0  0  0  0  0  0
   13.5541   20.7962   20.1713 H   0  0  0  0  0  0  0  0  0  0  0  0
   13.8815   18.6998   20.3637 C   0  0  0  0  0  0  0  0  0  0  0  0
   12.7244   18.6983   21.3708 C   0  0  0  0  0  0  0  0  0  0  0  0
   15.2424   18.3133   20.9955 C   0  0  0  0  0  0  0  0  0  0  0  0
   13.5095   17.7300   19.1933 C   0  0  0  0  0  0  0  0  0  0  0  0
   19.5176   24.2178   21.3466 C   0  0  0  0  0  0  0  0  0  0  0  0
   20.9374   24.7586   21.3694 C   0  0  0  0  0  0  0  0  0  0  0  0
   21.2062   26.0848   21.6885 C   0  0  0  0  0  0  0  0  0  0  0  0
   21.9805   23.9010   21.1248 C   0  0  0  0  0  0  0  0  0  0  0  0
   22.5802   26.5219   21.7553 C   0  0  0  0  0  0  0  0  0  0  0  0
   23.3197   24.2931   21.1814 C   0  0  0  0  0  0  0  0  0  0  0  0
   23.6016   25.6440   21.5055 C   0  0  0  0  0  0  0  0  0  0  0  0
  8  7  2  0  0  0
  7 12  1  0  0  0
 11 12  2  0  0  0
 11 20  1  0  0  0
 12 13  1  0  0  0
 13 14  2  0  0  0
 14 19  1  0  0  0
 19 15  2  0  0  0
 19 20  1  0  0  0
 15 16  1  0  0  0
 16 17  2  0  0  0
 17 18  1  0  0  0
 18 20  2  0  0  0
  9  6  1  0  0  0
  6  2  1  0  0  0
  6 21  1  0  0  0
  2  3  2  0  0  0
 21 22  1  0  0  0
 22 23  2  0  0  0
 22 24  1  0  0  0
 27 28  1  0  0  0
 27  1  1  0  0  0
  1  4  1  0  0  0
  1 49  1  0  0  0
 49 50  1  0  0  0
 50 51  2  0  0  0
 50 52  1  0  0  0
 51 53  1  0  0  0
 52 54  2  0  0  0
 53 55  2  0  0  0
 54 55  1  0  0  0
 31 30  1  0  0  0
 31 32  1  0  0  0
 31 40  1  0  0  0
 32 41  1  0  0  0
 32 33  1  0  0  0
 41 42  2  0  0  0
 33 34  1  0  0  0
 34 35  1  0  0  0
 34 39  1  0  0  0
 35 36  1  0  0  0
 36 37  1  0  0  0
 37 38  1  0  0  0
 38 39  1  0  0  0
 39 40  1  0  0  0
 43 45  1  0  0  0
 45 46  1  0  0  0
 45 47  1  0  0  0
 45 48  1  0  0  0
  7  9  1  0  0  0
  2  4  1  0  0  0
 27 30  1  0  0  0
 41 43  1  0  0  0
  9 10  1  0  0  0
 24 25  1  0  0  0
 24 26  1  0  0  0
 28 29  1  0  0  0
  4  5  1  0  0  0
 43 44  1  0  0  0
M  END
> <minimizedAffinity>
-10.87695

$$$$
3D1Y_ROC_A_201


 55 59  0  0  0  0  0  0  0  0999 V2000
   14.7187   22.7409   17.0297 C   0  0  0  0  0  0  0  0  0  0  0  0
   14.1916   20.6996   18.2424 C   0  0  0  0  0  0  0  0  0  0  0  0
   15.3543   20.2904   18.1788 O   0  0  0  0  0  0  0  0  0  0  0  0
   13.7929   21.8673   17.7197 N   0  0  0  0  0  0  0  0  0  0  0  0
   12.8501   22.1370   17.8068 H   0  0  0  0  0  0  0  0  0  0  0  0
   13.0990   19.9125   18.9247 C   0  0  0  0  0  0  0  0  0  0  0  0
   11.2222   19.2532   17.3956 C   0  0  0  0  0  0  0  0  0  0  0  0
   10.4971   20.1539   17.8428 O   0  0  0  0  0  0  0  0  0  0  0  0
   12.4566   19.0244   17.9061 N   0  0  0  0  0  0  0  0  0  0  0  0
   12.9547   18.2357   17.5916 H   0  0  0  0  0  0  0  0  0  0  0  0
   11.2772   18.6172   15.0195 N   0  0  0  0  0  0  0  0  0  0  0  0
   10.8873   18.3137   16.2776 C   0  0  0  0  0  0  0  0  0  0  0  0
   10.1916   17.1612   16.5567 C   0  0  0  0  0  0  0  0  0  0  0  0
    9.8716   16.2783   15.5269 C   0  0  0  0  0  0  0  0  0  0  0  0
   10.0018   15.7479   13.0610 C   0  0  0  0  0  0  0  0  0  0  0  0
   10.4356   16.1189   11.7737 C   0  0  0  0  0  0  0  0  0  0  0  0
   11.1480   17.3273   11.5816 C   0  0  0  0  0  0  0  0  0  0  0  0
   11.4099   18.1316   12.6801 C   0  0  0  0  0  0  0  0  0  0  0  0
   10.2644   16.5558   14.1679 C   0  0  0  0  0  0  0  0  0  0  0  0
   10.9919   17.7889   13.9740 C   0  0  0  0  0  0  0  0  0  0  0  0
   13.6594   19.2164   20.1422 C   0  0  0  0  0  0  0  0  0  0  0  0
   12.5003   18.4310   20.7205 C   0  0  0  0  0  0  0  0  0  0  0  0
   11.4036   18.9597   20.8631 O   0  0  0  0  0  0  0  0  0  0  0  0
   12.7071   17.1442   21.0698 N   0  0  0  0  0  0  0  0  0  0  0  0
   13.5953   16.7376   20.9474 H   0  0  0  0  0  0  0  0  0  0  0  0
   11.9698   16.6119   21.4471 H   0  0  0  0  0  0  0  0  0  0  0  0
   15.2935   23.7476   18.0635 C   0  0  0  0  0  0  0  0  0  0  0  0
   14.3331   24.6644   18.5692 O   0  0  0  0  0  0  0  0  0  0  0  0
   14.0435   25.2552   17.8565 H   0  0  0  0  0  0  0  0  0  0  0  0
   16.5015   24.5124   17.5926 C   0  0  0  0  0  0  0  0  0  0  0  0
   17.7121   24.1705   18.3088 N   0  0  0  0  0  0  0  0  0  0  0  0
   18.6994   25.2612   18.2608 C   0  0  0  0  0  0  0  0  0  0  0  0
   19.9835   24.8118   18.9857 C   0  0  0  0  0  0  0  0  0  0  0  0
   19.6771   24.5324   20.4720 C   0  0  0  0  0  0  0  0  0  0  0  0
   20.9308   23.9745   21.2228 C   0  0  0  0  0  0  0  0  0  0  0  0
   21.3778   22.6127   20.6309 C   0  0  0  0  0  0  0  0  0  0  0  0
   20.2230   21.6365   20.8837 C   0  0  0  0  0  0  0  0  0  0  0  0
   19.0150   22.1181   20.0520 C   0  0  0  0  0  0  0  0  0  0  0  0
   18.5344   23.5152   20.5097 C   0  0  0  0  0  0  0  0  0  0  0  0
   17.3389   23.9890   19.7522 C   0  0  0  0  0  0  0  0  0  0  0  0
   19.1282   25.4154   16.8004 C   0  0  0  0  0  0  0  0  0  0  0  0
   18.7439   24.7284   15.8684 O   0  0  0  0  0  0  0  0  0  0  0  0
   20.0190   26.4419   16.6560 N   0  0  0  0  0  0  0  0  0  0  0  0
   20.2353   26.9825   17.4499 H   0  0  0  0  0  0  0  0  0  0  0  0
   20.6786   26.7890   15.3751 C   0  0  0  0  0  0  0  0  0  0  0  0
   20.9963   25.5258   14.5648 C   0  0  0  0  0  0  0  0  0  0  0  0
   21.9432   27.5774   15.7992 C   0  0  0  0  0  0  0  0  0  0  0  0
   19.7173   27.6840   14.5245 C   0  0  0  0  0  0  0  0  0  0  0  0
   14.0653   23.4901   15.8752 C   0  0  0  0  0  0  0  0  0  0  0  0
   14.2207   22.7717   14.5454 C   0  0  0  0  0  0  0  0  0  0  0  0
   13.2737   21.8581   14.0964 C   0  0  0  0  0  0  0  0  0  0  0  0
   15.2931   23.0767   13.7452 C   0  0  0  0  0  0  0  0  0  0  0  0
   13.4460   21.2565   12.7957 C   0  0  0  0  0  0  0  0  0  0  0  0
   15.4880   22.5119   12.4828 C   0  0  0  0  0  0  0  0  0  0  0  0
   14.5268   21.5791   12.0185 C   0  0  0  0  0  0  0  0  0  0  0  0
  8  7  2  0  0  0
  7 12  1  0  0  0
 11 12  2  0  0  0
 11 20  1  0  0  0
 12 13  1  0  0  0
 13 14  2  0  0  0
 14 19  1  0  0  0
 19 15  2  0  0  0
 19 20  1  0  0  0
 15 16  1  0  0  0
 16 17  2  0  0  0
 17 18  1  0  0  0
 18 20  2  0  0  0
  9  6  1  0  0  0
  6  2  1  0  0  0
  6 21  1  0  0  0
  2  3  2  0  0  0
 21 22  1  0  0  0
 22 23  2  0  0  0
 22 24  1  0  0  0
 27 28  1  0  0  0
 27  1  1  0  0  0
  1  4  1  0  0  0
  1 49  1  0  0  0
 49 50  1  0  0  0
 50 51  2  0  0  0
 50 52  1  0  0  0
 51 53  1  0  0  0
 52 54  2  0  0  0
 53 55  2  0  0  0
 54 55  1  0  0  0
 31 30  1  0  0  0
 31 32  1  0  0  0
 31 40  1  0  0  0
 32 41  1  0  0  0
 32 33  1  0  0  0
 41 42  2  0  0  0
 33 34  1  0  0  0
 34 35  1  0  0  0
 34 39  1  0  0  0
 35 36  1  0  0  0
 36 37  1  0  0  0
 37 38  1  0  0  0
 38 39  1  0  0  0
 39 40  1  0  0  0
 43 45  1  0  0  0
 45 46  1  0  0  0
 45 47  1  0  0  0
 45 48  1  0  0  0
  7  9  1  0  0  0
  2  4  1  0  0  0
 27 30  1  0  0  0
 41 43  1  0  0  0
  9 10  1  0  0  0
 24 25  1  0  0  0
 24 26  1  0  0  0
 28 29  1  0  0  0
  4  5  1  0  0  0
 43 44  1  0  0  0
M  END
> <minimizedAffinity>
-10.77220

$$$$
3D1Y_ROC_A_201


 55 59  0  0  0  0  0  0  0  0999 V2000
   18.9090   24.0875   18.1172 C   0  0  0  0  0  0  0  0  0  0  0  0
   19.8677   24.6614   20.2776 C   0  0  0  0  0  0  0  0  0  0  0  0
   18.7767   25.0128   20.7356 O   0  0  0  0  0  0  0  0  0  0  0  0
   20.0279   24.2014   19.0292 N   0  0  0  0  0  0  0  0  0  0  0  0
   20.9258   23.9352   18.7256 H   0  0  0  0  0  0  0  0  0  0  0  0
   21.1369   24.7173   21.0928 C   0  0  0  0  0  0  0  0  0  0  0  0
   23.5220   24.5522   20.3319 C   0  0  0  0  0  0  0  0  0  0  0  0
   23.8312   23.8921   21.3347 O   0  0  0  0  0  0  0  0  0  0  0  0
   22.2700   25.0456   20.1723 N   0  0  0  0  0  0  0  0  0  0  0  0
   22.0976   25.6493   19.4140 H   0  0  0  0  0  0  0  0  0  0  0  0
   24.1478   25.9964   18.4409 N   0  0  0  0  0  0  0  0  0  0  0  0
   24.4202   24.9011   19.1845 C   0  0  0  0  0  0  0  0  0  0  0  0
   25.5041   24.0996   18.9144 C   0  0  0  0  0  0  0  0  0  0  0  0
   26.3477   24.4107   17.8495 C   0  0  0  0  0  0  0  0  0  0  0  0
   26.8749   25.9766   15.9394 C   0  0  0  0  0  0  0  0  0  0  0  0
   26.5394   27.1292   15.2031 C   0  0  0  0  0  0  0  0  0  0  0  0
   25.4019   27.8949   15.5560 C   0  0  0  0  0  0  0  0  0  0  0  0
   24.6314   27.4905   16.6353 C   0  0  0  0  0  0  0  0  0  0  0  0
   26.1010   25.5679   17.0260 C   0  0  0  0  0  0  0  0  0  0  0  0
   24.9404   26.3484   17.3880 C   0  0  0  0  0  0  0  0  0  0  0  0
   20.9485   25.6547   22.2620 C   0  0  0  0  0  0  0  0  0  0  0  0
   21.4457   27.0009   21.7770 C   0  0  0  0  0  0  0  0  0  0  0  0
   22.6245   27.3102   21.9091 O   0  0  0  0  0  0  0  0  0  0  0  0
   20.5624   27.8418   21.1996 N   0  0  0  0  0  0  0  0  0  0  0  0
   19.6197   27.5749   21.1026 H   0  0  0  0  0  0  0  0  0  0  0  0
   20.8606   28.7222   20.8753 H   0  0  0  0  0  0  0  0  0  0  0  0
   18.1161   22.8034   18.4848 C   0  0  0  0  0  0  0  0  0  0  0  0
   18.3902   21.6958   17.6382 O   0  0  0  0  0  0  0  0  0  0  0  0
   18.0622   21.8829   16.7447 H   0  0  0  0  0  0  0  0  0  0  0  0
   16.6257   22.9902   18.5813 C   0  0  0  0  0  0  0  0  0  0  0  0
   15.9153   22.5587   17.3962 N   0  0  0  0  0  0  0  0  0  0  0  0
   14.6639   21.8616   17.7351 C   0  0  0  0  0  0  0  0  0  0  0  0
   13.9895   21.3755   16.4370 C   0  0  0  0  0  0  0  0  0  0  0  0
   13.6188   22.5848   15.5531 C   0  0  0  0  0  0  0  0  0  0  0  0
   13.0246   22.1321   14.1787 C   0  0  0  0  0  0  0  0  0  0  0  0
   14.0637   21.3248   13.3582 C   0  0  0  0  0  0  0  0  0  0  0  0
   15.2173   22.2898   13.0607 C   0  0  0  0  0  0  0  0  0  0  0  0
   15.8826   22.6499   14.4063 C   0  0  0  0  0  0  0  0  0  0  0  0
   14.9004   23.3938   15.3413 C   0  0  0  0  0  0  0  0  0  0  0  0
   15.5289   23.7941   16.6345 C   0  0  0  0  0  0  0  0  0  0  0  0
   15.0504   20.5722   18.4620 C   0  0  0  0  0  0  0  0  0  0  0  0
   16.0338   19.8893   18.2279 O   0  0  0  0  0  0  0  0  0  0  0  0
   14.1387   20.2636   19.4324 N   0  0  0  0  0  0  0  0  0  0  0  0
   13.4023   20.8966   19.5943 H   0  0  0  0  0  0  0  0  0  0  0  0
   14.1934   19.0323   20.2554 C   0  0  0  0  0  0  0  0  0  0  0  0
   14.5347   17.8123   19.3904 C   0  0  0  0  0  0  0  0  0  0  0  0
   12.7900   18.9466   20.9064 C   0  0  0  0  0  0  0  0  0  0  0  0
   15.3087   19.1859   21.3422 C   0  0  0  0  0  0  0  0  0  0  0  0
   19.3468   24.0344   16.6589 C   0  0  0  0  0  0  0  0  0  0  0  0
   19.7499   25.3952   16.1163 C   0  0  0  0  0  0  0  0  0  0  0  0
   20.5087   26.2838   16.8698 C   0  0  0  0  0  0  0  0  0  0  0  0
   19.4036   25.7287   14.8309 C   0  0  0  0  0  0  0  0  0  0  0  0
   20.9134   27.5349   16.2747 C   0  0  0  0  0  0  0  0  0  0  0  0
   19.7793   26.9307   14.2271 C   0  0  0  0  0  0  0  0  0  0  0  0
   20.5527   27.8419   14.9894 C   0  0  0  0  0  0  0  0  0  0  0  0
  8  7  2  0  0  0
  7 12  1  0  0  0
 11 12  2  0  0  0
 11 20  1  0  0  0
 12 13  1  0  0  0
 13 14  2  0  0  0
 14 19  1  0  0  0
 19 15  2  0  0  0
 19 20  1  0  0  0
 15 16  1  0  0  0
 16 17  2  0  0  0
 17 18  1  0  0  0
 18 20  2  0  0  0
  9  6  1  0  0  0
  6  2  1  0  0  0
  6 21  1  0  0  0
  2  3  2  0  0  0
 21 22  1  0  0  0
 22 23  2  0  0  0
 22 24  1  0  0  0
 27 28  1  0  0  0
 27  1  1  0  0  0
  1  4  1  0  0  0
  1 49  1  0  0  0
 49 50  1  0  0  0
 50 51  2  0  0  0
 50 52  1  0  0  0
 51 53  1  0  0  0
 52 54  2  0  0  0
 53 55  2  0  0  0
 54 55  1  0  0  0
 31 30  1  0  0  0
 31 32  1  0  0  0
 31 40  1  0  0  0
 32 41  1  0  0  0
 32 33  1  0  0  0
 41 42  2  0  0  0
 33 34  1  0  0  0
 34 35  1  0  0  0
 34 39  1  0  0  0
 35 36  1  0  0  0
 36 37  1  0  0  0
 37 38  1  0  0  0
 38 39  1  0  0  0
 39 40  1  0  0  0
 43 45  1  0  0  0
 45 46  1  0  0  0
 45 47  1  0  0  0
 45 48  1  0  0  0
  7  9  1  0  0  0
  2  4  1  0  0  0
 27 30  1  0  0  0
 41 43  1  0  0  0
  9 10  1  0  0  0
 24 25  1  0  0  0
 24 26  1  0  0  0
 28 29  1  0  0  0
  4  5  1  0  0  0
 43 44  1  0  0  0
M  END
> <minimizedAffinity>
-10.51653

$$$$
3D1Y_ROC_A_201


 55 59  0  0  0  0  0  0  0  0999 V2000
   18.0500   25.1308   17.4295 C   0  0  0  0  0  0  0  0  0  0  0  0
   19.9598   25.3453   18.9203 C   0  0  0  0  0  0  0  0  0  0  0  0
   20.3988   26.3268   18.3142 O   0  0  0  0  0  0  0  0  0  0  0  0
   18.8362   24.7053   18.5686 N   0  0  0  0  0  0  0  0  0  0  0  0
   18.5389   23.9290   19.0961 H   0  0  0  0  0  0  0  0  0  0  0  0
   20.6568   24.7698   20.1292 C   0  0  0  0  0  0  0  0  0  0  0  0
   22.9390   23.7523   19.9026 C   0  0  0  0  0  0  0  0  0  0  0  0
   22.5104   22.6360   20.2299 O   0  0  0  0  0  0  0  0  0  0  0  0
   22.1331   24.8418   19.8963 N   0  0  0  0  0  0  0  0  0  0  0  0
   22.5387   25.7234   19.7304 H   0  0  0  0  0  0  0  0  0  0  0  0
   25.3677   23.3692   19.9928 N   0  0  0  0  0  0  0  0  0  0  0  0
   24.3386   24.0790   19.4791 C   0  0  0  0  0  0  0  0  0  0  0  0
   24.5452   25.0935   18.5744 C   0  0  0  0  0  0  0  0  0  0  0  0
   25.8415   25.4098   18.1720 C   0  0  0  0  0  0  0  0  0  0  0  0
   28.3099   24.9095   18.3599 C   0  0  0  0  0  0  0  0  0  0  0  0
   29.3387   24.1346   18.9293 C   0  0  0  0  0  0  0  0  0  0  0  0
   29.0299   23.1080   19.8542 C   0  0  0  0  0  0  0  0  0  0  0  0
   27.7026   22.8813   20.1840 C   0  0  0  0  0  0  0  0  0  0  0  0
   26.9734   24.6829   18.6903 C   0  0  0  0  0  0  0  0  0  0  0  0
   26.6563   23.6353   19.6333 C   0  0  0  0  0  0  0  0  0  0  0  0
   20.1554   25.4547   21.3784 C   0  0  0  0  0  0  0  0  0  0  0  0
   21.0628   26.6529   21.5670 C   0  0  0  0  0  0  0  0  0  0  0  0
   22.1378   26.5312   22.1435 O   0  0  0  0  0  0  0  0  0  0  0  0
   20.6585   27.8469   21.0858 N   0  0  0  0  0  0  0  0  0  0  0  0
   19.7915   27.9241   20.6256 H   0  0  0  0  0  0  0  0  0  0  0  0
   21.2304   28.6408   21.1947 H   0  0  0  0  0  0  0  0  0  0  0  0
   16.5798   24.6892   17.6663 C   0  0  0  0  0  0  0  0  0  0  0  0
   15.9162   25.4219   18.6867 O   0  0  0  0  0  0  0  0  0  0  0  0
   16.3237   25.2236   19.5443 H   0  0  0  0  0  0  0  0  0  0  0  0
   16.3985   23.2170   17.9222 C   0  0  0  0  0  0  0  0  0  0  0  0
   15.6751   22.5363   16.8692 N   0  0  0  0  0  0  0  0  0  0  0  0
   14.5072   21.8094   17.3930 C   0  0  0  0  0  0  0  0  0  0  0  0
   13.8193   21.0589   16.2355 C   0  0  0  0  0  0  0  0  0  0  0  0
   13.3027   22.0680   15.1887 C   0  0  0  0  0  0  0  0  0  0  0  0
   12.6881   21.3439   13.9459 C   0  0  0  0  0  0  0  0  0  0  0  0
   13.7555   20.4945   13.2082 C   0  0  0  0  0  0  0  0  0  0  0  0
   14.8044   21.4840   12.6871 C   0  0  0  0  0  0  0  0  0  0  0  0
   15.4966   22.1180   13.9125 C   0  0  0  0  0  0  0  0  0  0  0  0
   14.4967   22.9289   14.7699 C   0  0  0  0  0  0  0  0  0  0  0  0
   15.1464   23.5906   15.9394 C   0  0  0  0  0  0  0  0  0  0  0  0
   15.0392   20.6962   18.2975 C   0  0  0  0  0  0  0  0  0  0  0  0
   16.1541   20.2042   18.2417 O   0  0  0  0  0  0  0  0  0  0  0  0
   14.0924   20.3039   19.2018 N   0  0  0  0  0  0  0  0  0  0  0  0
   13.2363   20.7898   19.2163 H   0  0  0  0  0  0  0  0  0  0  0  0
   14.2786   19.1902   20.1617 C   0  0  0  0  0  0  0  0  0  0  0  0
   15.3281   19.5517   21.2204 C   0  0  0  0  0  0  0  0  0  0  0  0
   14.6929   17.9887   19.2755 C   0  0  0  0  0  0  0  0  0  0  0  0
   12.9251   18.9076   20.8946 C   0  0  0  0  0  0  0  0  0  0  0  0
   18.5655   24.5559   16.1161 C   0  0  0  0  0  0  0  0  0  0  0  0
   19.4977   25.5066   15.3841 C   0  0  0  0  0  0  0  0  0  0  0  0
   20.7475   25.0973   14.9329 C   0  0  0  0  0  0  0  0  0  0  0  0
   19.0695   26.7820   15.1132 C   0  0  0  0  0  0  0  0  0  0  0  0
   21.5602   26.0290   14.1881 C   0  0  0  0  0  0  0  0  0  0  0  0
   19.8319   27.7064   14.3958 C   0  0  0  0  0  0  0  0  0  0  0  0
   21.1076   27.2964   13.9330 C   0  0  0  0  0  0  0  0  0  0  0  0
  8  7  2  0  0  0
  7 12  1  0  0  0
 11 12  2  0  0  0
 11 20  1  0  0  0
 12 13  1  0  0  0
 13 14  2  0  0  0
 14 19  1  0  0  0
 19 15  2  0  0  0
 19 20  1  0  0  0
 15 16  1  0  0  0
 16 17  2  0  0  0
 17 18  1  0  0  0
 18 20  2  0  0  0
  9  6  1  0  0  0
  6  2  1  0  0  0
  6 21  1  0  0  0
  2  3  2  0  0  0
 21 22  1  0  0  0
 22 23  2  0  0  0
 22 24  1  0  0  0
 27 28  1  0  0  0
 27  1  1  0  0  0
  1  4  1  0  0  0
  1 49  1  0  0  0
 49 50  1  0  0  0
 50 51  2  0  0  0
 50 52  1  0  0  0
 51 53  1  0  0  0
 52 54  2  0  0  0
 53 55  2  0  0  0
 54 55  1  0  0  0
 31 30  1  0  0  0
 31 32  1  0  0  0
 31 40  1  0  0  0
 32 41  1  0  0  0
 32 33  1  0  0  0
 41 42  2  0  0  0
 33 34  1  0  0  0
 34 35  1  0  0  0
 34 39  1  0  0  0
 35 36  1  0  0  0
 36 37  1  0  0  0
 37 38  1  0  0  0
 38 39  1  0  0  0
 39 40  1  0  0  0
 43 45  1  0  0  0
 45 46  1  0  0  0
 45 47  1  0  0  0
 45 48  1  0  0  0
  7  9  1  0  0  0
  2  4  1  0  0  0
 27 30  1  0  0  0
 41 43  1  0  0  0
  9 10  1  0  0  0
 24 25  1  0  0  0
 24 26  1  0  0  0
 28 29  1  0  0  0
  4  5  1  0  0  0
 43 44  1  0  0  0
M  END
> <minimizedAffinity>
-10.08125

$$$$
3D1Y_ROC_A_201


 55 59  0  0  0  0  0  0  0  0999 V2000
   18.6169   23.9130   17.3221 C   0  0  0  0  0  0  0  0  0  0  0  0
   19.7973   24.1916   19.4303 C   0  0  0  0  0  0  0  0  0  0  0  0
   18.7623   24.4720   20.0416 O   0  0  0  0  0  0  0  0  0  0  0  0
   19.8244   23.9069   18.1211 N   0  0  0  0  0  0  0  0  0  0  0  0
   20.6839   23.6889   17.6934 H   0  0  0  0  0  0  0  0  0  0  0  0
   21.1439   24.1419   20.1107 C   0  0  0  0  0  0  0  0  0  0  0  0
   23.4224   24.7069   19.2250 C   0  0  0  0  0  0  0  0  0  0  0  0
   23.9440   23.8060   19.8984 O   0  0  0  0  0  0  0  0  0  0  0  0
   22.0985   24.9803   19.3203 N   0  0  0  0  0  0  0  0  0  0  0  0
   21.7478   25.7688   18.8465 H   0  0  0  0  0  0  0  0  0  0  0  0
   25.3690   25.2903   17.8382 N   0  0  0  0  0  0  0  0  0  0  0  0
   24.1173   25.6001   18.2432 C   0  0  0  0  0  0  0  0  0  0  0  0
   23.4647   26.7155   17.7736 C   0  0  0  0  0  0  0  0  0  0  0  0
   24.0988   27.5565   16.8611 C   0  0  0  0  0  0  0  0  0  0  0  0
   26.1638   28.0367   15.4885 C   0  0  0  0  0  0  0  0  0  0  0  0
   27.4655   27.6607   15.1047 C   0  0  0  0  0  0  0  0  0  0  0  0
   28.0580   26.4921   15.6417 C   0  0  0  0  0  0  0  0  0  0  0  0
   27.3342   25.7296   16.5454 C   0  0  0  0  0  0  0  0  0  0  0  0
   25.4336   27.2706   16.3977 C   0  0  0  0  0  0  0  0  0  0  0  0
   26.0362   26.0774   16.9460 C   0  0  0  0  0  0  0  0  0  0  0  0
   20.9915   24.5161   21.5659 C   0  0  0  0  0  0  0  0  0  0  0  0
   21.3398   25.9886   21.6369 C   0  0  0  0  0  0  0  0  0  0  0  0
   22.4605   26.3441   21.9837 O   0  0  0  0  0  0  0  0  0  0  0  0
   20.3903   26.8897   21.3093 N   0  0  0  0  0  0  0  0  0  0  0  0
   19.4961   26.5842   21.0332 H   0  0  0  0  0  0  0  0  0  0  0  0
   20.5918   27.8526   21.3465 H   0  0  0  0  0  0  0  0  0  0  0  0
   17.8341   22.6052   17.6211 C   0  0  0  0  0  0  0  0  0  0  0  0
   18.1444   21.5346   16.7401 O   0  0  0  0  0  0  0  0  0  0  0  0
   17.8352   21.7512   15.8466 H   0  0  0  0  0  0  0  0  0  0  0  0
   16.3392   22.7679   17.6882 C   0  0  0  0  0  0  0  0  0  0  0  0
   15.6746   21.6846   18.3810 N   0  0  0  0  0  0  0  0  0  0  0  0
   15.3862   20.5574   17.4793 C   0  0  0  0  0  0  0  0  0  0  0  0
   14.6260   19.4677   18.2609 C   0  0  0  0  0  0  0  0  0  0  0  0
   15.5102   18.9284   19.4048 C   0  0  0  0  0  0  0  0  0  0  0  0
   14.7398   17.8926   20.2881 C   0  0  0  0  0  0  0  0  0  0  0  0
   13.5194   18.5487   20.9845 C   0  0  0  0  0  0  0  0  0  0  0  0
   14.0874   19.6175   21.9256 C   0  0  0  0  0  0  0  0  0  0  0  0
   14.7493   20.7041   21.0515 C   0  0  0  0  0  0  0  0  0  0  0  0
   15.9393   20.1335   20.2448 C   0  0  0  0  0  0  0  0  0  0  0  0
   16.6274   21.1716   19.4225 C   0  0  0  0  0  0  0  0  0  0  0  0
   14.3717   21.0551   16.4479 C   0  0  0  0  0  0  0  0  0  0  0  0
   13.1635   21.1114   16.6063 O   0  0  0  0  0  0  0  0  0  0  0  0
   14.9940   21.4401   15.2936 N   0  0  0  0  0  0  0  0  0  0  0  0
   15.9778   21.4148   15.2670 H   0  0  0  0  0  0  0  0  0  0  0  0
   14.2751   21.8933   14.0794 C   0  0  0  0  0  0  0  0  0  0  0  0
   13.3621   20.7850   13.5399 C   0  0  0  0  0  0  0  0  0  0  0  0
   15.4034   22.2894   13.0942 C   0  0  0  0  0  0  0  0  0  0  0  0
   13.3827   23.1278   14.4376 C   0  0  0  0  0  0  0  0  0  0  0  0
   18.9042   24.0229   15.8299 C   0  0  0  0  0  0  0  0  0  0  0  0
   19.6803   25.2792   15.4718 C   0  0  0  0  0  0  0  0  0  0  0  0
   19.5467   26.4518   16.2068 C   0  0  0  0  0  0  0  0  0  0  0  0
   20.5760   25.2350   14.4330 C   0  0  0  0  0  0  0  0  0  0  0  0
   20.3589   27.5921   15.8555 C   0  0  0  0  0  0  0  0  0  0  0  0
   21.3755   26.3206   14.0685 C   0  0  0  0  0  0  0  0  0  0  0  0
   21.2444   27.5198   14.8130 C   0  0  0  0  0  0  0  0  0  0  0  0
  8  7  2  0  0  0
  7 12  1  0  0  0
 11 12  2  0  0  0
 11 20  1  0  0  0
 12 13  1  0  0  0
 13 14  2  0  0  0
 14 19  1  0  0  0
 19 15  2  0  0  0
 19 20  1  0  0  0
 15 16  1  0  0  0
 16 17  2  0  0  0
 17 18  1  0  0  0
 18 20  2  0  0  0
  9  6  1  0  0  0
  6  2  1  0  0  0
  6 21  1  0  0  0
  2  3  2  0  0  0
 21 22  1  0  0  0
 22 23  2  0  0  0
 22 24  1  0  0  0
 27 28  1  0  0  0
 27  1  1  0  0  0
  1  4  1  0  0  0
  1 49  1  0  0  0
 49 50  1  0  0  0
 50 51  2  0  0  0
 50 52  1  0  0  0
 51 53  1  0  0  0
 52 54  2  0  0  0
 53 55  2  0  0  0
 54 55  1  0  0  0
 31 30  1  0  0  0
 31 32  1  0  0  0
 31 40  1  0  0  0
 32 41  1  0  0  0
 32 33  1  0  0  0
 41 42  2  0  0  0
 33 34  1  0  0  0
 34 35  1  0  0  0
 34 39  1  0  0  0
 35 36  1  0  0  0
 36 37  1  0  0  0
 37 38  1  0  0  0
 38 39  1  0  0  0
 39 40  1  0  0  0
 43 45  1  0  0  0
 45 46  1  0  0  0
 45 47  1  0  0  0
 45 48  1  0  0  0
  7  9  1  0  0  0
  2  4  1  0  0  0
 27 30  1  0  0  0
 41 43  1  0  0  0
  9 10  1  0  0  0
 24 25  1  0  0  0
 24 26  1  0  0  0
 28 29  1  0  0  0
  4  5  1  0  0  0
 43 44  1  0  0  0
M  END
> <minimizedAffinity>
-9.57630

$$$$
3D1Y_ROC_A_201


 55 59  0  0  0  0  0  0  0  0999 V2000
   18.2273   24.7732   17.4234 C   0  0  0  0  0  0  0  0  0  0  0  0
   20.0923   25.2748   18.9018 C   0  0  0  0  0  0  0  0  0  0  0  0
   20.3119   26.3594   18.3550 O   0  0  0  0  0  0  0  0  0  0  0  0
   19.1104   24.4453   18.5230 N   0  0  0  0  0  0  0  0  0  0  0  0
   18.9867   23.5946   19.0029 H   0  0  0  0  0  0  0  0  0  0  0  0
   20.9197   24.7782   20.0625 C   0  0  0  0  0  0  0  0  0  0  0  0
   23.2678   23.9603   19.7274 C   0  0  0  0  0  0  0  0  0  0  0  0
   22.9684   22.8299   20.1392 O   0  0  0  0  0  0  0  0  0  0  0  0
   22.3643   24.9703   19.7233 N   0  0  0  0  0  0  0  0  0  0  0  0
   22.6734   25.8743   19.4855 H   0  0  0  0  0  0  0  0  0  0  0  0
   25.7207   23.7862   19.6471 N   0  0  0  0  0  0  0  0  0  0  0  0
   24.5998   24.3880   19.1908 C   0  0  0  0  0  0  0  0  0  0  0  0
   24.6523   25.3830   18.2435 C   0  0  0  0  0  0  0  0  0  0  0  0
   25.8841   25.7925   17.7361 C   0  0  0  0  0  0  0  0  0  0  0  0
   28.3936   25.5085   17.7538 C   0  0  0  0  0  0  0  0  0  0  0  0
   29.5238   24.8438   18.2675 C   0  0  0  0  0  0  0  0  0  0  0  0
   29.3723   23.8289   19.2431 C   0  0  0  0  0  0  0  0  0  0  0  0
   28.0967   23.5035   19.6777 C   0  0  0  0  0  0  0  0  0  0  0  0
   27.1089   25.1824   18.1897 C   0  0  0  0  0  0  0  0  0  0  0  0
   26.9523   24.1465   19.1846 C   0  0  0  0  0  0  0  0  0  0  0  0
   20.4519   25.4374   21.3383 C   0  0  0  0  0  0  0  0  0  0  0  0
   21.2920   26.6911   21.4698 C   0  0  0  0  0  0  0  0  0  0  0  0
   22.4094   26.6383   21.9710 O   0  0  0  0  0  0  0  0  0  0  0  0
   20.7804   27.8568   21.0225 N   0  0  0  0  0  0  0  0  0  0  0  0
   19.8809   27.8786   20.6230 H   0  0  0  0  0  0  0  0  0  0  0  0
   21.3067   28.6856   21.0957 H   0  0  0  0  0  0  0  0  0  0  0  0
   16.8528   24.1015   17.6920 C   0  0  0  0  0  0  0  0  0  0  0  0
   16.5190   24.0050   19.0696 O   0  0  0  0  0  0  0  0  0  0  0  0
   17.1290   23.3912   19.5079 H   0  0  0  0  0  0  0  0  0  0  0  0
   16.6751   22.7525   17.0483 C   0  0  0  0  0  0  0  0  0  0  0  0
   15.9270   21.8209   17.8655 N   0  0  0  0  0  0  0  0  0  0  0  0
   15.2470   20.8034   17.0474 C   0  0  0  0  0  0  0  0  0  0  0  0
   14.4216   19.8840   17.9691 C   0  0  0  0  0  0  0  0  0  0  0  0
   15.3580   19.1407   18.9447 C   0  0  0  0  0  0  0  0  0  0  0  0
   14.5524   18.2737   19.9674 C   0  0  0  0  0  0  0  0  0  0  0  0
   13.6456   19.1597   20.8605 C   0  0  0  0  0  0  0  0  0  0  0  0
   14.5884   20.0593   21.6683 C   0  0  0  0  0  0  0  0  0  0  0  0
   15.3024   20.9990   20.6732 C   0  0  0  0  0  0  0  0  0  0  0  0
   16.1788   20.2056   19.6757 C   0  0  0  0  0  0  0  0  0  0  0  0
   16.9167   21.0911   18.7277 C   0  0  0  0  0  0  0  0  0  0  0  0
   14.1966   21.5313   16.2064 C   0  0  0  0  0  0  0  0  0  0  0  0
   13.6063   22.5492   16.5281 O   0  0  0  0  0  0  0  0  0  0  0  0
   13.9889   20.8897   15.0176 N   0  0  0  0  0  0  0  0  0  0  0  0
   14.5462   20.1048   14.8113 H   0  0  0  0  0  0  0  0  0  0  0  0
   12.9742   21.3058   14.0208 C   0  0  0  0  0  0  0  0  0  0  0  0
   11.5655   21.2664   14.6267 C   0  0  0  0  0  0  0  0  0  0  0  0
   13.1630   20.3118   12.8474 C   0  0  0  0  0  0  0  0  0  0  0  0
   13.2678   22.7742   13.5663 C   0  0  0  0  0  0  0  0  0  0  0  0
   18.7780   24.3209   16.0768 C   0  0  0  0  0  0  0  0  0  0  0  0
   19.6013   25.3959   15.3874 C   0  0  0  0  0  0  0  0  0  0  0  0
   20.9016   25.1541   14.9586 C   0  0  0  0  0  0  0  0  0  0  0  0
   19.0248   26.6150   15.1325 C   0  0  0  0  0  0  0  0  0  0  0  0
   21.6090   26.1959   14.2532 C   0  0  0  0  0  0  0  0  0  0  0  0
   19.6827   27.6427   14.4531 C   0  0  0  0  0  0  0  0  0  0  0  0
   21.0089   27.4037   14.0133 C   0  0  0  0  0  0  0  0  0  0  0  0
  8  7  2  0  0  0
  7 12  1  0  0  0
 11 12  2  0  0  0
 11 20  1  0  0  0
 12 13  1  0  0  0
 13 14  2  0  0  0
 14 19  1  0  0  0
 19 15  2  0  0  0
 19 20  1  0  0  0
 15 16  1  0  0  0
 16 17  2  0  0  0
 17 18  1  0  0  0
 18 20  2  0  0  0
  9  6  1  0  0  0
  6  2  1  0  0  0
  6 21  1  0  0  0
  2  3  2  0  0  0
 21 22  1  0  0  0
 22 23  2  0  0  0
 22 24  1  0  0  0
 27 28  1  0  0  0
 27  1  1  0  0  0
  1  4  1  0  0  0
  1 49  1  0  0  0
 49 50  1  0  0  0
 50 51  2  0  0  0
 50 52  1  0  0  0
 51 53  1  0  0  0
 52 54  2  0  0  0
 53 55  2  0  0  0
 54 55  1  0  0  0
 31 30  1  0  0  0
 31 32  1  0  0  0
 31 40  1  0  0  0
 32 41  1  0  0  0
 32 33  1  0  0  0
 41 42  2  0  0  0
 33 34  1  0  0  0
 34 35  1  0  0  0
 34 39  1  0  0  0
 35 36  1  0  0  0
 36 37  1  0  0  0
 37 38  1  0  0  0
 38 39  1  0  0  0
 39 40  1  0  0  0
 43 45  1  0  0  0
 45 46  1  0  0  0
 45 47  1  0  0  0
 45 48  1  0  0  0
  7  9  1  0  0  0
  2  4  1  0  0  0
 27 30  1  0  0  0
 41 43  1  0  0  0
  9 10  1  0  0  0
 24 25  1  0  0  0
 24 26  1  0  0  0
 28 29  1  0  0  0
  4  5  1  0  0  0
 43 44  1  0  0  0
M  END
> <minimizedAffinity>
-9.52160

$$$$
