3D1Y_ROC_A_201
  RCSB PDB12061708153D
Coordinates from PDB:3D1Y:A:201 Model:1 without hydrogens
 49 53  0  0  0  0            999 V2000
   21.4510   26.5820   18.5500   C 0  0  0  0  0  0  0  0  0  0  0  0
   20.9780   27.7280   18.5490   O 0  0  0  0  0  0  0  0  0  0  0  0
   23.3190   25.0380   18.9740   N 0  0  0  0  0  0  0  0  0  0  0  0
   22.5800   26.0860   19.4010   C 0  0  0  0  0  0  0  0  0  0  0  0
   22.8410   26.7100   20.5980   C 0  0  0  0  0  0  0  0  0  0  0  0
   23.8870   26.2590   21.4010   C 0  0  0  0  0  0  0  0  0  0  0  0
   25.7750   24.6100   21.7090   C 0  0  0  0  0  0  0  0  0  0  0  0
   26.5080   23.5160   21.2100   C 0  0  0  0  0  0  0  0  0  0  0  0
   26.1660   22.9370   19.9640   C 0  0  0  0  0  0  0  0  0  0  0  0
   25.1030   23.4670   19.2490   C 0  0  0  0  0  0  0  0  0  0  0  0
   24.7050   25.1450   20.9910   C 0  0  0  0  0  0  0  0  0  0  0  0
   24.3550   24.5560   19.7190   C 0  0  0  0  0  0  0  0  0  0  0  0
   20.9600   25.6170   17.7350   N 0  0  0  0  0  0  0  0  0  0  0  0
   19.7360   25.8000   16.8940   C 0  0  0  0  0  0  0  0  0  0  0  0
   18.7930   24.6560   17.1780   C 0  0  0  0  0  0  0  0  0  0  0  0
   18.8770   23.5740   16.5900   O 0  0  0  0  0  0  0  0  0  0  0  0
   19.9720   25.9060   15.4060   C 0  0  0  0  0  0  0  0  0  0  0  0
   20.7940   27.1650   15.2220   C 0  0  0  0  0  0  0  0  0  0  0  0
   20.2770   28.2680   15.3590   O 0  0  0  0  0  0  0  0  0  0  0  0
   22.1000   27.0390   14.9070   N 0  0  0  0  0  0  0  0  0  0  0  0
   15.4800   24.4660   18.1380   C 0  0  0  0  0  0  0  0  0  0  0  0
   15.0650   25.5680   18.9330   O 0  0  0  0  0  0  0  0  0  0  0  0
   16.8890   23.9230   18.5020   C 0  0  0  0  0  0  0  0  0  0  0  0
   17.8680   24.9160   18.1120   N 0  0  0  0  0  0  0  0  0  0  0  0
   16.9550   23.5890   19.9870   C 0  0  0  0  0  0  0  0  0  0  0  0
   18.3750   23.3540   20.4740   C 0  0  0  0  0  0  0  0  0  0  0  0
   19.0200   22.1380   20.2780   C 0  0  0  0  0  0  0  0  0  0  0  0
   19.0540   24.3870   21.0700   C 0  0  0  0  0  0  0  0  0  0  0  0
   20.3910   21.9980   20.7070   C 0  0  0  0  0  0  0  0  0  0  0  0
   20.3800   24.2830   21.4960   C 0  0  0  0  0  0  0  0  0  0  0  0
   21.0440   23.0460   21.3000   C 0  0  0  0  0  0  0  0  0  0  0  0
   14.3620   22.6350   16.9190   N 0  0  0  0  0  0  0  0  0  0  0  0
   14.3890   23.4290   18.1290   C 0  0  0  0  0  0  0  0  0  0  0  0
   13.6350   21.3700   17.1140   C 0  0  0  0  0  0  0  0  0  0  0  0
   14.4370   20.5410   18.1190   C 0  0  0  0  0  0  0  0  0  0  0  0
   15.6530   20.4530   18.1610   O 0  0  0  0  0  0  0  0  0  0  0  0
   13.6960   20.5470   15.8120   C 0  0  0  0  0  0  0  0  0  0  0  0
   12.9910   21.3130   14.6730   C 0  0  0  0  0  0  0  0  0  0  0  0
   13.1190   20.5600   13.3080   C 0  0  0  0  0  0  0  0  0  0  0  0
   14.6020   20.4430   12.8700   C 0  0  0  0  0  0  0  0  0  0  0  0
   15.0970   21.8770   12.6480   C 0  0  0  0  0  0  0  0  0  0  0  0
   15.0830   22.5920   14.0160   C 0  0  0  0  0  0  0  0  0  0  0  0
   13.6490   22.6920   14.5870   C 0  0  0  0  0  0  0  0  0  0  0  0
   13.5980   23.4180   15.8900   C 0  0  0  0  0  0  0  0  0  0  0  0
   13.6090   19.8900   18.9900   N 0  0  0  0  0  0  0  0  0  0  0  0
   14.0820   18.9460   20.0300   C 0  0  0  0  0  0  0  0  0  0  0  0
   14.9210   17.8230   19.4070   C 0  0  0  0  0  0  0  0  0  0  0  0
   12.7820   18.4370   20.7020   C 0  0  0  0  0  0  0  0  0  0  0  0
   14.9810   19.7140   21.0550   C 0  0  0  0  0  0  0  0  0  0  0  0
  2  1  2  0  0  0  0
  1  4  1  0  0  0  0
  3  4  2  0  0  0  0
  3 12  1  0  0  0  0
  4  5  1  0  0  0  0
  5  6  2  0  0  0  0
  6 11  1  0  0  0  0
 11  7  2  0  0  0  0
 11 12  1  0  0  0  0
  7  8  1  0  0  0  0
  8  9  2  0  0  0  0
  9 10  1  0  0  0  0
 10 12  2  0  0  0  0
 13 14  1  0  0  0  0
 14 15  1  0  0  0  0
 14 17  1  0  0  0  0
 15 16  2  0  0  0  0
 17 18  1  0  0  0  0
 18 19  2  0  0  0  0
 18 20  1  0  0  0  0
 21 22  1  0  0  0  0
 21 23  1  0  0  0  0
 23 24  1  0  0  0  0
 23 25  1  0  0  0  0
 25 26  1  0  0  0  0
 26 27  2  0  0  0  0
 26 28  1  0  0  0  0
 27 29  1  0  0  0  0
 28 30  2  0  0  0  0
 29 31  2  0  0  0  0
 30 31  1  0  0  0  0
 32 33  1  0  0  0  0
 32 34  1  0  0  0  0
 32 44  1  0  0  0  0
 34 35  1  0  0  0  0
 34 37  1  0  0  0  0
 35 36  2  0  0  0  0
 37 38  1  0  0  0  0
 38 39  1  0  0  0  0
 38 43  1  0  0  0  0
 39 40  1  0  0  0  0
 40 41  1  0  0  0  0
 41 42  1  0  0  0  0
 42 43  1  0  0  0  0
 43 44  1  0  0  0  0
 45 46  1  0  0  0  0
 46 47  1  0  0  0  0
 46 48  1  0  0  0  0
 46 49  1  0  0  0  0
  1 13  1  0  0  0  0
 15 24  1  0  0  0  0
 21 33  1  0  0  0  0
 35 45  1  0  0  0  0
A    1
C
A    2
O
A    3
N1
A    4
C2
A    5
C3
A    6
C4
A    7
C5
A    8
C6
A    9
C7
A   10
C8
A   11
C4A
A   12
C8A
A   13
N
A   14
CA
A   15
C1
A   16
O1
A   17
CB
A   18
CG
A   19
OD1
A   20
ND2
A   21
C9
A   22
O2
A   23
CA1
A   24
N2
A   25
CB1
A   26
CG1
A   27
CD1
A   28
CD2
A   29
CE1
A   30
CE2
A   31
CZ
A   32
N11
A   33
CM
A   34
C21
A   35
CC
A   36
O3
A   37
C31
A   38
C3A
A   39
C41
A   40
C51
A   41
C61
A   42
C71
A   43
C7A
A   44
C81
A   45
N3
A   46
CD
A   47
C11
A   48
C22
A   49
C32
M  END
>  <InstanceId>
3D1Y_ROC_A_201

>  <ChemCompId>
ROC

>  <PdbId>
3D1Y

>  <ChainId>
A

>  <ResidueNumber>
201

>  <InsertionCode>


>  <Model>
1

>  <AltIds>


>  <MissingHeavyAtoms>
0

>  <ObservedFormula>
C38 N6 O5

>  <Name>
(2S)-N-[(2S,3R)-4-[(2S,3S,4aS,8aS)-3-(tert-butylcarbamoyl)-3,4,4a,5,6,7,8,8a-octahydro-1H-isoquinolin-2-yl]-3-hydroxy-1-phenyl-butan-2-yl]-2-(quinolin-2-ylcarbonylamino)butanediamide

>  <SystematicName>
(2S)-N-[(2S,3R)-4-[(2S,3S,4aS,8aS)-3-(tert-butylcarbamoyl)-3,4,4a,5,6,7,8,8a-octahydro-1H-isoquinolin-2-yl]-3-hydroxy-1-phenyl-butan-2-yl]-2-(quinolin-2-ylcarbonylamino)butanediamide

>  <Synonyms>
Fortovase; SAQUINAVIR,RO 31-8959

>  <Type>
peptide-like

>  <Formula>
C38 H50 N6 O5

>  <MolecularWeight>
670.841

>  <ModifiedDate>
2011-11-17

>  <Parent>


>  <OneLetterCode>


>  <SubcomponentList>
QNC ASN HP0 NTB

>  <AmbiguousFlag>
N

>  <InChI>
InChI=1S/C38H50N6O5/c1-38(2,3)43-37(49)32-20-26-14-7-8-15-27(26)22-44(32)23-33(45)30(19-24-11-5-4-6-12-24)41-36(48)31(21-34(39)46)42-35(47)29-18-17-25-13-9-10-16-28(25)40-29/h4-6,9-13,16-18,26-27,30-33,45H,7-8,14-15,19-23H2,1-3H3,(H2,39,46)(H,41,48)(H,42,47)(H,43,49)/t26-,27+,30-,31-,32-,33+/m0/s1

>  <InChIKey>
QWAXKHKRTORLEM-UGJKXSETSA-N

>  <SMILES>
CC(C)(C)NC(=O)[C@@H]1C[C@@H]2CCCC[C@@H]2C[N@]1C[C@H]([C@H](Cc3ccccc3)NC(=O)[C@H](CC(=O)N)NC(=O)c4ccc5ccccc5n4)O

$$$$
