3UTU_1TS_H_901
  RCSB PDB12061711063D
Coordinates from PDB:3UTU:H:901 Model:1 without hydrogens
 47 50  0  0  0  0            999 V2000
   18.0850  -16.3870   24.9640   S 0  0  0  0  0  0  0  0  0  0  0  0
   20.8370  -12.1460   26.6850  Cl 0  0  0  0  0  0  0  0  0  0  0  0
   19.5510  -15.4720   24.9520   C 0  0  0  0  0  0  0  0  0  0  0  0
   23.9730  -13.3580   24.1640   C 0  0  0  0  0  0  0  0  0  0  0  0
   22.9250  -13.0920   24.9790   O 0  0  0  0  0  0  0  0  0  0  0  0
   21.8130  -13.8370   24.8930   C 0  0  0  0  0  0  0  0  0  0  0  0
   18.4230  -17.3820   24.3800   O 0  0  0  0  0  0  0  0  0  0  0  0
   17.6440  -16.3220   26.0080   O 0  0  0  0  0  0  0  0  0  0  0  0
   20.5770  -15.7130   24.0780   C 0  0  0  0  0  0  0  0  0  0  0  0
   19.6800  -14.3240   25.7610   C 0  0  0  0  0  0  0  0  0  0  0  0
   21.7330  -14.9280   24.0610   C 0  0  0  0  0  0  0  0  0  0  0  0
   20.7550  -13.5930   25.6870   C 0  0  0  0  0  0  0  0  0  0  0  0
   17.6640  -13.9570   22.3680   C 0  0  0  0  0  0  0  0  0  0  0  0
   17.1750  -15.7780   23.8350   N 0  0  0  0  0  0  0  0  0  0  0  0
   16.7870  -13.3640   22.8960   O 0  0  0  0  0  0  0  0  0  0  0  0
   14.7330  -19.3660   22.1860   C 0  0  0  0  0  0  0  0  0  0  0  0
   14.2280  -19.6180   23.4990   C 0  0  0  0  0  0  0  0  0  0  0  0
   13.0220  -20.1390   23.6580   C 0  0  0  0  0  0  0  0  0  0  0  0
   12.5970  -20.3510   24.9050   C 0  0  0  0  0  0  0  0  0  0  0  0
   13.3220  -20.1100   26.0220   C 0  0  0  0  0  0  0  0  0  0  0  0
   14.5730  -19.5710   25.8720   C 0  0  0  0  0  0  0  0  0  0  0  0
   14.9450  -19.4300   24.6230   C 0  0  0  0  0  0  0  0  0  0  0  0
   12.8160  -20.3110   27.1020   C 0  0  0  0  0  0  0  0  0  0  0  0
   12.3340  -20.3620   28.0940   N 0  0  0  0  0  0  0  0  0  0  0  0
   17.6950  -15.5130   22.6230   C 0  0  0  0  0  0  0  0  0  0  0  0
   16.8720  -16.1360   21.3880   C 0  0  0  0  0  0  0  0  0  0  0  0
   16.5250  -17.6600   21.5310   C 0  0  0  0  0  0  0  0  0  0  0  0
   17.3940  -18.3810   21.3740   O 0  0  0  0  0  0  0  0  0  0  0  0
   15.3170  -18.0060   21.9460   N 0  0  0  0  0  0  0  0  0  0  0  0
   18.5770  -13.4810   21.6180   N 0  0  0  0  0  0  0  0  0  0  0  0
   18.4480  -12.1770   21.1290   C 0  0  0  0  0  0  0  0  0  0  0  0
   17.1200  -12.1720   20.2810   C 0  0  0  0  0  0  0  0  0  0  0  0
   16.8440  -12.9880   19.4770   O 0  0  0  0  0  0  0  0  0  0  0  0
   19.5280  -12.0160   20.0730   C 0  0  0  0  0  0  0  0  0  0  0  0
   20.3560  -13.2590   20.0790   C 0  0  0  0  0  0  0  0  0  0  0  0
   19.6190  -14.2220   20.9120   C 0  0  0  0  0  0  0  0  0  0  0  0
   16.3280  -11.0690   20.4540   N 0  0  0  0  0  0  0  0  0  0  0  0
   15.0790  -10.8690   19.7970   C 0  0  0  0  0  0  0  0  0  0  0  0
   14.0190  -10.8830   20.8490   C 0  0  0  0  0  0  0  0  0  0  0  0
   13.4110   -9.7610   21.3260   C 0  0  0  0  0  0  0  0  0  0  0  0
   12.5010   -9.7550   22.2480   C 0  0  0  0  0  0  0  0  0  0  0  0
   12.0730  -10.8450   22.8530   C 0  0  0  0  0  0  0  0  0  0  0  0
   11.0670  -10.8660   23.8680   C 0  0  0  0  0  0  0  0  0  0  0  0
   10.8020   -9.8930   24.4720   N 0  0  0  0  0  0  0  0  0  0  0  0
   10.3980  -11.9280   24.1010   N 0  0  0  0  0  0  0  0  0  0  0  0
   12.6730  -11.9760   22.4630   C 0  0  0  0  0  0  0  0  0  0  0  0
   13.5990  -11.9520   21.4950   C 0  0  0  0  0  0  0  0  0  0  0  0
 33 32  2  0  0  0  0
 38 37  1  0  0  0  0
 38 39  1  0  0  0  0
 34 35  1  0  0  0  0
 34 31  1  0  0  0  0
 35 36  1  0  0  0  0
 32 37  1  0  0  0  0
 32 31  1  0  0  0  0
 39 40  2  0  0  0  0
 39 47  1  0  0  0  0
 36 30  1  0  0  0  0
 31 30  1  0  0  0  0
 40 41  1  0  0  0  0
 28 27  2  0  0  0  0
 26 27  1  0  0  0  0
 26 25  1  0  0  0  0
 47 46  2  0  0  0  0
 27 29  1  0  0  0  0
 30 13  1  0  0  0  0
 29 16  1  0  0  0  0
 16 17  1  0  0  0  0
 41 42  2  0  0  0  0
 13 25  1  0  0  0  0
 13 15  2  0  0  0  0
 46 42  1  0  0  0  0
 25 14  1  0  0  0  0
 42 43  1  0  0  0  0
 17 18  2  0  0  0  0
 17 22  1  0  0  0  0
 18 19  1  0  0  0  0
 14  1  1  0  0  0  0
 43 45  1  0  0  0  0
 43 44  2  0  0  0  0
 11  9  2  0  0  0  0
 11  6  1  0  0  0  0
  9  3  1  0  0  0  0
  4  5  1  0  0  0  0
  7  1  2  0  0  0  0
 22 21  2  0  0  0  0
  6  5  1  0  0  0  0
  6 12  2  0  0  0  0
 19 20  2  0  0  0  0
  3  1  1  0  0  0  0
  3 10  2  0  0  0  0
  1  8  2  0  0  0  0
 12 10  1  0  0  0  0
 12  2  1  0  0  0  0
 21 20  1  0  0  0  0
 20 23  1  0  0  0  0
 23 24  3  0  0  0  0
A    1
S8
A    2
CL
A    3
C35
A    4
C10
A    5
O9
A    6
C5
A    7
O1
A    8
O10
A    9
C7
A   10
C3
A   11
C6
A   12
C4
A   13
C13
A   14
N11
A   15
O14
A   16
C15
A   17
C31
A   18
C32
A   19
C33
A   20
C44
A   21
C8
A   22
C9
A   23
C40
A   24
N63
A   25
C45
A   26
C12
A   27
C46
A   28
O22
A   29
N14
A   30
N15
A   31
C16
A   32
C17
A   33
O18
A   34
C34
A   35
C1
A   36
C2
A   37
N19
A   38
C20
A   39
C21
A   40
C26
A   41
C25
A   42
C24
A   43
C27
A   44
N29
A   45
N28
A   46
C23
A   47
C22
M  END
>  <InstanceId>
3UTU_1TS_H_901

>  <ChemCompId>
1TS

>  <PdbId>
3UTU

>  <ChainId>
H

>  <ResidueNumber>
901

>  <InsertionCode>


>  <Model>
1

>  <AltIds>


>  <MissingHeavyAtoms>
0

>  <ObservedFormula>
C32 N7 O6 S Cl

>  <Name>
(2S)-N-[(4-carbamimidoylphenyl)methyl]-1-[(2S)-2-[(3-chloro-4-methoxybenzene)sulfonamido]-3-{[(4-cyanophenyl)methyl]carbamoyl}propanoyl]pyrrolidine-2-carboxamide

>  <SystematicName>
(2S)-N-[(4-carbamimidoylphenyl)methyl]-1-[(2S)-2-[(3-chloranyl-4-methoxy-phenyl)sulfonylamino]-4-[(4-cyanophenyl)methylamino]-4-oxidanylidene-butanoyl]pyrrolidine-2-carboxamide

>  <Synonyms>


>  <Type>
peptide-like

>  <Formula>
C32 H34 Cl N7 O6 S

>  <MolecularWeight>
680.174

>  <ModifiedDate>
2012-08-24

>  <Parent>


>  <OneLetterCode>


>  <SubcomponentList>
BSZ AS7 PRO 00S

>  <AmbiguousFlag>
N

>  <InChI>
InChI=1S/C32H34ClN7O6S/c1-46-28-13-12-24(15-25(28)33)47(44,45)39-26(16-29(41)37-18-21-6-4-20(17-34)5-7-21)32(43)40-14-2-3-27(40)31(42)38-19-22-8-10-23(11-9-22)30(35)36/h4-13,15,26-27,39H,2-3,14,16,18-19H2,1H3,(H3,35,36)(H,37,41)(H,38,42)/t26-,27-/m0/s1

>  <InChIKey>
YNEVNNWCKYNFGX-SVBPBHIXSA-N

>  <SMILES>
[H]/N=C(/c1ccc(cc1)CNC(=O)[C@@H]2CCCN2C(=O)[C@H](CC(=O)NCc3ccc(cc3)C#N)NS(=O)(=O)c4ccc(c(c4)Cl)OC)\N

$$$$
