3UTU_1TS_H_901


 53 56  0  0  0  0  0  0  0  0999 V2000
   17.5772  -15.3900   22.4981 C   0  0  0  0  0  0  0  0  0  0  0  0
   17.6116  -13.8374   22.2236 C   0  0  0  0  0  0  0  0  0  0  0  0
   16.7150  -13.2124   22.6765 O   0  0  0  0  0  0  0  0  0  0  0  0
   18.5924  -13.3980   21.5399 N   0  0  0  0  0  0  0  0  0  0  0  0
   18.5394  -12.0976   21.0275 C   0  0  0  0  0  0  0  0  0  0  0  0
   19.7006  -11.9820   20.0550 C   0  0  0  0  0  0  0  0  0  0  0  0
   20.4887  -13.2480   20.1383 C   0  0  0  0  0  0  0  0  0  0  0  0
   19.6626  -14.1780   20.9238 C   0  0  0  0  0  0  0  0  0  0  0  0
   17.2802  -12.0663   20.0809 C   0  0  0  0  0  0  0  0  0  0  0  0
   17.2007  -12.6563   19.0640 O   0  0  0  0  0  0  0  0  0  0  0  0
   16.2928  -11.1978   20.4611 N   0  0  0  0  0  0  0  0  0  0  0  0
   16.4398  -10.6594   21.2721 H   0  0  0  0  0  0  0  0  0  0  0  0
   15.0655  -11.0231   19.7577 C   0  0  0  0  0  0  0  0  0  0  0  0
   13.9733  -10.9902   20.7759 C   0  0  0  0  0  0  0  0  0  0  0  0
   13.5525   -9.8536   21.3981 C   0  0  0  0  0  0  0  0  0  0  0  0
   12.6173   -9.8105   22.2935 C   0  0  0  0  0  0  0  0  0  0  0  0
   11.9764  -10.8778   22.7262 C   0  0  0  0  0  0  0  0  0  0  0  0
   12.3838  -12.0338   22.1886 C   0  0  0  0  0  0  0  0  0  0  0  0
   13.3422  -12.0443   21.2523 C   0  0  0  0  0  0  0  0  0  0  0  0
   10.9378  -10.8564   23.7078 C   0  0  0  0  0  0  0  0  0  0  0  0
   10.3546  -11.8380   23.9875 N   0  0  0  0  0  0  0  0  0  0  0  0
   10.6601   -9.7826   24.3398 N   0  0  0  0  0  0  0  0  0  0  0  0
   10.5507  -12.6788   23.5145 H   0  0  0  0  0  0  0  0  0  0  0  0
   11.1347   -8.9475   24.1238 H   0  0  0  0  0  0  0  0  0  0  0  0
    9.9713   -9.7895   25.0432 H   0  0  0  0  0  0  0  0  0  0  0  0
   17.1593  -15.6123   23.7573 N   0  0  0  0  0  0  0  0  0  0  0  0
   16.3083  -16.1708   23.6910 H   0  0  0  0  0  0  0  0  0  0  0  0
   18.1037  -16.3432   24.7807 S   0  0  0  0  0  0  0  0  0  0  0  0
   18.3879  -17.2873   24.0927 O   0  0  0  0  0  0  0  0  0  0  0  0
   17.7131  -16.3652   25.8464 O   0  0  0  0  0  0  0  0  0  0  0  0
   20.8735  -12.0531   26.3443 Cl  0  0  0  0  0  0  0  0  0  0  0  0
   19.5914  -15.4640   24.7816 C   0  0  0  0  0  0  0  0  0  0  0  0
   21.8948  -13.8876   24.7271 C   0  0  0  0  0  0  0  0  0  0  0  0
   20.6536  -15.7887   23.9810 C   0  0  0  0  0  0  0  0  0  0  0  0
   19.7090  -14.2649   25.5146 C   0  0  0  0  0  0  0  0  0  0  0  0
   21.8288  -15.0325   23.9698 C   0  0  0  0  0  0  0  0  0  0  0  0
   20.8047  -13.5648   25.4461 C   0  0  0  0  0  0  0  0  0  0  0  0
   24.1258  -13.5567   24.1444 C   0  0  0  0  0  0  0  0  0  0  0  0
   23.0198  -13.1631   24.8190 O   0  0  0  0  0  0  0  0  0  0  0  0
   16.6073  -15.9757   21.3550 C   0  0  0  0  0  0  0  0  0  0  0  0
   15.3489  -16.7454   21.8912 C   0  0  0  0  0  0  0  0  0  0  0  0
   14.3453  -16.2342   21.7148 O   0  0  0  0  0  0  0  0  0  0  0  0
   15.5039  -17.9658   22.3789 N   0  0  0  0  0  0  0  0  0  0  0  0
   16.4302  -18.2993   22.3788 H   0  0  0  0  0  0  0  0  0  0  0  0
   14.4873  -18.9194   22.9315 C   0  0  0  0  0  0  0  0  0  0  0  0
   14.6491  -19.2979   24.3001 C   0  0  0  0  0  0  0  0  0  0  0  0
   13.6692  -19.9176   24.9380 C   0  0  0  0  0  0  0  0  0  0  0  0
   13.8704  -20.2458   26.2157 C   0  0  0  0  0  0  0  0  0  0  0  0
   15.0175  -20.0282   26.9000 C   0  0  0  0  0  0  0  0  0  0  0  0
   16.0408  -19.3878   26.2513 C   0  0  0  0  0  0  0  0  0  0  0  0
   15.7941  -19.1341   24.9892 C   0  0  0  0  0  0  0  0  0  0  0  0
   15.0699  -20.3401   28.0674 C   0  0  0  0  0  0  0  0  0  0  0  0
   14.9868  -20.6523   29.1231 N   0  0  0  0  0  0  0  0  0  0  0  0
 10  9  2  0  0  0
 13 11  1  0  0  0
 13 14  1  0  0  0
  6  7  1  0  0  0
  6  5  1  0  0  0
  7  8  1  0  0  0
  9 11  1  0  0  0
  9  5  1  0  0  0
 14 15  2  0  0  0
 14 19  1  0  0  0
  8  4  1  0  0  0
  5  4  1  0  0  0
 15 16  1  0  0  0
 42 41  2  0  0  0
 40 41  1  0  0  0
 40  1  1  0  0  0
 19 18  2  0  0  0
 41 43  1  0  0  0
  4  2  1  0  0  0
 43 45  1  0  0  0
 45 46  1  0  0  0
 16 17  2  0  0  0
  2  1  1  0  0  0
  2  3  2  0  0  0
 18 17  1  0  0  0
  1 26  1  0  0  0
 17 20  1  0  0  0
 46 47  2  0  0  0
 46 51  1  0  0  0
 47 48  1  0  0  0
 26 28  1  0  0  0
 20 22  1  0  0  0
 20 21  2  0  0  0
 36 34  2  0  0  0
 36 33  1  0  0  0
 34 32  1  0  0  0
 38 39  1  0  0  0
 29 28  2  0  0  0
 51 50  2  0  0  0
 33 39  1  0  0  0
 33 37  2  0  0  0
 48 49  2  0  0  0
 32 28  1  0  0  0
 32 35  2  0  0  0
 28 30  2  0  0  0
 37 35  1  0  0  0
 37 31  1  0  0  0
 50 49  1  0  0  0
 49 52  1  0  0  0
 52 53  3  0  0  0
 26 27  1  0  0  0
 43 44  1  0  0  0
 11 12  1  0  0  0
 21 23  1  0  0  0
 22 24  1  0  0  0
 22 25  1  0  0  0
M  END
> <minimizedAffinity>
-10.33967

$$$$
3UTU_1TS_H_901


 53 56  0  0  0  0  0  0  0  0999 V2000
   17.6499  -15.3479   22.3147 C   0  0  0  0  0  0  0  0  0  0  0  0
   17.6502  -13.7862   22.0946 C   0  0  0  0  0  0  0  0  0  0  0  0
   16.7411  -13.1970   22.5698 O   0  0  0  0  0  0  0  0  0  0  0  0
   18.6203  -13.3021   21.4259 N   0  0  0  0  0  0  0  0  0  0  0  0
   18.5383  -11.9861   20.9594 C   0  0  0  0  0  0  0  0  0  0  0  0
   19.6952  -11.8114   19.9905 C   0  0  0  0  0  0  0  0  0  0  0  0
   20.5106  -13.0622   20.0288 C   0  0  0  0  0  0  0  0  0  0  0  0
   19.7060  -14.0368   20.7820 C   0  0  0  0  0  0  0  0  0  0  0  0
   17.2772  -11.9490   20.0155 C   0  0  0  0  0  0  0  0  0  0  0  0
   17.2250  -12.4672   18.9585 O   0  0  0  0  0  0  0  0  0  0  0  0
   16.2488  -11.1601   20.4558 N   0  0  0  0  0  0  0  0  0  0  0  0
   16.3706  -10.6751   21.3038 H   0  0  0  0  0  0  0  0  0  0  0  0
   15.0129  -10.9962   19.7649 C   0  0  0  0  0  0  0  0  0  0  0  0
   13.9326  -10.9547   20.7954 C   0  0  0  0  0  0  0  0  0  0  0  0
   13.6032   -9.8375   21.5022 C   0  0  0  0  0  0  0  0  0  0  0  0
   12.6794   -9.7888   22.4091 C   0  0  0  0  0  0  0  0  0  0  0  0
   11.9619  -10.8333   22.7717 C   0  0  0  0  0  0  0  0  0  0  0  0
   12.2771  -11.9748   22.1481 C   0  0  0  0  0  0  0  0  0  0  0  0
   13.2261  -11.9899   21.2025 C   0  0  0  0  0  0  0  0  0  0  0  0
   10.9339  -10.8046   23.7642 C   0  0  0  0  0  0  0  0  0  0  0  0
   10.3900  -11.7928   24.0951 N   0  0  0  0  0  0  0  0  0  0  0  0
   10.6240   -9.7139   24.3506 N   0  0  0  0  0  0  0  0  0  0  0  0
   10.6116  -12.6467   23.6580 H   0  0  0  0  0  0  0  0  0  0  0  0
   11.0655   -8.8730   24.0913 H   0  0  0  0  0  0  0  0  0  0  0  0
    9.9436   -9.7135   25.0621 H   0  0  0  0  0  0  0  0  0  0  0  0
   17.0556  -15.6342   23.4870 N   0  0  0  0  0  0  0  0  0  0  0  0
   16.2756  -16.2572   23.2776 H   0  0  0  0  0  0  0  0  0  0  0  0
   17.8813  -16.3122   24.6412 S   0  0  0  0  0  0  0  0  0  0  0  0
   18.1893  -17.3141   24.0525 O   0  0  0  0  0  0  0  0  0  0  0  0
   17.3998  -16.2409   25.6668 O   0  0  0  0  0  0  0  0  0  0  0  0
   20.8036  -12.3004   26.6129 Cl  0  0  0  0  0  0  0  0  0  0  0  0
   19.3943  -15.4799   24.7090 C   0  0  0  0  0  0  0  0  0  0  0  0
   21.7421  -13.9713   24.7824 C   0  0  0  0  0  0  0  0  0  0  0  0
   20.4325  -15.7428   23.8560 C   0  0  0  0  0  0  0  0  0  0  0  0
   19.5599  -14.3733   25.5676 C   0  0  0  0  0  0  0  0  0  0  0  0
   21.6292  -15.0228   23.9046 C   0  0  0  0  0  0  0  0  0  0  0  0
   20.6746  -13.7005   25.5547 C   0  0  0  0  0  0  0  0  0  0  0  0
   23.9947  -13.6924   24.2584 C   0  0  0  0  0  0  0  0  0  0  0  0
   22.8896  -13.2929   24.9309 O   0  0  0  0  0  0  0  0  0  0  0  0
   16.8958  -15.9331   21.0186 C   0  0  0  0  0  0  0  0  0  0  0  0
   15.4032  -16.3538   21.2604 C   0  0  0  0  0  0  0  0  0  0  0  0
   14.6625  -15.4962   21.3852 O   0  0  0  0  0  0  0  0  0  0  0  0
   15.0757  -17.6330   21.1725 N   0  0  0  0  0  0  0  0  0  0  0  0
   15.8230  -18.2407   20.9689 H   0  0  0  0  0  0  0  0  0  0  0  0
   13.7427  -18.3001   21.3349 C   0  0  0  0  0  0  0  0  0  0  0  0
   13.0078  -18.5520   20.1352 C   0  0  0  0  0  0  0  0  0  0  0  0
   13.6067  -18.4631   18.9586 C   0  0  0  0  0  0  0  0  0  0  0  0
   12.8743  -18.7046   17.8696 C   0  0  0  0  0  0  0  0  0  0  0  0
   11.5721  -19.0729   17.8779 C   0  0  0  0  0  0  0  0  0  0  0  0
   10.9395  -19.1694   19.0897 C   0  0  0  0  0  0  0  0  0  0  0  0
   11.7259  -18.9633   20.1180 C   0  0  0  0  0  0  0  0  0  0  0  0
   11.0029  -19.2319   16.8226 C   0  0  0  0  0  0  0  0  0  0  0  0
   10.5917  -19.4459   15.8206 N   0  0  0  0  0  0  0  0  0  0  0  0
 10  9  2  0  0  0
 13 11  1  0  0  0
 13 14  1  0  0  0
  6  7  1  0  0  0
  6  5  1  0  0  0
  7  8  1  0  0  0
  9 11  1  0  0  0
  9  5  1  0  0  0
 14 15  2  0  0  0
 14 19  1  0  0  0
  8  4  1  0  0  0
  5  4  1  0  0  0
 15 16  1  0  0  0
 42 41  2  0  0  0
 40 41  1  0  0  0
 40  1  1  0  0  0
 19 18  2  0  0  0
 41 43  1  0  0  0
  4  2  1  0  0  0
 43 45  1  0  0  0
 45 46  1  0  0  0
 16 17  2  0  0  0
  2  1  1  0  0  0
  2  3  2  0  0  0
 18 17  1  0  0  0
  1 26  1  0  0  0
 17 20  1  0  0  0
 46 47  2  0  0  0
 46 51  1  0  0  0
 47 48  1  0  0  0
 26 28  1  0  0  0
 20 22  1  0  0  0
 20 21  2  0  0  0
 36 34  2  0  0  0
 36 33  1  0  0  0
 34 32  1  0  0  0
 38 39  1  0  0  0
 29 28  2  0  0  0
 51 50  2  0  0  0
 33 39  1  0  0  0
 33 37  2  0  0  0
 48 49  2  0  0  0
 32 28  1  0  0  0
 32 35  2  0  0  0
 28 30  2  0  0  0
 37 35  1  0  0  0
 37 31  1  0  0  0
 50 49  1  0  0  0
 49 52  1  0  0  0
 52 53  3  0  0  0
 26 27  1  0  0  0
 43 44  1  0  0  0
 11 12  1  0  0  0
 21 23  1  0  0  0
 22 24  1  0  0  0
 22 25  1  0  0  0
M  END
> <minimizedAffinity>
-10.00468

$$$$
3UTU_1TS_H_901


 53 56  0  0  0  0  0  0  0  0999 V2000
   17.7235  -15.3925   22.6712 C   0  0  0  0  0  0  0  0  0  0  0  0
   17.7164  -13.8488   22.3487 C   0  0  0  0  0  0  0  0  0  0  0  0
   16.8161  -13.2300   22.8028 O   0  0  0  0  0  0  0  0  0  0  0  0
   18.6715  -13.4093   21.6295 N   0  0  0  0  0  0  0  0  0  0  0  0
   18.5774  -12.1270   21.0790 C   0  0  0  0  0  0  0  0  0  0  0  0
   19.7137  -12.0160   20.0770 C   0  0  0  0  0  0  0  0  0  0  0  0
   20.5321  -13.2611   20.1808 C   0  0  0  0  0  0  0  0  0  0  0  0
   19.7451  -14.1843   21.0131 C   0  0  0  0  0  0  0  0  0  0  0  0
   17.2970  -12.1529   20.1611 C   0  0  0  0  0  0  0  0  0  0  0  0
   17.1869  -12.8199   19.1960 O   0  0  0  0  0  0  0  0  0  0  0  0
   16.3292  -11.2437   20.4933 N   0  0  0  0  0  0  0  0  0  0  0  0
   16.5015  -10.6452   21.2558 H   0  0  0  0  0  0  0  0  0  0  0  0
   15.0881  -11.1080   19.8057 C   0  0  0  0  0  0  0  0  0  0  0  0
   14.0136  -11.0468   20.8412 C   0  0  0  0  0  0  0  0  0  0  0  0
   13.3579  -12.1420   21.3173 C   0  0  0  0  0  0  0  0  0  0  0  0
   12.4142  -12.1045   22.2040 C   0  0  0  0  0  0  0  0  0  0  0  0
   11.9598  -10.9865   22.7341 C   0  0  0  0  0  0  0  0  0  0  0  0
   12.5305   -9.8704   22.2652 C   0  0  0  0  0  0  0  0  0  0  0  0
   13.5159   -9.9426   21.3603 C   0  0  0  0  0  0  0  0  0  0  0  0
   10.9248  -10.9185   23.7173 C   0  0  0  0  0  0  0  0  0  0  0  0
   10.3076  -11.8758   24.0077 N   0  0  0  0  0  0  0  0  0  0  0  0
   10.6869   -9.8292   24.3392 N   0  0  0  0  0  0  0  0  0  0  0  0
   10.4726  -12.7277   23.5426 H   0  0  0  0  0  0  0  0  0  0  0  0
   11.1905   -9.0138   24.1141 H   0  0  0  0  0  0  0  0  0  0  0  0
    9.9998   -9.8047   25.0438 H   0  0  0  0  0  0  0  0  0  0  0  0
   17.0711  -15.6109   23.8272 N   0  0  0  0  0  0  0  0  0  0  0  0
   16.2514  -16.1742   23.6010 H   0  0  0  0  0  0  0  0  0  0  0  0
   17.8031  -16.3317   25.0181 S   0  0  0  0  0  0  0  0  0  0  0  0
   18.0319  -17.3722   24.4612 O   0  0  0  0  0  0  0  0  0  0  0  0
   17.3056  -16.1906   26.0287 O   0  0  0  0  0  0  0  0  0  0  0  0
   20.8851  -12.1043   26.0915 Cl  0  0  0  0  0  0  0  0  0  0  0  0
   19.3840  -15.6393   25.1064 C   0  0  0  0  0  0  0  0  0  0  0  0
   21.8719  -14.3734   25.1422 C   0  0  0  0  0  0  0  0  0  0  0  0
   20.5012  -16.2582   24.6131 C   0  0  0  0  0  0  0  0  0  0  0  0
   19.5572  -14.3170   25.5654 C   0  0  0  0  0  0  0  0  0  0  0  0
   21.7609  -15.6547   24.6578 C   0  0  0  0  0  0  0  0  0  0  0  0
   20.7402  -13.7733   25.5527 C   0  0  0  0  0  0  0  0  0  0  0  0
   23.7501  -13.3840   24.1831 C   0  0  0  0  0  0  0  0  0  0  0  0
   23.0615  -13.7702   25.2831 O   0  0  0  0  0  0  0  0  0  0  0  0
   17.0470  -16.0731   21.3790 C   0  0  0  0  0  0  0  0  0  0  0  0
   17.7467  -17.3889   20.8866 C   0  0  0  0  0  0  0  0  0  0  0  0
   17.2889  -17.8755   19.9629 O   0  0  0  0  0  0  0  0  0  0  0  0
   18.8721  -17.7723   21.4677 N   0  0  0  0  0  0  0  0  0  0  0  0
   19.1837  -17.1887   22.1968 H   0  0  0  0  0  0  0  0  0  0  0  0
   19.7461  -18.9581   21.1878 C   0  0  0  0  0  0  0  0  0  0  0  0
   21.1542  -18.7562   21.3255 C   0  0  0  0  0  0  0  0  0  0  0  0
   21.7124  -18.7662   22.5253 C   0  0  0  0  0  0  0  0  0  0  0  0
   23.0301  -18.5692   22.5984 C   0  0  0  0  0  0  0  0  0  0  0  0
   23.8481  -18.3985   21.5339 C   0  0  0  0  0  0  0  0  0  0  0  0
   23.2835  -18.3865   20.2853 C   0  0  0  0  0  0  0  0  0  0  0  0
   21.9954  -18.6296   20.2818 C   0  0  0  0  0  0  0  0  0  0  0  0
   25.0244  -18.1939   21.7275 C   0  0  0  0  0  0  0  0  0  0  0  0
   26.1198  -18.0700   21.7876 N   0  0  0  0  0  0  0  0  0  0  0  0
 10  9  2  0  0  0
 13 11  1  0  0  0
 13 14  1  0  0  0
  6  7  1  0  0  0
  6  5  1  0  0  0
  7  8  1  0  0  0
  9 11  1  0  0  0
  9  5  1  0  0  0
 14 15  2  0  0  0
 14 19  1  0  0  0
  8  4  1  0  0  0
  5  4  1  0  0  0
 15 16  1  0  0  0
 42 41  2  0  0  0
 40 41  1  0  0  0
 40  1  1  0  0  0
 19 18  2  0  0  0
 41 43  1  0  0  0
  4  2  1  0  0  0
 43 45  1  0  0  0
 45 46  1  0  0  0
 16 17  2  0  0  0
  2  1  1  0  0  0
  2  3  2  0  0  0
 18 17  1  0  0  0
  1 26  1  0  0  0
 17 20  1  0  0  0
 46 47  2  0  0  0
 46 51  1  0  0  0
 47 48  1  0  0  0
 26 28  1  0  0  0
 20 22  1  0  0  0
 20 21  2  0  0  0
 36 34  2  0  0  0
 36 33  1  0  0  0
 34 32  1  0  0  0
 38 39  1  0  0  0
 29 28  2  0  0  0
 51 50  2  0  0  0
 33 39  1  0  0  0
 33 37  2  0  0  0
 48 49  2  0  0  0
 32 28  1  0  0  0
 32 35  2  0  0  0
 28 30  2  0  0  0
 37 35  1  0  0  0
 37 31  1  0  0  0
 50 49  1  0  0  0
 49 52  1  0  0  0
 52 53  3  0  0  0
 26 27  1  0  0  0
 43 44  1  0  0  0
 11 12  1  0  0  0
 21 23  1  0  0  0
 22 24  1  0  0  0
 22 25  1  0  0  0
M  END
> <minimizedAffinity>
-9.91065

$$$$
3UTU_1TS_H_901


 53 56  0  0  0  0  0  0  0  0999 V2000
   17.7139  -15.3108   22.5156 C   0  0  0  0  0  0  0  0  0  0  0  0
   17.6843  -13.7638   22.2104 C   0  0  0  0  0  0  0  0  0  0  0  0
   16.7760  -13.1630   22.6724 O   0  0  0  0  0  0  0  0  0  0  0  0
   18.6321  -13.3027   21.4950 N   0  0  0  0  0  0  0  0  0  0  0  0
   18.5191  -12.0158   20.9591 C   0  0  0  0  0  0  0  0  0  0  0  0
   19.6524  -11.8775   19.9570 C   0  0  0  0  0  0  0  0  0  0  0  0
   20.4885  -13.1118   20.0459 C   0  0  0  0  0  0  0  0  0  0  0  0
   19.7159  -14.0554   20.8687 C   0  0  0  0  0  0  0  0  0  0  0  0
   17.2380  -12.0497   20.0424 C   0  0  0  0  0  0  0  0  0  0  0  0
   17.1436  -12.6918   19.0589 O   0  0  0  0  0  0  0  0  0  0  0  0
   16.2472  -11.1761   20.4015 N   0  0  0  0  0  0  0  0  0  0  0  0
   16.4051  -10.5951   21.1804 H   0  0  0  0  0  0  0  0  0  0  0  0
   15.0015  -11.0540   19.7196 C   0  0  0  0  0  0  0  0  0  0  0  0
   13.9310  -11.0065   20.7600 C   0  0  0  0  0  0  0  0  0  0  0  0
   13.5205   -9.8606   21.3720 C   0  0  0  0  0  0  0  0  0  0  0  0
   12.6042   -9.8045   22.2861 C   0  0  0  0  0  0  0  0  0  0  0  0
   11.9753  -10.8659   22.7500 C   0  0  0  0  0  0  0  0  0  0  0  0
   12.3742  -12.0298   22.2231 C   0  0  0  0  0  0  0  0  0  0  0  0
   13.3127  -12.0538   21.2672 C   0  0  0  0  0  0  0  0  0  0  0  0
   10.9576  -10.8304   23.7528 C   0  0  0  0  0  0  0  0  0  0  0  0
   10.7178   -9.8354   24.3310 N   0  0  0  0  0  0  0  0  0  0  0  0
   10.2514  -11.8643   24.0020 N   0  0  0  0  0  0  0  0  0  0  0  0
   11.2482   -9.0246   24.1564 H   0  0  0  0  0  0  0  0  0  0  0  0
   10.4327  -12.7095   23.5308 H   0  0  0  0  0  0  0  0  0  0  0  0
    9.5256  -11.8164   24.6654 H   0  0  0  0  0  0  0  0  0  0  0  0
   17.7355  -15.5037   23.8467 N   0  0  0  0  0  0  0  0  0  0  0  0
   17.2998  -16.4095   24.0203 H   0  0  0  0  0  0  0  0  0  0  0  0
   19.1061  -15.5035   24.6181 S   0  0  0  0  0  0  0  0  0  0  0  0
   18.8815  -14.5738   25.3465 O   0  0  0  0  0  0  0  0  0  0  0  0
   20.0168  -15.6509   23.9566 O   0  0  0  0  0  0  0  0  0  0  0  0
   20.0180  -20.6679   25.6272 Cl  0  0  0  0  0  0  0  0  0  0  0  0
   19.0390  -16.8273   25.7270 C   0  0  0  0  0  0  0  0  0  0  0  0
   18.8403  -19.0676   27.3808 C   0  0  0  0  0  0  0  0  0  0  0  0
   18.3831  -16.7661   26.9273 C   0  0  0  0  0  0  0  0  0  0  0  0
   19.5418  -18.0919   25.3569 C   0  0  0  0  0  0  0  0  0  0  0  0
   18.3069  -17.8670   27.7847 C   0  0  0  0  0  0  0  0  0  0  0  0
   19.4148  -19.1048   26.1651 C   0  0  0  0  0  0  0  0  0  0  0  0
   17.9049  -20.2918   29.1280 C   0  0  0  0  0  0  0  0  0  0  0  0
   18.8679  -20.1378   28.1887 O   0  0  0  0  0  0  0  0  0  0  0  0
   16.4073  -15.8885   21.7741 C   0  0  0  0  0  0  0  0  0  0  0  0
   16.0780  -17.3890   22.0961 C   0  0  0  0  0  0  0  0  0  0  0  0
   15.3916  -17.9142   21.3528 O   0  0  0  0  0  0  0  0  0  0  0  0
   16.7025  -17.9806   23.1017 N   0  0  0  0  0  0  0  0  0  0  0  0
   17.3354  -17.4083   23.5928 H   0  0  0  0  0  0  0  0  0  0  0  0
   16.5955  -19.3875   23.6090 C   0  0  0  0  0  0  0  0  0  0  0  0
   15.5340  -19.6524   24.5286 C   0  0  0  0  0  0  0  0  0  0  0  0
   14.3212  -19.9333   24.0799 C   0  0  0  0  0  0  0  0  0  0  0  0
   13.3654  -20.1692   24.9806 C   0  0  0  0  0  0  0  0  0  0  0  0
   13.5503  -20.1818   26.3211 C   0  0  0  0  0  0  0  0  0  0  0  0
   14.8016  -19.8931   26.7997 C   0  0  0  0  0  0  0  0  0  0  0  0
   15.7013  -19.7157   25.8631 C   0  0  0  0  0  0  0  0  0  0  0  0
   12.5978  -20.3754   27.0409 C   0  0  0  0  0  0  0  0  0  0  0  0
   11.7258  -20.4193   27.7166 N   0  0  0  0  0  0  0  0  0  0  0  0
 10  9  2  0  0  0
 13 11  1  0  0  0
 13 14  1  0  0  0
  6  7  1  0  0  0
  6  5  1  0  0  0
  7  8  1  0  0  0
  9 11  1  0  0  0
  9  5  1  0  0  0
 14 15  2  0  0  0
 14 19  1  0  0  0
  8  4  1  0  0  0
  5  4  1  0  0  0
 15 16  1  0  0  0
 42 41  2  0  0  0
 40 41  1  0  0  0
 40  1  1  0  0  0
 19 18  2  0  0  0
 41 43  1  0  0  0
  4  2  1  0  0  0
 43 45  1  0  0  0
 45 46  1  0  0  0
 16 17  2  0  0  0
  2  1  1  0  0  0
  2  3  2  0  0  0
 18 17  1  0  0  0
  1 26  1  0  0  0
 17 20  1  0  0  0
 46 47  2  0  0  0
 46 51  1  0  0  0
 47 48  1  0  0  0
 26 28  1  0  0  0
 20 22  1  0  0  0
 20 21  2  0  0  0
 36 34  2  0  0  0
 36 33  1  0  0  0
 34 32  1  0  0  0
 38 39  1  0  0  0
 29 28  2  0  0  0
 51 50  2  0  0  0
 33 39  1  0  0  0
 33 37  2  0  0  0
 48 49  2  0  0  0
 32 28  1  0  0  0
 32 35  2  0  0  0
 28 30  2  0  0  0
 37 35  1  0  0  0
 37 31  1  0  0  0
 50 49  1  0  0  0
 49 52  1  0  0  0
 52 53  3  0  0  0
 26 27  1  0  0  0
 43 44  1  0  0  0
 11 12  1  0  0  0
 21 23  1  0  0  0
 22 24  1  0  0  0
 22 25  1  0  0  0
M  END
> <minimizedAffinity>
-9.14105

$$$$
3UTU_1TS_H_901


 53 56  0  0  0  0  0  0  0  0999 V2000
   17.9322  -15.2627   22.7419 C   0  0  0  0  0  0  0  0  0  0  0  0
   17.8176  -13.7400   22.3474 C   0  0  0  0  0  0  0  0  0  0  0  0
   16.8846  -13.1608   22.7874 O   0  0  0  0  0  0  0  0  0  0  0  0
   18.7310  -13.2736   21.5919 N   0  0  0  0  0  0  0  0  0  0  0  0
   18.5439  -12.0282   20.9835 C   0  0  0  0  0  0  0  0  0  0  0  0
   19.6559  -11.8909   19.9578 C   0  0  0  0  0  0  0  0  0  0  0  0
   20.5569  -13.0728   20.1058 C   0  0  0  0  0  0  0  0  0  0  0  0
   19.8450  -14.0049   20.9941 C   0  0  0  0  0  0  0  0  0  0  0  0
   17.2552  -12.1825   20.0900 C   0  0  0  0  0  0  0  0  0  0  0  0
   17.1614  -12.9325   19.1860 O   0  0  0  0  0  0  0  0  0  0  0  0
   16.2548  -11.2877   20.3592 N   0  0  0  0  0  0  0  0  0  0  0  0
   16.4111  -10.6206   21.0661 H   0  0  0  0  0  0  0  0  0  0  0  0
   15.0014  -11.2601   19.6812 C   0  0  0  0  0  0  0  0  0  0  0  0
   13.9368  -11.1632   20.7241 C   0  0  0  0  0  0  0  0  0  0  0  0
   13.6205  -10.0107   21.3782 C   0  0  0  0  0  0  0  0  0  0  0  0
   12.7106   -9.9132   22.2951 C   0  0  0  0  0  0  0  0  0  0  0  0
   11.9962  -10.9358   22.7208 C   0  0  0  0  0  0  0  0  0  0  0  0
   12.2993  -12.1084   22.1512 C   0  0  0  0  0  0  0  0  0  0  0  0
   13.2340  -12.1742   21.1936 C   0  0  0  0  0  0  0  0  0  0  0  0
   10.9832  -10.8538   23.7258 C   0  0  0  0  0  0  0  0  0  0  0  0
   10.7194   -9.8256   24.2308 N   0  0  0  0  0  0  0  0  0  0  0  0
   10.3070  -11.8851   24.0557 N   0  0  0  0  0  0  0  0  0  0  0  0
   11.2264   -9.0159   23.9931 H   0  0  0  0  0  0  0  0  0  0  0  0
   10.5089  -12.7576   23.6467 H   0  0  0  0  0  0  0  0  0  0  0  0
    9.5837  -11.8080   24.7190 H   0  0  0  0  0  0  0  0  0  0  0  0
   17.4154  -15.4465   23.9702 N   0  0  0  0  0  0  0  0  0  0  0  0
   16.4336  -15.6919   23.8431 H   0  0  0  0  0  0  0  0  0  0  0  0
   18.0340  -16.5294   24.9285 S   0  0  0  0  0  0  0  0  0  0  0  0
   17.9563  -15.9031   25.9517 O   0  0  0  0  0  0  0  0  0  0  0  0
   18.9519  -17.0531   24.5141 O   0  0  0  0  0  0  0  0  0  0  0  0
   16.1618  -20.6515   27.7613 Cl  0  0  0  0  0  0  0  0  0  0  0  0
   16.8075  -17.7232   25.1675 C   0  0  0  0  0  0  0  0  0  0  0  0
   14.9667  -19.7849   25.5604 C   0  0  0  0  0  0  0  0  0  0  0  0
   15.8167  -17.9719   24.2558 C   0  0  0  0  0  0  0  0  0  0  0  0
   16.8765  -18.6042   26.2667 C   0  0  0  0  0  0  0  0  0  0  0  0
   14.8640  -18.9747   24.4550 C   0  0  0  0  0  0  0  0  0  0  0  0
   15.9948  -19.5536   26.3963 C   0  0  0  0  0  0  0  0  0  0  0  0
   12.7727  -20.3275   26.1247 C   0  0  0  0  0  0  0  0  0  0  0  0
   14.0410  -20.7121   25.8473 O   0  0  0  0  0  0  0  0  0  0  0  0
   17.1575  -16.0392   21.5640 C   0  0  0  0  0  0  0  0  0  0  0  0
   17.7972  -17.4111   21.1492 C   0  0  0  0  0  0  0  0  0  0  0  0
   17.1307  -18.1001   20.5321 O   0  0  0  0  0  0  0  0  0  0  0  0
   19.0760  -17.6274   21.4120 N   0  0  0  0  0  0  0  0  0  0  0  0
   19.5361  -16.8903   21.8749 H   0  0  0  0  0  0  0  0  0  0  0  0
   19.9329  -18.8212   21.1139 C   0  0  0  0  0  0  0  0  0  0  0  0
   21.3443  -18.6388   21.2443 C   0  0  0  0  0  0  0  0  0  0  0  0
   22.1419  -18.8711   20.2142 C   0  0  0  0  0  0  0  0  0  0  0  0
   23.4520  -18.6889   20.3903 C   0  0  0  0  0  0  0  0  0  0  0  0
   24.0258  -18.2457   21.5330 C   0  0  0  0  0  0  0  0  0  0  0  0
   23.2115  -18.0005   22.6076 C   0  0  0  0  0  0  0  0  0  0  0  0
   21.9349  -18.1563   22.3539 C   0  0  0  0  0  0  0  0  0  0  0  0
   25.2306  -18.1519   21.5839 C   0  0  0  0  0  0  0  0  0  0  0  0
   26.3339  -18.1941   21.5899 N   0  0  0  0  0  0  0  0  0  0  0  0
 10  9  2  0  0  0
 13 11  1  0  0  0
 13 14  1  0  0  0
  6  7  1  0  0  0
  6  5  1  0  0  0
  7  8  1  0  0  0
  9 11  1  0  0  0
  9  5  1  0  0  0
 14 15  2  0  0  0
 14 19  1  0  0  0
  8  4  1  0  0  0
  5  4  1  0  0  0
 15 16  1  0  0  0
 42 41  2  0  0  0
 40 41  1  0  0  0
 40  1  1  0  0  0
 19 18  2  0  0  0
 41 43  1  0  0  0
  4  2  1  0  0  0
 43 45  1  0  0  0
 45 46  1  0  0  0
 16 17  2  0  0  0
  2  1  1  0  0  0
  2  3  2  0  0  0
 18 17  1  0  0  0
  1 26  1  0  0  0
 17 20  1  0  0  0
 46 47  2  0  0  0
 46 51  1  0  0  0
 47 48  1  0  0  0
 26 28  1  0  0  0
 20 22  1  0  0  0
 20 21  2  0  0  0
 36 34  2  0  0  0
 36 33  1  0  0  0
 34 32  1  0  0  0
 38 39  1  0  0  0
 29 28  2  0  0  0
 51 50  2  0  0  0
 33 39  1  0  0  0
 33 37  2  0  0  0
 48 49  2  0  0  0
 32 28  1  0  0  0
 32 35  2  0  0  0
 28 30  2  0  0  0
 37 35  1  0  0  0
 37 31  1  0  0  0
 50 49  1  0  0  0
 49 52  1  0  0  0
 52 53  3  0  0  0
 26 27  1  0  0  0
 43 44  1  0  0  0
 11 12  1  0  0  0
 21 23  1  0  0  0
 22 24  1  0  0  0
 22 25  1  0  0  0
M  END
> <minimizedAffinity>
-8.83424

$$$$
3UTU_1TS_H_901


 53 56  0  0  0  0  0  0  0  0999 V2000
   17.7664  -15.5067   22.5766 C   0  0  0  0  0  0  0  0  0  0  0  0
   17.7118  -13.9525   22.3145 C   0  0  0  0  0  0  0  0  0  0  0  0
   16.7883  -13.3812   22.7840 O   0  0  0  0  0  0  0  0  0  0  0  0
   18.6578  -13.4546   21.6217 N   0  0  0  0  0  0  0  0  0  0  0  0
   18.5265  -12.1554   21.1208 C   0  0  0  0  0  0  0  0  0  0  0  0
   19.6665  -11.9688   20.1344 C   0  0  0  0  0  0  0  0  0  0  0  0
   20.5240  -13.1900   20.1971 C   0  0  0  0  0  0  0  0  0  0  0  0
   19.7609  -14.1700   20.9855 C   0  0  0  0  0  0  0  0  0  0  0  0
   17.2550  -12.1864   20.1908 C   0  0  0  0  0  0  0  0  0  0  0  0
   17.1448  -12.8758   19.2416 O   0  0  0  0  0  0  0  0  0  0  0  0
   16.2971  -11.2554   20.4903 N   0  0  0  0  0  0  0  0  0  0  0  0
   16.4705  -10.6404   21.2393 H   0  0  0  0  0  0  0  0  0  0  0  0
   15.0649  -11.1196   19.7869 C   0  0  0  0  0  0  0  0  0  0  0  0
   13.9779  -11.0513   20.8089 C   0  0  0  0  0  0  0  0  0  0  0  0
   13.5728   -9.8963   21.4071 C   0  0  0  0  0  0  0  0  0  0  0  0
   12.6423   -9.8223   22.3054 C   0  0  0  0  0  0  0  0  0  0  0  0
   11.9913  -10.8722   22.7648 C   0  0  0  0  0  0  0  0  0  0  0  0
   12.3832  -12.0446   22.2516 C   0  0  0  0  0  0  0  0  0  0  0  0
   13.3370  -12.0871   21.3117 C   0  0  0  0  0  0  0  0  0  0  0  0
   10.9576  -10.8168   23.7502 C   0  0  0  0  0  0  0  0  0  0  0  0
   10.7110   -9.8114   24.3070 N   0  0  0  0  0  0  0  0  0  0  0  0
   10.2448  -11.8446   24.0058 N   0  0  0  0  0  0  0  0  0  0  0  0
   11.2463   -9.0050   24.1270 H   0  0  0  0  0  0  0  0  0  0  0  0
   10.4315  -12.6983   23.5524 H   0  0  0  0  0  0  0  0  0  0  0  0
    9.5083  -11.7835   24.6564 H   0  0  0  0  0  0  0  0  0  0  0  0
   18.0939  -15.7322   23.8617 N   0  0  0  0  0  0  0  0  0  0  0  0
   17.4347  -16.4251   24.2164 H   0  0  0  0  0  0  0  0  0  0  0  0
   19.5345  -16.2471   24.2264 S   0  0  0  0  0  0  0  0  0  0  0  0
   19.9842  -15.2040   24.6201 O   0  0  0  0  0  0  0  0  0  0  0  0
   19.9929  -16.9432   23.4557 O   0  0  0  0  0  0  0  0  0  0  0  0
   21.7364  -19.4262   27.9097 Cl  0  0  0  0  0  0  0  0  0  0  0  0
   19.3754  -17.1275   25.7049 C   0  0  0  0  0  0  0  0  0  0  0  0
   19.1880  -18.7047   28.0007 C   0  0  0  0  0  0  0  0  0  0  0  0
   18.1757  -17.3210   26.3359 C   0  0  0  0  0  0  0  0  0  0  0  0
   20.4799  -17.8195   26.2436 C   0  0  0  0  0  0  0  0  0  0  0  0
   18.0701  -18.0757   27.5072 C   0  0  0  0  0  0  0  0  0  0  0  0
   20.3334  -18.5473   27.3133 C   0  0  0  0  0  0  0  0  0  0  0  0
   19.0861  -18.6962   30.3280 C   0  0  0  0  0  0  0  0  0  0  0  0
   19.1679  -19.3776   29.1608 O   0  0  0  0  0  0  0  0  0  0  0  0
   16.3060  -16.0342   22.1528 C   0  0  0  0  0  0  0  0  0  0  0  0
   16.1281  -17.5926   22.2083 C   0  0  0  0  0  0  0  0  0  0  0  0
   15.9335  -18.1032   21.2077 O   0  0  0  0  0  0  0  0  0  0  0  0
   16.3424  -18.2218   23.3526 N   0  0  0  0  0  0  0  0  0  0  0  0
   16.5914  -17.6402   24.1068 H   0  0  0  0  0  0  0  0  0  0  0  0
   16.2645  -19.6834   23.6783 C   0  0  0  0  0  0  0  0  0  0  0  0
   17.4583  -20.2866   24.1818 C   0  0  0  0  0  0  0  0  0  0  0  0
   18.6016  -20.1400   23.5317 C   0  0  0  0  0  0  0  0  0  0  0  0
   19.6857  -20.7267   24.0427 C   0  0  0  0  0  0  0  0  0  0  0  0
   19.7139  -21.4294   25.1989 C   0  0  0  0  0  0  0  0  0  0  0  0
   18.5371  -21.5885   25.8828 C   0  0  0  0  0  0  0  0  0  0  0  0
   17.5226  -20.9512   25.3510 C   0  0  0  0  0  0  0  0  0  0  0  0
   20.7520  -21.9450   25.5444 C   0  0  0  0  0  0  0  0  0  0  0  0
   21.6335  -22.5324   25.8556 N   0  0  0  0  0  0  0  0  0  0  0  0
 10  9  2  0  0  0
 13 11  1  0  0  0
 13 14  1  0  0  0
  6  7  1  0  0  0
  6  5  1  0  0  0
  7  8  1  0  0  0
  9 11  1  0  0  0
  9  5  1  0  0  0
 14 15  2  0  0  0
 14 19  1  0  0  0
  8  4  1  0  0  0
  5  4  1  0  0  0
 15 16  1  0  0  0
 42 41  2  0  0  0
 40 41  1  0  0  0
 40  1  1  0  0  0
 19 18  2  0  0  0
 41 43  1  0  0  0
  4  2  1  0  0  0
 43 45  1  0  0  0
 45 46  1  0  0  0
 16 17  2  0  0  0
  2  1  1  0  0  0
  2  3  2  0  0  0
 18 17  1  0  0  0
  1 26  1  0  0  0
 17 20  1  0  0  0
 46 47  2  0  0  0
 46 51  1  0  0  0
 47 48  1  0  0  0
 26 28  1  0  0  0
 20 22  1  0  0  0
 20 21  2  0  0  0
 36 34  2  0  0  0
 36 33  1  0  0  0
 34 32  1  0  0  0
 38 39  1  0  0  0
 29 28  2  0  0  0
 51 50  2  0  0  0
 33 39  1  0  0  0
 33 37  2  0  0  0
 48 49  2  0  0  0
 32 28  1  0  0  0
 32 35  2  0  0  0
 28 30  2  0  0  0
 37 35  1  0  0  0
 37 31  1  0  0  0
 50 49  1  0  0  0
 49 52  1  0  0  0
 52 53  3  0  0  0
 26 27  1  0  0  0
 43 44  1  0  0  0
 11 12  1  0  0  0
 21 23  1  0  0  0
 22 24  1  0  0  0
 22 25  1  0  0  0
M  END
> <minimizedAffinity>
-8.68444

$$$$
3UTU_1TS_H_901


 53 56  0  0  0  0  0  0  0  0999 V2000
   16.8578  -16.4496   22.7691 C   0  0  0  0  0  0  0  0  0  0  0  0
   17.9974  -16.3890   23.8575 C   0  0  0  0  0  0  0  0  0  0  0  0
   17.7669  -15.7277   24.8110 O   0  0  0  0  0  0  0  0  0  0  0  0
   19.0590  -17.0493   23.6130 N   0  0  0  0  0  0  0  0  0  0  0  0
   20.2005  -16.8179   24.3873 C   0  0  0  0  0  0  0  0  0  0  0  0
   21.3383  -17.5367   23.6829 C   0  0  0  0  0  0  0  0  0  0  0  0
   20.7544  -18.2921   22.5344 C   0  0  0  0  0  0  0  0  0  0  0  0
   19.3703  -17.8104   22.4059 C   0  0  0  0  0  0  0  0  0  0  0  0
   20.5561  -15.2977   24.1740 C   0  0  0  0  0  0  0  0  0  0  0  0
   20.3760  -14.4558   24.9785 O   0  0  0  0  0  0  0  0  0  0  0  0
   20.9970  -14.9781   22.9182 N   0  0  0  0  0  0  0  0  0  0  0  0
   21.0490  -15.6997   22.2504 H   0  0  0  0  0  0  0  0  0  0  0  0
   21.3857  -13.6672   22.5155 C   0  0  0  0  0  0  0  0  0  0  0  0
   20.2821  -13.1186   21.6718 C   0  0  0  0  0  0  0  0  0  0  0  0
   20.3150  -13.0857   20.3102 C   0  0  0  0  0  0  0  0  0  0  0  0
   19.3731  -12.6002   19.5650 C   0  0  0  0  0  0  0  0  0  0  0  0
   18.2742  -12.0547   20.0468 C   0  0  0  0  0  0  0  0  0  0  0  0
   18.2087  -12.0102   21.3828 C   0  0  0  0  0  0  0  0  0  0  0  0
   19.1913  -12.5358   22.1266 C   0  0  0  0  0  0  0  0  0  0  0  0
   17.2185  -11.5178   19.2468 C   0  0  0  0  0  0  0  0  0  0  0  0
   16.4124  -10.8027   19.7165 N   0  0  0  0  0  0  0  0  0  0  0  0
   17.1614  -11.7600   17.9947 N   0  0  0  0  0  0  0  0  0  0  0  0
   16.4352  -10.6004   20.6797 H   0  0  0  0  0  0  0  0  0  0  0  0
   17.8252  -12.3558   17.5779 H   0  0  0  0  0  0  0  0  0  0  0  0
   16.4537  -11.3511   17.4460 H   0  0  0  0  0  0  0  0  0  0  0  0
   15.6924  -16.7710   23.3592 N   0  0  0  0  0  0  0  0  0  0  0  0
   15.0076  -16.0790   23.0551 H   0  0  0  0  0  0  0  0  0  0  0  0
   15.0502  -18.1851   23.1112 S   0  0  0  0  0  0  0  0  0  0  0  0
   15.9824  -18.6885   22.5428 O   0  0  0  0  0  0  0  0  0  0  0  0
   13.9703  -18.1553   22.7624 O   0  0  0  0  0  0  0  0  0  0  0  0
   12.5124  -21.0950   26.8008 Cl  0  0  0  0  0  0  0  0  0  0  0  0
   15.0924  -19.0102   24.6290 C   0  0  0  0  0  0  0  0  0  0  0  0
   15.0010  -20.2456   27.1308 C   0  0  0  0  0  0  0  0  0  0  0  0
   16.1348  -18.9040   25.5104 C   0  0  0  0  0  0  0  0  0  0  0  0
   13.9612  -19.7174   25.0863 C   0  0  0  0  0  0  0  0  0  0  0  0
   16.1220  -19.5471   26.7510 C   0  0  0  0  0  0  0  0  0  0  0  0
   13.9709  -20.2682   26.2661 C   0  0  0  0  0  0  0  0  0  0  0  0
   14.8474  -20.2961   29.4546 C   0  0  0  0  0  0  0  0  0  0  0  0
   14.9572  -20.9476   28.2728 O   0  0  0  0  0  0  0  0  0  0  0  0
   16.8843  -14.9941   22.0825 C   0  0  0  0  0  0  0  0  0  0  0  0
   15.5777  -14.6116   21.3016 C   0  0  0  0  0  0  0  0  0  0  0  0
   15.0876  -15.4574   20.7150 O   0  0  0  0  0  0  0  0  0  0  0  0
   15.0593  -13.4059   21.4714 N   0  0  0  0  0  0  0  0  0  0  0  0
   15.5598  -12.8205   22.0847 H   0  0  0  0  0  0  0  0  0  0  0  0
   13.8279  -12.7931   20.8745 C   0  0  0  0  0  0  0  0  0  0  0  0
   13.1261  -11.8533   21.6910 C   0  0  0  0  0  0  0  0  0  0  0  0
   13.4130  -10.5636   21.6154 C   0  0  0  0  0  0  0  0  0  0  0  0
   12.7308   -9.7290   22.4019 C   0  0  0  0  0  0  0  0  0  0  0  0
   11.7379  -10.0964   23.2449 C   0  0  0  0  0  0  0  0  0  0  0  0
   11.4299  -11.4288   23.3327 C   0  0  0  0  0  0  0  0  0  0  0  0
   12.1051  -12.1864   22.5030 C   0  0  0  0  0  0  0  0  0  0  0  0
   11.2140   -9.2519   23.9342 C   0  0  0  0  0  0  0  0  0  0  0  0
   10.6988   -8.5815   24.6443 N   0  0  0  0  0  0  0  0  0  0  0  0
 10  9  2  0  0  0
 13 11  1  0  0  0
 13 14  1  0  0  0
  6  7  1  0  0  0
  6  5  1  0  0  0
  7  8  1  0  0  0
  9 11  1  0  0  0
  9  5  1  0  0  0
 14 15  2  0  0  0
 14 19  1  0  0  0
  8  4  1  0  0  0
  5  4  1  0  0  0
 15 16  1  0  0  0
 42 41  2  0  0  0
 40 41  1  0  0  0
 40  1  1  0  0  0
 19 18  2  0  0  0
 41 43  1  0  0  0
  4  2  1  0  0  0
 43 45  1  0  0  0
 45 46  1  0  0  0
 16 17  2  0  0  0
  2  1  1  0  0  0
  2  3  2  0  0  0
 18 17  1  0  0  0
  1 26  1  0  0  0
 17 20  1  0  0  0
 46 47  2  0  0  0
 46 51  1  0  0  0
 47 48  1  0  0  0
 26 28  1  0  0  0
 20 22  1  0  0  0
 20 21  2  0  0  0
 36 34  2  0  0  0
 36 33  1  0  0  0
 34 32  1  0  0  0
 38 39  1  0  0  0
 29 28  2  0  0  0
 51 50  2  0  0  0
 33 39  1  0  0  0
 33 37  2  0  0  0
 48 49  2  0  0  0
 32 28  1  0  0  0
 32 35  2  0  0  0
 28 30  2  0  0  0
 37 35  1  0  0  0
 37 31  1  0  0  0
 50 49  1  0  0  0
 49 52  1  0  0  0
 52 53  3  0  0  0
 26 27  1  0  0  0
 43 44  1  0  0  0
 11 12  1  0  0  0
 21 23  1  0  0  0
 22 24  1  0  0  0
 22 25  1  0  0  0
M  END
> <minimizedAffinity>
-8.58190

$$$$
3UTU_1TS_H_901


 53 56  0  0  0  0  0  0  0  0999 V2000
   19.0198  -15.5521   22.5912 C   0  0  0  0  0  0  0  0  0  0  0  0
   18.4490  -14.0986   22.3709 C   0  0  0  0  0  0  0  0  0  0  0  0
   17.4633  -13.8341   22.9692 O   0  0  0  0  0  0  0  0  0  0  0  0
   19.0931  -13.3452   21.5707 N   0  0  0  0  0  0  0  0  0  0  0  0
   18.4985  -12.1628   21.1185 C   0  0  0  0  0  0  0  0  0  0  0  0
   19.3837  -11.6508   19.9952 C   0  0  0  0  0  0  0  0  0  0  0  0
   20.5800  -12.5418   19.9196 C   0  0  0  0  0  0  0  0  0  0  0  0
   20.2710  -13.6940   20.7806 C   0  0  0  0  0  0  0  0  0  0  0  0
   17.1898  -12.6088   20.3627 C   0  0  0  0  0  0  0  0  0  0  0  0
   17.0807  -13.6191   19.7662 O   0  0  0  0  0  0  0  0  0  0  0  0
   16.1884  -11.6758   20.3413 N   0  0  0  0  0  0  0  0  0  0  0  0
   16.3560  -10.8098   20.7785 H   0  0  0  0  0  0  0  0  0  0  0  0
   14.9186  -11.8781   19.7262 C   0  0  0  0  0  0  0  0  0  0  0  0
   13.8780  -11.6260   20.7675 C   0  0  0  0  0  0  0  0  0  0  0  0
   13.5347  -10.3838   21.2095 C   0  0  0  0  0  0  0  0  0  0  0  0
   12.6453  -10.1494   22.1218 C   0  0  0  0  0  0  0  0  0  0  0  0
   11.9817  -11.0991   22.7501 C   0  0  0  0  0  0  0  0  0  0  0  0
   12.3148  -12.3459   22.3953 C   0  0  0  0  0  0  0  0  0  0  0  0
   13.2267  -12.5560   21.4364 C   0  0  0  0  0  0  0  0  0  0  0  0
   10.9923  -10.8670   23.7551 C   0  0  0  0  0  0  0  0  0  0  0  0
   10.3861  -11.7605   24.2197 N   0  0  0  0  0  0  0  0  0  0  0  0
   10.7860   -9.6912   24.2075 N   0  0  0  0  0  0  0  0  0  0  0  0
   10.5274  -12.6765   23.8878 H   0  0  0  0  0  0  0  0  0  0  0  0
   11.2813   -8.9264   23.8348 H   0  0  0  0  0  0  0  0  0  0  0  0
   10.1315   -9.5493   24.9291 H   0  0  0  0  0  0  0  0  0  0  0  0
   19.3727  -15.7033   23.8805 N   0  0  0  0  0  0  0  0  0  0  0  0
   19.2045  -16.6806   24.1193 H   0  0  0  0  0  0  0  0  0  0  0  0
   20.8404  -15.3702   24.3373 S   0  0  0  0  0  0  0  0  0  0  0  0
   20.5642  -14.6068   25.2241 O   0  0  0  0  0  0  0  0  0  0  0  0
   21.5687  -15.1947   23.4845 O   0  0  0  0  0  0  0  0  0  0  0  0
   24.3881  -17.4912   27.7191 Cl  0  0  0  0  0  0  0  0  0  0  0  0
   21.3938  -16.7421   25.2306 C   0  0  0  0  0  0  0  0  0  0  0  0
   22.4636  -18.9279   26.5986 C   0  0  0  0  0  0  0  0  0  0  0  0
   20.8969  -18.0048   25.0479 C   0  0  0  0  0  0  0  0  0  0  0  0
   22.5061  -16.6300   26.0904 C   0  0  0  0  0  0  0  0  0  0  0  0
   21.3948  -19.1040   25.7527 C   0  0  0  0  0  0  0  0  0  0  0  0
   22.9683  -17.6850   26.6977 C   0  0  0  0  0  0  0  0  0  0  0  0
   22.1147  -20.5374   28.2460 C   0  0  0  0  0  0  0  0  0  0  0  0
   22.9359  -19.9258   27.3602 O   0  0  0  0  0  0  0  0  0  0  0  0
   17.8348  -16.5245   22.1005 C   0  0  0  0  0  0  0  0  0  0  0  0
   17.1252  -17.3271   23.2476 C   0  0  0  0  0  0  0  0  0  0  0  0
   16.1225  -16.9101   23.5945 O   0  0  0  0  0  0  0  0  0  0  0  0
   17.6452  -18.4789   23.6403 N   0  0  0  0  0  0  0  0  0  0  0  0
   18.4716  -18.7425   23.1747 H   0  0  0  0  0  0  0  0  0  0  0  0
   17.1706  -19.4446   24.6845 C   0  0  0  0  0  0  0  0  0  0  0  0
   17.5850  -19.1833   26.0270 C   0  0  0  0  0  0  0  0  0  0  0  0
   17.8052  -20.1866   26.8613 C   0  0  0  0  0  0  0  0  0  0  0  0
   18.1869  -19.8876   28.1045 C   0  0  0  0  0  0  0  0  0  0  0  0
   18.4049  -18.6349   28.5678 C   0  0  0  0  0  0  0  0  0  0  0  0
   18.1813  -17.5864   27.7142 C   0  0  0  0  0  0  0  0  0  0  0  0
   17.8523  -17.9509   26.4989 C   0  0  0  0  0  0  0  0  0  0  0  0
   18.7168  -18.4864   29.7269 C   0  0  0  0  0  0  0  0  0  0  0  0
   19.0133  -18.2202   30.7565 N   0  0  0  0  0  0  0  0  0  0  0  0
 10  9  2  0  0  0
 13 11  1  0  0  0
 13 14  1  0  0  0
  6  7  1  0  0  0
  6  5  1  0  0  0
  7  8  1  0  0  0
  9 11  1  0  0  0
  9  5  1  0  0  0
 14 15  2  0  0  0
 14 19  1  0  0  0
  8  4  1  0  0  0
  5  4  1  0  0  0
 15 16  1  0  0  0
 42 41  2  0  0  0
 40 41  1  0  0  0
 40  1  1  0  0  0
 19 18  2  0  0  0
 41 43  1  0  0  0
  4  2  1  0  0  0
 43 45  1  0  0  0
 45 46  1  0  0  0
 16 17  2  0  0  0
  2  1  1  0  0  0
  2  3  2  0  0  0
 18 17  1  0  0  0
  1 26  1  0  0  0
 17 20  1  0  0  0
 46 47  2  0  0  0
 46 51  1  0  0  0
 47 48  1  0  0  0
 26 28  1  0  0  0
 20 22  1  0  0  0
 20 21  2  0  0  0
 36 34  2  0  0  0
 36 33  1  0  0  0
 34 32  1  0  0  0
 38 39  1  0  0  0
 29 28  2  0  0  0
 51 50  2  0  0  0
 33 39  1  0  0  0
 33 37  2  0  0  0
 48 49  2  0  0  0
 32 28  1  0  0  0
 32 35  2  0  0  0
 28 30  2  0  0  0
 37 35  1  0  0  0
 37 31  1  0  0  0
 50 49  1  0  0  0
 49 52  1  0  0  0
 52 53  3  0  0  0
 26 27  1  0  0  0
 43 44  1  0  0  0
 11 12  1  0  0  0
 21 23  1  0  0  0
 22 24  1  0  0  0
 22 25  1  0  0  0
M  END
> <minimizedAffinity>
-8.53953

$$$$
3UTU_1TS_H_901


 53 56  0  0  0  0  0  0  0  0999 V2000
   15.6085  -16.5041   21.4384 C   0  0  0  0  0  0  0  0  0  0  0  0
   14.3677  -17.4361   21.7193 C   0  0  0  0  0  0  0  0  0  0  0  0
   14.0975  -17.6077   22.8582 O   0  0  0  0  0  0  0  0  0  0  0  0
   13.7737  -17.9213   20.7023 N   0  0  0  0  0  0  0  0  0  0  0  0
   12.8571  -18.9628   20.8794 C   0  0  0  0  0  0  0  0  0  0  0  0
   12.5450  -19.4883   19.4888 C   0  0  0  0  0  0  0  0  0  0  0  0
   13.2397  -18.6053   18.5046 C   0  0  0  0  0  0  0  0  0  0  0  0
   14.1482  -17.7642   19.2993 C   0  0  0  0  0  0  0  0  0  0  0  0
   13.6761  -20.1422   21.5281 C   0  0  0  0  0  0  0  0  0  0  0  0
   14.5372  -20.7310   20.9802 O   0  0  0  0  0  0  0  0  0  0  0  0
   13.2428  -20.5343   22.7660 N   0  0  0  0  0  0  0  0  0  0  0  0
   12.4630  -20.0714   23.1492 H   0  0  0  0  0  0  0  0  0  0  0  0
   13.8484  -21.5701   23.5354 C   0  0  0  0  0  0  0  0  0  0  0  0
   14.8444  -20.9232   24.4411 C   0  0  0  0  0  0  0  0  0  0  0  0
   14.5070  -20.2195   25.5578 C   0  0  0  0  0  0  0  0  0  0  0  0
   15.3573  -19.6404   26.3451 C   0  0  0  0  0  0  0  0  0  0  0  0
   16.6591  -19.6464   26.1384 C   0  0  0  0  0  0  0  0  0  0  0  0
   17.0479  -20.2789   25.0249 C   0  0  0  0  0  0  0  0  0  0  0  0
   16.1459  -20.8826   24.2393 C   0  0  0  0  0  0  0  0  0  0  0  0
   17.6178  -19.0208   26.9940 C   0  0  0  0  0  0  0  0  0  0  0  0
   17.8761  -17.8803   26.8749 N   0  0  0  0  0  0  0  0  0  0  0  0
   18.1721  -19.6747   27.9400 N   0  0  0  0  0  0  0  0  0  0  0  0
   17.4616  -17.3544   26.1532 H   0  0  0  0  0  0  0  0  0  0  0  0
   17.9720  -20.6311   28.0605 H   0  0  0  0  0  0  0  0  0  0  0  0
   18.7997  -19.2226   28.5491 H   0  0  0  0  0  0  0  0  0  0  0  0
   15.2700  -15.2245   21.6780 N   0  0  0  0  0  0  0  0  0  0  0  0
   15.6236  -14.9952   22.6069 H   0  0  0  0  0  0  0  0  0  0  0  0
   15.7637  -14.0870   20.7105 S   0  0  0  0  0  0  0  0  0  0  0  0
   15.2372  -14.4885   19.7071 O   0  0  0  0  0  0  0  0  0  0  0  0
   16.8534  -13.7981   20.8437 O   0  0  0  0  0  0  0  0  0  0  0  0
   11.2771  -12.0384   22.7585 Cl  0  0  0  0  0  0  0  0  0  0  0  0
   14.8013  -12.6962   21.0656 C   0  0  0  0  0  0  0  0  0  0  0  0
   13.0984  -10.5383   21.5519 C   0  0  0  0  0  0  0  0  0  0  0  0
   15.0890  -11.4452   20.5894 C   0  0  0  0  0  0  0  0  0  0  0  0
   13.5758  -12.8346   21.7496 C   0  0  0  0  0  0  0  0  0  0  0  0
   14.2677  -10.3463   20.8557 C   0  0  0  0  0  0  0  0  0  0  0  0
   12.8168  -11.7944   21.9422 C   0  0  0  0  0  0  0  0  0  0  0  0
   12.6250   -8.7687   22.9910 C   0  0  0  0  0  0  0  0  0  0  0  0
   12.3084   -9.5137   21.9056 O   0  0  0  0  0  0  0  0  0  0  0  0
   16.7668  -17.0831   22.3944 C   0  0  0  0  0  0  0  0  0  0  0  0
   17.1169  -16.1761   23.6266 C   0  0  0  0  0  0  0  0  0  0  0  0
   16.8621  -16.6120   24.6487 O   0  0  0  0  0  0  0  0  0  0  0  0
   17.7895  -15.0542   23.4260 N   0  0  0  0  0  0  0  0  0  0  0  0
   18.0122  -14.8652   22.4858 H   0  0  0  0  0  0  0  0  0  0  0  0
   18.2651  -14.0265   24.4088 C   0  0  0  0  0  0  0  0  0  0  0  0
   19.6679  -13.7532   24.4137 C   0  0  0  0  0  0  0  0  0  0  0  0
   20.3814  -13.9231   23.3122 C   0  0  0  0  0  0  0  0  0  0  0  0
   21.6876  -13.6570   23.3718 C   0  0  0  0  0  0  0  0  0  0  0  0
   22.3336  -13.1879   24.4645 C   0  0  0  0  0  0  0  0  0  0  0  0
   21.6067  -13.0068   25.6120 C   0  0  0  0  0  0  0  0  0  0  0  0
   20.3250  -13.2435   25.4725 C   0  0  0  0  0  0  0  0  0  0  0  0
   23.5294  -13.0158   24.4076 C   0  0  0  0  0  0  0  0  0  0  0  0
   24.5982  -12.7389   24.4113 N   0  0  0  0  0  0  0  0  0  0  0  0
 10  9  2  0  0  0
 13 11  1  0  0  0
 13 14  1  0  0  0
  6  7  1  0  0  0
  6  5  1  0  0  0
  7  8  1  0  0  0
  9 11  1  0  0  0
  9  5  1  0  0  0
 14 15  2  0  0  0
 14 19  1  0  0  0
  8  4  1  0  0  0
  5  4  1  0  0  0
 15 16  1  0  0  0
 42 41  2  0  0  0
 40 41  1  0  0  0
 40  1  1  0  0  0
 19 18  2  0  0  0
 41 43  1  0  0  0
  4  2  1  0  0  0
 43 45  1  0  0  0
 45 46  1  0  0  0
 16 17  2  0  0  0
  2  1  1  0  0  0
  2  3  2  0  0  0
 18 17  1  0  0  0
  1 26  1  0  0  0
 17 20  1  0  0  0
 46 47  2  0  0  0
 46 51  1  0  0  0
 47 48  1  0  0  0
 26 28  1  0  0  0
 20 22  1  0  0  0
 20 21  2  0  0  0
 36 34  2  0  0  0
 36 33  1  0  0  0
 34 32  1  0  0  0
 38 39  1  0  0  0
 29 28  2  0  0  0
 51 50  2  0  0  0
 33 39  1  0  0  0
 33 37  2  0  0  0
 48 49  2  0  0  0
 32 28  1  0  0  0
 32 35  2  0  0  0
 28 30  2  0  0  0
 37 35  1  0  0  0
 37 31  1  0  0  0
 50 49  1  0  0  0
 49 52  1  0  0  0
 52 53  3  0  0  0
 26 27  1  0  0  0
 43 44  1  0  0  0
 11 12  1  0  0  0
 21 23  1  0  0  0
 22 24  1  0  0  0
 22 25  1  0  0  0
M  END
> <minimizedAffinity>
-8.45671

$$$$
3UTU_1TS_H_901


 53 56  0  0  0  0  0  0  0  0999 V2000
   16.1723  -16.9253   21.7796 C   0  0  0  0  0  0  0  0  0  0  0  0
   17.0105  -17.1427   23.0977 C   0  0  0  0  0  0  0  0  0  0  0  0
   17.0743  -16.2147   23.8286 O   0  0  0  0  0  0  0  0  0  0  0  0
   17.5441  -18.2886   23.2549 N   0  0  0  0  0  0  0  0  0  0  0  0
   18.5170  -18.4586   24.2452 C   0  0  0  0  0  0  0  0  0  0  0  0
   19.1363  -19.8230   23.9954 C   0  0  0  0  0  0  0  0  0  0  0  0
   18.3747  -20.4694   22.8851 C   0  0  0  0  0  0  0  0  0  0  0  0
   17.5217  -19.4116   22.3213 C   0  0  0  0  0  0  0  0  0  0  0  0
   19.6821  -17.4667   23.8690 C   0  0  0  0  0  0  0  0  0  0  0  0
   20.5077  -17.6909   23.0587 O   0  0  0  0  0  0  0  0  0  0  0  0
   19.7520  -16.3382   24.6406 N   0  0  0  0  0  0  0  0  0  0  0  0
   19.0934  -16.2336   25.3649 H   0  0  0  0  0  0  0  0  0  0  0  0
   20.7175  -15.3048   24.4624 C   0  0  0  0  0  0  0  0  0  0  0  0
   20.2200  -14.4192   23.3676 C   0  0  0  0  0  0  0  0  0  0  0  0
   19.0739  -13.6870   23.4480 C   0  0  0  0  0  0  0  0  0  0  0  0
   18.6214  -12.9260   22.5024 C   0  0  0  0  0  0  0  0  0  0  0  0
   19.2135  -12.7915   21.3325 C   0  0  0  0  0  0  0  0  0  0  0  0
   20.3188  -13.5293   21.1745 C   0  0  0  0  0  0  0  0  0  0  0  0
   20.7712  -14.2942   22.1772 C   0  0  0  0  0  0  0  0  0  0  0  0
   18.7384  -11.9546   20.2758 C   0  0  0  0  0  0  0  0  0  0  0  0
   19.0867  -12.1303   19.1669 N   0  0  0  0  0  0  0  0  0  0  0  0
   17.8840  -11.0346   20.5067 N   0  0  0  0  0  0  0  0  0  0  0  0
   19.7447  -12.8337   18.9633 H   0  0  0  0  0  0  0  0  0  0  0  0
   17.5766  -10.8681   21.4270 H   0  0  0  0  0  0  0  0  0  0  0  0
   17.5325  -10.4916   19.7645 H   0  0  0  0  0  0  0  0  0  0  0  0
   14.8747  -16.7652   22.0961 N   0  0  0  0  0  0  0  0  0  0  0  0
   14.6067  -15.8337   21.7784 H   0  0  0  0  0  0  0  0  0  0  0  0
   13.7994  -17.7645   21.5315 S   0  0  0  0  0  0  0  0  0  0  0  0
   14.3843  -18.0828   20.5305 O   0  0  0  0  0  0  0  0  0  0  0  0
   12.7287  -17.3959   21.6113 O   0  0  0  0  0  0  0  0  0  0  0  0
   14.5887  -20.0491   26.2938 Cl  0  0  0  0  0  0  0  0  0  0  0  0
   13.9334  -19.2058   22.4755 C   0  0  0  0  0  0  0  0  0  0  0  0
   14.3168  -21.4650   24.0701 C   0  0  0  0  0  0  0  0  0  0  0  0
   14.0094  -20.4572   21.9251 C   0  0  0  0  0  0  0  0  0  0  0  0
   14.1247  -19.1275   23.8706 C   0  0  0  0  0  0  0  0  0  0  0  0
   14.1627  -21.6023   22.7113 C   0  0  0  0  0  0  0  0  0  0  0  0
   14.3064  -20.2141   24.5647 C   0  0  0  0  0  0  0  0  0  0  0  0
   15.1191  -23.6062   24.5149 C   0  0  0  0  0  0  0  0  0  0  0  0
   14.3896  -22.5274   24.8855 O   0  0  0  0  0  0  0  0  0  0  0  0
   16.8555  -15.6476   21.0786 C   0  0  0  0  0  0  0  0  0  0  0  0
   15.8800  -14.7702   20.2172 C   0  0  0  0  0  0  0  0  0  0  0  0
   15.4748  -15.2645   19.2732 O   0  0  0  0  0  0  0  0  0  0  0  0
   15.4879  -13.5974   20.6883 N   0  0  0  0  0  0  0  0  0  0  0  0
   15.8633  -13.3548   21.5655 H   0  0  0  0  0  0  0  0  0  0  0  0
   14.5604  -12.5807   20.0929 C   0  0  0  0  0  0  0  0  0  0  0  0
   13.7249  -11.8695   21.0087 C   0  0  0  0  0  0  0  0  0  0  0  0
   13.8571  -10.5603   21.1489 C   0  0  0  0  0  0  0  0  0  0  0  0
   13.0547   -9.9452   22.0198 C   0  0  0  0  0  0  0  0  0  0  0  0
   12.0865  -10.5531   22.7440 C   0  0  0  0  0  0  0  0  0  0  0  0
   11.9381  -11.9087   22.6081 C   0  0  0  0  0  0  0  0  0  0  0  0
   12.7257  -12.4421   21.7062 C   0  0  0  0  0  0  0  0  0  0  0  0
   11.4431   -9.8949   23.5286 C   0  0  0  0  0  0  0  0  0  0  0  0
   10.8385   -9.4079   24.3136 N   0  0  0  0  0  0  0  0  0  0  0  0
 10  9  2  0  0  0
 13 11  1  0  0  0
 13 14  1  0  0  0
  6  7  1  0  0  0
  6  5  1  0  0  0
  7  8  1  0  0  0
  9 11  1  0  0  0
  9  5  1  0  0  0
 14 15  2  0  0  0
 14 19  1  0  0  0
  8  4  1  0  0  0
  5  4  1  0  0  0
 15 16  1  0  0  0
 42 41  2  0  0  0
 40 41  1  0  0  0
 40  1  1  0  0  0
 19 18  2  0  0  0
 41 43  1  0  0  0
  4  2  1  0  0  0
 43 45  1  0  0  0
 45 46  1  0  0  0
 16 17  2  0  0  0
  2  1  1  0  0  0
  2  3  2  0  0  0
 18 17  1  0  0  0
  1 26  1  0  0  0
 17 20  1  0  0  0
 46 47  2  0  0  0
 46 51  1  0  0  0
 47 48  1  0  0  0
 26 28  1  0  0  0
 20 22  1  0  0  0
 20 21  2  0  0  0
 36 34  2  0  0  0
 36 33  1  0  0  0
 34 32  1  0  0  0
 38 39  1  0  0  0
 29 28  2  0  0  0
 51 50  2  0  0  0
 33 39  1  0  0  0
 33 37  2  0  0  0
 48 49  2  0  0  0
 32 28  1  0  0  0
 32 35  2  0  0  0
 28 30  2  0  0  0
 37 35  1  0  0  0
 37 31  1  0  0  0
 50 49  1  0  0  0
 49 52  1  0  0  0
 52 53  3  0  0  0
 26 27  1  0  0  0
 43 44  1  0  0  0
 11 12  1  0  0  0
 21 23  1  0  0  0
 22 24  1  0  0  0
 22 25  1  0  0  0
M  END
> <minimizedAffinity>
-8.39569

$$$$
