5EGU_5NQ_A_201


 35 38  0  0  0  0  0  0  0  0999 V2000
   10.2051   32.3919   65.3067 N   0  0  0  0  0  0  0  0  0  0  0  0
   10.6427   33.0853   64.2179 C   0  0  0  0  0  0  0  0  0  0  0  0
   11.0076   34.2507   64.2825 O   0  0  0  0  0  0  0  0  0  0  0  0
   10.7371   32.4257   62.9990 N   0  0  0  0  0  0  0  0  0  0  0  0
   10.3892   31.0494   62.8750 C   0  0  0  0  0  0  0  0  0  0  0  0
   10.5322   30.4919   61.7579 O   0  0  0  0  0  0  0  0  0  0  0  0
    9.9238   30.4146   63.9664 C   0  0  0  0  0  0  0  0  0  0  0  0
    9.4722   29.1285   64.1927 N   0  0  0  0  0  0  0  0  0  0  0  0
    9.8329   31.1049   65.1413 C   0  0  0  0  0  0  0  0  0  0  0  0
    9.3304   30.2545   66.0350 N   0  0  0  0  0  0  0  0  0  0  0  0
    9.1206   29.0682   65.4653 C   0  0  0  0  0  0  0  0  0  0  0  0
   11.0503   32.9182   62.2061 H   0  0  0  0  0  0  0  0  0  0  0  0
    9.4011   27.9790   63.2900 C   0  0  0  0  0  0  0  0  0  0  0  0
   10.7615   27.3446   63.2899 C   0  0  0  0  0  0  0  0  0  0  0  0
    9.9810   33.0996   66.6166 C   0  0  0  0  0  0  0  0  0  0  0  0
   11.2364   33.4469   67.3854 C   0  0  0  0  0  0  0  0  0  0  0  0
   12.8303   31.6268   67.7469 C   0  0  0  0  0  0  0  0  0  0  0  0
   11.5215   32.1882   68.2347 C   0  0  0  0  0  0  0  0  0  0  0  0
    8.5373   27.9461   66.2324 C   0  0  0  0  0  0  0  0  0  0  0  0
    6.7860   27.6523   65.5561 S   0  0  0  0  0  0  0  0  0  0  0  0
    5.9146   26.8402   66.9023 C   0  0  0  0  0  0  0  0  0  0  0  0
    4.6233   26.4856   66.8969 N   0  0  0  0  0  0  0  0  0  0  0  0
    6.4727   26.5673   68.0833 N   0  0  0  0  0  0  0  0  0  0  0  0
    5.4980   26.0240   68.8348 N   0  0  0  0  0  0  0  0  0  0  0  0
    5.6415   25.5906   70.0993 C   0  0  0  0  0  0  0  0  0  0  0  0
    6.8924   25.7118   70.7610 C   0  0  0  0  0  0  0  0  0  0  0  0
    4.3773   25.9570   68.0990 C   0  0  0  0  0  0  0  0  0  0  0  0
    3.2955   25.4651   68.6996 N   0  0  0  0  0  0  0  0  0  0  0  0
    3.3383   25.0401   69.9801 C   0  0  0  0  0  0  0  0  0  0  0  0
    2.1604   24.4491   70.5028 C   0  0  0  0  0  0  0  0  0  0  0  0
    4.5497   25.0420   70.7072 C   0  0  0  0  0  0  0  0  0  0  0  0
    4.6379   24.6237   72.0426 C   0  0  0  0  0  0  0  0  0  0  0  0
    5.0287   23.1692   72.1724 C   0  0  0  0  0  0  0  0  0  0  0  0
    5.9024   22.8813   73.4264 C   0  0  0  0  0  0  0  0  0  0  0  0
    7.2493   22.5382   72.7619 C   0  0  0  0  0  0  0  0  0  0  0  0
 35 34  1  0  0  0
 34 33  1  0  0  0
 33 32  1  0  0  0
 32 31  1  0  0  0
 30 29  1  0  0  0
 31 29  1  0  0  0
 31 25  2  0  0  0
 29 28  2  0  0  0
 26 25  1  0  0  0
 25 24  1  0  0  0
 28 27  1  0  0  0
 24 27  1  0  0  0
 24 23  1  0  0  0
 27 22  2  0  0  0
 17 18  1  0  0  0
 23 21  2  0  0  0
 22 21  1  0  0  0
 18 16  1  0  0  0
 21 20  1  0  0  0
 16 15  1  0  0  0
 19 20  1  0  0  0
 19 11  1  0  0  0
 15  1  1  0  0  0
 10 11  2  0  0  0
 10  9  1  0  0  0
 11  8  1  0  0  0
  1  9  1  0  0  0
  1  2  1  0  0  0
  9  7  2  0  0  0
  8  7  1  0  0  0
  8 13  1  0  0  0
  7  5  1  0  0  0
  2  3  2  0  0  0
  2  4  1  0  0  0
 13 14  1  0  0  0
  4  5  1  0  0  0
  5  6  2  0  0  0
  4 12  1  0  0  0
M  END
> <minimizedAffinity>
-8.05940

$$$$
5EGU_5NQ_A_201


 35 38  0  0  0  0  0  0  0  0999 V2000
    9.4123   37.4160   64.1531 N   0  0  0  0  0  0  0  0  0  0  0  0
    8.1922   38.0137   64.0447 C   0  0  0  0  0  0  0  0  0  0  0  0
    7.7689   38.4592   62.9873 O   0  0  0  0  0  0  0  0  0  0  0  0
    7.3707   38.0640   65.1638 N   0  0  0  0  0  0  0  0  0  0  0  0
    7.7816   37.5030   66.4075 C   0  0  0  0  0  0  0  0  0  0  0  0
    6.9825   37.5405   67.3767 O   0  0  0  0  0  0  0  0  0  0  0  0
    9.0100   36.9587   66.4800 C   0  0  0  0  0  0  0  0  0  0  0  0
    9.7268   36.3731   67.5059 N   0  0  0  0  0  0  0  0  0  0  0  0
    9.7910   36.9435   65.3597 C   0  0  0  0  0  0  0  0  0  0  0  0
   10.9420   36.3756   65.7157 N   0  0  0  0  0  0  0  0  0  0  0  0
   10.8989   36.0288   67.0016 C   0  0  0  0  0  0  0  0  0  0  0  0
    6.4882   38.4952   65.0963 H   0  0  0  0  0  0  0  0  0  0  0  0
    9.3423   36.0983   68.8908 C   0  0  0  0  0  0  0  0  0  0  0  0
    8.6327   34.7756   68.8882 C   0  0  0  0  0  0  0  0  0  0  0  0
   10.3754   37.4427   62.9961 C   0  0  0  0  0  0  0  0  0  0  0  0
   10.3132   36.2429   62.0771 C   0  0  0  0  0  0  0  0  0  0  0  0
    9.5118   37.4106   60.0825 C   0  0  0  0  0  0  0  0  0  0  0  0
   10.7403   36.7976   60.6998 C   0  0  0  0  0  0  0  0  0  0  0  0
   12.0643   35.4016   67.6621 C   0  0  0  0  0  0  0  0  0  0  0  0
   12.9513   34.3458   66.3547 S   0  0  0  0  0  0  0  0  0  0  0  0
   11.8642   32.9367   66.1016 C   0  0  0  0  0  0  0  0  0  0  0  0
   11.4022   32.1234   67.0598 N   0  0  0  0  0  0  0  0  0  0  0  0
   11.4596   32.5244   64.8987 N   0  0  0  0  0  0  0  0  0  0  0  0
   10.7212   31.4211   65.1165 N   0  0  0  0  0  0  0  0  0  0  0  0
   10.1091   30.6951   64.1649 C   0  0  0  0  0  0  0  0  0  0  0  0
   10.2349   31.0550   62.7967 C   0  0  0  0  0  0  0  0  0  0  0  0
   10.6718   31.1931   66.4384 C   0  0  0  0  0  0  0  0  0  0  0  0
    9.9982   30.1153   66.8351 N   0  0  0  0  0  0  0  0  0  0  0  0
    9.3829   29.3078   65.9453 C   0  0  0  0  0  0  0  0  0  0  0  0
    8.6154   28.2373   66.4697 C   0  0  0  0  0  0  0  0  0  0  0  0
    9.3776   29.6152   64.5663 C   0  0  0  0  0  0  0  0  0  0  0  0
    8.7643   28.7984   63.6056 C   0  0  0  0  0  0  0  0  0  0  0  0
    9.6663   27.6832   63.1282 C   0  0  0  0  0  0  0  0  0  0  0  0
    9.7959   27.6234   61.5796 C   0  0  0  0  0  0  0  0  0  0  0  0
   10.0123   26.1125   61.3704 C   0  0  0  0  0  0  0  0  0  0  0  0
 35 34  1  0  0  0
 34 33  1  0  0  0
 33 32  1  0  0  0
 32 31  1  0  0  0
 30 29  1  0  0  0
 31 29  1  0  0  0
 31 25  2  0  0  0
 29 28  2  0  0  0
 26 25  1  0  0  0
 25 24  1  0  0  0
 28 27  1  0  0  0
 24 27  1  0  0  0
 24 23  1  0  0  0
 27 22  2  0  0  0
 17 18  1  0  0  0
 23 21  2  0  0  0
 22 21  1  0  0  0
 18 16  1  0  0  0
 21 20  1  0  0  0
 16 15  1  0  0  0
 19 20  1  0  0  0
 19 11  1  0  0  0
 15  1  1  0  0  0
 10 11  2  0  0  0
 10  9  1  0  0  0
 11  8  1  0  0  0
  1  9  1  0  0  0
  1  2  1  0  0  0
  9  7  2  0  0  0
  8  7  1  0  0  0
  8 13  1  0  0  0
  7  5  1  0  0  0
  2  3  2  0  0  0
  2  4  1  0  0  0
 13 14  1  0  0  0
  4  5  1  0  0  0
  5  6  2  0  0  0
  4 12  1  0  0  0
M  END
> <minimizedAffinity>
-7.52708

$$$$
5EGU_5NQ_A_201


 35 38  0  0  0  0  0  0  0  0999 V2000
   10.6988   31.6152   65.4776 N   0  0  0  0  0  0  0  0  0  0  0  0
   11.0458   32.6644   64.6798 C   0  0  0  0  0  0  0  0  0  0  0  0
   11.5817   33.6737   65.1154 O   0  0  0  0  0  0  0  0  0  0  0  0
   10.8400   32.5592   63.3100 N   0  0  0  0  0  0  0  0  0  0  0  0
   10.2802   31.3815   62.7355 C   0  0  0  0  0  0  0  0  0  0  0  0
   10.1535   31.3241   61.4866 O   0  0  0  0  0  0  0  0  0  0  0  0
    9.9150   30.3864   63.5643 C   0  0  0  0  0  0  0  0  0  0  0  0
    9.3252   29.1534   63.3609 N   0  0  0  0  0  0  0  0  0  0  0  0
   10.1214   30.5372   64.9059 C   0  0  0  0  0  0  0  0  0  0  0  0
    9.6560   29.4297   65.4813 N   0  0  0  0  0  0  0  0  0  0  0  0
    9.1846   28.5988   64.5522 C   0  0  0  0  0  0  0  0  0  0  0  0
   11.0856   33.3123   62.7254 H   0  0  0  0  0  0  0  0  0  0  0  0
    8.9392   28.4837   62.1184 C   0  0  0  0  0  0  0  0  0  0  0  0
   10.1630   27.7799   61.6084 C   0  0  0  0  0  0  0  0  0  0  0  0
   10.8003   31.7352   66.9751 C   0  0  0  0  0  0  0  0  0  0  0  0
   12.1020   31.2514   67.5744 C   0  0  0  0  0  0  0  0  0  0  0  0
   11.3793   33.1439   68.9457 C   0  0  0  0  0  0  0  0  0  0  0  0
   12.6033   32.4501   68.4104 C   0  0  0  0  0  0  0  0  0  0  0  0
    8.5799   27.3015   64.9251 C   0  0  0  0  0  0  0  0  0  0  0  0
    6.7701   27.6388   65.3960 S   0  0  0  0  0  0  0  0  0  0  0  0
    6.6098   26.9843   67.0626 C   0  0  0  0  0  0  0  0  0  0  0  0
    7.6130   26.7993   67.9300 N   0  0  0  0  0  0  0  0  0  0  0  0
    5.4568   26.5528   67.5774 N   0  0  0  0  0  0  0  0  0  0  0  0
    5.7526   26.0868   68.8043 N   0  0  0  0  0  0  0  0  0  0  0  0
    4.8672   25.5694   69.6736 C   0  0  0  0  0  0  0  0  0  0  0  0
    3.4971   25.4538   69.3178 C   0  0  0  0  0  0  0  0  0  0  0  0
    7.0658   26.2592   69.0226 C   0  0  0  0  0  0  0  0  0  0  0  0
    7.5407   25.8258   70.1886 N   0  0  0  0  0  0  0  0  0  0  0  0
    6.7301   25.2589   71.1072 C   0  0  0  0  0  0  0  0  0  0  0  0
    7.3111   24.9121   72.3531 C   0  0  0  0  0  0  0  0  0  0  0  0
    5.3373   25.1653   70.8895 C   0  0  0  0  0  0  0  0  0  0  0  0
    4.4602   24.5720   71.8086 C   0  0  0  0  0  0  0  0  0  0  0  0
    4.3703   23.0721   71.6426 C   0  0  0  0  0  0  0  0  0  0  0  0
    4.6817   22.2933   72.9523 C   0  0  0  0  0  0  0  0  0  0  0  0
    4.2788   23.3402   74.0083 C   0  0  0  0  0  0  0  0  0  0  0  0
 35 34  1  0  0  0
 34 33  1  0  0  0
 33 32  1  0  0  0
 32 31  1  0  0  0
 30 29  1  0  0  0
 31 29  1  0  0  0
 31 25  2  0  0  0
 29 28  2  0  0  0
 26 25  1  0  0  0
 25 24  1  0  0  0
 28 27  1  0  0  0
 24 27  1  0  0  0
 24 23  1  0  0  0
 27 22  2  0  0  0
 17 18  1  0  0  0
 23 21  2  0  0  0
 22 21  1  0  0  0
 18 16  1  0  0  0
 21 20  1  0  0  0
 16 15  1  0  0  0
 19 20  1  0  0  0
 19 11  1  0  0  0
 15  1  1  0  0  0
 10 11  2  0  0  0
 10  9  1  0  0  0
 11  8  1  0  0  0
  1  9  1  0  0  0
  1  2  1  0  0  0
  9  7  2  0  0  0
  8  7  1  0  0  0
  8 13  1  0  0  0
  7  5  1  0  0  0
  2  3  2  0  0  0
  2  4  1  0  0  0
 13 14  1  0  0  0
  4  5  1  0  0  0
  5  6  2  0  0  0
  4 12  1  0  0  0
M  END
> <minimizedAffinity>
-7.34871

$$$$
5EGU_5NQ_A_201


 35 38  0  0  0  0  0  0  0  0999 V2000
    8.7263   36.5914   68.0475 N   0  0  0  0  0  0  0  0  0  0  0  0
    7.5536   37.1428   67.6251 C   0  0  0  0  0  0  0  0  0  0  0  0
    6.6578   37.4558   68.3966 O   0  0  0  0  0  0  0  0  0  0  0  0
    7.3929   37.4178   66.2730 N   0  0  0  0  0  0  0  0  0  0  0  0
    8.4272   37.1365   65.3341 C   0  0  0  0  0  0  0  0  0  0  0  0
    8.2443   37.4428   64.1291 O   0  0  0  0  0  0  0  0  0  0  0  0
    9.5523   36.5552   65.7888 C   0  0  0  0  0  0  0  0  0  0  0  0
   10.7103   36.1226   65.1714 N   0  0  0  0  0  0  0  0  0  0  0  0
    9.6629   36.2884   67.1237 C   0  0  0  0  0  0  0  0  0  0  0  0
   10.8480   35.7036   67.2897 N   0  0  0  0  0  0  0  0  0  0  0  0
   11.4769   35.6107   66.1185 C   0  0  0  0  0  0  0  0  0  0  0  0
    6.5488   37.8143   65.9576 H   0  0  0  0  0  0  0  0  0  0  0  0
   11.1237   36.2092   63.7703 C   0  0  0  0  0  0  0  0  0  0  0  0
   10.5198   35.0283   63.0676 C   0  0  0  0  0  0  0  0  0  0  0  0
    8.8942   36.1745   69.4844 C   0  0  0  0  0  0  0  0  0  0  0  0
    8.4487   34.7647   69.8036 C   0  0  0  0  0  0  0  0  0  0  0  0
   10.2442   33.2868   70.5628 C   0  0  0  0  0  0  0  0  0  0  0  0
    9.3023   34.3651   71.0278 C   0  0  0  0  0  0  0  0  0  0  0  0
   12.8067   34.9715   66.0152 C   0  0  0  0  0  0  0  0  0  0  0  0
   12.9137   33.6688   67.3945 S   0  0  0  0  0  0  0  0  0  0  0  0
   11.7711   32.3785   66.8837 C   0  0  0  0  0  0  0  0  0  0  0  0
   11.1964   31.4782   67.6913 N   0  0  0  0  0  0  0  0  0  0  0  0
   11.4325   32.1545   65.6125 N   0  0  0  0  0  0  0  0  0  0  0  0
   10.6201   31.0823   65.6310 N   0  0  0  0  0  0  0  0  0  0  0  0
   10.0391   30.5285   64.5525 C   0  0  0  0  0  0  0  0  0  0  0  0
   10.2836   31.0557   63.2566 C   0  0  0  0  0  0  0  0  0  0  0  0
   10.4624   30.6867   66.9040 C   0  0  0  0  0  0  0  0  0  0  0  0
    9.7029   29.6121   67.1070 N   0  0  0  0  0  0  0  0  0  0  0  0
    9.1098   28.9698   66.0785 C   0  0  0  0  0  0  0  0  0  0  0  0
    8.2480   27.8917   66.4027 C   0  0  0  0  0  0  0  0  0  0  0  0
    9.2216   29.4550   64.7563 C   0  0  0  0  0  0  0  0  0  0  0  0
    8.6351   28.8126   63.6565 C   0  0  0  0  0  0  0  0  0  0  0  0
    9.4913   27.6920   63.1122 C   0  0  0  0  0  0  0  0  0  0  0  0
    9.6332   27.7289   61.5639 C   0  0  0  0  0  0  0  0  0  0  0  0
   11.1578   27.8993   61.4221 C   0  0  0  0  0  0  0  0  0  0  0  0
 35 34  1  0  0  0
 34 33  1  0  0  0
 33 32  1  0  0  0
 32 31  1  0  0  0
 30 29  1  0  0  0
 31 29  1  0  0  0
 31 25  2  0  0  0
 29 28  2  0  0  0
 26 25  1  0  0  0
 25 24  1  0  0  0
 28 27  1  0  0  0
 24 27  1  0  0  0
 24 23  1  0  0  0
 27 22  2  0  0  0
 17 18  1  0  0  0
 23 21  2  0  0  0
 22 21  1  0  0  0
 18 16  1  0  0  0
 21 20  1  0  0  0
 16 15  1  0  0  0
 19 20  1  0  0  0
 19 11  1  0  0  0
 15  1  1  0  0  0
 10 11  2  0  0  0
 10  9  1  0  0  0
 11  8  1  0  0  0
  1  9  1  0  0  0
  1  2  1  0  0  0
  9  7  2  0  0  0
  8  7  1  0  0  0
  8 13  1  0  0  0
  7  5  1  0  0  0
  2  3  2  0  0  0
  2  4  1  0  0  0
 13 14  1  0  0  0
  4  5  1  0  0  0
  5  6  2  0  0  0
  4 12  1  0  0  0
M  END
> <minimizedAffinity>
-7.28300

$$$$
5EGU_5NQ_A_201


 35 38  0  0  0  0  0  0  0  0999 V2000
   10.7087   35.1521   70.1811 N   0  0  0  0  0  0  0  0  0  0  0  0
   10.7223   34.7477   71.4826 C   0  0  0  0  0  0  0  0  0  0  0  0
    9.8631   35.0837   72.2854 O   0  0  0  0  0  0  0  0  0  0  0  0
   11.7150   33.8700   71.8995 N   0  0  0  0  0  0  0  0  0  0  0  0
   12.7054   33.3909   70.9939 C   0  0  0  0  0  0  0  0  0  0  0  0
   13.5558   32.5669   71.4146 O   0  0  0  0  0  0  0  0  0  0  0  0
   12.6781   33.8475   69.7285 C   0  0  0  0  0  0  0  0  0  0  0  0
   13.4817   33.6291   68.6259 N   0  0  0  0  0  0  0  0  0  0  0  0
   11.6934   34.7211   69.3644 C   0  0  0  0  0  0  0  0  0  0  0  0
   11.9152   35.0205   68.0856 N   0  0  0  0  0  0  0  0  0  0  0  0
   12.9846   34.3598   67.6432 C   0  0  0  0  0  0  0  0  0  0  0  0
   11.7346   33.5734   72.8381 H   0  0  0  0  0  0  0  0  0  0  0  0
   14.6412   32.7519   68.4601 C   0  0  0  0  0  0  0  0  0  0  0  0
   14.1093   31.3972   68.0928 C   0  0  0  0  0  0  0  0  0  0  0  0
    9.7196   36.1892   69.7194 C   0  0  0  0  0  0  0  0  0  0  0  0
    8.4748   35.6433   69.0559 C   0  0  0  0  0  0  0  0  0  0  0  0
    8.6386   36.0977   66.6578 C   0  0  0  0  0  0  0  0  0  0  0  0
    8.1462   36.6780   67.9566 C   0  0  0  0  0  0  0  0  0  0  0  0
   13.4697   34.5346   66.2569 C   0  0  0  0  0  0  0  0  0  0  0  0
   11.9462   34.8309   65.1606 S   0  0  0  0  0  0  0  0  0  0  0  0
   11.1208   33.2352   65.0970 C   0  0  0  0  0  0  0  0  0  0  0  0
   10.6280   32.5672   66.1477 N   0  0  0  0  0  0  0  0  0  0  0  0
   10.9770   32.5238   63.9773 N   0  0  0  0  0  0  0  0  0  0  0  0
   10.3740   31.3783   64.3435 N   0  0  0  0  0  0  0  0  0  0  0  0
   10.0304   30.3800   63.5111 C   0  0  0  0  0  0  0  0  0  0  0  0
   10.3241   30.4700   62.1244 C   0  0  0  0  0  0  0  0  0  0  0  0
   10.1441   31.4191   65.6654 C   0  0  0  0  0  0  0  0  0  0  0  0
    9.5719   30.3457   66.2068 N   0  0  0  0  0  0  0  0  0  0  0  0
    9.2266   29.2810   65.4522 C   0  0  0  0  0  0  0  0  0  0  0  0
    8.5411   28.2245   66.1034 C   0  0  0  0  0  0  0  0  0  0  0  0
    9.4012   29.2956   64.0502 C   0  0  0  0  0  0  0  0  0  0  0  0
    9.0706   28.2079   63.2295 C   0  0  0  0  0  0  0  0  0  0  0  0
   10.2201   27.2423   63.0517 C   0  0  0  0  0  0  0  0  0  0  0  0
   10.0109   26.2554   61.8681 C   0  0  0  0  0  0  0  0  0  0  0  0
   10.7309   27.0125   60.7359 C   0  0  0  0  0  0  0  0  0  0  0  0
 35 34  1  0  0  0
 34 33  1  0  0  0
 33 32  1  0  0  0
 32 31  1  0  0  0
 30 29  1  0  0  0
 31 29  1  0  0  0
 31 25  2  0  0  0
 29 28  2  0  0  0
 26 25  1  0  0  0
 25 24  1  0  0  0
 28 27  1  0  0  0
 24 27  1  0  0  0
 24 23  1  0  0  0
 27 22  2  0  0  0
 17 18  1  0  0  0
 23 21  2  0  0  0
 22 21  1  0  0  0
 18 16  1  0  0  0
 21 20  1  0  0  0
 16 15  1  0  0  0
 19 20  1  0  0  0
 19 11  1  0  0  0
 15  1  1  0  0  0
 10 11  2  0  0  0
 10  9  1  0  0  0
 11  8  1  0  0  0
  1  9  1  0  0  0
  1  2  1  0  0  0
  9  7  2  0  0  0
  8  7  1  0  0  0
  8 13  1  0  0  0
  7  5  1  0  0  0
  2  3  2  0  0  0
  2  4  1  0  0  0
 13 14  1  0  0  0
  4  5  1  0  0  0
  5  6  2  0  0  0
  4 12  1  0  0  0
M  END
> <minimizedAffinity>
-6.86741

$$$$
5EGU_5NQ_A_201


 35 38  0  0  0  0  0  0  0  0999 V2000
   11.8481   37.1207   64.4826 N   0  0  0  0  0  0  0  0  0  0  0  0
   11.3776   37.9468   63.5059 C   0  0  0  0  0  0  0  0  0  0  0  0
   12.0490   38.2682   62.5356 O   0  0  0  0  0  0  0  0  0  0  0  0
   10.0639   38.3917   63.5822 N   0  0  0  0  0  0  0  0  0  0  0  0
    9.2117   37.9979   64.6543 C   0  0  0  0  0  0  0  0  0  0  0  0
    8.0202   38.3972   64.6523 O   0  0  0  0  0  0  0  0  0  0  0  0
    9.7295   37.2142   65.6177 C   0  0  0  0  0  0  0  0  0  0  0  0
    9.2155   36.6866   66.7868 N   0  0  0  0  0  0  0  0  0  0  0  0
   11.0303   36.8117   65.5113 C   0  0  0  0  0  0  0  0  0  0  0  0
   11.2824   36.0765   66.5930 N   0  0  0  0  0  0  0  0  0  0  0  0
   10.1908   35.9978   67.3533 C   0  0  0  0  0  0  0  0  0  0  0  0
    9.7151   38.9902   62.8827 H   0  0  0  0  0  0  0  0  0  0  0  0
    7.8677   36.7725   67.3502 C   0  0  0  0  0  0  0  0  0  0  0  0
    7.8616   37.9518   68.2789 C   0  0  0  0  0  0  0  0  0  0  0  0
   13.2966   36.7102   64.4960 C   0  0  0  0  0  0  0  0  0  0  0  0
   13.5469   35.2232   64.3780 C   0  0  0  0  0  0  0  0  0  0  0  0
   15.2862   36.2038   65.7912 C   0  0  0  0  0  0  0  0  0  0  0  0
   14.5573   34.9179   65.5062 C   0  0  0  0  0  0  0  0  0  0  0  0
   10.2056   35.2602   68.6353 C   0  0  0  0  0  0  0  0  0  0  0  0
   11.6000   33.9737   68.5283 S   0  0  0  0  0  0  0  0  0  0  0  0
   10.9322   32.6729   67.4826 C   0  0  0  0  0  0  0  0  0  0  0  0
   10.3806   31.5306   67.9113 N   0  0  0  0  0  0  0  0  0  0  0  0
   10.9843   32.6992   66.1495 N   0  0  0  0  0  0  0  0  0  0  0  0
   10.4461   31.5373   65.7367 N   0  0  0  0  0  0  0  0  0  0  0  0
   10.2922   31.1640   64.4544 C   0  0  0  0  0  0  0  0  0  0  0  0
   10.7374   32.0093   63.4034 C   0  0  0  0  0  0  0  0  0  0  0  0
   10.0601   30.8374   66.8151 C   0  0  0  0  0  0  0  0  0  0  0  0
    9.5255   29.6388   66.5908 N   0  0  0  0  0  0  0  0  0  0  0  0
    9.3667   29.1670   65.3360 C   0  0  0  0  0  0  0  0  0  0  0  0
    8.7056   27.9207   65.1948 C   0  0  0  0  0  0  0  0  0  0  0  0
    9.7025   29.9570   64.2138 C   0  0  0  0  0  0  0  0  0  0  0  0
    9.5680   29.5028   62.8941 C   0  0  0  0  0  0  0  0  0  0  0  0
   10.7002   28.5938   62.4731 C   0  0  0  0  0  0  0  0  0  0  0  0
   10.5761   28.1056   61.0017 C   0  0  0  0  0  0  0  0  0  0  0  0
   10.3400   26.5991   61.2210 C   0  0  0  0  0  0  0  0  0  0  0  0
 35 34  1  0  0  0
 34 33  1  0  0  0
 33 32  1  0  0  0
 32 31  1  0  0  0
 30 29  1  0  0  0
 31 29  1  0  0  0
 31 25  2  0  0  0
 29 28  2  0  0  0
 26 25  1  0  0  0
 25 24  1  0  0  0
 28 27  1  0  0  0
 24 27  1  0  0  0
 24 23  1  0  0  0
 27 22  2  0  0  0
 17 18  1  0  0  0
 23 21  2  0  0  0
 22 21  1  0  0  0
 18 16  1  0  0  0
 21 20  1  0  0  0
 16 15  1  0  0  0
 19 20  1  0  0  0
 19 11  1  0  0  0
 15  1  1  0  0  0
 10 11  2  0  0  0
 10  9  1  0  0  0
 11  8  1  0  0  0
  1  9  1  0  0  0
  1  2  1  0  0  0
  9  7  2  0  0  0
  8  7  1  0  0  0
  8 13  1  0  0  0
  7  5  1  0  0  0
  2  3  2  0  0  0
  2  4  1  0  0  0
 13 14  1  0  0  0
  4  5  1  0  0  0
  5  6  2  0  0  0
  4 12  1  0  0  0
M  END
> <minimizedAffinity>
-6.85505

$$$$
5EGU_5NQ_A_201


 35 38  0  0  0  0  0  0  0  0999 V2000
   11.1914   34.4881   70.2856 N   0  0  0  0  0  0  0  0  0  0  0  0
   10.4286   34.2602   71.3920 C   0  0  0  0  0  0  0  0  0  0  0  0
   10.8911   33.8031   72.4277 O   0  0  0  0  0  0  0  0  0  0  0  0
    9.0867   34.6182   71.3641 N   0  0  0  0  0  0  0  0  0  0  0  0
    8.5056   35.2160   70.2085 C   0  0  0  0  0  0  0  0  0  0  0  0
    7.2969   35.5572   70.2520 O   0  0  0  0  0  0  0  0  0  0  0  0
    9.2854   35.3856   69.1251 C   0  0  0  0  0  0  0  0  0  0  0  0
    9.0503   35.8855   67.8585 N   0  0  0  0  0  0  0  0  0  0  0  0
   10.5957   35.0060   69.1905 C   0  0  0  0  0  0  0  0  0  0  0  0
   11.1182   35.2630   67.9925 N   0  0  0  0  0  0  0  0  0  0  0  0
   10.1911   35.7960   67.1974 C   0  0  0  0  0  0  0  0  0  0  0  0
    8.5268   34.4559   72.1575 H   0  0  0  0  0  0  0  0  0  0  0  0
    7.8367   36.4642   67.2809 C   0  0  0  0  0  0  0  0  0  0  0  0
    7.8513   37.9264   67.6197 C   0  0  0  0  0  0  0  0  0  0  0  0
   12.6185   34.0107   70.2368 C   0  0  0  0  0  0  0  0  0  0  0  0
   12.8078   32.5916   69.7490 C   0  0  0  0  0  0  0  0  0  0  0  0
   13.8297   31.5764   67.7718 C   0  0  0  0  0  0  0  0  0  0  0  0
   14.0073   32.6807   68.7793 C   0  0  0  0  0  0  0  0  0  0  0  0
   10.5010   36.1505   65.7952 C   0  0  0  0  0  0  0  0  0  0  0  0
   12.0512   35.1713   65.2966 S   0  0  0  0  0  0  0  0  0  0  0  0
   11.4224   33.5721   64.7689 C   0  0  0  0  0  0  0  0  0  0  0  0
   11.1356   33.2216   63.5087 N   0  0  0  0  0  0  0  0  0  0  0  0
   11.1162   32.5852   65.6132 N   0  0  0  0  0  0  0  0  0  0  0  0
   10.6255   31.5892   64.8535 N   0  0  0  0  0  0  0  0  0  0  0  0
   10.2068   30.3964   65.3111 C   0  0  0  0  0  0  0  0  0  0  0  0
   10.2348   30.1124   66.7024 C   0  0  0  0  0  0  0  0  0  0  0  0
   10.6594   31.9747   63.5682 C   0  0  0  0  0  0  0  0  0  0  0  0
   10.1820   31.1133   62.6721 N   0  0  0  0  0  0  0  0  0  0  0  0
    9.7065   29.9064   63.0458 C   0  0  0  0  0  0  0  0  0  0  0  0
    9.3043   29.0238   62.0118 C   0  0  0  0  0  0  0  0  0  0  0  0
    9.7593   29.4895   64.3947 C   0  0  0  0  0  0  0  0  0  0  0  0
    9.2643   28.2519   64.8300 C   0  0  0  0  0  0  0  0  0  0  0  0
    7.7864   28.2942   65.1448 C   0  0  0  0  0  0  0  0  0  0  0  0
    7.4129   27.5012   66.4295 C   0  0  0  0  0  0  0  0  0  0  0  0
    6.4287   26.4675   65.8497 C   0  0  0  0  0  0  0  0  0  0  0  0
 35 34  1  0  0  0
 34 33  1  0  0  0
 33 32  1  0  0  0
 32 31  1  0  0  0
 30 29  1  0  0  0
 31 29  1  0  0  0
 31 25  2  0  0  0
 29 28  2  0  0  0
 26 25  1  0  0  0
 25 24  1  0  0  0
 28 27  1  0  0  0
 24 27  1  0  0  0
 24 23  1  0  0  0
 27 22  2  0  0  0
 17 18  1  0  0  0
 23 21  2  0  0  0
 22 21  1  0  0  0
 18 16  1  0  0  0
 21 20  1  0  0  0
 16 15  1  0  0  0
 19 20  1  0  0  0
 19 11  1  0  0  0
 15  1  1  0  0  0
 10 11  2  0  0  0
 10  9  1  0  0  0
 11  8  1  0  0  0
  1  9  1  0  0  0
  1  2  1  0  0  0
  9  7  2  0  0  0
  8  7  1  0  0  0
  8 13  1  0  0  0
  7  5  1  0  0  0
  2  3  2  0  0  0
  2  4  1  0  0  0
 13 14  1  0  0  0
  4  5  1  0  0  0
  5  6  2  0  0  0
  4 12  1  0  0  0
M  END
> <minimizedAffinity>
-6.80170

$$$$
5EGU_5NQ_A_201


 35 38  0  0  0  0  0  0  0  0999 V2000
   12.3724   34.7273   69.7935 N   0  0  0  0  0  0  0  0  0  0  0  0
   11.7405   34.2664   70.9097 C   0  0  0  0  0  0  0  0  0  0  0  0
   12.3459   33.9327   71.9185 O   0  0  0  0  0  0  0  0  0  0  0  0
   10.3519   34.2325   70.9258 N   0  0  0  0  0  0  0  0  0  0  0  0
    9.5893   34.6707   69.8046 C   0  0  0  0  0  0  0  0  0  0  0  0
    8.3355   34.6564   69.8883 O   0  0  0  0  0  0  0  0  0  0  0  0
   10.2547   35.0799   68.7090 C   0  0  0  0  0  0  0  0  0  0  0  0
    9.8479   35.5245   67.4655 N   0  0  0  0  0  0  0  0  0  0  0  0
   11.6203   35.0833   68.7305 C   0  0  0  0  0  0  0  0  0  0  0  0
   12.0107   35.5066   67.5295 N   0  0  0  0  0  0  0  0  0  0  0  0
   10.9461   35.7764   66.7746 C   0  0  0  0  0  0  0  0  0  0  0  0
    9.8860   33.8995   71.7266 H   0  0  0  0  0  0  0  0  0  0  0  0
    8.5027   35.7519   66.9365 C   0  0  0  0  0  0  0  0  0  0  0  0
    8.1238   37.1561   67.3078 C   0  0  0  0  0  0  0  0  0  0  0  0
   13.8739   34.6726   69.6948 C   0  0  0  0  0  0  0  0  0  0  0  0
   14.4592   33.2886   69.5229 C   0  0  0  0  0  0  0  0  0  0  0  0
   13.7954   31.4907   68.0026 C   0  0  0  0  0  0  0  0  0  0  0  0
   14.1881   32.9435   68.0415 C   0  0  0  0  0  0  0  0  0  0  0  0
   11.0986   36.2384   65.3779 C   0  0  0  0  0  0  0  0  0  0  0  0
   12.2667   35.0192   64.5061 S   0  0  0  0  0  0  0  0  0  0  0  0
   11.4345   33.4309   64.6326 C   0  0  0  0  0  0  0  0  0  0  0  0
   11.1206   32.8009   65.7717 N   0  0  0  0  0  0  0  0  0  0  0  0
   11.1025   32.6864   63.5761 N   0  0  0  0  0  0  0  0  0  0  0  0
   10.5633   31.5591   64.0745 N   0  0  0  0  0  0  0  0  0  0  0  0
   10.0809   30.5390   63.3437 C   0  0  0  0  0  0  0  0  0  0  0  0
   10.1395   30.5828   61.9253 C   0  0  0  0  0  0  0  0  0  0  0  0
   10.5574   31.6434   65.4142 C   0  0  0  0  0  0  0  0  0  0  0  0
   10.0782   30.5932   66.0778 N   0  0  0  0  0  0  0  0  0  0  0  0
    9.6068   29.5092   65.4261 C   0  0  0  0  0  0  0  0  0  0  0  0
    9.0343   28.4805   66.2162 C   0  0  0  0  0  0  0  0  0  0  0  0
    9.5451   29.4784   64.0149 C   0  0  0  0  0  0  0  0  0  0  0  0
    9.0769   28.3691   63.2963 C   0  0  0  0  0  0  0  0  0  0  0  0
   10.1427   27.3169   63.0904 C   0  0  0  0  0  0  0  0  0  0  0  0
    9.8599   26.3919   61.8726 C   0  0  0  0  0  0  0  0  0  0  0  0
   10.6725   27.1079   60.7769 C   0  0  0  0  0  0  0  0  0  0  0  0
 35 34  1  0  0  0
 34 33  1  0  0  0
 33 32  1  0  0  0
 32 31  1  0  0  0
 30 29  1  0  0  0
 31 29  1  0  0  0
 31 25  2  0  0  0
 29 28  2  0  0  0
 26 25  1  0  0  0
 25 24  1  0  0  0
 28 27  1  0  0  0
 24 27  1  0  0  0
 24 23  1  0  0  0
 27 22  2  0  0  0
 17 18  1  0  0  0
 23 21  2  0  0  0
 22 21  1  0  0  0
 18 16  1  0  0  0
 21 20  1  0  0  0
 16 15  1  0  0  0
 19 20  1  0  0  0
 19 11  1  0  0  0
 15  1  1  0  0  0
 10 11  2  0  0  0
 10  9  1  0  0  0
 11  8  1  0  0  0
  1  9  1  0  0  0
  1  2  1  0  0  0
  9  7  2  0  0  0
  8  7  1  0  0  0
  8 13  1  0  0  0
  7  5  1  0  0  0
  2  3  2  0  0  0
  2  4  1  0  0  0
 13 14  1  0  0  0
  4  5  1  0  0  0
  5  6  2  0  0  0
  4 12  1  0  0  0
M  END
> <minimizedAffinity>
-6.75230

$$$$
5EGU_5NQ_A_201


 35 38  0  0  0  0  0  0  0  0999 V2000
    8.9363   34.5758   69.7545 N   0  0  0  0  0  0  0  0  0  0  0  0
    7.6625   34.9179   70.0981 C   0  0  0  0  0  0  0  0  0  0  0  0
    7.0981   34.4543   71.0790 O   0  0  0  0  0  0  0  0  0  0  0  0
    7.0007   35.8766   69.3414 N   0  0  0  0  0  0  0  0  0  0  0  0
    7.6302   36.5011   68.2260 C   0  0  0  0  0  0  0  0  0  0  0  0
    7.0002   37.3910   67.6012 O   0  0  0  0  0  0  0  0  0  0  0  0
    8.8734   36.1041   67.8982 C   0  0  0  0  0  0  0  0  0  0  0  0
    9.7443   36.4589   66.8859 N   0  0  0  0  0  0  0  0  0  0  0  0
    9.4819   35.1478   68.6602 C   0  0  0  0  0  0  0  0  0  0  0  0
   10.6747   34.9343   68.1072 N   0  0  0  0  0  0  0  0  0  0  0  0
   10.8322   35.7260   67.0469 C   0  0  0  0  0  0  0  0  0  0  0  0
    6.0796   36.1292   69.5802 H   0  0  0  0  0  0  0  0  0  0  0  0
    9.6075   37.4623   65.8296 C   0  0  0  0  0  0  0  0  0  0  0  0
    8.9101   36.7904   64.6827 C   0  0  0  0  0  0  0  0  0  0  0  0
    9.6438   33.4614   70.4787 C   0  0  0  0  0  0  0  0  0  0  0  0
   10.4005   33.8770   71.7207 C   0  0  0  0  0  0  0  0  0  0  0  0
    9.3053   31.7137   72.0445 C   0  0  0  0  0  0  0  0  0  0  0  0
   10.3402   32.6334   72.6355 C   0  0  0  0  0  0  0  0  0  0  0  0
   12.0632   35.6695   66.2288 C   0  0  0  0  0  0  0  0  0  0  0  0
   13.0269   34.1231   66.7681 S   0  0  0  0  0  0  0  0  0  0  0  0
   11.9064   32.7570   66.4371 C   0  0  0  0  0  0  0  0  0  0  0  0
   11.4363   31.8932   67.3460 N   0  0  0  0  0  0  0  0  0  0  0  0
   11.4806   32.4323   65.2148 N   0  0  0  0  0  0  0  0  0  0  0  0
   10.7203   31.3332   65.3694 N   0  0  0  0  0  0  0  0  0  0  0  0
   10.0826   30.6837   64.3800 C   0  0  0  0  0  0  0  0  0  0  0  0
   10.2024   31.1288   63.0366 C   0  0  0  0  0  0  0  0  0  0  0  0
   10.6793   31.0211   66.6743 C   0  0  0  0  0  0  0  0  0  0  0  0
    9.9860   29.9344   67.0083 N   0  0  0  0  0  0  0  0  0  0  0  0
    9.3441   29.1997   66.0754 C   0  0  0  0  0  0  0  0  0  0  0  0
    8.5585   28.1140   66.5383 C   0  0  0  0  0  0  0  0  0  0  0  0
    9.3315   29.5959   64.7193 C   0  0  0  0  0  0  0  0  0  0  0  0
    8.6906   28.8564   63.7150 C   0  0  0  0  0  0  0  0  0  0  0  0
    9.5706   27.7696   63.1409 C   0  0  0  0  0  0  0  0  0  0  0  0
    9.6295   27.7891   61.5869 C   0  0  0  0  0  0  0  0  0  0  0  0
   11.1534   27.7916   61.3602 C   0  0  0  0  0  0  0  0  0  0  0  0
 35 34  1  0  0  0
 34 33  1  0  0  0
 33 32  1  0  0  0
 32 31  1  0  0  0
 30 29  1  0  0  0
 31 29  1  0  0  0
 31 25  2  0  0  0
 29 28  2  0  0  0
 26 25  1  0  0  0
 25 24  1  0  0  0
 28 27  1  0  0  0
 24 27  1  0  0  0
 24 23  1  0  0  0
 27 22  2  0  0  0
 17 18  1  0  0  0
 23 21  2  0  0  0
 22 21  1  0  0  0
 18 16  1  0  0  0
 21 20  1  0  0  0
 16 15  1  0  0  0
 19 20  1  0  0  0
 19 11  1  0  0  0
 15  1  1  0  0  0
 10 11  2  0  0  0
 10  9  1  0  0  0
 11  8  1  0  0  0
  1  9  1  0  0  0
  1  2  1  0  0  0
  9  7  2  0  0  0
  8  7  1  0  0  0
  8 13  1  0  0  0
  7  5  1  0  0  0
  2  3  2  0  0  0
  2  4  1  0  0  0
 13 14  1  0  0  0
  4  5  1  0  0  0
  5  6  2  0  0  0
  4 12  1  0  0  0
M  END
> <minimizedAffinity>
-6.70765

$$$$
5EGU_5NQ_A_201


 35 38  0  0  0  0  0  0  0  0999 V2000
    8.0988   36.7806   68.6316 N   0  0  0  0  0  0  0  0  0  0  0  0
    6.9109   36.8406   69.2971 C   0  0  0  0  0  0  0  0  0  0  0  0
    6.0600   37.6836   69.0506 O   0  0  0  0  0  0  0  0  0  0  0  0
    6.6285   35.8696   70.2496 N   0  0  0  0  0  0  0  0  0  0  0  0
    7.5527   34.8230   70.5339 C   0  0  0  0  0  0  0  0  0  0  0  0
    7.2290   33.9479   71.3757 O   0  0  0  0  0  0  0  0  0  0  0  0
    8.7300   34.8254   69.8823 C   0  0  0  0  0  0  0  0  0  0  0  0
    9.8426   34.0076   69.9346 N   0  0  0  0  0  0  0  0  0  0  0  0
    8.9730   35.8073   68.9646 C   0  0  0  0  0  0  0  0  0  0  0  0
   10.1995   35.5837   68.4957 N   0  0  0  0  0  0  0  0  0  0  0  0
   10.7166   34.5004   69.0745 C   0  0  0  0  0  0  0  0  0  0  0  0
    5.7740   35.9052   70.7372 H   0  0  0  0  0  0  0  0  0  0  0  0
   10.0868   32.7926   70.7126 C   0  0  0  0  0  0  0  0  0  0  0  0
   10.7238   33.2250   72.0012 C   0  0  0  0  0  0  0  0  0  0  0  0
    8.4892   37.8770   67.6763 C   0  0  0  0  0  0  0  0  0  0  0  0
    7.9980   37.7010   66.2566 C   0  0  0  0  0  0  0  0  0  0  0  0
    8.8584   37.1292   64.0392 C   0  0  0  0  0  0  0  0  0  0  0  0
    9.2193   37.1318   65.5006 C   0  0  0  0  0  0  0  0  0  0  0  0
   12.0864   34.0442   68.7532 C   0  0  0  0  0  0  0  0  0  0  0  0
   12.2481   34.0380   66.8599 S   0  0  0  0  0  0  0  0  0  0  0  0
   11.2886   32.6128   66.3315 C   0  0  0  0  0  0  0  0  0  0  0  0
   10.6623   31.7482   67.1399 N   0  0  0  0  0  0  0  0  0  0  0  0
   11.1626   32.2407   65.0562 N   0  0  0  0  0  0  0  0  0  0  0  0
   10.4334   31.1102   65.0725 N   0  0  0  0  0  0  0  0  0  0  0  0
   10.0622   30.4088   63.9874 C   0  0  0  0  0  0  0  0  0  0  0  0
   10.4626   30.8287   62.6910 C   0  0  0  0  0  0  0  0  0  0  0  0
   10.1128   30.8260   66.3447 C   0  0  0  0  0  0  0  0  0  0  0  0
    9.4079   29.7152   66.5504 N   0  0  0  0  0  0  0  0  0  0  0  0
    9.0234   28.9298   65.5221 C   0  0  0  0  0  0  0  0  0  0  0  0
    8.1996   27.8185   65.8327 C   0  0  0  0  0  0  0  0  0  0  0  0
    9.2999   29.2943   64.1853 C   0  0  0  0  0  0  0  0  0  0  0  0
    8.9327   28.5026   63.0878 C   0  0  0  0  0  0  0  0  0  0  0  0
    9.8576   27.3243   62.8846 C   0  0  0  0  0  0  0  0  0  0  0  0
    9.8356   26.7747   61.4299 C   0  0  0  0  0  0  0  0  0  0  0  0
   10.7986   27.7593   60.7394 C   0  0  0  0  0  0  0  0  0  0  0  0
 35 34  1  0  0  0
 34 33  1  0  0  0
 33 32  1  0  0  0
 32 31  1  0  0  0
 30 29  1  0  0  0
 31 29  1  0  0  0
 31 25  2  0  0  0
 29 28  2  0  0  0
 26 25  1  0  0  0
 25 24  1  0  0  0
 28 27  1  0  0  0
 24 27  1  0  0  0
 24 23  1  0  0  0
 27 22  2  0  0  0
 17 18  1  0  0  0
 23 21  2  0  0  0
 22 21  1  0  0  0
 18 16  1  0  0  0
 21 20  1  0  0  0
 16 15  1  0  0  0
 19 20  1  0  0  0
 19 11  1  0  0  0
 15  1  1  0  0  0
 10 11  2  0  0  0
 10  9  1  0  0  0
 11  8  1  0  0  0
  1  9  1  0  0  0
  1  2  1  0  0  0
  9  7  2  0  0  0
  8  7  1  0  0  0
  8 13  1  0  0  0
  7  5  1  0  0  0
  2  3  2  0  0  0
  2  4  1  0  0  0
 13 14  1  0  0  0
  4  5  1  0  0  0
  5  6  2  0  0  0
  4 12  1  0  0  0
M  END
> <minimizedAffinity>
-6.67877

$$$$
