5EKM_TG5_A_304
  RCSB PDB12061717293D
Coordinates from PDB:5EKM:A:304 Model:1 without hydrogens
 19 19  0  0  0  0            999 V2000
    0.5110    2.9560   84.6410   C 0  0  0  0  0  0  0  0  0  0  0  0
   -0.2570    3.9670   84.0660   C 0  0  0  0  0  0  0  0  0  0  0  0
   -1.6420    3.9730   84.2780   C 0  0  0  0  0  0  0  0  0  0  0  0
   -2.2590    3.0000   85.0330   C 0  0  0  0  0  0  0  0  0  0  0  0
   -1.4800    2.0040   85.6110   C 0  0  0  0  0  0  0  0  0  0  0  0
   -0.0930    1.9790   85.4020   C 0  0  0  0  0  0  0  0  0  0  0  0
    0.4280    4.9380   83.2940   N 0  0  0  0  0  0  0  0  0  0  0  0
   -0.0680    6.0820   82.5770   C 0  0  0  0  0  0  0  0  0  0  0  0
    0.7420    6.7710   81.9750   O 0  0  0  0  0  0  0  0  0  0  0  0
   -1.7540    7.3600   81.3370   N 0  0  0  0  0  0  0  0  0  0  0  0
   -1.5480    6.4960   82.4920   C 0  0  0  0  0  0  0  0  0  0  0  0
   -2.2650    0.7390   86.5870   S 0  0  0  0  0  0  0  0  0  0  0  0
   -3.6850    0.8860   86.4540   O 0  0  0  0  0  0  0  0  0  0  0  0
   -1.9090    0.9270   87.9650   O 0  0  0  0  0  0  0  0  0  0  0  0
   -1.7320   -0.6880   86.0060   N 0  0  0  0  0  0  0  0  0  0  0  0
   -2.9920    6.9900   80.6960   C 0  0  0  0  0  0  0  0  0  0  0  0
   -3.1760    7.8530   79.4440   C 0  0  0  0  0  0  0  0  0  0  0  0
   -4.4190    7.3700   78.6540   C 0  0  0  0  0  0  0  0  0  0  0  0
   -4.9480    8.5120   77.7940   C 0  0  0  0  0  0  0  0  0  0  0  0
 19 18  1  0  0  0  0
 18 17  1  0  0  0  0
 17 16  1  0  0  0  0
 16 10  1  0  0  0  0
 10 11  1  0  0  0  0
  9  8  2  0  0  0  0
 11  8  1  0  0  0  0
  8  7  1  0  0  0  0
  7  2  1  0  0  0  0
  2  3  2  0  0  0  0
  2  1  1  0  0  0  0
  3  4  1  0  0  0  0
  1  6  2  0  0  0  0
  4  5  2  0  0  0  0
  6  5  1  0  0  0  0
  5 12  1  0  0  0  0
 15 12  1  0  0  0  0
 13 12  2  0  0  0  0
 12 14  2  0  0  0  0
A    1
C01
A    2
C02
A    3
C03
A    4
C04
A    5
C05
A    6
C06
A    7
N07
A    8
C08
A    9
O09
A   10
N10
A   11
C11
A   12
S12
A   13
O13
A   14
O14
A   15
N15
A   16
C16
A   17
C17
A   18
C18
A   19
C19
M  END
>  <InstanceId>
5EKM_TG5_A_304

>  <ChemCompId>
TG5

>  <PdbId>
5EKM

>  <ChainId>
A

>  <ResidueNumber>
304

>  <InsertionCode>


>  <Model>
1

>  <AltIds>


>  <MissingHeavyAtoms>
0

>  <ObservedFormula>
C12 N3 O3 S

>  <Name>
2-(butylamino)-~{N}-(4-sulfamoylphenyl)ethanamide

>  <SystematicName>
2-(butylamino)-~{N}-(4-sulfamoylphenyl)ethanamide

>  <Synonyms>


>  <Type>
NON-POLYMER

>  <Formula>
C12 H19 N3 O3 S

>  <MolecularWeight>
285.363

>  <ModifiedDate>
2015-12-31

>  <Parent>


>  <OneLetterCode>


>  <SubcomponentList>


>  <AmbiguousFlag>
N

>  <InChI>
InChI=1S/C12H19N3O3S/c1-2-3-8-14-9-12(16)15-10-4-6-11(7-5-10)19(13,17)18/h4-7,14H,2-3,8-9H2,1H3,(H,15,16)(H2,13,17,18)

>  <InChIKey>
RSJVJFMYAFZYGN-UHFFFAOYSA-N

>  <SMILES>
CCCCNCC(=O)Nc1ccc(cc1)S(=O)(=O)N

$$$$
