1HVJ_A78_A_800


 64 67  0  0  0  0  0  0  0  0999 V2000
    5.1174   -0.3644   17.1196 O   0  0  0  0  0  0  0  0  0  0  0  0
    4.9992   -0.6330   15.7323 C   0  0  0  0  0  0  0  0  0  0  0  0
    5.2798    0.5826   17.2529 H   0  0  0  0  0  0  0  0  0  0  0  0
    6.2978   -0.1555   15.1335 C   0  0  0  0  0  0  0  0  0  0  0  0
    6.2623    0.0672   13.6468 C   0  0  0  0  0  0  0  0  0  0  0  0
    4.1132    0.2676   12.3876 C   0  0  0  0  0  0  0  0  0  0  0  0
    4.1822   -0.8559   11.9265 O   0  0  0  0  0  0  0  0  0  0  0  0
    5.0334    0.7863   13.2290 N   0  0  0  0  0  0  0  0  0  0  0  0
    4.8804    1.6914   13.5849 H   0  0  0  0  0  0  0  0  0  0  0  0
    2.9170    1.1434   11.9833 C   0  0  0  0  0  0  0  0  0  0  0  0
    3.5410    3.2198   10.8883 C   0  0  0  0  0  0  0  0  0  0  0  0
    3.4169    3.8031   11.9545 O   0  0  0  0  0  0  0  0  0  0  0  0
    3.9883    3.8596    9.7899 N   0  0  0  0  0  0  0  0  0  0  0  0
    4.1016    3.1880    8.4919 C   0  0  0  0  0  0  0  0  0  0  0  0
    3.2417    1.9327   10.7724 N   0  0  0  0  0  0  0  0  0  0  0  0
    3.2355    1.5040    9.8861 H   0  0  0  0  0  0  0  0  0  0  0  0
    4.4248    5.2659    9.9434 C   0  0  0  0  0  0  0  0  0  0  0  0
    5.7988    5.4262   10.5604 C   0  0  0  0  0  0  0  0  0  0  0  0
    6.9096    5.4857    9.7181 C   0  0  0  0  0  0  0  0  0  0  0  0
    5.8814    5.5055   11.8965 N   0  0  0  0  0  0  0  0  0  0  0  0
    8.1695    5.6262   10.3058 C   0  0  0  0  0  0  0  0  0  0  0  0
    7.0918    5.6259   12.4536 C   0  0  0  0  0  0  0  0  0  0  0  0
    8.2674    5.6901   11.7006 C   0  0  0  0  0  0  0  0  0  0  0  0
    5.0706    5.4758   12.4542 H   0  0  0  0  0  0  0  0  0  0  0  0
    1.6247    0.3125   11.7411 C   0  0  0  0  0  0  0  0  0  0  0  0
    0.9070   -0.0885   13.0367 C   0  0  0  0  0  0  0  0  0  0  0  0
    0.6340    1.0067   10.7808 C   0  0  0  0  0  0  0  0  0  0  0  0
    7.4940    0.9037   13.3525 C   0  0  0  0  0  0  0  0  0  0  0  0
    7.8399    0.9052   11.9011 C   0  0  0  0  0  0  0  0  0  0  0  0
    7.3820    1.9279   11.0650 C   0  0  0  0  0  0  0  0  0  0  0  0
    7.6950    1.9025    9.6999 C   0  0  0  0  0  0  0  0  0  0  0  0
    8.4575    0.8630    9.1823 C   0  0  0  0  0  0  0  0  0  0  0  0
    8.9212   -0.1521   10.0297 C   0  0  0  0  0  0  0  0  0  0  0  0
    8.6149   -0.1363   11.3944 C   0  0  0  0  0  0  0  0  0  0  0  0
    4.7420   -2.1378   15.5378 C   0  0  0  0  0  0  0  0  0  0  0  0
    5.8424   -2.9258   16.0956 N   0  0  0  0  0  0  0  0  0  0  0  0
    6.5187   -3.8638   15.4267 C   0  0  0  0  0  0  0  0  0  0  0  0
    6.3599   -4.0827   14.2381 O   0  0  0  0  0  0  0  0  0  0  0  0
    6.1024   -2.7522   17.0292 H   0  0  0  0  0  0  0  0  0  0  0  0
    7.5517   -4.6291   16.2733 C   0  0  0  0  0  0  0  0  0  0  0  0
    7.0767   -5.9478   16.7245 N   0  0  0  0  0  0  0  0  0  0  0  0
    6.8842   -6.3215   17.9818 C   0  0  0  0  0  0  0  0  0  0  0  0
    7.1812   -5.6196   18.9359 O   0  0  0  0  0  0  0  0  0  0  0  0
    6.3202   -7.5411   18.1624 N   0  0  0  0  0  0  0  0  0  0  0  0
    5.9626   -8.4247   17.0472 C   0  0  0  0  0  0  0  0  0  0  0  0
    6.8839   -6.6150   16.0266 H   0  0  0  0  0  0  0  0  0  0  0  0
    5.9850   -8.0140   19.5077 C   0  0  0  0  0  0  0  0  0  0  0  0
    4.6433   -7.5057   19.9693 C   0  0  0  0  0  0  0  0  0  0  0  0
    3.4974   -8.2997   19.8103 C   0  0  0  0  0  0  0  0  0  0  0  0
    4.6277   -6.2817   20.5193 N   0  0  0  0  0  0  0  0  0  0  0  0
    2.2721   -7.7848   20.2460 C   0  0  0  0  0  0  0  0  0  0  0  0
    3.4414   -5.8032   20.9292 C   0  0  0  0  0  0  0  0  0  0  0  0
    2.2374   -6.5106   20.8215 C   0  0  0  0  0  0  0  0  0  0  0  0
    5.4535   -5.7550   20.6185 H   0  0  0  0  0  0  0  0  0  0  0  0
    8.8482   -4.7452   15.4596 C   0  0  0  0  0  0  0  0  0  0  0  0
    9.5598   -3.3793   15.3102 C   0  0  0  0  0  0  0  0  0  0  0  0
    9.8059   -5.7598   16.1078 C   0  0  0  0  0  0  0  0  0  0  0  0
    3.4093   -2.5710   16.1753 C   0  0  0  0  0  0  0  0  0  0  0  0
    3.0499   -4.0260   15.9775 C   0  0  0  0  0  0  0  0  0  0  0  0
    2.4947   -4.4641   14.7639 C   0  0  0  0  0  0  0  0  0  0  0  0
    2.1686   -5.8166   14.5954 C   0  0  0  0  0  0  0  0  0  0  0  0
    2.3898   -6.7400   15.6269 C   0  0  0  0  0  0  0  0  0  0  0  0
    2.9472   -6.3112   16.8333 C   0  0  0  0  0  0  0  0  0  0  0  0
    3.2767   -4.9543   17.0101 C   0  0  0  0  0  0  0  0  0  0  0  0
 11 12  2  0  0  0
 11 13  1  0  0  0
 11 15  1  0  0  0
 13 14  1  0  0  0
 13 17  1  0  0  0
 17 18  1  0  0  0
 18 19  2  0  0  0
 18 20  1  0  0  0
 19 21  1  0  0  0
 20 22  2  0  0  0
 21 23  2  0  0  0
 22 23  1  0  0  0
 15 10  1  0  0  0
 10  6  1  0  0  0
 10 25  1  0  0  0
  6  7  2  0  0  0
  6  8  1  0  0  0
 25 26  1  0  0  0
 25 27  1  0  0  0
  8  5  1  0  0  0
  5 28  1  0  0  0
  5  4  1  0  0  0
 28 29  1  0  0  0
 29 30  2  0  0  0
 29 34  1  0  0  0
 30 31  1  0  0  0
 31 32  2  0  0  0
 32 33  1  0  0  0
 33 34  2  0  0  0
  4  2  1  0  0  0
  1  2  1  0  0  0
  2 35  1  0  0  0
 36 35  1  0  0  0
 36 37  1  0  0  0
 35 58  1  0  0  0
 58 59  1  0  0  0
 59 60  2  0  0  0
 59 64  1  0  0  0
 60 61  1  0  0  0
 61 62  2  0  0  0
 62 63  1  0  0  0
 63 64  2  0  0  0
 41 40  1  0  0  0
 41 42  1  0  0  0
 40 37  1  0  0  0
 40 55  1  0  0  0
 37 38  2  0  0  0
 55 56  1  0  0  0
 55 57  1  0  0  0
 42 43  2  0  0  0
 42 44  1  0  0  0
 44 45  1  0  0  0
 44 47  1  0  0  0
 47 48  1  0  0  0
 48 49  2  0  0  0
 48 50  1  0  0  0
 49 51  1  0  0  0
 50 52  2  0  0  0
 51 53  2  0  0  0
 52 53  1  0  0  0
 20 24  1  0  0  0
 15 16  1  0  0  0
  8  9  1  0  0  0
  1  3  1  0  0  0
 36 39  1  0  0  0
 41 46  1  0  0  0
 50 54  1  0  0  0
M  CHG 1  20   1
M  CHG 1  50   1
M  END
> <minimizedAffinity>
-11.00741

$$$$
1HVJ_A78_A_800


 64 67  0  0  0  0  0  0  0  0999 V2000
    6.3316    1.0797   15.4848 O   0  0  0  0  0  0  0  0  0  0  0  0
    6.1172   -0.1310   14.7785 C   0  0  0  0  0  0  0  0  0  0  0  0
    6.3652    0.8970   16.4369 H   0  0  0  0  0  0  0  0  0  0  0  0
    4.8261   -0.6786   15.3318 C   0  0  0  0  0  0  0  0  0  0  0  0
    4.6636   -2.1674   15.1971 C   0  0  0  0  0  0  0  0  0  0  0  0
    6.4935   -3.8631   15.3381 C   0  0  0  0  0  0  0  0  0  0  0  0
    6.3980   -4.1856   14.1691 O   0  0  0  0  0  0  0  0  0  0  0  0
    5.7362   -2.9031   15.9113 N   0  0  0  0  0  0  0  0  0  0  0  0
    5.9051   -2.6790   16.8549 H   0  0  0  0  0  0  0  0  0  0  0  0
    7.5277   -4.5945   16.2081 C   0  0  0  0  0  0  0  0  0  0  0  0
    6.8945   -6.3056   17.8116 C   0  0  0  0  0  0  0  0  0  0  0  0
    7.2705   -5.5765   18.7169 O   0  0  0  0  0  0  0  0  0  0  0  0
    6.3053   -7.4902   18.0675 N   0  0  0  0  0  0  0  0  0  0  0  0
    5.8879   -8.3979   16.9948 C   0  0  0  0  0  0  0  0  0  0  0  0
    7.0503   -5.9568   16.5412 N   0  0  0  0  0  0  0  0  0  0  0  0
    6.8497   -6.6000   15.8234 H   0  0  0  0  0  0  0  0  0  0  0  0
    6.0330   -7.8313   19.4821 C   0  0  0  0  0  0  0  0  0  0  0  0
    4.6757   -7.3792   19.9800 C   0  0  0  0  0  0  0  0  0  0  0  0
    3.5884   -8.2424   19.8404 C   0  0  0  0  0  0  0  0  0  0  0  0
    4.5848   -6.1627   20.5368 N   0  0  0  0  0  0  0  0  0  0  0  0
    2.3430   -7.8052   20.2988 C   0  0  0  0  0  0  0  0  0  0  0  0
    3.3868   -5.7445   20.9610 C   0  0  0  0  0  0  0  0  0  0  0  0
    2.2344   -6.5292   20.8635 C   0  0  0  0  0  0  0  0  0  0  0  0
    5.3807   -5.5909   20.6313 H   0  0  0  0  0  0  0  0  0  0  0  0
    8.9257   -4.6758   15.5311 C   0  0  0  0  0  0  0  0  0  0  0  0
    9.6174   -3.3127   15.3973 C   0  0  0  0  0  0  0  0  0  0  0  0
    9.8710   -5.6832   16.2215 C   0  0  0  0  0  0  0  0  0  0  0  0
    3.3107   -2.4654   15.8171 C   0  0  0  0  0  0  0  0  0  0  0  0
    3.0018   -3.9251   15.8195 C   0  0  0  0  0  0  0  0  0  0  0  0
    3.2138   -4.6920   16.9691 C   0  0  0  0  0  0  0  0  0  0  0  0
    2.9418   -6.0659   16.9484 C   0  0  0  0  0  0  0  0  0  0  0  0
    2.4635   -6.6609   15.7878 C   0  0  0  0  0  0  0  0  0  0  0  0
    2.2438   -5.8826   14.6434 C   0  0  0  0  0  0  0  0  0  0  0  0
    2.5117   -4.5098   14.6533 C   0  0  0  0  0  0  0  0  0  0  0  0
    6.0664    0.1754   13.2712 C   0  0  0  0  0  0  0  0  0  0  0  0
    4.8136    0.8479   12.9233 N   0  0  0  0  0  0  0  0  0  0  0  0
    3.8506    0.3135   12.1671 C   0  0  0  0  0  0  0  0  0  0  0  0
    3.8692   -0.8419   11.7790 O   0  0  0  0  0  0  0  0  0  0  0  0
    4.6706    1.7578   13.2709 H   0  0  0  0  0  0  0  0  0  0  0  0
    2.6849    1.2683   11.8524 C   0  0  0  0  0  0  0  0  0  0  0  0
    2.9787    2.2094   10.7586 N   0  0  0  0  0  0  0  0  0  0  0  0
    3.4570    3.4387   10.8920 C   0  0  0  0  0  0  0  0  0  0  0  0
    3.6205    3.9732   11.9777 O   0  0  0  0  0  0  0  0  0  0  0  0
    3.7730    4.0842    9.7425 N   0  0  0  0  0  0  0  0  0  0  0  0
    3.5780    3.4878    8.4163 C   0  0  0  0  0  0  0  0  0  0  0  0
    2.8034    1.8963    9.8419 H   0  0  0  0  0  0  0  0  0  0  0  0
    4.3890    5.4127    9.7803 C   0  0  0  0  0  0  0  0  0  0  0  0
    5.8580    5.3472   10.1113 C   0  0  0  0  0  0  0  0  0  0  0  0
    6.8051    5.2116    9.0849 C   0  0  0  0  0  0  0  0  0  0  0  0
    6.1789    5.4216   11.4122 N   0  0  0  0  0  0  0  0  0  0  0  0
    8.1568    5.1471    9.4386 C   0  0  0  0  0  0  0  0  0  0  0  0
    7.4816    5.3552   11.7324 C   0  0  0  0  0  0  0  0  0  0  0  0
    8.5092    5.2229   10.7898 C   0  0  0  0  0  0  0  0  0  0  0  0
    5.4864    5.5209   12.1049 H   0  0  0  0  0  0  0  0  0  0  0  0
    1.4400    0.4229   11.5493 C   0  0  0  0  0  0  0  0  0  0  0  0
    0.6729    0.0429   12.8383 C   0  0  0  0  0  0  0  0  0  0  0  0
    0.4990    1.1691   10.5877 C   0  0  0  0  0  0  0  0  0  0  0  0
    7.2648    1.0341   12.8278 C   0  0  0  0  0  0  0  0  0  0  0  0
    7.6651    0.8722   11.3790 C   0  0  0  0  0  0  0  0  0  0  0  0
    7.0757    1.6690   10.3837 C   0  0  0  0  0  0  0  0  0  0  0  0
    7.4588    1.5081    9.0453 C   0  0  0  0  0  0  0  0  0  0  0  0
    8.4256    0.5581    8.6870 C   0  0  0  0  0  0  0  0  0  0  0  0
    9.0193   -0.2326    9.6730 C   0  0  0  0  0  0  0  0  0  0  0  0
    8.6392   -0.0771   11.0192 C   0  0  0  0  0  0  0  0  0  0  0  0
 11 12  2  0  0  0
 11 13  1  0  0  0
 11 15  1  0  0  0
 13 14  1  0  0  0
 13 17  1  0  0  0
 17 18  1  0  0  0
 18 19  2  0  0  0
 18 20  1  0  0  0
 19 21  1  0  0  0
 20 22  2  0  0  0
 21 23  2  0  0  0
 22 23  1  0  0  0
 15 10  1  0  0  0
 10  6  1  0  0  0
 10 25  1  0  0  0
  6  7  2  0  0  0
  6  8  1  0  0  0
 25 26  1  0  0  0
 25 27  1  0  0  0
  8  5  1  0  0  0
  5 28  1  0  0  0
  5  4  1  0  0  0
 28 29  1  0  0  0
 29 30  2  0  0  0
 29 34  1  0  0  0
 30 31  1  0  0  0
 31 32  2  0  0  0
 32 33  1  0  0  0
 33 34  2  0  0  0
  4  2  1  0  0  0
  1  2  1  0  0  0
  2 35  1  0  0  0
 36 35  1  0  0  0
 36 37  1  0  0  0
 35 58  1  0  0  0
 58 59  1  0  0  0
 59 60  2  0  0  0
 59 64  1  0  0  0
 60 61  1  0  0  0
 61 62  2  0  0  0
 62 63  1  0  0  0
 63 64  2  0  0  0
 41 40  1  0  0  0
 41 42  1  0  0  0
 40 37  1  0  0  0
 40 55  1  0  0  0
 37 38  2  0  0  0
 55 56  1  0  0  0
 55 57  1  0  0  0
 42 43  2  0  0  0
 42 44  1  0  0  0
 44 45  1  0  0  0
 44 47  1  0  0  0
 47 48  1  0  0  0
 48 49  2  0  0  0
 48 50  1  0  0  0
 49 51  1  0  0  0
 50 52  2  0  0  0
 51 53  2  0  0  0
 52 53  1  0  0  0
 20 24  1  0  0  0
 15 16  1  0  0  0
  8  9  1  0  0  0
  1  3  1  0  0  0
 36 39  1  0  0  0
 41 46  1  0  0  0
 50 54  1  0  0  0
M  CHG 1  20   1
M  CHG 1  50   1
M  END
> <minimizedAffinity>
-10.49936

$$$$
1HVJ_A78_A_800


 64 67  0  0  0  0  0  0  0  0999 V2000
    4.9661   -0.0316   16.7357 O   0  0  0  0  0  0  0  0  0  0  0  0
    5.3756   -0.6328   15.5185 C   0  0  0  0  0  0  0  0  0  0  0  0
    4.5344    0.8165   16.5483 H   0  0  0  0  0  0  0  0  0  0  0  0
    6.2903    0.3786   14.8757 C   0  0  0  0  0  0  0  0  0  0  0  0
    6.1540    0.4928   13.3826 C   0  0  0  0  0  0  0  0  0  0  0  0
    3.8973    0.5703   12.3124 C   0  0  0  0  0  0  0  0  0  0  0  0
    3.9209   -0.6008   11.9841 O   0  0  0  0  0  0  0  0  0  0  0  0
    4.8928    1.1731   12.9973 N   0  0  0  0  0  0  0  0  0  0  0  0
    4.7754    2.1159   13.2552 H   0  0  0  0  0  0  0  0  0  0  0  0
    2.6702    1.4073   11.9187 C   0  0  0  0  0  0  0  0  0  0  0  0
    3.4190    3.4408   10.8214 C   0  0  0  0  0  0  0  0  0  0  0  0
    3.4789    3.9900   11.9110 O   0  0  0  0  0  0  0  0  0  0  0  0
    3.8212    4.0692    9.6992 N   0  0  0  0  0  0  0  0  0  0  0  0
    3.7157    3.4431    8.3780 C   0  0  0  0  0  0  0  0  0  0  0  0
    2.9574    2.2029   10.7024 N   0  0  0  0  0  0  0  0  0  0  0  0
    2.8063    1.8148    9.8103 H   0  0  0  0  0  0  0  0  0  0  0  0
    4.4366    5.4079    9.8439 C   0  0  0  0  0  0  0  0  0  0  0  0
    5.8330    5.3897   10.4306 C   0  0  0  0  0  0  0  0  0  0  0  0
    6.9201    5.2325    9.5702 C   0  0  0  0  0  0  0  0  0  0  0  0
    5.9576    5.5285   11.7585 N   0  0  0  0  0  0  0  0  0  0  0  0
    8.2000    5.2106   10.1304 C   0  0  0  0  0  0  0  0  0  0  0  0
    7.1848    5.4927   12.2901 C   0  0  0  0  0  0  0  0  0  0  0  0
    8.3388    5.3350   11.5176 C   0  0  0  0  0  0  0  0  0  0  0  0
    5.1649    5.6538   12.3287 H   0  0  0  0  0  0  0  0  0  0  0  0
    1.4018    0.5360   11.6923 C   0  0  0  0  0  0  0  0  0  0  0  0
    0.5832    0.3091   12.9701 C   0  0  0  0  0  0  0  0  0  0  0  0
    0.4907    1.0796   10.5700 C   0  0  0  0  0  0  0  0  0  0  0  0
    7.3549    1.3123   12.9471 C   0  0  0  0  0  0  0  0  0  0  0  0
    7.7379    1.0410   11.5307 C   0  0  0  0  0  0  0  0  0  0  0  0
    7.1113    1.7243   10.4843 C   0  0  0  0  0  0  0  0  0  0  0  0
    7.4648    1.4412    9.1588 C   0  0  0  0  0  0  0  0  0  0  0  0
    8.4346    0.4840    8.8888 C   0  0  0  0  0  0  0  0  0  0  0  0
    9.0651   -0.1884    9.9444 C   0  0  0  0  0  0  0  0  0  0  0  0
    8.7201    0.0869   11.2716 C   0  0  0  0  0  0  0  0  0  0  0  0
    6.0579   -1.9760   15.8325 C   0  0  0  0  0  0  0  0  0  0  0  0
    5.0660   -3.0479   15.9314 N   0  0  0  0  0  0  0  0  0  0  0  0
    4.4885   -3.6457   14.8856 C   0  0  0  0  0  0  0  0  0  0  0  0
    4.8149   -3.4337   13.7304 O   0  0  0  0  0  0  0  0  0  0  0  0
    4.8062   -3.3495   16.8319 H   0  0  0  0  0  0  0  0  0  0  0  0
    3.3937   -4.6618   15.2579 C   0  0  0  0  0  0  0  0  0  0  0  0
    3.6393   -5.3427   16.5401 N   0  0  0  0  0  0  0  0  0  0  0  0
    4.1169   -6.5697   16.6951 C   0  0  0  0  0  0  0  0  0  0  0  0
    4.3211   -7.3258   15.7582 O   0  0  0  0  0  0  0  0  0  0  0  0
    4.3838   -6.9499   17.9688 N   0  0  0  0  0  0  0  0  0  0  0  0
    4.1387   -6.0816   19.1256 C   0  0  0  0  0  0  0  0  0  0  0  0
    3.4290   -4.8394   17.3597 H   0  0  0  0  0  0  0  0  0  0  0  0
    4.9947   -8.2526   18.2439 C   0  0  0  0  0  0  0  0  0  0  0  0
    6.4945   -8.2173   18.0985 C   0  0  0  0  0  0  0  0  0  0  0  0
    7.2719   -7.4784   19.0033 C   0  0  0  0  0  0  0  0  0  0  0  0
    7.0099   -8.9161   17.0754 N   0  0  0  0  0  0  0  0  0  0  0  0
    8.6593   -7.4676   18.8258 C   0  0  0  0  0  0  0  0  0  0  0  0
    8.3438   -8.8916   16.9196 C   0  0  0  0  0  0  0  0  0  0  0  0
    9.2134   -8.1903   17.7645 C   0  0  0  0  0  0  0  0  0  0  0  0
    6.4328   -9.4269   16.4628 H   0  0  0  0  0  0  0  0  0  0  0  0
    2.0422   -3.9338   15.2561 C   0  0  0  0  0  0  0  0  0  0  0  0
    2.1229   -2.5692   14.5310 C   0  0  0  0  0  0  0  0  0  0  0  0
    0.9579   -4.8057   14.5995 C   0  0  0  0  0  0  0  0  0  0  0  0
    7.1158   -2.3346   14.7730 C   0  0  0  0  0  0  0  0  0  0  0  0
    8.2161   -3.2525   15.2545 C   0  0  0  0  0  0  0  0  0  0  0  0
    8.1502   -4.6338   15.0084 C   0  0  0  0  0  0  0  0  0  0  0  0
    9.1792   -5.4714   15.4596 C   0  0  0  0  0  0  0  0  0  0  0  0
   10.2763   -4.9456   16.1564 C   0  0  0  0  0  0  0  0  0  0  0  0
   10.3501   -3.5723   16.3986 C   0  0  0  0  0  0  0  0  0  0  0  0
    9.3202   -2.7250   15.9490 C   0  0  0  0  0  0  0  0  0  0  0  0
 11 12  2  0  0  0
 11 13  1  0  0  0
 11 15  1  0  0  0
 13 14  1  0  0  0
 13 17  1  0  0  0
 17 18  1  0  0  0
 18 19  2  0  0  0
 18 20  1  0  0  0
 19 21  1  0  0  0
 20 22  2  0  0  0
 21 23  2  0  0  0
 22 23  1  0  0  0
 15 10  1  0  0  0
 10  6  1  0  0  0
 10 25  1  0  0  0
  6  7  2  0  0  0
  6  8  1  0  0  0
 25 26  1  0  0  0
 25 27  1  0  0  0
  8  5  1  0  0  0
  5 28  1  0  0  0
  5  4  1  0  0  0
 28 29  1  0  0  0
 29 30  2  0  0  0
 29 34  1  0  0  0
 30 31  1  0  0  0
 31 32  2  0  0  0
 32 33  1  0  0  0
 33 34  2  0  0  0
  4  2  1  0  0  0
  1  2  1  0  0  0
  2 35  1  0  0  0
 36 35  1  0  0  0
 36 37  1  0  0  0
 35 58  1  0  0  0
 58 59  1  0  0  0
 59 60  2  0  0  0
 59 64  1  0  0  0
 60 61  1  0  0  0
 61 62  2  0  0  0
 62 63  1  0  0  0
 63 64  2  0  0  0
 41 40  1  0  0  0
 41 42  1  0  0  0
 40 37  1  0  0  0
 40 55  1  0  0  0
 37 38  2  0  0  0
 55 56  1  0  0  0
 55 57  1  0  0  0
 42 43  2  0  0  0
 42 44  1  0  0  0
 44 45  1  0  0  0
 44 47  1  0  0  0
 47 48  1  0  0  0
 48 49  2  0  0  0
 48 50  1  0  0  0
 49 51  1  0  0  0
 50 52  2  0  0  0
 51 53  2  0  0  0
 52 53  1  0  0  0
 20 24  1  0  0  0
 15 16  1  0  0  0
  8  9  1  0  0  0
  1  3  1  0  0  0
 36 39  1  0  0  0
 41 46  1  0  0  0
 50 54  1  0  0  0
M  CHG 1  20   1
M  CHG 1  50   1
M  END
> <minimizedAffinity>
-10.17182

$$$$
1HVJ_A78_A_800


 64 67  0  0  0  0  0  0  0  0999 V2000
    4.8858   -0.6301   16.5811 O   0  0  0  0  0  0  0  0  0  0  0  0
    5.2502   -1.8813   16.0220 C   0  0  0  0  0  0  0  0  0  0  0  0
    3.9579   -0.6594   16.8621 H   0  0  0  0  0  0  0  0  0  0  0  0
    4.2837   -2.0932   14.8845 C   0  0  0  0  0  0  0  0  0  0  0  0
    2.8603   -1.7149   15.1877 C   0  0  0  0  0  0  0  0  0  0  0  0
    2.7867   -0.1653   13.2288 C   0  0  0  0  0  0  0  0  0  0  0  0
    3.3814   -0.9315   12.4946 O   0  0  0  0  0  0  0  0  0  0  0  0
    2.4717   -0.4534   14.5100 N   0  0  0  0  0  0  0  0  0  0  0  0
    1.9557    0.2101   15.0226 H   0  0  0  0  0  0  0  0  0  0  0  0
    2.3799    1.2059   12.6671 C   0  0  0  0  0  0  0  0  0  0  0  0
    3.4857    2.9382   11.3724 C   0  0  0  0  0  0  0  0  0  0  0  0
    2.7393    3.7673   11.8704 O   0  0  0  0  0  0  0  0  0  0  0  0
    4.4837    3.3046   10.5444 N   0  0  0  0  0  0  0  0  0  0  0  0
    5.3612    2.3212    9.9028 C   0  0  0  0  0  0  0  0  0  0  0  0
    3.3428    1.6448   11.6304 N   0  0  0  0  0  0  0  0  0  0  0  0
    3.8741    0.9800   11.1354 H   0  0  0  0  0  0  0  0  0  0  0  0
    4.7120    4.7532   10.3416 C   0  0  0  0  0  0  0  0  0  0  0  0
    6.1446    5.1932   10.5620 C   0  0  0  0  0  0  0  0  0  0  0  0
    6.6471    5.2144   11.8636 C   0  0  0  0  0  0  0  0  0  0  0  0
    6.8664    5.5419    9.4871 N   0  0  0  0  0  0  0  0  0  0  0  0
    7.9682    5.6302   12.0481 C   0  0  0  0  0  0  0  0  0  0  0  0
    8.1263    5.9523    9.6720 C   0  0  0  0  0  0  0  0  0  0  0  0
    8.7233    6.0148   10.9341 C   0  0  0  0  0  0  0  0  0  0  0  0
    6.4785    5.4969    8.5833 H   0  0  0  0  0  0  0  0  0  0  0  0
    0.9383    1.2070   12.0829 C   0  0  0  0  0  0  0  0  0  0  0  0
    0.7990    0.3703   10.8043 C   0  0  0  0  0  0  0  0  0  0  0  0
   -0.1291    0.7792   13.1139 C   0  0  0  0  0  0  0  0  0  0  0  0
    2.0332   -2.8756   14.6661 C   0  0  0  0  0  0  0  0  0  0  0  0
    2.3631   -4.1569   15.3559 C   0  0  0  0  0  0  0  0  0  0  0  0
    2.6830   -4.1665   16.7169 C   0  0  0  0  0  0  0  0  0  0  0  0
    3.0139   -5.3740   17.3449 C   0  0  0  0  0  0  0  0  0  0  0  0
    3.0236   -6.5557   16.6146 C   0  0  0  0  0  0  0  0  0  0  0  0
    2.6913   -6.5382   15.2534 C   0  0  0  0  0  0  0  0  0  0  0  0
    2.3588   -5.3381   14.6165 C   0  0  0  0  0  0  0  0  0  0  0  0
    6.7234   -1.8185   15.5817 C   0  0  0  0  0  0  0  0  0  0  0  0
    7.4860   -2.9193   16.1730 N   0  0  0  0  0  0  0  0  0  0  0  0
    7.4694   -4.1787   15.7275 C   0  0  0  0  0  0  0  0  0  0  0  0
    6.8987   -4.5187   14.7054 O   0  0  0  0  0  0  0  0  0  0  0  0
    8.0508   -2.7174   16.9537 H   0  0  0  0  0  0  0  0  0  0  0  0
    8.2669   -5.1706   16.5933 C   0  0  0  0  0  0  0  0  0  0  0  0
    7.5100   -6.3857   16.9383 N   0  0  0  0  0  0  0  0  0  0  0  0
    7.2209   -6.8058   18.1620 C   0  0  0  0  0  0  0  0  0  0  0  0
    7.6476   -6.2621   19.1688 O   0  0  0  0  0  0  0  0  0  0  0  0
    6.4030   -7.8838   18.2454 N   0  0  0  0  0  0  0  0  0  0  0  0
    5.8804   -8.5785   17.0636 C   0  0  0  0  0  0  0  0  0  0  0  0
    7.1884   -6.9382   16.1897 H   0  0  0  0  0  0  0  0  0  0  0  0
    5.9517   -8.3764   19.5490 C   0  0  0  0  0  0  0  0  0  0  0  0
    4.6597   -7.7323   19.9820 C   0  0  0  0  0  0  0  0  0  0  0  0
    3.4449   -8.4169   19.8248 C   0  0  0  0  0  0  0  0  0  0  0  0
    4.7549   -6.5004   20.5056 N   0  0  0  0  0  0  0  0  0  0  0  0
    2.2697   -7.7779   20.2332 C   0  0  0  0  0  0  0  0  0  0  0  0
    3.6153   -5.9020   20.8895 C   0  0  0  0  0  0  0  0  0  0  0  0
    2.3505   -6.4937   20.7809 C   0  0  0  0  0  0  0  0  0  0  0  0
    5.6261   -6.0527   20.6044 H   0  0  0  0  0  0  0  0  0  0  0  0
    9.5714   -5.5089   15.8582 C   0  0  0  0  0  0  0  0  0  0  0  0
   10.2027   -4.2594   15.1989 C   0  0  0  0  0  0  0  0  0  0  0  0
   10.5839   -6.1541   16.8202 C   0  0  0  0  0  0  0  0  0  0  0  0
    6.8575   -1.8501   14.0483 C   0  0  0  0  0  0  0  0  0  0  0  0
    7.3199   -0.5548   13.4209 C   0  0  0  0  0  0  0  0  0  0  0  0
    7.2631    0.6476   14.1448 C   0  0  0  0  0  0  0  0  0  0  0  0
    7.6972    1.8398   13.5498 C   0  0  0  0  0  0  0  0  0  0  0  0
    8.1882    1.8468   12.2366 C   0  0  0  0  0  0  0  0  0  0  0  0
    8.2526    0.6534   11.5143 C   0  0  0  0  0  0  0  0  0  0  0  0
    7.8179   -0.5478   12.1051 C   0  0  0  0  0  0  0  0  0  0  0  0
 11 12  2  0  0  0
 11 13  1  0  0  0
 11 15  1  0  0  0
 13 14  1  0  0  0
 13 17  1  0  0  0
 17 18  1  0  0  0
 18 19  2  0  0  0
 18 20  1  0  0  0
 19 21  1  0  0  0
 20 22  2  0  0  0
 21 23  2  0  0  0
 22 23  1  0  0  0
 15 10  1  0  0  0
 10  6  1  0  0  0
 10 25  1  0  0  0
  6  7  2  0  0  0
  6  8  1  0  0  0
 25 26  1  0  0  0
 25 27  1  0  0  0
  8  5  1  0  0  0
  5 28  1  0  0  0
  5  4  1  0  0  0
 28 29  1  0  0  0
 29 30  2  0  0  0
 29 34  1  0  0  0
 30 31  1  0  0  0
 31 32  2  0  0  0
 32 33  1  0  0  0
 33 34  2  0  0  0
  4  2  1  0  0  0
  1  2  1  0  0  0
  2 35  1  0  0  0
 36 35  1  0  0  0
 36 37  1  0  0  0
 35 58  1  0  0  0
 58 59  1  0  0  0
 59 60  2  0  0  0
 59 64  1  0  0  0
 60 61  1  0  0  0
 61 62  2  0  0  0
 62 63  1  0  0  0
 63 64  2  0  0  0
 41 40  1  0  0  0
 41 42  1  0  0  0
 40 37  1  0  0  0
 40 55  1  0  0  0
 37 38  2  0  0  0
 55 56  1  0  0  0
 55 57  1  0  0  0
 42 43  2  0  0  0
 42 44  1  0  0  0
 44 45  1  0  0  0
 44 47  1  0  0  0
 47 48  1  0  0  0
 48 49  2  0  0  0
 48 50  1  0  0  0
 49 51  1  0  0  0
 50 52  2  0  0  0
 51 53  2  0  0  0
 52 53  1  0  0  0
 20 24  1  0  0  0
 15 16  1  0  0  0
  8  9  1  0  0  0
  1  3  1  0  0  0
 36 39  1  0  0  0
 41 46  1  0  0  0
 50 54  1  0  0  0
M  CHG 1  20   1
M  CHG 1  50   1
M  END
> <minimizedAffinity>
-10.10658

$$$$
1HVJ_A78_A_800


 64 67  0  0  0  0  0  0  0  0999 V2000
    5.1550   -0.1408   16.8525 O   0  0  0  0  0  0  0  0  0  0  0  0
    4.9262   -0.3642   15.4710 C   0  0  0  0  0  0  0  0  0  0  0  0
    5.3487    0.7981   17.0005 H   0  0  0  0  0  0  0  0  0  0  0  0
    6.1863    0.1047   14.7891 C   0  0  0  0  0  0  0  0  0  0  0  0
    6.0549    0.3317   13.3085 C   0  0  0  0  0  0  0  0  0  0  0  0
    3.8487    0.5470   12.1551 C   0  0  0  0  0  0  0  0  0  0  0  0
    3.9105   -0.5583   11.6510 O   0  0  0  0  0  0  0  0  0  0  0  0
    4.7996    1.0481   12.9726 N   0  0  0  0  0  0  0  0  0  0  0  0
    4.6519    1.9377   13.3675 H   0  0  0  0  0  0  0  0  0  0  0  0
    2.6247    1.4199   11.8369 C   0  0  0  0  0  0  0  0  0  0  0  0
    3.4665    3.4627   10.8278 C   0  0  0  0  0  0  0  0  0  0  0  0
    3.6461    3.9239   11.9447 O   0  0  0  0  0  0  0  0  0  0  0  0
    3.8434    4.1380    9.7242 N   0  0  0  0  0  0  0  0  0  0  0  0
    3.5962    3.6210    8.3750 C   0  0  0  0  0  0  0  0  0  0  0  0
    2.8950    2.2774   10.6595 N   0  0  0  0  0  0  0  0  0  0  0  0
    2.6518    1.9692    9.7567 H   0  0  0  0  0  0  0  0  0  0  0  0
    4.5780    5.4093    9.9135 C   0  0  0  0  0  0  0  0  0  0  0  0
    6.0856    5.2678    9.8724 C   0  0  0  0  0  0  0  0  0  0  0  0
    6.7925    5.2693   11.0754 C   0  0  0  0  0  0  0  0  0  0  0  0
    6.6719    5.1452    8.6727 N   0  0  0  0  0  0  0  0  0  0  0  0
    8.1830    5.1452   11.0172 C   0  0  0  0  0  0  0  0  0  0  0  0
    8.0048    5.0408    8.6231 C   0  0  0  0  0  0  0  0  0  0  0  0
    8.8057    5.0365    9.7684 C   0  0  0  0  0  0  0  0  0  0  0  0
    6.1344    5.1323    7.8480 H   0  0  0  0  0  0  0  0  0  0  0  0
    1.3394    0.5785   11.5933 C   0  0  0  0  0  0  0  0  0  0  0  0
    0.6836    0.0802   12.8879 C   0  0  0  0  0  0  0  0  0  0  0  0
    0.2970    1.3111   10.7204 C   0  0  0  0  0  0  0  0  0  0  0  0
    7.2627    1.1730   12.9385 C   0  0  0  0  0  0  0  0  0  0  0  0
    7.6795    0.9667   11.5207 C   0  0  0  0  0  0  0  0  0  0  0  0
    7.0530    1.6718   10.4887 C   0  0  0  0  0  0  0  0  0  0  0  0
    7.4388    1.4495    9.1606 C   0  0  0  0  0  0  0  0  0  0  0  0
    8.4405    0.5307    8.8739 C   0  0  0  0  0  0  0  0  0  0  0  0
    9.0703   -0.1636    9.9155 C   0  0  0  0  0  0  0  0  0  0  0  0
    8.6931    0.0510   11.2451 C   0  0  0  0  0  0  0  0  0  0  0  0
    4.6205   -1.8566   15.2530 C   0  0  0  0  0  0  0  0  0  0  0  0
    5.6631   -2.6900   15.8541 N   0  0  0  0  0  0  0  0  0  0  0  0
    6.3015   -3.6791   15.2225 C   0  0  0  0  0  0  0  0  0  0  0  0
    6.1576   -3.9169   14.0356 O   0  0  0  0  0  0  0  0  0  0  0  0
    5.9112   -2.5090   16.7895 H   0  0  0  0  0  0  0  0  0  0  0  0
    7.2716   -4.4794   16.1101 C   0  0  0  0  0  0  0  0  0  0  0  0
    6.7613   -5.8093   16.4833 N   0  0  0  0  0  0  0  0  0  0  0  0
    6.6158   -6.2733   17.7166 C   0  0  0  0  0  0  0  0  0  0  0  0
    6.9916   -5.6618   18.7046 O   0  0  0  0  0  0  0  0  0  0  0  0
    6.0074   -7.4793   17.8328 N   0  0  0  0  0  0  0  0  0  0  0  0
    5.5549   -8.2564   16.6736 C   0  0  0  0  0  0  0  0  0  0  0  0
    6.5038   -6.4106   15.7474 H   0  0  0  0  0  0  0  0  0  0  0  0
    5.7196   -8.0433   19.1537 C   0  0  0  0  0  0  0  0  0  0  0  0
    6.5949   -9.2298   19.4664 C   0  0  0  0  0  0  0  0  0  0  0  0
    6.0454  -10.5205   19.4983 C   0  0  0  0  0  0  0  0  0  0  0  0
    7.8889   -8.9680   19.7065 N   0  0  0  0  0  0  0  0  0  0  0  0
    6.8930  -11.5913   19.8004 C   0  0  0  0  0  0  0  0  0  0  0  0
    8.6867  -10.0087   19.9974 C   0  0  0  0  0  0  0  0  0  0  0  0
    8.2446  -11.3366   20.0535 C   0  0  0  0  0  0  0  0  0  0  0  0
    8.2399   -8.0489   19.6708 H   0  0  0  0  0  0  0  0  0  0  0  0
    8.6195   -4.5769   15.3820 C   0  0  0  0  0  0  0  0  0  0  0  0
    9.2556   -3.1844   15.1568 C   0  0  0  0  0  0  0  0  0  0  0  0
    9.5955   -5.4714   16.1658 C   0  0  0  0  0  0  0  0  0  0  0  0
    3.2443   -2.2418   15.8255 C   0  0  0  0  0  0  0  0  0  0  0  0
    2.9037   -3.7119   15.7349 C   0  0  0  0  0  0  0  0  0  0  0  0
    3.1320   -4.5647   16.8274 C   0  0  0  0  0  0  0  0  0  0  0  0
    2.8092   -5.9249   16.7284 C   0  0  0  0  0  0  0  0  0  0  0  0
    2.2604   -6.4460   15.5482 C   0  0  0  0  0  0  0  0  0  0  0  0
    2.0257   -5.6017   14.4611 C   0  0  0  0  0  0  0  0  0  0  0  0
    2.3478   -4.2347   14.5529 C   0  0  0  0  0  0  0  0  0  0  0  0
 11 12  2  0  0  0
 11 13  1  0  0  0
 11 15  1  0  0  0
 13 14  1  0  0  0
 13 17  1  0  0  0
 17 18  1  0  0  0
 18 19  2  0  0  0
 18 20  1  0  0  0
 19 21  1  0  0  0
 20 22  2  0  0  0
 21 23  2  0  0  0
 22 23  1  0  0  0
 15 10  1  0  0  0
 10  6  1  0  0  0
 10 25  1  0  0  0
  6  7  2  0  0  0
  6  8  1  0  0  0
 25 26  1  0  0  0
 25 27  1  0  0  0
  8  5  1  0  0  0
  5 28  1  0  0  0
  5  4  1  0  0  0
 28 29  1  0  0  0
 29 30  2  0  0  0
 29 34  1  0  0  0
 30 31  1  0  0  0
 31 32  2  0  0  0
 32 33  1  0  0  0
 33 34  2  0  0  0
  4  2  1  0  0  0
  1  2  1  0  0  0
  2 35  1  0  0  0
 36 35  1  0  0  0
 36 37  1  0  0  0
 35 58  1  0  0  0
 58 59  1  0  0  0
 59 60  2  0  0  0
 59 64  1  0  0  0
 60 61  1  0  0  0
 61 62  2  0  0  0
 62 63  1  0  0  0
 63 64  2  0  0  0
 41 40  1  0  0  0
 41 42  1  0  0  0
 40 37  1  0  0  0
 40 55  1  0  0  0
 37 38  2  0  0  0
 55 56  1  0  0  0
 55 57  1  0  0  0
 42 43  2  0  0  0
 42 44  1  0  0  0
 44 45  1  0  0  0
 44 47  1  0  0  0
 47 48  1  0  0  0
 48 49  2  0  0  0
 48 50  1  0  0  0
 49 51  1  0  0  0
 50 52  2  0  0  0
 51 53  2  0  0  0
 52 53  1  0  0  0
 20 24  1  0  0  0
 15 16  1  0  0  0
  8  9  1  0  0  0
  1  3  1  0  0  0
 36 39  1  0  0  0
 41 46  1  0  0  0
 50 54  1  0  0  0
M  CHG 1  20   1
M  CHG 1  50   1
M  END
> <minimizedAffinity>
-9.97299

$$$$
1HVJ_A78_A_800


 64 67  0  0  0  0  0  0  0  0999 V2000
    5.7570    1.1033   15.6113 O   0  0  0  0  0  0  0  0  0  0  0  0
    6.1942   -0.0596   14.9277 C   0  0  0  0  0  0  0  0  0  0  0  0
    5.7605    0.9370   16.5670 H   0  0  0  0  0  0  0  0  0  0  0  0
    5.2355   -1.1424   15.3534 C   0  0  0  0  0  0  0  0  0  0  0  0
    5.8853   -2.4366   15.7581 C   0  0  0  0  0  0  0  0  0  0  0  0
    4.3372   -4.0705   14.6729 C   0  0  0  0  0  0  0  0  0  0  0  0
    4.5970   -3.6947   13.5455 O   0  0  0  0  0  0  0  0  0  0  0  0
    4.9113   -3.5558   15.7816 N   0  0  0  0  0  0  0  0  0  0  0  0
    4.6704   -3.9445   16.6534 H   0  0  0  0  0  0  0  0  0  0  0  0
    3.2939   -5.1861   14.8412 C   0  0  0  0  0  0  0  0  0  0  0  0
    3.8086   -6.8302   16.5535 C   0  0  0  0  0  0  0  0  0  0  0  0
    4.2037   -7.5917   15.6837 O   0  0  0  0  0  0  0  0  0  0  0  0
    3.9094   -7.1483   17.8590 N   0  0  0  0  0  0  0  0  0  0  0  0
    3.4008   -6.2675   18.9146 C   0  0  0  0  0  0  0  0  0  0  0  0
    3.2668   -5.6593   16.2448 N   0  0  0  0  0  0  0  0  0  0  0  0
    2.8489   -5.1076   16.9449 H   0  0  0  0  0  0  0  0  0  0  0  0
    4.6110   -8.4043   18.2085 C   0  0  0  0  0  0  0  0  0  0  0  0
    6.1205   -8.3195   18.1144 C   0  0  0  0  0  0  0  0  0  0  0  0
    6.8092   -7.5539   19.0559 C   0  0  0  0  0  0  0  0  0  0  0  0
    6.7263   -8.9912   17.1245 N   0  0  0  0  0  0  0  0  0  0  0  0
    8.2005   -7.4815   18.9487 C   0  0  0  0  0  0  0  0  0  0  0  0
    8.0573   -8.9065   17.0191 C   0  0  0  0  0  0  0  0  0  0  0  0
    8.8400   -8.1633   17.9069 C   0  0  0  0  0  0  0  0  0  0  0  0
    6.2040   -9.5338   16.4904 H   0  0  0  0  0  0  0  0  0  0  0  0
    1.8685   -4.7398   14.4070 C   0  0  0  0  0  0  0  0  0  0  0  0
    0.7510   -5.6030   15.0075 C   0  0  0  0  0  0  0  0  0  0  0  0
    1.5932   -3.2466   14.6896 C   0  0  0  0  0  0  0  0  0  0  0  0
    6.9498   -2.6799   14.7041 C   0  0  0  0  0  0  0  0  0  0  0  0
    8.1325   -3.4039   15.2550 C   0  0  0  0  0  0  0  0  0  0  0  0
    9.1611   -2.7007   15.8890 C   0  0  0  0  0  0  0  0  0  0  0  0
   10.2763   -3.3919   16.3797 C   0  0  0  0  0  0  0  0  0  0  0  0
   10.3566   -4.7711   16.2345 C   0  0  0  0  0  0  0  0  0  0  0  0
    9.3159   -5.4690   15.6072 C   0  0  0  0  0  0  0  0  0  0  0  0
    8.1977   -4.7888   15.1140 C   0  0  0  0  0  0  0  0  0  0  0  0
    6.1831    0.2200   13.4144 C   0  0  0  0  0  0  0  0  0  0  0  0
    4.9435    0.8932   13.0232 N   0  0  0  0  0  0  0  0  0  0  0  0
    3.9798    0.3377   12.2833 C   0  0  0  0  0  0  0  0  0  0  0  0
    3.9850   -0.8347   11.9497 O   0  0  0  0  0  0  0  0  0  0  0  0
    4.8107    1.8203   13.3265 H   0  0  0  0  0  0  0  0  0  0  0  0
    2.8312    1.2933   11.9129 C   0  0  0  0  0  0  0  0  0  0  0  0
    3.1575    2.1943   10.7949 N   0  0  0  0  0  0  0  0  0  0  0  0
    3.5697    3.4502   10.8973 C   0  0  0  0  0  0  0  0  0  0  0  0
    3.6334    4.0431   11.9629 O   0  0  0  0  0  0  0  0  0  0  0  0
    3.9352    4.0548    9.7402 N   0  0  0  0  0  0  0  0  0  0  0  0
    3.8595    3.3872    8.4360 C   0  0  0  0  0  0  0  0  0  0  0  0
    3.0603    1.8298    9.8855 H   0  0  0  0  0  0  0  0  0  0  0  0
    4.4868    5.4117    9.7517 C   0  0  0  0  0  0  0  0  0  0  0  0
    5.9494    5.4261   10.1154 C   0  0  0  0  0  0  0  0  0  0  0  0
    6.9252    5.4243    9.1071 C   0  0  0  0  0  0  0  0  0  0  0  0
    6.2366    5.4364   11.4262 N   0  0  0  0  0  0  0  0  0  0  0  0
    8.2703    5.4300    9.4905 C   0  0  0  0  0  0  0  0  0  0  0  0
    7.5338    5.4391   11.7749 C   0  0  0  0  0  0  0  0  0  0  0  0
    8.5878    5.4406   10.8525 C   0  0  0  0  0  0  0  0  0  0  0  0
    5.5244    5.4417   12.1058 H   0  0  0  0  0  0  0  0  0  0  0  0
    1.5836    0.4509   11.6122 C   0  0  0  0  0  0  0  0  0  0  0  0
    0.8323    0.0511   12.9045 C   0  0  0  0  0  0  0  0  0  0  0  0
    0.6305    1.2100   10.6729 C   0  0  0  0  0  0  0  0  0  0  0  0
    7.3975    1.0637   12.9860 C   0  0  0  0  0  0  0  0  0  0  0  0
    7.7681    0.9535   11.5246 C   0  0  0  0  0  0  0  0  0  0  0  0
    8.6612   -0.0393   11.0891 C   0  0  0  0  0  0  0  0  0  0  0  0
    8.9934   -0.1297    9.7306 C   0  0  0  0  0  0  0  0  0  0  0  0
    8.4440    0.7621    8.7987 C   0  0  0  0  0  0  0  0  0  0  0  0
    7.5509    1.7473    9.2251 C   0  0  0  0  0  0  0  0  0  0  0  0
    7.2130    1.8445   10.5879 C   0  0  0  0  0  0  0  0  0  0  0  0
 11 12  2  0  0  0
 11 13  1  0  0  0
 11 15  1  0  0  0
 13 14  1  0  0  0
 13 17  1  0  0  0
 17 18  1  0  0  0
 18 19  2  0  0  0
 18 20  1  0  0  0
 19 21  1  0  0  0
 20 22  2  0  0  0
 21 23  2  0  0  0
 22 23  1  0  0  0
 15 10  1  0  0  0
 10  6  1  0  0  0
 10 25  1  0  0  0
  6  7  2  0  0  0
  6  8  1  0  0  0
 25 26  1  0  0  0
 25 27  1  0  0  0
  8  5  1  0  0  0
  5 28  1  0  0  0
  5  4  1  0  0  0
 28 29  1  0  0  0
 29 30  2  0  0  0
 29 34  1  0  0  0
 30 31  1  0  0  0
 31 32  2  0  0  0
 32 33  1  0  0  0
 33 34  2  0  0  0
  4  2  1  0  0  0
  1  2  1  0  0  0
  2 35  1  0  0  0
 36 35  1  0  0  0
 36 37  1  0  0  0
 35 58  1  0  0  0
 58 59  1  0  0  0
 59 60  2  0  0  0
 59 64  1  0  0  0
 60 61  1  0  0  0
 61 62  2  0  0  0
 62 63  1  0  0  0
 63 64  2  0  0  0
 41 40  1  0  0  0
 41 42  1  0  0  0
 40 37  1  0  0  0
 40 55  1  0  0  0
 37 38  2  0  0  0
 55 56  1  0  0  0
 55 57  1  0  0  0
 42 43  2  0  0  0
 42 44  1  0  0  0
 44 45  1  0  0  0
 44 47  1  0  0  0
 47 48  1  0  0  0
 48 49  2  0  0  0
 48 50  1  0  0  0
 49 51  1  0  0  0
 50 52  2  0  0  0
 51 53  2  0  0  0
 52 53  1  0  0  0
 20 24  1  0  0  0
 15 16  1  0  0  0
  8  9  1  0  0  0
  1  3  1  0  0  0
 36 39  1  0  0  0
 41 46  1  0  0  0
 50 54  1  0  0  0
M  CHG 1  20   1
M  CHG 1  50   1
M  END
> <minimizedAffinity>
-9.64706

$$$$
1HVJ_A78_A_800


 64 67  0  0  0  0  0  0  0  0999 V2000
    3.4796   -3.8399   13.7793 O   0  0  0  0  0  0  0  0  0  0  0  0
    3.3992   -2.4720   14.1443 C   0  0  0  0  0  0  0  0  0  0  0  0
    2.8534   -4.3542   14.3124 H   0  0  0  0  0  0  0  0  0  0  0  0
    3.7037   -2.4467   15.6206 C   0  0  0  0  0  0  0  0  0  0  0  0
    4.0968   -3.7747   16.2062 C   0  0  0  0  0  0  0  0  0  0  0  0
    6.5597   -4.1530   16.0197 C   0  0  0  0  0  0  0  0  0  0  0  0
    6.4989   -4.5272   14.8638 O   0  0  0  0  0  0  0  0  0  0  0  0
    5.4842   -3.7534   16.7319 N   0  0  0  0  0  0  0  0  0  0  0  0
    5.6286   -3.4301   17.6505 H   0  0  0  0  0  0  0  0  0  0  0  0
    7.9350   -4.1424   16.7052 C   0  0  0  0  0  0  0  0  0  0  0  0
    7.7560   -6.2596   17.8821 C   0  0  0  0  0  0  0  0  0  0  0  0
    6.8987   -5.7708   18.6023 O   0  0  0  0  0  0  0  0  0  0  0  0
    8.0916   -7.5610   17.9798 N   0  0  0  0  0  0  0  0  0  0  0  0
    9.1484   -8.1546   17.1554 C   0  0  0  0  0  0  0  0  0  0  0  0
    8.3877   -5.5270   16.9744 N   0  0  0  0  0  0  0  0  0  0  0  0
    9.1535   -5.9016   16.4820 H   0  0  0  0  0  0  0  0  0  0  0  0
    7.3130   -8.4035   18.9157 C   0  0  0  0  0  0  0  0  0  0  0  0
    6.3649   -9.3713   18.2383 C   0  0  0  0  0  0  0  0  0  0  0  0
    5.7432  -10.3528   19.0111 C   0  0  0  0  0  0  0  0  0  0  0  0
    6.1661   -9.2356   16.9192 N   0  0  0  0  0  0  0  0  0  0  0  0
    4.8777  -11.2412   18.3676 C   0  0  0  0  0  0  0  0  0  0  0  0
    5.3471  -10.0981   16.3066 C   0  0  0  0  0  0  0  0  0  0  0  0
    4.6792  -11.1197   16.9874 C   0  0  0  0  0  0  0  0  0  0  0  0
    6.6123   -8.5183   16.4135 H   0  0  0  0  0  0  0  0  0  0  0  0
    9.0104   -3.3877   15.8726 C   0  0  0  0  0  0  0  0  0  0  0  0
    8.6934   -1.8995   15.6748 C   0  0  0  0  0  0  0  0  0  0  0  0
   10.4370   -3.5537   16.4405 C   0  0  0  0  0  0  0  0  0  0  0  0
    3.1053   -4.0089   17.3311 C   0  0  0  0  0  0  0  0  0  0  0  0
    3.0091   -5.4500   17.7059 C   0  0  0  0  0  0  0  0  0  0  0  0
    2.8380   -6.4278   16.7213 C   0  0  0  0  0  0  0  0  0  0  0  0
    2.7252   -7.7742   17.0908 C   0  0  0  0  0  0  0  0  0  0  0  0
    2.7832   -8.1328   18.4317 C   0  0  0  0  0  0  0  0  0  0  0  0
    2.9656   -7.1471   19.4108 C   0  0  0  0  0  0  0  0  0  0  0  0
    3.0799   -5.7998   19.0529 C   0  0  0  0  0  0  0  0  0  0  0  0
    4.3976   -1.6704   13.2905 C   0  0  0  0  0  0  0  0  0  0  0  0
    3.7095   -0.6118   12.5497 N   0  0  0  0  0  0  0  0  0  0  0  0
    3.1070    0.4392   13.1127 C   0  0  0  0  0  0  0  0  0  0  0  0
    3.1660    0.6838   14.3054 O   0  0  0  0  0  0  0  0  0  0  0  0
    3.6894   -0.6791   11.5677 H   0  0  0  0  0  0  0  0  0  0  0  0
    2.3563    1.3481   12.1227 C   0  0  0  0  0  0  0  0  0  0  0  0
    3.2345    1.9682   11.1165 N   0  0  0  0  0  0  0  0  0  0  0  0
    3.4379    3.2677   10.9507 C   0  0  0  0  0  0  0  0  0  0  0  0
    2.8247    4.1205   11.5735 O   0  0  0  0  0  0  0  0  0  0  0  0
    4.3866    3.6127   10.0457 N   0  0  0  0  0  0  0  0  0  0  0  0
    5.1359    2.6234    9.2631 C   0  0  0  0  0  0  0  0  0  0  0  0
    3.7159    1.3606   10.5098 H   0  0  0  0  0  0  0  0  0  0  0  0
    4.7507    5.0177    9.8482 C   0  0  0  0  0  0  0  0  0  0  0  0
    6.1125    5.3349   10.4106 C   0  0  0  0  0  0  0  0  0  0  0  0
    6.3336    5.2741   11.7950 C   0  0  0  0  0  0  0  0  0  0  0  0
    7.0602    5.6706    9.5218 N   0  0  0  0  0  0  0  0  0  0  0  0
    7.6109    5.5840   12.2735 C   0  0  0  0  0  0  0  0  0  0  0  0
    8.2796    5.9673   10.0004 C   0  0  0  0  0  0  0  0  0  0  0  0
    8.6106    5.9361   11.3611 C   0  0  0  0  0  0  0  0  0  0  0  0
    6.8691    5.6984    8.5564 H   0  0  0  0  0  0  0  0  0  0  0  0
    1.2403    0.5239   11.4655 C   0  0  0  0  0  0  0  0  0  0  0  0
    0.2722   -0.0753   12.5134 C   0  0  0  0  0  0  0  0  0  0  0  0
    0.4508    1.3830   10.4628 C   0  0  0  0  0  0  0  0  0  0  0  0
    5.5204   -1.0647   14.1522 C   0  0  0  0  0  0  0  0  0  0  0  0
    6.5666   -0.2891   13.3847 C   0  0  0  0  0  0  0  0  0  0  0  0
    6.8972    1.0238   13.7588 C   0  0  0  0  0  0  0  0  0  0  0  0
    7.8706    1.7290   13.0384 C   0  0  0  0  0  0  0  0  0  0  0  0
    8.5196    1.1382   11.9450 C   0  0  0  0  0  0  0  0  0  0  0  0
    8.1994   -0.1689   11.5724 C   0  0  0  0  0  0  0  0  0  0  0  0
    7.2224   -0.8832   12.2908 C   0  0  0  0  0  0  0  0  0  0  0  0
 11 12  2  0  0  0
 11 13  1  0  0  0
 11 15  1  0  0  0
 13 14  1  0  0  0
 13 17  1  0  0  0
 17 18  1  0  0  0
 18 19  2  0  0  0
 18 20  1  0  0  0
 19 21  1  0  0  0
 20 22  2  0  0  0
 21 23  2  0  0  0
 22 23  1  0  0  0
 15 10  1  0  0  0
 10  6  1  0  0  0
 10 25  1  0  0  0
  6  7  2  0  0  0
  6  8  1  0  0  0
 25 26  1  0  0  0
 25 27  1  0  0  0
  8  5  1  0  0  0
  5 28  1  0  0  0
  5  4  1  0  0  0
 28 29  1  0  0  0
 29 30  2  0  0  0
 29 34  1  0  0  0
 30 31  1  0  0  0
 31 32  2  0  0  0
 32 33  1  0  0  0
 33 34  2  0  0  0
  4  2  1  0  0  0
  1  2  1  0  0  0
  2 35  1  0  0  0
 36 35  1  0  0  0
 36 37  1  0  0  0
 35 58  1  0  0  0
 58 59  1  0  0  0
 59 60  2  0  0  0
 59 64  1  0  0  0
 60 61  1  0  0  0
 61 62  2  0  0  0
 62 63  1  0  0  0
 63 64  2  0  0  0
 41 40  1  0  0  0
 41 42  1  0  0  0
 40 37  1  0  0  0
 40 55  1  0  0  0
 37 38  2  0  0  0
 55 56  1  0  0  0
 55 57  1  0  0  0
 42 43  2  0  0  0
 42 44  1  0  0  0
 44 45  1  0  0  0
 44 47  1  0  0  0
 47 48  1  0  0  0
 48 49  2  0  0  0
 48 50  1  0  0  0
 49 51  1  0  0  0
 50 52  2  0  0  0
 51 53  2  0  0  0
 52 53  1  0  0  0
 20 24  1  0  0  0
 15 16  1  0  0  0
  8  9  1  0  0  0
  1  3  1  0  0  0
 36 39  1  0  0  0
 41 46  1  0  0  0
 50 54  1  0  0  0
M  CHG 1  20   1
M  CHG 1  50   1
M  END
> <minimizedAffinity>
-9.62758

$$$$
1HVJ_A78_A_800


 64 67  0  0  0  0  0  0  0  0999 V2000
    6.2365   -2.2565   12.5215 O   0  0  0  0  0  0  0  0  0  0  0  0
    6.4098   -1.1473   13.3878 C   0  0  0  0  0  0  0  0  0  0  0  0
    6.4222   -3.0765   13.0052 H   0  0  0  0  0  0  0  0  0  0  0  0
    7.8344   -1.2516   13.8702 C   0  0  0  0  0  0  0  0  0  0  0  0
    8.0431   -2.1982   15.0196 C   0  0  0  0  0  0  0  0  0  0  0  0
    6.0231   -3.1454   16.1451 C   0  0  0  0  0  0  0  0  0  0  0  0
    6.0128   -2.3013   17.0211 O   0  0  0  0  0  0  0  0  0  0  0  0
    6.9264   -3.1678   15.1415 N   0  0  0  0  0  0  0  0  0  0  0  0
    6.8392   -3.8658   14.4528 H   0  0  0  0  0  0  0  0  0  0  0  0
    4.9536   -4.2479   16.1902 C   0  0  0  0  0  0  0  0  0  0  0  0
    5.0234   -6.3613   17.3854 C   0  0  0  0  0  0  0  0  0  0  0  0
    4.7300   -6.9402   16.3504 O   0  0  0  0  0  0  0  0  0  0  0  0
    5.3043   -7.0444   18.5125 N   0  0  0  0  0  0  0  0  0  0  0  0
    5.6149   -6.3666   19.7746 C   0  0  0  0  0  0  0  0  0  0  0  0
    5.0787   -5.0369   17.4378 N   0  0  0  0  0  0  0  0  0  0  0  0
    5.2022   -4.5807   18.3014 H   0  0  0  0  0  0  0  0  0  0  0  0
    5.3490   -8.5218   18.4280 C   0  0  0  0  0  0  0  0  0  0  0  0
    6.7476   -9.1031   18.4479 C   0  0  0  0  0  0  0  0  0  0  0  0
    7.4126   -9.2926   17.2359 C   0  0  0  0  0  0  0  0  0  0  0  0
    7.2836   -9.4080   19.6387 N   0  0  0  0  0  0  0  0  0  0  0  0
    8.6989   -9.8368   17.2736 C   0  0  0  0  0  0  0  0  0  0  0  0
    8.5101   -9.9417   19.6669 C   0  0  0  0  0  0  0  0  0  0  0  0
    9.2590  -10.1765   18.5106 C   0  0  0  0  0  0  0  0  0  0  0  0
    6.7865   -9.2430   20.4722 H   0  0  0  0  0  0  0  0  0  0  0  0
    3.5097   -3.6833   16.0651 C   0  0  0  0  0  0  0  0  0  0  0  0
    2.6677   -4.3961   14.9987 C   0  0  0  0  0  0  0  0  0  0  0  0
    2.7524   -3.6639   17.4110 C   0  0  0  0  0  0  0  0  0  0  0  0
    9.3394   -2.9181   14.6960 C   0  0  0  0  0  0  0  0  0  0  0  0
    9.5889   -4.0681   15.6133 C   0  0  0  0  0  0  0  0  0  0  0  0
   10.1497   -3.8576   16.8767 C   0  0  0  0  0  0  0  0  0  0  0  0
   10.4002   -4.9500   17.7170 C   0  0  0  0  0  0  0  0  0  0  0  0
   10.0916   -6.2364   17.2930 C   0  0  0  0  0  0  0  0  0  0  0  0
    9.5199   -6.4369   16.0294 C   0  0  0  0  0  0  0  0  0  0  0  0
    9.2652   -5.3533   15.1826 C   0  0  0  0  0  0  0  0  0  0  0  0
    6.1118    0.1447   12.6064 C   0  0  0  0  0  0  0  0  0  0  0  0
    4.7469    0.6036   12.8695 N   0  0  0  0  0  0  0  0  0  0  0  0
    3.6489    0.0660   12.3308 C   0  0  0  0  0  0  0  0  0  0  0  0
    3.6653   -0.9422   11.6459 O   0  0  0  0  0  0  0  0  0  0  0  0
    4.6298    1.3615   13.4868 H   0  0  0  0  0  0  0  0  0  0  0  0
    2.3433    0.8044   12.6768 C   0  0  0  0  0  0  0  0  0  0  0  0
    1.8225    1.6224   11.5687 N   0  0  0  0  0  0  0  0  0  0  0  0
    2.2658    2.8171   11.2032 C   0  0  0  0  0  0  0  0  0  0  0  0
    3.1190    3.4282   11.8276 O   0  0  0  0  0  0  0  0  0  0  0  0
    1.7238    3.3351   10.0736 N   0  0  0  0  0  0  0  0  0  0  0  0
    0.6850    2.6445    9.3013 C   0  0  0  0  0  0  0  0  0  0  0  0
    1.0746    1.2466   11.0504 H   0  0  0  0  0  0  0  0  0  0  0  0
    2.2043    4.6095    9.5343 C   0  0  0  0  0  0  0  0  0  0  0  0
    3.4123    4.4316    8.6508 C   0  0  0  0  0  0  0  0  0  0  0  0
    4.4448    5.3816    8.6710 C   0  0  0  0  0  0  0  0  0  0  0  0
    3.4236    3.3398    7.8706 N   0  0  0  0  0  0  0  0  0  0  0  0
    5.5433    5.1804    7.8289 C   0  0  0  0  0  0  0  0  0  0  0  0
    4.4856    3.1651    7.0670 C   0  0  0  0  0  0  0  0  0  0  0  0
    5.5715    4.0478    7.0089 C   0  0  0  0  0  0  0  0  0  0  0  0
    2.6823    2.6921    7.8866 H   0  0  0  0  0  0  0  0  0  0  0  0
    1.3134   -0.2341   13.1432 C   0  0  0  0  0  0  0  0  0  0  0  0
    1.6938   -0.8500   14.5107 C   0  0  0  0  0  0  0  0  0  0  0  0
   -0.0884    0.3939   13.2301 C   0  0  0  0  0  0  0  0  0  0  0  0
    7.1167    1.2589   12.9511 C   0  0  0  0  0  0  0  0  0  0  0  0
    7.4989    2.1542   11.7945 C   0  0  0  0  0  0  0  0  0  0  0  0
    7.5631    3.5472   11.9629 C   0  0  0  0  0  0  0  0  0  0  0  0
    7.9208    4.3636   10.8814 C   0  0  0  0  0  0  0  0  0  0  0  0
    8.2153    3.8049    9.6297 C   0  0  0  0  0  0  0  0  0  0  0  0
    8.1590    2.4202    9.4582 C   0  0  0  0  0  0  0  0  0  0  0  0
    7.8000    1.5940   10.5395 C   0  0  0  0  0  0  0  0  0  0  0  0
 11 12  2  0  0  0
 11 13  1  0  0  0
 11 15  1  0  0  0
 13 14  1  0  0  0
 13 17  1  0  0  0
 17 18  1  0  0  0
 18 19  2  0  0  0
 18 20  1  0  0  0
 19 21  1  0  0  0
 20 22  2  0  0  0
 21 23  2  0  0  0
 22 23  1  0  0  0
 15 10  1  0  0  0
 10  6  1  0  0  0
 10 25  1  0  0  0
  6  7  2  0  0  0
  6  8  1  0  0  0
 25 26  1  0  0  0
 25 27  1  0  0  0
  8  5  1  0  0  0
  5 28  1  0  0  0
  5  4  1  0  0  0
 28 29  1  0  0  0
 29 30  2  0  0  0
 29 34  1  0  0  0
 30 31  1  0  0  0
 31 32  2  0  0  0
 32 33  1  0  0  0
 33 34  2  0  0  0
  4  2  1  0  0  0
  1  2  1  0  0  0
  2 35  1  0  0  0
 36 35  1  0  0  0
 36 37  1  0  0  0
 35 58  1  0  0  0
 58 59  1  0  0  0
 59 60  2  0  0  0
 59 64  1  0  0  0
 60 61  1  0  0  0
 61 62  2  0  0  0
 62 63  1  0  0  0
 63 64  2  0  0  0
 41 40  1  0  0  0
 41 42  1  0  0  0
 40 37  1  0  0  0
 40 55  1  0  0  0
 37 38  2  0  0  0
 55 56  1  0  0  0
 55 57  1  0  0  0
 42 43  2  0  0  0
 42 44  1  0  0  0
 44 45  1  0  0  0
 44 47  1  0  0  0
 47 48  1  0  0  0
 48 49  2  0  0  0
 48 50  1  0  0  0
 49 51  1  0  0  0
 50 52  2  0  0  0
 51 53  2  0  0  0
 52 53  1  0  0  0
 20 24  1  0  0  0
 15 16  1  0  0  0
  8  9  1  0  0  0
  1  3  1  0  0  0
 36 39  1  0  0  0
 41 46  1  0  0  0
 50 54  1  0  0  0
M  CHG 1  20   1
M  CHG 1  50   1
M  END
> <minimizedAffinity>
-9.50472

$$$$
1HVJ_A78_A_800


 64 67  0  0  0  0  0  0  0  0999 V2000
    3.3065   -3.1863   13.8433 O   0  0  0  0  0  0  0  0  0  0  0  0
    2.4509   -2.4833   14.7290 C   0  0  0  0  0  0  0  0  0  0  0  0
    3.4899   -4.0683   14.2029 H   0  0  0  0  0  0  0  0  0  0  0  0
    3.1913   -2.4554   16.0420 C   0  0  0  0  0  0  0  0  0  0  0  0
    3.7562   -3.7798   16.4754 C   0  0  0  0  0  0  0  0  0  0  0  0
    6.1999   -4.0879   16.0539 C   0  0  0  0  0  0  0  0  0  0  0  0
    6.0342   -4.5536   14.9424 O   0  0  0  0  0  0  0  0  0  0  0  0
    5.1889   -3.6702   16.8458 N   0  0  0  0  0  0  0  0  0  0  0  0
    5.4149   -3.2711   17.7170 H   0  0  0  0  0  0  0  0  0  0  0  0
    7.6376   -3.9768   16.5849 C   0  0  0  0  0  0  0  0  0  0  0  0
    7.6908   -6.0217   17.8946 C   0  0  0  0  0  0  0  0  0  0  0  0
    6.8950   -5.5247   18.6770 O   0  0  0  0  0  0  0  0  0  0  0  0
    8.0975   -7.2994   18.0290 N   0  0  0  0  0  0  0  0  0  0  0  0
    9.0850   -7.8992   17.1268 C   0  0  0  0  0  0  0  0  0  0  0  0
    8.1833   -5.3219   16.8809 N   0  0  0  0  0  0  0  0  0  0  0  0
    8.9078   -5.6945   16.3282 H   0  0  0  0  0  0  0  0  0  0  0  0
    7.4675   -8.1131   19.0933 C   0  0  0  0  0  0  0  0  0  0  0  0
    6.6675   -9.2932   18.5816 C   0  0  0  0  0  0  0  0  0  0  0  0
    6.2824   -9.3117   17.2406 C   0  0  0  0  0  0  0  0  0  0  0  0
    6.3677  -10.2714   19.4486 N   0  0  0  0  0  0  0  0  0  0  0  0
    5.5386  -10.4048   16.7887 C   0  0  0  0  0  0  0  0  0  0  0  0
    5.6435  -11.3084   19.0128 C   0  0  0  0  0  0  0  0  0  0  0  0
    5.2040  -11.4212   17.6909 C   0  0  0  0  0  0  0  0  0  0  0  0
    6.6733  -10.2274   20.3834 H   0  0  0  0  0  0  0  0  0  0  0  0
    8.5810   -3.2295   15.5995 C   0  0  0  0  0  0  0  0  0  0  0  0
    8.1879   -1.7635   15.3741 C   0  0  0  0  0  0  0  0  0  0  0  0
   10.0687   -3.3221   16.0038 C   0  0  0  0  0  0  0  0  0  0  0  0
    2.9242   -4.1782   17.6806 C   0  0  0  0  0  0  0  0  0  0  0  0
    2.9451   -5.6513   17.9170 C   0  0  0  0  0  0  0  0  0  0  0  0
    2.8146   -6.5421   16.8473 C   0  0  0  0  0  0  0  0  0  0  0  0
    2.8118   -7.9220   17.0879 C   0  0  0  0  0  0  0  0  0  0  0  0
    2.9381   -8.4000   18.3861 C   0  0  0  0  0  0  0  0  0  0  0  0
    3.0791   -7.5000   19.4510 C   0  0  0  0  0  0  0  0  0  0  0  0
    3.0836   -6.1202   19.2219 C   0  0  0  0  0  0  0  0  0  0  0  0
    2.1697   -1.0875   14.1449 C   0  0  0  0  0  0  0  0  0  0  0  0
    3.2695   -0.6594   13.2788 N   0  0  0  0  0  0  0  0  0  0  0  0
    4.2187    0.2114   13.6328 C   0  0  0  0  0  0  0  0  0  0  0  0
    4.3297    0.6569   14.7620 O   0  0  0  0  0  0  0  0  0  0  0  0
    3.3126   -1.0399   12.3719 H   0  0  0  0  0  0  0  0  0  0  0  0
    5.1949    0.5833   12.5022 C   0  0  0  0  0  0  0  0  0  0  0  0
    5.0699    1.9815   12.0578 N   0  0  0  0  0  0  0  0  0  0  0  0
    5.2413    2.4273   10.8210 C   0  0  0  0  0  0  0  0  0  0  0  0
    5.6274    1.7161    9.9065 O   0  0  0  0  0  0  0  0  0  0  0  0
    4.9513    3.7351   10.6124 N   0  0  0  0  0  0  0  0  0  0  0  0
    4.5009    4.6304   11.6839 C   0  0  0  0  0  0  0  0  0  0  0  0
    4.8371    2.6482   12.7437 H   0  0  0  0  0  0  0  0  0  0  0  0
    5.0235    4.3077    9.2660 C   0  0  0  0  0  0  0  0  0  0  0  0
    3.6614    4.4497    8.6367 C   0  0  0  0  0  0  0  0  0  0  0  0
    3.0545    3.3470    8.0163 C   0  0  0  0  0  0  0  0  0  0  0  0
    3.0963    5.6647    8.7085 N   0  0  0  0  0  0  0  0  0  0  0  0
    1.7934    3.5264    7.4385 C   0  0  0  0  0  0  0  0  0  0  0  0
    1.8863    5.8181    8.1457 C   0  0  0  0  0  0  0  0  0  0  0  0
    1.1898    4.7862    7.5040 C   0  0  0  0  0  0  0  0  0  0  0  0
    3.5508    6.4145    9.1562 H   0  0  0  0  0  0  0  0  0  0  0  0
    6.6207    0.2676   12.9754 C   0  0  0  0  0  0  0  0  0  0  0  0
    7.4366   -0.4770   11.8917 C   0  0  0  0  0  0  0  0  0  0  0  0
    7.3549    1.5571   13.3815 C   0  0  0  0  0  0  0  0  0  0  0  0
    0.8432   -1.0577   13.3640 C   0  0  0  0  0  0  0  0  0  0  0  0
    0.6650    0.1357   12.4533 C   0  0  0  0  0  0  0  0  0  0  0  0
    0.3436    1.3956   12.9847 C   0  0  0  0  0  0  0  0  0  0  0  0
    0.1835    2.4927   12.1274 C   0  0  0  0  0  0  0  0  0  0  0  0
    0.3399    2.3469   10.7419 C   0  0  0  0  0  0  0  0  0  0  0  0
    0.6655    1.0981   10.2086 C   0  0  0  0  0  0  0  0  0  0  0  0
    0.8273   -0.0084   11.0632 C   0  0  0  0  0  0  0  0  0  0  0  0
 11 12  2  0  0  0
 11 13  1  0  0  0
 11 15  1  0  0  0
 13 14  1  0  0  0
 13 17  1  0  0  0
 17 18  1  0  0  0
 18 19  2  0  0  0
 18 20  1  0  0  0
 19 21  1  0  0  0
 20 22  2  0  0  0
 21 23  2  0  0  0
 22 23  1  0  0  0
 15 10  1  0  0  0
 10  6  1  0  0  0
 10 25  1  0  0  0
  6  7  2  0  0  0
  6  8  1  0  0  0
 25 26  1  0  0  0
 25 27  1  0  0  0
  8  5  1  0  0  0
  5 28  1  0  0  0
  5  4  1  0  0  0
 28 29  1  0  0  0
 29 30  2  0  0  0
 29 34  1  0  0  0
 30 31  1  0  0  0
 31 32  2  0  0  0
 32 33  1  0  0  0
 33 34  2  0  0  0
  4  2  1  0  0  0
  1  2  1  0  0  0
  2 35  1  0  0  0
 36 35  1  0  0  0
 36 37  1  0  0  0
 35 58  1  0  0  0
 58 59  1  0  0  0
 59 60  2  0  0  0
 59 64  1  0  0  0
 60 61  1  0  0  0
 61 62  2  0  0  0
 62 63  1  0  0  0
 63 64  2  0  0  0
 41 40  1  0  0  0
 41 42  1  0  0  0
 40 37  1  0  0  0
 40 55  1  0  0  0
 37 38  2  0  0  0
 55 56  1  0  0  0
 55 57  1  0  0  0
 42 43  2  0  0  0
 42 44  1  0  0  0
 44 45  1  0  0  0
 44 47  1  0  0  0
 47 48  1  0  0  0
 48 49  2  0  0  0
 48 50  1  0  0  0
 49 51  1  0  0  0
 50 52  2  0  0  0
 51 53  2  0  0  0
 52 53  1  0  0  0
 20 24  1  0  0  0
 15 16  1  0  0  0
  8  9  1  0  0  0
  1  3  1  0  0  0
 36 39  1  0  0  0
 41 46  1  0  0  0
 50 54  1  0  0  0
M  CHG 1  20   1
M  CHG 1  50   1
M  END
> <minimizedAffinity>
-9.06672

$$$$
1HVJ_A78_A_800


 64 67  0  0  0  0  0  0  0  0999 V2000
    7.7338   -0.9323   15.3878 O   0  0  0  0  0  0  0  0  0  0  0  0
    6.3437   -0.9241   15.1078 C   0  0  0  0  0  0  0  0  0  0  0  0
    8.0836   -0.0304   15.3151 H   0  0  0  0  0  0  0  0  0  0  0  0
    6.2317   -0.3456   13.7201 C   0  0  0  0  0  0  0  0  0  0  0  0
    4.9107    0.3033   13.4123 C   0  0  0  0  0  0  0  0  0  0  0  0
    5.8695    1.5078   11.4441 C   0  0  0  0  0  0  0  0  0  0  0  0
    6.4961    0.5413   11.0527 O   0  0  0  0  0  0  0  0  0  0  0  0
    5.0730    1.4885   12.5344 N   0  0  0  0  0  0  0  0  0  0  0  0
    4.5723    2.3059   12.7592 H   0  0  0  0  0  0  0  0  0  0  0  0
    5.9993    2.8213   10.6572 C   0  0  0  0  0  0  0  0  0  0  0  0
    4.1904    3.5938    9.2322 C   0  0  0  0  0  0  0  0  0  0  0  0
    4.8850    3.3694    8.2526 O   0  0  0  0  0  0  0  0  0  0  0  0
    2.9137    4.0053    9.1039 N   0  0  0  0  0  0  0  0  0  0  0  0
    2.0791    4.3220   10.2666 C   0  0  0  0  0  0  0  0  0  0  0  0
    4.6670    3.4383   10.4604 N   0  0  0  0  0  0  0  0  0  0  0  0
    4.1380    3.7315   11.2371 H   0  0  0  0  0  0  0  0  0  0  0  0
    2.3477    4.0747    7.7376 C   0  0  0  0  0  0  0  0  0  0  0  0
    1.7939    5.4339    7.3629 C   0  0  0  0  0  0  0  0  0  0  0  0
    2.6643    6.5235    7.3173 C   0  0  0  0  0  0  0  0  0  0  0  0
    0.4842    5.5242    7.0893 N   0  0  0  0  0  0  0  0  0  0  0  0
    2.1339    7.7706    6.9770 C   0  0  0  0  0  0  0  0  0  0  0  0
   -0.0199    6.7237    6.7777 C   0  0  0  0  0  0  0  0  0  0  0  0
    0.7644    7.8784    6.7089 C   0  0  0  0  0  0  0  0  0  0  0  0
   -0.0926    4.7269    7.1169 H   0  0  0  0  0  0  0  0  0  0  0  0
    6.9550    3.8369   11.3460 C   0  0  0  0  0  0  0  0  0  0  0  0
    6.2267    5.0448   11.9501 C   0  0  0  0  0  0  0  0  0  0  0  0
    7.8646    3.1821   12.4086 C   0  0  0  0  0  0  0  0  0  0  0  0
    4.1064   -0.7740   12.7081 C   0  0  0  0  0  0  0  0  0  0  0  0
    2.6555   -0.4341   12.6318 C   0  0  0  0  0  0  0  0  0  0  0  0
    1.8298   -0.5996   13.7478 C   0  0  0  0  0  0  0  0  0  0  0  0
    0.4649   -0.2990   13.6536 C   0  0  0  0  0  0  0  0  0  0  0  0
   -0.0628    0.1613   12.4538 C   0  0  0  0  0  0  0  0  0  0  0  0
    0.7744    0.3343   11.3434 C   0  0  0  0  0  0  0  0  0  0  0  0
    2.1387    0.0376   11.4267 C   0  0  0  0  0  0  0  0  0  0  0  0
    5.8045   -2.3606   15.2271 C   0  0  0  0  0  0  0  0  0  0  0  0
    6.7618   -3.2142   15.9327 N   0  0  0  0  0  0  0  0  0  0  0  0
    7.2880   -4.3365   15.4344 C   0  0  0  0  0  0  0  0  0  0  0  0
    7.1078   -4.7074   14.2873 O   0  0  0  0  0  0  0  0  0  0  0  0
    7.0372   -2.9421   16.8379 H   0  0  0  0  0  0  0  0  0  0  0  0
    8.1797   -5.1134   16.4197 C   0  0  0  0  0  0  0  0  0  0  0  0
    7.5987   -6.3971   16.8472 N   0  0  0  0  0  0  0  0  0  0  0  0
    7.2567   -6.7273   18.0848 C   0  0  0  0  0  0  0  0  0  0  0  0
    7.4831   -6.0130   19.0490 O   0  0  0  0  0  0  0  0  0  0  0  0
    6.6206   -7.9155   18.2315 N   0  0  0  0  0  0  0  0  0  0  0  0
    6.3427   -8.8130   17.1047 C   0  0  0  0  0  0  0  0  0  0  0  0
    7.4502   -7.0741   16.1480 H   0  0  0  0  0  0  0  0  0  0  0  0
    6.1230   -8.3361   19.5434 C   0  0  0  0  0  0  0  0  0  0  0  0
    4.7822   -7.7265   19.8632 C   0  0  0  0  0  0  0  0  0  0  0  0
    3.6019   -8.3869   19.4893 C   0  0  0  0  0  0  0  0  0  0  0  0
    4.8019   -6.5479   20.5045 N   0  0  0  0  0  0  0  0  0  0  0  0
    2.3801   -7.7808   19.7994 C   0  0  0  0  0  0  0  0  0  0  0  0
    3.6189   -5.9802   20.7913 C   0  0  0  0  0  0  0  0  0  0  0  0
    2.3821   -6.5521   20.4674 C   0  0  0  0  0  0  0  0  0  0  0  0
    5.6505   -6.1161   20.7549 H   0  0  0  0  0  0  0  0  0  0  0  0
    9.5575   -5.3065   15.7709 C   0  0  0  0  0  0  0  0  0  0  0  0
   10.1800   -3.9611   15.3274 C   0  0  0  0  0  0  0  0  0  0  0  0
   10.5149   -6.0268   16.7361 C   0  0  0  0  0  0  0  0  0  0  0  0
    4.4418   -2.3957   15.9426 C   0  0  0  0  0  0  0  0  0  0  0  0
    3.6692   -3.6852   15.7820 C   0  0  0  0  0  0  0  0  0  0  0  0
    2.9190   -3.9260   14.6192 C   0  0  0  0  0  0  0  0  0  0  0  0
    2.2097   -5.1271   14.4844 C   0  0  0  0  0  0  0  0  0  0  0  0
    2.2394   -6.0935   15.4997 C   0  0  0  0  0  0  0  0  0  0  0  0
    2.9885   -5.8621   16.6552 C   0  0  0  0  0  0  0  0  0  0  0  0
    3.7030   -4.6579   16.7979 C   0  0  0  0  0  0  0  0  0  0  0  0
 11 12  2  0  0  0
 11 13  1  0  0  0
 11 15  1  0  0  0
 13 14  1  0  0  0
 13 17  1  0  0  0
 17 18  1  0  0  0
 18 19  2  0  0  0
 18 20  1  0  0  0
 19 21  1  0  0  0
 20 22  2  0  0  0
 21 23  2  0  0  0
 22 23  1  0  0  0
 15 10  1  0  0  0
 10  6  1  0  0  0
 10 25  1  0  0  0
  6  7  2  0  0  0
  6  8  1  0  0  0
 25 26  1  0  0  0
 25 27  1  0  0  0
  8  5  1  0  0  0
  5 28  1  0  0  0
  5  4  1  0  0  0
 28 29  1  0  0  0
 29 30  2  0  0  0
 29 34  1  0  0  0
 30 31  1  0  0  0
 31 32  2  0  0  0
 32 33  1  0  0  0
 33 34  2  0  0  0
  4  2  1  0  0  0
  1  2  1  0  0  0
  2 35  1  0  0  0
 36 35  1  0  0  0
 36 37  1  0  0  0
 35 58  1  0  0  0
 58 59  1  0  0  0
 59 60  2  0  0  0
 59 64  1  0  0  0
 60 61  1  0  0  0
 61 62  2  0  0  0
 62 63  1  0  0  0
 63 64  2  0  0  0
 41 40  1  0  0  0
 41 42  1  0  0  0
 40 37  1  0  0  0
 40 55  1  0  0  0
 37 38  2  0  0  0
 55 56  1  0  0  0
 55 57  1  0  0  0
 42 43  2  0  0  0
 42 44  1  0  0  0
 44 45  1  0  0  0
 44 47  1  0  0  0
 47 48  1  0  0  0
 48 49  2  0  0  0
 48 50  1  0  0  0
 49 51  1  0  0  0
 50 52  2  0  0  0
 51 53  2  0  0  0
 52 53  1  0  0  0
 20 24  1  0  0  0
 15 16  1  0  0  0
  8  9  1  0  0  0
  1  3  1  0  0  0
 36 39  1  0  0  0
 41 46  1  0  0  0
 50 54  1  0  0  0
M  CHG 1  20   1
M  CHG 1  50   1
M  END
> <minimizedAffinity>
-9.02364

$$$$
