3R16_5UN_A_1
  RCSB PDB12061710303D
Coordinates from PDB:3R16:A:1 Model:1 without hydrogens
 19 20  0  0  0  0            999 V2000
   16.1720    1.8950   15.7370   C 0  0  0  0  0  0  0  0  0  0  0  0
   15.9350   -0.8040   16.0720   N 0  0  0  0  0  0  0  0  0  0  0  0
   15.8710    0.7630   18.0610   O 0  0  0  0  0  0  0  0  0  0  0  0
   15.4390    0.6100   16.6920   S 0  0  0  0  0  0  0  0  0  0  0  0
   17.5360    1.8430   15.5210   C 0  0  0  0  0  0  0  0  0  0  0  0
   14.0130    0.7630   16.6330   O 0  0  0  0  0  0  0  0  0  0  0  0
   18.1560    2.8290   14.7850   C 0  0  0  0  0  0  0  0  0  0  0  0
   17.4200    3.8790   14.2680   C 0  0  0  0  0  0  0  0  0  0  0  0
   16.0450    3.9430   14.4860   C 0  0  0  0  0  0  0  0  0  0  0  0
   15.4150    2.9450   15.2240   C 0  0  0  0  0  0  0  0  0  0  0  0
   18.1730    4.8440   13.5260   N 0  0  0  0  0  0  0  0  0  0  0  0
   17.6640    6.0070   12.8750   C 0  0  0  0  0  0  0  0  0  0  0  0
   16.4860    6.3110   12.9030   O 0  0  0  0  0  0  0  0  0  0  0  0
   18.6490    6.8720   12.1620   C 0  0  0  0  0  0  0  0  0  0  0  0
   19.2120    7.9640   13.0000   C 0  0  0  0  0  0  0  0  0  0  0  0
   19.2110    9.3260   12.7200   C 0  0  0  0  0  0  0  0  0  0  0  0
   19.7880   10.1280   13.6920   C 0  0  0  0  0  0  0  0  0  0  0  0
   20.2930    9.4580   14.7980   C 0  0  0  0  0  0  0  0  0  0  0  0
   19.9730    7.7930   14.5320   S 0  0  0  0  0  0  0  0  0  0  0  0
 10  1  2  0  0  0  0
  5  1  1  0  0  0  0
  1  4  1  0  0  0  0
  2  4  1  0  0  0  0
  4  3  2  0  0  0  0
  6  4  2  0  0  0  0
  7  5  2  0  0  0  0
  8  7  1  0  0  0  0
 11  8  1  0  0  0  0
  8  9  2  0  0  0  0
  9 10  1  0  0  0  0
 12 11  1  0  0  0  0
 14 12  1  0  0  0  0
 12 13  2  0  0  0  0
 14 15  1  0  0  0  0
 16 15  2  0  0  0  0
 15 19  1  0  0  0  0
 16 17  1  0  0  0  0
 17 18  2  0  0  0  0
 19 18  1  0  0  0  0
A    1
C01
A    2
N01
A    3
O01
A    4
S01
A    5
C02
A    6
O02
A    7
C03
A    8
C04
A    9
C05
A   10
C06
A   11
N07
A   12
C08
A   13
O08
A   14
C09
A   15
C10
A   16
C11
A   17
C12
A   18
C13
A   19
S14
M  END
>  <InstanceId>
3R16_5UN_A_1

>  <ChemCompId>
5UN

>  <PdbId>
3R16

>  <ChainId>
A

>  <ResidueNumber>
1

>  <InsertionCode>


>  <Model>
1

>  <AltIds>


>  <MissingHeavyAtoms>
0

>  <ObservedFormula>
C12 N2 O3 S2

>  <Name>
N-(4-sulfamoylphenyl)-2-(thiophen-2-yl)acetamide

>  <SystematicName>
N-(4-sulfamoylphenyl)-2-thiophen-2-yl-ethanamide

>  <Synonyms>


>  <Type>
NON-POLYMER

>  <Formula>
C12 H12 N2 O3 S2

>  <MolecularWeight>
296.365

>  <ModifiedDate>
2011-06-04

>  <Parent>


>  <OneLetterCode>


>  <SubcomponentList>


>  <AmbiguousFlag>
N

>  <InChI>
InChI=1S/C12H12N2O3S2/c13-19(16,17)11-5-3-9(4-6-11)14-12(15)8-10-2-1-7-18-10/h1-7H,8H2,(H,14,15)(H2,13,16,17)

>  <InChIKey>
ZQWXOBLMDBJRLY-UHFFFAOYSA-N

>  <SMILES>
c1cc(sc1)CC(=O)Nc2ccc(cc2)S(=O)(=O)N

$$$$
