2R9X_WH6_A_365


 32 35  0  0  0  0  0  0  0  0999 V2000
   23.5491    7.1387   13.6150 C   0  0  0  0  0  0  0  0  0  0  0  0
   23.8776    6.8716   15.0298 N   0  0  0  0  0  0  0  0  0  0  0  0
   25.0486    7.1762   15.6287 C   0  0  0  0  0  0  0  0  0  0  0  0
   26.0389    7.6494   15.0613 O   0  0  0  0  0  0  0  0  0  0  0  0
   24.9670    6.8678   16.9951 C   0  0  0  0  0  0  0  0  0  0  0  0
   25.8562    6.9528   18.0735 C   0  0  0  0  0  0  0  0  0  0  0  0
   25.4471    6.5311   19.3440 C   0  0  0  0  0  0  0  0  0  0  0  0
   24.1670    6.0316   19.5343 C   0  0  0  0  0  0  0  0  0  0  0  0
   23.2847    5.9388   18.4627 C   0  0  0  0  0  0  0  0  0  0  0  0
   23.6772    6.3572   17.1947 C   0  0  0  0  0  0  0  0  0  0  0  0
   23.0298    6.3976   15.9541 C   0  0  0  0  0  0  0  0  0  0  0  0
   21.8716    6.0245   15.7330 O   0  0  0  0  0  0  0  0  0  0  0  0
   26.3811    6.5965   20.5640 C   0  0  0  0  0  0  0  0  0  0  0  0
   25.9481    7.1249   21.6154 O   0  0  0  0  0  0  0  0  0  0  0  0
   27.5096    6.0912   20.4581 O   0  0  0  0  0  0  0  0  0  0  0  0
   25.0857    7.4908   21.6351 H   0  0  0  0  0  0  0  0  0  0  0  0
   24.3846    6.0998   12.8025 C   0  0  0  0  0  0  0  0  0  0  0  0
   23.3817    6.0074   10.4400 C   0  0  0  0  0  0  0  0  0  0  0  0
   24.0892    7.1554   10.0827 C   0  0  0  0  0  0  0  0  0  0  0  0
   23.9717    7.6905    8.8084 C   0  0  0  0  0  0  0  0  0  0  0  0
   23.1404    7.0751    7.8739 C   0  0  0  0  0  0  0  0  0  0  0  0
   22.4267    5.9276    8.2118 C   0  0  0  0  0  0  0  0  0  0  0  0
   22.5452    5.3939    9.4980 C   0  0  0  0  0  0  0  0  0  0  0  0
   21.8298    4.2490    9.8374 C   0  0  0  0  0  0  0  0  0  0  0  0
   21.9505    3.7175   11.1238 C   0  0  0  0  0  0  0  0  0  0  0  0
   22.7868    4.3186   12.0555 C   0  0  0  0  0  0  0  0  0  0  0  0
   23.5121    5.4692   11.7222 C   0  0  0  0  0  0  0  0  0  0  0  0
   23.9420    8.5149   13.1020 C   0  0  0  0  0  0  0  0  0  0  0  0
   22.7229    9.3773   12.8500 C   0  0  0  0  0  0  0  0  0  0  0  0
   21.8642    8.9012   12.0819 O   0  0  0  0  0  0  0  0  0  0  0  0
   22.6930   10.4906   13.4169 O   0  0  0  0  0  0  0  0  0  0  0  0
   23.3974   10.7498   13.9779 H   0  0  0  0  0  0  0  0  0  0  0  0
 18 19  2  0  0  0
 18 23  1  0  0  0
 18 27  1  0  0  0
 19 20  1  0  0  0
 20 21  2  0  0  0
 21 22  1  0  0  0
 22 23  2  0  0  0
 23 24  1  0  0  0
 24 25  2  0  0  0
 25 26  1  0  0  0
 26 27  2  0  0  0
 27 17  1  0  0  0
 17  1  1  0  0  0
  1 28  1  0  0  0
  1  2  1  0  0  0
 28 29  1  0  0  0
 29 30  2  0  0  0
 29 31  1  0  0  0
  2  3  1  0  0  0
  2 11  1  0  0  0
  3  4  2  0  0  0
  3  5  1  0  0  0
  5  6  2  0  0  0
  5 10  1  0  0  0
  6  7  1  0  0  0
  7 13  1  0  0  0
  7  8  2  0  0  0
 13 14  1  0  0  0
 13 15  2  0  0  0
  8  9  1  0  0  0
  9 10  2  0  0  0
 10 11  1  0  0  0
 11 12  2  0  0  0
 31 32  1  0  0  0
 14 16  1  0  0  0
M  END
> <minimizedAffinity>
-10.04556

$$$$
2R9X_WH6_A_365


 32 35  0  0  0  0  0  0  0  0999 V2000
   23.0235    7.2729   13.2085 C   0  0  0  0  0  0  0  0  0  0  0  0
   23.5202    7.0681   14.5841 N   0  0  0  0  0  0  0  0  0  0  0  0
   22.8715    6.3887   15.5538 C   0  0  0  0  0  0  0  0  0  0  0  0
   21.7373    5.9091   15.4529 O   0  0  0  0  0  0  0  0  0  0  0  0
   23.6845    6.3156   16.6950 C   0  0  0  0  0  0  0  0  0  0  0  0
   23.5316    5.7643   17.9731 C   0  0  0  0  0  0  0  0  0  0  0  0
   24.5650    5.8878   18.9093 C   0  0  0  0  0  0  0  0  0  0  0  0
   25.7349    6.5529   18.5728 C   0  0  0  0  0  0  0  0  0  0  0  0
   25.8856    7.1083   17.3062 C   0  0  0  0  0  0  0  0  0  0  0  0
   24.8676    6.9903   16.3646 C   0  0  0  0  0  0  0  0  0  0  0  0
   24.7306    7.4218   15.0399 C   0  0  0  0  0  0  0  0  0  0  0  0
   25.5748    8.0584   14.3983 O   0  0  0  0  0  0  0  0  0  0  0  0
   24.4519    5.3070   20.3287 C   0  0  0  0  0  0  0  0  0  0  0  0
   23.6889    4.3288   20.5108 O   0  0  0  0  0  0  0  0  0  0  0  0
   25.1493    5.8152   21.2206 O   0  0  0  0  0  0  0  0  0  0  0  0
   23.1859    3.9878   19.7976 H   0  0  0  0  0  0  0  0  0  0  0  0
   23.9892    6.4461   12.3023 C   0  0  0  0  0  0  0  0  0  0  0  0
   23.0351    6.0192    9.9564 C   0  0  0  0  0  0  0  0  0  0  0  0
   23.6657    7.1682    9.4787 C   0  0  0  0  0  0  0  0  0  0  0  0
   23.5322    7.5482    8.1514 C   0  0  0  0  0  0  0  0  0  0  0  0
   22.7622    6.7742    7.2846 C   0  0  0  0  0  0  0  0  0  0  0  0
   22.1257    5.6231    7.7430 C   0  0  0  0  0  0  0  0  0  0  0  0
   22.2599    5.2460    9.0820 C   0  0  0  0  0  0  0  0  0  0  0  0
   21.6216    4.0974    9.5415 C   0  0  0  0  0  0  0  0  0  0  0  0
   21.7579    3.7226   10.8805 C   0  0  0  0  0  0  0  0  0  0  0  0
   22.5339    4.4824   11.7461 C   0  0  0  0  0  0  0  0  0  0  0  0
   23.1816    5.6380   11.2920 C   0  0  0  0  0  0  0  0  0  0  0  0
   23.0689    8.7066   12.7046 C   0  0  0  0  0  0  0  0  0  0  0  0
   21.7651    9.0988   12.0415 C   0  0  0  0  0  0  0  0  0  0  0  0
   20.8034    8.3270   12.2245 O   0  0  0  0  0  0  0  0  0  0  0  0
   21.7723   10.1459   11.3593 O   0  0  0  0  0  0  0  0  0  0  0  0
   22.5564   10.6540   11.2893 H   0  0  0  0  0  0  0  0  0  0  0  0
 18 19  2  0  0  0
 18 23  1  0  0  0
 18 27  1  0  0  0
 19 20  1  0  0  0
 20 21  2  0  0  0
 21 22  1  0  0  0
 22 23  2  0  0  0
 23 24  1  0  0  0
 24 25  2  0  0  0
 25 26  1  0  0  0
 26 27  2  0  0  0
 27 17  1  0  0  0
 17  1  1  0  0  0
  1 28  1  0  0  0
  1  2  1  0  0  0
 28 29  1  0  0  0
 29 30  2  0  0  0
 29 31  1  0  0  0
  2  3  1  0  0  0
  2 11  1  0  0  0
  3  4  2  0  0  0
  3  5  1  0  0  0
  5  6  2  0  0  0
  5 10  1  0  0  0
  6  7  1  0  0  0
  7 13  1  0  0  0
  7  8  2  0  0  0
 13 14  1  0  0  0
 13 15  2  0  0  0
  8  9  1  0  0  0
  9 10  2  0  0  0
 10 11  1  0  0  0
 11 12  2  0  0  0
 31 32  1  0  0  0
 14 16  1  0  0  0
M  END
> <minimizedAffinity>
-9.91483

$$$$
2R9X_WH6_A_365


 32 35  0  0  0  0  0  0  0  0999 V2000
   23.0739    7.2495   13.0434 C   0  0  0  0  0  0  0  0  0  0  0  0
   23.5275    7.0561   14.4354 N   0  0  0  0  0  0  0  0  0  0  0  0
   22.8511    6.3804   15.3886 C   0  0  0  0  0  0  0  0  0  0  0  0
   21.7227    5.8952   15.2551 O   0  0  0  0  0  0  0  0  0  0  0  0
   23.6277    6.3186   16.5555 C   0  0  0  0  0  0  0  0  0  0  0  0
   23.4366    5.7752   17.8319 C   0  0  0  0  0  0  0  0  0  0  0  0
   24.4392    5.9095   18.7996 C   0  0  0  0  0  0  0  0  0  0  0  0
   25.6165    6.5774   18.4958 C   0  0  0  0  0  0  0  0  0  0  0  0
   25.8050    7.1250   17.2309 C   0  0  0  0  0  0  0  0  0  0  0  0
   24.8179    6.9962   16.2583 C   0  0  0  0  0  0  0  0  0  0  0  0
   24.7213    7.4182   14.9270 C   0  0  0  0  0  0  0  0  0  0  0  0
   25.5828    8.0542   14.3082 O   0  0  0  0  0  0  0  0  0  0  0  0
   24.2835    5.3377   20.2186 C   0  0  0  0  0  0  0  0  0  0  0  0
   23.4166    4.4523   20.4101 O   0  0  0  0  0  0  0  0  0  0  0  0
   25.0490    5.7580   21.1004 O   0  0  0  0  0  0  0  0  0  0  0  0
   22.8663    4.1750   19.7042 H   0  0  0  0  0  0  0  0  0  0  0  0
   24.0721    6.4219   12.1739 C   0  0  0  0  0  0  0  0  0  0  0  0
   22.7959    5.8053   10.0322 C   0  0  0  0  0  0  0  0  0  0  0  0
   22.0900    4.8202   10.7231 C   0  0  0  0  0  0  0  0  0  0  0  0
   21.1489    4.0364   10.0719 C   0  0  0  0  0  0  0  0  0  0  0  0
   20.9035    4.2352    8.7141 C   0  0  0  0  0  0  0  0  0  0  0  0
   21.5977    5.2146    8.0077 C   0  0  0  0  0  0  0  0  0  0  0  0
   22.5477    5.9995    8.6668 C   0  0  0  0  0  0  0  0  0  0  0  0
   23.2441    6.9764    7.9606 C   0  0  0  0  0  0  0  0  0  0  0  0
   24.1929    7.7598    8.6223 C   0  0  0  0  0  0  0  0  0  0  0  0
   24.4329    7.5753    9.9778 C   0  0  0  0  0  0  0  0  0  0  0  0
   23.7354    6.5967   10.6967 C   0  0  0  0  0  0  0  0  0  0  0  0
   23.1282    8.6802   12.5317 C   0  0  0  0  0  0  0  0  0  0  0  0
   22.0761    9.5431   13.1964 C   0  0  0  0  0  0  0  0  0  0  0  0
   22.4578   10.6589   13.6005 O   0  0  0  0  0  0  0  0  0  0  0  0
   20.9292    9.0570   13.2962 O   0  0  0  0  0  0  0  0  0  0  0  0
   20.7510    8.2028   12.9548 H   0  0  0  0  0  0  0  0  0  0  0  0
 18 19  2  0  0  0
 18 23  1  0  0  0
 18 27  1  0  0  0
 19 20  1  0  0  0
 20 21  2  0  0  0
 21 22  1  0  0  0
 22 23  2  0  0  0
 23 24  1  0  0  0
 24 25  2  0  0  0
 25 26  1  0  0  0
 26 27  2  0  0  0
 27 17  1  0  0  0
 17  1  1  0  0  0
  1 28  1  0  0  0
  1  2  1  0  0  0
 28 29  1  0  0  0
 29 30  2  0  0  0
 29 31  1  0  0  0
  2  3  1  0  0  0
  2 11  1  0  0  0
  3  4  2  0  0  0
  3  5  1  0  0  0
  5  6  2  0  0  0
  5 10  1  0  0  0
  6  7  1  0  0  0
  7 13  1  0  0  0
  7  8  2  0  0  0
 13 14  1  0  0  0
 13 15  2  0  0  0
  8  9  1  0  0  0
  9 10  2  0  0  0
 10 11  1  0  0  0
 11 12  2  0  0  0
 31 32  1  0  0  0
 14 16  1  0  0  0
M  END
> <minimizedAffinity>
-9.22357

$$$$
2R9X_WH6_A_365


 32 35  0  0  0  0  0  0  0  0999 V2000
   23.5558    6.4462   13.1325 C   0  0  0  0  0  0  0  0  0  0  0  0
   23.7671    6.4085   14.5936 N   0  0  0  0  0  0  0  0  0  0  0  0
   24.9668    6.4742   15.2094 C   0  0  0  0  0  0  0  0  0  0  0  0
   26.0622    6.4963   14.6382 O   0  0  0  0  0  0  0  0  0  0  0  0
   24.7758    6.5094   16.5990 C   0  0  0  0  0  0  0  0  0  0  0  0
   25.6334    6.5592   17.7048 C   0  0  0  0  0  0  0  0  0  0  0  0
   25.0973    6.5655   18.9979 C   0  0  0  0  0  0  0  0  0  0  0  0
   23.7232    6.5229   19.1832 C   0  0  0  0  0  0  0  0  0  0  0  0
   22.8696    6.4654   18.0862 C   0  0  0  0  0  0  0  0  0  0  0  0
   23.3889    6.4616   16.7949 C   0  0  0  0  0  0  0  0  0  0  0  0
   22.8022    6.4212   15.5245 C   0  0  0  0  0  0  0  0  0  0  0  0
   21.5884    6.3704   15.2925 O   0  0  0  0  0  0  0  0  0  0  0  0
   25.9896    6.6146   20.2494 C   0  0  0  0  0  0  0  0  0  0  0  0
   25.5972    7.2872   21.2322 O   0  0  0  0  0  0  0  0  0  0  0  0
   27.0416    5.9564   20.2378 O   0  0  0  0  0  0  0  0  0  0  0  0
   24.7926    7.7647   21.1819 H   0  0  0  0  0  0  0  0  0  0  0  0
   23.2709    7.9455   12.8034 C   0  0  0  0  0  0  0  0  0  0  0  0
   22.3535    8.9332   10.6174 C   0  0  0  0  0  0  0  0  0  0  0  0
   21.3461    9.5903   11.3240 C   0  0  0  0  0  0  0  0  0  0  0  0
   20.4119   10.3723   10.6609 C   0  0  0  0  0  0  0  0  0  0  0  0
   20.4803   10.5055    9.2750 C   0  0  0  0  0  0  0  0  0  0  0  0
   21.4795    9.8578    8.5523 C   0  0  0  0  0  0  0  0  0  0  0  0
   22.4165    9.0679    9.2240 C   0  0  0  0  0  0  0  0  0  0  0  0
   23.4136    8.4178    8.5021 C   0  0  0  0  0  0  0  0  0  0  0  0
   24.3492    7.6291    9.1764 C   0  0  0  0  0  0  0  0  0  0  0  0
   24.2940    7.5026   10.5583 C   0  0  0  0  0  0  0  0  0  0  0  0
   23.2960    8.1548   11.2929 C   0  0  0  0  0  0  0  0  0  0  0  0
   22.3634    5.6514   12.6245 C   0  0  0  0  0  0  0  0  0  0  0  0
   22.8053    4.3893   11.9138 C   0  0  0  0  0  0  0  0  0  0  0  0
   22.5678    4.3372   10.6911 O   0  0  0  0  0  0  0  0  0  0  0  0
   23.3503    3.5093   12.6141 O   0  0  0  0  0  0  0  0  0  0  0  0
   23.4808    3.6542   13.5306 H   0  0  0  0  0  0  0  0  0  0  0  0
 18 19  2  0  0  0
 18 23  1  0  0  0
 18 27  1  0  0  0
 19 20  1  0  0  0
 20 21  2  0  0  0
 21 22  1  0  0  0
 22 23  2  0  0  0
 23 24  1  0  0  0
 24 25  2  0  0  0
 25 26  1  0  0  0
 26 27  2  0  0  0
 27 17  1  0  0  0
 17  1  1  0  0  0
  1 28  1  0  0  0
  1  2  1  0  0  0
 28 29  1  0  0  0
 29 30  2  0  0  0
 29 31  1  0  0  0
  2  3  1  0  0  0
  2 11  1  0  0  0
  3  4  2  0  0  0
  3  5  1  0  0  0
  5  6  2  0  0  0
  5 10  1  0  0  0
  6  7  1  0  0  0
  7 13  1  0  0  0
  7  8  2  0  0  0
 13 14  1  0  0  0
 13 15  2  0  0  0
  8  9  1  0  0  0
  9 10  2  0  0  0
 10 11  1  0  0  0
 11 12  2  0  0  0
 31 32  1  0  0  0
 14 16  1  0  0  0
M  END
> <minimizedAffinity>
-8.60465

$$$$
2R9X_WH6_A_365


 32 35  0  0  0  0  0  0  0  0999 V2000
   20.9082    7.6797   14.3386 C   0  0  0  0  0  0  0  0  0  0  0  0
   21.9420    7.5161   15.3805 N   0  0  0  0  0  0  0  0  0  0  0  0
   21.9605    6.5403   16.3133 C   0  0  0  0  0  0  0  0  0  0  0  0
   21.0765    5.6928   16.4778 O   0  0  0  0  0  0  0  0  0  0  0  0
   23.1382    6.6410   17.0694 C   0  0  0  0  0  0  0  0  0  0  0  0
   23.6714    5.9303   18.1517 C   0  0  0  0  0  0  0  0  0  0  0  0
   24.9018    6.3167   18.6960 C   0  0  0  0  0  0  0  0  0  0  0  0
   25.5899    7.3983   18.1658 C   0  0  0  0  0  0  0  0  0  0  0  0
   25.0581    8.1108   17.0957 C   0  0  0  0  0  0  0  0  0  0  0  0
   23.8372    7.7356   16.5428 C   0  0  0  0  0  0  0  0  0  0  0  0
   23.0691    8.2347   15.4842 C   0  0  0  0  0  0  0  0  0  0  0  0
   23.3624    9.2053   14.7760 O   0  0  0  0  0  0  0  0  0  0  0  0
   25.5340    5.5772   19.8870 C   0  0  0  0  0  0  0  0  0  0  0  0
   26.7339    5.2246   19.7976 O   0  0  0  0  0  0  0  0  0  0  0  0
   24.8331    5.3950   20.8947 O   0  0  0  0  0  0  0  0  0  0  0  0
   27.2132    5.3894   19.0095 H   0  0  0  0  0  0  0  0  0  0  0  0
   21.6993    7.7873   12.9970 C   0  0  0  0  0  0  0  0  0  0  0  0
   21.0401    5.6887   11.6715 C   0  0  0  0  0  0  0  0  0  0  0  0
   19.8141    6.2675   11.3433 C   0  0  0  0  0  0  0  0  0  0  0  0
   18.8918    5.5792   10.5690 C   0  0  0  0  0  0  0  0  0  0  0  0
   19.1924    4.2970   10.1118 C   0  0  0  0  0  0  0  0  0  0  0  0
   20.4119    3.7030   10.4284 C   0  0  0  0  0  0  0  0  0  0  0  0
   21.3367    4.3986   11.2119 C   0  0  0  0  0  0  0  0  0  0  0  0
   22.5543    3.8043   11.5313 C   0  0  0  0  0  0  0  0  0  0  0  0
   23.4771    4.5023   12.3144 C   0  0  0  0  0  0  0  0  0  0  0  0
   23.1887    5.7849   12.7623 C   0  0  0  0  0  0  0  0  0  0  0  0
   21.9674    6.3915   12.4440 C   0  0  0  0  0  0  0  0  0  0  0  0
   20.0615    8.9375   14.4507 C   0  0  0  0  0  0  0  0  0  0  0  0
   18.8178    8.6920   15.2792 C   0  0  0  0  0  0  0  0  0  0  0  0
   18.1196    9.6940   15.5295 O   0  0  0  0  0  0  0  0  0  0  0  0
   18.6111    7.5170   15.6512 O   0  0  0  0  0  0  0  0  0  0  0  0
   19.2049    6.8359   15.4036 H   0  0  0  0  0  0  0  0  0  0  0  0
 18 19  2  0  0  0
 18 23  1  0  0  0
 18 27  1  0  0  0
 19 20  1  0  0  0
 20 21  2  0  0  0
 21 22  1  0  0  0
 22 23  2  0  0  0
 23 24  1  0  0  0
 24 25  2  0  0  0
 25 26  1  0  0  0
 26 27  2  0  0  0
 27 17  1  0  0  0
 17  1  1  0  0  0
  1 28  1  0  0  0
  1  2  1  0  0  0
 28 29  1  0  0  0
 29 30  2  0  0  0
 29 31  1  0  0  0
  2  3  1  0  0  0
  2 11  1  0  0  0
  3  4  2  0  0  0
  3  5  1  0  0  0
  5  6  2  0  0  0
  5 10  1  0  0  0
  6  7  1  0  0  0
  7 13  1  0  0  0
  7  8  2  0  0  0
 13 14  1  0  0  0
 13 15  2  0  0  0
  8  9  1  0  0  0
  9 10  2  0  0  0
 10 11  1  0  0  0
 11 12  2  0  0  0
 31 32  1  0  0  0
 14 16  1  0  0  0
M  END
> <minimizedAffinity>
-8.41127

$$$$
2R9X_WH6_A_365


 32 35  0  0  0  0  0  0  0  0999 V2000
   22.7756    6.2532   13.0763 C   0  0  0  0  0  0  0  0  0  0  0  0
   23.0379    6.1841   14.5280 N   0  0  0  0  0  0  0  0  0  0  0  0
   24.2055    5.8079   15.0918 C   0  0  0  0  0  0  0  0  0  0  0  0
   25.1943    5.3938   14.4774 O   0  0  0  0  0  0  0  0  0  0  0  0
   24.1196    5.9570   16.4843 C   0  0  0  0  0  0  0  0  0  0  0  0
   24.9925    5.7116   17.5515 C   0  0  0  0  0  0  0  0  0  0  0  0
   24.5714    5.9622   18.8628 C   0  0  0  0  0  0  0  0  0  0  0  0
   23.2959    6.4512   19.1042 C   0  0  0  0  0  0  0  0  0  0  0  0
   22.4244    6.6880   18.0460 C   0  0  0  0  0  0  0  0  0  0  0  0
   22.8310    6.4463   16.7370 C   0  0  0  0  0  0  0  0  0  0  0  0
   22.2028    6.5921   15.4945 C   0  0  0  0  0  0  0  0  0  0  0  0
   21.0492    6.9993   15.3134 O   0  0  0  0  0  0  0  0  0  0  0  0
   25.4841    5.7076   20.0741 C   0  0  0  0  0  0  0  0  0  0  0  0
   26.6135    5.2025   19.8706 O   0  0  0  0  0  0  0  0  0  0  0  0
   25.0700    6.0469   21.1937 O   0  0  0  0  0  0  0  0  0  0  0  0
   26.8712    4.9659   19.0013 H   0  0  0  0  0  0  0  0  0  0  0  0
   22.1867    7.6795   12.8390 C   0  0  0  0  0  0  0  0  0  0  0  0
   22.6181    7.9001   10.3169 C   0  0  0  0  0  0  0  0  0  0  0  0
   23.9943    7.8349   10.5353 C   0  0  0  0  0  0  0  0  0  0  0  0
   24.8832    7.9118    9.4733 C   0  0  0  0  0  0  0  0  0  0  0  0
   24.3980    8.0535    8.1741 C   0  0  0  0  0  0  0  0  0  0  0  0
   23.0271    8.1194    7.9362 C   0  0  0  0  0  0  0  0  0  0  0  0
   22.1351    8.0453    9.0095 C   0  0  0  0  0  0  0  0  0  0  0  0
   20.7651    8.1142    8.7728 C   0  0  0  0  0  0  0  0  0  0  0  0
   19.8758    8.0395    9.8477 C   0  0  0  0  0  0  0  0  0  0  0  0
   20.3524    7.8856   11.1430 C   0  0  0  0  0  0  0  0  0  0  0  0
   21.7288    7.8129   11.3904 C   0  0  0  0  0  0  0  0  0  0  0  0
   21.7498    5.2619   12.5502 C   0  0  0  0  0  0  0  0  0  0  0  0
   22.4195    4.0589   11.9196 C   0  0  0  0  0  0  0  0  0  0  0  0
   21.9005    3.6302   10.8704 O   0  0  0  0  0  0  0  0  0  0  0  0
   23.4169    3.5941   12.5120 O   0  0  0  0  0  0  0  0  0  0  0  0
   23.7245    3.9981   13.2995 H   0  0  0  0  0  0  0  0  0  0  0  0
 18 19  2  0  0  0
 18 23  1  0  0  0
 18 27  1  0  0  0
 19 20  1  0  0  0
 20 21  2  0  0  0
 21 22  1  0  0  0
 22 23  2  0  0  0
 23 24  1  0  0  0
 24 25  2  0  0  0
 25 26  1  0  0  0
 26 27  2  0  0  0
 27 17  1  0  0  0
 17  1  1  0  0  0
  1 28  1  0  0  0
  1  2  1  0  0  0
 28 29  1  0  0  0
 29 30  2  0  0  0
 29 31  1  0  0  0
  2  3  1  0  0  0
  2 11  1  0  0  0
  3  4  2  0  0  0
  3  5  1  0  0  0
  5  6  2  0  0  0
  5 10  1  0  0  0
  6  7  1  0  0  0
  7 13  1  0  0  0
  7  8  2  0  0  0
 13 14  1  0  0  0
 13 15  2  0  0  0
  8  9  1  0  0  0
  9 10  2  0  0  0
 10 11  1  0  0  0
 11 12  2  0  0  0
 31 32  1  0  0  0
 14 16  1  0  0  0
M  END
> <minimizedAffinity>
-8.25980

$$$$
2R9X_WH6_A_365


 32 35  0  0  0  0  0  0  0  0999 V2000
   23.4307    6.6676   12.7383 C   0  0  0  0  0  0  0  0  0  0  0  0
   23.6797    6.6940   14.1937 N   0  0  0  0  0  0  0  0  0  0  0  0
   22.8256    6.2465   15.1386 C   0  0  0  0  0  0  0  0  0  0  0  0
   21.6840    5.8239   14.9267 O   0  0  0  0  0  0  0  0  0  0  0  0
   23.4350    6.3398   16.3991 C   0  0  0  0  0  0  0  0  0  0  0  0
   23.0302    6.0464   17.7071 C   0  0  0  0  0  0  0  0  0  0  0  0
   23.9066    6.2814   18.7730 C   0  0  0  0  0  0  0  0  0  0  0  0
   25.1701    6.8023   18.5350 C   0  0  0  0  0  0  0  0  0  0  0  0
   25.5713    7.1020   17.2371 C   0  0  0  0  0  0  0  0  0  0  0  0
   24.7112    6.8705   16.1676 C   0  0  0  0  0  0  0  0  0  0  0  0
   24.8279    7.0548   14.7848 C   0  0  0  0  0  0  0  0  0  0  0  0
   25.8176    7.5100   14.1993 O   0  0  0  0  0  0  0  0  0  0  0  0
   23.5156    5.9830   20.2301 C   0  0  0  0  0  0  0  0  0  0  0  0
   24.3123    5.3183   20.9342 O   0  0  0  0  0  0  0  0  0  0  0  0
   22.4426    6.4449   20.6489 O   0  0  0  0  0  0  0  0  0  0  0  0
   25.1089    4.9948   20.5619 H   0  0  0  0  0  0  0  0  0  0  0  0
   23.0688    8.1392   12.3629 C   0  0  0  0  0  0  0  0  0  0  0  0
   22.2890    9.0862   10.1066 C   0  0  0  0  0  0  0  0  0  0  0  0
   21.2243    9.7336   10.7337 C   0  0  0  0  0  0  0  0  0  0  0  0
   20.3256   10.4918    9.9980 C   0  0  0  0  0  0  0  0  0  0  0  0
   20.4877   10.6106    8.6185 C   0  0  0  0  0  0  0  0  0  0  0  0
   21.5452    9.9722    7.9748 C   0  0  0  0  0  0  0  0  0  0  0  0
   22.4462    9.2062    8.7194 C   0  0  0  0  0  0  0  0  0  0  0  0
   23.5015    8.5654    8.0763 C   0  0  0  0  0  0  0  0  0  0  0  0
   24.4010    7.8006    8.8233 C   0  0  0  0  0  0  0  0  0  0  0  0
   24.2523    7.6888   10.1996 C   0  0  0  0  0  0  0  0  0  0  0  0
   23.1951    8.3318   10.8553 C   0  0  0  0  0  0  0  0  0  0  0  0
   22.2640    5.8013   12.2912 C   0  0  0  0  0  0  0  0  0  0  0  0
   22.7440    4.4845   11.7174 C   0  0  0  0  0  0  0  0  0  0  0  0
   22.5738    4.3259   10.4927 O   0  0  0  0  0  0  0  0  0  0  0  0
   23.2498    3.6709   12.5199 O   0  0  0  0  0  0  0  0  0  0  0  0
   23.3299    3.8950   13.4262 H   0  0  0  0  0  0  0  0  0  0  0  0
 18 19  2  0  0  0
 18 23  1  0  0  0
 18 27  1  0  0  0
 19 20  1  0  0  0
 20 21  2  0  0  0
 21 22  1  0  0  0
 22 23  2  0  0  0
 23 24  1  0  0  0
 24 25  2  0  0  0
 25 26  1  0  0  0
 26 27  2  0  0  0
 27 17  1  0  0  0
 17  1  1  0  0  0
  1 28  1  0  0  0
  1  2  1  0  0  0
 28 29  1  0  0  0
 29 30  2  0  0  0
 29 31  1  0  0  0
  2  3  1  0  0  0
  2 11  1  0  0  0
  3  4  2  0  0  0
  3  5  1  0  0  0
  5  6  2  0  0  0
  5 10  1  0  0  0
  6  7  1  0  0  0
  7 13  1  0  0  0
  7  8  2  0  0  0
 13 14  1  0  0  0
 13 15  2  0  0  0
  8  9  1  0  0  0
  9 10  2  0  0  0
 10 11  1  0  0  0
 11 12  2  0  0  0
 31 32  1  0  0  0
 14 16  1  0  0  0
M  END
> <minimizedAffinity>
-8.16957

$$$$
2R9X_WH6_A_365


 32 35  0  0  0  0  0  0  0  0999 V2000
   23.9366    6.6740   13.0208 C   0  0  0  0  0  0  0  0  0  0  0  0
   22.5251    7.0563   13.2275 N   0  0  0  0  0  0  0  0  0  0  0  0
   21.5182    6.2001   13.5025 C   0  0  0  0  0  0  0  0  0  0  0  0
   21.6187    4.9692   13.5432 O   0  0  0  0  0  0  0  0  0  0  0  0
   20.3392    6.9256   13.7309 C   0  0  0  0  0  0  0  0  0  0  0  0
   19.0168    6.5766   14.0320 C   0  0  0  0  0  0  0  0  0  0  0  0
   18.0527    7.5800   14.1838 C   0  0  0  0  0  0  0  0  0  0  0  0
   18.4051    8.9137   14.0370 C   0  0  0  0  0  0  0  0  0  0  0  0
   19.7165    9.2621   13.7300 C   0  0  0  0  0  0  0  0  0  0  0  0
   20.6860    8.2750   13.5793 C   0  0  0  0  0  0  0  0  0  0  0  0
   22.0549    8.3105   13.2886 C   0  0  0  0  0  0  0  0  0  0  0  0
   22.7223    9.3317   13.0854 O   0  0  0  0  0  0  0  0  0  0  0  0
   16.5850    7.2568   14.5098 C   0  0  0  0  0  0  0  0  0  0  0  0
   16.3481    6.4013   15.3954 O   0  0  0  0  0  0  0  0  0  0  0  0
   15.7040    7.8850   13.9021 O   0  0  0  0  0  0  0  0  0  0  0  0
   17.0561    5.9585   15.8203 H   0  0  0  0  0  0  0  0  0  0  0  0
   23.9025    5.5949   11.8931 C   0  0  0  0  0  0  0  0  0  0  0  0
   22.7887    5.7943    9.5876 C   0  0  0  0  0  0  0  0  0  0  0  0
   22.0035    4.6734    9.8576 C   0  0  0  0  0  0  0  0  0  0  0  0
   21.0982    4.2013    8.9187 C   0  0  0  0  0  0  0  0  0  0  0  0
   20.9691    4.8537    7.6935 C   0  0  0  0  0  0  0  0  0  0  0  0
   21.7438    5.9751    7.4062 C   0  0  0  0  0  0  0  0  0  0  0  0
   22.6574    6.4451    8.3536 C   0  0  0  0  0  0  0  0  0  0  0  0
   23.4341    7.5639    8.0659 C   0  0  0  0  0  0  0  0  0  0  0  0
   24.3463    8.0317    9.0151 C   0  0  0  0  0  0  0  0  0  0  0  0
   24.4705    7.3938   10.2425 C   0  0  0  0  0  0  0  0  0  0  0  0
   23.6916    6.2691   10.5415 C   0  0  0  0  0  0  0  0  0  0  0  0
   24.6222    6.0357   14.2183 C   0  0  0  0  0  0  0  0  0  0  0  0
   25.5832    7.0001   14.8814 C   0  0  0  0  0  0  0  0  0  0  0  0
   25.0846    8.0541   15.3224 O   0  0  0  0  0  0  0  0  0  0  0  0
   26.7866    6.6647   14.9126 O   0  0  0  0  0  0  0  0  0  0  0  0
   27.0536    5.8434   14.5490 H   0  0  0  0  0  0  0  0  0  0  0  0
 18 19  2  0  0  0
 18 23  1  0  0  0
 18 27  1  0  0  0
 19 20  1  0  0  0
 20 21  2  0  0  0
 21 22  1  0  0  0
 22 23  2  0  0  0
 23 24  1  0  0  0
 24 25  2  0  0  0
 25 26  1  0  0  0
 26 27  2  0  0  0
 27 17  1  0  0  0
 17  1  1  0  0  0
  1 28  1  0  0  0
  1  2  1  0  0  0
 28 29  1  0  0  0
 29 30  2  0  0  0
 29 31  1  0  0  0
  2  3  1  0  0  0
  2 11  1  0  0  0
  3  4  2  0  0  0
  3  5  1  0  0  0
  5  6  2  0  0  0
  5 10  1  0  0  0
  6  7  1  0  0  0
  7 13  1  0  0  0
  7  8  2  0  0  0
 13 14  1  0  0  0
 13 15  2  0  0  0
  8  9  1  0  0  0
  9 10  2  0  0  0
 10 11  1  0  0  0
 11 12  2  0  0  0
 31 32  1  0  0  0
 14 16  1  0  0  0
M  END
> <minimizedAffinity>
-8.14274

$$$$
2R9X_WH6_A_365


 32 35  0  0  0  0  0  0  0  0999 V2000
   22.8442    6.8203   10.7189 C   0  0  0  0  0  0  0  0  0  0  0  0
   23.1849    7.0861   12.1311 N   0  0  0  0  0  0  0  0  0  0  0  0
   23.9493    6.2922   12.9109 C   0  0  0  0  0  0  0  0  0  0  0  0
   24.4075    5.1937   12.5795 O   0  0  0  0  0  0  0  0  0  0  0  0
   24.1389    6.9074   14.1576 C   0  0  0  0  0  0  0  0  0  0  0  0
   24.8097    6.5511   15.3341 C   0  0  0  0  0  0  0  0  0  0  0  0
   24.7856    7.4158   16.4346 C   0  0  0  0  0  0  0  0  0  0  0  0
   24.1009    8.6199   16.3605 C   0  0  0  0  0  0  0  0  0  0  0  0
   23.4271    8.9722   15.1954 C   0  0  0  0  0  0  0  0  0  0  0  0
   23.4453    8.1234   14.0926 C   0  0  0  0  0  0  0  0  0  0  0  0
   22.8868    8.2024   12.8113 C   0  0  0  0  0  0  0  0  0  0  0  0
   22.1983    9.1356   12.3814 O   0  0  0  0  0  0  0  0  0  0  0  0
   25.4997    7.0758   17.7535 C   0  0  0  0  0  0  0  0  0  0  0  0
   26.3238    6.1308   17.7558 O   0  0  0  0  0  0  0  0  0  0  0  0
   25.2495    7.7773   18.7461 O   0  0  0  0  0  0  0  0  0  0  0  0
   26.4710    5.6355   16.9741 H   0  0  0  0  0  0  0  0  0  0  0  0
   22.9734    8.2024   10.0044 C   0  0  0  0  0  0  0  0  0  0  0  0
   23.8579    7.9717    7.6043 C   0  0  0  0  0  0  0  0  0  0  0  0
   22.5529    7.8742    7.1210 C   0  0  0  0  0  0  0  0  0  0  0  0
   22.3115    7.7113    5.7648 C   0  0  0  0  0  0  0  0  0  0  0  0
   23.3823    7.6463    4.8747 C   0  0  0  0  0  0  0  0  0  0  0  0
   24.6922    7.7428    5.3384 C   0  0  0  0  0  0  0  0  0  0  0  0
   24.9311    7.9031    6.7061 C   0  0  0  0  0  0  0  0  0  0  0  0
   26.2400    7.9964    7.1705 C   0  0  0  0  0  0  0  0  0  0  0  0
   26.4757    8.1570    8.5382 C   0  0  0  0  0  0  0  0  0  0  0  0
   25.4128    8.2352    9.4287 C   0  0  0  0  0  0  0  0  0  0  0  0
   24.0928    8.1447    8.9702 C   0  0  0  0  0  0  0  0  0  0  0  0
   21.4270    6.3289   10.4704 C   0  0  0  0  0  0  0  0  0  0  0  0
   21.1591    5.0292   11.2000 C   0  0  0  0  0  0  0  0  0  0  0  0
   20.1580    5.0140   11.9427 O   0  0  0  0  0  0  0  0  0  0  0  0
   21.9695    4.0975   11.0080 O   0  0  0  0  0  0  0  0  0  0  0  0
   22.6924    4.2181   10.4241 H   0  0  0  0  0  0  0  0  0  0  0  0
 18 19  2  0  0  0
 18 23  1  0  0  0
 18 27  1  0  0  0
 19 20  1  0  0  0
 20 21  2  0  0  0
 21 22  1  0  0  0
 22 23  2  0  0  0
 23 24  1  0  0  0
 24 25  2  0  0  0
 25 26  1  0  0  0
 26 27  2  0  0  0
 27 17  1  0  0  0
 17  1  1  0  0  0
  1 28  1  0  0  0
  1  2  1  0  0  0
 28 29  1  0  0  0
 29 30  2  0  0  0
 29 31  1  0  0  0
  2  3  1  0  0  0
  2 11  1  0  0  0
  3  4  2  0  0  0
  3  5  1  0  0  0
  5  6  2  0  0  0
  5 10  1  0  0  0
  6  7  1  0  0  0
  7 13  1  0  0  0
  7  8  2  0  0  0
 13 14  1  0  0  0
 13 15  2  0  0  0
  8  9  1  0  0  0
  9 10  2  0  0  0
 10 11  1  0  0  0
 11 12  2  0  0  0
 31 32  1  0  0  0
 14 16  1  0  0  0
M  END
> <minimizedAffinity>
-8.08330

$$$$
2R9X_WH6_A_365


 32 35  0  0  0  0  0  0  0  0999 V2000
   22.6659    7.2473   11.2822 C   0  0  0  0  0  0  0  0  0  0  0  0
   23.0959    7.4314   12.6830 N   0  0  0  0  0  0  0  0  0  0  0  0
   23.8086    6.5390   13.4030 C   0  0  0  0  0  0  0  0  0  0  0  0
   24.1350    5.4106   13.0200 O   0  0  0  0  0  0  0  0  0  0  0  0
   24.1172    7.0913   14.6553 C   0  0  0  0  0  0  0  0  0  0  0  0
   24.8001    6.6308   15.7878 C   0  0  0  0  0  0  0  0  0  0  0  0
   24.9157    7.4577   16.9113 C   0  0  0  0  0  0  0  0  0  0  0  0
   24.3567    8.7273   16.9032 C   0  0  0  0  0  0  0  0  0  0  0  0
   23.6709    9.1837   15.7822 C   0  0  0  0  0  0  0  0  0  0  0  0
   23.5510    8.3733   14.6570 C   0  0  0  0  0  0  0  0  0  0  0  0
   22.9463    8.5500   13.4069 C   0  0  0  0  0  0  0  0  0  0  0  0
   22.3393    9.5619   13.0365 O   0  0  0  0  0  0  0  0  0  0  0  0
   25.6498    7.0043   18.1843 C   0  0  0  0  0  0  0  0  0  0  0  0
   26.3743    5.9830   18.1199 O   0  0  0  0  0  0  0  0  0  0  0  0
   25.5155    7.6933   19.2078 O   0  0  0  0  0  0  0  0  0  0  0  0
   26.4362    5.5023   17.3180 H   0  0  0  0  0  0  0  0  0  0  0  0
   23.1167    8.5482   10.5461 C   0  0  0  0  0  0  0  0  0  0  0  0
   24.3832    8.1551    8.3468 C   0  0  0  0  0  0  0  0  0  0  0  0
   25.6011    8.2151    9.0244 C   0  0  0  0  0  0  0  0  0  0  0  0
   26.7989    8.0694    8.3403 C   0  0  0  0  0  0  0  0  0  0  0  0
   26.7871    7.8587    6.9623 C   0  0  0  0  0  0  0  0  0  0  0  0
   25.5809    7.7949    6.2686 C   0  0  0  0  0  0  0  0  0  0  0  0
   24.3765    7.9460    6.9613 C   0  0  0  0  0  0  0  0  0  0  0  0
   23.1708    7.8854    6.2681 C   0  0  0  0  0  0  0  0  0  0  0  0
   21.9684    8.0364    6.9632 C   0  0  0  0  0  0  0  0  0  0  0  0
   21.9729    8.2338    8.3379 C   0  0  0  0  0  0  0  0  0  0  0  0
   23.1809    8.2938    9.0438 C   0  0  0  0  0  0  0  0  0  0  0  0
   21.1655    7.1213   11.0710 C   0  0  0  0  0  0  0  0  0  0  0  0
   20.7440    5.6705   10.9668 C   0  0  0  0  0  0  0  0  0  0  0  0
   20.7359    5.1833    9.8193 O   0  0  0  0  0  0  0  0  0  0  0  0
   20.4267    5.0978   12.0312 O   0  0  0  0  0  0  0  0  0  0  0  0
   20.4701    5.5620   12.8440 H   0  0  0  0  0  0  0  0  0  0  0  0
 18 19  2  0  0  0
 18 23  1  0  0  0
 18 27  1  0  0  0
 19 20  1  0  0  0
 20 21  2  0  0  0
 21 22  1  0  0  0
 22 23  2  0  0  0
 23 24  1  0  0  0
 24 25  2  0  0  0
 25 26  1  0  0  0
 26 27  2  0  0  0
 27 17  1  0  0  0
 17  1  1  0  0  0
  1 28  1  0  0  0
  1  2  1  0  0  0
 28 29  1  0  0  0
 29 30  2  0  0  0
 29 31  1  0  0  0
  2  3  1  0  0  0
  2 11  1  0  0  0
  3  4  2  0  0  0
  3  5  1  0  0  0
  5  6  2  0  0  0
  5 10  1  0  0  0
  6  7  1  0  0  0
  7 13  1  0  0  0
  7  8  2  0  0  0
 13 14  1  0  0  0
 13 15  2  0  0  0
  8  9  1  0  0  0
  9 10  2  0  0  0
 10 11  1  0  0  0
 11 12  2  0  0  0
 31 32  1  0  0  0
 14 16  1  0  0  0
M  END
> <minimizedAffinity>
-7.79939

$$$$
