6EN5_BJ2_A_702


 36 37  0  0  0  0  0  0  0  0999 V2000
   -2.3020   28.0311   -3.8674 C   0  0  0  0  0  0  0  0  0  0  0  0
   -3.4966   28.3910   -4.8655 C   0  0  0  0  0  0  0  0  0  0  0  0
   -4.5827   27.5060   -4.7792 C   0  0  0  0  0  0  0  0  0  0  0  0
   -4.0087   26.2236   -5.4710 C   0  0  0  0  0  0  0  0  0  0  0  0
   -3.1738   26.8366   -6.6610 C   0  0  0  0  0  0  0  0  0  0  0  0
   -2.6066   29.2121   -7.2269 C   0  0  0  0  0  0  0  0  0  0  0  0
   -3.0267   28.1564   -6.3527 N   0  0  0  0  0  0  0  0  0  0  0  0
   -2.5413   30.3673   -6.8626 O   0  0  0  0  0  0  0  0  0  0  0  0
   -2.2098   28.7587   -8.7006 C   0  0  0  0  0  0  0  0  0  0  0  0
   -2.7472   29.7841   -9.5899 N   0  0  0  0  0  0  0  0  0  0  0  0
   -2.3934   30.6983   -9.3078 H   0  0  0  0  0  0  0  0  0  0  0  0
   -3.7657   29.7820   -9.5349 H   0  0  0  0  0  0  0  0  0  0  0  0
   -0.6078   28.6230   -8.7000 C   0  0  0  0  0  0  0  0  0  0  0  0
    0.0731   29.9327   -9.1798 C   0  0  0  0  0  0  0  0  0  0  0  0
   -0.3851   31.0533   -8.7715 O   0  0  0  0  0  0  0  0  0  0  0  0
    1.0652   29.8482   -9.9553 O   0  0  0  0  0  0  0  0  0  0  0  0
   -1.1240   31.0756   -8.1958 H   0  0  0  0  0  0  0  0  0  0  0  0
   -0.8783   28.4687   -4.3539 C   0  0  0  0  0  0  0  0  0  0  0  0
   -0.0572   27.6012   -4.7915 O   0  0  0  0  0  0  0  0  0  0  0  0
   -0.5389   29.7133   -4.2990 O   0  0  0  0  0  0  0  0  0  0  0  0
   -0.3057   26.6986   -4.8304 H   0  0  0  0  0  0  0  0  0  0  0  0
   -2.7094   28.7477   -2.6310 N   0  0  0  0  0  0  0  0  0  0  0  0
   -3.5761   28.3364   -2.2843 H   0  0  0  0  0  0  0  0  0  0  0  0
   -2.1026   29.5748   -0.4194 C   0  0  0  0  0  0  0  0  0  0  0  0
   -1.6735   28.6624   -1.5560 C   0  0  0  0  0  0  0  0  0  0  0  0
   -1.5879   27.2009   -1.0693 C   0  0  0  0  0  0  0  0  0  0  0  0
    0.7705   27.5411   -0.2610 C   0  0  0  0  0  0  0  0  0  0  0  0
    1.8826   26.5399    0.2200 C   0  0  0  0  0  0  0  0  0  0  0  0
    1.0692   25.3426    0.8083 C   0  0  0  0  0  0  0  0  0  0  0  0
   -0.1487   25.3301    0.1617 C   0  0  0  0  0  0  0  0  0  0  0  0
   -0.3358   26.7845   -0.4454 N   0  0  0  0  0  0  0  0  0  0  0  0
   -2.4960   26.4177   -1.1422 O   0  0  0  0  0  0  0  0  0  0  0  0
   -1.3015   25.1390    1.1440 C   0  0  0  0  0  0  0  0  0  0  0  0
   -2.1266   24.2059    1.0188 O   0  0  0  0  0  0  0  0  0  0  0  0
   -1.4160   25.9208    2.1196 O   0  0  0  0  0  0  0  0  0  0  0  0
   -2.0569   23.6125    0.2970 H   0  0  0  0  0  0  0  0  0  0  0  0
 16 14  2  0  0  0
 15 14  1  0  0  0
 14 13  1  0  0  0
 10  9  1  0  0  0
  9 13  1  0  0  0
  9  6  1  0  0  0
  6  8  2  0  0  0
  6  7  1  0  0  0
  5  7  1  0  0  0
  5  4  1  0  0  0
  7  2  1  0  0  0
  4  3  1  0  0  0
  3  2  1  0  0  0
  2  1  1  0  0  0
 20 18  2  0  0  0
 18 19  1  0  0  0
 18  1  1  0  0  0
  1 22  1  0  0  0
 22 25  1  0  0  0
 25 26  1  0  0  0
 25 24  1  0  0  0
 32 26  2  0  0  0
 26 31  1  0  0  0
 31 27  1  0  0  0
 31 30  1  0  0  0
 27 28  1  0  0  0
 30 29  1  0  0  0
 30 33  1  0  0  0
 28 29  1  0  0  0
 33 35  2  0  0  0
 33 34  1  0  0  0
 22 23  1  0  0  0
 10 11  1  0  0  0
 10 12  1  0  0  0
 19 21  1  0  0  0
 15 17  1  0  0  0
 34 36  1  0  0  0
M  END
> <minimizedAffinity>
-9.36202

$$$$
6EN5_BJ2_A_702


 36 37  0  0  0  0  0  0  0  0999 V2000
   -2.2731   28.1401   -3.9301 C   0  0  0  0  0  0  0  0  0  0  0  0
   -3.4866   28.4660   -4.9170 C   0  0  0  0  0  0  0  0  0  0  0  0
   -4.5578   27.5663   -4.8015 C   0  0  0  0  0  0  0  0  0  0  0  0
   -3.9738   26.2817   -5.4808 C   0  0  0  0  0  0  0  0  0  0  0  0
   -3.1648   26.8879   -6.6919 C   0  0  0  0  0  0  0  0  0  0  0  0
   -2.6416   29.2623   -7.3034 C   0  0  0  0  0  0  0  0  0  0  0  0
   -3.0336   28.2146   -6.4067 N   0  0  0  0  0  0  0  0  0  0  0  0
   -2.5889   30.4240   -6.9583 O   0  0  0  0  0  0  0  0  0  0  0  0
   -2.2582   28.7913   -8.7750 C   0  0  0  0  0  0  0  0  0  0  0  0
   -2.7686   29.8263   -9.6690 N   0  0  0  0  0  0  0  0  0  0  0  0
   -2.3903   30.7320   -9.3916 H   0  0  0  0  0  0  0  0  0  0  0  0
   -3.7868   29.8517   -9.6134 H   0  0  0  0  0  0  0  0  0  0  0  0
   -0.6603   28.6127   -8.7747 C   0  0  0  0  0  0  0  0  0  0  0  0
    0.0563   29.9131   -9.2271 C   0  0  0  0  0  0  0  0  0  0  0  0
   -0.3884   31.0387   -8.8176 O   0  0  0  0  0  0  0  0  0  0  0  0
    1.0628   29.8162   -9.9823 O   0  0  0  0  0  0  0  0  0  0  0  0
   -1.1388   31.0702   -8.2574 H   0  0  0  0  0  0  0  0  0  0  0  0
   -0.8528   28.4984   -4.4865 C   0  0  0  0  0  0  0  0  0  0  0  0
   -0.1221   27.5949   -5.0043 O   0  0  0  0  0  0  0  0  0  0  0  0
   -0.4234   29.7135   -4.4075 O   0  0  0  0  0  0  0  0  0  0  0  0
   -0.4358   26.7138   -5.0606 H   0  0  0  0  0  0  0  0  0  0  0  0
   -2.6219   28.9539   -2.7366 N   0  0  0  0  0  0  0  0  0  0  0  0
   -3.5919   29.2582   -2.8195 H   0  0  0  0  0  0  0  0  0  0  0  0
   -1.6183   26.9625   -1.7517 C   0  0  0  0  0  0  0  0  0  0  0  0
   -2.4655   28.1896   -1.4609 C   0  0  0  0  0  0  0  0  0  0  0  0
   -1.7639   29.0948   -0.4272 C   0  0  0  0  0  0  0  0  0  0  0  0
   -2.9502   27.9512    1.4744 C   0  0  0  0  0  0  0  0  0  0  0  0
   -3.0952   28.3021    2.9996 C   0  0  0  0  0  0  0  0  0  0  0  0
   -1.7881   29.0961    3.3196 C   0  0  0  0  0  0  0  0  0  0  0  0
   -1.3762   29.6807    2.1405 C   0  0  0  0  0  0  0  0  0  0  0  0
   -2.0858   28.8659    0.9780 N   0  0  0  0  0  0  0  0  0  0  0  0
   -0.9537   29.9343   -0.7143 O   0  0  0  0  0  0  0  0  0  0  0  0
    0.1233   29.4982    1.9198 C   0  0  0  0  0  0  0  0  0  0  0  0
    0.8683   30.4602    1.6254 O   0  0  0  0  0  0  0  0  0  0  0  0
    0.6328   28.3594    2.0599 O   0  0  0  0  0  0  0  0  0  0  0  0
    0.5058   31.3174    1.5168 H   0  0  0  0  0  0  0  0  0  0  0  0
 16 14  2  0  0  0
 15 14  1  0  0  0
 14 13  1  0  0  0
 10  9  1  0  0  0
  9 13  1  0  0  0
  9  6  1  0  0  0
  6  8  2  0  0  0
  6  7  1  0  0  0
  5  7  1  0  0  0
  5  4  1  0  0  0
  7  2  1  0  0  0
  4  3  1  0  0  0
  3  2  1  0  0  0
  2  1  1  0  0  0
 20 18  2  0  0  0
 18 19  1  0  0  0
 18  1  1  0  0  0
  1 22  1  0  0  0
 22 25  1  0  0  0
 25 26  1  0  0  0
 25 24  1  0  0  0
 32 26  2  0  0  0
 26 31  1  0  0  0
 31 27  1  0  0  0
 31 30  1  0  0  0
 27 28  1  0  0  0
 30 29  1  0  0  0
 30 33  1  0  0  0
 28 29  1  0  0  0
 33 35  2  0  0  0
 33 34  1  0  0  0
 22 23  1  0  0  0
 10 11  1  0  0  0
 10 12  1  0  0  0
 19 21  1  0  0  0
 15 17  1  0  0  0
 34 36  1  0  0  0
M  END
> <minimizedAffinity>
-8.62904

$$$$
6EN5_BJ2_A_702


 36 37  0  0  0  0  0  0  0  0999 V2000
   -2.6083   28.8374    3.8287 C   0  0  0  0  0  0  0  0  0  0  0  0
   -3.6998   28.3441    4.8861 C   0  0  0  0  0  0  0  0  0  0  0  0
   -3.8618   26.9501    4.9128 C   0  0  0  0  0  0  0  0  0  0  0  0
   -4.6255   26.6891    3.5707 C   0  0  0  0  0  0  0  0  0  0  0  0
   -5.6151   27.9162    3.5104 C   0  0  0  0  0  0  0  0  0  0  0  0
   -5.8099   29.9518    4.9608 C   0  0  0  0  0  0  0  0  0  0  0  0
   -5.1320   28.8110    4.4186 N   0  0  0  0  0  0  0  0  0  0  0  0
   -5.3021   30.6705    5.7957 O   0  0  0  0  0  0  0  0  0  0  0  0
   -7.2648   30.2223    4.3736 C   0  0  0  0  0  0  0  0  0  0  0  0
   -8.0505   30.7482    5.4858 N   0  0  0  0  0  0  0  0  0  0  0  0
   -7.5821   31.5658    5.8763 H   0  0  0  0  0  0  0  0  0  0  0  0
   -8.1417   30.0320    6.2063 H   0  0  0  0  0  0  0  0  0  0  0  0
   -7.0579   31.2341    3.1414 C   0  0  0  0  0  0  0  0  0  0  0  0
   -6.2923   32.5116    3.5782 C   0  0  0  0  0  0  0  0  0  0  0  0
   -6.6600   33.1203    4.6398 O   0  0  0  0  0  0  0  0  0  0  0  0
   -5.3234   32.9059    2.8721 O   0  0  0  0  0  0  0  0  0  0  0  0
   -7.3846   32.7969    5.1381 H   0  0  0  0  0  0  0  0  0  0  0  0
   -2.9312   30.2033    3.1322 C   0  0  0  0  0  0  0  0  0  0  0  0
   -2.9461   31.2794    3.8106 O   0  0  0  0  0  0  0  0  0  0  0  0
   -3.1924   30.2300    1.8680 O   0  0  0  0  0  0  0  0  0  0  0  0
   -2.7562   31.2576    4.7279 H   0  0  0  0  0  0  0  0  0  0  0  0
   -1.3842   28.9191    4.6674 N   0  0  0  0  0  0  0  0  0  0  0  0
   -1.4884   28.2876    5.4616 H   0  0  0  0  0  0  0  0  0  0  0  0
    0.9162   28.1532    4.9222 C   0  0  0  0  0  0  0  0  0  0  0  0
   -0.1503   28.5413    3.9120 C   0  0  0  0  0  0  0  0  0  0  0  0
   -0.4813   27.3467    2.9936 C   0  0  0  0  0  0  0  0  0  0  0  0
   -0.1054   28.7431    0.9346 C   0  0  0  0  0  0  0  0  0  0  0  0
   -0.4199   28.4985   -0.5859 C   0  0  0  0  0  0  0  0  0  0  0  0
   -0.3527   26.9441   -0.7294 C   0  0  0  0  0  0  0  0  0  0  0  0
   -0.6595   26.4146    0.5064 C   0  0  0  0  0  0  0  0  0  0  0  0
   -0.4133   27.5807    1.5545 N   0  0  0  0  0  0  0  0  0  0  0  0
   -0.7481   26.2469    3.3973 O   0  0  0  0  0  0  0  0  0  0  0  0
    0.3079   25.2985    0.8924 C   0  0  0  0  0  0  0  0  0  0  0  0
   -0.0948   24.2089    1.3591 O   0  0  0  0  0  0  0  0  0  0  0  0
    1.5401   25.4627    0.7166 O   0  0  0  0  0  0  0  0  0  0  0  0
   -1.0109   24.0684    1.4971 H   0  0  0  0  0  0  0  0  0  0  0  0
 16 14  2  0  0  0
 15 14  1  0  0  0
 14 13  1  0  0  0
 10  9  1  0  0  0
  9 13  1  0  0  0
  9  6  1  0  0  0
  6  8  2  0  0  0
  6  7  1  0  0  0
  5  7  1  0  0  0
  5  4  1  0  0  0
  7  2  1  0  0  0
  4  3  1  0  0  0
  3  2  1  0  0  0
  2  1  1  0  0  0
 20 18  2  0  0  0
 18 19  1  0  0  0
 18  1  1  0  0  0
  1 22  1  0  0  0
 22 25  1  0  0  0
 25 26  1  0  0  0
 25 24  1  0  0  0
 32 26  2  0  0  0
 26 31  1  0  0  0
 31 27  1  0  0  0
 31 30  1  0  0  0
 27 28  1  0  0  0
 30 29  1  0  0  0
 30 33  1  0  0  0
 28 29  1  0  0  0
 33 35  2  0  0  0
 33 34  1  0  0  0
 22 23  1  0  0  0
 10 11  1  0  0  0
 10 12  1  0  0  0
 19 21  1  0  0  0
 15 17  1  0  0  0
 34 36  1  0  0  0
M  END
> <minimizedAffinity>
-8.57304

$$$$
6EN5_BJ2_A_702


 36 37  0  0  0  0  0  0  0  0999 V2000
   -0.9507   28.7606    2.7492 C   0  0  0  0  0  0  0  0  0  0  0  0
    0.2865   29.3318    1.9150 C   0  0  0  0  0  0  0  0  0  0  0  0
   -0.0853   30.2562    0.9263 C   0  0  0  0  0  0  0  0  0  0  0  0
   -0.7502   29.3295   -0.1469 C   0  0  0  0  0  0  0  0  0  0  0  0
    0.1885   28.0620   -0.1153 C   0  0  0  0  0  0  0  0  0  0  0  0
    2.0908   27.4550    1.4006 C   0  0  0  0  0  0  0  0  0  0  0  0
    0.9064   28.1767    1.0381 N   0  0  0  0  0  0  0  0  0  0  0  0
    2.6789   27.6569    2.4422 O   0  0  0  0  0  0  0  0  0  0  0  0
    2.5658   26.3549    0.3523 C   0  0  0  0  0  0  0  0  0  0  0  0
    3.9650   26.6570    0.0661 N   0  0  0  0  0  0  0  0  0  0  0  0
    4.4931   26.6807    0.9385 H   0  0  0  0  0  0  0  0  0  0  0  0
    4.0295   27.5645   -0.3951 H   0  0  0  0  0  0  0  0  0  0  0  0
    2.3016   24.9349    1.0585 C   0  0  0  0  0  0  0  0  0  0  0  0
    0.7838   24.6313    1.1727 C   0  0  0  0  0  0  0  0  0  0  0  0
    0.2077   24.7758    2.3040 O   0  0  0  0  0  0  0  0  0  0  0  0
    0.1636   24.2565    0.1395 O   0  0  0  0  0  0  0  0  0  0  0  0
    0.7020   25.0561    3.0491 H   0  0  0  0  0  0  0  0  0  0  0  0
   -0.5799   27.6985    3.8398 C   0  0  0  0  0  0  0  0  0  0  0  0
   -1.2107   26.5954    3.8990 O   0  0  0  0  0  0  0  0  0  0  0  0
    0.3627   27.9527    4.6849 O   0  0  0  0  0  0  0  0  0  0  0  0
   -1.8944   26.4131    3.2847 H   0  0  0  0  0  0  0  0  0  0  0  0
   -1.5129   29.9982    3.3498 N   0  0  0  0  0  0  0  0  0  0  0  0
   -1.8137   30.6195    2.5988 H   0  0  0  0  0  0  0  0  0  0  0  0
   -2.2770   30.0591    5.6640 C   0  0  0  0  0  0  0  0  0  0  0  0
   -2.6817   29.7190    4.2396 C   0  0  0  0  0  0  0  0  0  0  0  0
   -3.8643   30.6025    3.7911 C   0  0  0  0  0  0  0  0  0  0  0  0
   -5.4306   28.6336    3.8233 C   0  0  0  0  0  0  0  0  0  0  0  0
   -6.8927   28.4314    3.2831 C   0  0  0  0  0  0  0  0  0  0  0  0
   -7.5115   29.8643    3.3529 C   0  0  0  0  0  0  0  0  0  0  0  0
   -6.4658   30.7573    3.2482 C   0  0  0  0  0  0  0  0  0  0  0  0
   -5.1578   29.9450    3.6334 N   0  0  0  0  0  0  0  0  0  0  0  0
   -3.7819   31.7871    3.6074 O   0  0  0  0  0  0  0  0  0  0  0  0
   -6.5795   31.8752    4.2816 C   0  0  0  0  0  0  0  0  0  0  0  0
   -6.4409   33.0793    3.9683 O   0  0  0  0  0  0  0  0  0  0  0  0
   -6.8432   31.5872    5.4748 O   0  0  0  0  0  0  0  0  0  0  0  0
   -6.2440   33.3133    3.0826 H   0  0  0  0  0  0  0  0  0  0  0  0
 16 14  2  0  0  0
 15 14  1  0  0  0
 14 13  1  0  0  0
 10  9  1  0  0  0
  9 13  1  0  0  0
  9  6  1  0  0  0
  6  8  2  0  0  0
  6  7  1  0  0  0
  5  7  1  0  0  0
  5  4  1  0  0  0
  7  2  1  0  0  0
  4  3  1  0  0  0
  3  2  1  0  0  0
  2  1  1  0  0  0
 20 18  2  0  0  0
 18 19  1  0  0  0
 18  1  1  0  0  0
  1 22  1  0  0  0
 22 25  1  0  0  0
 25 26  1  0  0  0
 25 24  1  0  0  0
 32 26  2  0  0  0
 26 31  1  0  0  0
 31 27  1  0  0  0
 31 30  1  0  0  0
 27 28  1  0  0  0
 30 29  1  0  0  0
 30 33  1  0  0  0
 28 29  1  0  0  0
 33 35  2  0  0  0
 33 34  1  0  0  0
 22 23  1  0  0  0
 10 11  1  0  0  0
 10 12  1  0  0  0
 19 21  1  0  0  0
 15 17  1  0  0  0
 34 36  1  0  0  0
M  END
> <minimizedAffinity>
-8.54954

$$$$
6EN5_BJ2_A_702


 36 37  0  0  0  0  0  0  0  0999 V2000
   -2.5414   28.5121    3.9578 C   0  0  0  0  0  0  0  0  0  0  0  0
   -3.6684   28.1483    5.0303 C   0  0  0  0  0  0  0  0  0  0  0  0
   -3.7069   26.7844    5.3596 C   0  0  0  0  0  0  0  0  0  0  0  0
   -4.3302   26.1585    4.0663 C   0  0  0  0  0  0  0  0  0  0  0  0
   -5.4170   27.2316    3.6715 C   0  0  0  0  0  0  0  0  0  0  0  0
   -5.9127   29.5017    4.6128 C   0  0  0  0  0  0  0  0  0  0  0  0
   -5.0929   28.3484    4.3832 N   0  0  0  0  0  0  0  0  0  0  0  0
   -5.5422   30.4343    5.2943 O   0  0  0  0  0  0  0  0  0  0  0  0
   -7.3322   29.4828    3.8921 C   0  0  0  0  0  0  0  0  0  0  0  0
   -8.1605   30.4385    4.6211 N   0  0  0  0  0  0  0  0  0  0  0  0
   -7.6961   31.3464    4.6395 H   0  0  0  0  0  0  0  0  0  0  0  0
   -8.3000   30.1085    5.5761 H   0  0  0  0  0  0  0  0  0  0  0  0
   -7.0469   29.8559    2.3544 C   0  0  0  0  0  0  0  0  0  0  0  0
   -6.6327   31.3436    2.1986 C   0  0  0  0  0  0  0  0  0  0  0  0
   -7.5438   32.2388    2.1645 O   0  0  0  0  0  0  0  0  0  0  0  0
   -5.4047   31.6230    2.1169 O   0  0  0  0  0  0  0  0  0  0  0  0
   -8.4455   31.9922    2.2280 H   0  0  0  0  0  0  0  0  0  0  0  0
   -2.6286   29.9628    3.3720 C   0  0  0  0  0  0  0  0  0  0  0  0
   -2.9030   30.9445    4.1332 O   0  0  0  0  0  0  0  0  0  0  0  0
   -2.4307   30.1556    2.1108 O   0  0  0  0  0  0  0  0  0  0  0  0
   -3.0462   30.8021    5.0482 H   0  0  0  0  0  0  0  0  0  0  0  0
   -1.2953   28.3048    4.7405 N   0  0  0  0  0  0  0  0  0  0  0  0
   -1.5357   27.8652    5.6289 H   0  0  0  0  0  0  0  0  0  0  0  0
   -0.9521   26.9748    2.7265 C   0  0  0  0  0  0  0  0  0  0  0  0
   -0.3116   27.4354    4.0249 C   0  0  0  0  0  0  0  0  0  0  0  0
    0.9575   28.2632    3.7344 C   0  0  0  0  0  0  0  0  0  0  0  0
    2.3777   26.6742    5.0720 C   0  0  0  0  0  0  0  0  0  0  0  0
    3.8561   26.7584    5.5992 C   0  0  0  0  0  0  0  0  0  0  0  0
    4.5663   27.6787    4.5553 C   0  0  0  0  0  0  0  0  0  0  0  0
    3.5948   28.4941    4.0142 C   0  0  0  0  0  0  0  0  0  0  0  0
    2.2102   27.7734    4.3013 N   0  0  0  0  0  0  0  0  0  0  0  0
    0.9703   29.2483    3.0466 O   0  0  0  0  0  0  0  0  0  0  0  0
    3.7141   28.5735    2.4943 C   0  0  0  0  0  0  0  0  0  0  0  0
    3.6390   29.6635    1.8831 O   0  0  0  0  0  0  0  0  0  0  0  0
    3.9174   27.5239    1.8364 O   0  0  0  0  0  0  0  0  0  0  0  0
    3.4877   30.4572    2.3575 H   0  0  0  0  0  0  0  0  0  0  0  0
 16 14  2  0  0  0
 15 14  1  0  0  0
 14 13  1  0  0  0
 10  9  1  0  0  0
  9 13  1  0  0  0
  9  6  1  0  0  0
  6  8  2  0  0  0
  6  7  1  0  0  0
  5  7  1  0  0  0
  5  4  1  0  0  0
  7  2  1  0  0  0
  4  3  1  0  0  0
  3  2  1  0  0  0
  2  1  1  0  0  0
 20 18  2  0  0  0
 18 19  1  0  0  0
 18  1  1  0  0  0
  1 22  1  0  0  0
 22 25  1  0  0  0
 25 26  1  0  0  0
 25 24  1  0  0  0
 32 26  2  0  0  0
 26 31  1  0  0  0
 31 27  1  0  0  0
 31 30  1  0  0  0
 27 28  1  0  0  0
 30 29  1  0  0  0
 30 33  1  0  0  0
 28 29  1  0  0  0
 33 35  2  0  0  0
 33 34  1  0  0  0
 22 23  1  0  0  0
 10 11  1  0  0  0
 10 12  1  0  0  0
 19 21  1  0  0  0
 15 17  1  0  0  0
 34 36  1  0  0  0
M  END
> <minimizedAffinity>
-8.43524

$$$$
6EN5_BJ2_A_702


 36 37  0  0  0  0  0  0  0  0999 V2000
   -2.2584   29.2608    3.0312 C   0  0  0  0  0  0  0  0  0  0  0  0
   -2.6053   30.0931    4.3501 C   0  0  0  0  0  0  0  0  0  0  0  0
   -1.9856   29.5926    5.5058 C   0  0  0  0  0  0  0  0  0  0  0  0
   -2.8052   28.2844    5.7696 C   0  0  0  0  0  0  0  0  0  0  0  0
   -4.2731   28.7367    5.4096 C   0  0  0  0  0  0  0  0  0  0  0  0
   -5.1452   30.8606    4.4027 C   0  0  0  0  0  0  0  0  0  0  0  0
   -4.1286   29.8973    4.7089 N   0  0  0  0  0  0  0  0  0  0  0  0
   -4.9056   31.8853    3.7994 O   0  0  0  0  0  0  0  0  0  0  0  0
   -6.6127   30.4802    4.8889 C   0  0  0  0  0  0  0  0  0  0  0  0
   -7.1666   31.6988    5.4713 N   0  0  0  0  0  0  0  0  0  0  0  0
   -7.1189   32.4544    4.7877 H   0  0  0  0  0  0  0  0  0  0  0  0
   -6.6287   31.9549    6.2992 H   0  0  0  0  0  0  0  0  0  0  0  0
   -7.3779   29.9346    3.5845 C   0  0  0  0  0  0  0  0  0  0  0  0
   -7.5577   28.3937    3.6347 C   0  0  0  0  0  0  0  0  0  0  0  0
   -6.8724   27.6650    2.8398 O   0  0  0  0  0  0  0  0  0  0  0  0
   -8.3731   27.9078    4.4665 O   0  0  0  0  0  0  0  0  0  0  0  0
   -6.2767   28.0627    2.2357 H   0  0  0  0  0  0  0  0  0  0  0  0
   -3.3319   29.3463    1.8930 C   0  0  0  0  0  0  0  0  0  0  0  0
   -4.1803   28.4104    1.7424 O   0  0  0  0  0  0  0  0  0  0  0  0
   -3.3447   30.3667    1.1020 O   0  0  0  0  0  0  0  0  0  0  0  0
   -4.1691   27.6708    2.3176 H   0  0  0  0  0  0  0  0  0  0  0  0
   -0.9648   29.8650    2.6190 N   0  0  0  0  0  0  0  0  0  0  0  0
   -0.6600   30.5136    3.3448 H   0  0  0  0  0  0  0  0  0  0  0  0
    0.5837   28.9459    0.9756 C   0  0  0  0  0  0  0  0  0  0  0  0
    0.1029   28.8386    2.4128 C   0  0  0  0  0  0  0  0  0  0  0  0
    1.2606   29.1290    3.3903 C   0  0  0  0  0  0  0  0  0  0  0  0
    1.5089   26.6825    3.9236 C   0  0  0  0  0  0  0  0  0  0  0  0
    2.3101   25.9147    5.0367 C   0  0  0  0  0  0  0  0  0  0  0  0
    3.5181   26.8590    5.3372 C   0  0  0  0  0  0  0  0  0  0  0  0
    3.1110   28.1400    5.0289 C   0  0  0  0  0  0  0  0  0  0  0  0
    1.8659   27.9806    4.0577 N   0  0  0  0  0  0  0  0  0  0  0  0
    1.7040   30.2269    3.5942 O   0  0  0  0  0  0  0  0  0  0  0  0
    4.1724   28.8856    4.2239 C   0  0  0  0  0  0  0  0  0  0  0  0
    4.5210   30.0525    4.5139 O   0  0  0  0  0  0  0  0  0  0  0  0
    4.7320   28.3093    3.2591 O   0  0  0  0  0  0  0  0  0  0  0  0
    4.1144   30.4984    5.2307 H   0  0  0  0  0  0  0  0  0  0  0  0
 16 14  2  0  0  0
 15 14  1  0  0  0
 14 13  1  0  0  0
 10  9  1  0  0  0
  9 13  1  0  0  0
  9  6  1  0  0  0
  6  8  2  0  0  0
  6  7  1  0  0  0
  5  7  1  0  0  0
  5  4  1  0  0  0
  7  2  1  0  0  0
  4  3  1  0  0  0
  3  2  1  0  0  0
  2  1  1  0  0  0
 20 18  2  0  0  0
 18 19  1  0  0  0
 18  1  1  0  0  0
  1 22  1  0  0  0
 22 25  1  0  0  0
 25 26  1  0  0  0
 25 24  1  0  0  0
 32 26  2  0  0  0
 26 31  1  0  0  0
 31 27  1  0  0  0
 31 30  1  0  0  0
 27 28  1  0  0  0
 30 29  1  0  0  0
 30 33  1  0  0  0
 28 29  1  0  0  0
 33 35  2  0  0  0
 33 34  1  0  0  0
 22 23  1  0  0  0
 10 11  1  0  0  0
 10 12  1  0  0  0
 19 21  1  0  0  0
 15 17  1  0  0  0
 34 36  1  0  0  0
M  END
> <minimizedAffinity>
-8.19932

$$$$
6EN5_BJ2_A_702


 36 37  0  0  0  0  0  0  0  0999 V2000
   -2.7300   29.3405   -8.2486 C   0  0  0  0  0  0  0  0  0  0  0  0
   -2.6845   27.9021   -7.5545 C   0  0  0  0  0  0  0  0  0  0  0  0
   -3.7580   27.0732   -7.9158 C   0  0  0  0  0  0  0  0  0  0  0  0
   -4.9476   27.7291   -7.1365 C   0  0  0  0  0  0  0  0  0  0  0  0
   -4.2676   28.1248   -5.7690 C   0  0  0  0  0  0  0  0  0  0  0  0
   -1.8730   28.0403   -5.0316 C   0  0  0  0  0  0  0  0  0  0  0  0
   -2.9262   28.0596   -6.0039 N   0  0  0  0  0  0  0  0  0  0  0  0
   -0.7048   27.9445   -5.3441 O   0  0  0  0  0  0  0  0  0  0  0  0
   -2.3422   28.1770   -3.5164 C   0  0  0  0  0  0  0  0  0  0  0  0
   -2.8239   26.8545   -3.1289 N   0  0  0  0  0  0  0  0  0  0  0  0
   -2.0919   26.1639   -3.2951 H   0  0  0  0  0  0  0  0  0  0  0  0
   -3.6473   26.6170   -3.6820 H   0  0  0  0  0  0  0  0  0  0  0  0
   -1.0569   28.7029   -2.7062 C   0  0  0  0  0  0  0  0  0  0  0  0
   -1.3046   28.6838   -1.1742 C   0  0  0  0  0  0  0  0  0  0  0  0
   -2.5071   28.6759   -0.7423 O   0  0  0  0  0  0  0  0  0  0  0  0
   -0.3069   28.6700   -0.4014 O   0  0  0  0  0  0  0  0  0  0  0  0
   -3.2223   28.6868   -1.3474 H   0  0  0  0  0  0  0  0  0  0  0  0
   -1.5246   30.2804   -7.9037 C   0  0  0  0  0  0  0  0  0  0  0  0
   -1.5329   30.9638   -6.8308 O   0  0  0  0  0  0  0  0  0  0  0  0
   -0.5271   30.3656   -8.7192 O   0  0  0  0  0  0  0  0  0  0  0  0
   -2.2579   30.9003   -6.2405 H   0  0  0  0  0  0  0  0  0  0  0  0
   -2.7593   28.9839   -9.6909 N   0  0  0  0  0  0  0  0  0  0  0  0
   -2.6968   27.9697   -9.7791 H   0  0  0  0  0  0  0  0  0  0  0  0
   -4.6262   30.5413   -9.5100 C   0  0  0  0  0  0  0  0  0  0  0  0
   -4.0095   29.4487  -10.3669 C   0  0  0  0  0  0  0  0  0  0  0  0
   -3.6404   30.0012  -11.7592 C   0  0  0  0  0  0  0  0  0  0  0  0
   -5.9808   29.6209  -12.6011 C   0  0  0  0  0  0  0  0  0  0  0  0
   -6.6099   29.6570  -14.0411 C   0  0  0  0  0  0  0  0  0  0  0  0
   -5.7081   30.6748  -14.8105 C   0  0  0  0  0  0  0  0  0  0  0  0
   -4.4698   30.6502  -14.2042 C   0  0  0  0  0  0  0  0  0  0  0  0
   -4.7033   30.0372  -12.7590 N   0  0  0  0  0  0  0  0  0  0  0  0
   -2.5543   30.4303  -12.0419 O   0  0  0  0  0  0  0  0  0  0  0  0
   -3.9312   32.0601  -13.9749 C   0  0  0  0  0  0  0  0  0  0  0  0
   -2.7448   32.3632  -14.2352 O   0  0  0  0  0  0  0  0  0  0  0  0
   -4.7006   32.9501  -13.5368 O   0  0  0  0  0  0  0  0  0  0  0  0
   -2.1561   31.7121  -14.5630 H   0  0  0  0  0  0  0  0  0  0  0  0
 16 14  2  0  0  0
 15 14  1  0  0  0
 14 13  1  0  0  0
 10  9  1  0  0  0
  9 13  1  0  0  0
  9  6  1  0  0  0
  6  8  2  0  0  0
  6  7  1  0  0  0
  5  7  1  0  0  0
  5  4  1  0  0  0
  7  2  1  0  0  0
  4  3  1  0  0  0
  3  2  1  0  0  0
  2  1  1  0  0  0
 20 18  2  0  0  0
 18 19  1  0  0  0
 18  1  1  0  0  0
  1 22  1  0  0  0
 22 25  1  0  0  0
 25 26  1  0  0  0
 25 24  1  0  0  0
 32 26  2  0  0  0
 26 31  1  0  0  0
 31 27  1  0  0  0
 31 30  1  0  0  0
 27 28  1  0  0  0
 30 29  1  0  0  0
 30 33  1  0  0  0
 28 29  1  0  0  0
 33 35  2  0  0  0
 33 34  1  0  0  0
 22 23  1  0  0  0
 10 11  1  0  0  0
 10 12  1  0  0  0
 19 21  1  0  0  0
 15 17  1  0  0  0
 34 36  1  0  0  0
M  END
> <minimizedAffinity>
-8.15315

$$$$
6EN5_BJ2_A_702


 36 37  0  0  0  0  0  0  0  0999 V2000
   -1.4432   29.1027  -10.0239 C   0  0  0  0  0  0  0  0  0  0  0  0
   -1.3546   29.5839  -11.5449 C   0  0  0  0  0  0  0  0  0  0  0  0
   -2.5732   29.4844  -12.2343 C   0  0  0  0  0  0  0  0  0  0  0  0
   -2.7061   27.9365  -12.4314 C   0  0  0  0  0  0  0  0  0  0  0  0
   -1.2191   27.5156  -12.7481 C   0  0  0  0  0  0  0  0  0  0  0  0
    0.9148   28.8305  -12.6959 C   0  0  0  0  0  0  0  0  0  0  0  0
   -0.4562   28.5776  -12.3622 N   0  0  0  0  0  0  0  0  0  0  0  0
    1.4970   29.8294  -12.3288 O   0  0  0  0  0  0  0  0  0  0  0  0
    1.6253   27.6983  -13.5607 C   0  0  0  0  0  0  0  0  0  0  0  0
    2.2684   28.3924  -14.6723 N   0  0  0  0  0  0  0  0  0  0  0  0
    2.8906   29.1140  -14.3083 H   0  0  0  0  0  0  0  0  0  0  0  0
    1.5561   28.8233  -15.2618 H   0  0  0  0  0  0  0  0  0  0  0  0
    2.6254   26.9420  -12.5543 C   0  0  0  0  0  0  0  0  0  0  0  0
    1.8697   25.9177  -11.6662 C   0  0  0  0  0  0  0  0  0  0  0  0
    1.5166   26.2629  -10.4877 O   0  0  0  0  0  0  0  0  0  0  0  0
    1.6215   24.7748  -12.1404 O   0  0  0  0  0  0  0  0  0  0  0  0
    1.7191   27.1211  -10.1705 H   0  0  0  0  0  0  0  0  0  0  0  0
   -0.0962   29.1759   -9.2268 C   0  0  0  0  0  0  0  0  0  0  0  0
    0.7010   30.1510   -9.4062 O   0  0  0  0  0  0  0  0  0  0  0  0
    0.2056   28.2363   -8.3944 O   0  0  0  0  0  0  0  0  0  0  0  0
    0.4798   30.8318  -10.0109 H   0  0  0  0  0  0  0  0  0  0  0  0
   -2.4660   30.0272   -9.4692 N   0  0  0  0  0  0  0  0  0  0  0  0
   -3.0154   30.4082  -10.2395 H   0  0  0  0  0  0  0  0  0  0  0  0
   -3.4196   27.8674   -8.8617 C   0  0  0  0  0  0  0  0  0  0  0  0
   -3.3899   29.3455   -8.5113 C   0  0  0  0  0  0  0  0  0  0  0  0
   -2.8521   29.5480   -7.0795 C   0  0  0  0  0  0  0  0  0  0  0  0
   -4.0104   27.4620   -6.2808 C   0  0  0  0  0  0  0  0  0  0  0  0
   -4.2792   26.8805   -4.8454 C   0  0  0  0  0  0  0  0  0  0  0  0
   -3.0880   27.4308   -3.9972 C   0  0  0  0  0  0  0  0  0  0  0  0
   -2.6772   28.6025   -4.5972 C   0  0  0  0  0  0  0  0  0  0  0  0
   -3.2256   28.5466   -6.0855 N   0  0  0  0  0  0  0  0  0  0  0  0
   -2.1246   30.4492   -6.7599 O   0  0  0  0  0  0  0  0  0  0  0  0
   -1.1567   28.6660   -4.7173 C   0  0  0  0  0  0  0  0  0  0  0  0
   -0.5188   27.8701   -5.4431 O   0  0  0  0  0  0  0  0  0  0  0  0
   -0.5256   29.5538   -4.0930 O   0  0  0  0  0  0  0  0  0  0  0  0
   -0.9728   27.2010   -5.9165 H   0  0  0  0  0  0  0  0  0  0  0  0
 16 14  2  0  0  0
 15 14  1  0  0  0
 14 13  1  0  0  0
 10  9  1  0  0  0
  9 13  1  0  0  0
  9  6  1  0  0  0
  6  8  2  0  0  0
  6  7  1  0  0  0
  5  7  1  0  0  0
  5  4  1  0  0  0
  7  2  1  0  0  0
  4  3  1  0  0  0
  3  2  1  0  0  0
  2  1  1  0  0  0
 20 18  2  0  0  0
 18 19  1  0  0  0
 18  1  1  0  0  0
  1 22  1  0  0  0
 22 25  1  0  0  0
 25 26  1  0  0  0
 25 24  1  0  0  0
 32 26  2  0  0  0
 26 31  1  0  0  0
 31 27  1  0  0  0
 31 30  1  0  0  0
 27 28  1  0  0  0
 30 29  1  0  0  0
 30 33  1  0  0  0
 28 29  1  0  0  0
 33 35  2  0  0  0
 33 34  1  0  0  0
 22 23  1  0  0  0
 10 11  1  0  0  0
 10 12  1  0  0  0
 19 21  1  0  0  0
 15 17  1  0  0  0
 34 36  1  0  0  0
M  END
> <minimizedAffinity>
-8.11725

$$$$
6EN5_BJ2_A_702


 36 37  0  0  0  0  0  0  0  0999 V2000
   -2.5245   29.3692    3.1301 C   0  0  0  0  0  0  0  0  0  0  0  0
   -2.9310   30.0372    4.5235 C   0  0  0  0  0  0  0  0  0  0  0  0
   -2.3590   29.4008    5.6362 C   0  0  0  0  0  0  0  0  0  0  0  0
   -3.1833   28.0710    5.7054 C   0  0  0  0  0  0  0  0  0  0  0  0
   -4.6365   28.5644    5.3398 C   0  0  0  0  0  0  0  0  0  0  0  0
   -5.4742   30.7945    4.5590 C   0  0  0  0  0  0  0  0  0  0  0  0
   -4.4674   29.8007    4.7905 N   0  0  0  0  0  0  0  0  0  0  0  0
   -5.2138   31.8842    4.0940 O   0  0  0  0  0  0  0  0  0  0  0  0
   -6.9594   30.3594    4.9326 C   0  0  0  0  0  0  0  0  0  0  0  0
   -7.4909   31.4346    5.7648 N   0  0  0  0  0  0  0  0  0  0  0  0
   -7.4115   32.3211    5.2666 H   0  0  0  0  0  0  0  0  0  0  0  0
   -6.9608   31.4849    6.6348 H   0  0  0  0  0  0  0  0  0  0  0  0
   -7.7163   30.1393    3.5313 C   0  0  0  0  0  0  0  0  0  0  0  0
   -8.1684   28.6649    3.3557 C   0  0  0  0  0  0  0  0  0  0  0  0
   -8.6086   28.2844    2.2182 O   0  0  0  0  0  0  0  0  0  0  0  0
   -8.0802   27.8847    4.3437 O   0  0  0  0  0  0  0  0  0  0  0  0
   -8.6593   28.8933    1.5079 H   0  0  0  0  0  0  0  0  0  0  0  0
   -3.4612   29.7272    1.9262 C   0  0  0  0  0  0  0  0  0  0  0  0
   -4.1891   28.8301    1.3934 O   0  0  0  0  0  0  0  0  0  0  0  0
   -3.4831   30.9351    1.4707 O   0  0  0  0  0  0  0  0  0  0  0  0
   -4.1716   27.9541    1.7256 H   0  0  0  0  0  0  0  0  0  0  0  0
   -1.1459   29.8877    2.9325 N   0  0  0  0  0  0  0  0  0  0  0  0
   -0.6037   29.7073    3.7775 H   0  0  0  0  0  0  0  0  0  0  0  0
    0.7568   30.0883    1.4217 C   0  0  0  0  0  0  0  0  0  0  0  0
   -0.4563   29.2436    1.7726 C   0  0  0  0  0  0  0  0  0  0  0  0
   -0.0207   27.8224    2.1858 C   0  0  0  0  0  0  0  0  0  0  0  0
   -0.8742   26.8625    0.0222 C   0  0  0  0  0  0  0  0  0  0  0  0
   -1.1126   25.3868   -0.4635 C   0  0  0  0  0  0  0  0  0  0  0  0
   -0.0604   24.5602    0.3432 C   0  0  0  0  0  0  0  0  0  0  0  0
    0.1891   25.2569    1.5067 C   0  0  0  0  0  0  0  0  0  0  0  0
   -0.2774   26.7487    1.2310 N   0  0  0  0  0  0  0  0  0  0  0  0
    0.5427   27.5689    3.2163 O   0  0  0  0  0  0  0  0  0  0  0  0
    1.6850   25.3375    1.8005 C   0  0  0  0  0  0  0  0  0  0  0  0
    2.1429   25.1415    2.9491 O   0  0  0  0  0  0  0  0  0  0  0  0
    2.4847   25.5822    0.8643 O   0  0  0  0  0  0  0  0  0  0  0  0
    1.5612   24.9575    3.6602 H   0  0  0  0  0  0  0  0  0  0  0  0
 16 14  2  0  0  0
 15 14  1  0  0  0
 14 13  1  0  0  0
 10  9  1  0  0  0
  9 13  1  0  0  0
  9  6  1  0  0  0
  6  8  2  0  0  0
  6  7  1  0  0  0
  5  7  1  0  0  0
  5  4  1  0  0  0
  7  2  1  0  0  0
  4  3  1  0  0  0
  3  2  1  0  0  0
  2  1  1  0  0  0
 20 18  2  0  0  0
 18 19  1  0  0  0
 18  1  1  0  0  0
  1 22  1  0  0  0
 22 25  1  0  0  0
 25 26  1  0  0  0
 25 24  1  0  0  0
 32 26  2  0  0  0
 26 31  1  0  0  0
 31 27  1  0  0  0
 31 30  1  0  0  0
 27 28  1  0  0  0
 30 29  1  0  0  0
 30 33  1  0  0  0
 28 29  1  0  0  0
 33 35  2  0  0  0
 33 34  1  0  0  0
 22 23  1  0  0  0
 10 11  1  0  0  0
 10 12  1  0  0  0
 19 21  1  0  0  0
 15 17  1  0  0  0
 34 36  1  0  0  0
M  END
> <minimizedAffinity>
-7.93105

$$$$
6EN5_BJ2_A_702


 36 37  0  0  0  0  0  0  0  0999 V2000
   -2.3052   28.0126   -3.9965 C   0  0  0  0  0  0  0  0  0  0  0  0
   -3.4117   28.4950   -5.0433 C   0  0  0  0  0  0  0  0  0  0  0  0
   -4.5506   27.6751   -5.0702 C   0  0  0  0  0  0  0  0  0  0  0  0
   -4.0096   26.3965   -5.7949 C   0  0  0  0  0  0  0  0  0  0  0  0
   -3.0674   27.0165   -6.8978 C   0  0  0  0  0  0  0  0  0  0  0  0
   -2.3287   29.3783   -7.2993 C   0  0  0  0  0  0  0  0  0  0  0  0
   -2.8635   28.3076   -6.5103 N   0  0  0  0  0  0  0  0  0  0  0  0
   -2.2194   30.5075   -6.8696 O   0  0  0  0  0  0  0  0  0  0  0  0
   -1.8669   28.9766   -8.7690 C   0  0  0  0  0  0  0  0  0  0  0  0
   -1.1308   27.7241   -8.6256 N   0  0  0  0  0  0  0  0  0  0  0  0
   -1.7179   27.0369   -8.1529 H   0  0  0  0  0  0  0  0  0  0  0  0
   -0.2874   27.8865   -8.0756 H   0  0  0  0  0  0  0  0  0  0  0  0
   -3.2146   28.8837   -9.6409 C   0  0  0  0  0  0  0  0  0  0  0  0
   -3.1125   29.7330  -10.9360 C   0  0  0  0  0  0  0  0  0  0  0  0
   -2.1187   30.5229  -11.0807 O   0  0  0  0  0  0  0  0  0  0  0  0
   -4.0141   29.6109  -11.8106 O   0  0  0  0  0  0  0  0  0  0  0  0
   -1.4689   30.5863  -10.4087 H   0  0  0  0  0  0  0  0  0  0  0  0
   -0.8409   28.4620   -4.3269 C   0  0  0  0  0  0  0  0  0  0  0  0
    0.0227   27.6050   -4.6985 O   0  0  0  0  0  0  0  0  0  0  0  0
   -0.5124   29.7052   -4.2101 O   0  0  0  0  0  0  0  0  0  0  0  0
   -0.2180   26.7034   -4.7825 H   0  0  0  0  0  0  0  0  0  0  0  0
   -2.7974   28.6157   -2.7307 N   0  0  0  0  0  0  0  0  0  0  0  0
   -3.6152   28.0939   -2.4154 H   0  0  0  0  0  0  0  0  0  0  0  0
   -2.2209   29.5305   -0.5458 C   0  0  0  0  0  0  0  0  0  0  0  0
   -1.7653   28.5905   -1.6491 C   0  0  0  0  0  0  0  0  0  0  0  0
   -1.6486   27.1486   -1.1129 C   0  0  0  0  0  0  0  0  0  0  0  0
    0.7066   27.5622   -0.3299 C   0  0  0  0  0  0  0  0  0  0  0  0
    1.8404   26.5999    0.1791 C   0  0  0  0  0  0  0  0  0  0  0  0
    1.0535   25.4080    0.8127 C   0  0  0  0  0  0  0  0  0  0  0  0
   -0.1671   25.3496    0.1736 C   0  0  0  0  0  0  0  0  0  0  0  0
   -0.3856   26.7783   -0.4820 N   0  0  0  0  0  0  0  0  0  0  0  0
   -2.5416   26.3458   -1.1538 O   0  0  0  0  0  0  0  0  0  0  0  0
   -1.3111   25.1701    1.1684 C   0  0  0  0  0  0  0  0  0  0  0  0
   -2.1364   24.2348    1.0623 O   0  0  0  0  0  0  0  0  0  0  0  0
   -1.4179   25.9643    2.1348 O   0  0  0  0  0  0  0  0  0  0  0  0
   -2.0724   23.6323    0.3476 H   0  0  0  0  0  0  0  0  0  0  0  0
 16 14  2  0  0  0
 15 14  1  0  0  0
 14 13  1  0  0  0
 10  9  1  0  0  0
  9 13  1  0  0  0
  9  6  1  0  0  0
  6  8  2  0  0  0
  6  7  1  0  0  0
  5  7  1  0  0  0
  5  4  1  0  0  0
  7  2  1  0  0  0
  4  3  1  0  0  0
  3  2  1  0  0  0
  2  1  1  0  0  0
 20 18  2  0  0  0
 18 19  1  0  0  0
 18  1  1  0  0  0
  1 22  1  0  0  0
 22 25  1  0  0  0
 25 26  1  0  0  0
 25 24  1  0  0  0
 32 26  2  0  0  0
 26 31  1  0  0  0
 31 27  1  0  0  0
 31 30  1  0  0  0
 27 28  1  0  0  0
 30 29  1  0  0  0
 30 33  1  0  0  0
 28 29  1  0  0  0
 33 35  2  0  0  0
 33 34  1  0  0  0
 22 23  1  0  0  0
 10 11  1  0  0  0
 10 12  1  0  0  0
 19 21  1  0  0  0
 15 17  1  0  0  0
 34 36  1  0  0  0
M  END
> <minimizedAffinity>
-7.83591

$$$$
