4CA5_3EF_A_1700


 56 60  0  0  0  0  0  0  0  0999 V2000
   14.1651   -8.0725  -21.3427 C   0  0  0  0  0  0  0  0  0  0  0  0
   11.8272   -7.7363  -21.8456 O   0  0  0  0  0  0  0  0  0  0  0  0
   12.9825   -7.8192  -22.2737 C   0  0  0  0  0  0  0  0  0  0  0  0
   13.3034   -7.7225  -23.5672 N   0  0  0  0  0  0  0  0  0  0  0  0
   14.2499   -7.7486  -23.8371 H   0  0  0  0  0  0  0  0  0  0  0  0
   12.2684   -7.5789  -24.5832 C   0  0  0  0  0  0  0  0  0  0  0  0
   11.7565   -8.9879  -24.9861 C   0  0  0  0  0  0  0  0  0  0  0  0
   10.5296   -9.1165  -25.1355 O   0  0  0  0  0  0  0  0  0  0  0  0
   12.6009   -9.9227  -25.0932 O   0  0  0  0  0  0  0  0  0  0  0  0
   13.5125   -9.7474  -24.9658 H   0  0  0  0  0  0  0  0  0  0  0  0
   12.7965   -6.8079  -25.8056 C   0  0  0  0  0  0  0  0  0  0  0  0
   14.1313   -6.9223  -26.2006 C   0  0  0  0  0  0  0  0  0  0  0  0
   14.4615   -7.6705  -27.3346 C   0  0  0  0  0  0  0  0  0  0  0  0
   15.1427   -6.2415  -25.4997 C   0  0  0  0  0  0  0  0  0  0  0  0
   15.7975   -7.7613  -27.7510 C   0  0  0  0  0  0  0  0  0  0  0  0
   16.4741   -6.3331  -25.9189 C   0  0  0  0  0  0  0  0  0  0  0  0
   16.8034   -7.0884  -27.0447 C   0  0  0  0  0  0  0  0  0  0  0  0
   18.1070   -7.1696  -27.4624 O   0  0  0  0  0  0  0  0  0  0  0  0
   18.3258   -7.6774  -28.2188 H   0  0  0  0  0  0  0  0  0  0  0  0
   14.6575   -9.5158  -21.6007 C   0  0  0  0  0  0  0  0  0  0  0  0
   15.5274  -10.2392  -23.9157 C   0  0  0  0  0  0  0  0  0  0  0  0
   17.5123   -9.3251  -23.9408 N   0  0  0  0  0  0  0  0  0  0  0  0
   16.9046   -8.9936  -22.6775 O   0  0  0  0  0  0  0  0  0  0  0  0
   15.6869   -9.5922  -22.7398 C   0  0  0  0  0  0  0  0  0  0  0  0
   16.6465  -10.0555  -24.6330 C   0  0  0  0  0  0  0  0  0  0  0  0
   17.5229  -11.5180  -28.4467 C   0  0  0  0  0  0  0  0  0  0  0  0
   16.2314  -11.6402  -27.9176 C   0  0  0  0  0  0  0  0  0  0  0  0
   18.5258  -10.9041  -27.6894 C   0  0  0  0  0  0  0  0  0  0  0  0
   15.9498  -11.1518  -26.6343 C   0  0  0  0  0  0  0  0  0  0  0  0
   18.2332  -10.4203  -26.4053 C   0  0  0  0  0  0  0  0  0  0  0  0
   16.9517  -10.5520  -25.8584 C   0  0  0  0  0  0  0  0  0  0  0  0
   13.6538   -8.0253  -19.9053 C   0  0  0  0  0  0  0  0  0  0  0  0
   13.5481   -5.3408  -20.1028 O   0  0  0  0  0  0  0  0  0  0  0  0
   13.9546   -6.4239  -19.1755 P   0  0  0  0  0  0  0  0  0  0  0  0
   15.3676   -6.4053  -18.7270 O   0  0  0  0  0  0  0  0  0  0  0  0
   15.9526   -6.4491  -19.4995 H   0  0  0  0  0  0  0  0  0  0  0  0
   12.9283   -6.3388  -17.6685 C   0  0  0  0  0  0  0  0  0  0  0  0
   14.8727   -5.2567  -15.9681 O   0  0  0  0  0  0  0  0  0  0  0  0
   13.9891   -4.4965  -16.3961 C   0  0  0  0  0  0  0  0  0  0  0  0
   13.0416   -4.9400  -17.2294 N   0  0  0  0  0  0  0  0  0  0  0  0
   12.3820   -4.2925  -17.5685 H   0  0  0  0  0  0  0  0  0  0  0  0
   13.9384   -3.1867  -16.0577 O   0  0  0  0  0  0  0  0  0  0  0  0
   15.0466   -2.6246  -15.3049 C   0  0  0  0  0  0  0  0  0  0  0  0
   13.5867    0.6385  -13.0336 C   0  0  0  0  0  0  0  0  0  0  0  0
   13.4029   -0.6703  -12.5881 C   0  0  0  0  0  0  0  0  0  0  0  0
   14.2565    0.8638  -14.2295 C   0  0  0  0  0  0  0  0  0  0  0  0
   13.8764   -1.7505  -13.3417 C   0  0  0  0  0  0  0  0  0  0  0  0
   14.7394   -0.2172  -14.9831 C   0  0  0  0  0  0  0  0  0  0  0  0
   14.5547   -1.5297  -14.5415 C   0  0  0  0  0  0  0  0  0  0  0  0
   11.4296   -6.6250  -17.8932 C   0  0  0  0  0  0  0  0  0  0  0  0
   10.7541   -6.7424  -16.6430 C   0  0  0  0  0  0  0  0  0  0  0  0
   10.8371   -7.9292  -15.9126 C   0  0  0  0  0  0  0  0  0  0  0  0
   10.1904   -8.0711  -14.6782 C   0  0  0  0  0  0  0  0  0  0  0  0
    9.4541   -7.0017  -14.1490 C   0  0  0  0  0  0  0  0  0  0  0  0
    9.3782   -5.7921  -14.8565 C   0  0  0  0  0  0  0  0  0  0  0  0
   10.0160   -5.6710  -16.0994 C   0  0  0  0  0  0  0  0  0  0  0  0
  8  7  2  0  0  0
  7  6  1  0  0  0
  7  9  1  0  0  0
  6  4  1  0  0  0
  4  3  1  0  0  0
 11  6  1  0  0  0
 12 11  1  0  0  0
 13 12  2  0  0  0
 12 14  1  0  0  0
 18 17  1  0  0  0
 15 17  2  0  0  0
 17 16  1  0  0  0
 39 38  2  0  0  0
  3  2  2  0  0  0
 33 34  2  0  0  0
 34 35  1  0  0  0
 46 44  2  0  0  0
 44 45  1  0  0  0
 55 54  2  0  0  0
 53 54  1  0  0  0
 27 26  2  0  0  0
 26 28  1  0  0  0
 47 45  2  0  0  0
 48 46  1  0  0  0
 52 53  2  0  0  0
 56 55  1  0  0  0
 27 29  1  0  0  0
 28 30  2  0  0  0
 49 47  1  0  0  0
 48 49  2  0  0  0
 51 52  1  0  0  0
 51 56  2  0  0  0
 29 31  2  0  0  0
 30 31  1  0  0  0
 25 21  1  0  0  0
 21 24  2  0  0  0
 42 43  1  0  0  0
 43 49  1  0  0  0
 24 20  1  0  0  0
 20  1  1  0  0  0
 50 37  1  0  0  0
 50 51  1  0  0  0
  1 32  1  0  0  0
 32 34  1  0  0  0
 25 22  2  0  0  0
 22 23  1  0  0  0
 37 40  1  0  0  0
 40 39  1  0  0  0
 39 42  1  0  0  0
 23 24  1  0  0  0
  3  1  1  0  0  0
 31 25  1  0  0  0
 34 37  1  0  0  0
 15 13  1  0  0  0
 16 14  2  0  0  0
 35 36  1  0  0  0
 40 41  1  0  0  0
  4  5  1  0  0  0
 18 19  1  0  0  0
  9 10  1  0  0  0
M  END
> <minimizedAffinity>
-12.05742

$$$$
4CA5_3EF_A_1700


 56 60  0  0  0  0  0  0  0  0999 V2000
   13.9895   -8.5373  -22.9812 C   0  0  0  0  0  0  0  0  0  0  0  0
   16.2946   -8.5252  -23.7010 O   0  0  0  0  0  0  0  0  0  0  0  0
   15.1325   -8.1724  -23.9245 C   0  0  0  0  0  0  0  0  0  0  0  0
   14.7709   -7.4322  -24.9766 N   0  0  0  0  0  0  0  0  0  0  0  0
   13.8193   -7.2265  -25.1228 H   0  0  0  0  0  0  0  0  0  0  0  0
   15.7691   -6.9260  -25.9102 C   0  0  0  0  0  0  0  0  0  0  0  0
   15.4820   -5.4271  -26.1937 C   0  0  0  0  0  0  0  0  0  0  0  0
   14.4193   -5.1616  -26.7803 O   0  0  0  0  0  0  0  0  0  0  0  0
   16.3551   -4.5771  -25.8568 O   0  0  0  0  0  0  0  0  0  0  0  0
   17.1337   -4.8549  -25.4156 H   0  0  0  0  0  0  0  0  0  0  0  0
   15.7761   -7.7473  -27.2114 C   0  0  0  0  0  0  0  0  0  0  0  0
   16.9707   -8.0033  -27.8884 C   0  0  0  0  0  0  0  0  0  0  0  0
   18.1939   -7.8391  -27.2312 C   0  0  0  0  0  0  0  0  0  0  0  0
   16.9521   -8.4824  -29.2104 C   0  0  0  0  0  0  0  0  0  0  0  0
   19.3933   -8.1252  -27.8990 C   0  0  0  0  0  0  0  0  0  0  0  0
   18.1505   -8.7682  -29.8729 C   0  0  0  0  0  0  0  0  0  0  0  0
   19.3707   -8.5941  -29.2193 C   0  0  0  0  0  0  0  0  0  0  0  0
   20.5452   -8.8847  -29.8646 O   0  0  0  0  0  0  0  0  0  0  0  0
   21.3635   -8.7670  -29.4236 H   0  0  0  0  0  0  0  0  0  0  0  0
   14.4707   -8.2549  -21.5387 C   0  0  0  0  0  0  0  0  0  0  0  0
   13.4829   -7.2403  -19.3860 C   0  0  0  0  0  0  0  0  0  0  0  0
   11.3473   -7.2283  -19.8497 N   0  0  0  0  0  0  0  0  0  0  0  0
   12.0297   -7.7828  -20.9907 O   0  0  0  0  0  0  0  0  0  0  0  0
   13.3381   -7.7561  -20.6269 C   0  0  0  0  0  0  0  0  0  0  0  0
   12.2601   -6.9186  -18.9369 C   0  0  0  0  0  0  0  0  0  0  0  0
   11.1838   -5.4363  -15.1825 C   0  0  0  0  0  0  0  0  0  0  0  0
   10.2554   -6.1374  -15.9631 C   0  0  0  0  0  0  0  0  0  0  0  0
   12.4793   -5.2295  -15.6670 C   0  0  0  0  0  0  0  0  0  0  0  0
   10.6251   -6.6248  -17.2243 C   0  0  0  0  0  0  0  0  0  0  0  0
   12.8382   -5.7204  -16.9315 C   0  0  0  0  0  0  0  0  0  0  0  0
   11.9150   -6.4068  -17.7285 C   0  0  0  0  0  0  0  0  0  0  0  0
   13.7516  -10.0413  -23.0862 C   0  0  0  0  0  0  0  0  0  0  0  0
   13.0794   -9.6586  -25.6666 O   0  0  0  0  0  0  0  0  0  0  0  0
   12.6768  -10.4208  -24.4604 P   0  0  0  0  0  0  0  0  0  0  0  0
   11.2834  -10.2209  -23.9949 O   0  0  0  0  0  0  0  0  0  0  0  0
   11.1371   -9.2807  -23.8068 H   0  0  0  0  0  0  0  0  0  0  0  0
   12.8652  -12.2063  -24.7895 C   0  0  0  0  0  0  0  0  0  0  0  0
   12.5928  -13.1381  -27.4163 O   0  0  0  0  0  0  0  0  0  0  0  0
   13.7161  -12.7560  -27.0505 C   0  0  0  0  0  0  0  0  0  0  0  0
   13.9145  -12.2782  -25.8172 N   0  0  0  0  0  0  0  0  0  0  0  0
   14.8151  -11.9562  -25.5839 H   0  0  0  0  0  0  0  0  0  0  0  0
   14.7921  -12.7893  -27.8714 O   0  0  0  0  0  0  0  0  0  0  0  0
   15.4741  -11.5411  -28.1670 C   0  0  0  0  0  0  0  0  0  0  0  0
   19.6377  -12.3090  -28.2805 C   0  0  0  0  0  0  0  0  0  0  0  0
   19.0442  -11.8035  -27.1240 C   0  0  0  0  0  0  0  0  0  0  0  0
   18.8500  -12.5619  -29.3964 C   0  0  0  0  0  0  0  0  0  0  0  0
   17.6700  -11.5404  -27.0873 C   0  0  0  0  0  0  0  0  0  0  0  0
   17.4705  -12.3065  -29.3596 C   0  0  0  0  0  0  0  0  0  0  0  0
   16.8728  -11.7974  -28.2040 C   0  0  0  0  0  0  0  0  0  0  0  0
   13.3520  -13.0354  -23.5836 C   0  0  0  0  0  0  0  0  0  0  0  0
   12.6912  -14.2984  -23.5508 C   0  0  0  0  0  0  0  0  0  0  0  0
   13.0499  -15.2984  -24.4565 C   0  0  0  0  0  0  0  0  0  0  0  0
   12.4236  -16.5513  -24.4432 C   0  0  0  0  0  0  0  0  0  0  0  0
   11.4253  -16.8226  -23.4970 C   0  0  0  0  0  0  0  0  0  0  0  0
   11.0670  -15.8388  -22.5626 C   0  0  0  0  0  0  0  0  0  0  0  0
   11.6903  -14.5832  -22.5995 C   0  0  0  0  0  0  0  0  0  0  0  0
  8  7  2  0  0  0
  7  6  1  0  0  0
  7  9  1  0  0  0
  6  4  1  0  0  0
  4  3  1  0  0  0
 11  6  1  0  0  0
 12 11  1  0  0  0
 13 12  2  0  0  0
 12 14  1  0  0  0
 18 17  1  0  0  0
 15 17  2  0  0  0
 17 16  1  0  0  0
 39 38  2  0  0  0
  3  2  2  0  0  0
 33 34  2  0  0  0
 34 35  1  0  0  0
 46 44  2  0  0  0
 44 45  1  0  0  0
 55 54  2  0  0  0
 53 54  1  0  0  0
 27 26  2  0  0  0
 26 28  1  0  0  0
 47 45  2  0  0  0
 48 46  1  0  0  0
 52 53  2  0  0  0
 56 55  1  0  0  0
 27 29  1  0  0  0
 28 30  2  0  0  0
 49 47  1  0  0  0
 48 49  2  0  0  0
 51 52  1  0  0  0
 51 56  2  0  0  0
 29 31  2  0  0  0
 30 31  1  0  0  0
 25 21  1  0  0  0
 21 24  2  0  0  0
 42 43  1  0  0  0
 43 49  1  0  0  0
 24 20  1  0  0  0
 20  1  1  0  0  0
 50 37  1  0  0  0
 50 51  1  0  0  0
  1 32  1  0  0  0
 32 34  1  0  0  0
 25 22  2  0  0  0
 22 23  1  0  0  0
 37 40  1  0  0  0
 40 39  1  0  0  0
 39 42  1  0  0  0
 23 24  1  0  0  0
  3  1  1  0  0  0
 31 25  1  0  0  0
 34 37  1  0  0  0
 15 13  1  0  0  0
 16 14  2  0  0  0
 35 36  1  0  0  0
 40 41  1  0  0  0
  4  5  1  0  0  0
 18 19  1  0  0  0
  9 10  1  0  0  0
M  END
> <minimizedAffinity>
-11.98146

$$$$
4CA5_3EF_A_1700


 56 60  0  0  0  0  0  0  0  0999 V2000
   13.5123   -8.3135  -21.4145 C   0  0  0  0  0  0  0  0  0  0  0  0
   14.6133   -6.7957  -19.8927 O   0  0  0  0  0  0  0  0  0  0  0  0
   13.5874   -7.4208  -20.1788 C   0  0  0  0  0  0  0  0  0  0  0  0
   12.4744   -7.3987  -19.4398 N   0  0  0  0  0  0  0  0  0  0  0  0
   11.6745   -7.8814  -19.7503 H   0  0  0  0  0  0  0  0  0  0  0  0
   12.4310   -6.6683  -18.1793 C   0  0  0  0  0  0  0  0  0  0  0  0
   11.1485   -7.0733  -17.4043 C   0  0  0  0  0  0  0  0  0  0  0  0
   10.1522   -6.3453  -17.5509 O   0  0  0  0  0  0  0  0  0  0  0  0
   11.2033   -8.0809  -16.6428 O   0  0  0  0  0  0  0  0  0  0  0  0
   11.9927   -8.5824  -16.5853 H   0  0  0  0  0  0  0  0  0  0  0  0
   12.4808   -5.1491  -18.4184 C   0  0  0  0  0  0  0  0  0  0  0  0
   13.1122   -4.3023  -17.5046 C   0  0  0  0  0  0  0  0  0  0  0  0
   12.7037   -2.9699  -17.3910 C   0  0  0  0  0  0  0  0  0  0  0  0
   14.1184   -4.7945  -16.6543 C   0  0  0  0  0  0  0  0  0  0  0  0
   13.3151   -2.1260  -16.4526 C   0  0  0  0  0  0  0  0  0  0  0  0
   14.7250   -3.9501  -15.7185 C   0  0  0  0  0  0  0  0  0  0  0  0
   14.3233   -2.6182  -15.6132 C   0  0  0  0  0  0  0  0  0  0  0  0
   14.9100   -1.7931  -14.6884 O   0  0  0  0  0  0  0  0  0  0  0  0
   14.6386   -0.8989  -14.6195 H   0  0  0  0  0  0  0  0  0  0  0  0
   14.8574   -9.0691  -21.5231 C   0  0  0  0  0  0  0  0  0  0  0  0
   15.2990  -11.5112  -22.2165 C   0  0  0  0  0  0  0  0  0  0  0  0
   14.0249  -12.6000  -20.8140 N   0  0  0  0  0  0  0  0  0  0  0  0
   13.8697  -11.1959  -20.5316 O   0  0  0  0  0  0  0  0  0  0  0  0
   14.6850  -10.5942  -21.4361 C   0  0  0  0  0  0  0  0  0  0  0  0
   14.8889  -12.7238  -21.8141 C   0  0  0  0  0  0  0  0  0  0  0  0
   15.9766  -16.4226  -23.4226 C   0  0  0  0  0  0  0  0  0  0  0  0
   15.9883  -15.2697  -24.2187 C   0  0  0  0  0  0  0  0  0  0  0  0
   15.5946  -16.3328  -22.0803 C   0  0  0  0  0  0  0  0  0  0  0  0
   15.6152  -14.0348  -23.6705 C   0  0  0  0  0  0  0  0  0  0  0  0
   15.2215  -15.0918  -21.5423 C   0  0  0  0  0  0  0  0  0  0  0  0
   15.2119  -13.9360  -22.3315 C   0  0  0  0  0  0  0  0  0  0  0  0
   13.4055   -7.4133  -22.6425 C   0  0  0  0  0  0  0  0  0  0  0  0
   11.5874   -7.2677  -24.6250 O   0  0  0  0  0  0  0  0  0  0  0  0
   12.4961   -8.2236  -23.9479 P   0  0  0  0  0  0  0  0  0  0  0  0
   11.8595   -9.4254  -23.3575 O   0  0  0  0  0  0  0  0  0  0  0  0
   11.1906   -9.1521  -22.7104 H   0  0  0  0  0  0  0  0  0  0  0  0
   13.7338   -8.8254  -25.1470 C   0  0  0  0  0  0  0  0  0  0  0  0
   15.3419  -11.0823  -25.5506 O   0  0  0  0  0  0  0  0  0  0  0  0
   14.1143  -11.2144  -25.6818 C   0  0  0  0  0  0  0  0  0  0  0  0
   13.2844  -10.1847  -25.4827 N   0  0  0  0  0  0  0  0  0  0  0  0
   12.3168  -10.3460  -25.5657 H   0  0  0  0  0  0  0  0  0  0  0  0
   13.5481  -12.3968  -26.0195 O   0  0  0  0  0  0  0  0  0  0  0  0
   12.1920  -12.6656  -25.5729 C   0  0  0  0  0  0  0  0  0  0  0  0
   12.1784  -16.3884  -23.5534 C   0  0  0  0  0  0  0  0  0  0  0  0
   11.7552  -15.2301  -22.9019 C   0  0  0  0  0  0  0  0  0  0  0  0
   12.6027  -16.3115  -24.8739 C   0  0  0  0  0  0  0  0  0  0  0  0
   11.7676  -13.9973  -23.5645 C   0  0  0  0  0  0  0  0  0  0  0  0
   12.6085  -15.0779  -25.5432 C   0  0  0  0  0  0  0  0  0  0  0  0
   12.1880  -13.9150  -24.8930 C   0  0  0  0  0  0  0  0  0  0  0  0
   13.7937   -8.0275  -26.4655 C   0  0  0  0  0  0  0  0  0  0  0  0
   15.1297   -7.9899  -26.9622 C   0  0  0  0  0  0  0  0  0  0  0  0
   16.1179   -7.2997  -26.2579 C   0  0  0  0  0  0  0  0  0  0  0  0
   17.4402   -7.2516  -26.7175 C   0  0  0  0  0  0  0  0  0  0  0  0
   17.7931   -7.9181  -27.8995 C   0  0  0  0  0  0  0  0  0  0  0  0
   16.8194   -8.6374  -28.6094 C   0  0  0  0  0  0  0  0  0  0  0  0
   15.4960   -8.6617  -28.1465 C   0  0  0  0  0  0  0  0  0  0  0  0
  8  7  2  0  0  0
  7  6  1  0  0  0
  7  9  1  0  0  0
  6  4  1  0  0  0
  4  3  1  0  0  0
 11  6  1  0  0  0
 12 11  1  0  0  0
 13 12  2  0  0  0
 12 14  1  0  0  0
 18 17  1  0  0  0
 15 17  2  0  0  0
 17 16  1  0  0  0
 39 38  2  0  0  0
  3  2  2  0  0  0
 33 34  2  0  0  0
 34 35  1  0  0  0
 46 44  2  0  0  0
 44 45  1  0  0  0
 55 54  2  0  0  0
 53 54  1  0  0  0
 27 26  2  0  0  0
 26 28  1  0  0  0
 47 45  2  0  0  0
 48 46  1  0  0  0
 52 53  2  0  0  0
 56 55  1  0  0  0
 27 29  1  0  0  0
 28 30  2  0  0  0
 49 47  1  0  0  0
 48 49  2  0  0  0
 51 52  1  0  0  0
 51 56  2  0  0  0
 29 31  2  0  0  0
 30 31  1  0  0  0
 25 21  1  0  0  0
 21 24  2  0  0  0
 42 43  1  0  0  0
 43 49  1  0  0  0
 24 20  1  0  0  0
 20  1  1  0  0  0
 50 37  1  0  0  0
 50 51  1  0  0  0
  1 32  1  0  0  0
 32 34  1  0  0  0
 25 22  2  0  0  0
 22 23  1  0  0  0
 37 40  1  0  0  0
 40 39  1  0  0  0
 39 42  1  0  0  0
 23 24  1  0  0  0
  3  1  1  0  0  0
 31 25  1  0  0  0
 34 37  1  0  0  0
 15 13  1  0  0  0
 16 14  2  0  0  0
 35 36  1  0  0  0
 40 41  1  0  0  0
  4  5  1  0  0  0
 18 19  1  0  0  0
  9 10  1  0  0  0
M  END
> <minimizedAffinity>
-11.84033

$$$$
4CA5_3EF_A_1700


 56 60  0  0  0  0  0  0  0  0999 V2000
   13.4626   -8.0911  -21.7804 C   0  0  0  0  0  0  0  0  0  0  0  0
   13.9054   -5.9456  -20.7642 O   0  0  0  0  0  0  0  0  0  0  0  0
   13.3247   -7.0328  -20.6892 C   0  0  0  0  0  0  0  0  0  0  0  0
   12.5552   -7.3937  -19.6581 N   0  0  0  0  0  0  0  0  0  0  0  0
   12.0810   -8.2561  -19.6833 H   0  0  0  0  0  0  0  0  0  0  0  0
   12.4099   -6.5253  -18.4967 C   0  0  0  0  0  0  0  0  0  0  0  0
   13.8167   -6.2148  -17.9186 C   0  0  0  0  0  0  0  0  0  0  0  0
   13.9913   -5.0769  -17.4510 O   0  0  0  0  0  0  0  0  0  0  0  0
   14.7060   -7.1099  -17.9966 O   0  0  0  0  0  0  0  0  0  0  0  0
   14.4975   -7.9467  -18.3630 H   0  0  0  0  0  0  0  0  0  0  0  0
   11.5013   -7.1691  -17.4349 C   0  0  0  0  0  0  0  0  0  0  0  0
   10.7176   -6.3790  -16.5909 C   0  0  0  0  0  0  0  0  0  0  0  0
   10.0256   -6.9677  -15.5281 C   0  0  0  0  0  0  0  0  0  0  0  0
   10.6651   -4.9846  -16.7657 C   0  0  0  0  0  0  0  0  0  0  0  0
    9.2630   -6.1722  -14.6607 C   0  0  0  0  0  0  0  0  0  0  0  0
    9.9046   -4.1941  -15.8976 C   0  0  0  0  0  0  0  0  0  0  0  0
    9.2064   -4.7841  -14.8436 C   0  0  0  0  0  0  0  0  0  0  0  0
    8.4696   -4.0084  -13.9859 O   0  0  0  0  0  0  0  0  0  0  0  0
    8.0015   -4.4068  -13.2787 H   0  0  0  0  0  0  0  0  0  0  0  0
   14.8225   -8.7976  -21.5718 C   0  0  0  0  0  0  0  0  0  0  0  0
   15.3135  -11.2462  -22.2063 C   0  0  0  0  0  0  0  0  0  0  0  0
   14.0607  -12.3264  -20.7782 N   0  0  0  0  0  0  0  0  0  0  0  0
   13.8772  -10.9194  -20.5297 O   0  0  0  0  0  0  0  0  0  0  0  0
   14.6807  -10.3233  -21.4482 C   0  0  0  0  0  0  0  0  0  0  0  0
   14.9277  -12.4568  -21.7749 C   0  0  0  0  0  0  0  0  0  0  0  0
   15.9045  -16.2375  -23.2594 C   0  0  0  0  0  0  0  0  0  0  0  0
   15.5496  -16.0716  -21.9143 C   0  0  0  0  0  0  0  0  0  0  0  0
   15.9344  -15.1272  -24.1093 C   0  0  0  0  0  0  0  0  0  0  0  0
   15.2300  -14.7975  -21.4250 C   0  0  0  0  0  0  0  0  0  0  0  0
   15.6142  -13.8562  -23.6086 C   0  0  0  0  0  0  0  0  0  0  0  0
   15.2753  -13.6744  -22.2629 C   0  0  0  0  0  0  0  0  0  0  0  0
   13.5329   -7.3756  -23.1269 C   0  0  0  0  0  0  0  0  0  0  0  0
   11.7175   -7.3733  -25.1171 O   0  0  0  0  0  0  0  0  0  0  0  0
   12.6281   -8.2772  -24.3742 P   0  0  0  0  0  0  0  0  0  0  0  0
   11.9942   -9.4372  -23.7028 O   0  0  0  0  0  0  0  0  0  0  0  0
   11.3235   -9.1218  -23.0771 H   0  0  0  0  0  0  0  0  0  0  0  0
   13.8694   -8.9566  -25.5271 C   0  0  0  0  0  0  0  0  0  0  0  0
   15.4757  -11.2411  -25.7354 O   0  0  0  0  0  0  0  0  0  0  0  0
   14.2504  -11.3789  -25.8815 C   0  0  0  0  0  0  0  0  0  0  0  0
   13.4211  -10.3353  -25.7735 N   0  0  0  0  0  0  0  0  0  0  0  0
   12.4546  -10.4995  -25.8643 H   0  0  0  0  0  0  0  0  0  0  0  0
   13.6860  -12.5809  -26.1451 O   0  0  0  0  0  0  0  0  0  0  0  0
   12.3050  -12.7970  -25.7494 C   0  0  0  0  0  0  0  0  0  0  0  0
   12.1432  -16.3026  -23.3782 C   0  0  0  0  0  0  0  0  0  0  0  0
   12.5458  -16.3701  -24.7118 C   0  0  0  0  0  0  0  0  0  0  0  0
   11.7977  -15.0730  -22.8319 C   0  0  0  0  0  0  0  0  0  0  0  0
   12.5912  -15.2143  -25.4998 C   0  0  0  0  0  0  0  0  0  0  0  0
   11.8500  -13.9113  -23.6175 C   0  0  0  0  0  0  0  0  0  0  0  0
   12.2500  -13.9754  -24.9546 C   0  0  0  0  0  0  0  0  0  0  0  0
   13.9333   -8.2477  -26.8953 C   0  0  0  0  0  0  0  0  0  0  0  0
   15.2814   -8.1755  -27.3540 C   0  0  0  0  0  0  0  0  0  0  0  0
   16.2010   -7.3575  -26.6949 C   0  0  0  0  0  0  0  0  0  0  0  0
   17.5335   -7.2721  -27.1182 C   0  0  0  0  0  0  0  0  0  0  0  0
   17.9673   -8.0294  -28.2155 C   0  0  0  0  0  0  0  0  0  0  0  0
   17.0642   -8.8759  -28.8767 C   0  0  0  0  0  0  0  0  0  0  0  0
   15.7290   -8.9375  -28.4527 C   0  0  0  0  0  0  0  0  0  0  0  0
  8  7  2  0  0  0
  7  6  1  0  0  0
  7  9  1  0  0  0
  6  4  1  0  0  0
  4  3  1  0  0  0
 11  6  1  0  0  0
 12 11  1  0  0  0
 13 12  2  0  0  0
 12 14  1  0  0  0
 18 17  1  0  0  0
 15 17  2  0  0  0
 17 16  1  0  0  0
 39 38  2  0  0  0
  3  2  2  0  0  0
 33 34  2  0  0  0
 34 35  1  0  0  0
 46 44  2  0  0  0
 44 45  1  0  0  0
 55 54  2  0  0  0
 53 54  1  0  0  0
 27 26  2  0  0  0
 26 28  1  0  0  0
 47 45  2  0  0  0
 48 46  1  0  0  0
 52 53  2  0  0  0
 56 55  1  0  0  0
 27 29  1  0  0  0
 28 30  2  0  0  0
 49 47  1  0  0  0
 48 49  2  0  0  0
 51 52  1  0  0  0
 51 56  2  0  0  0
 29 31  2  0  0  0
 30 31  1  0  0  0
 25 21  1  0  0  0
 21 24  2  0  0  0
 42 43  1  0  0  0
 43 49  1  0  0  0
 24 20  1  0  0  0
 20  1  1  0  0  0
 50 37  1  0  0  0
 50 51  1  0  0  0
  1 32  1  0  0  0
 32 34  1  0  0  0
 25 22  2  0  0  0
 22 23  1  0  0  0
 37 40  1  0  0  0
 40 39  1  0  0  0
 39 42  1  0  0  0
 23 24  1  0  0  0
  3  1  1  0  0  0
 31 25  1  0  0  0
 34 37  1  0  0  0
 15 13  1  0  0  0
 16 14  2  0  0  0
 35 36  1  0  0  0
 40 41  1  0  0  0
  4  5  1  0  0  0
 18 19  1  0  0  0
  9 10  1  0  0  0
M  END
> <minimizedAffinity>
-11.78286

$$$$
4CA5_3EF_A_1700


 56 60  0  0  0  0  0  0  0  0999 V2000
   14.2645   -8.3792  -21.9378 C   0  0  0  0  0  0  0  0  0  0  0  0
   12.0753   -7.5383  -21.3615 O   0  0  0  0  0  0  0  0  0  0  0  0
   13.2554   -7.6835  -21.0282 C   0  0  0  0  0  0  0  0  0  0  0  0
   13.7618   -7.2350  -19.8758 N   0  0  0  0  0  0  0  0  0  0  0  0
   14.7004   -7.4270  -19.6493 H   0  0  0  0  0  0  0  0  0  0  0  0
   12.9404   -6.4648  -18.9504 C   0  0  0  0  0  0  0  0  0  0  0  0
   13.8468   -5.4680  -18.1794 C   0  0  0  0  0  0  0  0  0  0  0  0
   14.6532   -5.9556  -17.3696 O   0  0  0  0  0  0  0  0  0  0  0  0
   13.6834   -4.2310  -18.3831 O   0  0  0  0  0  0  0  0  0  0  0  0
   13.0536   -3.9390  -19.0124 H   0  0  0  0  0  0  0  0  0  0  0  0
   12.1814   -7.3899  -17.9831 C   0  0  0  0  0  0  0  0  0  0  0  0
   11.3135   -6.8633  -17.0238 C   0  0  0  0  0  0  0  0  0  0  0  0
   10.8800   -5.5381  -17.1279 C   0  0  0  0  0  0  0  0  0  0  0  0
   10.8242   -7.6738  -15.9839 C   0  0  0  0  0  0  0  0  0  0  0  0
    9.9842   -5.0164  -16.1834 C   0  0  0  0  0  0  0  0  0  0  0  0
    9.9297   -7.1504  -15.0444 C   0  0  0  0  0  0  0  0  0  0  0  0
    9.5059   -5.8249  -15.1437 C   0  0  0  0  0  0  0  0  0  0  0  0
    8.6205   -5.3147  -14.2294 O   0  0  0  0  0  0  0  0  0  0  0  0
    8.3372   -4.4242  -14.2981 H   0  0  0  0  0  0  0  0  0  0  0  0
   14.5184   -7.4480  -23.1463 C   0  0  0  0  0  0  0  0  0  0  0  0
   15.7180   -7.7872  -25.4014 C   0  0  0  0  0  0  0  0  0  0  0  0
   17.4709   -8.9420  -24.7935 N   0  0  0  0  0  0  0  0  0  0  0  0
   16.6984   -8.6800  -23.6062 O   0  0  0  0  0  0  0  0  0  0  0  0
   15.6376   -7.9660  -24.0640 C   0  0  0  0  0  0  0  0  0  0  0  0
   16.8451   -8.3818  -25.8215 C   0  0  0  0  0  0  0  0  0  0  0  0
   18.3513   -8.7983  -29.6956 C   0  0  0  0  0  0  0  0  0  0  0  0
   19.2070   -8.4941  -28.6288 C   0  0  0  0  0  0  0  0  0  0  0  0
   16.9823   -8.9603  -29.4601 C   0  0  0  0  0  0  0  0  0  0  0  0
   18.6901   -8.3501  -27.3339 C   0  0  0  0  0  0  0  0  0  0  0  0
   16.4754   -8.8124  -28.1602 C   0  0  0  0  0  0  0  0  0  0  0  0
   17.3169   -8.4911  -27.0890 C   0  0  0  0  0  0  0  0  0  0  0  0
   13.6145   -9.6489  -22.4812 C   0  0  0  0  0  0  0  0  0  0  0  0
   13.8919  -11.5322  -20.5751 O   0  0  0  0  0  0  0  0  0  0  0  0
   14.4563  -11.1029  -21.8771 P   0  0  0  0  0  0  0  0  0  0  0  0
   15.9090  -10.8071  -21.8948 O   0  0  0  0  0  0  0  0  0  0  0  0
   16.1050  -10.1103  -21.2491 H   0  0  0  0  0  0  0  0  0  0  0  0
   14.1768  -12.4162  -23.1135 C   0  0  0  0  0  0  0  0  0  0  0  0
   13.3657  -12.0603  -25.7702 O   0  0  0  0  0  0  0  0  0  0  0  0
   14.5675  -11.8969  -25.5042 C   0  0  0  0  0  0  0  0  0  0  0  0
   15.0214  -12.0289  -24.2532 N   0  0  0  0  0  0  0  0  0  0  0  0
   15.9762  -11.8569  -24.0856 H   0  0  0  0  0  0  0  0  0  0  0  0
   15.4777  -11.5687  -26.4512 O   0  0  0  0  0  0  0  0  0  0  0  0
   15.6852  -12.4874  -27.5573 C   0  0  0  0  0  0  0  0  0  0  0  0
   19.7764  -12.3381  -28.6426 C   0  0  0  0  0  0  0  0  0  0  0  0
   18.8120  -12.7197  -29.5750 C   0  0  0  0  0  0  0  0  0  0  0  0
   19.3831  -12.0039  -27.3529 C   0  0  0  0  0  0  0  0  0  0  0  0
   17.4605  -12.7786  -29.2160 C   0  0  0  0  0  0  0  0  0  0  0  0
   18.0276  -12.0543  -26.9925 C   0  0  0  0  0  0  0  0  0  0  0  0
   17.0590  -12.4388  -27.9229 C   0  0  0  0  0  0  0  0  0  0  0  0
   14.6272  -13.8233  -22.6710 C   0  0  0  0  0  0  0  0  0  0  0  0
   13.5692  -14.7621  -22.8506 C   0  0  0  0  0  0  0  0  0  0  0  0
   13.8465  -16.0448  -23.3270 C   0  0  0  0  0  0  0  0  0  0  0  0
   12.8288  -16.9904  -23.5064 C   0  0  0  0  0  0  0  0  0  0  0  0
   11.5037  -16.6581  -23.1911 C   0  0  0  0  0  0  0  0  0  0  0  0
   11.2076  -15.3818  -22.6884 C   0  0  0  0  0  0  0  0  0  0  0  0
   12.2343  -14.4398  -22.5309 C   0  0  0  0  0  0  0  0  0  0  0  0
  8  7  2  0  0  0
  7  6  1  0  0  0
  7  9  1  0  0  0
  6  4  1  0  0  0
  4  3  1  0  0  0
 11  6  1  0  0  0
 12 11  1  0  0  0
 13 12  2  0  0  0
 12 14  1  0  0  0
 18 17  1  0  0  0
 15 17  2  0  0  0
 17 16  1  0  0  0
 39 38  2  0  0  0
  3  2  2  0  0  0
 33 34  2  0  0  0
 34 35  1  0  0  0
 46 44  2  0  0  0
 44 45  1  0  0  0
 55 54  2  0  0  0
 53 54  1  0  0  0
 27 26  2  0  0  0
 26 28  1  0  0  0
 47 45  2  0  0  0
 48 46  1  0  0  0
 52 53  2  0  0  0
 56 55  1  0  0  0
 27 29  1  0  0  0
 28 30  2  0  0  0
 49 47  1  0  0  0
 48 49  2  0  0  0
 51 52  1  0  0  0
 51 56  2  0  0  0
 29 31  2  0  0  0
 30 31  1  0  0  0
 25 21  1  0  0  0
 21 24  2  0  0  0
 42 43  1  0  0  0
 43 49  1  0  0  0
 24 20  1  0  0  0
 20  1  1  0  0  0
 50 37  1  0  0  0
 50 51  1  0  0  0
  1 32  1  0  0  0
 32 34  1  0  0  0
 25 22  2  0  0  0
 22 23  1  0  0  0
 37 40  1  0  0  0
 40 39  1  0  0  0
 39 42  1  0  0  0
 23 24  1  0  0  0
  3  1  1  0  0  0
 31 25  1  0  0  0
 34 37  1  0  0  0
 15 13  1  0  0  0
 16 14  2  0  0  0
 35 36  1  0  0  0
 40 41  1  0  0  0
  4  5  1  0  0  0
 18 19  1  0  0  0
  9 10  1  0  0  0
M  END
> <minimizedAffinity>
-11.50190

$$$$
4CA5_3EF_A_1700


 56 60  0  0  0  0  0  0  0  0999 V2000
   14.9426  -10.0310  -26.4417 C   0  0  0  0  0  0  0  0  0  0  0  0
   17.0849  -10.2158  -25.3425 O   0  0  0  0  0  0  0  0  0  0  0  0
   16.4654   -9.9510  -26.3774 C   0  0  0  0  0  0  0  0  0  0  0  0
   17.0501   -9.5533  -27.5112 N   0  0  0  0  0  0  0  0  0  0  0  0
   16.5019   -9.4052  -28.3154 H   0  0  0  0  0  0  0  0  0  0  0  0
   18.4901   -9.3363  -27.5709 C   0  0  0  0  0  0  0  0  0  0  0  0
   18.7887   -7.8417  -27.2764 C   0  0  0  0  0  0  0  0  0  0  0  0
   19.0930   -7.5513  -26.1072 O   0  0  0  0  0  0  0  0  0  0  0  0
   18.6625   -7.0097  -28.2198 O   0  0  0  0  0  0  0  0  0  0  0  0
   18.4299   -7.3060  -29.0778 H   0  0  0  0  0  0  0  0  0  0  0  0
   19.0568   -9.7584  -28.9377 C   0  0  0  0  0  0  0  0  0  0  0  0
   19.1046  -11.1047  -29.3066 C   0  0  0  0  0  0  0  0  0  0  0  0
   17.9235  -11.7846  -29.6192 C   0  0  0  0  0  0  0  0  0  0  0  0
   20.3390  -11.7683  -29.4233 C   0  0  0  0  0  0  0  0  0  0  0  0
   17.9719  -13.1277  -30.0198 C   0  0  0  0  0  0  0  0  0  0  0  0
   20.3834  -13.1076  -29.8246 C   0  0  0  0  0  0  0  0  0  0  0  0
   19.2033  -13.7877  -30.1265 C   0  0  0  0  0  0  0  0  0  0  0  0
   19.2473  -15.0973  -30.5305 O   0  0  0  0  0  0  0  0  0  0  0  0
   18.4534  -15.5521  -30.7327 H   0  0  0  0  0  0  0  0  0  0  0  0
   14.5768  -10.9732  -27.6124 C   0  0  0  0  0  0  0  0  0  0  0  0
   14.4902  -13.0374  -26.0726 C   0  0  0  0  0  0  0  0  0  0  0  0
   12.8497  -14.1756  -26.9610 N   0  0  0  0  0  0  0  0  0  0  0  0
   13.0084  -12.9745  -27.7404 O   0  0  0  0  0  0  0  0  0  0  0  0
   14.0361  -12.3290  -27.1304 C   0  0  0  0  0  0  0  0  0  0  0  0
   13.7481  -14.1518  -25.9841 C   0  0  0  0  0  0  0  0  0  0  0  0
   14.1516  -17.2363  -23.1958 C   0  0  0  0  0  0  0  0  0  0  0  0
   15.2783  -16.5440  -23.6584 C   0  0  0  0  0  0  0  0  0  0  0  0
   12.8833  -16.8926  -23.6746 C   0  0  0  0  0  0  0  0  0  0  0  0
   15.1322  -15.5150  -24.5990 C   0  0  0  0  0  0  0  0  0  0  0  0
   12.7488  -15.8621  -24.6172 C   0  0  0  0  0  0  0  0  0  0  0  0
   13.8680  -15.1748  -25.1006 C   0  0  0  0  0  0  0  0  0  0  0  0
   14.4111   -8.6458  -26.8005 C   0  0  0  0  0  0  0  0  0  0  0  0
   11.8523   -8.2538  -26.0548 O   0  0  0  0  0  0  0  0  0  0  0  0
   13.2440   -8.0756  -25.5756 P   0  0  0  0  0  0  0  0  0  0  0  0
   13.6369   -6.6947  -25.2056 O   0  0  0  0  0  0  0  0  0  0  0  0
   13.5149   -6.1084  -25.9686 H   0  0  0  0  0  0  0  0  0  0  0  0
   13.5031   -9.1065  -24.0917 C   0  0  0  0  0  0  0  0  0  0  0  0
   14.8282   -8.0780  -21.8491 O   0  0  0  0  0  0  0  0  0  0  0  0
   13.6060   -7.8793  -21.9419 C   0  0  0  0  0  0  0  0  0  0  0  0
   12.9130   -8.3226  -22.9964 N   0  0  0  0  0  0  0  0  0  0  0  0
   11.9524   -8.1119  -23.0420 H   0  0  0  0  0  0  0  0  0  0  0  0
   12.9118   -7.2010  -20.9980 O   0  0  0  0  0  0  0  0  0  0  0  0
   13.5069   -7.0451  -19.6819 C   0  0  0  0  0  0  0  0  0  0  0  0
   10.5489   -5.5252  -17.0593 C   0  0  0  0  0  0  0  0  0  0  0  0
   10.2381   -6.5437  -17.9599 C   0  0  0  0  0  0  0  0  0  0  0  0
   11.8403   -5.0141  -17.0273 C   0  0  0  0  0  0  0  0  0  0  0  0
   11.2116   -7.0411  -18.8338 C   0  0  0  0  0  0  0  0  0  0  0  0
   12.8205   -5.5166  -17.8970 C   0  0  0  0  0  0  0  0  0  0  0  0
   12.5121   -6.5348  -18.8025 C   0  0  0  0  0  0  0  0  0  0  0  0
   12.7782  -10.4675  -24.1187 C   0  0  0  0  0  0  0  0  0  0  0  0
   13.4538  -11.4059  -23.2845 C   0  0  0  0  0  0  0  0  0  0  0  0
   12.7704  -12.5166  -22.7861 C   0  0  0  0  0  0  0  0  0  0  0  0
   13.4098  -13.4590  -21.9704 C   0  0  0  0  0  0  0  0  0  0  0  0
   14.7664  -13.3016  -21.6534 C   0  0  0  0  0  0  0  0  0  0  0  0
   15.4773  -12.2047  -22.1641 C   0  0  0  0  0  0  0  0  0  0  0  0
   14.8193  -11.2600  -22.9646 C   0  0  0  0  0  0  0  0  0  0  0  0
  8  7  2  0  0  0
  7  6  1  0  0  0
  7  9  1  0  0  0
  6  4  1  0  0  0
  4  3  1  0  0  0
 11  6  1  0  0  0
 12 11  1  0  0  0
 13 12  2  0  0  0
 12 14  1  0  0  0
 18 17  1  0  0  0
 15 17  2  0  0  0
 17 16  1  0  0  0
 39 38  2  0  0  0
  3  2  2  0  0  0
 33 34  2  0  0  0
 34 35  1  0  0  0
 46 44  2  0  0  0
 44 45  1  0  0  0
 55 54  2  0  0  0
 53 54  1  0  0  0
 27 26  2  0  0  0
 26 28  1  0  0  0
 47 45  2  0  0  0
 48 46  1  0  0  0
 52 53  2  0  0  0
 56 55  1  0  0  0
 27 29  1  0  0  0
 28 30  2  0  0  0
 49 47  1  0  0  0
 48 49  2  0  0  0
 51 52  1  0  0  0
 51 56  2  0  0  0
 29 31  2  0  0  0
 30 31  1  0  0  0
 25 21  1  0  0  0
 21 24  2  0  0  0
 42 43  1  0  0  0
 43 49  1  0  0  0
 24 20  1  0  0  0
 20  1  1  0  0  0
 50 37  1  0  0  0
 50 51  1  0  0  0
  1 32  1  0  0  0
 32 34  1  0  0  0
 25 22  2  0  0  0
 22 23  1  0  0  0
 37 40  1  0  0  0
 40 39  1  0  0  0
 39 42  1  0  0  0
 23 24  1  0  0  0
  3  1  1  0  0  0
 31 25  1  0  0  0
 34 37  1  0  0  0
 15 13  1  0  0  0
 16 14  2  0  0  0
 35 36  1  0  0  0
 40 41  1  0  0  0
  4  5  1  0  0  0
 18 19  1  0  0  0
  9 10  1  0  0  0
M  END
> <minimizedAffinity>
-11.47641

$$$$
4CA5_3EF_A_1700


 56 60  0  0  0  0  0  0  0  0999 V2000
   14.0966   -7.7960  -21.4786 C   0  0  0  0  0  0  0  0  0  0  0  0
   11.9419   -8.5622  -22.2543 O   0  0  0  0  0  0  0  0  0  0  0  0
   13.1267   -8.3413  -22.5233 C   0  0  0  0  0  0  0  0  0  0  0  0
   13.6721   -8.5751  -23.7205 N   0  0  0  0  0  0  0  0  0  0  0  0
   14.6118   -8.3307  -23.8833 H   0  0  0  0  0  0  0  0  0  0  0  0
   12.8918   -9.1879  -24.7882 C   0  0  0  0  0  0  0  0  0  0  0  0
   11.6273   -8.3260  -25.0487 C   0  0  0  0  0  0  0  0  0  0  0  0
   10.5555   -8.9358  -25.2007 O   0  0  0  0  0  0  0  0  0  0  0  0
   11.7659   -7.0724  -25.1357 O   0  0  0  0  0  0  0  0  0  0  0  0
   12.6091   -6.6842  -25.0078 H   0  0  0  0  0  0  0  0  0  0  0  0
   12.5147  -10.6374  -24.4357 C   0  0  0  0  0  0  0  0  0  0  0  0
   12.9610  -11.7029  -25.2206 C   0  0  0  0  0  0  0  0  0  0  0  0
   14.2648  -11.6990  -25.7257 C   0  0  0  0  0  0  0  0  0  0  0  0
   12.1277  -12.8104  -25.4593 C   0  0  0  0  0  0  0  0  0  0  0  0
   14.7253  -12.7821  -26.4882 C   0  0  0  0  0  0  0  0  0  0  0  0
   12.5910  -13.8896  -26.2190 C   0  0  0  0  0  0  0  0  0  0  0  0
   13.8888  -13.8798  -26.7309 C   0  0  0  0  0  0  0  0  0  0  0  0
   14.3471  -14.9424  -27.4664 O   0  0  0  0  0  0  0  0  0  0  0  0
   15.2191  -14.9336  -27.8093 H   0  0  0  0  0  0  0  0  0  0  0  0
   15.2707   -8.7967  -21.3688 C   0  0  0  0  0  0  0  0  0  0  0  0
   15.1216  -11.2301  -22.2029 C   0  0  0  0  0  0  0  0  0  0  0  0
   13.8049  -12.1244  -20.7055 N   0  0  0  0  0  0  0  0  0  0  0  0
   13.9743  -10.7381  -20.3529 O   0  0  0  0  0  0  0  0  0  0  0  0
   14.7965  -10.2582  -21.3217 C   0  0  0  0  0  0  0  0  0  0  0  0
   14.5142  -12.3578  -21.8031 C   0  0  0  0  0  0  0  0  0  0  0  0
   14.4692  -16.0762  -23.7063 C   0  0  0  0  0  0  0  0  0  0  0  0
   13.3418  -15.6195  -23.0112 C   0  0  0  0  0  0  0  0  0  0  0  0
   15.6184  -15.2810  -23.7597 C   0  0  0  0  0  0  0  0  0  0  0  0
   13.3700  -14.3730  -22.3705 C   0  0  0  0  0  0  0  0  0  0  0  0
   15.6361  -14.0357  -23.1136 C   0  0  0  0  0  0  0  0  0  0  0  0
   14.5229  -13.5759  -22.4009 C   0  0  0  0  0  0  0  0  0  0  0  0
   13.3847   -7.7930  -20.1284 C   0  0  0  0  0  0  0  0  0  0  0  0
   13.4709   -5.1085  -19.9204 O   0  0  0  0  0  0  0  0  0  0  0  0
   13.8234   -6.3445  -19.1813 P   0  0  0  0  0  0  0  0  0  0  0  0
   15.2464   -6.4904  -18.7915 O   0  0  0  0  0  0  0  0  0  0  0  0
   15.8040   -6.4570  -19.5846 H   0  0  0  0  0  0  0  0  0  0  0  0
   12.8504   -6.4181  -17.6387 C   0  0  0  0  0  0  0  0  0  0  0  0
   14.8079   -5.3343  -15.9546 O   0  0  0  0  0  0  0  0  0  0  0  0
   13.8621   -4.6030  -16.2897 C   0  0  0  0  0  0  0  0  0  0  0  0
   12.9032   -5.0472  -17.1093 N   0  0  0  0  0  0  0  0  0  0  0  0
   12.1916   -4.4203  -17.3735 H   0  0  0  0  0  0  0  0  0  0  0  0
   13.7517   -3.3240  -15.8596 O   0  0  0  0  0  0  0  0  0  0  0  0
   14.9496   -2.6460  -15.3949 C   0  0  0  0  0  0  0  0  0  0  0  0
   13.7585    0.6618  -13.0331 C   0  0  0  0  0  0  0  0  0  0  0  0
   14.3364    0.8609  -14.2867 C   0  0  0  0  0  0  0  0  0  0  0  0
   13.5737   -0.6332  -12.5655 C   0  0  0  0  0  0  0  0  0  0  0  0
   14.7391   -0.2305  -15.0649 C   0  0  0  0  0  0  0  0  0  0  0  0
   13.9693   -1.7295  -13.3473 C   0  0  0  0  0  0  0  0  0  0  0  0
   14.5511   -1.5340  -14.6023 C   0  0  0  0  0  0  0  0  0  0  0  0
   11.3623   -6.7738  -17.8326 C   0  0  0  0  0  0  0  0  0  0  0  0
   10.7123   -6.8940  -16.5693 C   0  0  0  0  0  0  0  0  0  0  0  0
    9.9272   -5.8463  -16.0848 C   0  0  0  0  0  0  0  0  0  0  0  0
    9.2709   -5.9387  -14.8507 C   0  0  0  0  0  0  0  0  0  0  0  0
    9.3859   -7.1075  -14.0849 C   0  0  0  0  0  0  0  0  0  0  0  0
   10.1511   -8.1813  -14.5653 C   0  0  0  0  0  0  0  0  0  0  0  0
   10.8168   -8.0673  -15.7942 C   0  0  0  0  0  0  0  0  0  0  0  0
  8  7  2  0  0  0
  7  6  1  0  0  0
  7  9  1  0  0  0
  6  4  1  0  0  0
  4  3  1  0  0  0
 11  6  1  0  0  0
 12 11  1  0  0  0
 13 12  2  0  0  0
 12 14  1  0  0  0
 18 17  1  0  0  0
 15 17  2  0  0  0
 17 16  1  0  0  0
 39 38  2  0  0  0
  3  2  2  0  0  0
 33 34  2  0  0  0
 34 35  1  0  0  0
 46 44  2  0  0  0
 44 45  1  0  0  0
 55 54  2  0  0  0
 53 54  1  0  0  0
 27 26  2  0  0  0
 26 28  1  0  0  0
 47 45  2  0  0  0
 48 46  1  0  0  0
 52 53  2  0  0  0
 56 55  1  0  0  0
 27 29  1  0  0  0
 28 30  2  0  0  0
 49 47  1  0  0  0
 48 49  2  0  0  0
 51 52  1  0  0  0
 51 56  2  0  0  0
 29 31  2  0  0  0
 30 31  1  0  0  0
 25 21  1  0  0  0
 21 24  2  0  0  0
 42 43  1  0  0  0
 43 49  1  0  0  0
 24 20  1  0  0  0
 20  1  1  0  0  0
 50 37  1  0  0  0
 50 51  1  0  0  0
  1 32  1  0  0  0
 32 34  1  0  0  0
 25 22  2  0  0  0
 22 23  1  0  0  0
 37 40  1  0  0  0
 40 39  1  0  0  0
 39 42  1  0  0  0
 23 24  1  0  0  0
  3  1  1  0  0  0
 31 25  1  0  0  0
 34 37  1  0  0  0
 15 13  1  0  0  0
 16 14  2  0  0  0
 35 36  1  0  0  0
 40 41  1  0  0  0
  4  5  1  0  0  0
 18 19  1  0  0  0
  9 10  1  0  0  0
M  END
> <minimizedAffinity>
-11.39386

$$$$
4CA5_3EF_A_1700


 56 60  0  0  0  0  0  0  0  0999 V2000
   14.3472   -8.9608  -23.1473 C   0  0  0  0  0  0  0  0  0  0  0  0
   16.6011   -8.7722  -23.9935 O   0  0  0  0  0  0  0  0  0  0  0  0
   15.4100   -8.4761  -24.1296 C   0  0  0  0  0  0  0  0  0  0  0  0
   14.9460   -7.6995  -25.1130 N   0  0  0  0  0  0  0  0  0  0  0  0
   13.9774   -7.5420  -25.1928 H   0  0  0  0  0  0  0  0  0  0  0  0
   15.8572   -7.0830  -26.0689 C   0  0  0  0  0  0  0  0  0  0  0  0
   15.4889   -5.5829  -26.2233 C   0  0  0  0  0  0  0  0  0  0  0  0
   14.3666   -5.3271  -26.6911 O   0  0  0  0  0  0  0  0  0  0  0  0
   16.3575   -4.7189  -25.9113 O   0  0  0  0  0  0  0  0  0  0  0  0
   17.1840   -4.9901  -25.5629 H   0  0  0  0  0  0  0  0  0  0  0  0
   15.8118   -7.8098  -27.4243 C   0  0  0  0  0  0  0  0  0  0  0  0
   16.9895   -8.1281  -28.1044 C   0  0  0  0  0  0  0  0  0  0  0  0
   18.2287   -7.8137  -27.5381 C   0  0  0  0  0  0  0  0  0  0  0  0
   16.9411   -8.8166  -29.3297 C   0  0  0  0  0  0  0  0  0  0  0  0
   19.4130   -8.1601  -28.2044 C   0  0  0  0  0  0  0  0  0  0  0  0
   18.1246   -9.1617  -29.9908 C   0  0  0  0  0  0  0  0  0  0  0  0
   19.3602   -8.8383  -29.4294 C   0  0  0  0  0  0  0  0  0  0  0  0
   20.5206   -9.1862  -30.0718 O   0  0  0  0  0  0  0  0  0  0  0  0
   21.3494   -8.9680  -29.6929 H   0  0  0  0  0  0  0  0  0  0  0  0
   14.7926   -8.5275  -21.7311 C   0  0  0  0  0  0  0  0  0  0  0  0
   13.7185   -7.4741  -19.6392 C   0  0  0  0  0  0  0  0  0  0  0  0
   11.6182   -7.3683  -20.2338 N   0  0  0  0  0  0  0  0  0  0  0  0
   12.3452   -7.9502  -21.3329 O   0  0  0  0  0  0  0  0  0  0  0  0
   13.6284   -7.9812  -20.8889 C   0  0  0  0  0  0  0  0  0  0  0  0
   12.4853   -7.1001  -19.2651 C   0  0  0  0  0  0  0  0  0  0  0  0
   11.2949   -5.3952  -15.6419 C   0  0  0  0  0  0  0  0  0  0  0  0
   12.6461   -5.4078  -16.0120 C   0  0  0  0  0  0  0  0  0  0  0  0
   10.3393   -5.9610  -16.4919 C   0  0  0  0  0  0  0  0  0  0  0  0
   13.0354   -5.9883  -17.2270 C   0  0  0  0  0  0  0  0  0  0  0  0
   10.7403   -6.5408  -17.7050 C   0  0  0  0  0  0  0  0  0  0  0  0
   12.0887   -6.5756  -18.0781 C   0  0  0  0  0  0  0  0  0  0  0  0
   14.3457  -10.4871  -23.1675 C   0  0  0  0  0  0  0  0  0  0  0  0
   13.1593   -9.9837  -25.5330 O   0  0  0  0  0  0  0  0  0  0  0  0
   13.6451  -11.1024  -24.6900 P   0  0  0  0  0  0  0  0  0  0  0  0
   12.6415  -12.1312  -24.3261 O   0  0  0  0  0  0  0  0  0  0  0  0
   11.9043  -11.7116  -23.8556 H   0  0  0  0  0  0  0  0  0  0  0  0
   14.9893  -11.9726  -25.5660 C   0  0  0  0  0  0  0  0  0  0  0  0
   16.4649  -14.2601  -24.9083 O   0  0  0  0  0  0  0  0  0  0  0  0
   15.3048  -14.4178  -25.3219 C   0  0  0  0  0  0  0  0  0  0  0  0
   14.5351  -13.3695  -25.6338 N   0  0  0  0  0  0  0  0  0  0  0  0
   13.6110  -13.5431  -25.9256 H   0  0  0  0  0  0  0  0  0  0  0  0
   14.7523  -15.6449  -25.4699 O   0  0  0  0  0  0  0  0  0  0  0  0
   14.6270  -16.4918  -24.2962 C   0  0  0  0  0  0  0  0  0  0  0  0
   11.0074  -15.4995  -22.3337 C   0  0  0  0  0  0  0  0  0  0  0  0
   12.1555  -14.7353  -22.1264 C   0  0  0  0  0  0  0  0  0  0  0  0
   11.0600  -16.5895  -23.1933 C   0  0  0  0  0  0  0  0  0  0  0  0
   13.3550  -15.0669  -22.7667 C   0  0  0  0  0  0  0  0  0  0  0  0
   12.2595  -16.9194  -23.8429 C   0  0  0  0  0  0  0  0  0  0  0  0
   13.4123  -16.1580  -23.6355 C   0  0  0  0  0  0  0  0  0  0  0  0
   15.2250  -11.5002  -27.0151 C   0  0  0  0  0  0  0  0  0  0  0  0
   16.5618  -11.7874  -27.4193 C   0  0  0  0  0  0  0  0  0  0  0  0
   16.7997  -12.4646  -28.6167 C   0  0  0  0  0  0  0  0  0  0  0  0
   18.1022  -12.7540  -29.0430 C   0  0  0  0  0  0  0  0  0  0  0  0
   19.1970  -12.3478  -28.2671 C   0  0  0  0  0  0  0  0  0  0  0  0
   18.9798  -11.6449  -27.0720 C   0  0  0  0  0  0  0  0  0  0  0  0
   17.6698  -11.3781  -26.6492 C   0  0  0  0  0  0  0  0  0  0  0  0
  8  7  2  0  0  0
  7  6  1  0  0  0
  7  9  1  0  0  0
  6  4  1  0  0  0
  4  3  1  0  0  0
 11  6  1  0  0  0
 12 11  1  0  0  0
 13 12  2  0  0  0
 12 14  1  0  0  0
 18 17  1  0  0  0
 15 17  2  0  0  0
 17 16  1  0  0  0
 39 38  2  0  0  0
  3  2  2  0  0  0
 33 34  2  0  0  0
 34 35  1  0  0  0
 46 44  2  0  0  0
 44 45  1  0  0  0
 55 54  2  0  0  0
 53 54  1  0  0  0
 27 26  2  0  0  0
 26 28  1  0  0  0
 47 45  2  0  0  0
 48 46  1  0  0  0
 52 53  2  0  0  0
 56 55  1  0  0  0
 27 29  1  0  0  0
 28 30  2  0  0  0
 49 47  1  0  0  0
 48 49  2  0  0  0
 51 52  1  0  0  0
 51 56  2  0  0  0
 29 31  2  0  0  0
 30 31  1  0  0  0
 25 21  1  0  0  0
 21 24  2  0  0  0
 42 43  1  0  0  0
 43 49  1  0  0  0
 24 20  1  0  0  0
 20  1  1  0  0  0
 50 37  1  0  0  0
 50 51  1  0  0  0
  1 32  1  0  0  0
 32 34  1  0  0  0
 25 22  2  0  0  0
 22 23  1  0  0  0
 37 40  1  0  0  0
 40 39  1  0  0  0
 39 42  1  0  0  0
 23 24  1  0  0  0
  3  1  1  0  0  0
 31 25  1  0  0  0
 34 37  1  0  0  0
 15 13  1  0  0  0
 16 14  2  0  0  0
 35 36  1  0  0  0
 40 41  1  0  0  0
  4  5  1  0  0  0
 18 19  1  0  0  0
  9 10  1  0  0  0
M  END
> <minimizedAffinity>
-11.37270

$$$$
4CA5_3EF_A_1700


 56 60  0  0  0  0  0  0  0  0999 V2000
   11.9664   -6.4921  -17.7143 C   0  0  0  0  0  0  0  0  0  0  0  0
   10.8003   -7.4684  -19.5902 O   0  0  0  0  0  0  0  0  0  0  0  0
   11.8785   -7.1074  -19.1083 C   0  0  0  0  0  0  0  0  0  0  0  0
   13.0520   -7.2386  -19.7336 N   0  0  0  0  0  0  0  0  0  0  0  0
   13.8694   -6.8852  -19.3137 H   0  0  0  0  0  0  0  0  0  0  0  0
   13.1360   -7.8988  -21.0302 C   0  0  0  0  0  0  0  0  0  0  0  0
   13.8845   -9.2483  -20.8629 C   0  0  0  0  0  0  0  0  0  0  0  0
   13.6834  -10.1120  -21.7332 O   0  0  0  0  0  0  0  0  0  0  0  0
   14.6106   -9.4063  -19.8401 O   0  0  0  0  0  0  0  0  0  0  0  0
   14.7142   -8.7059  -19.2264 H   0  0  0  0  0  0  0  0  0  0  0  0
   13.8346   -6.9992  -22.0647 C   0  0  0  0  0  0  0  0  0  0  0  0
   13.7686   -7.2938  -23.4284 C   0  0  0  0  0  0  0  0  0  0  0  0
   14.9452   -7.4080  -24.1751 C   0  0  0  0  0  0  0  0  0  0  0  0
   12.5284   -7.5351  -24.0462 C   0  0  0  0  0  0  0  0  0  0  0  0
   14.8828   -7.7343  -25.5376 C   0  0  0  0  0  0  0  0  0  0  0  0
   12.4702   -7.8618  -25.4051 C   0  0  0  0  0  0  0  0  0  0  0  0
   13.6445   -7.9654  -26.1513 C   0  0  0  0  0  0  0  0  0  0  0  0
   13.5886   -8.2964  -27.4808 O   0  0  0  0  0  0  0  0  0  0  0  0
   14.3785   -8.3655  -27.9800 H   0  0  0  0  0  0  0  0  0  0  0  0
   11.3507   -7.5050  -16.7208 C   0  0  0  0  0  0  0  0  0  0  0  0
   11.1635   -6.3068  -14.4472 C   0  0  0  0  0  0  0  0  0  0  0  0
    9.0086   -5.9709  -14.3075 N   0  0  0  0  0  0  0  0  0  0  0  0
    9.2561   -6.6472  -15.5551 O   0  0  0  0  0  0  0  0  0  0  0  0
   10.6036   -6.8179  -15.5663 C   0  0  0  0  0  0  0  0  0  0  0  0
   10.1754   -5.7896  -13.7011 C   0  0  0  0  0  0  0  0  0  0  0  0
   10.3515   -4.0388   -9.9123 C   0  0  0  0  0  0  0  0  0  0  0  0
    9.3237   -3.7038  -10.8034 C   0  0  0  0  0  0  0  0  0  0  0  0
   11.3267   -4.9644  -10.2971 C   0  0  0  0  0  0  0  0  0  0  0  0
    9.2778   -4.2923  -12.0748 C   0  0  0  0  0  0  0  0  0  0  0  0
   11.2720   -5.5462  -11.5727 C   0  0  0  0  0  0  0  0  0  0  0  0
   10.2608   -5.2067  -12.4787 C   0  0  0  0  0  0  0  0  0  0  0  0
   11.0818   -5.2484  -17.6897 C   0  0  0  0  0  0  0  0  0  0  0  0
   11.2419   -2.9351  -19.0607 O   0  0  0  0  0  0  0  0  0  0  0  0
   12.0171   -3.7939  -18.1336 P   0  0  0  0  0  0  0  0  0  0  0  0
   13.3396   -4.2551  -18.6201 O   0  0  0  0  0  0  0  0  0  0  0  0
   13.2255   -4.7490  -19.4471 H   0  0  0  0  0  0  0  0  0  0  0  0
   12.3221   -2.8794  -16.5836 C   0  0  0  0  0  0  0  0  0  0  0  0
   14.7090   -1.5172  -16.0450 O   0  0  0  0  0  0  0  0  0  0  0  0
   13.8433   -0.9281  -16.7123 C   0  0  0  0  0  0  0  0  0  0  0  0
   12.6887   -1.5257  -17.0258 N   0  0  0  0  0  0  0  0  0  0  0  0
   12.0470   -1.0308  -17.5849 H   0  0  0  0  0  0  0  0  0  0  0  0
   14.0184    0.3353  -17.1662 O   0  0  0  0  0  0  0  0  0  0  0  0
   13.0266    0.8868  -18.0732 C   0  0  0  0  0  0  0  0  0  0  0  0
   11.4292    4.3942  -16.3169 C   0  0  0  0  0  0  0  0  0  0  0  0
   12.6244    4.4449  -17.0340 C   0  0  0  0  0  0  0  0  0  0  0  0
   10.7639    3.1818  -16.1856 C   0  0  0  0  0  0  0  0  0  0  0  0
   13.1588    3.2854  -17.6073 C   0  0  0  0  0  0  0  0  0  0  0  0
   11.2935    2.0191  -16.7664 C   0  0  0  0  0  0  0  0  0  0  0  0
   12.4919    2.0654  -17.4829 C   0  0  0  0  0  0  0  0  0  0  0  0
   11.0909   -2.7401  -15.6654 C   0  0  0  0  0  0  0  0  0  0  0  0
   11.4883   -2.3144  -14.3639 C   0  0  0  0  0  0  0  0  0  0  0  0
   12.6198   -2.8684  -13.7626 C   0  0  0  0  0  0  0  0  0  0  0  0
   13.0385   -2.4646  -12.4884 C   0  0  0  0  0  0  0  0  0  0  0  0
   12.3231   -1.4749  -11.7996 C   0  0  0  0  0  0  0  0  0  0  0  0
   11.1966   -0.8885  -12.3968 C   0  0  0  0  0  0  0  0  0  0  0  0
   10.7791   -1.3157  -13.6655 C   0  0  0  0  0  0  0  0  0  0  0  0
  8  7  2  0  0  0
  7  6  1  0  0  0
  7  9  1  0  0  0
  6  4  1  0  0  0
  4  3  1  0  0  0
 11  6  1  0  0  0
 12 11  1  0  0  0
 13 12  2  0  0  0
 12 14  1  0  0  0
 18 17  1  0  0  0
 15 17  2  0  0  0
 17 16  1  0  0  0
 39 38  2  0  0  0
  3  2  2  0  0  0
 33 34  2  0  0  0
 34 35  1  0  0  0
 46 44  2  0  0  0
 44 45  1  0  0  0
 55 54  2  0  0  0
 53 54  1  0  0  0
 27 26  2  0  0  0
 26 28  1  0  0  0
 47 45  2  0  0  0
 48 46  1  0  0  0
 52 53  2  0  0  0
 56 55  1  0  0  0
 27 29  1  0  0  0
 28 30  2  0  0  0
 49 47  1  0  0  0
 48 49  2  0  0  0
 51 52  1  0  0  0
 51 56  2  0  0  0
 29 31  2  0  0  0
 30 31  1  0  0  0
 25 21  1  0  0  0
 21 24  2  0  0  0
 42 43  1  0  0  0
 43 49  1  0  0  0
 24 20  1  0  0  0
 20  1  1  0  0  0
 50 37  1  0  0  0
 50 51  1  0  0  0
  1 32  1  0  0  0
 32 34  1  0  0  0
 25 22  2  0  0  0
 22 23  1  0  0  0
 37 40  1  0  0  0
 40 39  1  0  0  0
 39 42  1  0  0  0
 23 24  1  0  0  0
  3  1  1  0  0  0
 31 25  1  0  0  0
 34 37  1  0  0  0
 15 13  1  0  0  0
 16 14  2  0  0  0
 35 36  1  0  0  0
 40 41  1  0  0  0
  4  5  1  0  0  0
 18 19  1  0  0  0
  9 10  1  0  0  0
M  END
> <minimizedAffinity>
-11.21564

$$$$
4CA5_3EF_A_1700


 56 60  0  0  0  0  0  0  0  0999 V2000
   13.0814   -9.1707  -22.4752 C   0  0  0  0  0  0  0  0  0  0  0  0
   12.0964   -7.1983  -23.4606 O   0  0  0  0  0  0  0  0  0  0  0  0
   13.0845   -7.9331  -23.3685 C   0  0  0  0  0  0  0  0  0  0  0  0
   14.2205   -7.7376  -24.0443 N   0  0  0  0  0  0  0  0  0  0  0  0
   14.9885   -8.3335  -23.8880 H   0  0  0  0  0  0  0  0  0  0  0  0
   14.3358   -6.6523  -25.0102 C   0  0  0  0  0  0  0  0  0  0  0  0
   13.5244   -7.0189  -26.2818 C   0  0  0  0  0  0  0  0  0  0  0  0
   14.1611   -7.1129  -27.3447 O   0  0  0  0  0  0  0  0  0  0  0  0
   12.2721   -7.1544  -26.1734 O   0  0  0  0  0  0  0  0  0  0  0  0
   11.8625   -7.0689  -25.3351 H   0  0  0  0  0  0  0  0  0  0  0  0
   15.8093   -6.3702  -25.3521 C   0  0  0  0  0  0  0  0  0  0  0  0
   16.7194   -7.4179  -25.5099 C   0  0  0  0  0  0  0  0  0  0  0  0
   17.8485   -7.2454  -26.3163 C   0  0  0  0  0  0  0  0  0  0  0  0
   16.5402   -8.6282  -24.8164 C   0  0  0  0  0  0  0  0  0  0  0  0
   18.7798   -8.2852  -26.4515 C   0  0  0  0  0  0  0  0  0  0  0  0
   17.4720   -9.6626  -24.9526 C   0  0  0  0  0  0  0  0  0  0  0  0
   18.5930   -9.4927  -25.7656 C   0  0  0  0  0  0  0  0  0  0  0  0
   19.5123  -10.5024  -25.8907 O   0  0  0  0  0  0  0  0  0  0  0  0
   20.2644  -10.3861  -26.4373 H   0  0  0  0  0  0  0  0  0  0  0  0
   14.0236   -8.8842  -21.2827 C   0  0  0  0  0  0  0  0  0  0  0  0
   14.1779   -6.9925  -19.5400 C   0  0  0  0  0  0  0  0  0  0  0  0
   12.0672   -6.5409  -19.1985 N   0  0  0  0  0  0  0  0  0  0  0  0
   12.1257   -7.6026  -20.1703 O   0  0  0  0  0  0  0  0  0  0  0  0
   13.4570   -7.8226  -20.3261 C   0  0  0  0  0  0  0  0  0  0  0  0
   13.3119   -6.2166  -18.8703 C   0  0  0  0  0  0  0  0  0  0  0  0
   14.0380   -3.2860  -15.9832 C   0  0  0  0  0  0  0  0  0  0  0  0
   13.2210   -3.0096  -17.0872 C   0  0  0  0  0  0  0  0  0  0  0  0
   14.6165   -4.5523  -15.8501 C   0  0  0  0  0  0  0  0  0  0  0  0
   12.9892   -3.9983  -18.0535 C   0  0  0  0  0  0  0  0  0  0  0  0
   14.3790   -5.5339  -16.8241 C   0  0  0  0  0  0  0  0  0  0  0  0
   13.5793   -5.2650  -17.9407 C   0  0  0  0  0  0  0  0  0  0  0  0
   13.6965  -10.3242  -23.2632 C   0  0  0  0  0  0  0  0  0  0  0  0
   13.0370   -9.9791  -25.8522 O   0  0  0  0  0  0  0  0  0  0  0  0
   12.6657  -10.7666  -24.6522 P   0  0  0  0  0  0  0  0  0  0  0  0
   11.2565  -10.6534  -24.2055 O   0  0  0  0  0  0  0  0  0  0  0  0
   11.0502   -9.7241  -24.0187 H   0  0  0  0  0  0  0  0  0  0  0  0
   12.9677  -12.5366  -24.9803 C   0  0  0  0  0  0  0  0  0  0  0  0
   12.7096  -13.0097  -27.7284 O   0  0  0  0  0  0  0  0  0  0  0  0
   13.8483  -12.7976  -27.2812 C   0  0  0  0  0  0  0  0  0  0  0  0
   14.0433  -12.5426  -25.9830 N   0  0  0  0  0  0  0  0  0  0  0  0
   14.9599  -12.3476  -25.6811 H   0  0  0  0  0  0  0  0  0  0  0  0
   14.9464  -12.8010  -28.0732 O   0  0  0  0  0  0  0  0  0  0  0  0
   16.2092  -12.3624  -27.5045 C   0  0  0  0  0  0  0  0  0  0  0  0
   17.6442   -9.1232  -29.8254 C   0  0  0  0  0  0  0  0  0  0  0  0
   18.3464  -10.3275  -29.7835 C   0  0  0  0  0  0  0  0  0  0  0  0
   16.4662   -8.9954  -29.1004 C   0  0  0  0  0  0  0  0  0  0  0  0
   17.8789  -11.3961  -29.0099 C   0  0  0  0  0  0  0  0  0  0  0  0
   15.9909  -10.0681  -28.3303 C   0  0  0  0  0  0  0  0  0  0  0  0
   16.6930  -11.2750  -28.2835 C   0  0  0  0  0  0  0  0  0  0  0  0
   13.4746  -13.3393  -23.7648 C   0  0  0  0  0  0  0  0  0  0  0  0
   12.6918  -14.5177  -23.5871 C   0  0  0  0  0  0  0  0  0  0  0  0
   12.9273  -15.6397  -24.3837 C   0  0  0  0  0  0  0  0  0  0  0  0
   12.1793  -16.8137  -24.2270 C   0  0  0  0  0  0  0  0  0  0  0  0
   11.1813  -16.8795  -23.2444 C   0  0  0  0  0  0  0  0  0  0  0  0
   10.9453  -15.7705  -22.4175 C   0  0  0  0  0  0  0  0  0  0  0  0
   11.6900  -14.5961  -22.5980 C   0  0  0  0  0  0  0  0  0  0  0  0
  8  7  2  0  0  0
  7  6  1  0  0  0
  7  9  1  0  0  0
  6  4  1  0  0  0
  4  3  1  0  0  0
 11  6  1  0  0  0
 12 11  1  0  0  0
 13 12  2  0  0  0
 12 14  1  0  0  0
 18 17  1  0  0  0
 15 17  2  0  0  0
 17 16  1  0  0  0
 39 38  2  0  0  0
  3  2  2  0  0  0
 33 34  2  0  0  0
 34 35  1  0  0  0
 46 44  2  0  0  0
 44 45  1  0  0  0
 55 54  2  0  0  0
 53 54  1  0  0  0
 27 26  2  0  0  0
 26 28  1  0  0  0
 47 45  2  0  0  0
 48 46  1  0  0  0
 52 53  2  0  0  0
 56 55  1  0  0  0
 27 29  1  0  0  0
 28 30  2  0  0  0
 49 47  1  0  0  0
 48 49  2  0  0  0
 51 52  1  0  0  0
 51 56  2  0  0  0
 29 31  2  0  0  0
 30 31  1  0  0  0
 25 21  1  0  0  0
 21 24  2  0  0  0
 42 43  1  0  0  0
 43 49  1  0  0  0
 24 20  1  0  0  0
 20  1  1  0  0  0
 50 37  1  0  0  0
 50 51  1  0  0  0
  1 32  1  0  0  0
 32 34  1  0  0  0
 25 22  2  0  0  0
 22 23  1  0  0  0
 37 40  1  0  0  0
 40 39  1  0  0  0
 39 42  1  0  0  0
 23 24  1  0  0  0
  3  1  1  0  0  0
 31 25  1  0  0  0
 34 37  1  0  0  0
 15 13  1  0  0  0
 16 14  2  0  0  0
 35 36  1  0  0  0
 40 41  1  0  0  0
  4  5  1  0  0  0
 18 19  1  0  0  0
  9 10  1  0  0  0
M  END
> <minimizedAffinity>
-11.19966

$$$$
