5MPN_YE5_A_1201


 24 26  0  0  0  0  0  0  0  0999 V2000
  -11.8881  -11.7691   -0.8308 C   0  0  0  0  0  0  0  0  0  0  0  0
  -12.1919  -13.1012   -0.5591 C   0  0  0  0  0  0  0  0  0  0  0  0
  -10.9603  -11.1015   -0.0387 C   0  0  0  0  0  0  0  0  0  0  0  0
  -10.6374  -13.0761    1.2844 C   0  0  0  0  0  0  0  0  0  0  0  0
  -11.5762  -13.7795    0.5027 C   0  0  0  0  0  0  0  0  0  0  0  0
  -10.3121  -11.7300    1.0255 C   0  0  0  0  0  0  0  0  0  0  0  0
  -12.8566  -17.7498    1.3341 C   0  0  0  0  0  0  0  0  0  0  0  0
  -11.5048  -17.4978    1.0974 C   0  0  0  0  0  0  0  0  0  0  0  0
  -13.3092  -15.4168    1.0232 C   0  0  0  0  0  0  0  0  0  0  0  0
  -13.7840  -16.7073    1.3070 C   0  0  0  0  0  0  0  0  0  0  0  0
  -11.0686  -16.1941    0.8320 C   0  0  0  0  0  0  0  0  0  0  0  0
  -11.9578  -15.1238    0.7781 C   0  0  0  0  0  0  0  0  0  0  0  0
  -15.4730  -17.8459    2.8143 C   0  0  0  0  0  0  0  0  0  0  0  0
  -15.1396  -16.9778    1.5993 C   0  0  0  0  0  0  0  0  0  0  0  0
  -16.0544  -16.6890    0.8200 O   0  0  0  0  0  0  0  0  0  0  0  0
   -9.7687  -15.8730    0.5954 O   0  0  0  0  0  0  0  0  0  0  0  0
   -8.2963  -17.5203   -0.3186 C   0  0  0  0  0  0  0  0  0  0  0  0
   -8.7787  -16.8408    0.9646 C   0  0  0  0  0  0  0  0  0  0  0  0
   -9.4401  -11.0003    1.7816 C   0  0  0  0  0  0  0  0  0  0  0  0
   -8.0087   -9.5497    2.4306 N   0  0  0  0  0  0  0  0  0  0  0  0
   -8.7753   -9.9048    1.4117 N   0  0  0  0  0  0  0  0  0  0  0  0
   -9.0265  -11.2881    3.0156 N   0  0  0  0  0  0  0  0  0  0  0  0
   -8.1702  -10.3860    3.3746 N   0  0  0  0  0  0  0  0  0  0  0  0
   -7.4119   -8.7670    2.4537 H   0  0  0  0  0  0  0  0  0  0  0  0
 17 18  1  0  0  0
 18 16  1  0  0  0
 16 11  1  0  0  0
  8 11  2  0  0  0
  8  7  1  0  0  0
 11 12  1  0  0  0
  7 10  2  0  0  0
 12  5  1  0  0  0
 12  9  2  0  0  0
  2  5  2  0  0  0
  2  1  1  0  0  0
  5  4  1  0  0  0
 10  9  1  0  0  0
 10 14  1  0  0  0
  1  3  2  0  0  0
 15 14  2  0  0  0
  4  6  2  0  0  0
 14 13  1  0  0  0
  3  6  1  0  0  0
  6 19  1  0  0  0
 19 22  1  0  0  0
 19 21  2  0  0  0
 22 23  2  0  0  0
 21 20  1  0  0  0
 23 20  1  0  0  0
 20 24  1  0  0  0
M  END
> <minimizedAffinity>
-8.09379

$$$$
5MPN_YE5_A_1201


 24 26  0  0  0  0  0  0  0  0999 V2000
  -13.6118  -15.5735    0.7402 C   0  0  0  0  0  0  0  0  0  0  0  0
  -13.0380  -14.3224    0.5252 C   0  0  0  0  0  0  0  0  0  0  0  0
  -12.7924  -16.6815    0.9263 C   0  0  0  0  0  0  0  0  0  0  0  0
  -10.8419  -15.3054    0.6888 C   0  0  0  0  0  0  0  0  0  0  0  0
  -11.6450  -14.1636    0.4928 C   0  0  0  0  0  0  0  0  0  0  0  0
  -11.4006  -16.5795    0.9115 C   0  0  0  0  0  0  0  0  0  0  0  0
   -9.9572  -10.3218   -0.2046 C   0  0  0  0  0  0  0  0  0  0  0  0
  -10.7456  -10.9166   -1.1903 C   0  0  0  0  0  0  0  0  0  0  0  0
  -10.3049  -12.2446    1.1834 C   0  0  0  0  0  0  0  0  0  0  0  0
   -9.7284  -10.9767    1.0064 C   0  0  0  0  0  0  0  0  0  0  0  0
  -11.3151  -12.1766   -0.9698 C   0  0  0  0  0  0  0  0  0  0  0  0
  -11.1023  -12.8763    0.2152 C   0  0  0  0  0  0  0  0  0  0  0  0
   -8.9053  -10.9621    3.4029 C   0  0  0  0  0  0  0  0  0  0  0  0
   -8.9688  -10.3337    2.0093 C   0  0  0  0  0  0  0  0  0  0  0  0
   -8.4984   -9.2009    1.8582 O   0  0  0  0  0  0  0  0  0  0  0  0
  -12.0957  -12.8154   -1.8816 O   0  0  0  0  0  0  0  0  0  0  0  0
  -13.0109  -12.6821   -4.0864 C   0  0  0  0  0  0  0  0  0  0  0  0
  -12.9228  -11.9994   -2.7200 C   0  0  0  0  0  0  0  0  0  0  0  0
  -10.6608  -17.7169    1.0653 C   0  0  0  0  0  0  0  0  0  0  0  0
   -9.7591  -19.4809    1.8712 N   0  0  0  0  0  0  0  0  0  0  0  0
  -10.6478  -18.5322    2.1208 N   0  0  0  0  0  0  0  0  0  0  0  0
   -9.7490  -18.1915    0.2167 N   0  0  0  0  0  0  0  0  0  0  0  0
   -9.2333  -19.2598    0.7349 N   0  0  0  0  0  0  0  0  0  0  0  0
   -9.5412  -20.2336    2.4672 H   0  0  0  0  0  0  0  0  0  0  0  0
 17 18  1  0  0  0
 18 16  1  0  0  0
 16 11  1  0  0  0
  8 11  2  0  0  0
  8  7  1  0  0  0
 11 12  1  0  0  0
  7 10  2  0  0  0
 12  5  1  0  0  0
 12  9  2  0  0  0
  2  5  2  0  0  0
  2  1  1  0  0  0
  5  4  1  0  0  0
 10  9  1  0  0  0
 10 14  1  0  0  0
  1  3  2  0  0  0
 15 14  2  0  0  0
  4  6  2  0  0  0
 14 13  1  0  0  0
  3  6  1  0  0  0
  6 19  1  0  0  0
 19 22  1  0  0  0
 19 21  2  0  0  0
 22 23  2  0  0  0
 21 20  1  0  0  0
 23 20  1  0  0  0
 20 24  1  0  0  0
M  END
> <minimizedAffinity>
-7.95867

$$$$
5MPN_YE5_A_1201


 24 26  0  0  0  0  0  0  0  0999 V2000
  -12.3536  -12.4358   -1.3105 C   0  0  0  0  0  0  0  0  0  0  0  0
  -12.5818  -13.7332   -0.8574 C   0  0  0  0  0  0  0  0  0  0  0  0
  -11.4869  -11.6059   -0.6078 C   0  0  0  0  0  0  0  0  0  0  0  0
  -11.0747  -13.3506    0.9860 C   0  0  0  0  0  0  0  0  0  0  0  0
  -11.9505  -14.2151    0.2984 C   0  0  0  0  0  0  0  0  0  0  0  0
  -10.8263  -12.0362    0.5438 C   0  0  0  0  0  0  0  0  0  0  0  0
  -13.0046  -18.1019    1.6681 C   0  0  0  0  0  0  0  0  0  0  0  0
  -11.6689  -17.8081    1.3920 C   0  0  0  0  0  0  0  0  0  0  0  0
  -13.5887  -15.8622    1.0457 C   0  0  0  0  0  0  0  0  0  0  0  0
  -13.9899  -17.1270    1.5047 C   0  0  0  0  0  0  0  0  0  0  0  0
  -11.3069  -16.5299    0.9497 C   0  0  0  0  0  0  0  0  0  0  0  0
  -12.2555  -15.5290    0.7559 C   0  0  0  0  0  0  0  0  0  0  0  0
  -15.6033  -18.5860    2.8044 C   0  0  0  0  0  0  0  0  0  0  0  0
  -15.3286  -17.4318    1.8383 C   0  0  0  0  0  0  0  0  0  0  0  0
  -16.2889  -16.9210    1.2516 O   0  0  0  0  0  0  0  0  0  0  0  0
  -10.0269  -16.1707    0.6647 O   0  0  0  0  0  0  0  0  0  0  0  0
   -8.3853  -17.5878   -0.3420 C   0  0  0  0  0  0  0  0  0  0  0  0
   -8.9973  -17.1164    0.9787 C   0  0  0  0  0  0  0  0  0  0  0  0
  -10.0182  -11.1535    1.2014 C   0  0  0  0  0  0  0  0  0  0  0  0
   -8.8613  -10.1614    2.7019 N   0  0  0  0  0  0  0  0  0  0  0  0
   -9.5709  -11.2509    2.4542 N   0  0  0  0  0  0  0  0  0  0  0  0
   -9.5809   -9.9821    0.7397 N   0  0  0  0  0  0  0  0  0  0  0  0
   -8.8807   -9.4176    1.6708 N   0  0  0  0  0  0  0  0  0  0  0  0
   -8.3952   -9.9601    3.5454 H   0  0  0  0  0  0  0  0  0  0  0  0
 17 18  1  0  0  0
 18 16  1  0  0  0
 16 11  1  0  0  0
  8 11  2  0  0  0
  8  7  1  0  0  0
 11 12  1  0  0  0
  7 10  2  0  0  0
 12  5  1  0  0  0
 12  9  2  0  0  0
  2  5  2  0  0  0
  2  1  1  0  0  0
  5  4  1  0  0  0
 10  9  1  0  0  0
 10 14  1  0  0  0
  1  3  2  0  0  0
 15 14  2  0  0  0
  4  6  2  0  0  0
 14 13  1  0  0  0
  3  6  1  0  0  0
  6 19  1  0  0  0
 19 22  1  0  0  0
 19 21  2  0  0  0
 22 23  2  0  0  0
 21 20  1  0  0  0
 23 20  1  0  0  0
 20 24  1  0  0  0
M  END
> <minimizedAffinity>
-7.93883

$$$$
5MPN_YE5_A_1201


 24 26  0  0  0  0  0  0  0  0999 V2000
  -11.2342  -17.4454    0.9874 C   0  0  0  0  0  0  0  0  0  0  0  0
  -10.9628  -16.1111    0.6931 C   0  0  0  0  0  0  0  0  0  0  0  0
  -12.5408  -17.8363    1.2589 C   0  0  0  0  0  0  0  0  0  0  0  0
  -13.3028  -15.5838    0.9431 C   0  0  0  0  0  0  0  0  0  0  0  0
  -11.9885  -15.1551    0.6673 C   0  0  0  0  0  0  0  0  0  0  0  0
  -13.6007  -16.9286    1.2395 C   0  0  0  0  0  0  0  0  0  0  0  0
  -10.9200  -11.0856    0.0415 C   0  0  0  0  0  0  0  0  0  0  0  0
  -11.7140  -11.7414   -0.9000 C   0  0  0  0  0  0  0  0  0  0  0  0
  -10.8613  -13.0984    1.3414 C   0  0  0  0  0  0  0  0  0  0  0  0
  -10.4841  -11.7549    1.1859 C   0  0  0  0  0  0  0  0  0  0  0  0
  -12.0810  -13.0780   -0.7015 C   0  0  0  0  0  0  0  0  0  0  0  0
  -11.6574  -13.7928    0.4160 C   0  0  0  0  0  0  0  0  0  0  0  0
   -9.3773  -11.7569    3.4654 C   0  0  0  0  0  0  0  0  0  0  0  0
   -9.7233  -11.0563    2.1500 C   0  0  0  0  0  0  0  0  0  0  0  0
   -9.4751   -9.8498    2.0488 O   0  0  0  0  0  0  0  0  0  0  0  0
  -12.8540  -13.7795   -1.5727 O   0  0  0  0  0  0  0  0  0  0  0  0
  -13.2249  -13.2667   -3.8783 C   0  0  0  0  0  0  0  0  0  0  0  0
  -13.7042  -13.0257   -2.4455 C   0  0  0  0  0  0  0  0  0  0  0  0
  -14.8515  -17.3784    1.5519 C   0  0  0  0  0  0  0  0  0  0  0  0
  -16.8714  -18.0697    1.4234 N   0  0  0  0  0  0  0  0  0  0  0  0
  -15.8091  -17.7504    0.7012 N   0  0  0  0  0  0  0  0  0  0  0  0
  -15.3838  -17.4606    2.7711 N   0  0  0  0  0  0  0  0  0  0  0  0
  -16.5998  -17.8886    2.6523 N   0  0  0  0  0  0  0  0  0  0  0  0
  -17.7302  -18.3939    1.0676 H   0  0  0  0  0  0  0  0  0  0  0  0
 17 18  1  0  0  0
 18 16  1  0  0  0
 16 11  1  0  0  0
  8 11  2  0  0  0
  8  7  1  0  0  0
 11 12  1  0  0  0
  7 10  2  0  0  0
 12  5  1  0  0  0
 12  9  2  0  0  0
  2  5  2  0  0  0
  2  1  1  0  0  0
  5  4  1  0  0  0
 10  9  1  0  0  0
 10 14  1  0  0  0
  1  3  2  0  0  0
 15 14  2  0  0  0
  4  6  2  0  0  0
 14 13  1  0  0  0
  3  6  1  0  0  0
  6 19  1  0  0  0
 19 22  1  0  0  0
 19 21  2  0  0  0
 22 23  2  0  0  0
 21 20  1  0  0  0
 23 20  1  0  0  0
 20 24  1  0  0  0
M  END
> <minimizedAffinity>
-7.84619

$$$$
5MPN_YE5_A_1201


 24 26  0  0  0  0  0  0  0  0999 V2000
  -10.2644  -10.5945   -0.9200 C   0  0  0  0  0  0  0  0  0  0  0  0
  -11.0209  -11.7642   -0.9171 C   0  0  0  0  0  0  0  0  0  0  0  0
   -9.4801  -10.2817    0.1848 C   0  0  0  0  0  0  0  0  0  0  0  0
  -10.1959  -12.2880    1.2876 C   0  0  0  0  0  0  0  0  0  0  0  0
  -11.0040  -12.6314    0.1849 C   0  0  0  0  0  0  0  0  0  0  0  0
   -9.4199  -11.1123    1.3047 C   0  0  0  0  0  0  0  0  0  0  0  0
  -13.3841  -16.1570    0.2099 C   0  0  0  0  0  0  0  0  0  0  0  0
  -13.8707  -15.0023   -0.4039 C   0  0  0  0  0  0  0  0  0  0  0  0
  -11.3796  -14.9698    0.7733 C   0  0  0  0  0  0  0  0  0  0  0  0
  -12.1220  -16.1611    0.8056 C   0  0  0  0  0  0  0  0  0  0  0  0
  -13.0935  -13.8378   -0.4277 C   0  0  0  0  0  0  0  0  0  0  0  0
  -11.8355  -13.7878    0.1672 C   0  0  0  0  0  0  0  0  0  0  0  0
  -12.6281  -18.4051    1.8683 C   0  0  0  0  0  0  0  0  0  0  0  0
  -11.6290  -17.3557    1.3768 C   0  0  0  0  0  0  0  0  0  0  0  0
  -10.4348  -17.5127    1.6534 O   0  0  0  0  0  0  0  0  0  0  0  0
  -13.5001  -12.6780   -1.0093 O   0  0  0  0  0  0  0  0  0  0  0  0
  -13.4177  -12.8386   -3.3934 C   0  0  0  0  0  0  0  0  0  0  0  0
  -14.3341  -12.7857   -2.1693 C   0  0  0  0  0  0  0  0  0  0  0  0
   -8.6559  -10.7218    2.3670 C   0  0  0  0  0  0  0  0  0  0  0  0
   -7.2433   -9.7067    3.6114 N   0  0  0  0  0  0  0  0  0  0  0  0
   -7.8044   -9.6962    2.4126 N   0  0  0  0  0  0  0  0  0  0  0  0
   -8.5582  -11.3397    3.5440 N   0  0  0  0  0  0  0  0  0  0  0  0
   -7.7027  -10.6931    4.2692 N   0  0  0  0  0  0  0  0  0  0  0  0
   -6.5797   -9.0577    3.9395 H   0  0  0  0  0  0  0  0  0  0  0  0
 17 18  1  0  0  0
 18 16  1  0  0  0
 16 11  1  0  0  0
  8 11  2  0  0  0
  8  7  1  0  0  0
 11 12  1  0  0  0
  7 10  2  0  0  0
 12  5  1  0  0  0
 12  9  2  0  0  0
  2  5  2  0  0  0
  2  1  1  0  0  0
  5  4  1  0  0  0
 10  9  1  0  0  0
 10 14  1  0  0  0
  1  3  2  0  0  0
 15 14  2  0  0  0
  4  6  2  0  0  0
 14 13  1  0  0  0
  3  6  1  0  0  0
  6 19  1  0  0  0
 19 22  1  0  0  0
 19 21  2  0  0  0
 22 23  2  0  0  0
 21 20  1  0  0  0
 23 20  1  0  0  0
 20 24  1  0  0  0
M  END
> <minimizedAffinity>
-7.79158

$$$$
5MPN_YE5_A_1201


 24 26  0  0  0  0  0  0  0  0999 V2000
  -12.2374  -12.0746   -0.8841 C   0  0  0  0  0  0  0  0  0  0  0  0
  -12.4291  -13.4252   -0.6014 C   0  0  0  0  0  0  0  0  0  0  0  0
  -11.3197  -11.3412   -0.1400 C   0  0  0  0  0  0  0  0  0  0  0  0
  -10.7850  -13.2867    1.1574 C   0  0  0  0  0  0  0  0  0  0  0  0
  -11.7105  -14.0566    0.4241 C   0  0  0  0  0  0  0  0  0  0  0  0
  -10.5722  -11.9206    0.8863 C   0  0  0  0  0  0  0  0  0  0  0  0
  -12.3666  -18.1714    1.2798 C   0  0  0  0  0  0  0  0  0  0  0  0
  -13.4464  -17.2877    1.2791 C   0  0  0  0  0  0  0  0  0  0  0  0
  -10.9176  -16.3450    0.7233 C   0  0  0  0  0  0  0  0  0  0  0  0
  -11.0796  -17.7131    0.9942 C   0  0  0  0  0  0  0  0  0  0  0  0
  -13.2458  -15.9326    0.9896 C   0  0  0  0  0  0  0  0  0  0  0  0
  -11.9786  -15.4249    0.7147 C   0  0  0  0  0  0  0  0  0  0  0  0
   -8.6402  -18.1998    1.4774 C   0  0  0  0  0  0  0  0  0  0  0  0
  -10.0095  -18.6346    0.9511 C   0  0  0  0  0  0  0  0  0  0  0  0
  -10.0882  -19.7117    0.3501 O   0  0  0  0  0  0  0  0  0  0  0  0
  -14.2491  -15.0152    0.9673 O   0  0  0  0  0  0  0  0  0  0  0  0
  -16.0269  -14.1462   -0.3746 C   0  0  0  0  0  0  0  0  0  0  0  0
  -15.4660  -15.3931    0.3121 C   0  0  0  0  0  0  0  0  0  0  0  0
   -9.7165  -11.1293    1.5977 C   0  0  0  0  0  0  0  0  0  0  0  0
   -8.3467   -9.5895    2.1694 N   0  0  0  0  0  0  0  0  0  0  0  0
   -9.1274  -10.0061    1.1851 N   0  0  0  0  0  0  0  0  0  0  0  0
   -9.2445  -11.3698    2.8208 N   0  0  0  0  0  0  0  0  0  0  0  0
   -8.4280  -10.4150    3.1330 N   0  0  0  0  0  0  0  0  0  0  0  0
   -7.7942   -8.7747    2.1574 H   0  0  0  0  0  0  0  0  0  0  0  0
 17 18  1  0  0  0
 18 16  1  0  0  0
 16 11  1  0  0  0
  8 11  2  0  0  0
  8  7  1  0  0  0
 11 12  1  0  0  0
  7 10  2  0  0  0
 12  5  1  0  0  0
 12  9  2  0  0  0
  2  5  2  0  0  0
  2  1  1  0  0  0
  5  4  1  0  0  0
 10  9  1  0  0  0
 10 14  1  0  0  0
  1  3  2  0  0  0
 15 14  2  0  0  0
  4  6  2  0  0  0
 14 13  1  0  0  0
  3  6  1  0  0  0
  6 19  1  0  0  0
 19 22  1  0  0  0
 19 21  2  0  0  0
 22 23  2  0  0  0
 21 20  1  0  0  0
 23 20  1  0  0  0
 20 24  1  0  0  0
M  END
> <minimizedAffinity>
-7.55728

$$$$
5MPN_YE5_A_1201


 24 26  0  0  0  0  0  0  0  0999 V2000
  -13.6993  -16.2325    1.1252 C   0  0  0  0  0  0  0  0  0  0  0  0
  -13.3553  -14.9638    0.6641 C   0  0  0  0  0  0  0  0  0  0  0  0
  -12.7017  -17.1753    1.3487 C   0  0  0  0  0  0  0  0  0  0  0  0
  -11.0290  -15.5995    0.6609 C   0  0  0  0  0  0  0  0  0  0  0  0
  -12.0169  -14.6230    0.4208 C   0  0  0  0  0  0  0  0  0  0  0  0
  -11.3537  -16.8874    1.1308 C   0  0  0  0  0  0  0  0  0  0  0  0
  -11.2147  -10.7953   -1.2523 C   0  0  0  0  0  0  0  0  0  0  0  0
  -10.5822  -11.1752   -0.0681 C   0  0  0  0  0  0  0  0  0  0  0  0
  -12.3321  -12.9153   -1.2937 C   0  0  0  0  0  0  0  0  0  0  0  0
  -12.0992  -11.6659   -1.8906 C   0  0  0  0  0  0  0  0  0  0  0  0
  -10.8299  -12.4360    0.4882 C   0  0  0  0  0  0  0  0  0  0  0  0
  -11.7163  -13.3329   -0.1025 C   0  0  0  0  0  0  0  0  0  0  0  0
  -13.0760  -12.3652   -4.1217 C   0  0  0  0  0  0  0  0  0  0  0  0
  -12.6893  -11.2799   -3.1149 C   0  0  0  0  0  0  0  0  0  0  0  0
  -12.7466  -10.1000   -3.4783 O   0  0  0  0  0  0  0  0  0  0  0  0
  -10.2484  -12.8753    1.6361 O   0  0  0  0  0  0  0  0  0  0  0  0
   -8.9548  -11.8658    3.3750 C   0  0  0  0  0  0  0  0  0  0  0  0
  -10.3583  -12.0317    2.7890 C   0  0  0  0  0  0  0  0  0  0  0  0
  -10.4334  -17.8748    1.3375 C   0  0  0  0  0  0  0  0  0  0  0  0
   -9.1480  -19.3182    2.2534 N   0  0  0  0  0  0  0  0  0  0  0  0
  -10.1152  -18.4485    2.4988 N   0  0  0  0  0  0  0  0  0  0  0  0
   -9.6188  -18.4042    0.4249 N   0  0  0  0  0  0  0  0  0  0  0  0
   -8.8647  -19.2758    1.0146 N   0  0  0  0  0  0  0  0  0  0  0  0
   -8.7188  -19.9016    2.9202 H   0  0  0  0  0  0  0  0  0  0  0  0
 17 18  1  0  0  0
 18 16  1  0  0  0
 16 11  1  0  0  0
  8 11  2  0  0  0
  8  7  1  0  0  0
 11 12  1  0  0  0
  7 10  2  0  0  0
 12  5  1  0  0  0
 12  9  2  0  0  0
  2  5  2  0  0  0
  2  1  1  0  0  0
  5  4  1  0  0  0
 10  9  1  0  0  0
 10 14  1  0  0  0
  1  3  2  0  0  0
 15 14  2  0  0  0
  4  6  2  0  0  0
 14 13  1  0  0  0
  3  6  1  0  0  0
  6 19  1  0  0  0
 19 22  1  0  0  0
 19 21  2  0  0  0
 22 23  2  0  0  0
 21 20  1  0  0  0
 23 20  1  0  0  0
 20 24  1  0  0  0
M  END
> <minimizedAffinity>
-7.20398

$$$$
5MPN_YE5_A_1201


 24 26  0  0  0  0  0  0  0  0999 V2000
  -11.2142  -17.0701    1.0909 C   0  0  0  0  0  0  0  0  0  0  0  0
  -11.1516  -15.8122    0.4955 C   0  0  0  0  0  0  0  0  0  0  0  0
  -12.4371  -17.5571    1.5394 C   0  0  0  0  0  0  0  0  0  0  0  0
  -13.5292  -15.5520    0.8037 C   0  0  0  0  0  0  0  0  0  0  0  0
  -12.3045  -15.0285    0.3423 C   0  0  0  0  0  0  0  0  0  0  0  0
  -13.6165  -16.8230    1.4054 C   0  0  0  0  0  0  0  0  0  0  0  0
  -12.0254  -11.1851   -1.4590 C   0  0  0  0  0  0  0  0  0  0  0  0
  -11.4578  -11.3993   -0.2025 C   0  0  0  0  0  0  0  0  0  0  0  0
  -12.7420  -13.4721   -1.4856 C   0  0  0  0  0  0  0  0  0  0  0  0
  -12.6742  -12.2248   -2.1267 C   0  0  0  0  0  0  0  0  0  0  0  0
  -11.5341  -12.6621    0.3975 C   0  0  0  0  0  0  0  0  0  0  0  0
  -12.1849  -13.7261   -0.2217 C   0  0  0  0  0  0  0  0  0  0  0  0
  -13.3779  -13.1909   -4.3611 C   0  0  0  0  0  0  0  0  0  0  0  0
  -13.1973  -11.9985   -3.4195 C   0  0  0  0  0  0  0  0  0  0  0  0
  -13.3513  -10.8623   -3.8809 O   0  0  0  0  0  0  0  0  0  0  0  0
  -11.0023  -12.9453    1.6164 O   0  0  0  0  0  0  0  0  0  0  0  0
  -10.0539  -11.8260    3.5043 C   0  0  0  0  0  0  0  0  0  0  0  0
   -9.8643  -12.1778    2.0274 C   0  0  0  0  0  0  0  0  0  0  0  0
  -14.7739  -17.3504    1.9022 C   0  0  0  0  0  0  0  0  0  0  0  0
  -16.1879  -18.4547    3.0663 N   0  0  0  0  0  0  0  0  0  0  0  0
  -14.9064  -18.1377    2.9706 N   0  0  0  0  0  0  0  0  0  0  0  0
  -15.9899  -17.2403    1.3674 N   0  0  0  0  0  0  0  0  0  0  0  0
  -16.8161  -17.9134    2.1024 N   0  0  0  0  0  0  0  0  0  0  0  0
  -16.5887  -19.0169    3.7681 H   0  0  0  0  0  0  0  0  0  0  0  0
 17 18  1  0  0  0
 18 16  1  0  0  0
 16 11  1  0  0  0
  8 11  2  0  0  0
  8  7  1  0  0  0
 11 12  1  0  0  0
  7 10  2  0  0  0
 12  5  1  0  0  0
 12  9  2  0  0  0
  2  5  2  0  0  0
  2  1  1  0  0  0
  5  4  1  0  0  0
 10  9  1  0  0  0
 10 14  1  0  0  0
  1  3  2  0  0  0
 15 14  2  0  0  0
  4  6  2  0  0  0
 14 13  1  0  0  0
  3  6  1  0  0  0
  6 19  1  0  0  0
 19 22  1  0  0  0
 19 21  2  0  0  0
 22 23  2  0  0  0
 21 20  1  0  0  0
 23 20  1  0  0  0
 20 24  1  0  0  0
M  END
> <minimizedAffinity>
-7.18398

$$$$
5MPN_YE5_A_1201


 24 26  0  0  0  0  0  0  0  0999 V2000
  -12.3422  -17.6282    1.1896 C   0  0  0  0  0  0  0  0  0  0  0  0
  -12.3612  -16.2385    1.0940 C   0  0  0  0  0  0  0  0  0  0  0  0
  -11.2013  -18.3267    0.8099 C   0  0  0  0  0  0  0  0  0  0  0  0
  -10.1038  -16.2696    0.2461 C   0  0  0  0  0  0  0  0  0  0  0  0
  -11.2461  -15.5329    0.6193 C   0  0  0  0  0  0  0  0  0  0  0  0
  -10.0611  -17.6748    0.3380 C   0  0  0  0  0  0  0  0  0  0  0  0
  -11.3916  -11.2916    0.3270 C   0  0  0  0  0  0  0  0  0  0  0  0
  -12.1924  -12.0673   -0.5119 C   0  0  0  0  0  0  0  0  0  0  0  0
  -10.5398  -13.3028    1.3143 C   0  0  0  0  0  0  0  0  0  0  0  0
  -10.5531  -11.8997    1.2625 C   0  0  0  0  0  0  0  0  0  0  0  0
  -12.1613  -13.4641   -0.4195 C   0  0  0  0  0  0  0  0  0  0  0  0
  -11.3294  -14.1172    0.4863 C   0  0  0  0  0  0  0  0  0  0  0  0
   -9.4400  -11.6351    3.5235 C   0  0  0  0  0  0  0  0  0  0  0  0
   -9.7890  -11.0936    2.1357 C   0  0  0  0  0  0  0  0  0  0  0  0
   -9.5398   -9.9077    1.8926 O   0  0  0  0  0  0  0  0  0  0  0  0
  -12.9150  -14.2831   -1.2006 O   0  0  0  0  0  0  0  0  0  0  0  0
  -15.1566  -14.3241   -0.3700 C   0  0  0  0  0  0  0  0  0  0  0  0
  -14.2468  -13.8518   -1.5058 C   0  0  0  0  0  0  0  0  0  0  0  0
   -8.9912  -18.4293   -0.0504 C   0  0  0  0  0  0  0  0  0  0  0  0
   -7.2369  -19.6525   -0.0443 N   0  0  0  0  0  0  0  0  0  0  0  0
   -8.1503  -19.1000    0.7382 N   0  0  0  0  0  0  0  0  0  0  0  0
   -8.5353  -18.5790   -1.2940 N   0  0  0  0  0  0  0  0  0  0  0  0
   -7.4813  -19.3293   -1.2495 N   0  0  0  0  0  0  0  0  0  0  0  0
   -6.4911  -20.2201    0.2572 H   0  0  0  0  0  0  0  0  0  0  0  0
 17 18  1  0  0  0
 18 16  1  0  0  0
 16 11  1  0  0  0
  8 11  2  0  0  0
  8  7  1  0  0  0
 11 12  1  0  0  0
  7 10  2  0  0  0
 12  5  1  0  0  0
 12  9  2  0  0  0
  2  5  2  0  0  0
  2  1  1  0  0  0
  5  4  1  0  0  0
 10  9  1  0  0  0
 10 14  1  0  0  0
  1  3  2  0  0  0
 15 14  2  0  0  0
  4  6  2  0  0  0
 14 13  1  0  0  0
  3  6  1  0  0  0
  6 19  1  0  0  0
 19 22  1  0  0  0
 19 21  2  0  0  0
 22 23  2  0  0  0
 21 20  1  0  0  0
 23 20  1  0  0  0
 20 24  1  0  0  0
M  END
> <minimizedAffinity>
-7.17617

$$$$
5MPN_YE5_A_1201


 24 26  0  0  0  0  0  0  0  0999 V2000
  -13.1909  -12.2338   -4.3022 C   0  0  0  0  0  0  0  0  0  0  0  0
  -12.4743  -12.5581   -3.1524 C   0  0  0  0  0  0  0  0  0  0  0  0
  -14.2301  -11.3129   -4.2263 C   0  0  0  0  0  0  0  0  0  0  0  0
  -13.8422  -11.0372   -1.8752 C   0  0  0  0  0  0  0  0  0  0  0  0
  -12.7860  -11.9697   -1.9182 C   0  0  0  0  0  0  0  0  0  0  0  0
  -14.5778  -10.6916   -3.0260 C   0  0  0  0  0  0  0  0  0  0  0  0
  -10.5757  -13.0330    1.5572 C   0  0  0  0  0  0  0  0  0  0  0  0
  -11.3767  -13.9890    0.9316 C   0  0  0  0  0  0  0  0  0  0  0  0
  -11.2451  -11.4382   -0.1021 C   0  0  0  0  0  0  0  0  0  0  0  0
  -10.4916  -11.7378    1.0442 C   0  0  0  0  0  0  0  0  0  0  0  0
  -12.1019  -13.6549   -0.2186 C   0  0  0  0  0  0  0  0  0  0  0  0
  -12.0634  -12.3719   -0.7586 C   0  0  0  0  0  0  0  0  0  0  0  0
   -9.2888  -10.9847    3.1435 C   0  0  0  0  0  0  0  0  0  0  0  0
   -9.6352  -10.8008    1.6646 C   0  0  0  0  0  0  0  0  0  0  0  0
   -9.2957   -9.7486    1.1124 O   0  0  0  0  0  0  0  0  0  0  0  0
  -12.8994  -14.5335   -0.8825 O   0  0  0  0  0  0  0  0  0  0  0  0
  -15.2536  -14.3071   -0.5319 C   0  0  0  0  0  0  0  0  0  0  0  0
  -13.9983  -15.0968   -0.1558 C   0  0  0  0  0  0  0  0  0  0  0  0
  -15.6331   -9.8250   -3.0211 C   0  0  0  0  0  0  0  0  0  0  0  0
  -16.8270   -8.0510   -2.9770 N   0  0  0  0  0  0  0  0  0  0  0  0
  -15.5806   -8.4923   -3.0377 N   0  0  0  0  0  0  0  0  0  0  0  0
  -16.9230  -10.1458   -2.9220 N   0  0  0  0  0  0  0  0  0  0  0  0
  -17.6112   -9.0494   -2.9063 N   0  0  0  0  0  0  0  0  0  0  0  0
  -17.1016   -7.1056   -2.9851 H   0  0  0  0  0  0  0  0  0  0  0  0
 17 18  1  0  0  0
 18 16  1  0  0  0
 16 11  1  0  0  0
  8 11  2  0  0  0
  8  7  1  0  0  0
 11 12  1  0  0  0
  7 10  2  0  0  0
 12  5  1  0  0  0
 12  9  2  0  0  0
  2  5  2  0  0  0
  2  1  1  0  0  0
  5  4  1  0  0  0
 10  9  1  0  0  0
 10 14  1  0  0  0
  1  3  2  0  0  0
 15 14  2  0  0  0
  4  6  2  0  0  0
 14 13  1  0  0  0
  3  6  1  0  0  0
  6 19  1  0  0  0
 19 22  1  0  0  0
 19 21  2  0  0  0
 22 23  2  0  0  0
 21 20  1  0  0  0
 23 20  1  0  0  0
 20 24  1  0  0  0
M  END
> <minimizedAffinity>
-7.08370

$$$$
