5MPN_YE5_A_1201
  RCSB PDB01131817373D
Coordinates from PDB:5MPN:A:1201 Model:1 without hydrogens
 23 25  0  0  0  0            999 V2000
  -15.7340  -14.7960   -2.4620   C 0  0  0  0  0  0  0  0  0  0  0  0
   -9.3790  -12.0150    2.8870   C 0  0  0  0  0  0  0  0  0  0  0  0
  -11.3270  -17.9100    1.0940   C 0  0  0  0  0  0  0  0  0  0  0  0
  -11.2070  -16.5780    0.7040   C 0  0  0  0  0  0  0  0  0  0  0  0
  -12.5370  -18.3700    1.6020   C 0  0  0  0  0  0  0  0  0  0  0  0
  -11.6320  -11.6040   -0.1540   C 0  0  0  0  0  0  0  0  0  0  0  0
  -12.5940  -12.3320   -0.8550   C 0  0  0  0  0  0  0  0  0  0  0  0
  -13.5030  -16.1910    1.3320   C 0  0  0  0  0  0  0  0  0  0  0  0
  -11.1470  -13.5610    1.1420   C 0  0  0  0  0  0  0  0  0  0  0  0
  -14.6720  -13.7770   -2.0440   C 0  0  0  0  0  0  0  0  0  0  0  0
   -9.9610  -11.4380    1.5950   C 0  0  0  0  0  0  0  0  0  0  0  0
  -10.8940  -12.2080    0.8650   C 0  0  0  0  0  0  0  0  0  0  0  0
  -12.2890  -15.6930    0.8170   C 0  0  0  0  0  0  0  0  0  0  0  0
  -13.6480  -17.5350    1.7290   C 0  0  0  0  0  0  0  0  0  0  0  0
  -12.8270  -13.6760   -0.5390   C 0  0  0  0  0  0  0  0  0  0  0  0
  -12.1050  -14.3270    0.4580   C 0  0  0  0  0  0  0  0  0  0  0  0
  -14.7920  -18.0480    2.2700   C 0  0  0  0  0  0  0  0  0  0  0  0
  -16.6960  -18.2500    3.2230   N 0  0  0  0  0  0  0  0  0  0  0  0
  -15.8280  -17.3650    2.7590   N 0  0  0  0  0  0  0  0  0  0  0  0
  -15.0610  -19.3360    2.4830   N 0  0  0  0  0  0  0  0  0  0  0  0
  -16.2210  -19.4170    3.0520   N 0  0  0  0  0  0  0  0  0  0  0  0
   -9.7280  -10.2540    1.3280   O 0  0  0  0  0  0  0  0  0  0  0  0
  -13.7490  -14.4460   -1.1760   O 0  0  0  0  0  0  0  0  0  0  0  0
  1 10  1  0  0  0  0
 10 23  1  0  0  0  0
 23 15  1  0  0  0  0
  7 15  2  0  0  0  0
  7  6  1  0  0  0  0
 15 16  1  0  0  0  0
  6 12  2  0  0  0  0
 16 13  1  0  0  0  0
 16  9  2  0  0  0  0
  4 13  2  0  0  0  0
  4  3  1  0  0  0  0
 13  8  1  0  0  0  0
 12  9  1  0  0  0  0
 12 11  1  0  0  0  0
  3  5  2  0  0  0  0
 22 11  2  0  0  0  0
  8 14  2  0  0  0  0
 11  2  1  0  0  0  0
  5 14  1  0  0  0  0
 14 17  1  0  0  0  0
 17 20  1  0  0  0  0
 17 19  2  0  0  0  0
 20 21  2  0  0  0  0
 19 18  1  0  0  0  0
 21 18  1  0  0  0  0
A    1
CAA
A    2
CAB
A    3
CAD
A    4
CAE
A    5
CAF
A    6
CAG
A    7
CAH
A    8
CAI
A    9
CAJ
A   10
CAK
A   11
CAQ
A   12
CAR
A   13
CAS
A   14
CAT
A   15
CAU
A   16
CAV
A   17
CAW
A   18
NAL
A   19
NAM
A   20
NAN
A   21
NAO
A   22
OAC
A   23
OAP
M  END
>  <InstanceId>
5MPN_YE5_A_1201

>  <ChemCompId>
YE5

>  <PdbId>
5MPN

>  <ChainId>
A

>  <ResidueNumber>
1201

>  <InsertionCode>


>  <Model>
1

>  <AltIds>


>  <MissingHeavyAtoms>
0

>  <ObservedFormula>
C17 N4 O2

>  <Name>
1-[4-ethoxy-3-[3-(2~{H}-1,2,3,4-tetrazol-5-yl)phenyl]phenyl]ethanone

>  <SystematicName>
1-[4-ethoxy-3-[3-(2~{H}-1,2,3,4-tetrazol-5-yl)phenyl]phenyl]ethanone

>  <Synonyms>


>  <Type>
NON-POLYMER

>  <Formula>
C17 H16 N4 O2

>  <MolecularWeight>
308.335

>  <ModifiedDate>
2018-01-12

>  <Parent>


>  <OneLetterCode>


>  <SubcomponentList>


>  <AmbiguousFlag>
N

>  <InChI>
InChI=1S/C17H16N4O2/c1-3-23-16-8-7-12(11(2)22)10-15(16)13-5-4-6-14(9-13)17-18-20-21-19-17/h4-10H,3H2,1-2H3,(H,18,19,20,21)

>  <InChIKey>
XRDCFDYQIVETFM-UHFFFAOYSA-N

>  <SMILES>
CCOc1ccc(cc1c2cccc(c2)c3n[nH]nn3)C(=O)C

$$$$
