5U11_7PS_A_301


 22 23  0  0  0  0  0  0  0  0999 V2000
    9.6229    0.4242   24.7498 C   0  0  0  0  0  0  0  0  0  0  0  0
    9.9935    0.1513   26.0495 C   0  0  0  0  0  0  0  0  0  0  0  0
   10.4109    1.2198   23.9530 C   0  0  0  0  0  0  0  0  0  0  0  0
   11.8392    1.3963   25.7626 C   0  0  0  0  0  0  0  0  0  0  0  0
    8.1628   -0.8720   25.7451 C   0  0  0  0  0  0  0  0  0  0  0  0
   11.1193    0.6279   26.5959 N   0  0  0  0  0  0  0  0  0  0  0  0
    9.0752   -0.6506   26.6665 N   0  0  0  0  0  0  0  0  0  0  0  0
   11.5364    1.7049   24.4863 N   0  0  0  0  0  0  0  0  0  0  0  0
    8.4475   -0.2370   24.5692 N   0  0  0  0  0  0  0  0  0  0  0  0
   13.0103    1.9300   26.2856 N   0  0  0  0  0  0  0  0  0  0  0  0
   10.0927    1.5260   22.6516 O   0  0  0  0  0  0  0  0  0  0  0  0
    9.0924   -0.9866   27.5917 H   0  0  0  0  0  0  0  0  0  0  0  0
   12.1346    2.2787   23.9551 H   0  0  0  0  0  0  0  0  0  0  0  0
   13.5834    2.5022   25.7258 H   0  0  0  0  0  0  0  0  0  0  0  0
   13.2671    1.7360   27.2160 H   0  0  0  0  0  0  0  0  0  0  0  0
    6.7391   -1.8569   25.9799 S   0  0  0  0  0  0  0  0  0  0  0  0
    6.9599   -2.8369   27.4914 C   0  0  0  0  0  0  0  0  0  0  0  0
    5.7353   -3.6596   27.8860 C   0  0  0  0  0  0  0  0  0  0  0  0
    5.5082   -5.9045   28.9654 C   0  0  0  0  0  0  0  0  0  0  0  0
    6.0931   -4.5889   28.8608 N   0  0  0  0  0  0  0  0  0  0  0  0
    4.6002   -3.5291   27.4250 O   0  0  0  0  0  0  0  0  0  0  0  0
    6.7835   -4.3340   29.5148 H   0  0  0  0  0  0  0  0  0  0  0  0
 19 20  1  0  0  0
 20 18  1  0  0  0
 11  3  2  0  0  0
 18 21  2  0  0  0
 18 17  1  0  0  0
 17 16  1  0  0  0
  3  8  1  0  0  0
  3  1  1  0  0  0
  9  1  1  0  0  0
  9  5  2  0  0  0
  8  4  1  0  0  0
  1  2  2  0  0  0
  5 16  1  0  0  0
  5  7  1  0  0  0
  4 10  1  0  0  0
  4  6  2  0  0  0
  2  7  1  0  0  0
  2  6  1  0  0  0
  7 12  1  0  0  0
  8 13  1  0  0  0
 10 14  1  0  0  0
 10 15  1  0  0  0
 20 22  1  0  0  0
M  END
> <minimizedAffinity>
-7.43479

$$$$
5U11_7PS_A_301


 22 23  0  0  0  0  0  0  0  0999 V2000
    9.4944    0.3431   24.7927 C   0  0  0  0  0  0  0  0  0  0  0  0
    9.8638    0.1094   26.1003 C   0  0  0  0  0  0  0  0  0  0  0  0
   10.2638    1.1447   23.9838 C   0  0  0  0  0  0  0  0  0  0  0  0
   11.6734    1.4029   25.7983 C   0  0  0  0  0  0  0  0  0  0  0  0
    8.0667   -0.9747   25.8065 C   0  0  0  0  0  0  0  0  0  0  0  0
   10.9709    0.6314   26.6434 N   0  0  0  0  0  0  0  0  0  0  0  0
    8.9655   -0.7062   26.7287 N   0  0  0  0  0  0  0  0  0  0  0  0
   11.3704    1.6748   24.5136 N   0  0  0  0  0  0  0  0  0  0  0  0
    8.3406   -0.3569   24.6189 N   0  0  0  0  0  0  0  0  0  0  0  0
   12.8242    1.9827   26.3170 N   0  0  0  0  0  0  0  0  0  0  0  0
    9.9457    1.4131   22.6740 O   0  0  0  0  0  0  0  0  0  0  0  0
    8.9863   -1.0216   27.6611 H   0  0  0  0  0  0  0  0  0  0  0  0
   11.9550    2.2548   23.9740 H   0  0  0  0  0  0  0  0  0  0  0  0
   13.3839    2.5597   25.7486 H   0  0  0  0  0  0  0  0  0  0  0  0
   13.0801    1.8167   27.2531 H   0  0  0  0  0  0  0  0  0  0  0  0
    6.6715   -1.9967   26.0535 S   0  0  0  0  0  0  0  0  0  0  0  0
    6.4093   -2.9852   24.5541 C   0  0  0  0  0  0  0  0  0  0  0  0
    5.1725   -2.5861   23.7521 C   0  0  0  0  0  0  0  0  0  0  0  0
    3.7699   -0.5152   23.7650 C   0  0  0  0  0  0  0  0  0  0  0  0
    5.0413   -1.1987   23.7582 N   0  0  0  0  0  0  0  0  0  0  0  0
    4.4038   -3.3603   23.1797 O   0  0  0  0  0  0  0  0  0  0  0  0
    5.8616   -0.6544   23.7578 H   0  0  0  0  0  0  0  0  0  0  0  0
 19 20  1  0  0  0
 20 18  1  0  0  0
 11  3  2  0  0  0
 18 21  2  0  0  0
 18 17  1  0  0  0
 17 16  1  0  0  0
  3  8  1  0  0  0
  3  1  1  0  0  0
  9  1  1  0  0  0
  9  5  2  0  0  0
  8  4  1  0  0  0
  1  2  2  0  0  0
  5 16  1  0  0  0
  5  7  1  0  0  0
  4 10  1  0  0  0
  4  6  2  0  0  0
  2  7  1  0  0  0
  2  6  1  0  0  0
  7 12  1  0  0  0
  8 13  1  0  0  0
 10 14  1  0  0  0
 10 15  1  0  0  0
 20 22  1  0  0  0
M  END
> <minimizedAffinity>
-7.25010

$$$$
5U11_7PS_A_301


 22 23  0  0  0  0  0  0  0  0999 V2000
    9.5556    0.4044   24.6927 C   0  0  0  0  0  0  0  0  0  0  0  0
    9.8610    0.1522   26.0133 C   0  0  0  0  0  0  0  0  0  0  0  0
   10.3703    1.2064   23.9299 C   0  0  0  0  0  0  0  0  0  0  0  0
   11.6962    1.4290   25.8109 C   0  0  0  0  0  0  0  0  0  0  0  0
    8.0684   -0.9088   25.6235 C   0  0  0  0  0  0  0  0  0  0  0  0
   10.9470    0.6559   26.6134 N   0  0  0  0  0  0  0  0  0  0  0  0
    8.9259   -0.6605   26.5897 N   0  0  0  0  0  0  0  0  0  0  0  0
   11.4565    1.7185   24.5168 N   0  0  0  0  0  0  0  0  0  0  0  0
    8.4039   -0.2809   24.4572 N   0  0  0  0  0  0  0  0  0  0  0  0
   12.8276    1.9903   26.3894 N   0  0  0  0  0  0  0  0  0  0  0  0
   10.1166    1.4928   22.6099 O   0  0  0  0  0  0  0  0  0  0  0  0
    8.8998   -0.9864   27.5183 H   0  0  0  0  0  0  0  0  0  0  0  0
   12.0716    2.2979   24.0117 H   0  0  0  0  0  0  0  0  0  0  0  0
   13.4192    2.5674   25.8544 H   0  0  0  0  0  0  0  0  0  0  0  0
   13.0377    1.8110   27.3344 H   0  0  0  0  0  0  0  0  0  0  0  0
    6.6525   -1.9181   25.7933 S   0  0  0  0  0  0  0  0  0  0  0  0
    6.3056   -2.6974   24.1913 C   0  0  0  0  0  0  0  0  0  0  0  0
    6.6502   -4.1840   24.1330 C   0  0  0  0  0  0  0  0  0  0  0  0
    6.5324   -5.9946   25.8546 C   0  0  0  0  0  0  0  0  0  0  0  0
    5.9842   -4.8567   25.1558 N   0  0  0  0  0  0  0  0  0  0  0  0
    7.3963   -4.7193   23.3117 O   0  0  0  0  0  0  0  0  0  0  0  0
    5.0899   -4.5381   25.4163 H   0  0  0  0  0  0  0  0  0  0  0  0
 19 20  1  0  0  0
 20 18  1  0  0  0
 11  3  2  0  0  0
 18 21  2  0  0  0
 18 17  1  0  0  0
 17 16  1  0  0  0
  3  8  1  0  0  0
  3  1  1  0  0  0
  9  1  1  0  0  0
  9  5  2  0  0  0
  8  4  1  0  0  0
  1  2  2  0  0  0
  5 16  1  0  0  0
  5  7  1  0  0  0
  4 10  1  0  0  0
  4  6  2  0  0  0
  2  7  1  0  0  0
  2  6  1  0  0  0
  7 12  1  0  0  0
  8 13  1  0  0  0
 10 14  1  0  0  0
 10 15  1  0  0  0
 20 22  1  0  0  0
M  END
> <minimizedAffinity>
-7.15838

$$$$
5U11_7PS_A_301


 22 23  0  0  0  0  0  0  0  0999 V2000
    6.1594   -3.5253   26.2156 C   0  0  0  0  0  0  0  0  0  0  0  0
    6.6708   -3.2792   27.4721 C   0  0  0  0  0  0  0  0  0  0  0  0
    5.3649   -4.6237   25.9895 C   0  0  0  0  0  0  0  0  0  0  0  0
    5.6422   -5.1251   28.2295 C   0  0  0  0  0  0  0  0  0  0  0  0
    7.3745   -1.7018   26.2441 C   0  0  0  0  0  0  0  0  0  0  0  0
    6.4234   -4.0729   28.5219 N   0  0  0  0  0  0  0  0  0  0  0  0
    7.4337   -2.1456   27.4811 N   0  0  0  0  0  0  0  0  0  0  0  0
    5.1119   -5.4264   27.0279 N   0  0  0  0  0  0  0  0  0  0  0  0
    6.6195   -2.5072   25.4390 N   0  0  0  0  0  0  0  0  0  0  0  0
    5.3676   -5.9902   29.2811 N   0  0  0  0  0  0  0  0  0  0  0  0
    4.8277   -4.9197   24.7596 O   0  0  0  0  0  0  0  0  0  0  0  0
    7.9182   -1.7503   28.2415 H   0  0  0  0  0  0  0  0  0  0  0  0
    4.5472   -6.2251   26.9166 H   0  0  0  0  0  0  0  0  0  0  0  0
    4.8006   -6.7812   29.1326 H   0  0  0  0  0  0  0  0  0  0  0  0
    5.7400   -5.8123   30.1749 H   0  0  0  0  0  0  0  0  0  0  0  0
    8.1687   -0.2539   25.6741 S   0  0  0  0  0  0  0  0  0  0  0  0
    9.7966   -0.1396   26.4682 C   0  0  0  0  0  0  0  0  0  0  0  0
   10.8045    0.7169   25.7047 C   0  0  0  0  0  0  0  0  0  0  0  0
   10.8395    1.5527   23.3476 C   0  0  0  0  0  0  0  0  0  0  0  0
   10.1789    1.3044   24.6068 N   0  0  0  0  0  0  0  0  0  0  0  0
   11.9888    0.8759   26.0047 O   0  0  0  0  0  0  0  0  0  0  0  0
    9.2335    1.5648   24.6949 H   0  0  0  0  0  0  0  0  0  0  0  0
 19 20  1  0  0  0
 20 18  1  0  0  0
 11  3  2  0  0  0
 18 21  2  0  0  0
 18 17  1  0  0  0
 17 16  1  0  0  0
  3  8  1  0  0  0
  3  1  1  0  0  0
  9  1  1  0  0  0
  9  5  2  0  0  0
  8  4  1  0  0  0
  1  2  2  0  0  0
  5 16  1  0  0  0
  5  7  1  0  0  0
  4 10  1  0  0  0
  4  6  2  0  0  0
  2  7  1  0  0  0
  2  6  1  0  0  0
  7 12  1  0  0  0
  8 13  1  0  0  0
 10 14  1  0  0  0
 10 15  1  0  0  0
 20 22  1  0  0  0
M  END
> <minimizedAffinity>
-7.12994

$$$$
5U11_7PS_A_301


 22 23  0  0  0  0  0  0  0  0999 V2000
    5.0828   -4.3489   25.9741 C   0  0  0  0  0  0  0  0  0  0  0  0
    6.0909   -3.4085   25.9679 C   0  0  0  0  0  0  0  0  0  0  0  0
    4.6709   -4.9213   27.1537 C   0  0  0  0  0  0  0  0  0  0  0  0
    6.2566   -3.6019   28.1982 C   0  0  0  0  0  0  0  0  0  0  0  0
    5.4968   -3.6298   23.9458 C   0  0  0  0  0  0  0  0  0  0  0  0
    6.7080   -3.0024   27.0848 N   0  0  0  0  0  0  0  0  0  0  0  0
    6.3494   -2.9703   24.6997 N   0  0  0  0  0  0  0  0  0  0  0  0
    5.2802   -4.5274   28.2763 N   0  0  0  0  0  0  0  0  0  0  0  0
    4.7125   -4.4815   24.6715 N   0  0  0  0  0  0  0  0  0  0  0  0
    6.8750   -3.2279   29.3845 N   0  0  0  0  0  0  0  0  0  0  0  0
    3.6722   -5.8629   27.2212 O   0  0  0  0  0  0  0  0  0  0  0  0
    7.0219   -2.3102   24.4147 H   0  0  0  0  0  0  0  0  0  0  0  0
    5.0197   -4.9073   29.1464 H   0  0  0  0  0  0  0  0  0  0  0  0
    6.5902   -3.6308   30.2364 H   0  0  0  0  0  0  0  0  0  0  0  0
    7.5981   -2.5598   29.3733 H   0  0  0  0  0  0  0  0  0  0  0  0
    5.3700   -3.4561   22.2120 S   0  0  0  0  0  0  0  0  0  0  0  0
    4.1530   -2.1590   21.8509 C   0  0  0  0  0  0  0  0  0  0  0  0
    4.3220   -0.8940   22.6895 C   0  0  0  0  0  0  0  0  0  0  0  0
    2.8288    1.0788   23.0563 C   0  0  0  0  0  0  0  0  0  0  0  0
    3.0708   -0.3406   22.9549 N   0  0  0  0  0  0  0  0  0  0  0  0
    5.3925   -0.4265   23.0813 O   0  0  0  0  0  0  0  0  0  0  0  0
    2.3094   -0.9520   23.0802 H   0  0  0  0  0  0  0  0  0  0  0  0
 19 20  1  0  0  0
 20 18  1  0  0  0
 11  3  2  0  0  0
 18 21  2  0  0  0
 18 17  1  0  0  0
 17 16  1  0  0  0
  3  8  1  0  0  0
  3  1  1  0  0  0
  9  1  1  0  0  0
  9  5  2  0  0  0
  8  4  1  0  0  0
  1  2  2  0  0  0
  5 16  1  0  0  0
  5  7  1  0  0  0
  4 10  1  0  0  0
  4  6  2  0  0  0
  2  7  1  0  0  0
  2  6  1  0  0  0
  7 12  1  0  0  0
  8 13  1  0  0  0
 10 14  1  0  0  0
 10 15  1  0  0  0
 20 22  1  0  0  0
M  END
> <minimizedAffinity>
-6.96634

$$$$
5U11_7PS_A_301


 22 23  0  0  0  0  0  0  0  0999 V2000
    6.4388   -3.5051   26.3076 C   0  0  0  0  0  0  0  0  0  0  0  0
    5.9650   -4.7713   26.0375 C   0  0  0  0  0  0  0  0  0  0  0  0
    6.5867   -3.0786   27.6058 C   0  0  0  0  0  0  0  0  0  0  0  0
    5.8046   -5.1591   28.2427 C   0  0  0  0  0  0  0  0  0  0  0  0
    6.3268   -3.8766   24.1508 C   0  0  0  0  0  0  0  0  0  0  0  0
    5.6359   -5.6412   27.0009 N   0  0  0  0  0  0  0  0  0  0  0  0
    5.8901   -4.9935   24.6914 N   0  0  0  0  0  0  0  0  0  0  0  0
    6.2593   -3.9356   28.5778 N   0  0  0  0  0  0  0  0  0  0  0  0
    6.6653   -2.9430   25.0893 N   0  0  0  0  0  0  0  0  0  0  0  0
    5.4622   -6.0168   29.2804 N   0  0  0  0  0  0  0  0  0  0  0  0
    7.0538   -1.8288   27.9353 O   0  0  0  0  0  0  0  0  0  0  0  0
    5.5795   -5.8060   24.2302 H   0  0  0  0  0  0  0  0  0  0  0  0
    6.3490   -3.6771   29.5235 H   0  0  0  0  0  0  0  0  0  0  0  0
    5.5625   -5.7235   30.2149 H   0  0  0  0  0  0  0  0  0  0  0  0
    5.1192   -6.9179   29.0814 H   0  0  0  0  0  0  0  0  0  0  0  0
    6.4602   -3.5963   22.4315 S   0  0  0  0  0  0  0  0  0  0  0  0
    4.8068   -3.2327   21.7775 C   0  0  0  0  0  0  0  0  0  0  0  0
    4.4153   -1.7586   21.8556 C   0  0  0  0  0  0  0  0  0  0  0  0
    3.6381   -0.3354   23.7598 C   0  0  0  0  0  0  0  0  0  0  0  0
    4.5173   -1.3190   23.1740 N   0  0  0  0  0  0  0  0  0  0  0  0
    4.0659   -1.0544   20.9069 O   0  0  0  0  0  0  0  0  0  0  0  0
    5.2287   -1.7006   23.7375 H   0  0  0  0  0  0  0  0  0  0  0  0
 19 20  1  0  0  0
 20 18  1  0  0  0
 11  3  2  0  0  0
 18 21  2  0  0  0
 18 17  1  0  0  0
 17 16  1  0  0  0
  3  8  1  0  0  0
  3  1  1  0  0  0
  9  1  1  0  0  0
  9  5  2  0  0  0
  8  4  1  0  0  0
  1  2  2  0  0  0
  5 16  1  0  0  0
  5  7  1  0  0  0
  4 10  1  0  0  0
  4  6  2  0  0  0
  2  7  1  0  0  0
  2  6  1  0  0  0
  7 12  1  0  0  0
  8 13  1  0  0  0
 10 14  1  0  0  0
 10 15  1  0  0  0
 20 22  1  0  0  0
M  END
> <minimizedAffinity>
-6.93521

$$$$
5U11_7PS_A_301


 22 23  0  0  0  0  0  0  0  0999 V2000
    5.0374   -4.2120   24.9534 C   0  0  0  0  0  0  0  0  0  0  0  0
    6.1751   -4.9880   24.8872 C   0  0  0  0  0  0  0  0  0  0  0  0
    4.3605   -4.0676   26.1408 C   0  0  0  0  0  0  0  0  0  0  0  0
    5.9685   -5.4407   27.0761 C   0  0  0  0  0  0  0  0  0  0  0  0
    5.8785   -4.2317   22.9299 C   0  0  0  0  0  0  0  0  0  0  0  0
    6.6790   -5.6251   25.9518 N   0  0  0  0  0  0  0  0  0  0  0  0
    6.6897   -5.0024   23.6215 N   0  0  0  0  0  0  0  0  0  0  0  0
    4.8506   -4.7004   27.2112 N   0  0  0  0  0  0  0  0  0  0  0  0
    4.8588   -3.7349   23.6917 N   0  0  0  0  0  0  0  0  0  0  0  0
    6.4397   -6.0938   28.2080 N   0  0  0  0  0  0  0  0  0  0  0  0
    3.2222   -3.3080   26.2668 O   0  0  0  0  0  0  0  0  0  0  0  0
    7.4875   -5.4813   23.2999 H   0  0  0  0  0  0  0  0  0  0  0  0
    4.4020   -4.6269   28.0845 H   0  0  0  0  0  0  0  0  0  0  0  0
    5.9638   -5.9996   29.0646 H   0  0  0  0  0  0  0  0  0  0  0  0
    7.2496   -6.6510   28.1535 H   0  0  0  0  0  0  0  0  0  0  0  0
    6.0624   -3.8767   21.2292 S   0  0  0  0  0  0  0  0  0  0  0  0
    4.7451   -2.7303   20.7347 C   0  0  0  0  0  0  0  0  0  0  0  0
    3.5445   -3.4063   20.0760 C   0  0  0  0  0  0  0  0  0  0  0  0
    2.2951   -2.9065   17.9676 C   0  0  0  0  0  0  0  0  0  0  0  0
    3.5138   -3.0832   18.7208 N   0  0  0  0  0  0  0  0  0  0  0  0
    2.7249   -4.1310   20.6425 O   0  0  0  0  0  0  0  0  0  0  0  0
    4.3713   -2.9690   18.2507 H   0  0  0  0  0  0  0  0  0  0  0  0
 19 20  1  0  0  0
 20 18  1  0  0  0
 11  3  2  0  0  0
 18 21  2  0  0  0
 18 17  1  0  0  0
 17 16  1  0  0  0
  3  8  1  0  0  0
  3  1  1  0  0  0
  9  1  1  0  0  0
  9  5  2  0  0  0
  8  4  1  0  0  0
  1  2  2  0  0  0
  5 16  1  0  0  0
  5  7  1  0  0  0
  4 10  1  0  0  0
  4  6  2  0  0  0
  2  7  1  0  0  0
  2  6  1  0  0  0
  7 12  1  0  0  0
  8 13  1  0  0  0
 10 14  1  0  0  0
 10 15  1  0  0  0
 20 22  1  0  0  0
M  END
> <minimizedAffinity>
-6.86534

$$$$
5U11_7PS_A_301


 22 23  0  0  0  0  0  0  0  0999 V2000
    6.3536   -3.5586   26.3964 C   0  0  0  0  0  0  0  0  0  0  0  0
    5.8638   -4.8204   26.1339 C   0  0  0  0  0  0  0  0  0  0  0  0
    6.5346   -3.1370   27.6919 C   0  0  0  0  0  0  0  0  0  0  0  0
    5.7511   -5.2132   28.3411 C   0  0  0  0  0  0  0  0  0  0  0  0
    6.1892   -3.9232   24.2417 C   0  0  0  0  0  0  0  0  0  0  0  0
    5.5502   -5.6905   27.1022 N   0  0  0  0  0  0  0  0  0  0  0  0
    5.7563   -5.0382   24.7892 N   0  0  0  0  0  0  0  0  0  0  0  0
    6.2229   -3.9942   28.6689 N   0  0  0  0  0  0  0  0  0  0  0  0
    6.5563   -2.9949   25.1747 N   0  0  0  0  0  0  0  0  0  0  0  0
    5.4260   -6.0712   29.3841 N   0  0  0  0  0  0  0  0  0  0  0  0
    7.0188   -1.8918   28.0140 O   0  0  0  0  0  0  0  0  0  0  0  0
    5.4289   -5.8469   24.3332 H   0  0  0  0  0  0  0  0  0  0  0  0
    6.3363   -3.7391   29.6130 H   0  0  0  0  0  0  0  0  0  0  0  0
    5.5500   -5.7814   30.3168 H   0  0  0  0  0  0  0  0  0  0  0  0
    5.0715   -6.9691   29.1907 H   0  0  0  0  0  0  0  0  0  0  0  0
    6.2852   -3.6391   22.5206 S   0  0  0  0  0  0  0  0  0  0  0  0
    4.6757   -3.0267   21.9475 C   0  0  0  0  0  0  0  0  0  0  0  0
    4.2531   -3.5660   20.5826 C   0  0  0  0  0  0  0  0  0  0  0  0
    2.7403   -2.6430   18.8175 C   0  0  0  0  0  0  0  0  0  0  0  0
    3.8032   -2.5149   19.7858 N   0  0  0  0  0  0  0  0  0  0  0  0
    4.3014   -4.7445   20.2267 O   0  0  0  0  0  0  0  0  0  0  0  0
    4.2343   -1.6359   19.8889 H   0  0  0  0  0  0  0  0  0  0  0  0
 19 20  1  0  0  0
 20 18  1  0  0  0
 11  3  2  0  0  0
 18 21  2  0  0  0
 18 17  1  0  0  0
 17 16  1  0  0  0
  3  8  1  0  0  0
  3  1  1  0  0  0
  9  1  1  0  0  0
  9  5  2  0  0  0
  8  4  1  0  0  0
  1  2  2  0  0  0
  5 16  1  0  0  0
  5  7  1  0  0  0
  4 10  1  0  0  0
  4  6  2  0  0  0
  2  7  1  0  0  0
  2  6  1  0  0  0
  7 12  1  0  0  0
  8 13  1  0  0  0
 10 14  1  0  0  0
 10 15  1  0  0  0
 20 22  1  0  0  0
M  END
> <minimizedAffinity>
-6.67331

$$$$
5U11_7PS_A_301


 22 23  0  0  0  0  0  0  0  0999 V2000
    4.0799   -2.3126   22.6355 C   0  0  0  0  0  0  0  0  0  0  0  0
    4.2712   -1.7067   23.8591 C   0  0  0  0  0  0  0  0  0  0  0  0
    3.3809   -1.6705   21.6416 C   0  0  0  0  0  0  0  0  0  0  0  0
    3.1325    0.0839   23.1269 C   0  0  0  0  0  0  0  0  0  0  0  0
    5.2337   -3.5901   23.9918 C   0  0  0  0  0  0  0  0  0  0  0  0
    3.8046   -0.4837   24.1413 N   0  0  0  0  0  0  0  0  0  0  0  0
    4.9842   -2.5115   24.7023 N   0  0  0  0  0  0  0  0  0  0  0  0
    2.9068   -0.4501   21.9104 N   0  0  0  0  0  0  0  0  0  0  0  0
    4.7009   -3.5192   22.7355 N   0  0  0  0  0  0  0  0  0  0  0  0
    2.6128    1.3485   23.3731 N   0  0  0  0  0  0  0  0  0  0  0  0
    3.1589   -2.2245   20.4036 O   0  0  0  0  0  0  0  0  0  0  0  0
    5.2509   -2.3260   25.6317 H   0  0  0  0  0  0  0  0  0  0  0  0
    2.4007    0.0508   21.2305 H   0  0  0  0  0  0  0  0  0  0  0  0
    2.1094    1.8192   22.6701 H   0  0  0  0  0  0  0  0  0  0  0  0
    2.7479    1.7740   24.2505 H   0  0  0  0  0  0  0  0  0  0  0  0
    6.1355   -4.9694   24.5717 S   0  0  0  0  0  0  0  0  0  0  0  0
    5.4483   -5.4742   26.1739 C   0  0  0  0  0  0  0  0  0  0  0  0
    5.5298   -4.3984   27.2546 C   0  0  0  0  0  0  0  0  0  0  0  0
    6.9895   -4.1649   29.2723 C   0  0  0  0  0  0  0  0  0  0  0  0
    6.7768   -4.4544   27.8742 N   0  0  0  0  0  0  0  0  0  0  0  0
    4.6401   -3.5958   27.5414 O   0  0  0  0  0  0  0  0  0  0  0  0
    7.5564   -4.7056   27.3278 H   0  0  0  0  0  0  0  0  0  0  0  0
 19 20  1  0  0  0
 20 18  1  0  0  0
 11  3  2  0  0  0
 18 21  2  0  0  0
 18 17  1  0  0  0
 17 16  1  0  0  0
  3  8  1  0  0  0
  3  1  1  0  0  0
  9  1  1  0  0  0
  9  5  2  0  0  0
  8  4  1  0  0  0
  1  2  2  0  0  0
  5 16  1  0  0  0
  5  7  1  0  0  0
  4 10  1  0  0  0
  4  6  2  0  0  0
  2  7  1  0  0  0
  2  6  1  0  0  0
  7 12  1  0  0  0
  8 13  1  0  0  0
 10 14  1  0  0  0
 10 15  1  0  0  0
 20 22  1  0  0  0
M  END
> <minimizedAffinity>
-6.61682

$$$$
5U11_7PS_A_301


 22 23  0  0  0  0  0  0  0  0999 V2000
    5.6096   -4.1039   27.0142 C   0  0  0  0  0  0  0  0  0  0  0  0
    4.6928   -3.8661   26.0123 C   0  0  0  0  0  0  0  0  0  0  0  0
    5.3771   -5.0789   27.9545 C   0  0  0  0  0  0  0  0  0  0  0  0
    3.3908   -5.4936   26.8460 C   0  0  0  0  0  0  0  0  0  0  0  0
    6.2772   -2.4985   25.6803 C   0  0  0  0  0  0  0  0  0  0  0  0
    3.5530   -4.5592   25.8954 N   0  0  0  0  0  0  0  0  0  0  0  0
    5.1114   -2.8590   25.1892 N   0  0  0  0  0  0  0  0  0  0  0  0
    4.2418   -5.7768   27.8518 N   0  0  0  0  0  0  0  0  0  0  0  0
    6.6190   -3.2195   26.7895 N   0  0  0  0  0  0  0  0  0  0  0  0
    2.2156   -6.2313   26.7802 N   0  0  0  0  0  0  0  0  0  0  0  0
    6.2537   -5.3602   28.9749 O   0  0  0  0  0  0  0  0  0  0  0  0
    4.6456   -2.4871   24.4056 H   0  0  0  0  0  0  0  0  0  0  0  0
    4.0306   -6.4864   28.5007 H   0  0  0  0  0  0  0  0  0  0  0  0
    2.0362   -6.9320   27.4481 H   0  0  0  0  0  0  0  0  0  0  0  0
    1.5621   -6.0534   26.0657 H   0  0  0  0  0  0  0  0  0  0  0  0
    7.2860   -1.2395   25.0097 S   0  0  0  0  0  0  0  0  0  0  0  0
    8.3517   -0.5922   26.3286 C   0  0  0  0  0  0  0  0  0  0  0  0
    9.6749   -0.0124   25.8334 C   0  0  0  0  0  0  0  0  0  0  0  0
   10.4835    0.5857   23.5433 C   0  0  0  0  0  0  0  0  0  0  0  0
    9.4858    0.5805   24.5864 N   0  0  0  0  0  0  0  0  0  0  0  0
   10.7493   -0.0520   26.4350 O   0  0  0  0  0  0  0  0  0  0  0  0
    8.6235    1.0204   24.4070 H   0  0  0  0  0  0  0  0  0  0  0  0
 19 20  1  0  0  0
 20 18  1  0  0  0
 11  3  2  0  0  0
 18 21  2  0  0  0
 18 17  1  0  0  0
 17 16  1  0  0  0
  3  8  1  0  0  0
  3  1  1  0  0  0
  9  1  1  0  0  0
  9  5  2  0  0  0
  8  4  1  0  0  0
  1  2  2  0  0  0
  5 16  1  0  0  0
  5  7  1  0  0  0
  4 10  1  0  0  0
  4  6  2  0  0  0
  2  7  1  0  0  0
  2  6  1  0  0  0
  7 12  1  0  0  0
  8 13  1  0  0  0
 10 14  1  0  0  0
 10 15  1  0  0  0
 20 22  1  0  0  0
M  END
> <minimizedAffinity>
-6.58518

$$$$
