4ACI_CIT_A_1189


 17 16  0  0  0  0  0  0  0  0999 V2000
  -11.5046    9.6451   39.3454 C   0  0  0  0  0  0  0  0  0  0  0  0
  -12.6479    8.8395   39.0156 O   0  0  0  0  0  0  0  0  0  0  0  0
  -12.4489    7.9072   39.1945 H   0  0  0  0  0  0  0  0  0  0  0  0
  -11.9129   11.0888   39.0316 C   0  0  0  0  0  0  0  0  0  0  0  0
  -11.0705   11.9792   38.8159 O   0  0  0  0  0  0  0  0  0  0  0  0
  -13.0963   11.3781   38.9652 O   0  0  0  0  0  0  0  0  0  0  0  0
  -13.7482   10.7240   39.1237 H   0  0  0  0  0  0  0  0  0  0  0  0
  -10.3673    9.2179   38.4356 C   0  0  0  0  0  0  0  0  0  0  0  0
  -10.6491    9.4773   36.9956 C   0  0  0  0  0  0  0  0  0  0  0  0
  -11.5543    8.8382   36.4023 O   0  0  0  0  0  0  0  0  0  0  0  0
   -9.9618   10.3716   36.3809 O   0  0  0  0  0  0  0  0  0  0  0  0
   -9.2898   10.8405   36.8354 H   0  0  0  0  0  0  0  0  0  0  0  0
  -11.1217    9.4299   40.7975 C   0  0  0  0  0  0  0  0  0  0  0  0
  -12.2764    8.9219   41.6665 C   0  0  0  0  0  0  0  0  0  0  0  0
  -13.2376    9.6439   42.1121 O   0  0  0  0  0  0  0  0  0  0  0  0
  -12.2323    7.7059   42.0234 O   0  0  0  0  0  0  0  0  0  0  0  0
  -11.5424    7.1518   41.7151 H   0  0  0  0  0  0  0  0  0  0  0  0
  9 10  2  0  0  0
  9 11  1  0  0  0
  9  8  1  0  0  0
  8  1  1  0  0  0
  1  2  1  0  0  0
  1 13  1  0  0  0
  1  4  1  0  0  0
 13 14  1  0  0  0
 14 15  2  0  0  0
 14 16  1  0  0  0
  4  5  2  0  0  0
  4  6  1  0  0  0
 11 12  1  0  0  0
  2  3  1  0  0  0
 16 17  1  0  0  0
  6  7  1  0  0  0
M  END
> <minimizedAffinity>
-7.34977

$$$$
4ACI_CIT_A_1189


 17 16  0  0  0  0  0  0  0  0999 V2000
  -11.1747    9.5438   39.5408 C   0  0  0  0  0  0  0  0  0  0  0  0
  -10.4338    9.9679   40.6967 O   0  0  0  0  0  0  0  0  0  0  0  0
   -9.8897    9.2327   41.0197 H   0  0  0  0  0  0  0  0  0  0  0  0
  -11.9967   10.7628   39.1076 C   0  0  0  0  0  0  0  0  0  0  0  0
  -11.5905   11.9263   39.2816 O   0  0  0  0  0  0  0  0  0  0  0  0
  -13.0709   10.5976   38.5531 O   0  0  0  0  0  0  0  0  0  0  0  0
  -13.3965    9.7305   38.4115 H   0  0  0  0  0  0  0  0  0  0  0  0
  -12.0998    8.4225   39.9775 C   0  0  0  0  0  0  0  0  0  0  0  0
  -12.3898    8.4472   41.4389 C   0  0  0  0  0  0  0  0  0  0  0  0
  -13.1344    9.3372   41.9219 O   0  0  0  0  0  0  0  0  0  0  0  0
  -11.8779    7.5376   42.1877 O   0  0  0  0  0  0  0  0  0  0  0  0
  -11.3245    6.8801   41.8143 H   0  0  0  0  0  0  0  0  0  0  0  0
  -10.2221    9.0483   38.4691 C   0  0  0  0  0  0  0  0  0  0  0  0
  -10.6439    9.4354   37.0483 C   0  0  0  0  0  0  0  0  0  0  0  0
  -11.6189    8.9133   36.3999 O   0  0  0  0  0  0  0  0  0  0  0  0
   -9.9244   10.2919   36.4508 O   0  0  0  0  0  0  0  0  0  0  0  0
   -9.2042   10.6919   36.8971 H   0  0  0  0  0  0  0  0  0  0  0  0
  9 10  2  0  0  0
  9 11  1  0  0  0
  9  8  1  0  0  0
  8  1  1  0  0  0
  1  2  1  0  0  0
  1 13  1  0  0  0
  1  4  1  0  0  0
 13 14  1  0  0  0
 14 15  2  0  0  0
 14 16  1  0  0  0
  4  5  2  0  0  0
  4  6  1  0  0  0
 11 12  1  0  0  0
  2  3  1  0  0  0
 16 17  1  0  0  0
  6  7  1  0  0  0
M  END
> <minimizedAffinity>
-6.97497

$$$$
4ACI_CIT_A_1189


 17 16  0  0  0  0  0  0  0  0999 V2000
  -11.6673    9.8523   39.6605 C   0  0  0  0  0  0  0  0  0  0  0  0
  -12.7024    8.9171   39.3160 O   0  0  0  0  0  0  0  0  0  0  0  0
  -12.3230    8.0273   39.2427 H   0  0  0  0  0  0  0  0  0  0  0  0
  -12.3586   11.2172   39.7526 C   0  0  0  0  0  0  0  0  0  0  0  0
  -12.1204   12.0148   40.6779 O   0  0  0  0  0  0  0  0  0  0  0  0
  -13.1490   11.5507   38.8851 O   0  0  0  0  0  0  0  0  0  0  0  0
  -13.3436   10.9664   38.1789 H   0  0  0  0  0  0  0  0  0  0  0  0
  -10.6593    9.8564   38.5258 C   0  0  0  0  0  0  0  0  0  0  0  0
  -10.9020    8.7731   37.5319 C   0  0  0  0  0  0  0  0  0  0  0  0
  -11.2031    9.0581   36.3453 O   0  0  0  0  0  0  0  0  0  0  0  0
  -10.7839    7.5502   37.9069 O   0  0  0  0  0  0  0  0  0  0  0  0
  -10.5589    7.3520   38.7946 H   0  0  0  0  0  0  0  0  0  0  0  0
  -10.9970    9.4286   40.9539 C   0  0  0  0  0  0  0  0  0  0  0  0
  -11.9796    8.9312   42.0186 C   0  0  0  0  0  0  0  0  0  0  0  0
  -12.5001    7.7600   42.0527 O   0  0  0  0  0  0  0  0  0  0  0  0
  -12.3528    9.7725   42.8909 O   0  0  0  0  0  0  0  0  0  0  0  0
  -11.9913   10.6370   42.8929 H   0  0  0  0  0  0  0  0  0  0  0  0
  9 10  2  0  0  0
  9 11  1  0  0  0
  9  8  1  0  0  0
  8  1  1  0  0  0
  1  2  1  0  0  0
  1 13  1  0  0  0
  1  4  1  0  0  0
 13 14  1  0  0  0
 14 15  2  0  0  0
 14 16  1  0  0  0
  4  5  2  0  0  0
  4  6  1  0  0  0
 11 12  1  0  0  0
  2  3  1  0  0  0
 16 17  1  0  0  0
  6  7  1  0  0  0
M  END
> <minimizedAffinity>
-6.14520

$$$$
4ACI_CIT_A_1189


 17 16  0  0  0  0  0  0  0  0999 V2000
  -11.3988    9.4335   39.6800 C   0  0  0  0  0  0  0  0  0  0  0  0
  -12.5714   10.0324   39.1044 O   0  0  0  0  0  0  0  0  0  0  0  0
  -12.3966   10.9673   38.9140 H   0  0  0  0  0  0  0  0  0  0  0  0
  -11.7703    7.9699   39.9435 C   0  0  0  0  0  0  0  0  0  0  0  0
  -12.1368    7.5754   41.0656 O   0  0  0  0  0  0  0  0  0  0  0  0
  -11.7319    7.1654   39.0271 O   0  0  0  0  0  0  0  0  0  0  0  0
  -11.4591    7.4399   38.1738 H   0  0  0  0  0  0  0  0  0  0  0  0
  -11.1212   10.1430   40.9928 C   0  0  0  0  0  0  0  0  0  0  0  0
  -12.2683   10.9737   41.4559 C   0  0  0  0  0  0  0  0  0  0  0  0
  -13.2687   10.4309   41.9891 O   0  0  0  0  0  0  0  0  0  0  0  0
  -12.2077   12.2488   41.3125 O   0  0  0  0  0  0  0  0  0  0  0  0
  -11.4559   12.6402   40.9132 H   0  0  0  0  0  0  0  0  0  0  0  0
  -10.2202    9.5953   38.7387 C   0  0  0  0  0  0  0  0  0  0  0  0
  -10.6274    9.7814   37.2738 C   0  0  0  0  0  0  0  0  0  0  0  0
  -11.5002    9.0749   36.6550 O   0  0  0  0  0  0  0  0  0  0  0  0
   -9.9978   10.6610   36.6118 O   0  0  0  0  0  0  0  0  0  0  0  0
   -9.3535   11.1937   37.0350 H   0  0  0  0  0  0  0  0  0  0  0  0
  9 10  2  0  0  0
  9 11  1  0  0  0
  9  8  1  0  0  0
  8  1  1  0  0  0
  1  2  1  0  0  0
  1 13  1  0  0  0
  1  4  1  0  0  0
 13 14  1  0  0  0
 14 15  2  0  0  0
 14 16  1  0  0  0
  4  5  2  0  0  0
  4  6  1  0  0  0
 11 12  1  0  0  0
  2  3  1  0  0  0
 16 17  1  0  0  0
  6  7  1  0  0  0
M  END
> <minimizedAffinity>
-5.83905

$$$$
4ACI_CIT_A_1189


 17 16  0  0  0  0  0  0  0  0999 V2000
  -11.4556    9.6710   39.9423 C   0  0  0  0  0  0  0  0  0  0  0  0
  -12.2431   10.8727   39.9183 O   0  0  0  0  0  0  0  0  0  0  0  0
  -13.1291   10.6856   40.2660 H   0  0  0  0  0  0  0  0  0  0  0  0
  -10.0854   10.0645   39.3791 C   0  0  0  0  0  0  0  0  0  0  0  0
   -9.0404    9.4825   39.7230 O   0  0  0  0  0  0  0  0  0  0  0  0
  -10.0095   10.9570   38.5507 O   0  0  0  0  0  0  0  0  0  0  0  0
  -10.7832   11.4089   38.2767 H   0  0  0  0  0  0  0  0  0  0  0  0
  -12.1261    8.6671   39.0223 C   0  0  0  0  0  0  0  0  0  0  0  0
  -12.6131    9.2792   37.7541 C   0  0  0  0  0  0  0  0  0  0  0  0
  -11.9018    9.2413   36.7185 O   0  0  0  0  0  0  0  0  0  0  0  0
  -13.7733    9.8304   37.7376 O   0  0  0  0  0  0  0  0  0  0  0  0
  -14.2931    9.8516   38.5170 H   0  0  0  0  0  0  0  0  0  0  0  0
  -11.3907    9.1232   41.3556 C   0  0  0  0  0  0  0  0  0  0  0  0
  -12.3759    9.7936   42.3181 C   0  0  0  0  0  0  0  0  0  0  0  0
  -12.0682   10.2987   43.4556 O   0  0  0  0  0  0  0  0  0  0  0  0
  -13.5994    9.7826   41.9846 O   0  0  0  0  0  0  0  0  0  0  0  0
  -13.8569    9.4205   41.1597 H   0  0  0  0  0  0  0  0  0  0  0  0
  9 10  2  0  0  0
  9 11  1  0  0  0
  9  8  1  0  0  0
  8  1  1  0  0  0
  1  2  1  0  0  0
  1 13  1  0  0  0
  1  4  1  0  0  0
 13 14  1  0  0  0
 14 15  2  0  0  0
 14 16  1  0  0  0
  4  5  2  0  0  0
  4  6  1  0  0  0
 11 12  1  0  0  0
  2  3  1  0  0  0
 16 17  1  0  0  0
  6  7  1  0  0  0
M  END
> <minimizedAffinity>
-5.75624

$$$$
4ACI_CIT_A_1189


 17 16  0  0  0  0  0  0  0  0999 V2000
  -11.2431    9.7981   39.8235 C   0  0  0  0  0  0  0  0  0  0  0  0
   -9.9602    9.9936   39.2065 O   0  0  0  0  0  0  0  0  0  0  0  0
   -9.4772    9.1525   39.1913 H   0  0  0  0  0  0  0  0  0  0  0  0
  -11.9250   11.1707   39.8010 C   0  0  0  0  0  0  0  0  0  0  0  0
  -12.9855   11.3891   40.4147 O   0  0  0  0  0  0  0  0  0  0  0  0
  -11.4081   12.0890   39.1862 O   0  0  0  0  0  0  0  0  0  0  0  0
  -10.6095   11.9477   38.7169 H   0  0  0  0  0  0  0  0  0  0  0  0
  -10.9988    9.3634   41.2571 C   0  0  0  0  0  0  0  0  0  0  0  0
  -12.2592    9.0728   41.9968 C   0  0  0  0  0  0  0  0  0  0  0  0
  -12.7900    7.9360   41.9215 O   0  0  0  0  0  0  0  0  0  0  0  0
  -12.7809    9.9978   42.7195 O   0  0  0  0  0  0  0  0  0  0  0  0
  -12.3746   10.8408   42.7665 H   0  0  0  0  0  0  0  0  0  0  0  0
  -12.0183    8.7285   39.0776 C   0  0  0  0  0  0  0  0  0  0  0  0
  -12.4198    9.1409   37.6580 C   0  0  0  0  0  0  0  0  0  0  0  0
  -11.6337    9.1612   36.6453 O   0  0  0  0  0  0  0  0  0  0  0  0
  -13.6067    9.5573   37.4968 O   0  0  0  0  0  0  0  0  0  0  0  0
  -14.2057    9.5554   38.2173 H   0  0  0  0  0  0  0  0  0  0  0  0
  9 10  2  0  0  0
  9 11  1  0  0  0
  9  8  1  0  0  0
  8  1  1  0  0  0
  1  2  1  0  0  0
  1 13  1  0  0  0
  1  4  1  0  0  0
 13 14  1  0  0  0
 14 15  2  0  0  0
 14 16  1  0  0  0
  4  5  2  0  0  0
  4  6  1  0  0  0
 11 12  1  0  0  0
  2  3  1  0  0  0
 16 17  1  0  0  0
  6  7  1  0  0  0
M  END
> <minimizedAffinity>
-5.60992

$$$$
4ACI_CIT_A_1189


 17 16  0  0  0  0  0  0  0  0999 V2000
  -11.1804    9.7081   39.5894 C   0  0  0  0  0  0  0  0  0  0  0  0
  -10.0083    9.6254   40.4165 O   0  0  0  0  0  0  0  0  0  0  0  0
   -9.5927   10.4998   40.4768 H   0  0  0  0  0  0  0  0  0  0  0  0
  -11.7620    8.2903   39.5552 C   0  0  0  0  0  0  0  0  0  0  0  0
  -11.0462    7.2894   39.3687 O   0  0  0  0  0  0  0  0  0  0  0  0
  -12.9568    8.1258   39.7393 O   0  0  0  0  0  0  0  0  0  0  0  0
  -13.5150    8.8649   39.8818 H   0  0  0  0  0  0  0  0  0  0  0  0
  -10.7302   10.1181   38.1991 C   0  0  0  0  0  0  0  0  0  0  0  0
  -11.5484    9.4980   37.1192 C   0  0  0  0  0  0  0  0  0  0  0  0
  -11.0032    8.7754   36.2471 O   0  0  0  0  0  0  0  0  0  0  0  0
  -12.8163    9.7043   37.1062 O   0  0  0  0  0  0  0  0  0  0  0  0
  -13.2096   10.2452   37.7625 H   0  0  0  0  0  0  0  0  0  0  0  0
  -12.1399   10.7388   40.1536 C   0  0  0  0  0  0  0  0  0  0  0  0
  -12.2757   10.6794   41.6782 C   0  0  0  0  0  0  0  0  0  0  0  0
  -11.5282   11.3058   42.5106 O   0  0  0  0  0  0  0  0  0  0  0  0
  -13.1553    9.8940   42.1445 O   0  0  0  0  0  0  0  0  0  0  0  0
  -13.7174    9.4215   41.5625 H   0  0  0  0  0  0  0  0  0  0  0  0
  9 10  2  0  0  0
  9 11  1  0  0  0
  9  8  1  0  0  0
  8  1  1  0  0  0
  1  2  1  0  0  0
  1 13  1  0  0  0
  1  4  1  0  0  0
 13 14  1  0  0  0
 14 15  2  0  0  0
 14 16  1  0  0  0
  4  5  2  0  0  0
  4  6  1  0  0  0
 11 12  1  0  0  0
  2  3  1  0  0  0
 16 17  1  0  0  0
  6  7  1  0  0  0
M  END
> <minimizedAffinity>
-5.28489

$$$$
4ACI_CIT_A_1189


 17 16  0  0  0  0  0  0  0  0999 V2000
  -13.6004   12.2239   43.2152 C   0  0  0  0  0  0  0  0  0  0  0  0
  -12.4602   13.0758   43.0181 O   0  0  0  0  0  0  0  0  0  0  0  0
  -12.5751   13.5860   42.2012 H   0  0  0  0  0  0  0  0  0  0  0  0
  -13.3279   11.4651   44.5189 C   0  0  0  0  0  0  0  0  0  0  0  0
  -14.2000   11.3297   45.3965 O   0  0  0  0  0  0  0  0  0  0  0  0
  -12.2347   10.9546   44.7004 O   0  0  0  0  0  0  0  0  0  0  0  0
  -11.5629   11.0435   44.0533 H   0  0  0  0  0  0  0  0  0  0  0  0
  -13.6514   11.2523   42.0502 C   0  0  0  0  0  0  0  0  0  0  0  0
  -12.3622   11.1707   41.3075 C   0  0  0  0  0  0  0  0  0  0  0  0
  -12.2234   11.7708   40.2118 O   0  0  0  0  0  0  0  0  0  0  0  0
  -11.3973   10.4905   41.8138 O   0  0  0  0  0  0  0  0  0  0  0  0
  -11.5145   10.0481   42.6314 H   0  0  0  0  0  0  0  0  0  0  0  0
  -14.8675   13.0570   43.2572 C   0  0  0  0  0  0  0  0  0  0  0  0
  -14.6173   14.5375   43.5605 C   0  0  0  0  0  0  0  0  0  0  0  0
  -14.5166   15.4643   42.6804 O   0  0  0  0  0  0  0  0  0  0  0  0
  -14.4292   14.8492   44.7753 O   0  0  0  0  0  0  0  0  0  0  0  0
  -14.4956   14.1948   45.4426 H   0  0  0  0  0  0  0  0  0  0  0  0
  9 10  2  0  0  0
  9 11  1  0  0  0
  9  8  1  0  0  0
  8  1  1  0  0  0
  1  2  1  0  0  0
  1 13  1  0  0  0
  1  4  1  0  0  0
 13 14  1  0  0  0
 14 15  2  0  0  0
 14 16  1  0  0  0
  4  5  2  0  0  0
  4  6  1  0  0  0
 11 12  1  0  0  0
  2  3  1  0  0  0
 16 17  1  0  0  0
  6  7  1  0  0  0
M  END
> <minimizedAffinity>
-5.24407

$$$$
4ACI_CIT_A_1189


 17 16  0  0  0  0  0  0  0  0999 V2000
  -11.2085    9.7655   37.6737 C   0  0  0  0  0  0  0  0  0  0  0  0
  -11.5724    9.1705   36.4174 O   0  0  0  0  0  0  0  0  0  0  0  0
  -10.7960    8.7399   36.0266 H   0  0  0  0  0  0  0  0  0  0  0  0
  -12.4896   10.4151   38.2088 C   0  0  0  0  0  0  0  0  0  0  0  0
  -12.4662   11.4665   38.8744 O   0  0  0  0  0  0  0  0  0  0  0  0
  -13.5707    9.9073   37.9597 O   0  0  0  0  0  0  0  0  0  0  0  0
  -13.6125    9.1157   37.4602 H   0  0  0  0  0  0  0  0  0  0  0  0
  -10.1659   10.8312   37.3893 C   0  0  0  0  0  0  0  0  0  0  0  0
   -9.5949   10.7309   36.0166 C   0  0  0  0  0  0  0  0  0  0  0  0
   -9.2528    9.6137   35.5530 O   0  0  0  0  0  0  0  0  0  0  0  0
   -9.4736   11.8008   35.3162 O   0  0  0  0  0  0  0  0  0  0  0  0
   -9.7326   12.6271   35.6742 H   0  0  0  0  0  0  0  0  0  0  0  0
  -10.6371    8.7089   38.6002 C   0  0  0  0  0  0  0  0  0  0  0  0
  -10.0928    9.2766   39.9148 C   0  0  0  0  0  0  0  0  0  0  0  0
   -8.8649    9.5686   40.1401 O   0  0  0  0  0  0  0  0  0  0  0  0
  -10.9176    9.3998   40.8702 O   0  0  0  0  0  0  0  0  0  0  0  0
  -11.8221    9.1944   40.7377 H   0  0  0  0  0  0  0  0  0  0  0  0
  9 10  2  0  0  0
  9 11  1  0  0  0
  9  8  1  0  0  0
  8  1  1  0  0  0
  1  2  1  0  0  0
  1 13  1  0  0  0
  1  4  1  0  0  0
 13 14  1  0  0  0
 14 15  2  0  0  0
 14 16  1  0  0  0
  4  5  2  0  0  0
  4  6  1  0  0  0
 11 12  1  0  0  0
  2  3  1  0  0  0
 16 17  1  0  0  0
  6  7  1  0  0  0
M  END
> <minimizedAffinity>
-5.23624

$$$$
4ACI_CIT_A_1189


 17 16  0  0  0  0  0  0  0  0999 V2000
  -11.9085   10.0736   41.1055 C   0  0  0  0  0  0  0  0  0  0  0  0
  -10.5889   10.2912   41.6310 O   0  0  0  0  0  0  0  0  0  0  0  0
  -10.4898    9.8080   42.4662 H   0  0  0  0  0  0  0  0  0  0  0  0
  -11.9680   10.8702   39.7972 C   0  0  0  0  0  0  0  0  0  0  0  0
  -12.9781   11.5173   39.4658 O   0  0  0  0  0  0  0  0  0  0  0  0
  -10.9929   10.8965   39.0643 O   0  0  0  0  0  0  0  0  0  0  0  0
  -10.2213   10.4169   39.2937 H   0  0  0  0  0  0  0  0  0  0  0  0
  -12.8979   10.6434   42.1055 C   0  0  0  0  0  0  0  0  0  0  0  0
  -12.2370   11.2153   43.3123 C   0  0  0  0  0  0  0  0  0  0  0  0
  -12.1861   10.5538   44.3799 O   0  0  0  0  0  0  0  0  0  0  0  0
  -11.7114   12.3849   43.2354 O   0  0  0  0  0  0  0  0  0  0  0  0
  -11.7567   12.8670   42.4333 H   0  0  0  0  0  0  0  0  0  0  0  0
  -12.1519    8.5881   40.9173 C   0  0  0  0  0  0  0  0  0  0  0  0
  -12.1548    8.1490   39.4498 C   0  0  0  0  0  0  0  0  0  0  0  0
  -11.1833    7.5624   38.8532 O   0  0  0  0  0  0  0  0  0  0  0  0
  -13.1759    8.4546   38.7628 O   0  0  0  0  0  0  0  0  0  0  0  0
  -13.9028    8.8840   39.1693 H   0  0  0  0  0  0  0  0  0  0  0  0
  9 10  2  0  0  0
  9 11  1  0  0  0
  9  8  1  0  0  0
  8  1  1  0  0  0
  1  2  1  0  0  0
  1 13  1  0  0  0
  1  4  1  0  0  0
 13 14  1  0  0  0
 14 15  2  0  0  0
 14 16  1  0  0  0
  4  5  2  0  0  0
  4  6  1  0  0  0
 11 12  1  0  0  0
  2  3  1  0  0  0
 16 17  1  0  0  0
  6  7  1  0  0  0
M  END
> <minimizedAffinity>
-5.06635

$$$$
