4ACI_CIT_A_1189
  RCSB PDB12061711393D
Coordinates from PDB:4ACI:A:1189 Model:1 without hydrogens
 13 12  0  0  0  0            999 V2000
  -11.1130    9.4630   37.0710   C 0  0  0  0  0  0  0  0  0  0  0  0
  -12.2910    9.1490   36.7650   O 0  0  0  0  0  0  0  0  0  0  0  0
  -10.2990    9.9130   36.1850   O 0  0  0  0  0  0  0  0  0  0  0  0
  -10.6430    9.3330   38.4790   C 0  0  0  0  0  0  0  0  0  0  0  0
  -11.7320    9.6290   39.4940   C 0  0  0  0  0  0  0  0  0  0  0  0
  -12.8620    8.8030   39.1690   O 0  0  0  0  0  0  0  0  0  0  0  0
  -11.2430    9.3090   40.8940   C 0  0  0  0  0  0  0  0  0  0  0  0
  -12.3000    9.5370   41.9790   C 0  0  0  0  0  0  0  0  0  0  0  0
  -13.5550    9.6900   41.7660   O 0  0  0  0  0  0  0  0  0  0  0  0
  -11.8820    9.6490   43.1710   O 0  0  0  0  0  0  0  0  0  0  0  0
  -12.2180   11.0740   39.3350   C 0  0  0  0  0  0  0  0  0  0  0  0
  -13.4170   11.3830   39.4610   O 0  0  0  0  0  0  0  0  0  0  0  0
  -11.4100   11.9580   39.1020   O 0  0  0  0  0  0  0  0  0  0  0  0
  1  2  2  0  0  0  0
  1  3  1  0  0  0  0
  1  4  1  0  0  0  0
  4  5  1  0  0  0  0
  5  6  1  0  0  0  0
  5  7  1  0  0  0  0
  5 11  1  0  0  0  0
  7  8  1  0  0  0  0
  8  9  2  0  0  0  0
  8 10  1  0  0  0  0
 11 12  2  0  0  0  0
 11 13  1  0  0  0  0
A    1
C1
A    2
O1
A    3
O2
A    4
C2
A    5
C3
A    6
O7
A    7
C4
A    8
C5
A    9
O3
A   10
O4
A   11
C6
A   12
O5
A   13
O6
M  END
>  <InstanceId>
4ACI_CIT_A_1189

>  <ChemCompId>
CIT

>  <PdbId>
4ACI

>  <ChainId>
A

>  <ResidueNumber>
1189

>  <InsertionCode>


>  <Model>
1

>  <AltIds>


>  <MissingHeavyAtoms>
0

>  <ObservedFormula>
C6 O7

>  <Name>
CITRIC ACID

>  <SystematicName>
2-hydroxypropane-1,2,3-tricarboxylic acid

>  <Synonyms>


>  <Type>
NON-POLYMER

>  <Formula>
C6 H8 O7

>  <MolecularWeight>
192.124

>  <ModifiedDate>
2011-06-04

>  <Parent>


>  <OneLetterCode>


>  <SubcomponentList>


>  <AmbiguousFlag>
N

>  <InChI>
InChI=1S/C6H8O7/c7-3(8)1-6(13,5(11)12)2-4(9)10/h13H,1-2H2,(H,7,8)(H,9,10)(H,11,12)

>  <InChIKey>
KRKNYBCHXYNGOX-UHFFFAOYSA-N

>  <SMILES>
C(C(=O)O)C(CC(=O)O)(C(=O)O)O

$$$$
