5F62_5W1_A_201
  RCSB PDB12061717353D
Coordinates from PDB:5F62:A:201 Model:1 without hydrogens
 38 41  0  0  0  0            999 V2000
   15.3120   -8.1160   -3.8980   C 0  0  0  0  0  0  0  0  0  0  0  0
   12.7310   -3.3270    1.8740   C 0  0  0  0  0  0  0  0  0  0  0  0
   12.5120   -5.2360    0.1820   C 0  0  0  0  0  0  0  0  0  0  0  0
    9.1720   -6.6770    0.5200   C 0  0  0  0  0  0  0  0  0  0  0  0
    8.3620   -7.7530   -1.5080   C 0  0  0  0  0  0  0  0  0  0  0  0
    9.4800   -7.2930   -2.2300   C 0  0  0  0  0  0  0  0  0  0  0  0
   11.3810  -13.8810   -7.6920   C 0  0  0  0  0  0  0  0  0  0  0  0
   12.2890  -12.9980   -6.9140   N 0  0  0  0  0  0  0  0  0  0  0  0
   12.3290  -11.6210   -7.4780   C 0  0  0  0  0  0  0  0  0  0  0  0
   13.3970  -10.7730   -6.7490   C 0  0  0  0  0  0  0  0  0  0  0  0
   11.9860  -12.9990   -5.4560   C 0  0  0  0  0  0  0  0  0  0  0  0
   13.0610  -12.1790   -4.7070   C 0  0  0  0  0  0  0  0  0  0  0  0
   13.2690  -10.8770   -5.3130   N 0  0  0  0  0  0  0  0  0  0  0  0
   13.6760   -9.8210   -4.5170   C 0  0  0  0  0  0  0  0  0  0  0  0
   12.8490   -9.3590   -3.4710   C 0  0  0  0  0  0  0  0  0  0  0  0
   11.7120   -9.9500   -3.2510   F 0  0  0  0  0  0  0  0  0  0  0  0
   13.2390   -8.2850   -2.6380   C 0  0  0  0  0  0  0  0  0  0  0  0
   14.9130   -9.1800   -4.7320   C 0  0  0  0  0  0  0  0  0  0  0  0
   14.4770   -7.6490   -2.8480   C 0  0  0  0  0  0  0  0  0  0  0  0
   14.9600   -6.6140   -2.1010   N 0  0  0  0  0  0  0  0  0  0  0  0
   14.3900   -5.8410   -1.1350   C 0  0  0  0  0  0  0  0  0  0  0  0
   15.1410   -4.8820   -0.5430   N 0  0  0  0  0  0  0  0  0  0  0  0
   14.6210   -4.0850    0.4120   C 0  0  0  0  0  0  0  0  0  0  0  0
   13.2860   -4.2290    0.8230   C 0  0  0  0  0  0  0  0  0  0  0  0
   11.2040   -5.4500    0.4980   N 0  0  0  0  0  0  0  0  0  0  0  0
   10.2880   -6.2070   -0.1740   C 0  0  0  0  0  0  0  0  0  0  0  0
    8.2100   -7.4630   -0.1470   C 0  0  0  0  0  0  0  0  0  0  0  0
    7.1760   -8.6910   -2.2730  Cl 0  0  0  0  0  0  0  0  0  0  0  0
    9.6330   -7.6320   -3.5580   N 0  0  0  0  0  0  0  0  0  0  0  0
   10.2350   -6.6380   -4.8030   S 0  0  0  0  0  0  0  0  0  0  0  0
    8.9070   -5.4780   -5.2660   C 0  0  0  0  0  0  0  0  0  0  0  0
    8.5190   -4.6030   -4.0440   C 0  0  0  0  0  0  0  0  0  0  0  0
    9.4560   -4.6180   -6.4310   C 0  0  0  0  0  0  0  0  0  0  0  0
    7.6640   -6.3020   -5.7080   C 0  0  0  0  0  0  0  0  0  0  0  0
   10.5670   -7.5450   -6.0240   O 0  0  0  0  0  0  0  0  0  0  0  0
   11.4760   -5.8770   -4.2830   O 0  0  0  0  0  0  0  0  0  0  0  0
   10.4160   -6.5270   -1.5390   C 0  0  0  0  0  0  0  0  0  0  0  0
   13.0980   -6.0030   -0.7620   N 0  0  0  0  0  0  0  0  0  0  0  0
  1 18  2  0  0  0  0
  1 19  1  0  0  0  0
  2 24  1  0  0  0  0
  3 24  2  0  0  0  0
  3 25  1  0  0  0  0
  3 38  1  0  0  0  0
  4 26  2  0  0  0  0
  4 27  1  0  0  0  0
  5  6  1  0  0  0  0
  5 27  2  0  0  0  0
  5 28  1  0  0  0  0
  6 29  1  0  0  0  0
  6 37  2  0  0  0  0
  7  8  1  0  0  0  0
  8  9  1  0  0  0  0
  8 11  1  0  0  0  0
  9 10  1  0  0  0  0
 10 13  1  0  0  0  0
 11 12  1  0  0  0  0
 12 13  1  0  0  0  0
 13 14  1  0  0  0  0
 14 15  2  0  0  0  0
 14 18  1  0  0  0  0
 15 16  1  0  0  0  0
 15 17  1  0  0  0  0
 17 19  2  0  0  0  0
 19 20  1  0  0  0  0
 20 21  1  0  0  0  0
 21 22  1  0  0  0  0
 21 38  2  0  0  0  0
 22 23  2  0  0  0  0
 23 24  1  0  0  0  0
 25 26  1  0  0  0  0
 26 37  1  0  0  0  0
 29 30  1  0  0  0  0
 30 31  1  0  0  0  0
 30 35  2  0  0  0  0
 30 36  2  0  0  0  0
 31 32  1  0  0  0  0
 31 33  1  0  0  0  0
 31 34  1  0  0  0  0
A    1
C13
A    2
C20
A    3
C21
A    4
C24
A    5
C26
A    6
C28
A    7
C01
A    8
N02
A    9
C03
A   10
C04
A   11
C05
A   12
C06
A   13
N07
A   14
C08
A   15
C09
A   16
F10
A   17
C11
A   18
C12
A   19
C14
A   20
N15
A   21
C16
A   22
N17
A   23
C18
A   24
C19
A   25
N22
A   26
C23
A   27
C25
A   28
CL1
A   29
N29
A   30
S30
A   31
C31
A   32
C32
A   33
C33
A   34
C34
A   35
O35
A   36
O36
A   37
C37
A   38
N38
M  END
>  <InstanceId>
5F62_5W1_A_201

>  <ChemCompId>
5W1

>  <PdbId>
5F62

>  <ChainId>
A

>  <ResidueNumber>
201

>  <InsertionCode>


>  <Model>
1

>  <AltIds>


>  <MissingHeavyAtoms>
0

>  <ObservedFormula>
C26 N7 O2 S F Cl

>  <Name>
~{N}-[2-chloranyl-5-[[2-[[3-fluoranyl-4-(4-methylpiperazin-1-yl)phenyl]amino]-5-methyl-pyrimidin-4-yl]amino]phenyl]-2-methyl-propane-2-sulfonamide

>  <SystematicName>
~{N}-[2-chloranyl-5-[[2-[[3-fluoranyl-4-(4-methylpiperazin-1-yl)phenyl]amino]-5-methyl-pyrimidin-4-yl]amino]phenyl]-2-methyl-propane-2-sulfonamide

>  <Synonyms>


>  <Type>
NON-POLYMER

>  <Formula>
C26 H33 Cl F N7 O2 S

>  <MolecularWeight>
562.102

>  <ModifiedDate>
2017-02-03

>  <Parent>


>  <OneLetterCode>


>  <SubcomponentList>


>  <AmbiguousFlag>
N

>  <InChI>
InChI=1S/C26H33ClFN7O2S/c1-17-16-29-25(31-18-7-9-23(21(28)14-18)35-12-10-34(5)11-13-35)32-24(17)30-19-6-8-20(27)22(15-19)33-38(36,37)26(2,3)4/h6-9,14-16,33H,10-13H2,1-5H3,(H2,29,30,31,32)

>  <InChIKey>
QHSBHADJYBAJTJ-UHFFFAOYSA-N

>  <SMILES>
Cc1cnc(nc1Nc2ccc(c(c2)NS(=O)(=O)C(C)(C)C)Cl)Nc3ccc(c(c3)F)N4CCN(CC4)C

$$$$
