3SU0_TSV_A_100


 54 59  0  0  0  0  0  0  0  0999 V2000
  -12.6674   -6.4526   17.2167 C   0  0  0  0  0  0  0  0  0  0  0  0
  -12.2552   -6.8172   15.7952 C   0  0  0  0  0  0  0  0  0  0  0  0
  -12.5471   -8.1666   15.3737 N   0  0  0  0  0  0  0  0  0  0  0  0
  -13.5215   -5.9789   16.0428 C   0  0  0  0  0  0  0  0  0  0  0  0
  -15.6868   -8.3627   15.0269 O   0  0  0  0  0  0  0  0  0  0  0  0
  -13.5338   -4.4893   15.7946 C   0  0  0  0  0  0  0  0  0  0  0  0
  -15.0004   -9.6885   13.3723 N   0  0  0  0  0  0  0  0  0  0  0  0
  -13.1551   -7.5355   13.2990 O   0  0  0  0  0  0  0  0  0  0  0  0
  -14.4308   -3.9167   14.9658 C   0  0  0  0  0  0  0  0  0  0  0  0
  -13.0764   -8.3962   14.1703 C   0  0  0  0  0  0  0  0  0  0  0  0
  -15.4914   -4.7022   14.2043 C   0  0  0  0  0  0  0  0  0  0  0  0
  -13.6445   -9.7609   13.9396 C   0  0  0  0  0  0  0  0  0  0  0  0
  -15.2993   -4.5471   12.6914 C   0  0  0  0  0  0  0  0  0  0  0  0
  -16.4326   -5.2119   11.9006 C   0  0  0  0  0  0  0  0  0  0  0  0
  -16.3958   -6.7404   12.0026 C   0  0  0  0  0  0  0  0  0  0  0  0
  -17.4749   -7.2632   12.9600 C   0  0  0  0  0  0  0  0  0  0  0  0
  -12.8744  -10.5170   12.8702 C   0  0  0  0  0  0  0  0  0  0  0  0
  -17.2690   -8.7403   13.2979 C   0  0  0  0  0  0  0  0  0  0  0  0
  -13.9179  -11.3942   12.2346 C   0  0  0  0  0  0  0  0  0  0  0  0
  -15.9249   -8.9185   13.9573 C   0  0  0  0  0  0  0  0  0  0  0  0
  -15.1551  -10.5318   12.1782 C   0  0  0  0  0  0  0  0  0  0  0  0
  -12.3550   -8.9208   15.9767 H   0  0  0  0  0  0  0  0  0  0  0  0
  -18.2923   -9.1912   14.2154 N   0  0  0  0  0  0  0  0  0  0  0  0
  -18.9521  -10.9539   12.9631 O   0  0  0  0  0  0  0  0  0  0  0  0
  -18.9901  -10.2936   13.9978 C   0  0  0  0  0  0  0  0  0  0  0  0
  -18.4748   -8.6621   15.0254 H   0  0  0  0  0  0  0  0  0  0  0  0
  -19.8293  -10.6973   15.0938 O   0  0  0  0  0  0  0  0  0  0  0  0
  -18.0520  -12.2080   15.7350 C   0  0  0  0  0  0  0  0  0  0  0  0
  -19.4465  -10.9871   17.4161 C   0  0  0  0  0  0  0  0  0  0  0  0
  -20.4629  -12.8203   16.0375 C   0  0  0  0  0  0  0  0  0  0  0  0
  -19.4450  -11.6786   16.0588 C   0  0  0  0  0  0  0  0  0  0  0  0
  -10.3204   -6.8024   14.3605 N   0  0  0  0  0  0  0  0  0  0  0  0
  -10.9984   -6.1532   15.3127 C   0  0  0  0  0  0  0  0  0  0  0  0
  -10.6106   -5.0970   15.8039 O   0  0  0  0  0  0  0  0  0  0  0  0
  -10.6336   -7.6677   14.0107 H   0  0  0  0  0  0  0  0  0  0  0  0
   -8.9876   -6.1239   13.8131 S   0  0  0  0  0  0  0  0  0  0  0  0
   -8.1153   -5.6642   14.8919 O   0  0  0  0  0  0  0  0  0  0  0  0
   -9.3271   -5.0564   12.8613 O   0  0  0  0  0  0  0  0  0  0  0  0
   -8.2045   -7.3318   12.9343 C   0  0  0  0  0  0  0  0  0  0  0  0
   -6.7660   -7.0590   12.5029 C   0  0  0  0  0  0  0  0  0  0  0  0
   -7.0441   -8.0590   13.6208 C   0  0  0  0  0  0  0  0  0  0  0  0
  -14.2084  -12.4719   13.1136 O   0  0  0  0  0  0  0  0  0  0  0  0
  -15.4350  -14.6365   17.8758 F   0  0  0  0  0  0  0  0  0  0  0  0
  -13.2814  -14.2522   14.2127 N   0  0  0  0  0  0  0  0  0  0  0  0
  -12.4232  -13.6682   12.2618 O   0  0  0  0  0  0  0  0  0  0  0  0
  -12.4995  -15.4818   14.3510 C   0  0  0  0  0  0  0  0  0  0  0  0
  -13.2305  -17.5366   17.4525 C   0  0  0  0  0  0  0  0  0  0  0  0
  -12.6274  -17.2110   16.2414 C   0  0  0  0  0  0  0  0  0  0  0  0
  -14.1855  -16.6844   18.0211 C   0  0  0  0  0  0  0  0  0  0  0  0
  -14.5331  -15.4926   17.3759 C   0  0  0  0  0  0  0  0  0  0  0  0
  -13.0083  -16.0247   15.6368 C   0  0  0  0  0  0  0  0  0  0  0  0
  -13.9219  -15.2014   16.1898 C   0  0  0  0  0  0  0  0  0  0  0  0
  -14.1588  -13.9835   15.3519 C   0  0  0  0  0  0  0  0  0  0  0  0
  -13.2236  -13.5022   13.1619 C   0  0  0  0  0  0  0  0  0  0  0  0
  1  4  1  0  0  0
  1  2  1  0  0  0
 43 50  1  0  0  0
 25 23  1  0  0  0
 23 18  1  0  0  0
 31 27  1  0  0  0
 27 25  1  0  0  0
 37 36  2  0  0  0
 32 36  1  0  0  0
 36 39  1  0  0  0
 36 38  2  0  0  0
  4  2  1  0  0  0
  2  3  1  0  0  0
  2 33  1  0  0  0
  3 10  1  0  0  0
 25 24  2  0  0  0
  4  6  1  0  0  0
 33 32  1  0  0  0
  5 20  2  0  0  0
 34 33  2  0  0  0
 53 44  1  0  0  0
 46 44  1  0  0  0
 44 54  1  0  0  0
  6  9  2  0  0  0
 12  7  1  0  0  0
 20  7  1  0  0  0
  7 21  1  0  0  0
 54 45  2  0  0  0
 28 31  1  0  0  0
 29 31  1  0  0  0
 10  8  2  0  0  0
 31 30  1  0  0  0
 54 42  1  0  0  0
 42 19  1  0  0  0
  9 11  1  0  0  0
 12 10  1  0  0  0
 51 46  2  0  0  0
 11 13  1  0  0  0
 49 47  1  0  0  0
 47 48  2  0  0  0
 12 17  1  0  0  0
 48 51  1  0  0  0
 49 50  2  0  0  0
 13 14  1  0  0  0
 15 14  1  0  0  0
 50 52  1  0  0  0
 16 15  1  0  0  0
 41 39  1  0  0  0
 39 40  1  0  0  0
 52 51  1  0  0  0
 18 16  1  0  0  0
 52 53  2  0  0  0
 17 19  1  0  0  0
 20 18  1  0  0  0
 41 40  1  0  0  0
 19 21  1  0  0  0
 23 26  1  0  0  0
  3 22  1  0  0  0
 32 35  1  0  0  0
M  END
> <minimizedAffinity>
-11.49615

$$$$
3SU0_TSV_A_100


 54 59  0  0  0  0  0  0  0  0999 V2000
  -12.8073   -6.3017   17.0789 C   0  0  0  0  0  0  0  0  0  0  0  0
  -12.4177   -6.8672   15.7180 C   0  0  0  0  0  0  0  0  0  0  0  0
  -12.7773   -8.2437   15.4737 N   0  0  0  0  0  0  0  0  0  0  0  0
  -13.6402   -5.9422   15.8504 C   0  0  0  0  0  0  0  0  0  0  0  0
  -15.9239   -8.3272   15.1437 O   0  0  0  0  0  0  0  0  0  0  0  0
  -13.5793   -4.4985   15.4113 C   0  0  0  0  0  0  0  0  0  0  0  0
  -15.3086   -9.8885   13.6772 N   0  0  0  0  0  0  0  0  0  0  0  0
  -13.3591   -7.8572   13.3325 O   0  0  0  0  0  0  0  0  0  0  0  0
  -14.4491   -3.9943   14.5121 C   0  0  0  0  0  0  0  0  0  0  0  0
  -13.3207   -8.6007   14.3082 C   0  0  0  0  0  0  0  0  0  0  0  0
  -15.5495   -4.8184   13.8549 C   0  0  0  0  0  0  0  0  0  0  0  0
  -13.9565   -9.9539   14.2540 C   0  0  0  0  0  0  0  0  0  0  0  0
  -15.3542   -4.8701   12.3354 C   0  0  0  0  0  0  0  0  0  0  0  0
  -16.5213   -5.5747   11.6332 C   0  0  0  0  0  0  0  0  0  0  0  0
  -16.5600   -7.0771   11.9323 C   0  0  0  0  0  0  0  0  0  0  0  0
  -17.6610   -7.4175   12.9454 C   0  0  0  0  0  0  0  0  0  0  0  0
  -13.2278  -10.8793   13.2943 C   0  0  0  0  0  0  0  0  0  0  0  0
  -17.5276   -8.8467   13.4724 C   0  0  0  0  0  0  0  0  0  0  0  0
  -14.3152  -11.7787   12.7739 C   0  0  0  0  0  0  0  0  0  0  0  0
  -16.1922   -9.0044   14.1542 C   0  0  0  0  0  0  0  0  0  0  0  0
  -15.5083  -10.8706   12.6017 C   0  0  0  0  0  0  0  0  0  0  0  0
  -12.6211   -8.9221   16.1699 H   0  0  0  0  0  0  0  0  0  0  0  0
  -18.5695   -9.1238   14.4368 N   0  0  0  0  0  0  0  0  0  0  0  0
  -19.0290  -11.2025   13.6761 O   0  0  0  0  0  0  0  0  0  0  0  0
  -19.1743  -10.2987   14.4947 C   0  0  0  0  0  0  0  0  0  0  0  0
  -18.8362   -8.4173   15.0685 H   0  0  0  0  0  0  0  0  0  0  0  0
  -20.0468  -10.4681   15.6255 O   0  0  0  0  0  0  0  0  0  0  0  0
  -21.9086   -9.1039   14.9009 C   0  0  0  0  0  0  0  0  0  0  0  0
  -21.8965  -11.5945   14.6594 C   0  0  0  0  0  0  0  0  0  0  0  0
  -22.0645  -10.5561   16.9371 C   0  0  0  0  0  0  0  0  0  0  0  0
  -21.4720  -10.4212   15.5333 C   0  0  0  0  0  0  0  0  0  0  0  0
  -10.5948   -7.0333   14.1522 N   0  0  0  0  0  0  0  0  0  0  0  0
  -11.1308   -6.3343   15.1582 C   0  0  0  0  0  0  0  0  0  0  0  0
  -10.5964   -5.3375   15.6356 O   0  0  0  0  0  0  0  0  0  0  0  0
  -11.0246   -7.8516   13.8133 H   0  0  0  0  0  0  0  0  0  0  0  0
   -9.2354   -6.4929   13.5226 S   0  0  0  0  0  0  0  0  0  0  0  0
   -8.4884   -7.5417   12.8314 O   0  0  0  0  0  0  0  0  0  0  0  0
   -8.4415   -5.8164   14.5584 O   0  0  0  0  0  0  0  0  0  0  0  0
   -9.7004   -5.3108   12.4131 C   0  0  0  0  0  0  0  0  0  0  0  0
   -8.9318   -5.2499   11.0958 C   0  0  0  0  0  0  0  0  0  0  0  0
  -10.3594   -5.7871   11.1148 C   0  0  0  0  0  0  0  0  0  0  0  0
  -14.6564  -12.7177   13.7839 O   0  0  0  0  0  0  0  0  0  0  0  0
  -18.2599  -12.4755   17.7619 F   0  0  0  0  0  0  0  0  0  0  0  0
  -16.5578  -13.9419   14.1348 N   0  0  0  0  0  0  0  0  0  0  0  0
  -15.3261  -14.4122   12.3613 O   0  0  0  0  0  0  0  0  0  0  0  0
  -17.6709  -14.8210   13.7736 C   0  0  0  0  0  0  0  0  0  0  0  0
  -20.6211  -14.7756   16.1547 C   0  0  0  0  0  0  0  0  0  0  0  0
  -19.8833  -15.1394   15.0324 C   0  0  0  0  0  0  0  0  0  0  0  0
  -20.0950  -13.8733   17.0878 C   0  0  0  0  0  0  0  0  0  0  0  0
  -18.8163  -13.3375   16.8997 C   0  0  0  0  0  0  0  0  0  0  0  0
  -18.6257  -14.5781   14.8855 C   0  0  0  0  0  0  0  0  0  0  0  0
  -18.1173  -13.7158   15.7891 C   0  0  0  0  0  0  0  0  0  0  0  0
  -16.7439  -13.2543   15.4124 C   0  0  0  0  0  0  0  0  0  0  0  0
  -15.5299  -13.7669   13.3714 C   0  0  0  0  0  0  0  0  0  0  0  0
  1  4  1  0  0  0
  1  2  1  0  0  0
 43 50  1  0  0  0
 25 23  1  0  0  0
 23 18  1  0  0  0
 31 27  1  0  0  0
 27 25  1  0  0  0
 37 36  2  0  0  0
 32 36  1  0  0  0
 36 39  1  0  0  0
 36 38  2  0  0  0
  4  2  1  0  0  0
  2  3  1  0  0  0
  2 33  1  0  0  0
  3 10  1  0  0  0
 25 24  2  0  0  0
  4  6  1  0  0  0
 33 32  1  0  0  0
  5 20  2  0  0  0
 34 33  2  0  0  0
 53 44  1  0  0  0
 46 44  1  0  0  0
 44 54  1  0  0  0
  6  9  2  0  0  0
 12  7  1  0  0  0
 20  7  1  0  0  0
  7 21  1  0  0  0
 54 45  2  0  0  0
 28 31  1  0  0  0
 29 31  1  0  0  0
 10  8  2  0  0  0
 31 30  1  0  0  0
 54 42  1  0  0  0
 42 19  1  0  0  0
  9 11  1  0  0  0
 12 10  1  0  0  0
 51 46  2  0  0  0
 11 13  1  0  0  0
 49 47  1  0  0  0
 47 48  2  0  0  0
 12 17  1  0  0  0
 48 51  1  0  0  0
 49 50  2  0  0  0
 13 14  1  0  0  0
 15 14  1  0  0  0
 50 52  1  0  0  0
 16 15  1  0  0  0
 41 39  1  0  0  0
 39 40  1  0  0  0
 52 51  1  0  0  0
 18 16  1  0  0  0
 52 53  2  0  0  0
 17 19  1  0  0  0
 20 18  1  0  0  0
 41 40  1  0  0  0
 19 21  1  0  0  0
 23 26  1  0  0  0
  3 22  1  0  0  0
 32 35  1  0  0  0
M  END
> <minimizedAffinity>
-9.79149

$$$$
3SU0_TSV_A_100


 54 59  0  0  0  0  0  0  0  0999 V2000
  -13.0713   -6.0067   16.9343 C   0  0  0  0  0  0  0  0  0  0  0  0
  -12.6210   -6.6948   15.6508 C   0  0  0  0  0  0  0  0  0  0  0  0
  -12.9445   -8.0967   15.5326 N   0  0  0  0  0  0  0  0  0  0  0  0
  -13.8654   -5.7897   15.6481 C   0  0  0  0  0  0  0  0  0  0  0  0
  -16.0746   -8.2850   15.1039 O   0  0  0  0  0  0  0  0  0  0  0  0
  -13.8166   -4.3955   15.0698 C   0  0  0  0  0  0  0  0  0  0  0  0
  -15.3756   -9.9690   13.8224 N   0  0  0  0  0  0  0  0  0  0  0  0
  -13.4548   -7.9373   13.3447 O   0  0  0  0  0  0  0  0  0  0  0  0
  -14.6625   -4.0029   14.0952 C   0  0  0  0  0  0  0  0  0  0  0  0
  -13.4377   -8.5796   14.3903 C   0  0  0  0  0  0  0  0  0  0  0  0
  -15.7217   -4.9130   13.4857 C   0  0  0  0  0  0  0  0  0  0  0  0
  -14.0445   -9.9459   14.4493 C   0  0  0  0  0  0  0  0  0  0  0  0
  -15.4698   -5.1103   11.9866 C   0  0  0  0  0  0  0  0  0  0  0  0
  -16.5963   -5.9075   11.3181 C   0  0  0  0  0  0  0  0  0  0  0  0
  -16.6167   -7.3735   11.7639 C   0  0  0  0  0  0  0  0  0  0  0  0
  -17.7472   -7.6373   12.7672 C   0  0  0  0  0  0  0  0  0  0  0  0
  -13.2631  -10.9445   13.6123 C   0  0  0  0  0  0  0  0  0  0  0  0
  -17.6055   -9.0040   13.4382 C   0  0  0  0  0  0  0  0  0  0  0  0
  -14.3130  -11.9158   13.1467 C   0  0  0  0  0  0  0  0  0  0  0  0
  -16.2932   -9.0627   14.1781 C   0  0  0  0  0  0  0  0  0  0  0  0
  -15.5165  -11.0569   12.8438 C   0  0  0  0  0  0  0  0  0  0  0  0
  -12.8008   -8.6992   16.2979 H   0  0  0  0  0  0  0  0  0  0  0  0
  -18.6764   -9.2083   14.3888 N   0  0  0  0  0  0  0  0  0  0  0  0
  -19.6248  -10.9391   13.2861 O   0  0  0  0  0  0  0  0  0  0  0  0
  -19.5440  -10.1988   14.2625 C   0  0  0  0  0  0  0  0  0  0  0  0
  -18.7621   -8.5923   15.1520 H   0  0  0  0  0  0  0  0  0  0  0  0
  -20.4236  -10.3715   15.3873 O   0  0  0  0  0  0  0  0  0  0  0  0
  -20.4619  -10.7957   17.7686 C   0  0  0  0  0  0  0  0  0  0  0  0
  -21.2731  -12.4694   16.0948 C   0  0  0  0  0  0  0  0  0  0  0  0
  -18.8249  -11.9467   16.2604 C   0  0  0  0  0  0  0  0  0  0  0  0
  -20.2425  -11.3843   16.3790 C   0  0  0  0  0  0  0  0  0  0  0  0
  -10.9095   -6.7764   13.9579 N   0  0  0  0  0  0  0  0  0  0  0  0
  -11.3251   -6.1904   15.0856 C   0  0  0  0  0  0  0  0  0  0  0  0
  -10.6792   -5.3190   15.6605 O   0  0  0  0  0  0  0  0  0  0  0  0
  -11.4279   -7.5002   13.5376 H   0  0  0  0  0  0  0  0  0  0  0  0
   -9.5446   -6.2602   13.3199 S   0  0  0  0  0  0  0  0  0  0  0  0
   -8.4248   -6.3535   14.2543 O   0  0  0  0  0  0  0  0  0  0  0  0
   -9.7275   -4.9038   12.7837 O   0  0  0  0  0  0  0  0  0  0  0  0
   -9.2612   -7.2730   12.0014 C   0  0  0  0  0  0  0  0  0  0  0  0
  -10.4351   -8.1100   11.5001 C   0  0  0  0  0  0  0  0  0  0  0  0
   -9.9522   -6.9168   10.6814 C   0  0  0  0  0  0  0  0  0  0  0  0
  -14.6726  -12.7580   14.2328 O   0  0  0  0  0  0  0  0  0  0  0  0
  -14.4052  -16.7514   10.6481 F   0  0  0  0  0  0  0  0  0  0  0  0
  -13.2628  -14.5574   14.1245 N   0  0  0  0  0  0  0  0  0  0  0  0
  -13.0449  -13.1617   15.8239 O   0  0  0  0  0  0  0  0  0  0  0  0
  -12.0629  -15.3394   14.4263 C   0  0  0  0  0  0  0  0  0  0  0  0
  -11.2781  -18.1281   11.9804 C   0  0  0  0  0  0  0  0  0  0  0  0
  -11.0994  -17.3036   13.0870 C   0  0  0  0  0  0  0  0  0  0  0  0
  -12.3849  -17.9567   11.1394 C   0  0  0  0  0  0  0  0  0  0  0  0
  -13.3246  -16.9571   11.4136 C   0  0  0  0  0  0  0  0  0  0  0  0
  -12.0519  -16.3242   13.3141 C   0  0  0  0  0  0  0  0  0  0  0  0
  -13.1212  -16.1659   12.5081 C   0  0  0  0  0  0  0  0  0  0  0  0
  -14.0067  -15.0483   12.9645 C   0  0  0  0  0  0  0  0  0  0  0  0
  -13.6029  -13.5105   14.8015 C   0  0  0  0  0  0  0  0  0  0  0  0
  1  4  1  0  0  0
  1  2  1  0  0  0
 43 50  1  0  0  0
 25 23  1  0  0  0
 23 18  1  0  0  0
 31 27  1  0  0  0
 27 25  1  0  0  0
 37 36  2  0  0  0
 32 36  1  0  0  0
 36 39  1  0  0  0
 36 38  2  0  0  0
  4  2  1  0  0  0
  2  3  1  0  0  0
  2 33  1  0  0  0
  3 10  1  0  0  0
 25 24  2  0  0  0
  4  6  1  0  0  0
 33 32  1  0  0  0
  5 20  2  0  0  0
 34 33  2  0  0  0
 53 44  1  0  0  0
 46 44  1  0  0  0
 44 54  1  0  0  0
  6  9  2  0  0  0
 12  7  1  0  0  0
 20  7  1  0  0  0
  7 21  1  0  0  0
 54 45  2  0  0  0
 28 31  1  0  0  0
 29 31  1  0  0  0
 10  8  2  0  0  0
 31 30  1  0  0  0
 54 42  1  0  0  0
 42 19  1  0  0  0
  9 11  1  0  0  0
 12 10  1  0  0  0
 51 46  2  0  0  0
 11 13  1  0  0  0
 49 47  1  0  0  0
 47 48  2  0  0  0
 12 17  1  0  0  0
 48 51  1  0  0  0
 49 50  2  0  0  0
 13 14  1  0  0  0
 15 14  1  0  0  0
 50 52  1  0  0  0
 16 15  1  0  0  0
 41 39  1  0  0  0
 39 40  1  0  0  0
 52 51  1  0  0  0
 18 16  1  0  0  0
 52 53  2  0  0  0
 17 19  1  0  0  0
 20 18  1  0  0  0
 41 40  1  0  0  0
 19 21  1  0  0  0
 23 26  1  0  0  0
  3 22  1  0  0  0
 32 35  1  0  0  0
M  END
> <minimizedAffinity>
-9.64732

$$$$
