3PN1_IVH_A_319


 29 31  0  0  0  0  0  0  0  0999 V2000
  111.2704   89.2272   25.6580 N   0  0  0  0  0  0  0  0  0  0  0  0
  111.4427   91.0801   27.0886 N   0  0  0  0  0  0  0  0  0  0  0  0
  112.5308   90.5157   29.2261 N   0  0  0  0  0  0  0  0  0  0  0  0
  112.7961   88.3635   28.7771 N   0  0  0  0  0  0  0  0  0  0  0  0
  111.0687   90.5235   25.9516 C   0  0  0  0  0  0  0  0  0  0  0  0
  111.9550   87.0941   26.1462 N   0  0  0  0  0  0  0  0  0  0  0  0
  111.8246   88.4170   26.5133 C   0  0  0  0  0  0  0  0  0  0  0  0
  112.2221   88.9443   27.7134 C   0  0  0  0  0  0  0  0  0  0  0  0
  112.0226   90.3081   28.0059 C   0  0  0  0  0  0  0  0  0  0  0  0
  112.9905   89.3290   29.6727 C   0  0  0  0  0  0  0  0  0  0  0  0
  111.6424   86.7957   25.2616 H   0  0  0  0  0  0  0  0  0  0  0  0
  112.3606   86.4482   26.7687 H   0  0  0  0  0  0  0  0  0  0  0  0
  111.2937   92.3314   30.0884 O   0  0  0  0  0  0  0  0  0  0  0  0
  113.2267   95.2279   29.4339 O   0  0  0  0  0  0  0  0  0  0  0  0
  114.3629   93.1402   30.5266 O   0  0  0  0  0  0  0  0  0  0  0  0
  112.6025   91.7430   30.0614 C   0  0  0  0  0  0  0  0  0  0  0  0
  113.5001   92.7893   29.4720 C   0  0  0  0  0  0  0  0  0  0  0  0
  112.5923   93.9988   29.1771 C   0  0  0  0  0  0  0  0  0  0  0  0
  111.4470   93.7806   30.0930 C   0  0  0  0  0  0  0  0  0  0  0  0
  113.9698   95.3425   28.8211 H   0  0  0  0  0  0  0  0  0  0  0  0
  114.9456   92.3919   30.7303 H   0  0  0  0  0  0  0  0  0  0  0  0
  110.5460   94.8626   28.2756 O   0  0  0  0  0  0  0  0  0  0  0  0
  110.1453   94.3409   29.5677 C   0  0  0  0  0  0  0  0  0  0  0  0
  109.7777   95.2564   27.8335 H   0  0  0  0  0  0  0  0  0  0  0  0
  110.3500   91.4115   24.7379 S   0  0  0  0  0  0  0  0  0  0  0  0
  110.5476   93.0235   25.4618 C   0  0  0  0  0  0  0  0  0  0  0  0
  109.5466   94.0300   24.9281 C   0  0  0  0  0  0  0  0  0  0  0  0
  108.7701   94.6599   22.6502 C   0  0  0  0  0  0  0  0  0  0  0  0
  108.8184   93.5382   23.6820 C   0  0  0  0  0  0  0  0  0  0  0  0
 25 26  1  0  0  0
 25  5  1  0  0  0
 28 29  1  0  0  0
  1  5  2  0  0  0
  1  7  1  0  0  0
 16 13  1  0  0  0
 19 13  1  0  0  0
 29 27  1  0  0  0
  5  2  1  0  0  0
  2  9  2  0  0  0
 23 22  1  0  0  0
 27 26  1  0  0  0
  9  3  1  0  0  0
  3 10  1  0  0  0
  3 16  1  0  0  0
 18 14  1  0  0  0
  8  4  1  0  0  0
  4 10  2  0  0  0
 17 15  1  0  0  0
  6  7  1  0  0  0
  7  8  2  0  0  0
  8  9  1  0  0  0
 17 16  1  0  0  0
 18 17  1  0  0  0
 18 19  1  0  0  0
 23 19  1  0  0  0
 22 24  1  0  0  0
 14 20  1  0  0  0
 15 21  1  0  0  0
  6 11  1  0  0  0
  6 12  1  0  0  0
M  END
> <minimizedAffinity>
-8.26671

$$$$
3PN1_IVH_A_319


 29 31  0  0  0  0  0  0  0  0999 V2000
  111.5551   92.8789   23.9099 N   0  0  0  0  0  0  0  0  0  0  0  0
  111.7365   93.0553   26.2435 N   0  0  0  0  0  0  0  0  0  0  0  0
  113.0053   95.0506   26.9366 N   0  0  0  0  0  0  0  0  0  0  0  0
  113.4557   95.7496   24.8842 N   0  0  0  0  0  0  0  0  0  0  0  0
  111.3226   92.4316   25.1562 C   0  0  0  0  0  0  0  0  0  0  0  0
  112.4776   94.3217   22.3853 N   0  0  0  0  0  0  0  0  0  0  0  0
  112.2516   93.9580   23.6962 C   0  0  0  0  0  0  0  0  0  0  0  0
  112.7128   94.6370   24.7927 C   0  0  0  0  0  0  0  0  0  0  0  0
  112.4495   94.1705   26.0960 C   0  0  0  0  0  0  0  0  0  0  0  0
  113.6079   95.9937   26.1840 C   0  0  0  0  0  0  0  0  0  0  0  0
  112.1091   93.7768   21.6527 H   0  0  0  0  0  0  0  0  0  0  0  0
  113.0073   95.1262   22.1820 H   0  0  0  0  0  0  0  0  0  0  0  0
  113.5325   93.8041   28.8703 O   0  0  0  0  0  0  0  0  0  0  0  0
  110.8035   94.2414   31.0875 O   0  0  0  0  0  0  0  0  0  0  0  0
  111.8804   96.3319   29.9414 O   0  0  0  0  0  0  0  0  0  0  0  0
  113.0639   95.0843   28.4214 C   0  0  0  0  0  0  0  0  0  0  0  0
  111.7127   95.2584   29.0474 C   0  0  0  0  0  0  0  0  0  0  0  0
  111.4700   93.9823   29.8760 C   0  0  0  0  0  0  0  0  0  0  0  0
  112.8441   93.4783   30.1128 C   0  0  0  0  0  0  0  0  0  0  0  0
  109.9096   94.5688   30.9011 H   0  0  0  0  0  0  0  0  0  0  0  0
  112.0350   97.1483   29.4409 H   0  0  0  0  0  0  0  0  0  0  0  0
  113.6597   91.6036   29.0615 O   0  0  0  0  0  0  0  0  0  0  0  0
  112.9151   91.9748   30.2489 C   0  0  0  0  0  0  0  0  0  0  0  0
  113.7712   90.6403   29.0378 H   0  0  0  0  0  0  0  0  0  0  0  0
  110.4114   91.0385   25.2403 S   0  0  0  0  0  0  0  0  0  0  0  0
  111.5409   90.0631   26.2071 C   0  0  0  0  0  0  0  0  0  0  0  0
  111.4361   88.5803   25.9074 C   0  0  0  0  0  0  0  0  0  0  0  0
  112.4228   88.5130   28.1900 C   0  0  0  0  0  0  0  0  0  0  0  0
  112.1966   87.7179   26.9088 C   0  0  0  0  0  0  0  0  0  0  0  0
 25 26  1  0  0  0
 25  5  1  0  0  0
 28 29  1  0  0  0
  1  5  2  0  0  0
  1  7  1  0  0  0
 16 13  1  0  0  0
 19 13  1  0  0  0
 29 27  1  0  0  0
  5  2  1  0  0  0
  2  9  2  0  0  0
 23 22  1  0  0  0
 27 26  1  0  0  0
  9  3  1  0  0  0
  3 10  1  0  0  0
  3 16  1  0  0  0
 18 14  1  0  0  0
  8  4  1  0  0  0
  4 10  2  0  0  0
 17 15  1  0  0  0
  6  7  1  0  0  0
  7  8  2  0  0  0
  8  9  1  0  0  0
 17 16  1  0  0  0
 18 17  1  0  0  0
 18 19  1  0  0  0
 23 19  1  0  0  0
 22 24  1  0  0  0
 14 20  1  0  0  0
 15 21  1  0  0  0
  6 11  1  0  0  0
  6 12  1  0  0  0
M  END
> <minimizedAffinity>
-7.98925

$$$$
3PN1_IVH_A_319


 29 31  0  0  0  0  0  0  0  0999 V2000
  111.2833   89.8545   25.5138 N   0  0  0  0  0  0  0  0  0  0  0  0
  111.5423   91.5421   27.1245 N   0  0  0  0  0  0  0  0  0  0  0  0
  112.4427   90.6791   29.2495 N   0  0  0  0  0  0  0  0  0  0  0  0
  112.5317   88.5616   28.6077 N   0  0  0  0  0  0  0  0  0  0  0  0
  111.1866   91.1320   25.9212 C   0  0  0  0  0  0  0  0  0  0  0  0
  111.7347   87.6284   25.8266 N   0  0  0  0  0  0  0  0  0  0  0  0
  111.7070   88.9184   26.3134 C   0  0  0  0  0  0  0  0  0  0  0  0
  112.0794   89.2914   27.5777 C   0  0  0  0  0  0  0  0  0  0  0  0
  111.9913   90.6356   27.9908 C   0  0  0  0  0  0  0  0  0  0  0  0
  112.7616   89.4169   29.6016 C   0  0  0  0  0  0  0  0  0  0  0  0
  111.4491   87.4448   24.9025 H   0  0  0  0  0  0  0  0  0  0  0  0
  112.0400   86.8912   26.4032 H   0  0  0  0  0  0  0  0  0  0  0  0
  111.3131   92.4852   30.2659 O   0  0  0  0  0  0  0  0  0  0  0  0
  113.4546   95.2881   29.9317 O   0  0  0  0  0  0  0  0  0  0  0  0
  114.4195   93.0294   30.8321 O   0  0  0  0  0  0  0  0  0  0  0  0
  112.5788   91.8115   30.2027 C   0  0  0  0  0  0  0  0  0  0  0  0
  113.5594   92.8442   29.7340 C   0  0  0  0  0  0  0  0  0  0  0  0
  112.7437   94.1375   29.5447 C   0  0  0  0  0  0  0  0  0  0  0  0
  111.5651   93.9127   30.4156 C   0  0  0  0  0  0  0  0  0  0  0  0
  114.2179   95.4090   29.3454 H   0  0  0  0  0  0  0  0  0  0  0  0
  114.9446   92.2257   30.9707 H   0  0  0  0  0  0  0  0  0  0  0  0
  110.2543   94.1755   28.5453 O   0  0  0  0  0  0  0  0  0  0  0  0
  110.3174   94.6116   29.9267 C   0  0  0  0  0  0  0  0  0  0  0  0
  109.4772   94.5680   28.1176 H   0  0  0  0  0  0  0  0  0  0  0  0
  110.6283   92.1943   24.7646 S   0  0  0  0  0  0  0  0  0  0  0  0
  111.5135   93.6376   25.3077 C   0  0  0  0  0  0  0  0  0  0  0  0
  111.6578   94.6795   24.2153 C   0  0  0  0  0  0  0  0  0  0  0  0
  113.7439   95.9884   23.8643 C   0  0  0  0  0  0  0  0  0  0  0  0
  113.0373   94.6706   23.5659 C   0  0  0  0  0  0  0  0  0  0  0  0
 25 26  1  0  0  0
 25  5  1  0  0  0
 28 29  1  0  0  0
  1  5  2  0  0  0
  1  7  1  0  0  0
 16 13  1  0  0  0
 19 13  1  0  0  0
 29 27  1  0  0  0
  5  2  1  0  0  0
  2  9  2  0  0  0
 23 22  1  0  0  0
 27 26  1  0  0  0
  9  3  1  0  0  0
  3 10  1  0  0  0
  3 16  1  0  0  0
 18 14  1  0  0  0
  8  4  1  0  0  0
  4 10  2  0  0  0
 17 15  1  0  0  0
  6  7  1  0  0  0
  7  8  2  0  0  0
  8  9  1  0  0  0
 17 16  1  0  0  0
 18 17  1  0  0  0
 18 19  1  0  0  0
 23 19  1  0  0  0
 22 24  1  0  0  0
 14 20  1  0  0  0
 15 21  1  0  0  0
  6 11  1  0  0  0
  6 12  1  0  0  0
M  END
> <minimizedAffinity>
-7.96544

$$$$
3PN1_IVH_A_319


 29 31  0  0  0  0  0  0  0  0999 V2000
  112.1775   94.3026   23.6346 N   0  0  0  0  0  0  0  0  0  0  0  0
  111.4172   92.7412   25.2136 N   0  0  0  0  0  0  0  0  0  0  0  0
  112.2559   93.2171   27.4811 N   0  0  0  0  0  0  0  0  0  0  0  0
  113.4622   94.9823   26.9042 N   0  0  0  0  0  0  0  0  0  0  0  0
  111.4833   93.2042   23.9792 C   0  0  0  0  0  0  0  0  0  0  0  0
  113.5892   96.0576   24.0637 N   0  0  0  0  0  0  0  0  0  0  0  0
  112.8732   94.9675   24.5116 C   0  0  0  0  0  0  0  0  0  0  0  0
  112.8455   94.5212   25.8063 C   0  0  0  0  0  0  0  0  0  0  0  0
  112.1009   93.3790   26.1620 C   0  0  0  0  0  0  0  0  0  0  0  0
  113.0819   94.1943   27.9075 C   0  0  0  0  0  0  0  0  0  0  0  0
  113.5547   96.3125   23.1134 H   0  0  0  0  0  0  0  0  0  0  0  0
  114.1349   96.5810   24.6943 H   0  0  0  0  0  0  0  0  0  0  0  0
  111.9998   92.6217   29.7506 O   0  0  0  0  0  0  0  0  0  0  0  0
  113.0455   89.2453   29.9977 O   0  0  0  0  0  0  0  0  0  0  0  0
  111.3662   89.9397   28.1159 O   0  0  0  0  0  0  0  0  0  0  0  0
  111.7220   92.1878   28.4110 C   0  0  0  0  0  0  0  0  0  0  0  0
  112.4147   90.8660   28.2662 C   0  0  0  0  0  0  0  0  0  0  0  0
  113.0935   90.6006   29.6236 C   0  0  0  0  0  0  0  0  0  0  0  0
  112.3077   91.4457   30.5544 C   0  0  0  0  0  0  0  0  0  0  0  0
  113.5671   88.7185   29.3721 H   0  0  0  0  0  0  0  0  0  0  0  0
  110.9230   90.0881   27.2659 H   0  0  0  0  0  0  0  0  0  0  0  0
  113.3340   90.7203   32.4795 O   0  0  0  0  0  0  0  0  0  0  0  0
  113.1110   91.9436   31.7339 C   0  0  0  0  0  0  0  0  0  0  0  0
  113.8509   90.9169   33.2764 H   0  0  0  0  0  0  0  0  0  0  0  0
  110.6499   92.4830   22.7288 S   0  0  0  0  0  0  0  0  0  0  0  0
  110.1074   93.9639   21.9076 C   0  0  0  0  0  0  0  0  0  0  0  0
  108.8165   94.5120   22.4845 C   0  0  0  0  0  0  0  0  0  0  0  0
  109.1220   96.0956   20.5905 C   0  0  0  0  0  0  0  0  0  0  0  0
  108.4739   95.9009   21.9569 C   0  0  0  0  0  0  0  0  0  0  0  0
 25 26  1  0  0  0
 25  5  1  0  0  0
 28 29  1  0  0  0
  1  5  2  0  0  0
  1  7  1  0  0  0
 16 13  1  0  0  0
 19 13  1  0  0  0
 29 27  1  0  0  0
  5  2  1  0  0  0
  2  9  2  0  0  0
 23 22  1  0  0  0
 27 26  1  0  0  0
  9  3  1  0  0  0
  3 10  1  0  0  0
  3 16  1  0  0  0
 18 14  1  0  0  0
  8  4  1  0  0  0
  4 10  2  0  0  0
 17 15  1  0  0  0
  6  7  1  0  0  0
  7  8  2  0  0  0
  8  9  1  0  0  0
 17 16  1  0  0  0
 18 17  1  0  0  0
 18 19  1  0  0  0
 23 19  1  0  0  0
 22 24  1  0  0  0
 14 20  1  0  0  0
 15 21  1  0  0  0
  6 11  1  0  0  0
  6 12  1  0  0  0
M  END
> <minimizedAffinity>
-7.94915

$$$$
3PN1_IVH_A_319


 29 31  0  0  0  0  0  0  0  0999 V2000
  111.9388   93.6412   23.8247 N   0  0  0  0  0  0  0  0  0  0  0  0
  111.4637   93.0390   26.0430 N   0  0  0  0  0  0  0  0  0  0  0  0
  112.5729   94.5167   27.6732 N   0  0  0  0  0  0  0  0  0  0  0  0
  113.6131   95.7643   26.1682 N   0  0  0  0  0  0  0  0  0  0  0  0
  111.3455   92.8566   24.7410 C   0  0  0  0  0  0  0  0  0  0  0  0
  113.3158   95.3540   23.1709 N   0  0  0  0  0  0  0  0  0  0  0  0
  112.7142   94.6263   24.1761 C   0  0  0  0  0  0  0  0  0  0  0  0
  112.8776   94.8512   25.5173 C   0  0  0  0  0  0  0  0  0  0  0  0
  112.2379   94.0346   26.4709 C   0  0  0  0  0  0  0  0  0  0  0  0
  113.4039   95.5586   27.4667 C   0  0  0  0  0  0  0  0  0  0  0  0
  113.1447   95.1264   22.2284 H   0  0  0  0  0  0  0  0  0  0  0  0
  113.9163   96.1010   23.3957 H   0  0  0  0  0  0  0  0  0  0  0  0
  112.9572   94.8655   29.9757 O   0  0  0  0  0  0  0  0  0  0  0  0
  113.5201   91.6565   31.3685 O   0  0  0  0  0  0  0  0  0  0  0  0
  111.4563   92.0397   29.8073 O   0  0  0  0  0  0  0  0  0  0  0  0
  112.2127   94.0676   29.0436 C   0  0  0  0  0  0  0  0  0  0  0  0
  112.6230   92.6507   29.3119 C   0  0  0  0  0  0  0  0  0  0  0  0
  113.6467   92.7241   30.4610 C   0  0  0  0  0  0  0  0  0  0  0  0
  113.3256   94.0206   31.1045 C   0  0  0  0  0  0  0  0  0  0  0  0
  113.7359   90.8238   30.9203 H   0  0  0  0  0  0  0  0  0  0  0  0
  110.7957   91.9825   29.0993 H   0  0  0  0  0  0  0  0  0  0  0  0
  115.5222   93.6353   31.6627 O   0  0  0  0  0  0  0  0  0  0  0  0
  114.5222   94.6815   31.7491 C   0  0  0  0  0  0  0  0  0  0  0  0
  116.3529   93.9488   32.0534 H   0  0  0  0  0  0  0  0  0  0  0  0
  110.3869   91.6475   24.1107 S   0  0  0  0  0  0  0  0  0  0  0  0
  110.2168   90.6724   25.5878 C   0  0  0  0  0  0  0  0  0  0  0  0
  111.3624   89.6974   25.7790 C   0  0  0  0  0  0  0  0  0  0  0  0
  112.2542   88.1860   27.5421 C   0  0  0  0  0  0  0  0  0  0  0  0
  111.8388   89.6185   27.2252 C   0  0  0  0  0  0  0  0  0  0  0  0
 25 26  1  0  0  0
 25  5  1  0  0  0
 28 29  1  0  0  0
  1  5  2  0  0  0
  1  7  1  0  0  0
 16 13  1  0  0  0
 19 13  1  0  0  0
 29 27  1  0  0  0
  5  2  1  0  0  0
  2  9  2  0  0  0
 23 22  1  0  0  0
 27 26  1  0  0  0
  9  3  1  0  0  0
  3 10  1  0  0  0
  3 16  1  0  0  0
 18 14  1  0  0  0
  8  4  1  0  0  0
  4 10  2  0  0  0
 17 15  1  0  0  0
  6  7  1  0  0  0
  7  8  2  0  0  0
  8  9  1  0  0  0
 17 16  1  0  0  0
 18 17  1  0  0  0
 18 19  1  0  0  0
 23 19  1  0  0  0
 22 24  1  0  0  0
 14 20  1  0  0  0
 15 21  1  0  0  0
  6 11  1  0  0  0
  6 12  1  0  0  0
M  END
> <minimizedAffinity>
-7.77487

$$$$
3PN1_IVH_A_319


 29 31  0  0  0  0  0  0  0  0999 V2000
  112.5098   89.0929   28.9991 N   0  0  0  0  0  0  0  0  0  0  0  0
  112.1354   91.3495   28.4727 N   0  0  0  0  0  0  0  0  0  0  0  0
  111.3517   91.6538   26.1565 N   0  0  0  0  0  0  0  0  0  0  0  0
  111.4342   89.5090   25.6120 N   0  0  0  0  0  0  0  0  0  0  0  0
  112.5032   90.4001   29.3128 C   0  0  0  0  0  0  0  0  0  0  0  0
  112.2582   87.3257   27.5601 N   0  0  0  0  0  0  0  0  0  0  0  0
  112.1832   88.6802   27.8082 C   0  0  0  0  0  0  0  0  0  0  0  0
  111.8030   89.6283   26.8957 C   0  0  0  0  0  0  0  0  0  0  0  0
  111.7822   90.9949   27.2385 C   0  0  0  0  0  0  0  0  0  0  0  0
  111.1494   90.7381   25.1873 C   0  0  0  0  0  0  0  0  0  0  0  0
  112.5417   86.7095   28.2736 H   0  0  0  0  0  0  0  0  0  0  0  0
  112.0283   86.9750   26.6694 H   0  0  0  0  0  0  0  0  0  0  0  0
  111.7061   93.4251   24.6373 O   0  0  0  0  0  0  0  0  0  0  0  0
  113.0073   96.1075   26.5520 O   0  0  0  0  0  0  0  0  0  0  0  0
  110.8715   94.8472   27.3847 O   0  0  0  0  0  0  0  0  0  0  0  0
  111.1357   93.1044   25.9148 C   0  0  0  0  0  0  0  0  0  0  0  0
  111.8591   93.9674   26.9046 C   0  0  0  0  0  0  0  0  0  0  0  0
  112.8690   94.7891   26.0809 C   0  0  0  0  0  0  0  0  0  0  0  0
  112.2824   94.7611   24.7195 C   0  0  0  0  0  0  0  0  0  0  0  0
  113.3925   96.0940   27.4421 H   0  0  0  0  0  0  0  0  0  0  0  0
  110.2228   94.3506   27.9077 H   0  0  0  0  0  0  0  0  0  0  0  0
  113.7245   96.2285   23.6938 O   0  0  0  0  0  0  0  0  0  0  0  0
  113.3167   94.8391   23.6203 C   0  0  0  0  0  0  0  0  0  0  0  0
  114.4010   96.4029   23.0208 H   0  0  0  0  0  0  0  0  0  0  0  0
  112.9466   90.7446   30.8822 S   0  0  0  0  0  0  0  0  0  0  0  0
  112.9144   92.5185   30.7637 C   0  0  0  0  0  0  0  0  0  0  0  0
  111.8232   93.1407   31.6133 C   0  0  0  0  0  0  0  0  0  0  0  0
  109.5397   93.5910   30.7351 C   0  0  0  0  0  0  0  0  0  0  0  0
  110.9615   94.1320   30.8388 C   0  0  0  0  0  0  0  0  0  0  0  0
 25 26  1  0  0  0
 25  5  1  0  0  0
 28 29  1  0  0  0
  1  5  2  0  0  0
  1  7  1  0  0  0
 16 13  1  0  0  0
 19 13  1  0  0  0
 29 27  1  0  0  0
  5  2  1  0  0  0
  2  9  2  0  0  0
 23 22  1  0  0  0
 27 26  1  0  0  0
  9  3  1  0  0  0
  3 10  1  0  0  0
  3 16  1  0  0  0
 18 14  1  0  0  0
  8  4  1  0  0  0
  4 10  2  0  0  0
 17 15  1  0  0  0
  6  7  1  0  0  0
  7  8  2  0  0  0
  8  9  1  0  0  0
 17 16  1  0  0  0
 18 17  1  0  0  0
 18 19  1  0  0  0
 23 19  1  0  0  0
 22 24  1  0  0  0
 14 20  1  0  0  0
 15 21  1  0  0  0
  6 11  1  0  0  0
  6 12  1  0  0  0
M  END
> <minimizedAffinity>
-7.64106

$$$$
3PN1_IVH_A_319


 29 31  0  0  0  0  0  0  0  0999 V2000
  111.5214   94.0311   22.8229 N   0  0  0  0  0  0  0  0  0  0  0  0
  112.1895   94.5184   25.0197 N   0  0  0  0  0  0  0  0  0  0  0  0
  111.8403   92.6179   26.5486 N   0  0  0  0  0  0  0  0  0  0  0  0
  110.9439   91.2763   25.0320 N   0  0  0  0  0  0  0  0  0  0  0  0
  112.0225   94.8596   23.7555 C   0  0  0  0  0  0  0  0  0  0  0  0
  110.5859   92.0604   22.1170 N   0  0  0  0  0  0  0  0  0  0  0  0
  111.1262   92.8284   23.1270 C   0  0  0  0  0  0  0  0  0  0  0  0
  111.2692   92.4293   24.4295 C   0  0  0  0  0  0  0  0  0  0  0  0
  111.8117   93.2982   25.3969 C   0  0  0  0  0  0  0  0  0  0  0  0
  111.3109   91.4016   26.3055 C   0  0  0  0  0  0  0  0  0  0  0  0
  110.5190   92.4237   21.2044 H   0  0  0  0  0  0  0  0  0  0  0  0
  110.2670   91.1489   22.3085 H   0  0  0  0  0  0  0  0  0  0  0  0
  112.9934   91.8951   28.4771 O   0  0  0  0  0  0  0  0  0  0  0  0
  110.9358   92.7641   31.2276 O   0  0  0  0  0  0  0  0  0  0  0  0
  111.4466   94.5500   29.3856 O   0  0  0  0  0  0  0  0  0  0  0  0
  112.2945   93.0121   27.9080 C   0  0  0  0  0  0  0  0  0  0  0  0
  111.1524   93.2870   28.8397 C   0  0  0  0  0  0  0  0  0  0  0  0
  111.2725   92.2420   29.9654 C   0  0  0  0  0  0  0  0  0  0  0  0
  112.7030   91.8569   29.9046 C   0  0  0  0  0  0  0  0  0  0  0  0
  109.9966   93.0065   31.2372 H   0  0  0  0  0  0  0  0  0  0  0  0
  111.3771   95.2257   28.6931 H   0  0  0  0  0  0  0  0  0  0  0  0
  112.8663   90.5490   31.7883 O   0  0  0  0  0  0  0  0  0  0  0  0
  112.9592   90.4342   30.3459 C   0  0  0  0  0  0  0  0  0  0  0  0
  113.0163   89.6799   32.1921 H   0  0  0  0  0  0  0  0  0  0  0  0
  112.4794   96.3581   23.1864 S   0  0  0  0  0  0  0  0  0  0  0  0
  111.5989   96.3144   21.6422 C   0  0  0  0  0  0  0  0  0  0  0  0
  110.4513   97.3045   21.5961 C   0  0  0  0  0  0  0  0  0  0  0  0
  108.4342   95.8595   21.7735 C   0  0  0  0  0  0  0  0  0  0  0  0
  109.2355   96.7686   20.8481 C   0  0  0  0  0  0  0  0  0  0  0  0
 25 26  1  0  0  0
 25  5  1  0  0  0
 28 29  1  0  0  0
  1  5  2  0  0  0
  1  7  1  0  0  0
 16 13  1  0  0  0
 19 13  1  0  0  0
 29 27  1  0  0  0
  5  2  1  0  0  0
  2  9  2  0  0  0
 23 22  1  0  0  0
 27 26  1  0  0  0
  9  3  1  0  0  0
  3 10  1  0  0  0
  3 16  1  0  0  0
 18 14  1  0  0  0
  8  4  1  0  0  0
  4 10  2  0  0  0
 17 15  1  0  0  0
  6  7  1  0  0  0
  7  8  2  0  0  0
  8  9  1  0  0  0
 17 16  1  0  0  0
 18 17  1  0  0  0
 18 19  1  0  0  0
 23 19  1  0  0  0
 22 24  1  0  0  0
 14 20  1  0  0  0
 15 21  1  0  0  0
  6 11  1  0  0  0
  6 12  1  0  0  0
M  END
> <minimizedAffinity>
-7.60693

$$$$
3PN1_IVH_A_319


 29 31  0  0  0  0  0  0  0  0999 V2000
  111.0749   90.1057   25.2762 N   0  0  0  0  0  0  0  0  0  0  0  0
  111.4282   92.0172   26.5920 N   0  0  0  0  0  0  0  0  0  0  0  0
  112.4159   91.4767   28.7837 N   0  0  0  0  0  0  0  0  0  0  0  0
  112.4501   89.2840   28.4757 N   0  0  0  0  0  0  0  0  0  0  0  0
  111.0123   91.4325   25.4840 C   0  0  0  0  0  0  0  0  0  0  0  0
  111.5140   87.9468   25.9112 N   0  0  0  0  0  0  0  0  0  0  0  0
  111.5241   89.2969   26.1923 C   0  0  0  0  0  0  0  0  0  0  0  0
  111.9592   89.8540   27.3656 C   0  0  0  0  0  0  0  0  0  0  0  0
  111.9061   91.2474   27.5681 C   0  0  0  0  0  0  0  0  0  0  0  0
  112.7359   90.2783   29.3134 C   0  0  0  0  0  0  0  0  0  0  0  0
  111.1838   87.6278   25.0404 H   0  0  0  0  0  0  0  0  0  0  0  0
  111.8370   87.3021   26.5815 H   0  0  0  0  0  0  0  0  0  0  0  0
  113.4366   92.4467   30.6779 O   0  0  0  0  0  0  0  0  0  0  0  0
  110.9195   94.3696   32.2657 O   0  0  0  0  0  0  0  0  0  0  0  0
  111.2975   94.6177   29.6890 O   0  0  0  0  0  0  0  0  0  0  0  0
  112.6094   92.7401   29.5423 C   0  0  0  0  0  0  0  0  0  0  0  0
  111.3277   93.2746   30.1077 C   0  0  0  0  0  0  0  0  0  0  0  0
  111.5080   93.2568   31.6377 C   0  0  0  0  0  0  0  0  0  0  0  0
  112.9823   93.2653   31.7947 C   0  0  0  0  0  0  0  0  0  0  0  0
  109.9574   94.3368   32.1465 H   0  0  0  0  0  0  0  0  0  0  0  0
  111.1844   94.6538   28.7263 H   0  0  0  0  0  0  0  0  0  0  0  0
  112.2023   92.2807   33.7202 O   0  0  0  0  0  0  0  0  0  0  0  0
  113.4549   92.5640   33.0473 C   0  0  0  0  0  0  0  0  0  0  0  0
  112.3808   91.8214   34.5557 H   0  0  0  0  0  0  0  0  0  0  0  0
  110.4135   92.3133   24.2019 S   0  0  0  0  0  0  0  0  0  0  0  0
  109.9214   93.7626   25.1070 C   0  0  0  0  0  0  0  0  0  0  0  0
  108.7898   94.5150   24.4341 C   0  0  0  0  0  0  0  0  0  0  0  0
  108.6306   95.4462   22.1328 C   0  0  0  0  0  0  0  0  0  0  0  0
  109.2821   95.6158   23.5009 C   0  0  0  0  0  0  0  0  0  0  0  0
 25 26  1  0  0  0
 25  5  1  0  0  0
 28 29  1  0  0  0
  1  5  2  0  0  0
  1  7  1  0  0  0
 16 13  1  0  0  0
 19 13  1  0  0  0
 29 27  1  0  0  0
  5  2  1  0  0  0
  2  9  2  0  0  0
 23 22  1  0  0  0
 27 26  1  0  0  0
  9  3  1  0  0  0
  3 10  1  0  0  0
  3 16  1  0  0  0
 18 14  1  0  0  0
  8  4  1  0  0  0
  4 10  2  0  0  0
 17 15  1  0  0  0
  6  7  1  0  0  0
  7  8  2  0  0  0
  8  9  1  0  0  0
 17 16  1  0  0  0
 18 17  1  0  0  0
 18 19  1  0  0  0
 23 19  1  0  0  0
 22 24  1  0  0  0
 14 20  1  0  0  0
 15 21  1  0  0  0
  6 11  1  0  0  0
  6 12  1  0  0  0
M  END
> <minimizedAffinity>
-7.56132

$$$$
3PN1_IVH_A_319


 29 31  0  0  0  0  0  0  0  0999 V2000
  111.9050   90.5581   27.4100 N   0  0  0  0  0  0  0  0  0  0  0  0
  111.6970   92.8541   26.9688 N   0  0  0  0  0  0  0  0  0  0  0  0
  110.8778   93.2996   24.6880 N   0  0  0  0  0  0  0  0  0  0  0  0
  110.7748   91.1752   24.0716 N   0  0  0  0  0  0  0  0  0  0  0  0
  112.0108   91.8501   27.7662 C   0  0  0  0  0  0  0  0  0  0  0  0
  111.4749   88.8674   25.9222 N   0  0  0  0  0  0  0  0  0  0  0  0
  111.5146   90.2141   26.2165 C   0  0  0  0  0  0  0  0  0  0  0  0
  111.1865   91.2204   25.3471 C   0  0  0  0  0  0  0  0  0  0  0  0
  111.2836   92.5716   25.7347 C   0  0  0  0  0  0  0  0  0  0  0  0
  110.5773   92.4369   23.6959 C   0  0  0  0  0  0  0  0  0  0  0  0
  111.7276   88.2063   26.6065 H   0  0  0  0  0  0  0  0  0  0  0  0
  111.1939   88.5671   25.0277 H   0  0  0  0  0  0  0  0  0  0  0  0
  109.6997   95.0174   23.5780 O   0  0  0  0  0  0  0  0  0  0  0  0
  112.1640   97.1601   22.2031 O   0  0  0  0  0  0  0  0  0  0  0  0
  112.3461   96.4269   24.7077 O   0  0  0  0  0  0  0  0  0  0  0  0
  110.7713   94.7702   24.5002 C   0  0  0  0  0  0  0  0  0  0  0  0
  111.9932   95.3594   23.8617 C   0  0  0  0  0  0  0  0  0  0  0  0
  111.5182   95.9513   22.5209 C   0  0  0  0  0  0  0  0  0  0  0  0
  110.0678   96.1577   22.7486 C   0  0  0  0  0  0  0  0  0  0  0  0
  113.1089   96.9941   22.0601 H   0  0  0  0  0  0  0  0  0  0  0  0
  112.6491   96.0773   25.5603 H   0  0  0  0  0  0  0  0  0  0  0  0
  109.6508   94.7471   20.9818 O   0  0  0  0  0  0  0  0  0  0  0  0
  109.2417   96.0426   21.4882 C   0  0  0  0  0  0  0  0  0  0  0  0
  109.1772   94.5583   20.1566 H   0  0  0  0  0  0  0  0  0  0  0  0
  112.5223   92.1038   29.3322 S   0  0  0  0  0  0  0  0  0  0  0  0
  112.3862   93.8766   29.3518 C   0  0  0  0  0  0  0  0  0  0  0  0
  111.4623   94.3792   30.4442 C   0  0  0  0  0  0  0  0  0  0  0  0
  109.2416   93.4404   31.0566 C   0  0  0  0  0  0  0  0  0  0  0  0
  109.9901   94.3112   30.0534 C   0  0  0  0  0  0  0  0  0  0  0  0
 25 26  1  0  0  0
 25  5  1  0  0  0
 28 29  1  0  0  0
  1  5  2  0  0  0
  1  7  1  0  0  0
 16 13  1  0  0  0
 19 13  1  0  0  0
 29 27  1  0  0  0
  5  2  1  0  0  0
  2  9  2  0  0  0
 23 22  1  0  0  0
 27 26  1  0  0  0
  9  3  1  0  0  0
  3 10  1  0  0  0
  3 16  1  0  0  0
 18 14  1  0  0  0
  8  4  1  0  0  0
  4 10  2  0  0  0
 17 15  1  0  0  0
  6  7  1  0  0  0
  7  8  2  0  0  0
  8  9  1  0  0  0
 17 16  1  0  0  0
 18 17  1  0  0  0
 18 19  1  0  0  0
 23 19  1  0  0  0
 22 24  1  0  0  0
 14 20  1  0  0  0
 15 21  1  0  0  0
  6 11  1  0  0  0
  6 12  1  0  0  0
M  END
> <minimizedAffinity>
-7.51983

$$$$
3PN1_IVH_A_319


 29 31  0  0  0  0  0  0  0  0999 V2000
  111.7415   93.1607   23.6708 N   0  0  0  0  0  0  0  0  0  0  0  0
  111.6775   93.2900   26.0136 N   0  0  0  0  0  0  0  0  0  0  0  0
  113.1143   95.0886   26.8924 N   0  0  0  0  0  0  0  0  0  0  0  0
  113.8852   95.7384   24.9209 N   0  0  0  0  0  0  0  0  0  0  0  0
  111.3107   92.7380   24.8720 C   0  0  0  0  0  0  0  0  0  0  0  0
  113.0164   94.4787   22.2943 N   0  0  0  0  0  0  0  0  0  0  0  0
  112.5958   94.1373   23.5625 C   0  0  0  0  0  0  0  0  0  0  0  0
  113.0155   94.7377   24.7199 C   0  0  0  0  0  0  0  0  0  0  0  0
  112.5454   94.2995   25.9738 C   0  0  0  0  0  0  0  0  0  0  0  0
  113.9194   95.9480   26.2351 C   0  0  0  0  0  0  0  0  0  0  0  0
  112.6644   93.9954   21.5122 H   0  0  0  0  0  0  0  0  0  0  0  0
  113.6687   95.2057   22.1711 H   0  0  0  0  0  0  0  0  0  0  0  0
  113.4899   93.8389   28.8592 O   0  0  0  0  0  0  0  0  0  0  0  0
  110.5142   94.1000   30.7647 O   0  0  0  0  0  0  0  0  0  0  0  0
  111.5996   96.2613   29.7677 O   0  0  0  0  0  0  0  0  0  0  0  0
  113.0071   95.1008   28.3749 C   0  0  0  0  0  0  0  0  0  0  0  0
  111.5879   95.1955   28.8491 C   0  0  0  0  0  0  0  0  0  0  0  0
  111.3227   93.8952   29.6319 C   0  0  0  0  0  0  0  0  0  0  0  0
  112.6869   93.4581   30.0141 C   0  0  0  0  0  0  0  0  0  0  0  0
  109.6303   94.3846   30.4840 H   0  0  0  0  0  0  0  0  0  0  0  0
  111.7654   97.0927   29.2962 H   0  0  0  0  0  0  0  0  0  0  0  0
  113.5612   91.6231   28.9401 O   0  0  0  0  0  0  0  0  0  0  0  0
  112.8212   91.9581   30.1411 C   0  0  0  0  0  0  0  0  0  0  0  0
  113.7115   90.6653   28.9095 H   0  0  0  0  0  0  0  0  0  0  0  0
  110.2178   91.4806   24.8199 S   0  0  0  0  0  0  0  0  0  0  0  0
  109.3844   91.9404   23.3180 C   0  0  0  0  0  0  0  0  0  0  0  0
  108.4443   93.1150   23.5080 C   0  0  0  0  0  0  0  0  0  0  0  0
  108.9897   95.5345   23.3166 C   0  0  0  0  0  0  0  0  0  0  0  0
  108.7158   94.2554   22.5331 C   0  0  0  0  0  0  0  0  0  0  0  0
 25 26  1  0  0  0
 25  5  1  0  0  0
 28 29  1  0  0  0
  1  5  2  0  0  0
  1  7  1  0  0  0
 16 13  1  0  0  0
 19 13  1  0  0  0
 29 27  1  0  0  0
  5  2  1  0  0  0
  2  9  2  0  0  0
 23 22  1  0  0  0
 27 26  1  0  0  0
  9  3  1  0  0  0
  3 10  1  0  0  0
  3 16  1  0  0  0
 18 14  1  0  0  0
  8  4  1  0  0  0
  4 10  2  0  0  0
 17 15  1  0  0  0
  6  7  1  0  0  0
  7  8  2  0  0  0
  8  9  1  0  0  0
 17 16  1  0  0  0
 18 17  1  0  0  0
 18 19  1  0  0  0
 23 19  1  0  0  0
 22 24  1  0  0  0
 14 20  1  0  0  0
 15 21  1  0  0  0
  6 11  1  0  0  0
  6 12  1  0  0  0
M  END
> <minimizedAffinity>
-7.40582

$$$$
