4N6G_2GQ_B_401


 15 16  0  0  0  0  0  0  0  0999 V2000
   28.3089   28.3720   -1.0692 O   0  0  0  0  0  0  0  0  0  0  0  0
   28.5318   28.4347   -2.2728 C   0  0  0  0  0  0  0  0  0  0  0  0
   28.4971   27.2694   -3.1788 C   0  0  0  0  0  0  0  0  0  0  0  0
   28.1114   26.0147   -2.7013 C   0  0  0  0  0  0  0  0  0  0  0  0
   28.0533   24.9256   -3.5585 C   0  0  0  0  0  0  0  0  0  0  0  0
   28.8683   29.6294   -2.8654 N   0  0  0  0  0  0  0  0  0  0  0  0
   29.1770   29.8177   -4.1782 C   0  0  0  0  0  0  0  0  0  0  0  0
   29.1676   28.7384   -5.0440 C   0  0  0  0  0  0  0  0  0  0  0  0
   28.8230   27.4242   -4.5494 C   0  0  0  0  0  0  0  0  0  0  0  0
   28.7726   26.3001   -5.3868 C   0  0  0  0  0  0  0  0  0  0  0  0
   28.3891   25.0654   -4.8890 C   0  0  0  0  0  0  0  0  0  0  0  0
   29.4892   31.0681   -4.5593 N   0  0  0  0  0  0  0  0  0  0  0  0
   28.8879   30.4244   -2.2850 H   0  0  0  0  0  0  0  0  0  0  0  0
   29.4801   31.8000   -3.9010 H   0  0  0  0  0  0  0  0  0  0  0  0
   29.7271   31.2520   -5.4968 H   0  0  0  0  0  0  0  0  0  0  0  0
 12  7  1  0  0  0
  6  7  1  0  0  0
  6  2  1  0  0  0
  7  8  2  0  0  0
  1  2  2  0  0  0
  2  3  1  0  0  0
  8  9  1  0  0  0
  3  9  2  0  0  0
  3  4  1  0  0  0
  9 10  1  0  0  0
  4  5  2  0  0  0
 10 11  2  0  0  0
  5 11  1  0  0  0
  6 13  1  0  0  0
 12 14  1  0  0  0
 12 15  1  0  0  0
M  END
> <minimizedAffinity>
-7.30662

$$$$
4N6G_2GQ_B_401


 15 16  0  0  0  0  0  0  0  0999 V2000
   27.9311   27.1922   -0.8119 O   0  0  0  0  0  0  0  0  0  0  0  0
   28.0182   26.3521   -1.7001 C   0  0  0  0  0  0  0  0  0  0  0  0
   28.3356   26.6703   -3.1065 C   0  0  0  0  0  0  0  0  0  0  0  0
   28.6453   27.9795   -3.4820 C   0  0  0  0  0  0  0  0  0  0  0  0
   28.9694   28.2735   -4.7983 C   0  0  0  0  0  0  0  0  0  0  0  0
   27.7879   25.0220   -1.4365 N   0  0  0  0  0  0  0  0  0  0  0  0
   27.8139   24.0059   -2.3426 C   0  0  0  0  0  0  0  0  0  0  0  0
   28.0926   24.2807   -3.6697 C   0  0  0  0  0  0  0  0  0  0  0  0
   28.3611   25.6407   -4.0802 C   0  0  0  0  0  0  0  0  0  0  0  0
   28.6744   25.9729   -5.4064 C   0  0  0  0  0  0  0  0  0  0  0  0
   28.9760   27.2795   -5.7547 C   0  0  0  0  0  0  0  0  0  0  0  0
   27.5509   22.7706   -1.8831 N   0  0  0  0  0  0  0  0  0  0  0  0
   27.5849   24.7816   -0.5037 H   0  0  0  0  0  0  0  0  0  0  0  0
   27.3588   22.6313   -0.9276 H   0  0  0  0  0  0  0  0  0  0  0  0
   27.5503   22.0050   -2.5020 H   0  0  0  0  0  0  0  0  0  0  0  0
 12  7  1  0  0  0
  6  7  1  0  0  0
  6  2  1  0  0  0
  7  8  2  0  0  0
  1  2  2  0  0  0
  2  3  1  0  0  0
  8  9  1  0  0  0
  3  9  2  0  0  0
  3  4  1  0  0  0
  9 10  1  0  0  0
  4  5  2  0  0  0
 10 11  2  0  0  0
  5 11  1  0  0  0
  6 13  1  0  0  0
 12 14  1  0  0  0
 12 15  1  0  0  0
M  END
> <minimizedAffinity>
-7.25512

$$$$
4N6G_2GQ_B_401


 15 16  0  0  0  0  0  0  0  0999 V2000
   28.0193   23.1978   -3.8454 O   0  0  0  0  0  0  0  0  0  0  0  0
   28.0130   24.2709   -3.2531 C   0  0  0  0  0  0  0  0  0  0  0  0
   28.3441   25.5631   -3.8861 C   0  0  0  0  0  0  0  0  0  0  0  0
   28.6052   25.6319   -5.2565 C   0  0  0  0  0  0  0  0  0  0  0  0
   28.8902   26.8501   -5.8557 C   0  0  0  0  0  0  0  0  0  0  0  0
   27.7165   24.3331   -1.9115 N   0  0  0  0  0  0  0  0  0  0  0  0
   27.7171   25.4540   -1.1384 C   0  0  0  0  0  0  0  0  0  0  0  0
   28.0402   26.6744   -1.7046 C   0  0  0  0  0  0  0  0  0  0  0  0
   28.3658   26.7496   -3.1112 C   0  0  0  0  0  0  0  0  0  0  0  0
   28.6755   27.9631   -3.7428 C   0  0  0  0  0  0  0  0  0  0  0  0
   28.9330   28.0054   -5.1034 C   0  0  0  0  0  0  0  0  0  0  0  0
   27.4066   25.3008    0.1602 N   0  0  0  0  0  0  0  0  0  0  0  0
   27.4814   23.4863   -1.4678 H   0  0  0  0  0  0  0  0  0  0  0  0
   27.1842   24.4082    0.5112 H   0  0  0  0  0  0  0  0  0  0  0  0
   27.4016   26.0811    0.7605 H   0  0  0  0  0  0  0  0  0  0  0  0
 12  7  1  0  0  0
  6  7  1  0  0  0
  6  2  1  0  0  0
  7  8  2  0  0  0
  1  2  2  0  0  0
  2  3  1  0  0  0
  8  9  1  0  0  0
  3  9  2  0  0  0
  3  4  1  0  0  0
  9 10  1  0  0  0
  4  5  2  0  0  0
 10 11  2  0  0  0
  5 11  1  0  0  0
  6 13  1  0  0  0
 12 14  1  0  0  0
 12 15  1  0  0  0
M  END
> <minimizedAffinity>
-7.24704

$$$$
4N6G_2GQ_B_401


 15 16  0  0  0  0  0  0  0  0999 V2000
   27.6351   25.8208   -0.8705 O   0  0  0  0  0  0  0  0  0  0  0  0
   27.8459   25.4898   -2.0316 C   0  0  0  0  0  0  0  0  0  0  0  0
   28.2560   26.4290   -3.0945 C   0  0  0  0  0  0  0  0  0  0  0  0
   28.5131   27.7684   -2.7929 C   0  0  0  0  0  0  0  0  0  0  0  0
   28.9240   28.6446   -3.7867 C   0  0  0  0  0  0  0  0  0  0  0  0
   27.6782   24.1851   -2.4336 N   0  0  0  0  0  0  0  0  0  0  0  0
   27.8408   23.7053   -3.6975 C   0  0  0  0  0  0  0  0  0  0  0  0
   28.2086   24.5687   -4.7142 C   0  0  0  0  0  0  0  0  0  0  0  0
   28.4244   25.9686   -4.4243 C   0  0  0  0  0  0  0  0  0  0  0  0
   28.8229   26.8831   -5.4103 C   0  0  0  0  0  0  0  0  0  0  0  0
   29.0699   28.2073   -5.0867 C   0  0  0  0  0  0  0  0  0  0  0  0
   27.6186   22.3933   -3.8862 N   0  0  0  0  0  0  0  0  0  0  0  0
   27.4155   23.5363   -1.7413 H   0  0  0  0  0  0  0  0  0  0  0  0
   27.3587   21.8237   -3.1265 H   0  0  0  0  0  0  0  0  0  0  0  0
   27.7158   22.0018   -4.7843 H   0  0  0  0  0  0  0  0  0  0  0  0
 12  7  1  0  0  0
  6  7  1  0  0  0
  6  2  1  0  0  0
  7  8  2  0  0  0
  1  2  2  0  0  0
  2  3  1  0  0  0
  8  9  1  0  0  0
  3  9  2  0  0  0
  3  4  1  0  0  0
  9 10  1  0  0  0
  4  5  2  0  0  0
 10 11  2  0  0  0
  5 11  1  0  0  0
  6 13  1  0  0  0
 12 14  1  0  0  0
 12 15  1  0  0  0
M  END
> <minimizedAffinity>
-7.15857

$$$$
4N6G_2GQ_B_401


 15 16  0  0  0  0  0  0  0  0999 V2000
   27.8035   25.7002   -0.9738 O   0  0  0  0  0  0  0  0  0  0  0  0
   28.0446   26.7050   -1.6329 C   0  0  0  0  0  0  0  0  0  0  0  0
   28.3535   26.6887   -3.0766 C   0  0  0  0  0  0  0  0  0  0  0  0
   28.2986   25.4934   -3.7972 C   0  0  0  0  0  0  0  0  0  0  0  0
   28.5629   25.4827   -5.1589 C   0  0  0  0  0  0  0  0  0  0  0  0
   28.0723   27.9460   -1.0405 N   0  0  0  0  0  0  0  0  0  0  0  0
   28.3665   29.1248   -1.6553 C   0  0  0  0  0  0  0  0  0  0  0  0
   28.6756   29.1335   -3.0040 C   0  0  0  0  0  0  0  0  0  0  0  0
   28.6754   27.8943   -3.7486 C   0  0  0  0  0  0  0  0  0  0  0  0
   28.9558   27.8478   -5.1222 C   0  0  0  0  0  0  0  0  0  0  0  0
   28.8968   26.6493   -5.8147 C   0  0  0  0  0  0  0  0  0  0  0  0
   28.3485   30.2322   -0.8941 N   0  0  0  0  0  0  0  0  0  0  0  0
   27.8589   27.9858   -0.0802 H   0  0  0  0  0  0  0  0  0  0  0  0
   28.1214   30.1688    0.0618 H   0  0  0  0  0  0  0  0  0  0  0  0
   28.5623   31.1068   -1.2923 H   0  0  0  0  0  0  0  0  0  0  0  0
 12  7  1  0  0  0
  6  7  1  0  0  0
  6  2  1  0  0  0
  7  8  2  0  0  0
  1  2  2  0  0  0
  2  3  1  0  0  0
  8  9  1  0  0  0
  3  9  2  0  0  0
  3  4  1  0  0  0
  9 10  1  0  0  0
  4  5  2  0  0  0
 10 11  2  0  0  0
  5 11  1  0  0  0
  6 13  1  0  0  0
 12 14  1  0  0  0
 12 15  1  0  0  0
M  END
> <minimizedAffinity>
-7.15124

$$$$
4N6G_2GQ_B_401


 15 16  0  0  0  0  0  0  0  0999 V2000
   28.7372   30.0035   -2.6438 O   0  0  0  0  0  0  0  0  0  0  0  0
   28.5341   28.8135   -2.4324 C   0  0  0  0  0  0  0  0  0  0  0  0
   28.5705   27.7729   -3.4793 C   0  0  0  0  0  0  0  0  0  0  0  0
   28.9349   28.0996   -4.7875 C   0  0  0  0  0  0  0  0  0  0  0  0
   28.9947   27.1171   -5.7649 C   0  0  0  0  0  0  0  0  0  0  0  0
   28.2200   28.3659   -1.1704 N   0  0  0  0  0  0  0  0  0  0  0  0
   27.9342   27.0815   -0.8200 C   0  0  0  0  0  0  0  0  0  0  0  0
   27.9456   26.0910   -1.7861 C   0  0  0  0  0  0  0  0  0  0  0  0
   28.2680   26.4268   -3.1548 C   0  0  0  0  0  0  0  0  0  0  0  0
   28.3194   25.4596   -4.1693 C   0  0  0  0  0  0  0  0  0  0  0  0
   28.6816   25.8088   -5.4602 C   0  0  0  0  0  0  0  0  0  0  0  0
   27.6417   26.8510    0.4713 N   0  0  0  0  0  0  0  0  0  0  0  0
   28.1999   29.0384   -0.4517 H   0  0  0  0  0  0  0  0  0  0  0  0
   27.6484   27.5936    1.1177 H   0  0  0  0  0  0  0  0  0  0  0  0
   27.4206   25.9397    0.7709 H   0  0  0  0  0  0  0  0  0  0  0  0
 12  7  1  0  0  0
  6  7  1  0  0  0
  6  2  1  0  0  0
  7  8  2  0  0  0
  1  2  2  0  0  0
  2  3  1  0  0  0
  8  9  1  0  0  0
  3  9  2  0  0  0
  3  4  1  0  0  0
  9 10  1  0  0  0
  4  5  2  0  0  0
 10 11  2  0  0  0
  5 11  1  0  0  0
  6 13  1  0  0  0
 12 14  1  0  0  0
 12 15  1  0  0  0
M  END
> <minimizedAffinity>
-6.98058

$$$$
4N6G_2GQ_B_401


 15 16  0  0  0  0  0  0  0  0999 V2000
   29.3852   30.2054   -5.1847 O   0  0  0  0  0  0  0  0  0  0  0  0
   29.1189   29.5000   -4.2184 C   0  0  0  0  0  0  0  0  0  0  0  0
   28.8433   28.0521   -4.3065 C   0  0  0  0  0  0  0  0  0  0  0  0
   28.9622   27.3835   -5.5270 C   0  0  0  0  0  0  0  0  0  0  0  0
   28.7291   26.0182   -5.6043 C   0  0  0  0  0  0  0  0  0  0  0  0
   29.0283   30.0392   -2.9564 N   0  0  0  0  0  0  0  0  0  0  0  0
   28.7009   29.3697   -1.8168 C   0  0  0  0  0  0  0  0  0  0  0  0
   28.4221   28.0157   -1.8759 C   0  0  0  0  0  0  0  0  0  0  0  0
   28.4886   27.3237   -3.1436 C   0  0  0  0  0  0  0  0  0  0  0  0
   28.2412   25.9478   -3.2578 C   0  0  0  0  0  0  0  0  0  0  0  0
   28.3635   25.3074   -4.4802 C   0  0  0  0  0  0  0  0  0  0  0  0
   28.6576   30.0841   -0.6793 N   0  0  0  0  0  0  0  0  0  0  0  0
   29.2183   31.0012   -2.8686 H   0  0  0  0  0  0  0  0  0  0  0  0
   28.8656   31.0463   -0.6942 H   0  0  0  0  0  0  0  0  0  0  0  0
   28.4180   29.6453    0.1688 H   0  0  0  0  0  0  0  0  0  0  0  0
 12  7  1  0  0  0
  6  7  1  0  0  0
  6  2  1  0  0  0
  7  8  2  0  0  0
  1  2  2  0  0  0
  2  3  1  0  0  0
  8  9  1  0  0  0
  3  9  2  0  0  0
  3  4  1  0  0  0
  9 10  1  0  0  0
  4  5  2  0  0  0
 10 11  2  0  0  0
  5 11  1  0  0  0
  6 13  1  0  0  0
 12 14  1  0  0  0
 12 15  1  0  0  0
M  END
> <minimizedAffinity>
-6.84938

$$$$
4N6G_2GQ_B_401


 15 16  0  0  0  0  0  0  0  0999 V2000
   28.0739   27.3314   -0.4232 O   0  0  0  0  0  0  0  0  0  0  0  0
   28.3267   27.8260   -1.5158 C   0  0  0  0  0  0  0  0  0  0  0  0
   28.3926   27.0554   -2.7735 C   0  0  0  0  0  0  0  0  0  0  0  0
   28.0746   25.6953   -2.7860 C   0  0  0  0  0  0  0  0  0  0  0  0
   28.1109   24.9776   -3.9725 C   0  0  0  0  0  0  0  0  0  0  0  0
   28.6029   29.1682   -1.6344 N   0  0  0  0  0  0  0  0  0  0  0  0
   28.9364   29.8229   -2.7808 C   0  0  0  0  0  0  0  0  0  0  0  0
   29.0210   29.1197   -3.9694 C   0  0  0  0  0  0  0  0  0  0  0  0
   28.7472   27.7001   -3.9848 C   0  0  0  0  0  0  0  0  0  0  0  0
   28.7928   26.9430   -5.1647 C   0  0  0  0  0  0  0  0  0  0  0  0
   28.4750   25.5946   -5.1511 C   0  0  0  0  0  0  0  0  0  0  0  0
   29.1788   31.1412   -2.6832 N   0  0  0  0  0  0  0  0  0  0  0  0
   28.5549   29.7070   -0.8118 H   0  0  0  0  0  0  0  0  0  0  0  0
   29.1039   31.5922   -1.8113 H   0  0  0  0  0  0  0  0  0  0  0  0
   29.4312   31.6559   -3.4836 H   0  0  0  0  0  0  0  0  0  0  0  0
 12  7  1  0  0  0
  6  7  1  0  0  0
  6  2  1  0  0  0
  7  8  2  0  0  0
  1  2  2  0  0  0
  2  3  1  0  0  0
  8  9  1  0  0  0
  3  9  2  0  0  0
  3  4  1  0  0  0
  9 10  1  0  0  0
  4  5  2  0  0  0
 10 11  2  0  0  0
  5 11  1  0  0  0
  6 13  1  0  0  0
 12 14  1  0  0  0
 12 15  1  0  0  0
M  END
> <minimizedAffinity>
-6.67197

$$$$
4N6G_2GQ_B_401


 15 16  0  0  0  0  0  0  0  0999 V2000
   28.9232   26.3616   -6.0849 O   0  0  0  0  0  0  0  0  0  0  0  0
   28.5705   25.9849   -4.9732 C   0  0  0  0  0  0  0  0  0  0  0  0
   28.5272   26.8576   -3.7831 C   0  0  0  0  0  0  0  0  0  0  0  0
   28.8152   28.2198   -3.8952 C   0  0  0  0  0  0  0  0  0  0  0  0
   28.7485   29.0445   -2.7819 C   0  0  0  0  0  0  0  0  0  0  0  0
   28.2108   24.6755   -4.7546 N   0  0  0  0  0  0  0  0  0  0  0  0
   27.8424   24.1305   -3.5624 C   0  0  0  0  0  0  0  0  0  0  0  0
   27.8100   24.9239   -2.4293 C   0  0  0  0  0  0  0  0  0  0  0  0
   28.1592   26.3237   -2.5228 C   0  0  0  0  0  0  0  0  0  0  0  0
   28.1189   27.1797   -1.4124 C   0  0  0  0  0  0  0  0  0  0  0  0
   28.4110   28.5271   -1.5486 C   0  0  0  0  0  0  0  0  0  0  0  0
   27.5357   22.8220   -3.5574 N   0  0  0  0  0  0  0  0  0  0  0  0
   28.2206   24.0749   -5.5346 H   0  0  0  0  0  0  0  0  0  0  0  0
   27.5754   22.3039   -4.3936 H   0  0  0  0  0  0  0  0  0  0  0  0
   27.2714   22.3816   -2.7175 H   0  0  0  0  0  0  0  0  0  0  0  0
 12  7  1  0  0  0
  6  7  1  0  0  0
  6  2  1  0  0  0
  7  8  2  0  0  0
  1  2  2  0  0  0
  2  3  1  0  0  0
  8  9  1  0  0  0
  3  9  2  0  0  0
  3  4  1  0  0  0
  9 10  1  0  0  0
  4  5  2  0  0  0
 10 11  2  0  0  0
  5 11  1  0  0  0
  6 13  1  0  0  0
 12 14  1  0  0  0
 12 15  1  0  0  0
M  END
> <minimizedAffinity>
-6.41735

$$$$
4N6G_2GQ_B_401


 15 16  0  0  0  0  0  0  0  0999 V2000
   28.2683   29.1178   -0.3034 O   0  0  0  0  0  0  0  0  0  0  0  0
   28.4638   28.8686   -1.4874 C   0  0  0  0  0  0  0  0  0  0  0  0
   28.3362   27.5213   -2.0777 C   0  0  0  0  0  0  0  0  0  0  0  0
   27.8881   26.4498   -1.3018 C   0  0  0  0  0  0  0  0  0  0  0  0
   27.7429   25.1898   -1.8634 C   0  0  0  0  0  0  0  0  0  0  0  0
   28.8563   29.8570   -2.3596 N   0  0  0  0  0  0  0  0  0  0  0  0
   29.1423   29.6970   -3.6813 C   0  0  0  0  0  0  0  0  0  0  0  0
   29.0461   28.4412   -4.2540 C   0  0  0  0  0  0  0  0  0  0  0  0
   28.6359   27.3137   -3.4473 C   0  0  0  0  0  0  0  0  0  0  0  0
   28.4967   26.0241   -3.9811 C   0  0  0  0  0  0  0  0  0  0  0  0
   28.0525   24.9767   -3.1905 C   0  0  0  0  0  0  0  0  0  0  0  0
   29.5193   30.7928   -4.3619 N   0  0  0  0  0  0  0  0  0  0  0  0
   28.9384   30.7672   -1.9934 H   0  0  0  0  0  0  0  0  0  0  0  0
   29.5709   31.6630   -3.9044 H   0  0  0  0  0  0  0  0  0  0  0  0
   29.7439   30.7253   -5.3181 H   0  0  0  0  0  0  0  0  0  0  0  0
 12  7  1  0  0  0
  6  7  1  0  0  0
  6  2  1  0  0  0
  7  8  2  0  0  0
  1  2  2  0  0  0
  2  3  1  0  0  0
  8  9  1  0  0  0
  3  9  2  0  0  0
  3  4  1  0  0  0
  9 10  1  0  0  0
  4  5  2  0  0  0
 10 11  2  0  0  0
  5 11  1  0  0  0
  6 13  1  0  0  0
 12 14  1  0  0  0
 12 15  1  0  0  0
M  END
> <minimizedAffinity>
-6.01755

$$$$
