1FAO_4IP_A_274


 38 38  0  0  0  0  0  0  0  0999 V2000
   25.6425    7.0262    8.1091 C   0  0  0  0  0  0  0  0  0  0  0  0
   24.7039    7.3890    9.2476 C   0  0  0  0  0  0  0  0  0  0  0  0
   25.4388    7.9697   10.3152 O   0  0  0  0  0  0  0  0  0  0  0  0
   23.9980    6.1437    9.7402 C   0  0  0  0  0  0  0  0  0  0  0  0
   24.9856    5.1027   10.2607 C   0  0  0  0  0  0  0  0  0  0  0  0
   26.1045    4.7842    9.2708 C   0  0  0  0  0  0  0  0  0  0  0  0
   26.6890    6.0086    8.5546 C   0  0  0  0  0  0  0  0  0  0  0  0
   27.4338    5.5811    7.4216 O   0  0  0  0  0  0  0  0  0  0  0  0
   26.0954    7.3335   10.6394 H   0  0  0  0  0  0  0  0  0  0  0  0
   26.8420    5.1365    6.7947 H   0  0  0  0  0  0  0  0  0  0  0  0
   26.2950    8.2064    7.6201 O   0  0  0  0  0  0  0  0  0  0  0  0
   26.0581    8.7285    6.0974 P   0  0  0  0  0  0  0  0  0  0  0  0
   26.6301    7.6272    5.2210 O   0  0  0  0  0  0  0  0  0  0  0  0
   26.8020   10.0487    5.9952 O   0  0  0  0  0  0  0  0  0  0  0  0
   24.5611    8.8869    5.9329 O   0  0  0  0  0  0  0  0  0  0  0  0
   27.7530    9.8934    6.1069 H   0  0  0  0  0  0  0  0  0  0  0  0
   24.1341    8.0190    6.0061 H   0  0  0  0  0  0  0  0  0  0  0  0
   23.0590    6.4920   10.7672 O   0  0  0  0  0  0  0  0  0  0  0  0
   21.4877    6.1212   10.6029 P   0  0  0  0  0  0  0  0  0  0  0  0
   21.0877    6.6325    9.2302 O   0  0  0  0  0  0  0  0  0  0  0  0
   21.3760    4.6153   10.7641 O   0  0  0  0  0  0  0  0  0  0  0  0
   20.7857    6.8807   11.7245 O   0  0  0  0  0  0  0  0  0  0  0  0
   21.8353    4.1767   10.0309 H   0  0  0  0  0  0  0  0  0  0  0  0
   20.8835    7.8348   11.5795 H   0  0  0  0  0  0  0  0  0  0  0  0
   24.2907    3.8898   10.5981 O   0  0  0  0  0  0  0  0  0  0  0  0
   24.3654    3.2531   12.0934 P   0  0  0  0  0  0  0  0  0  0  0  0
   25.6302    2.4157   12.1652 O   0  0  0  0  0  0  0  0  0  0  0  0
   24.4036    4.4478   13.0234 O   0  0  0  0  0  0  0  0  0  0  0  0
   23.1030    2.4215   12.2674 O   0  0  0  0  0  0  0  0  0  0  0  0
   26.4043    2.9886   12.0493 H   0  0  0  0  0  0  0  0  0  0  0  0
   25.2231    4.9456   12.8768 H   0  0  0  0  0  0  0  0  0  0  0  0
   27.1480    4.0699    9.9497 O   0  0  0  0  0  0  0  0  0  0  0  0
   27.7018    2.6456    9.3910 P   0  0  0  0  0  0  0  0  0  0  0  0
   28.0442    1.8633   10.6464 O   0  0  0  0  0  0  0  0  0  0  0  0
   26.5537    2.0387    8.5979 O   0  0  0  0  0  0  0  0  0  0  0  0
   28.9102    2.9952    8.5372 O   0  0  0  0  0  0  0  0  0  0  0  0
   27.2317    1.6747   11.1416 H   0  0  0  0  0  0  0  0  0  0  0  0
   29.6036    3.3759    9.0986 H   0  0  0  0  0  0  0  0  0  0  0  0
  1 11  1  0  0  0
  1  2  1  0  0  0
  1  7  1  0  0  0
 11 12  1  0  0  0
  2  3  1  0  0  0
  2  4  1  0  0  0
  4 18  1  0  0  0
  4  5  1  0  0  0
 18 19  1  0  0  0
  5 25  1  0  0  0
  5  6  1  0  0  0
 25 26  1  0  0  0
  6 32  1  0  0  0
  6  7  1  0  0  0
 32 33  1  0  0  0
  7  8  1  0  0  0
 12 13  2  0  0  0
 12 14  1  0  0  0
 12 15  1  0  0  0
 19 20  2  0  0  0
 19 21  1  0  0  0
 19 22  1  0  0  0
 26 27  1  0  0  0
 26 28  1  0  0  0
 26 29  2  0  0  0
 33 34  1  0  0  0
 33 35  2  0  0  0
 33 36  1  0  0  0
  3  9  1  0  0  0
  8 10  1  0  0  0
 14 16  1  0  0  0
 15 17  1  0  0  0
 21 23  1  0  0  0
 22 24  1  0  0  0
 27 30  1  0  0  0
 28 31  1  0  0  0
 34 37  1  0  0  0
 36 38  1  0  0  0
M  END
> <minimizedAffinity>
-7.14710

$$$$
1FAO_4IP_A_274


 38 38  0  0  0  0  0  0  0  0999 V2000
   25.6897    6.9576    8.1282 C   0  0  0  0  0  0  0  0  0  0  0  0
   24.7533    7.3391    9.2624 C   0  0  0  0  0  0  0  0  0  0  0  0
   25.4956    7.8972   10.3368 O   0  0  0  0  0  0  0  0  0  0  0  0
   24.0137    6.1098    9.7455 C   0  0  0  0  0  0  0  0  0  0  0  0
   24.9720    5.0426   10.2679 C   0  0  0  0  0  0  0  0  0  0  0  0
   26.0888    4.7003    9.2836 C   0  0  0  0  0  0  0  0  0  0  0  0
   26.7079    5.9126    8.5760 C   0  0  0  0  0  0  0  0  0  0  0  0
   27.4489    5.4712    7.4459 O   0  0  0  0  0  0  0  0  0  0  0  0
   26.1342    7.2437   10.6624 H   0  0  0  0  0  0  0  0  0  0  0  0
   26.8503    5.0439    6.8135 H   0  0  0  0  0  0  0  0  0  0  0  0
   26.3743    8.1232    7.6480 O   0  0  0  0  0  0  0  0  0  0  0  0
   26.1690    8.6501    6.1224 P   0  0  0  0  0  0  0  0  0  0  0  0
   26.8072    7.5768    5.2568 O   0  0  0  0  0  0  0  0  0  0  0  0
   26.8696    9.9960    6.0547 O   0  0  0  0  0  0  0  0  0  0  0  0
   24.6735    8.7582    5.9101 O   0  0  0  0  0  0  0  0  0  0  0  0
   27.8212    9.8726    6.1963 H   0  0  0  0  0  0  0  0  0  0  0  0
   24.2748    7.8755    5.9626 H   0  0  0  0  0  0  0  0  0  0  0  0
   23.0772    6.4772   10.7681 O   0  0  0  0  0  0  0  0  0  0  0  0
   21.4951    6.1674   10.5821 P   0  0  0  0  0  0  0  0  0  0  0  0
   20.7996    6.8896   11.7224 O   0  0  0  0  0  0  0  0  0  0  0  0
   21.1122    6.6688    9.2008 O   0  0  0  0  0  0  0  0  0  0  0  0
   21.3748    4.6514   10.7055 O   0  0  0  0  0  0  0  0  0  0  0  0
   21.2040    7.6340    9.1703 H   0  0  0  0  0  0  0  0  0  0  0  0
   21.6286    4.3788   11.6012 H   0  0  0  0  0  0  0  0  0  0  0  0
   24.2451    3.8459   10.5960 O   0  0  0  0  0  0  0  0  0  0  0  0
   24.2761    3.2147   12.0952 P   0  0  0  0  0  0  0  0  0  0  0  0
   22.9918    2.4256   12.2797 O   0  0  0  0  0  0  0  0  0  0  0  0
   25.5093    2.3361   12.1221 O   0  0  0  0  0  0  0  0  0  0  0  0
   24.3810    4.3928   13.0527 O   0  0  0  0  0  0  0  0  0  0  0  0
   22.9719    1.6885   11.6495 H   0  0  0  0  0  0  0  0  0  0  0  0
   25.3967    1.6017   11.4985 H   0  0  0  0  0  0  0  0  0  0  0  0
   27.1100    3.9577    9.9660 O   0  0  0  0  0  0  0  0  0  0  0  0
   27.7003    2.5702    9.3546 P   0  0  0  0  0  0  0  0  0  0  0  0
   27.9935    1.7213   10.5788 O   0  0  0  0  0  0  0  0  0  0  0  0
   26.5937    2.0013    8.4786 O   0  0  0  0  0  0  0  0  0  0  0  0
   28.9423    2.9743    8.5764 O   0  0  0  0  0  0  0  0  0  0  0  0
   27.1615    1.5004   11.0259 H   0  0  0  0  0  0  0  0  0  0  0  0
   29.6068    3.3273    9.1885 H   0  0  0  0  0  0  0  0  0  0  0  0
  1 11  1  0  0  0
  1  2  1  0  0  0
  1  7  1  0  0  0
 11 12  1  0  0  0
  2  3  1  0  0  0
  2  4  1  0  0  0
  4 18  1  0  0  0
  4  5  1  0  0  0
 18 19  1  0  0  0
  5 25  1  0  0  0
  5  6  1  0  0  0
 25 26  1  0  0  0
  6 32  1  0  0  0
  6  7  1  0  0  0
 32 33  1  0  0  0
  7  8  1  0  0  0
 12 13  2  0  0  0
 12 14  1  0  0  0
 12 15  1  0  0  0
 19 20  2  0  0  0
 19 21  1  0  0  0
 19 22  1  0  0  0
 26 27  1  0  0  0
 26 28  1  0  0  0
 26 29  2  0  0  0
 33 34  1  0  0  0
 33 35  2  0  0  0
 33 36  1  0  0  0
  3  9  1  0  0  0
  8 10  1  0  0  0
 14 16  1  0  0  0
 15 17  1  0  0  0
 21 23  1  0  0  0
 22 24  1  0  0  0
 27 30  1  0  0  0
 28 31  1  0  0  0
 34 37  1  0  0  0
 36 38  1  0  0  0
M  END
> <minimizedAffinity>
-7.09568

$$$$
1FAO_4IP_A_274


 38 38  0  0  0  0  0  0  0  0999 V2000
   23.2128    4.3066   10.7241 C   0  0  0  0  0  0  0  0  0  0  0  0
   22.5319    3.3031   11.6395 C   0  0  0  0  0  0  0  0  0  0  0  0
   23.0154    3.4518   12.9665 O   0  0  0  0  0  0  0  0  0  0  0  0
   22.8166    1.8979   11.1537 C   0  0  0  0  0  0  0  0  0  0  0  0
   24.3121    1.5922   11.1532 C   0  0  0  0  0  0  0  0  0  0  0  0
   25.1425    2.6417   10.4170 C   0  0  0  0  0  0  0  0  0  0  0  0
   24.7236    4.0921   10.6903 C   0  0  0  0  0  0  0  0  0  0  0  0
   25.2919    4.9413    9.7020 O   0  0  0  0  0  0  0  0  0  0  0  0
   23.9722    3.2928   12.9818 H   0  0  0  0  0  0  0  0  0  0  0  0
   24.9429    4.7008    8.8295 H   0  0  0  0  0  0  0  0  0  0  0  0
   22.9251    5.6414   11.1637 O   0  0  0  0  0  0  0  0  0  0  0  0
   22.1642    6.7012   10.1915 P   0  0  0  0  0  0  0  0  0  0  0  0
   23.1993    7.0709    9.1425 O   0  0  0  0  0  0  0  0  0  0  0  0
   21.7515    7.8569   11.0865 O   0  0  0  0  0  0  0  0  0  0  0  0
   20.9786    5.9626    9.6066 O   0  0  0  0  0  0  0  0  0  0  0  0
   22.5438    8.2952   11.4345 H   0  0  0  0  0  0  0  0  0  0  0  0
   21.2944    5.2373    9.0454 H   0  0  0  0  0  0  0  0  0  0  0  0
   22.1180    0.9500   11.9731 O   0  0  0  0  0  0  0  0  0  0  0  0
   21.3012   -0.2770   11.2943 P   0  0  0  0  0  0  0  0  0  0  0  0
   21.8350   -1.5374   11.9516 O   0  0  0  0  0  0  0  0  0  0  0  0
   19.8278   -0.0154   11.5524 O   0  0  0  0  0  0  0  0  0  0  0  0
   21.6536   -0.2105    9.8113 O   0  0  0  0  0  0  0  0  0  0  0  0
   19.6521   -0.0679   12.5049 H   0  0  0  0  0  0  0  0  0  0  0  0
   22.6011   -0.3833    9.6961 H   0  0  0  0  0  0  0  0  0  0  0  0
   24.5508    0.3010   10.5667 O   0  0  0  0  0  0  0  0  0  0  0  0
   25.3650   -0.8596   11.3650 P   0  0  0  0  0  0  0  0  0  0  0  0
   24.7317   -2.1899   10.9972 O   0  0  0  0  0  0  0  0  0  0  0  0
   26.7934   -0.7389   10.8764 O   0  0  0  0  0  0  0  0  0  0  0  0
   25.2280   -0.5364   12.8456 O   0  0  0  0  0  0  0  0  0  0  0  0
   24.8447   -2.3502   10.0472 H   0  0  0  0  0  0  0  0  0  0  0  0
   26.8310   -0.9534    9.9312 H   0  0  0  0  0  0  0  0  0  0  0  0
   26.5287    2.4630   10.7433 O   0  0  0  0  0  0  0  0  0  0  0  0
   27.6956    2.6753    9.6295 P   0  0  0  0  0  0  0  0  0  0  0  0
   28.4021    3.9446   10.0708 O   0  0  0  0  0  0  0  0  0  0  0  0
   28.5755    1.4366    9.7122 O   0  0  0  0  0  0  0  0  0  0  0  0
   26.9619    2.8103    8.3047 O   0  0  0  0  0  0  0  0  0  0  0  0
   28.8472    3.7890   10.9185 H   0  0  0  0  0  0  0  0  0  0  0  0
   26.4211    3.6154    8.3152 H   0  0  0  0  0  0  0  0  0  0  0  0
  1 11  1  0  0  0
  1  2  1  0  0  0
  1  7  1  0  0  0
 11 12  1  0  0  0
  2  3  1  0  0  0
  2  4  1  0  0  0
  4 18  1  0  0  0
  4  5  1  0  0  0
 18 19  1  0  0  0
  5 25  1  0  0  0
  5  6  1  0  0  0
 25 26  1  0  0  0
  6 32  1  0  0  0
  6  7  1  0  0  0
 32 33  1  0  0  0
  7  8  1  0  0  0
 12 13  2  0  0  0
 12 14  1  0  0  0
 12 15  1  0  0  0
 19 20  2  0  0  0
 19 21  1  0  0  0
 19 22  1  0  0  0
 26 27  1  0  0  0
 26 28  1  0  0  0
 26 29  2  0  0  0
 33 34  1  0  0  0
 33 35  2  0  0  0
 33 36  1  0  0  0
  3  9  1  0  0  0
  8 10  1  0  0  0
 14 16  1  0  0  0
 15 17  1  0  0  0
 21 23  1  0  0  0
 22 24  1  0  0  0
 27 30  1  0  0  0
 28 31  1  0  0  0
 34 37  1  0  0  0
 36 38  1  0  0  0
M  END
> <minimizedAffinity>
-6.71646

$$$$
1FAO_4IP_A_274


 38 38  0  0  0  0  0  0  0  0999 V2000
   23.8457    1.8425   10.9089 C   0  0  0  0  0  0  0  0  0  0  0  0
   25.3150    2.2260   10.8539 C   0  0  0  0  0  0  0  0  0  0  0  0
   25.7539    2.6482   12.1369 O   0  0  0  0  0  0  0  0  0  0  0  0
   25.5093    3.3506    9.8594 C   0  0  0  0  0  0  0  0  0  0  0  0
   24.7147    4.5941   10.2498 C   0  0  0  0  0  0  0  0  0  0  0  0
   23.2394    4.3067   10.5222 C   0  0  0  0  0  0  0  0  0  0  0  0
   22.9776    3.0265   11.3260 C   0  0  0  0  0  0  0  0  0  0  0  0
   21.6082    2.6648   11.2039 O   0  0  0  0  0  0  0  0  0  0  0  0
   25.2376    3.4199   12.4176 H   0  0  0  0  0  0  0  0  0  0  0  0
   21.4073    2.4677   10.2756 H   0  0  0  0  0  0  0  0  0  0  0  0
   23.6586    0.7591   11.8304 O   0  0  0  0  0  0  0  0  0  0  0  0
   22.9441   -0.6266   11.3651 P   0  0  0  0  0  0  0  0  0  0  0  0
   21.5195   -0.5158   11.8815 O   0  0  0  0  0  0  0  0  0  0  0  0
   23.7500   -1.7411   12.0095 O   0  0  0  0  0  0  0  0  0  0  0  0
   23.0162   -0.6524    9.8527 O   0  0  0  0  0  0  0  0  0  0  0  0
   23.6713   -1.6806   12.9744 H   0  0  0  0  0  0  0  0  0  0  0  0
   22.4874    0.0760    9.4913 H   0  0  0  0  0  0  0  0  0  0  0  0
   26.9040    3.6682    9.7520 O   0  0  0  0  0  0  0  0  0  0  0  0
   27.7311    3.2893    8.4081 P   0  0  0  0  0  0  0  0  0  0  0  0
   27.6817    4.5297    7.5336 O   0  0  0  0  0  0  0  0  0  0  0  0
   29.1286    2.8954    8.8528 O   0  0  0  0  0  0  0  0  0  0  0  0
   26.9654    2.1225    7.7917 O   0  0  0  0  0  0  0  0  0  0  0  0
   29.5751    3.6662    9.2366 H   0  0  0  0  0  0  0  0  0  0  0  0
   26.0821    2.4209    7.5239 H   0  0  0  0  0  0  0  0  0  0  0  0
   24.8217    5.5909    9.2189 O   0  0  0  0  0  0  0  0  0  0  0  0
   25.4899    7.0460    9.5073 P   0  0  0  0  0  0  0  0  0  0  0  0
   24.9917    7.5109   10.8644 O   0  0  0  0  0  0  0  0  0  0  0  0
   26.9839    6.7988    9.4880 O   0  0  0  0  0  0  0  0  0  0  0  0
   25.0369    7.9562    8.3750 O   0  0  0  0  0  0  0  0  0  0  0  0
   25.3053    6.9009   11.5503 H   0  0  0  0  0  0  0  0  0  0  0  0
   27.2246    6.2158   10.2249 H   0  0  0  0  0  0  0  0  0  0  0  0
   22.6534    5.4331   11.1914 O   0  0  0  0  0  0  0  0  0  0  0  0
   21.4568    6.2971   10.5064 P   0  0  0  0  0  0  0  0  0  0  0  0
   22.1804    7.3978    9.7513 O   0  0  0  0  0  0  0  0  0  0  0  0
   20.7171    5.3281    9.5958 O   0  0  0  0  0  0  0  0  0  0  0  0
   20.6144    6.8011   11.6674 O   0  0  0  0  0  0  0  0  0  0  0  0
   22.6961    7.0084    9.0278 H   0  0  0  0  0  0  0  0  0  0  0  0
   21.1404    7.4115   12.2075 H   0  0  0  0  0  0  0  0  0  0  0  0
  1 11  1  0  0  0
  1  2  1  0  0  0
  1  7  1  0  0  0
 11 12  1  0  0  0
  2  3  1  0  0  0
  2  4  1  0  0  0
  4 18  1  0  0  0
  4  5  1  0  0  0
 18 19  1  0  0  0
  5 25  1  0  0  0
  5  6  1  0  0  0
 25 26  1  0  0  0
  6 32  1  0  0  0
  6  7  1  0  0  0
 32 33  1  0  0  0
  7  8  1  0  0  0
 12 13  2  0  0  0
 12 14  1  0  0  0
 12 15  1  0  0  0
 19 20  2  0  0  0
 19 21  1  0  0  0
 19 22  1  0  0  0
 26 27  1  0  0  0
 26 28  1  0  0  0
 26 29  2  0  0  0
 33 34  1  0  0  0
 33 35  2  0  0  0
 33 36  1  0  0  0
  3  9  1  0  0  0
  8 10  1  0  0  0
 14 16  1  0  0  0
 15 17  1  0  0  0
 21 23  1  0  0  0
 22 24  1  0  0  0
 27 30  1  0  0  0
 28 31  1  0  0  0
 34 37  1  0  0  0
 36 38  1  0  0  0
M  END
> <minimizedAffinity>
-6.49138

$$$$
1FAO_4IP_A_274


 38 38  0  0  0  0  0  0  0  0999 V2000
   23.5835    4.5967   10.4744 C   0  0  0  0  0  0  0  0  0  0  0  0
   24.4699    3.8809    9.4691 C   0  0  0  0  0  0  0  0  0  0  0  0
   23.6810    3.0398    8.6401 O   0  0  0  0  0  0  0  0  0  0  0  0
   25.4975    3.0456   10.2024 C   0  0  0  0  0  0  0  0  0  0  0  0
   24.8404    1.9874   11.0847 C   0  0  0  0  0  0  0  0  0  0  0  0
   23.7782    2.5582   12.0223 C   0  0  0  0  0  0  0  0  0  0  0  0
   22.8588    3.6056   11.3810 C   0  0  0  0  0  0  0  0  0  0  0  0
   22.1763    4.3221   12.4016 O   0  0  0  0  0  0  0  0  0  0  0  0
   23.2286    2.3789    9.1873 H   0  0  0  0  0  0  0  0  0  0  0  0
   22.8204    4.8002   12.9470 H   0  0  0  0  0  0  0  0  0  0  0  0
   22.6240    5.4110    9.7858 O   0  0  0  0  0  0  0  0  0  0  0  0
   22.4987    7.0040   10.0924 P   0  0  0  0  0  0  0  0  0  0  0  0
   21.2770    7.1275   10.9871 O   0  0  0  0  0  0  0  0  0  0  0  0
   22.3424    7.6722    8.7374 O   0  0  0  0  0  0  0  0  0  0  0  0
   23.7797    7.4012   10.7957 O   0  0  0  0  0  0  0  0  0  0  0  0
   21.5100    7.3860    8.3300 H   0  0  0  0  0  0  0  0  0  0  0  0
   23.8315    6.9495   11.6525 H   0  0  0  0  0  0  0  0  0  0  0  0
   26.3809    2.4239    9.2585 O   0  0  0  0  0  0  0  0  0  0  0  0
   27.9878    2.6046    9.3958 P   0  0  0  0  0  0  0  0  0  0  0  0
   28.5178    2.6496    7.9736 O   0  0  0  0  0  0  0  0  0  0  0  0
   28.2169    3.8804   10.1871 O   0  0  0  0  0  0  0  0  0  0  0  0
   28.4601    1.3620   10.1446 O   0  0  0  0  0  0  0  0  0  0  0  0
   27.9024    4.6405    9.6732 H   0  0  0  0  0  0  0  0  0  0  0  0
   28.2939    0.5751    9.6022 H   0  0  0  0  0  0  0  0  0  0  0  0
   25.8396    1.3028   11.8599 O   0  0  0  0  0  0  0  0  0  0  0  0
   25.9603   -0.3197   11.8512 P   0  0  0  0  0  0  0  0  0  0  0  0
   27.4254   -0.6646   12.0527 O   0  0  0  0  0  0  0  0  0  0  0  0
   25.0893   -0.7808   13.0010 O   0  0  0  0  0  0  0  0  0  0  0  0
   25.4317   -0.7803   10.5007 O   0  0  0  0  0  0  0  0  0  0  0  0
   27.7143   -0.3518   12.9243 H   0  0  0  0  0  0  0  0  0  0  0  0
   25.4644   -0.4647   13.8378 H   0  0  0  0  0  0  0  0  0  0  0  0
   22.9945    1.4828   12.5603 O   0  0  0  0  0  0  0  0  0  0  0  0
   21.9437    0.6546   11.6344 P   0  0  0  0  0  0  0  0  0  0  0  0
   22.2783    1.0864   10.2178 O   0  0  0  0  0  0  0  0  0  0  0  0
   22.2304   -0.8161   11.8992 O   0  0  0  0  0  0  0  0  0  0  0  0
   20.5663    1.0973   12.1017 O   0  0  0  0  0  0  0  0  0  0  0  0
   23.1662    0.7726    9.9853 H   0  0  0  0  0  0  0  0  0  0  0  0
   20.4457    2.0396   11.9054 H   0  0  0  0  0  0  0  0  0  0  0  0
  1 11  1  0  0  0
  1  2  1  0  0  0
  1  7  1  0  0  0
 11 12  1  0  0  0
  2  3  1  0  0  0
  2  4  1  0  0  0
  4 18  1  0  0  0
  4  5  1  0  0  0
 18 19  1  0  0  0
  5 25  1  0  0  0
  5  6  1  0  0  0
 25 26  1  0  0  0
  6 32  1  0  0  0
  6  7  1  0  0  0
 32 33  1  0  0  0
  7  8  1  0  0  0
 12 13  2  0  0  0
 12 14  1  0  0  0
 12 15  1  0  0  0
 19 20  2  0  0  0
 19 21  1  0  0  0
 19 22  1  0  0  0
 26 27  1  0  0  0
 26 28  1  0  0  0
 26 29  2  0  0  0
 33 34  1  0  0  0
 33 35  2  0  0  0
 33 36  1  0  0  0
  3  9  1  0  0  0
  8 10  1  0  0  0
 14 16  1  0  0  0
 15 17  1  0  0  0
 21 23  1  0  0  0
 22 24  1  0  0  0
 27 30  1  0  0  0
 28 31  1  0  0  0
 34 37  1  0  0  0
 36 38  1  0  0  0
M  END
> <minimizedAffinity>
-6.43769

$$$$
1FAO_4IP_A_274


 38 38  0  0  0  0  0  0  0  0999 V2000
   23.3790    4.4529   10.5727 C   0  0  0  0  0  0  0  0  0  0  0  0
   23.9557    3.4873   11.5944 C   0  0  0  0  0  0  0  0  0  0  0  0
   24.8513    4.1729   12.4575 O   0  0  0  0  0  0  0  0  0  0  0  0
   24.6949    2.3752   10.8813 C   0  0  0  0  0  0  0  0  0  0  0  0
   25.8498    2.9127   10.0404 C   0  0  0  0  0  0  0  0  0  0  0  0
   25.4346    4.0363    9.0927 C   0  0  0  0  0  0  0  0  0  0  0  0
   24.4758    5.0651    9.7058 C   0  0  0  0  0  0  0  0  0  0  0  0
   23.8760    5.8283    8.6672 O   0  0  0  0  0  0  0  0  0  0  0  0
   25.5772    4.5503   11.9365 H   0  0  0  0  0  0  0  0  0  0  0  0
   23.3475    5.2445    8.1008 H   0  0  0  0  0  0  0  0  0  0  0  0
   22.6546    5.4951   11.2412 O   0  0  0  0  0  0  0  0  0  0  0  0
   21.3944    6.2352   10.5261 P   0  0  0  0  0  0  0  0  0  0  0  0
   20.4182    6.5093   11.6576 O   0  0  0  0  0  0  0  0  0  0  0  0
   20.8772    5.2547    9.4878 O   0  0  0  0  0  0  0  0  0  0  0  0
   21.9438    7.5042    9.9091 O   0  0  0  0  0  0  0  0  0  0  0  0
   20.5377    4.4622    9.9323 H   0  0  0  0  0  0  0  0  0  0  0  0
   22.2599    8.0945   10.6109 H   0  0  0  0  0  0  0  0  0  0  0  0
   25.1806    1.4235   11.8384 O   0  0  0  0  0  0  0  0  0  0  0  0
   24.7276   -0.1324   11.7514 P   0  0  0  0  0  0  0  0  0  0  0  0
   23.2092   -0.1175   11.7525 O   0  0  0  0  0  0  0  0  0  0  0  0
   25.3446   -0.6958   10.4834 O   0  0  0  0  0  0  0  0  0  0  0  0
   25.2954   -0.7777   13.0120 O   0  0  0  0  0  0  0  0  0  0  0  0
   24.9542   -0.2572    9.7113 H   0  0  0  0  0  0  0  0  0  0  0  0
   24.8731   -0.3875   13.7932 H   0  0  0  0  0  0  0  0  0  0  0  0
   26.4440    1.8461    9.2806 O   0  0  0  0  0  0  0  0  0  0  0  0
   28.0353    1.5194    9.3717 P   0  0  0  0  0  0  0  0  0  0  0  0
   28.4384    0.8679    8.0605 O   0  0  0  0  0  0  0  0  0  0  0  0
   28.6973    2.8651    9.5818 O   0  0  0  0  0  0  0  0  0  0  0  0
   28.2134    0.5916   10.5646 O   0  0  0  0  0  0  0  0  0  0  0  0
   28.3073    1.4964    7.3334 H   0  0  0  0  0  0  0  0  0  0  0  0
   28.5576    3.4200    8.7986 H   0  0  0  0  0  0  0  0  0  0  0  0
   26.6091    4.6962    8.5975 O   0  0  0  0  0  0  0  0  0  0  0  0
   26.8964    4.8300    7.0016 P   0  0  0  0  0  0  0  0  0  0  0  0
   27.9220    3.7469    6.7180 O   0  0  0  0  0  0  0  0  0  0  0  0
   25.5585    4.5857    6.3193 O   0  0  0  0  0  0  0  0  0  0  0  0
   27.4262    6.2421    6.8092 O   0  0  0  0  0  0  0  0  0  0  0  0
   27.5197    2.8757    6.8594 H   0  0  0  0  0  0  0  0  0  0  0  0
   28.2772    6.3332    7.2657 H   0  0  0  0  0  0  0  0  0  0  0  0
  1 11  1  0  0  0
  1  2  1  0  0  0
  1  7  1  0  0  0
 11 12  1  0  0  0
  2  3  1  0  0  0
  2  4  1  0  0  0
  4 18  1  0  0  0
  4  5  1  0  0  0
 18 19  1  0  0  0
  5 25  1  0  0  0
  5  6  1  0  0  0
 25 26  1  0  0  0
  6 32  1  0  0  0
  6  7  1  0  0  0
 32 33  1  0  0  0
  7  8  1  0  0  0
 12 13  2  0  0  0
 12 14  1  0  0  0
 12 15  1  0  0  0
 19 20  2  0  0  0
 19 21  1  0  0  0
 19 22  1  0  0  0
 26 27  1  0  0  0
 26 28  1  0  0  0
 26 29  2  0  0  0
 33 34  1  0  0  0
 33 35  2  0  0  0
 33 36  1  0  0  0
  3  9  1  0  0  0
  8 10  1  0  0  0
 14 16  1  0  0  0
 15 17  1  0  0  0
 21 23  1  0  0  0
 22 24  1  0  0  0
 27 30  1  0  0  0
 28 31  1  0  0  0
 34 37  1  0  0  0
 36 38  1  0  0  0
M  END
> <minimizedAffinity>
-6.20996

$$$$
1FAO_4IP_A_274


 38 38  0  0  0  0  0  0  0  0999 V2000
   25.5190    2.9569   10.5303 C   0  0  0  0  0  0  0  0  0  0  0  0
   26.6094    3.5335    9.6430 C   0  0  0  0  0  0  0  0  0  0  0  0
   27.4250    4.4220   10.3929 O   0  0  0  0  0  0  0  0  0  0  0  0
   25.9806    4.2810    8.4865 C   0  0  0  0  0  0  0  0  0  0  0  0
   25.1082    5.4372    8.9682 C   0  0  0  0  0  0  0  0  0  0  0  0
   24.0809    5.0210   10.0193 C   0  0  0  0  0  0  0  0  0  0  0  0
   24.6151    4.0547   11.0845 C   0  0  0  0  0  0  0  0  0  0  0  0
   23.5222    3.4560   11.7686 O   0  0  0  0  0  0  0  0  0  0  0  0
   26.8813    5.1485   10.7357 H   0  0  0  0  0  0  0  0  0  0  0  0
   22.9968    2.9327   11.1432 H   0  0  0  0  0  0  0  0  0  0  0  0
   26.1084    2.2247   11.6140 O   0  0  0  0  0  0  0  0  0  0  0  0
   25.8712    0.6230   11.7738 P   0  0  0  0  0  0  0  0  0  0  0  0
   26.9254    0.1770   12.7730 O   0  0  0  0  0  0  0  0  0  0  0  0
   26.0522    0.0400   10.3831 O   0  0  0  0  0  0  0  0  0  0  0  0
   24.4610    0.4547   12.2991 O   0  0  0  0  0  0  0  0  0  0  0  0
   26.9684    0.1729   10.0935 H   0  0  0  0  0  0  0  0  0  0  0  0
   24.3980    0.8418   13.1863 H   0  0  0  0  0  0  0  0  0  0  0  0
   27.0052    4.7668    7.6079 O   0  0  0  0  0  0  0  0  0  0  0  0
   27.0695    4.2660    6.0656 P   0  0  0  0  0  0  0  0  0  0  0  0
   28.1832    5.0711    5.4198 O   0  0  0  0  0  0  0  0  0  0  0  0
   27.3235    2.7693    6.1036 O   0  0  0  0  0  0  0  0  0  0  0  0
   25.7017    4.6101    5.4837 O   0  0  0  0  0  0  0  0  0  0  0  0
   28.2014    2.5998    6.4796 H   0  0  0  0  0  0  0  0  0  0  0  0
   25.5850    5.5731    5.4797 H   0  0  0  0  0  0  0  0  0  0  0  0
   24.4289    6.0397    7.8531 O   0  0  0  0  0  0  0  0  0  0  0  0
   24.6586    7.6013    7.4587 P   0  0  0  0  0  0  0  0  0  0  0  0
   25.0670    8.3319    8.7258 O   0  0  0  0  0  0  0  0  0  0  0  0
   25.7576    7.5819    6.4169 O   0  0  0  0  0  0  0  0  0  0  0  0
   23.3348    8.0995    6.8975 O   0  0  0  0  0  0  0  0  0  0  0  0
   25.9134    7.9801    9.0433 H   0  0  0  0  0  0  0  0  0  0  0  0
   26.5789    7.2587    6.8192 H   0  0  0  0  0  0  0  0  0  0  0  0
   23.5447    6.1946   10.6479 O   0  0  0  0  0  0  0  0  0  0  0  0
   21.9630    6.5624   10.5465 P   0  0  0  0  0  0  0  0  0  0  0  0
   21.2678    5.4003   11.2330 O   0  0  0  0  0  0  0  0  0  0  0  0
   21.7983    7.8832   11.2838 O   0  0  0  0  0  0  0  0  0  0  0  0
   21.6712    6.6590    9.0575 O   0  0  0  0  0  0  0  0  0  0  0  0
   21.4963    5.3981   12.1757 H   0  0  0  0  0  0  0  0  0  0  0  0
   21.7935    5.7887    8.6469 H   0  0  0  0  0  0  0  0  0  0  0  0
  1 11  1  0  0  0
  1  2  1  0  0  0
  1  7  1  0  0  0
 11 12  1  0  0  0
  2  3  1  0  0  0
  2  4  1  0  0  0
  4 18  1  0  0  0
  4  5  1  0  0  0
 18 19  1  0  0  0
  5 25  1  0  0  0
  5  6  1  0  0  0
 25 26  1  0  0  0
  6 32  1  0  0  0
  6  7  1  0  0  0
 32 33  1  0  0  0
  7  8  1  0  0  0
 12 13  2  0  0  0
 12 14  1  0  0  0
 12 15  1  0  0  0
 19 20  2  0  0  0
 19 21  1  0  0  0
 19 22  1  0  0  0
 26 27  1  0  0  0
 26 28  1  0  0  0
 26 29  2  0  0  0
 33 34  1  0  0  0
 33 35  2  0  0  0
 33 36  1  0  0  0
  3  9  1  0  0  0
  8 10  1  0  0  0
 14 16  1  0  0  0
 15 17  1  0  0  0
 21 23  1  0  0  0
 22 24  1  0  0  0
 27 30  1  0  0  0
 28 31  1  0  0  0
 34 37  1  0  0  0
 36 38  1  0  0  0
M  END
> <minimizedAffinity>
-6.19358

$$$$
1FAO_4IP_A_274


 38 38  0  0  0  0  0  0  0  0999 V2000
   27.6273    2.4214    8.4319 C   0  0  0  0  0  0  0  0  0  0  0  0
   27.5080    3.7541    9.1518 C   0  0  0  0  0  0  0  0  0  0  0  0
   28.3191    3.7495   10.3176 O   0  0  0  0  0  0  0  0  0  0  0  0
   26.0651    3.9928    9.5425 C   0  0  0  0  0  0  0  0  0  0  0  0
   25.5461    2.9058   10.4800 C   0  0  0  0  0  0  0  0  0  0  0  0
   25.7796    1.4915    9.9522 C   0  0  0  0  0  0  0  0  0  0  0  0
   27.1573    1.2687    9.3151 C   0  0  0  0  0  0  0  0  0  0  0  0
   27.1335    0.0734    8.5460 O   0  0  0  0  0  0  0  0  0  0  0  0
   28.0250    3.0427   10.9133 H   0  0  0  0  0  0  0  0  0  0  0  0
   26.4940    0.1670    7.8227 H   0  0  0  0  0  0  0  0  0  0  0  0
   28.9882    2.2012    8.0355 O   0  0  0  0  0  0  0  0  0  0  0  0
   29.3716    1.8807    6.4871 P   0  0  0  0  0  0  0  0  0  0  0  0
   28.6827    0.5602    6.1869 O   0  0  0  0  0  0  0  0  0  0  0  0
   30.8882    1.8098    6.4455 O   0  0  0  0  0  0  0  0  0  0  0  0
   28.8174    3.0275    5.6681 O   0  0  0  0  0  0  0  0  0  0  0  0
   31.1918    1.0618    6.9833 H   0  0  0  0  0  0  0  0  0  0  0  0
   27.8492    3.0288    5.7273 H   0  0  0  0  0  0  0  0  0  0  0  0
   25.9360    5.2814   10.1595 O   0  0  0  0  0  0  0  0  0  0  0  0
   24.7904    6.3182    9.6630 P   0  0  0  0  0  0  0  0  0  0  0  0
   24.0486    6.7408   10.9187 O   0  0  0  0  0  0  0  0  0  0  0  0
   25.5075    7.4519    8.9513 O   0  0  0  0  0  0  0  0  0  0  0  0
   23.9069    5.5056    8.7213 O   0  0  0  0  0  0  0  0  0  0  0  0
   26.0548    7.9383    9.5875 H   0  0  0  0  0  0  0  0  0  0  0  0
   23.4712    4.7959    9.2187 H   0  0  0  0  0  0  0  0  0  0  0  0
   24.1417    3.0954   10.7246 O   0  0  0  0  0  0  0  0  0  0  0  0
   23.5804    3.4964   12.1980 P   0  0  0  0  0  0  0  0  0  0  0  0
   24.6745    4.2813   12.9000 O   0  0  0  0  0  0  0  0  0  0  0  0
   22.3449    4.3302   11.9300 O   0  0  0  0  0  0  0  0  0  0  0  0
   23.2561    2.1872   12.9027 O   0  0  0  0  0  0  0  0  0  0  0  0
   24.8444    5.1040   12.4149 H   0  0  0  0  0  0  0  0  0  0  0  0
   22.6002    5.1515   11.4814 H   0  0  0  0  0  0  0  0  0  0  0  0
   25.5738    0.5494   11.0152 O   0  0  0  0  0  0  0  0  0  0  0  0
   24.4213   -0.5953   10.9216 P   0  0  0  0  0  0  0  0  0  0  0  0
   24.8686   -1.4777    9.7699 O   0  0  0  0  0  0  0  0  0  0  0  0
   24.4362   -1.3070   12.2665 O   0  0  0  0  0  0  0  0  0  0  0  0
   23.1303    0.1605   10.6501 O   0  0  0  0  0  0  0  0  0  0  0  0
   25.6937   -1.9280   10.0092 H   0  0  0  0  0  0  0  0  0  0  0  0
   23.1836    0.5900    9.7820 H   0  0  0  0  0  0  0  0  0  0  0  0
  1 11  1  0  0  0
  1  2  1  0  0  0
  1  7  1  0  0  0
 11 12  1  0  0  0
  2  3  1  0  0  0
  2  4  1  0  0  0
  4 18  1  0  0  0
  4  5  1  0  0  0
 18 19  1  0  0  0
  5 25  1  0  0  0
  5  6  1  0  0  0
 25 26  1  0  0  0
  6 32  1  0  0  0
  6  7  1  0  0  0
 32 33  1  0  0  0
  7  8  1  0  0  0
 12 13  2  0  0  0
 12 14  1  0  0  0
 12 15  1  0  0  0
 19 20  2  0  0  0
 19 21  1  0  0  0
 19 22  1  0  0  0
 26 27  1  0  0  0
 26 28  1  0  0  0
 26 29  2  0  0  0
 33 34  1  0  0  0
 33 35  2  0  0  0
 33 36  1  0  0  0
  3  9  1  0  0  0
  8 10  1  0  0  0
 14 16  1  0  0  0
 15 17  1  0  0  0
 21 23  1  0  0  0
 22 24  1  0  0  0
 27 30  1  0  0  0
 28 31  1  0  0  0
 34 37  1  0  0  0
 36 38  1  0  0  0
M  END
> <minimizedAffinity>
-6.19073

$$$$
1FAO_4IP_A_274


 38 38  0  0  0  0  0  0  0  0999 V2000
   23.4525    4.8628   11.0771 C   0  0  0  0  0  0  0  0  0  0  0  0
   23.9164    4.8278    9.6307 C   0  0  0  0  0  0  0  0  0  0  0  0
   23.2400    3.7944    8.9296 O   0  0  0  0  0  0  0  0  0  0  0  0
   25.4085    4.5770    9.5819 C   0  0  0  0  0  0  0  0  0  0  0  0
   25.7787    3.2431   10.2251 C   0  0  0  0  0  0  0  0  0  0  0  0
   25.2054    3.0709   11.6304 C   0  0  0  0  0  0  0  0  0  0  0  0
   23.7560    3.5478   11.7899 C   0  0  0  0  0  0  0  0  0  0  0  0
   23.4551    3.6880   13.1723 O   0  0  0  0  0  0  0  0  0  0  0  0
   23.4372    2.9399    9.3440 H   0  0  0  0  0  0  0  0  0  0  0  0
   24.0264    4.3693   13.5600 H   0  0  0  0  0  0  0  0  0  0  0  0
   22.0434    5.1265   11.1311 O   0  0  0  0  0  0  0  0  0  0  0  0
   21.4567    6.6202   10.8635 P   0  0  0  0  0  0  0  0  0  0  0  0
   22.6780    7.5234   10.8955 O   0  0  0  0  0  0  0  0  0  0  0  0
   20.4665    6.8800   11.9855 O   0  0  0  0  0  0  0  0  0  0  0  0
   20.7978    6.5778    9.5006 O   0  0  0  0  0  0  0  0  0  0  0  0
   20.9365    6.8976   12.8338 H   0  0  0  0  0  0  0  0  0  0  0  0
   21.4699    6.4100    8.8217 H   0  0  0  0  0  0  0  0  0  0  0  0
   25.8628    4.6135    8.2217 O   0  0  0  0  0  0  0  0  0  0  0  0
   26.5261    5.9640    7.6138 P   0  0  0  0  0  0  0  0  0  0  0  0
   27.5910    5.4941    6.6387 O   0  0  0  0  0  0  0  0  0  0  0  0
   25.3982    6.7531    6.9724 O   0  0  0  0  0  0  0  0  0  0  0  0
   27.1281    6.6821    8.8178 O   0  0  0  0  0  0  0  0  0  0  0  0
   25.0483    6.2591    6.2145 H   0  0  0  0  0  0  0  0  0  0  0  0
   27.8415    6.1424    9.1928 H   0  0  0  0  0  0  0  0  0  0  0  0
   27.2088    3.1004   10.2751 O   0  0  0  0  0  0  0  0  0  0  0  0
   27.9837    1.9750    9.3919 P   0  0  0  0  0  0  0  0  0  0  0  0
   27.0246    1.5105    8.3100 O   0  0  0  0  0  0  0  0  0  0  0  0
   29.1956    2.6882    8.8297 O   0  0  0  0  0  0  0  0  0  0  0  0
   28.3611    0.8601   10.3564 O   0  0  0  0  0  0  0  0  0  0  0  0
   26.8150    2.2537    7.7229 H   0  0  0  0  0  0  0  0  0  0  0  0
   28.9066    3.3874    8.2227 H   0  0  0  0  0  0  0  0  0  0  0  0
   25.3133    1.6938   12.0203 O   0  0  0  0  0  0  0  0  0  0  0  0
   24.3792    0.5461   11.3439 P   0  0  0  0  0  0  0  0  0  0  0  0
   25.1597   -0.7389   11.5557 O   0  0  0  0  0  0  0  0  0  0  0  0
   23.0626    0.5834   12.1058 O   0  0  0  0  0  0  0  0  0  0  0  0
   24.2463    0.9498    9.8841 O   0  0  0  0  0  0  0  0  0  0  0  0
   25.2059   -0.9365   12.5042 H   0  0  0  0  0  0  0  0  0  0  0  0
   25.1156    0.9056    9.4560 H   0  0  0  0  0  0  0  0  0  0  0  0
  1 11  1  0  0  0
  1  2  1  0  0  0
  1  7  1  0  0  0
 11 12  1  0  0  0
  2  3  1  0  0  0
  2  4  1  0  0  0
  4 18  1  0  0  0
  4  5  1  0  0  0
 18 19  1  0  0  0
  5 25  1  0  0  0
  5  6  1  0  0  0
 25 26  1  0  0  0
  6 32  1  0  0  0
  6  7  1  0  0  0
 32 33  1  0  0  0
  7  8  1  0  0  0
 12 13  2  0  0  0
 12 14  1  0  0  0
 12 15  1  0  0  0
 19 20  2  0  0  0
 19 21  1  0  0  0
 19 22  1  0  0  0
 26 27  1  0  0  0
 26 28  1  0  0  0
 26 29  2  0  0  0
 33 34  1  0  0  0
 33 35  2  0  0  0
 33 36  1  0  0  0
  3  9  1  0  0  0
  8 10  1  0  0  0
 14 16  1  0  0  0
 15 17  1  0  0  0
 21 23  1  0  0  0
 22 24  1  0  0  0
 27 30  1  0  0  0
 28 31  1  0  0  0
 34 37  1  0  0  0
 36 38  1  0  0  0
M  END
> <minimizedAffinity>
-5.75875

$$$$
1FAO_4IP_A_274


 38 38  0  0  0  0  0  0  0  0999 V2000
   25.9975    6.7704    7.5100 C   0  0  0  0  0  0  0  0  0  0  0  0
   26.1146    5.2654    7.3367 C   0  0  0  0  0  0  0  0  0  0  0  0
   24.8998    4.7410    6.8208 O   0  0  0  0  0  0  0  0  0  0  0  0
   26.4138    4.6220    8.6740 C   0  0  0  0  0  0  0  0  0  0  0  0
   25.3080    4.8919    9.6910 C   0  0  0  0  0  0  0  0  0  0  0  0
   24.9579    6.3729    9.8232 C   0  0  0  0  0  0  0  0  0  0  0  0
   24.8863    7.1318    8.4919 C   0  0  0  0  0  0  0  0  0  0  0  0
   24.9250    8.5304    8.7437 O   0  0  0  0  0  0  0  0  0  0  0  0
   24.1771    4.9312    7.4392 H   0  0  0  0  0  0  0  0  0  0  0  0
   25.7700    8.7606    9.1608 H   0  0  0  0  0  0  0  0  0  0  0  0
   25.7401    7.3888    6.2415 O   0  0  0  0  0  0  0  0  0  0  0  0
   26.7837    8.4604    5.6014 P   0  0  0  0  0  0  0  0  0  0  0  0
   28.0738    7.6784    5.4207 O   0  0  0  0  0  0  0  0  0  0  0  0
   26.8827    9.5910    6.6107 O   0  0  0  0  0  0  0  0  0  0  0  0
   26.1806    8.9034    4.2848 O   0  0  0  0  0  0  0  0  0  0  0  0
   27.2736    9.2569    7.4332 H   0  0  0  0  0  0  0  0  0  0  0  0
   26.1397    8.1481    3.6776 H   0  0  0  0  0  0  0  0  0  0  0  0
   26.5951    3.2093    8.5033 O   0  0  0  0  0  0  0  0  0  0  0  0
   27.9054    2.4704    9.1123 P   0  0  0  0  0  0  0  0  0  0  0  0
   28.8241    2.2246    7.9285 O   0  0  0  0  0  0  0  0  0  0  0  0
   28.4808    3.4012   10.1652 O   0  0  0  0  0  0  0  0  0  0  0  0
   27.3798    1.1688    9.7100 O   0  0  0  0  0  0  0  0  0  0  0  0
   28.8010    4.2120    9.7398 H   0  0  0  0  0  0  0  0  0  0  0  0
   27.0237    0.6088    9.0026 H   0  0  0  0  0  0  0  0  0  0  0  0
   25.6870    4.3769   10.9791 O   0  0  0  0  0  0  0  0  0  0  0  0
   24.7934    3.2524   11.7433 P   0  0  0  0  0  0  0  0  0  0  0  0
   23.7499    2.7580   10.7570 O   0  0  0  0  0  0  0  0  0  0  0  0
   25.7802    2.1735   12.1379 O   0  0  0  0  0  0  0  0  0  0  0  0
   24.1760    3.9446   12.9496 O   0  0  0  0  0  0  0  0  0  0  0  0
   24.1911    2.3260   10.0089 H   0  0  0  0  0  0  0  0  0  0  0  0
   26.1461    1.7623   11.3392 H   0  0  0  0  0  0  0  0  0  0  0  0
   23.7151    6.5043   10.5290 O   0  0  0  0  0  0  0  0  0  0  0  0
   22.3000    6.0995    9.8355 P   0  0  0  0  0  0  0  0  0  0  0  0
   22.6249    4.8534    9.0311 O   0  0  0  0  0  0  0  0  0  0  0  0
   21.3364    5.8402   10.9843 O   0  0  0  0  0  0  0  0  0  0  0  0
   21.9172    7.2982    8.9821 O   0  0  0  0  0  0  0  0  0  0  0  0
   22.8594    4.1311    9.6345 H   0  0  0  0  0  0  0  0  0  0  0  0
   22.5674    7.4096    8.2709 H   0  0  0  0  0  0  0  0  0  0  0  0
  1 11  1  0  0  0
  1  2  1  0  0  0
  1  7  1  0  0  0
 11 12  1  0  0  0
  2  3  1  0  0  0
  2  4  1  0  0  0
  4 18  1  0  0  0
  4  5  1  0  0  0
 18 19  1  0  0  0
  5 25  1  0  0  0
  5  6  1  0  0  0
 25 26  1  0  0  0
  6 32  1  0  0  0
  6  7  1  0  0  0
 32 33  1  0  0  0
  7  8  1  0  0  0
 12 13  2  0  0  0
 12 14  1  0  0  0
 12 15  1  0  0  0
 19 20  2  0  0  0
 19 21  1  0  0  0
 19 22  1  0  0  0
 26 27  1  0  0  0
 26 28  1  0  0  0
 26 29  2  0  0  0
 33 34  1  0  0  0
 33 35  2  0  0  0
 33 36  1  0  0  0
  3  9  1  0  0  0
  8 10  1  0  0  0
 14 16  1  0  0  0
 15 17  1  0  0  0
 21 23  1  0  0  0
 22 24  1  0  0  0
 27 30  1  0  0  0
 28 31  1  0  0  0
 34 37  1  0  0  0
 36 38  1  0  0  0
M  END
> <minimizedAffinity>
-5.73688

$$$$
