2QBP_527_A_800


 40 43  0  0  0  0  0  0  0  0999 V2000
   46.0318   11.9962    1.1326 C   0  0  0  0  0  0  0  0  0  0  0  0
   47.3705   11.4374    1.2369 C   0  0  0  0  0  0  0  0  0  0  0  0
   47.5738   10.0654    0.8833 C   0  0  0  0  0  0  0  0  0  0  0  0
   46.4552    9.2531    0.4093 C   0  0  0  0  0  0  0  0  0  0  0  0
   45.1165    9.8035    0.2871 C   0  0  0  0  0  0  0  0  0  0  0  0
   44.9295   11.1838    0.6314 C   0  0  0  0  0  0  0  0  0  0  0  0
   44.5166   14.3489    0.6228 S   0  0  0  0  0  0  0  0  0  0  0  0
   44.6900   15.7532    1.7171 C   0  0  0  0  0  0  0  0  0  0  0  0
   45.5732   15.4870    2.6641 C   0  0  0  0  0  0  0  0  0  0  0  0
   46.1265   14.1260    2.5893 C   0  0  0  0  0  0  0  0  0  0  0  0
   45.7261   13.3802    1.5478 C   0  0  0  0  0  0  0  0  0  0  0  0
   47.1975   13.5521    4.0003 Br  0  0  0  0  0  0  0  0  0  0  0  0
   44.0099   16.9919    1.4060 C   0  0  0  0  0  0  0  0  0  0  0  0
   43.3543   16.9118    0.3452 O   0  0  0  0  0  0  0  0  0  0  0  0
   44.0764   18.0257    2.1071 O   0  0  0  0  0  0  0  0  0  0  0  0
   44.5849   18.0262    2.8942 H   0  0  0  0  0  0  0  0  0  0  0  0
   45.8345   16.3687    3.6183 O   0  0  0  0  0  0  0  0  0  0  0  0
   47.0153   17.1262    3.4524 C   0  0  0  0  0  0  0  0  0  0  0  0
   47.3462   17.6531    4.7768 C   0  0  0  0  0  0  0  0  0  0  0  0
   46.4106   17.6739    5.5975 O   0  0  0  0  0  0  0  0  0  0  0  0
   48.5104   18.0442    5.0214 O   0  0  0  0  0  0  0  0  0  0  0  0
   49.1688   18.0006    4.3562 H   0  0  0  0  0  0  0  0  0  0  0  0
   48.8593    9.6463    1.0283 N   0  0  0  0  0  0  0  0  0  0  0  0
   49.5873   10.2599    0.7778 H   0  0  0  0  0  0  0  0  0  0  0  0
   49.1965    8.3492    1.5305 C   0  0  0  0  0  0  0  0  0  0  0  0
   50.6555    8.0692    1.1681 C   0  0  0  0  0  0  0  0  0  0  0  0
   51.1941    6.8009    1.7885 C   0  0  0  0  0  0  0  0  0  0  0  0
   50.8682    6.8425    3.2148 N   0  0  0  0  0  0  0  0  0  0  0  0
   49.4904    7.0340    3.6743 C   0  0  0  0  0  0  0  0  0  0  0  0
   48.9545    8.2896    3.0370 C   0  0  0  0  0  0  0  0  0  0  0  0
   51.9070    6.0659    4.3263 S   0  0  0  0  0  0  0  0  0  0  0  0
   52.6356    7.1261    4.9844 O   0  0  0  0  0  0  0  0  0  0  0  0
   52.6264    5.0597    3.5677 O   0  0  0  0  0  0  0  0  0  0  0  0
   50.7259    5.4075    5.5246 C   0  0  0  0  0  0  0  0  0  0  0  0
   51.0092    3.9498    5.7294 C   0  0  0  0  0  0  0  0  0  0  0  0
   52.0407    3.6225    6.6941 C   0  0  0  0  0  0  0  0  0  0  0  0
   52.2529    2.2220    6.9903 C   0  0  0  0  0  0  0  0  0  0  0  0
   51.4679    1.2058    6.2918 C   0  0  0  0  0  0  0  0  0  0  0  0
   50.4295    1.5510    5.3382 C   0  0  0  0  0  0  0  0  0  0  0  0
   50.1906    2.9517    5.0344 C   0  0  0  0  0  0  0  0  0  0  0  0
  7  8  1  0  0  0
  7 11  1  0  0  0
  8  9  2  0  0  0
  8 13  1  0  0  0
  9 10  1  0  0  0
  9 17  1  0  0  0
 10 11  2  0  0  0
 10 12  1  0  0  0
 11  1  1  0  0  0
 13 14  2  0  0  0
 13 15  1  0  0  0
  1  2  1  0  0  0
  1  6  2  0  0  0
  2  3  2  0  0  0
  3  4  1  0  0  0
  3 23  1  0  0  0
  4  5  2  0  0  0
  5  6  1  0  0  0
 17 18  1  0  0  0
 18 19  1  0  0  0
 19 20  2  0  0  0
 19 21  1  0  0  0
 23 25  1  0  0  0
 25 26  1  0  0  0
 25 30  1  0  0  0
 26 27  1  0  0  0
 27 28  1  0  0  0
 28 29  1  0  0  0
 28 31  1  0  0  0
 29 30  1  0  0  0
 31 32  2  0  0  0
 31 33  2  0  0  0
 31 34  1  0  0  0
 34 35  1  0  0  0
 35 36  2  0  0  0
 35 40  1  0  0  0
 36 37  1  0  0  0
 37 38  2  0  0  0
 38 39  1  0  0  0
 39 40  2  0  0  0
 15 16  1  0  0  0
 21 22  1  0  0  0
 23 24  1  0  0  0
M  END
> <minimizedAffinity>
-9.28674

$$$$
2QBP_527_A_800


 40 43  0  0  0  0  0  0  0  0999 V2000
   50.0475    4.7411    2.6072 C   0  0  0  0  0  0  0  0  0  0  0  0
   48.9483    5.6936    2.6040 C   0  0  0  0  0  0  0  0  0  0  0  0
   48.5636    6.2973    1.3645 C   0  0  0  0  0  0  0  0  0  0  0  0
   49.2552    5.9436    0.1267 C   0  0  0  0  0  0  0  0  0  0  0  0
   50.3449    4.9831    0.1146 C   0  0  0  0  0  0  0  0  0  0  0  0
   50.7111    4.3750    1.3615 C   0  0  0  0  0  0  0  0  0  0  0  0
   50.4092    5.0281    5.4140 S   0  0  0  0  0  0  0  0  0  0  0  0
   51.1435    3.6863    6.3413 C   0  0  0  0  0  0  0  0  0  0  0  0
   51.4526    2.6880    5.5316 C   0  0  0  0  0  0  0  0  0  0  0  0
   51.0769    2.9273    4.1297 C   0  0  0  0  0  0  0  0  0  0  0  0
   50.5519    4.1315    3.8543 C   0  0  0  0  0  0  0  0  0  0  0  0
   51.2428    1.5061    2.9380 Br  0  0  0  0  0  0  0  0  0  0  0  0
   51.4338    3.8624    7.7479 C   0  0  0  0  0  0  0  0  0  0  0  0
   51.8747    5.0054    7.9948 O   0  0  0  0  0  0  0  0  0  0  0  0
   51.2742    2.9753    8.6152 O   0  0  0  0  0  0  0  0  0  0  0  0
   50.9392    2.1353    8.3700 H   0  0  0  0  0  0  0  0  0  0  0  0
   51.9717    1.5641    6.0044 O   0  0  0  0  0  0  0  0  0  0  0  0
   53.3588    1.5890    6.2711 C   0  0  0  0  0  0  0  0  0  0  0  0
   53.9104    0.3830    5.6528 C   0  0  0  0  0  0  0  0  0  0  0  0
   53.0839   -0.5041    5.3708 O   0  0  0  0  0  0  0  0  0  0  0  0
   55.1412    0.2963    5.4395 O   0  0  0  0  0  0  0  0  0  0  0  0
   55.7088    1.0030    5.6771 H   0  0  0  0  0  0  0  0  0  0  0  0
   47.5338    7.1779    1.4797 N   0  0  0  0  0  0  0  0  0  0  0  0
   46.7007    6.8769    1.9094 H   0  0  0  0  0  0  0  0  0  0  0  0
   47.6124    8.5246    1.0015 C   0  0  0  0  0  0  0  0  0  0  0  0
   46.3435    8.8134    0.1986 C   0  0  0  0  0  0  0  0  0  0  0  0
   46.2166   10.2594   -0.2219 C   0  0  0  0  0  0  0  0  0  0  0  0
   46.4406   11.0795    0.9696 N   0  0  0  0  0  0  0  0  0  0  0  0
   47.6569   10.9358    1.7734 C   0  0  0  0  0  0  0  0  0  0  0  0
   47.7861    9.4888    2.1728 C   0  0  0  0  0  0  0  0  0  0  0  0
   45.6574   12.5923    1.0949 S   0  0  0  0  0  0  0  0  0  0  0  0
   44.2605   12.2909    1.3093 O   0  0  0  0  0  0  0  0  0  0  0  0
   46.0601   13.3508   -0.0747 O   0  0  0  0  0  0  0  0  0  0  0  0
   46.3154   13.2108    2.6598 C   0  0  0  0  0  0  0  0  0  0  0  0
   46.1828   14.7038    2.6817 C   0  0  0  0  0  0  0  0  0  0  0  0
   44.8889   15.2419    2.3103 C   0  0  0  0  0  0  0  0  0  0  0  0
   44.7045   16.6721    2.4324 C   0  0  0  0  0  0  0  0  0  0  0  0
   45.8162   17.5116    2.8752 C   0  0  0  0  0  0  0  0  0  0  0  0
   47.1015   16.9554    3.2560 C   0  0  0  0  0  0  0  0  0  0  0  0
   47.3055   15.5204    3.1530 C   0  0  0  0  0  0  0  0  0  0  0  0
  7  8  1  0  0  0
  7 11  1  0  0  0
  8  9  2  0  0  0
  8 13  1  0  0  0
  9 10  1  0  0  0
  9 17  1  0  0  0
 10 11  2  0  0  0
 10 12  1  0  0  0
 11  1  1  0  0  0
 13 14  2  0  0  0
 13 15  1  0  0  0
  1  2  1  0  0  0
  1  6  2  0  0  0
  2  3  2  0  0  0
  3  4  1  0  0  0
  3 23  1  0  0  0
  4  5  2  0  0  0
  5  6  1  0  0  0
 17 18  1  0  0  0
 18 19  1  0  0  0
 19 20  2  0  0  0
 19 21  1  0  0  0
 23 25  1  0  0  0
 25 26  1  0  0  0
 25 30  1  0  0  0
 26 27  1  0  0  0
 27 28  1  0  0  0
 28 29  1  0  0  0
 28 31  1  0  0  0
 29 30  1  0  0  0
 31 32  2  0  0  0
 31 33  2  0  0  0
 31 34  1  0  0  0
 34 35  1  0  0  0
 35 36  2  0  0  0
 35 40  1  0  0  0
 36 37  1  0  0  0
 37 38  2  0  0  0
 38 39  1  0  0  0
 39 40  2  0  0  0
 15 16  1  0  0  0
 21 22  1  0  0  0
 23 24  1  0  0  0
M  END
> <minimizedAffinity>
-7.96301

$$$$
2QBP_527_A_800


 40 43  0  0  0  0  0  0  0  0999 V2000
   50.4446    3.9811    4.0721 C   0  0  0  0  0  0  0  0  0  0  0  0
   50.3607    5.3177    3.5048 C   0  0  0  0  0  0  0  0  0  0  0  0
   51.4068    6.2529    3.7872 C   0  0  0  0  0  0  0  0  0  0  0  0
   52.5441    5.8582    4.6156 C   0  0  0  0  0  0  0  0  0  0  0  0
   52.6466    4.5219    5.1762 C   0  0  0  0  0  0  0  0  0  0  0  0
   51.5983    3.5903    4.8738 C   0  0  0  0  0  0  0  0  0  0  0  0
   49.0353    1.7764    5.1877 S   0  0  0  0  0  0  0  0  0  0  0  0
   47.6825    1.0504    4.2698 C   0  0  0  0  0  0  0  0  0  0  0  0
   47.5299    1.6730    3.1136 C   0  0  0  0  0  0  0  0  0  0  0  0
   48.4613    2.7950    2.9201 C   0  0  0  0  0  0  0  0  0  0  0  0
   49.3712    2.9835    3.8886 C   0  0  0  0  0  0  0  0  0  0  0  0
   48.1907    3.8951    1.4422 Br  0  0  0  0  0  0  0  0  0  0  0  0
   47.0308   -0.1386    4.7751 C   0  0  0  0  0  0  0  0  0  0  0  0
   47.3596   -0.3865    5.9549 O   0  0  0  0  0  0  0  0  0  0  0  0
   46.2399   -0.8434    4.1099 O   0  0  0  0  0  0  0  0  0  0  0  0
   46.0304   -0.6071    3.2277 H   0  0  0  0  0  0  0  0  0  0  0  0
   46.5563    1.3334    2.2811 O   0  0  0  0  0  0  0  0  0  0  0  0
   45.3190    1.9855    2.4794 C   0  0  0  0  0  0  0  0  0  0  0  0
   44.3229    1.1872    1.7641 C   0  0  0  0  0  0  0  0  0  0  0  0
   44.0978    0.0576    2.2362 O   0  0  0  0  0  0  0  0  0  0  0  0
   43.7589    1.6543    0.7483 O   0  0  0  0  0  0  0  0  0  0  0  0
   43.9758    2.5142    0.4458 H   0  0  0  0  0  0  0  0  0  0  0  0
   51.2212    7.4726    3.2155 N   0  0  0  0  0  0  0  0  0  0  0  0
   51.8855    8.1794    3.3841 H   0  0  0  0  0  0  0  0  0  0  0  0
   50.0990    7.7703    2.3784 C   0  0  0  0  0  0  0  0  0  0  0  0
   48.9950    8.3531    3.2614 C   0  0  0  0  0  0  0  0  0  0  0  0
   47.8119    8.8718    2.4773 C   0  0  0  0  0  0  0  0  0  0  0  0
   48.3367    9.7407    1.4229 N   0  0  0  0  0  0  0  0  0  0  0  0
   49.3461    9.2615    0.4755 C   0  0  0  0  0  0  0  0  0  0  0  0
   50.5138    8.7291    1.2648 C   0  0  0  0  0  0  0  0  0  0  0  0
   47.3848   11.0491    0.8754 S   0  0  0  0  0  0  0  0  0  0  0  0
   46.4851   10.4913   -0.1081 O   0  0  0  0  0  0  0  0  0  0  0  0
   48.3184   12.0909    0.4898 O   0  0  0  0  0  0  0  0  0  0  0  0
   46.4029   11.4210    2.3458 C   0  0  0  0  0  0  0  0  0  0  0  0
   45.9198   12.8373    2.2570 C   0  0  0  0  0  0  0  0  0  0  0  0
   46.6208   13.8101    3.0719 C   0  0  0  0  0  0  0  0  0  0  0  0
   46.2458   15.1993    2.9177 C   0  0  0  0  0  0  0  0  0  0  0  0
   45.1688   15.5622    1.9984 C   0  0  0  0  0  0  0  0  0  0  0  0
   44.4860   14.5772    1.1798 C   0  0  0  0  0  0  0  0  0  0  0  0
   44.8545   13.1776    1.3090 C   0  0  0  0  0  0  0  0  0  0  0  0
  7  8  1  0  0  0
  7 11  1  0  0  0
  8  9  2  0  0  0
  8 13  1  0  0  0
  9 10  1  0  0  0
  9 17  1  0  0  0
 10 11  2  0  0  0
 10 12  1  0  0  0
 11  1  1  0  0  0
 13 14  2  0  0  0
 13 15  1  0  0  0
  1  2  1  0  0  0
  1  6  2  0  0  0
  2  3  2  0  0  0
  3  4  1  0  0  0
  3 23  1  0  0  0
  4  5  2  0  0  0
  5  6  1  0  0  0
 17 18  1  0  0  0
 18 19  1  0  0  0
 19 20  2  0  0  0
 19 21  1  0  0  0
 23 25  1  0  0  0
 25 26  1  0  0  0
 25 30  1  0  0  0
 26 27  1  0  0  0
 27 28  1  0  0  0
 28 29  1  0  0  0
 28 31  1  0  0  0
 29 30  1  0  0  0
 31 32  2  0  0  0
 31 33  2  0  0  0
 31 34  1  0  0  0
 34 35  1  0  0  0
 35 36  2  0  0  0
 35 40  1  0  0  0
 36 37  1  0  0  0
 37 38  2  0  0  0
 38 39  1  0  0  0
 39 40  2  0  0  0
 15 16  1  0  0  0
 21 22  1  0  0  0
 23 24  1  0  0  0
M  END
> <minimizedAffinity>
-7.79013

$$$$
2QBP_527_A_800


 40 43  0  0  0  0  0  0  0  0999 V2000
   51.3276    6.0398    1.2812 C   0  0  0  0  0  0  0  0  0  0  0  0
   50.7970    7.3812    1.4666 C   0  0  0  0  0  0  0  0  0  0  0  0
   50.7265    8.2565    0.3362 C   0  0  0  0  0  0  0  0  0  0  0  0
   51.1641    7.7966   -0.9801 C   0  0  0  0  0  0  0  0  0  0  0  0
   51.6824    6.4545   -1.1810 C   0  0  0  0  0  0  0  0  0  0  0  0
   51.7345    5.5830   -0.0425 C   0  0  0  0  0  0  0  0  0  0  0  0
   52.6808    5.4863    3.7212 S   0  0  0  0  0  0  0  0  0  0  0  0
   52.2681    4.0027    4.6313 C   0  0  0  0  0  0  0  0  0  0  0  0
   51.3404    3.3157    3.9869 C   0  0  0  0  0  0  0  0  0  0  0  0
   50.8783    3.9643    2.7501 C   0  0  0  0  0  0  0  0  0  0  0  0
   51.5014    5.1033    2.4099 C   0  0  0  0  0  0  0  0  0  0  0  0
   49.4112    3.2164    1.8807 Br  0  0  0  0  0  0  0  0  0  0  0  0
   53.0253    3.6540    5.8140 C   0  0  0  0  0  0  0  0  0  0  0  0
   53.0789    4.5987    6.6302 O   0  0  0  0  0  0  0  0  0  0  0  0
   53.5720    2.5438    5.9968 O   0  0  0  0  0  0  0  0  0  0  0  0
   53.4972    1.8722    5.3478 H   0  0  0  0  0  0  0  0  0  0  0  0
   50.8457    2.1967    4.4961 O   0  0  0  0  0  0  0  0  0  0  0  0
   49.8652    2.3562    5.5004 C   0  0  0  0  0  0  0  0  0  0  0  0
   50.3106    1.5424    6.6321 C   0  0  0  0  0  0  0  0  0  0  0  0
   51.1387    0.6528    6.3631 O   0  0  0  0  0  0  0  0  0  0  0  0
   49.8604    1.7660    7.7790 O   0  0  0  0  0  0  0  0  0  0  0  0
   49.2375    2.4532    7.9120 H   0  0  0  0  0  0  0  0  0  0  0  0
   50.2250    9.4868    0.6257 N   0  0  0  0  0  0  0  0  0  0  0  0
   50.8244   10.1602    1.0214 H   0  0  0  0  0  0  0  0  0  0  0  0
   48.8609    9.8424    0.3782 C   0  0  0  0  0  0  0  0  0  0  0  0
   48.1228    9.8364    1.7174 C   0  0  0  0  0  0  0  0  0  0  0  0
   46.7091   10.3621    1.6247 C   0  0  0  0  0  0  0  0  0  0  0  0
   46.7664   11.6394    0.9123 N   0  0  0  0  0  0  0  0  0  0  0  0
   47.3874   11.7447   -0.4104 C   0  0  0  0  0  0  0  0  0  0  0  0
   48.7894   11.2016   -0.3140 C   0  0  0  0  0  0  0  0  0  0  0  0
   45.6103   12.8437    1.2737 S   0  0  0  0  0  0  0  0  0  0  0  0
   44.3677   12.1383    1.4897 O   0  0  0  0  0  0  0  0  0  0  0  0
   45.7066   13.8250    0.2091 O   0  0  0  0  0  0  0  0  0  0  0  0
   46.1828   13.4209    2.8872 C   0  0  0  0  0  0  0  0  0  0  0  0
   46.1769   14.9199    2.8926 C   0  0  0  0  0  0  0  0  0  0  0  0
   44.8850   15.5604    2.7428 C   0  0  0  0  0  0  0  0  0  0  0  0
   44.8411   17.0023    2.8577 C   0  0  0  0  0  0  0  0  0  0  0  0
   46.0781   17.7507    3.0733 C   0  0  0  0  0  0  0  0  0  0  0  0
   47.3618   17.0930    3.2344 C   0  0  0  0  0  0  0  0  0  0  0  0
   47.4279   15.6449    3.1351 C   0  0  0  0  0  0  0  0  0  0  0  0
  7  8  1  0  0  0
  7 11  1  0  0  0
  8  9  2  0  0  0
  8 13  1  0  0  0
  9 10  1  0  0  0
  9 17  1  0  0  0
 10 11  2  0  0  0
 10 12  1  0  0  0
 11  1  1  0  0  0
 13 14  2  0  0  0
 13 15  1  0  0  0
  1  2  1  0  0  0
  1  6  2  0  0  0
  2  3  2  0  0  0
  3  4  1  0  0  0
  3 23  1  0  0  0
  4  5  2  0  0  0
  5  6  1  0  0  0
 17 18  1  0  0  0
 18 19  1  0  0  0
 19 20  2  0  0  0
 19 21  1  0  0  0
 23 25  1  0  0  0
 25 26  1  0  0  0
 25 30  1  0  0  0
 26 27  1  0  0  0
 27 28  1  0  0  0
 28 29  1  0  0  0
 28 31  1  0  0  0
 29 30  1  0  0  0
 31 32  2  0  0  0
 31 33  2  0  0  0
 31 34  1  0  0  0
 34 35  1  0  0  0
 35 36  2  0  0  0
 35 40  1  0  0  0
 36 37  1  0  0  0
 37 38  2  0  0  0
 38 39  1  0  0  0
 39 40  2  0  0  0
 15 16  1  0  0  0
 21 22  1  0  0  0
 23 24  1  0  0  0
M  END
> <minimizedAffinity>
-7.78673

$$$$
2QBP_527_A_800


 40 43  0  0  0  0  0  0  0  0999 V2000
   46.2903   11.6991    0.4405 C   0  0  0  0  0  0  0  0  0  0  0  0
   46.5979   10.5835    1.3215 C   0  0  0  0  0  0  0  0  0  0  0  0
   46.9429    9.3217    0.7404 C   0  0  0  0  0  0  0  0  0  0  0  0
   47.0011    9.1706   -0.7119 C   0  0  0  0  0  0  0  0  0  0  0  0
   46.7101   10.2810   -1.6022 C   0  0  0  0  0  0  0  0  0  0  0  0
   46.3794   11.5437   -1.0066 C   0  0  0  0  0  0  0  0  0  0  0  0
   44.6992   14.0167    0.0065 S   0  0  0  0  0  0  0  0  0  0  0  0
   44.6608   15.2959    1.2562 C   0  0  0  0  0  0  0  0  0  0  0  0
   45.4466   14.9688    2.2678 C   0  0  0  0  0  0  0  0  0  0  0  0
   46.0881   13.6538    2.1155 C   0  0  0  0  0  0  0  0  0  0  0  0
   45.8546   13.0109    0.9608 C   0  0  0  0  0  0  0  0  0  0  0  0
   47.0269   12.9784    3.5750 Br  0  0  0  0  0  0  0  0  0  0  0  0
   43.9447   16.5267    0.9995 C   0  0  0  0  0  0  0  0  0  0  0  0
   43.3529   16.5026   -0.1008 O   0  0  0  0  0  0  0  0  0  0  0  0
   43.9263   17.5051    1.7788 O   0  0  0  0  0  0  0  0  0  0  0  0
   44.3899   17.4650    2.5920 H   0  0  0  0  0  0  0  0  0  0  0  0
   45.5436   15.7495    3.3343 O   0  0  0  0  0  0  0  0  0  0  0  0
   46.7904   16.3867    3.5215 C   0  0  0  0  0  0  0  0  0  0  0  0
   46.5080   17.6160    4.2632 C   0  0  0  0  0  0  0  0  0  0  0  0
   47.0547   17.7106    5.3776 O   0  0  0  0  0  0  0  0  0  0  0  0
   45.7596   18.4885    3.7664 O   0  0  0  0  0  0  0  0  0  0  0  0
   45.3796   18.3534    2.9207 H   0  0  0  0  0  0  0  0  0  0  0  0
   47.2005    8.3489    1.6549 N   0  0  0  0  0  0  0  0  0  0  0  0
   46.4531    7.9892    2.1853 H   0  0  0  0  0  0  0  0  0  0  0  0
   48.5144    7.8267    1.8775 C   0  0  0  0  0  0  0  0  0  0  0  0
   49.0068    8.3513    3.2268 C   0  0  0  0  0  0  0  0  0  0  0  0
   50.3162    7.7382    3.6663 C   0  0  0  0  0  0  0  0  0  0  0  0
   50.1818    6.2866    3.5356 N   0  0  0  0  0  0  0  0  0  0  0  0
   49.7851    5.6713    2.2667 C   0  0  0  0  0  0  0  0  0  0  0  0
   48.4891    6.3008    1.8260 C   0  0  0  0  0  0  0  0  0  0  0  0
   51.0577    5.2734    4.5957 S   0  0  0  0  0  0  0  0  0  0  0  0
   50.3906    5.3770    5.8733 O   0  0  0  0  0  0  0  0  0  0  0  0
   52.4479    5.6711    4.4739 O   0  0  0  0  0  0  0  0  0  0  0  0
   50.6785    3.6381    3.9276 C   0  0  0  0  0  0  0  0  0  0  0  0
   51.5780    2.6311    4.5788 C   0  0  0  0  0  0  0  0  0  0  0  0
   52.6858    2.1443    3.7804 C   0  0  0  0  0  0  0  0  0  0  0  0
   53.6305    1.2581    4.4256 C   0  0  0  0  0  0  0  0  0  0  0  0
   53.4179    0.8590    5.8156 C   0  0  0  0  0  0  0  0  0  0  0  0
   52.3107    1.3661    6.6052 C   0  0  0  0  0  0  0  0  0  0  0  0
   51.3563    2.2670    5.9815 C   0  0  0  0  0  0  0  0  0  0  0  0
  7  8  1  0  0  0
  7 11  1  0  0  0
  8  9  2  0  0  0
  8 13  1  0  0  0
  9 10  1  0  0  0
  9 17  1  0  0  0
 10 11  2  0  0  0
 10 12  1  0  0  0
 11  1  1  0  0  0
 13 14  2  0  0  0
 13 15  1  0  0  0
  1  2  1  0  0  0
  1  6  2  0  0  0
  2  3  2  0  0  0
  3  4  1  0  0  0
  3 23  1  0  0  0
  4  5  2  0  0  0
  5  6  1  0  0  0
 17 18  1  0  0  0
 18 19  1  0  0  0
 19 20  2  0  0  0
 19 21  1  0  0  0
 23 25  1  0  0  0
 25 26  1  0  0  0
 25 30  1  0  0  0
 26 27  1  0  0  0
 27 28  1  0  0  0
 28 29  1  0  0  0
 28 31  1  0  0  0
 29 30  1  0  0  0
 31 32  2  0  0  0
 31 33  2  0  0  0
 31 34  1  0  0  0
 34 35  1  0  0  0
 35 36  2  0  0  0
 35 40  1  0  0  0
 36 37  1  0  0  0
 37 38  2  0  0  0
 38 39  1  0  0  0
 39 40  2  0  0  0
 15 16  1  0  0  0
 21 22  1  0  0  0
 23 24  1  0  0  0
M  END
> <minimizedAffinity>
-7.77907

$$$$
2QBP_527_A_800


 40 43  0  0  0  0  0  0  0  0999 V2000
   49.4111    4.7883    1.0742 C   0  0  0  0  0  0  0  0  0  0  0  0
   49.2355    6.2313    1.0269 C   0  0  0  0  0  0  0  0  0  0  0  0
   48.9832    6.8534   -0.2373 C   0  0  0  0  0  0  0  0  0  0  0  0
   48.8867    6.0444   -1.4504 C   0  0  0  0  0  0  0  0  0  0  0  0
   49.0460    4.6010   -1.4142 C   0  0  0  0  0  0  0  0  0  0  0  0
   49.2845    3.9887   -0.1387 C   0  0  0  0  0  0  0  0  0  0  0  0
   48.7041    2.7236    2.8986 S   0  0  0  0  0  0  0  0  0  0  0  0
   49.7481    2.4180    4.3185 C   0  0  0  0  0  0  0  0  0  0  0  0
   50.7619    3.2663    4.3301 C   0  0  0  0  0  0  0  0  0  0  0  0
   50.7809    4.1790    3.1765 C   0  0  0  0  0  0  0  0  0  0  0  0
   49.7471    4.0807    2.3263 C   0  0  0  0  0  0  0  0  0  0  0  0
   52.2827    5.2574    2.9550 Br  0  0  0  0  0  0  0  0  0  0  0  0
   49.3411    1.4469    5.3111 C   0  0  0  0  0  0  0  0  0  0  0  0
   48.1449    1.1119    5.1745 O   0  0  0  0  0  0  0  0  0  0  0  0
   50.0910    1.0012    6.2075 O   0  0  0  0  0  0  0  0  0  0  0  0
   50.9809    1.2899    6.2603 H   0  0  0  0  0  0  0  0  0  0  0  0
   51.6938    3.2003    5.2700 O   0  0  0  0  0  0  0  0  0  0  0  0
   51.8674    4.3652    6.0500 C   0  0  0  0  0  0  0  0  0  0  0  0
   51.7024    3.9469    7.4424 C   0  0  0  0  0  0  0  0  0  0  0  0
   51.6659    4.8666    8.2806 O   0  0  0  0  0  0  0  0  0  0  0  0
   51.6067    2.7303    7.7230 O   0  0  0  0  0  0  0  0  0  0  0  0
   51.6421    2.0882    7.0415 H   0  0  0  0  0  0  0  0  0  0  0  0
   48.8458    8.2044   -0.1660 N   0  0  0  0  0  0  0  0  0  0  0  0
   49.5146    8.7715   -0.6135 H   0  0  0  0  0  0  0  0  0  0  0  0
   47.7681    8.8350    0.5335 C   0  0  0  0  0  0  0  0  0  0  0  0
   48.3605    9.9298    1.4217 C   0  0  0  0  0  0  0  0  0  0  0  0
   47.3139   10.7915    2.0892 C   0  0  0  0  0  0  0  0  0  0  0  0
   46.3793   11.2240    1.0490 N   0  0  0  0  0  0  0  0  0  0  0  0
   45.6996   10.2538    0.1870 C   0  0  0  0  0  0  0  0  0  0  0  0
   46.7483    9.3869   -0.4600 C   0  0  0  0  0  0  0  0  0  0  0  0
   45.5912   12.7302    1.2157 S   0  0  0  0  0  0  0  0  0  0  0  0
   44.2180   12.4174    1.5394 O   0  0  0  0  0  0  0  0  0  0  0  0
   45.8953   13.4779    0.0098 O   0  0  0  0  0  0  0  0  0  0  0  0
   46.3594   13.3751    2.7184 C   0  0  0  0  0  0  0  0  0  0  0  0
   46.2259   14.8682    2.7252 C   0  0  0  0  0  0  0  0  0  0  0  0
   44.9418   15.4028    2.3165 C   0  0  0  0  0  0  0  0  0  0  0  0
   44.7539   16.8337    2.4226 C   0  0  0  0  0  0  0  0  0  0  0  0
   45.8537   17.6773    2.8871 C   0  0  0  0  0  0  0  0  0  0  0  0
   47.1289   17.1246    3.3051 C   0  0  0  0  0  0  0  0  0  0  0  0
   47.3359   15.6889    3.2187 C   0  0  0  0  0  0  0  0  0  0  0  0
  7  8  1  0  0  0
  7 11  1  0  0  0
  8  9  2  0  0  0
  8 13  1  0  0  0
  9 10  1  0  0  0
  9 17  1  0  0  0
 10 11  2  0  0  0
 10 12  1  0  0  0
 11  1  1  0  0  0
 13 14  2  0  0  0
 13 15  1  0  0  0
  1  2  1  0  0  0
  1  6  2  0  0  0
  2  3  2  0  0  0
  3  4  1  0  0  0
  3 23  1  0  0  0
  4  5  2  0  0  0
  5  6  1  0  0  0
 17 18  1  0  0  0
 18 19  1  0  0  0
 19 20  2  0  0  0
 19 21  1  0  0  0
 23 25  1  0  0  0
 25 26  1  0  0  0
 25 30  1  0  0  0
 26 27  1  0  0  0
 27 28  1  0  0  0
 28 29  1  0  0  0
 28 31  1  0  0  0
 29 30  1  0  0  0
 31 32  2  0  0  0
 31 33  2  0  0  0
 31 34  1  0  0  0
 34 35  1  0  0  0
 35 36  2  0  0  0
 35 40  1  0  0  0
 36 37  1  0  0  0
 37 38  2  0  0  0
 38 39  1  0  0  0
 39 40  2  0  0  0
 15 16  1  0  0  0
 21 22  1  0  0  0
 23 24  1  0  0  0
M  END
> <minimizedAffinity>
-7.71971

$$$$
2QBP_527_A_800


 40 43  0  0  0  0  0  0  0  0999 V2000
   49.5293    6.8651   -0.3816 C   0  0  0  0  0  0  0  0  0  0  0  0
   48.1573    7.3235   -0.5321 C   0  0  0  0  0  0  0  0  0  0  0  0
   47.6596    7.5876   -1.8479 C   0  0  0  0  0  0  0  0  0  0  0  0
   48.5148    7.3799   -3.0146 C   0  0  0  0  0  0  0  0  0  0  0  0
   49.8822    6.9087   -2.8784 C   0  0  0  0  0  0  0  0  0  0  0  0
   50.3638    6.6344   -1.5550 C   0  0  0  0  0  0  0  0  0  0  0  0
   50.8320    8.0341    1.8607 S   0  0  0  0  0  0  0  0  0  0  0  0
   51.2753    6.9987    3.2504 C   0  0  0  0  0  0  0  0  0  0  0  0
   50.9268    5.7454    3.0147 C   0  0  0  0  0  0  0  0  0  0  0  0
   50.2453    5.5549    1.7251 C   0  0  0  0  0  0  0  0  0  0  0  0
   50.1395    6.6417    0.9447 C   0  0  0  0  0  0  0  0  0  0  0  0
   49.4966    3.8843    1.3841 Br  0  0  0  0  0  0  0  0  0  0  0  0
   52.0355    7.5586    4.3469 C   0  0  0  0  0  0  0  0  0  0  0  0
   51.9507    8.8047    4.3865 O   0  0  0  0  0  0  0  0  0  0  0  0
   52.7077    6.8804    5.1549 O   0  0  0  0  0  0  0  0  0  0  0  0
   52.7336    5.9472    5.0754 H   0  0  0  0  0  0  0  0  0  0  0  0
   51.1187    4.8029    3.9263 O   0  0  0  0  0  0  0  0  0  0  0  0
   50.1875    4.7724    4.9882 C   0  0  0  0  0  0  0  0  0  0  0  0
   50.8910    4.1775    6.1250 C   0  0  0  0  0  0  0  0  0  0  0  0
   50.9294    2.9334    6.1437 O   0  0  0  0  0  0  0  0  0  0  0  0
   51.4065    4.9141    6.9966 O   0  0  0  0  0  0  0  0  0  0  0  0
   51.3404    5.8458    6.9215 H   0  0  0  0  0  0  0  0  0  0  0  0
   46.3707    8.0202   -1.8702 N   0  0  0  0  0  0  0  0  0  0  0  0
   45.6649    7.3884   -2.1386 H   0  0  0  0  0  0  0  0  0  0  0  0
   45.9986    9.3569   -1.5192 C   0  0  0  0  0  0  0  0  0  0  0  0
   45.0883    9.2852   -0.2927 C   0  0  0  0  0  0  0  0  0  0  0  0
   44.7588   10.6404    0.2890 C   0  0  0  0  0  0  0  0  0  0  0  0
   46.0216   11.3629    0.4499 N   0  0  0  0  0  0  0  0  0  0  0  0
   46.9373   11.5530   -0.6777 C   0  0  0  0  0  0  0  0  0  0  0  0
   47.2461   10.1997   -1.2635 C   0  0  0  0  0  0  0  0  0  0  0  0
   46.1687   12.5061    1.7104 S   0  0  0  0  0  0  0  0  0  0  0  0
   47.4014   13.2143    1.4518 O   0  0  0  0  0  0  0  0  0  0  0  0
   46.0098   11.7630    2.9467 O   0  0  0  0  0  0  0  0  0  0  0  0
   44.8135   13.6388    1.3303 C   0  0  0  0  0  0  0  0  0  0  0  0
   45.1160   14.9741    1.9408 C   0  0  0  0  0  0  0  0  0  0  0  0
   46.2852   15.0426    2.7952 C   0  0  0  0  0  0  0  0  0  0  0  0
   46.6603   16.3442    3.3044 C   0  0  0  0  0  0  0  0  0  0  0  0
   45.8426   17.5123    2.9825 C   0  0  0  0  0  0  0  0  0  0  0  0
   44.6825   17.4287    2.1145 C   0  0  0  0  0  0  0  0  0  0  0  0
   44.2941   16.1338    1.5818 C   0  0  0  0  0  0  0  0  0  0  0  0
  7  8  1  0  0  0
  7 11  1  0  0  0
  8  9  2  0  0  0
  8 13  1  0  0  0
  9 10  1  0  0  0
  9 17  1  0  0  0
 10 11  2  0  0  0
 10 12  1  0  0  0
 11  1  1  0  0  0
 13 14  2  0  0  0
 13 15  1  0  0  0
  1  2  1  0  0  0
  1  6  2  0  0  0
  2  3  2  0  0  0
  3  4  1  0  0  0
  3 23  1  0  0  0
  4  5  2  0  0  0
  5  6  1  0  0  0
 17 18  1  0  0  0
 18 19  1  0  0  0
 19 20  2  0  0  0
 19 21  1  0  0  0
 23 25  1  0  0  0
 25 26  1  0  0  0
 25 30  1  0  0  0
 26 27  1  0  0  0
 27 28  1  0  0  0
 28 29  1  0  0  0
 28 31  1  0  0  0
 29 30  1  0  0  0
 31 32  2  0  0  0
 31 33  2  0  0  0
 31 34  1  0  0  0
 34 35  1  0  0  0
 35 36  2  0  0  0
 35 40  1  0  0  0
 36 37  1  0  0  0
 37 38  2  0  0  0
 38 39  1  0  0  0
 39 40  2  0  0  0
 15 16  1  0  0  0
 21 22  1  0  0  0
 23 24  1  0  0  0
M  END
> <minimizedAffinity>
-7.50925

$$$$
2QBP_527_A_800


 40 43  0  0  0  0  0  0  0  0999 V2000
   48.1273   10.4000    0.6003 C   0  0  0  0  0  0  0  0  0  0  0  0
   48.1742    9.6119    1.8218 C   0  0  0  0  0  0  0  0  0  0  0  0
   49.3025    8.7612    2.0498 C   0  0  0  0  0  0  0  0  0  0  0  0
   50.3920    8.7058    1.0774 C   0  0  0  0  0  0  0  0  0  0  0  0
   50.3636    9.4989   -0.1394 C   0  0  0  0  0  0  0  0  0  0  0  0
   49.2335   10.3577   -0.3488 C   0  0  0  0  0  0  0  0  0  0  0  0
   46.1920   11.0913   -1.3664 S   0  0  0  0  0  0  0  0  0  0  0  0
   44.9474   12.3147   -0.9743 C   0  0  0  0  0  0  0  0  0  0  0  0
   45.1265   12.7699    0.2539 C   0  0  0  0  0  0  0  0  0  0  0  0
   46.2451   12.1301    0.9632 C   0  0  0  0  0  0  0  0  0  0  0  0
   46.9653   11.2445    0.2571 C   0  0  0  0  0  0  0  0  0  0  0  0
   46.4497   12.5130    2.7740 Br  0  0  0  0  0  0  0  0  0  0  0  0
   44.0274   12.7549   -2.0007 C   0  0  0  0  0  0  0  0  0  0  0  0
   43.5390   11.7947   -2.6340 O   0  0  0  0  0  0  0  0  0  0  0  0
   43.7582   13.9535   -2.2366 O   0  0  0  0  0  0  0  0  0  0  0  0
   44.1561   14.6320   -1.7274 H   0  0  0  0  0  0  0  0  0  0  0  0
   44.2938   13.6572    0.7789 O   0  0  0  0  0  0  0  0  0  0  0  0
   44.6952   15.0087    0.6896 C   0  0  0  0  0  0  0  0  0  0  0  0
   44.5763   15.5552    2.0418 C   0  0  0  0  0  0  0  0  0  0  0  0
   45.5592   16.2004    2.4505 O   0  0  0  0  0  0  0  0  0  0  0  0
   43.5323   15.3611    2.7054 O   0  0  0  0  0  0  0  0  0  0  0  0
   42.8281   14.8649    2.3366 H   0  0  0  0  0  0  0  0  0  0  0  0
   49.2371    8.0642    3.2155 N   0  0  0  0  0  0  0  0  0  0  0  0
   48.6530    8.3987    3.9339 H   0  0  0  0  0  0  0  0  0  0  0  0
   49.9833    6.8637    3.4402 C   0  0  0  0  0  0  0  0  0  0  0  0
   51.3701    7.2599    3.9484 C   0  0  0  0  0  0  0  0  0  0  0  0
   52.2059    6.0807    4.3895 C   0  0  0  0  0  0  0  0  0  0  0  0
   51.3807    5.2767    5.2924 N   0  0  0  0  0  0  0  0  0  0  0  0
   50.0640    4.7832    4.8814 C   0  0  0  0  0  0  0  0  0  0  0  0
   49.2435    5.9618    4.4256 C   0  0  0  0  0  0  0  0  0  0  0  0
   52.1388    4.3849    6.5363 S   0  0  0  0  0  0  0  0  0  0  0  0
   51.5674    4.8742    7.7701 O   0  0  0  0  0  0  0  0  0  0  0  0
   53.5662    4.5064    6.3048 O   0  0  0  0  0  0  0  0  0  0  0  0
   51.4662    2.7315    6.2564 C   0  0  0  0  0  0  0  0  0  0  0  0
   52.5487    1.8597    5.6948 C   0  0  0  0  0  0  0  0  0  0  0  0
   53.1903    0.9495    6.6231 C   0  0  0  0  0  0  0  0  0  0  0  0
   54.1584    0.0207    6.0805 C   0  0  0  0  0  0  0  0  0  0  0  0
   54.4807    0.0591    4.6552 C   0  0  0  0  0  0  0  0  0  0  0  0
   53.8193    0.9678    3.7370 C   0  0  0  0  0  0  0  0  0  0  0  0
   52.8347    1.9011    4.2576 C   0  0  0  0  0  0  0  0  0  0  0  0
  7  8  1  0  0  0
  7 11  1  0  0  0
  8  9  2  0  0  0
  8 13  1  0  0  0
  9 10  1  0  0  0
  9 17  1  0  0  0
 10 11  2  0  0  0
 10 12  1  0  0  0
 11  1  1  0  0  0
 13 14  2  0  0  0
 13 15  1  0  0  0
  1  2  1  0  0  0
  1  6  2  0  0  0
  2  3  2  0  0  0
  3  4  1  0  0  0
  3 23  1  0  0  0
  4  5  2  0  0  0
  5  6  1  0  0  0
 17 18  1  0  0  0
 18 19  1  0  0  0
 19 20  2  0  0  0
 19 21  1  0  0  0
 23 25  1  0  0  0
 25 26  1  0  0  0
 25 30  1  0  0  0
 26 27  1  0  0  0
 27 28  1  0  0  0
 28 29  1  0  0  0
 28 31  1  0  0  0
 29 30  1  0  0  0
 31 32  2  0  0  0
 31 33  2  0  0  0
 31 34  1  0  0  0
 34 35  1  0  0  0
 35 36  2  0  0  0
 35 40  1  0  0  0
 36 37  1  0  0  0
 37 38  2  0  0  0
 38 39  1  0  0  0
 39 40  2  0  0  0
 15 16  1  0  0  0
 21 22  1  0  0  0
 23 24  1  0  0  0
M  END
> <minimizedAffinity>
-7.20561

$$$$
2QBP_527_A_800


 40 43  0  0  0  0  0  0  0  0999 V2000
   49.5247    6.6786    0.8853 C   0  0  0  0  0  0  0  0  0  0  0  0
   48.4249    6.6719   -0.0664 C   0  0  0  0  0  0  0  0  0  0  0  0
   48.4604    7.5868   -1.1665 C   0  0  0  0  0  0  0  0  0  0  0  0
   49.5934    8.4945   -1.3337 C   0  0  0  0  0  0  0  0  0  0  0  0
   50.7046    8.5009   -0.3981 C   0  0  0  0  0  0  0  0  0  0  0  0
   50.6631    7.5691    0.6922 C   0  0  0  0  0  0  0  0  0  0  0  0
   49.0496    4.0830    1.9478 S   0  0  0  0  0  0  0  0  0  0  0  0
   49.3507    3.7823    3.6852 C   0  0  0  0  0  0  0  0  0  0  0  0
   49.7630    4.8913    4.2751 C   0  0  0  0  0  0  0  0  0  0  0  0
   49.9022    6.0317    3.3565 C   0  0  0  0  0  0  0  0  0  0  0  0
   49.5271    5.8180    2.0857 C   0  0  0  0  0  0  0  0  0  0  0  0
   50.6989    7.5794    4.0180 Br  0  0  0  0  0  0  0  0  0  0  0  0
   49.0084    2.4992    4.2598 C   0  0  0  0  0  0  0  0  0  0  0  0
   48.0239    1.9801    3.6917 O   0  0  0  0  0  0  0  0  0  0  0  0
   49.6164    1.9735    5.2183 O   0  0  0  0  0  0  0  0  0  0  0  0
   50.3494    2.4109    5.6048 H   0  0  0  0  0  0  0  0  0  0  0  0
   50.0900    4.8978    5.5594 O   0  0  0  0  0  0  0  0  0  0  0  0
   51.4641    4.7415    5.8473 C   0  0  0  0  0  0  0  0  0  0  0  0
   51.5331    4.2053    7.2071 C   0  0  0  0  0  0  0  0  0  0  0  0
   51.2366    3.0023    7.3275 O   0  0  0  0  0  0  0  0  0  0  0  0
   51.8752    4.9477    8.1557 O   0  0  0  0  0  0  0  0  0  0  0  0
   52.0857    5.8465    7.9948 H   0  0  0  0  0  0  0  0  0  0  0  0
   47.3787    7.5014   -1.9860 N   0  0  0  0  0  0  0  0  0  0  0  0
   47.3280    6.7542   -2.6251 H   0  0  0  0  0  0  0  0  0  0  0  0
   46.3108    8.4539   -1.9570 C   0  0  0  0  0  0  0  0  0  0  0  0
   46.0796    8.8571   -0.5002 C   0  0  0  0  0  0  0  0  0  0  0  0
   45.0912    9.9892   -0.3416 C   0  0  0  0  0  0  0  0  0  0  0  0
   45.4981   11.0532   -1.2607 N   0  0  0  0  0  0  0  0  0  0  0  0
   45.6794   10.7937   -2.6911 C   0  0  0  0  0  0  0  0  0  0  0  0
   46.6512    9.6521   -2.8403 C   0  0  0  0  0  0  0  0  0  0  0  0
   45.1637   12.6772   -0.8502 S   0  0  0  0  0  0  0  0  0  0  0  0
   43.9629   13.0229   -1.5759 O   0  0  0  0  0  0  0  0  0  0  0  0
   46.3903   13.4134   -1.0935 O   0  0  0  0  0  0  0  0  0  0  0  0
   44.7081   12.5227    0.8913 C   0  0  0  0  0  0  0  0  0  0  0  0
   45.0966   13.7827    1.6045 C   0  0  0  0  0  0  0  0  0  0  0  0
   46.2915   13.7183    2.4229 C   0  0  0  0  0  0  0  0  0  0  0  0
   46.7479   14.9501    3.0300 C   0  0  0  0  0  0  0  0  0  0  0  0
   45.9831   16.1807    2.8371 C   0  0  0  0  0  0  0  0  0  0  0  0
   44.7960   16.2309    2.0036 C   0  0  0  0  0  0  0  0  0  0  0  0
   44.3261   15.0084    1.3741 C   0  0  0  0  0  0  0  0  0  0  0  0
  7  8  1  0  0  0
  7 11  1  0  0  0
  8  9  2  0  0  0
  8 13  1  0  0  0
  9 10  1  0  0  0
  9 17  1  0  0  0
 10 11  2  0  0  0
 10 12  1  0  0  0
 11  1  1  0  0  0
 13 14  2  0  0  0
 13 15  1  0  0  0
  1  2  1  0  0  0
  1  6  2  0  0  0
  2  3  2  0  0  0
  3  4  1  0  0  0
  3 23  1  0  0  0
  4  5  2  0  0  0
  5  6  1  0  0  0
 17 18  1  0  0  0
 18 19  1  0  0  0
 19 20  2  0  0  0
 19 21  1  0  0  0
 23 25  1  0  0  0
 25 26  1  0  0  0
 25 30  1  0  0  0
 26 27  1  0  0  0
 27 28  1  0  0  0
 28 29  1  0  0  0
 28 31  1  0  0  0
 29 30  1  0  0  0
 31 32  2  0  0  0
 31 33  2  0  0  0
 31 34  1  0  0  0
 34 35  1  0  0  0
 35 36  2  0  0  0
 35 40  1  0  0  0
 36 37  1  0  0  0
 37 38  2  0  0  0
 38 39  1  0  0  0
 39 40  2  0  0  0
 15 16  1  0  0  0
 21 22  1  0  0  0
 23 24  1  0  0  0
M  END
> <minimizedAffinity>
-7.02078

$$$$
2QBP_527_A_800


 40 43  0  0  0  0  0  0  0  0999 V2000
   50.2670    3.2863    2.4060 C   0  0  0  0  0  0  0  0  0  0  0  0
   49.6278    4.5422    2.7659 C   0  0  0  0  0  0  0  0  0  0  0  0
   48.5988    5.0597    1.9161 C   0  0  0  0  0  0  0  0  0  0  0  0
   48.1909    4.3241    0.7211 C   0  0  0  0  0  0  0  0  0  0  0  0
   48.8116    3.0617    0.3587 C   0  0  0  0  0  0  0  0  0  0  0  0
   49.8318    2.5474    1.2266 C   0  0  0  0  0  0  0  0  0  0  0  0
   51.1511    2.3309    4.9352 S   0  0  0  0  0  0  0  0  0  0  0  0
   52.8200    1.7079    5.0984 C   0  0  0  0  0  0  0  0  0  0  0  0
   53.4571    1.8030    3.9440 C   0  0  0  0  0  0  0  0  0  0  0  0
   52.6273    2.3400    2.8545 C   0  0  0  0  0  0  0  0  0  0  0  0
   51.3857    2.7241    3.1895 C   0  0  0  0  0  0  0  0  0  0  0  0
   53.3346    2.3005    1.1323 Br  0  0  0  0  0  0  0  0  0  0  0  0
   53.3165    1.3229    6.4018 C   0  0  0  0  0  0  0  0  0  0  0  0
   52.4122    1.3192    7.2643 O   0  0  0  0  0  0  0  0  0  0  0  0
   54.5101    1.0373    6.6432 O   0  0  0  0  0  0  0  0  0  0  0  0
   55.1452    1.0573    5.9545 H   0  0  0  0  0  0  0  0  0  0  0  0
   54.6995    1.3606    3.8139 O   0  0  0  0  0  0  0  0  0  0  0  0
   54.8396    0.0662    3.2658 C   0  0  0  0  0  0  0  0  0  0  0  0
   55.9412   -0.5636    3.9946 C   0  0  0  0  0  0  0  0  0  0  0  0
   56.1804   -1.7471    3.6919 O   0  0  0  0  0  0  0  0  0  0  0  0
   56.5739    0.0875    4.8570 O   0  0  0  0  0  0  0  0  0  0  0  0
   56.3411    0.9773    5.0363 H   0  0  0  0  0  0  0  0  0  0  0  0
   48.0791    6.2419    2.3417 N   0  0  0  0  0  0  0  0  0  0  0  0
   47.4807    6.2408    3.1235 H   0  0  0  0  0  0  0  0  0  0  0  0
   48.3669    7.4879    1.6989 C   0  0  0  0  0  0  0  0  0  0  0  0
   47.6680    7.4881    0.3388 C   0  0  0  0  0  0  0  0  0  0  0  0
   47.7478    8.8173   -0.3756 C   0  0  0  0  0  0  0  0  0  0  0  0
   47.3314    9.8480    0.5767 N   0  0  0  0  0  0  0  0  0  0  0  0
   47.9822    9.9840    1.8821 C   0  0  0  0  0  0  0  0  0  0  0  0
   47.9151    8.6504    2.5800 C   0  0  0  0  0  0  0  0  0  0  0  0
   46.5687   11.2596   -0.0092 S   0  0  0  0  0  0  0  0  0  0  0  0
   45.8227   10.8438   -1.1749 O   0  0  0  0  0  0  0  0  0  0  0  0
   47.6152   12.2562   -0.1406 O   0  0  0  0  0  0  0  0  0  0  0  0
   45.3692   11.5917    1.3005 C   0  0  0  0  0  0  0  0  0  0  0  0
   45.5380   13.0085    1.7604 C   0  0  0  0  0  0  0  0  0  0  0  0
   44.6542   13.9902    1.1628 C   0  0  0  0  0  0  0  0  0  0  0  0
   44.7225   15.3428    1.6726 C   0  0  0  0  0  0  0  0  0  0  0  0
   45.6874   15.6758    2.7189 C   0  0  0  0  0  0  0  0  0  0  0  0
   46.5559   14.6781    3.3160 C   0  0  0  0  0  0  0  0  0  0  0  0
   46.4960   13.3106    2.8282 C   0  0  0  0  0  0  0  0  0  0  0  0
  7  8  1  0  0  0
  7 11  1  0  0  0
  8  9  2  0  0  0
  8 13  1  0  0  0
  9 10  1  0  0  0
  9 17  1  0  0  0
 10 11  2  0  0  0
 10 12  1  0  0  0
 11  1  1  0  0  0
 13 14  2  0  0  0
 13 15  1  0  0  0
  1  2  1  0  0  0
  1  6  2  0  0  0
  2  3  2  0  0  0
  3  4  1  0  0  0
  3 23  1  0  0  0
  4  5  2  0  0  0
  5  6  1  0  0  0
 17 18  1  0  0  0
 18 19  1  0  0  0
 19 20  2  0  0  0
 19 21  1  0  0  0
 23 25  1  0  0  0
 25 26  1  0  0  0
 25 30  1  0  0  0
 26 27  1  0  0  0
 27 28  1  0  0  0
 28 29  1  0  0  0
 28 31  1  0  0  0
 29 30  1  0  0  0
 31 32  2  0  0  0
 31 33  2  0  0  0
 31 34  1  0  0  0
 34 35  1  0  0  0
 35 36  2  0  0  0
 35 40  1  0  0  0
 36 37  1  0  0  0
 37 38  2  0  0  0
 38 39  1  0  0  0
 39 40  2  0  0  0
 15 16  1  0  0  0
 21 22  1  0  0  0
 23 24  1  0  0  0
M  END
> <minimizedAffinity>
-6.92478

$$$$
