1J17_ZEN_T_1


 34 38  0  0  0  0  0  0  0  0999 V2000
   10.9154   50.4778   62.4058 C   0  0  0  0  0  0  0  0  0  0  0  0
   11.0272   51.7116   62.3838 O   0  0  0  0  0  0  0  0  0  0  0  0
    9.7123   49.8985   62.4014 N   0  0  0  0  0  0  0  0  0  0  0  0
    9.4964   48.4242   62.4317 C   0  0  0  0  0  0  0  0  0  0  0  0
    8.5934   48.0292   61.2325 C   0  0  0  0  0  0  0  0  0  0  0  0
    7.6675   50.3165   61.1110 C   0  0  0  0  0  0  0  0  0  0  0  0
    8.4862   50.7374   62.3575 C   0  0  0  0  0  0  0  0  0  0  0  0
    7.3684   48.8681   61.2208 N   0  0  0  0  0  0  0  0  0  0  0  0
   15.1210   49.4221   61.9468 N   0  0  0  0  0  0  0  0  0  0  0  0
   14.6173   49.6793   63.3198 C   0  0  0  0  0  0  0  0  0  0  0  0
   13.3113   50.4994   63.2516 C   0  0  0  0  0  0  0  0  0  0  0  0
   12.7920   49.5264   60.9851 C   0  0  0  0  0  0  0  0  0  0  0  0
   14.1647   48.7874   60.9911 C   0  0  0  0  0  0  0  0  0  0  0  0
   12.2379   49.7227   62.4381 C   0  0  0  0  0  0  0  0  0  0  0  0
   18.8614   50.9248   60.7396 N   0  0  0  0  0  0  0  0  0  0  0  0
   18.6387   50.6912   62.0566 C   0  0  0  0  0  0  0  0  0  0  0  0
   17.3932   50.1943   62.4826 C   0  0  0  0  0  0  0  0  0  0  0  0
   16.6464   50.1826   60.1742 C   0  0  0  0  0  0  0  0  0  0  0  0
   17.9069   50.6829   59.8061 C   0  0  0  0  0  0  0  0  0  0  0  0
   16.3843   49.9398   61.5271 C   0  0  0  0  0  0  0  0  0  0  0  0
    6.2828   48.3575   60.1052 S   0  0  0  0  0  0  0  0  0  0  0  0
    5.0807   49.1657   60.2272 O   0  0  0  0  0  0  0  0  0  0  0  0
    6.1075   46.9549   60.3431 O   0  0  0  0  0  0  0  0  0  0  0  0
    6.9328   48.5559   58.4515 C   0  0  0  0  0  0  0  0  0  0  0  0
    6.8705   49.8087   57.7855 C   0  0  0  0  0  0  0  0  0  0  0  0
    7.5443   47.4632   57.8084 C   0  0  0  0  0  0  0  0  0  0  0  0
    8.0661   47.6024   56.5159 C   0  0  0  0  0  0  0  0  0  0  0  0
    7.3990   49.9557   56.4826 C   0  0  0  0  0  0  0  0  0  0  0  0
    7.9900   48.8371   55.8509 C   0  0  0  0  0  0  0  0  0  0  0  0
    8.5097   48.9649   54.5798 C   0  0  0  0  0  0  0  0  0  0  0  0
    7.8551   51.3123   54.5042 C   0  0  0  0  0  0  0  0  0  0  0  0
    7.3302   51.1950   55.7992 C   0  0  0  0  0  0  0  0  0  0  0  0
    8.4522   50.1834   53.8986 C   0  0  0  0  0  0  0  0  0  0  0  0
    9.1723   50.2799   52.3052 Cl  0  0  0  0  0  0  0  0  0  0  0  0
 15 16  2  0  0  0
 15 19  1  0  0  0
 16 17  1  0  0  0
 17 20  2  0  0  0
 18 19  2  0  0  0
 18 20  1  0  0  0
 20  9  1  0  0  0
  9 10  1  0  0  0
  9 13  1  0  0  0
 10 11  1  0  0  0
 11 14  1  0  0  0
 12 13  1  0  0  0
 12 14  1  0  0  0
 14  1  1  0  0  0
  1  2  2  0  0  0
  1  3  1  0  0  0
  3  4  1  0  0  0
  3  7  1  0  0  0
  4  5  1  0  0  0
  5  8  1  0  0  0
  6  7  1  0  0  0
  6  8  1  0  0  0
  8 21  1  0  0  0
 21 22  2  0  0  0
 21 23  2  0  0  0
 21 24  1  0  0  0
 24 25  2  0  0  0
 24 26  1  0  0  0
 25 28  1  0  0  0
 26 27  2  0  0  0
 27 29  1  0  0  0
 28 29  2  0  0  0
 28 32  1  0  0  0
 29 30  1  0  0  0
 30 33  2  0  0  0
 31 32  2  0  0  0
 31 33  1  0  0  0
 33 34  1  0  0  0
M  END
> <minimizedAffinity>
-10.33409

$$$$
1J17_ZEN_T_1


 34 38  0  0  0  0  0  0  0  0999 V2000
    9.8938   46.5896   60.1926 C   0  0  0  0  0  0  0  0  0  0  0  0
   10.5290   45.6990   59.6107 O   0  0  0  0  0  0  0  0  0  0  0  0
   10.2127   46.9584   61.4356 N   0  0  0  0  0  0  0  0  0  0  0  0
    9.4945   48.0157   62.2022 C   0  0  0  0  0  0  0  0  0  0  0  0
   10.5283   49.0670   62.6873 C   0  0  0  0  0  0  0  0  0  0  0  0
   12.3566   47.4120   62.5398 C   0  0  0  0  0  0  0  0  0  0  0  0
   11.3511   46.3053   62.1333 C   0  0  0  0  0  0  0  0  0  0  0  0
   11.6453   48.3924   63.3955 N   0  0  0  0  0  0  0  0  0  0  0  0
    7.6486   48.7992   57.1777 N   0  0  0  0  0  0  0  0  0  0  0  0
    7.6293   47.3161   57.1069 C   0  0  0  0  0  0  0  0  0  0  0  0
    8.8279   46.7404   57.8910 C   0  0  0  0  0  0  0  0  0  0  0  0
    8.8387   48.7587   59.4008 C   0  0  0  0  0  0  0  0  0  0  0  0
    7.7082   49.4032   58.5424 C   0  0  0  0  0  0  0  0  0  0  0  0
    8.7582   47.1936   59.3766 C   0  0  0  0  0  0  0  0  0  0  0  0
    8.1101   51.1366   53.7094 N   0  0  0  0  0  0  0  0  0  0  0  0
    7.6418   51.7203   54.8403 C   0  0  0  0  0  0  0  0  0  0  0  0
    7.4743   50.9559   56.0096 C   0  0  0  0  0  0  0  0  0  0  0  0
    8.2905   49.0093   54.8132 C   0  0  0  0  0  0  0  0  0  0  0  0
    8.4337   49.8195   53.6740 C   0  0  0  0  0  0  0  0  0  0  0  0
    7.8013   49.5817   55.9926 C   0  0  0  0  0  0  0  0  0  0  0  0
   12.6578   49.4636   64.1105 S   0  0  0  0  0  0  0  0  0  0  0  0
   13.1713   48.8682   65.3331 O   0  0  0  0  0  0  0  0  0  0  0  0
   11.8964   50.6655   64.2844 O   0  0  0  0  0  0  0  0  0  0  0  0
   14.0398   49.8404   63.0405 C   0  0  0  0  0  0  0  0  0  0  0  0
   15.3613   49.9250   63.5536 C   0  0  0  0  0  0  0  0  0  0  0  0
   13.8224   50.0262   61.6623 C   0  0  0  0  0  0  0  0  0  0  0  0
   14.8944   50.3143   60.8078 C   0  0  0  0  0  0  0  0  0  0  0  0
   16.4473   50.2117   62.6952 C   0  0  0  0  0  0  0  0  0  0  0  0
   16.1992   50.4140   61.3179 C   0  0  0  0  0  0  0  0  0  0  0  0
   17.2484   50.6947   60.4679 C   0  0  0  0  0  0  0  0  0  0  0  0
   18.8279   50.6079   62.3231 C   0  0  0  0  0  0  0  0  0  0  0  0
   17.7692   50.3149   63.1948 C   0  0  0  0  0  0  0  0  0  0  0  0
   18.5565   50.7936   60.9485 C   0  0  0  0  0  0  0  0  0  0  0  0
   19.8420   51.1094   59.8020 Cl  0  0  0  0  0  0  0  0  0  0  0  0
 15 16  2  0  0  0
 15 19  1  0  0  0
 16 17  1  0  0  0
 17 20  2  0  0  0
 18 19  2  0  0  0
 18 20  1  0  0  0
 20  9  1  0  0  0
  9 10  1  0  0  0
  9 13  1  0  0  0
 10 11  1  0  0  0
 11 14  1  0  0  0
 12 13  1  0  0  0
 12 14  1  0  0  0
 14  1  1  0  0  0
  1  2  2  0  0  0
  1  3  1  0  0  0
  3  4  1  0  0  0
  3  7  1  0  0  0
  4  5  1  0  0  0
  5  8  1  0  0  0
  6  7  1  0  0  0
  6  8  1  0  0  0
  8 21  1  0  0  0
 21 22  2  0  0  0
 21 23  2  0  0  0
 21 24  1  0  0  0
 24 25  2  0  0  0
 24 26  1  0  0  0
 25 28  1  0  0  0
 26 27  2  0  0  0
 27 29  1  0  0  0
 28 29  2  0  0  0
 28 32  1  0  0  0
 29 30  1  0  0  0
 30 33  2  0  0  0
 31 32  2  0  0  0
 31 33  1  0  0  0
 33 34  1  0  0  0
M  END
> <minimizedAffinity>
-9.88488

$$$$
1J17_ZEN_T_1


 34 38  0  0  0  0  0  0  0  0999 V2000
    8.3162   46.7669   60.7953 C   0  0  0  0  0  0  0  0  0  0  0  0
    8.8967   45.6811   60.6570 O   0  0  0  0  0  0  0  0  0  0  0  0
    8.4368   47.4697   61.9242 N   0  0  0  0  0  0  0  0  0  0  0  0
    7.7670   48.7787   62.1674 C   0  0  0  0  0  0  0  0  0  0  0  0
    8.8438   49.8203   62.5736 C   0  0  0  0  0  0  0  0  0  0  0  0
   10.3610   48.0278   63.3409 C   0  0  0  0  0  0  0  0  0  0  0  0
    9.2865   46.9555   63.0299 C   0  0  0  0  0  0  0  0  0  0  0  0
    9.6671   49.2911   63.6901 N   0  0  0  0  0  0  0  0  0  0  0  0
    7.0383   48.6365   57.0690 N   0  0  0  0  0  0  0  0  0  0  0  0
    7.2641   47.1688   57.0658 C   0  0  0  0  0  0  0  0  0  0  0  0
    8.1611   46.7760   58.2591 C   0  0  0  0  0  0  0  0  0  0  0  0
    7.3202   48.7563   59.5723 C   0  0  0  0  0  0  0  0  0  0  0  0
    6.5029   49.2283   58.3314 C   0  0  0  0  0  0  0  0  0  0  0  0
    7.4846   47.1977   59.5939 C   0  0  0  0  0  0  0  0  0  0  0  0
    8.4053   51.0498   53.9047 N   0  0  0  0  0  0  0  0  0  0  0  0
    7.7422   51.6286   54.9363 C   0  0  0  0  0  0  0  0  0  0  0  0
    7.2715   50.8394   56.0018 C   0  0  0  0  0  0  0  0  0  0  0  0
    8.1942   48.8779   54.9120 C   0  0  0  0  0  0  0  0  0  0  0  0
    8.6379   49.7135   53.8729 C   0  0  0  0  0  0  0  0  0  0  0  0
    7.4995   49.4453   55.9859 C   0  0  0  0  0  0  0  0  0  0  0  0
   10.6807   50.4249   64.2992 S   0  0  0  0  0  0  0  0  0  0  0  0
   11.0170   50.0576   65.6649 O   0  0  0  0  0  0  0  0  0  0  0  0
   10.0014   51.6781   64.1491 O   0  0  0  0  0  0  0  0  0  0  0  0
   12.1911   50.5025   63.3456 C   0  0  0  0  0  0  0  0  0  0  0  0
   13.4464   50.1988   63.9363 C   0  0  0  0  0  0  0  0  0  0  0  0
   12.1353   50.8395   61.9801 C   0  0  0  0  0  0  0  0  0  0  0  0
   13.3077   50.8974   61.2157 C   0  0  0  0  0  0  0  0  0  0  0  0
   14.6322   50.2520   63.1685 C   0  0  0  0  0  0  0  0  0  0  0  0
   14.5511   50.6129   61.8036 C   0  0  0  0  0  0  0  0  0  0  0  0
   15.6993   50.6695   61.0417 C   0  0  0  0  0  0  0  0  0  0  0  0
   17.0559   50.0347   62.9655 C   0  0  0  0  0  0  0  0  0  0  0  0
   15.8937   49.9672   63.7474 C   0  0  0  0  0  0  0  0  0  0  0  0
   16.9479   50.3854   61.6006 C   0  0  0  0  0  0  0  0  0  0  0  0
   18.3554   50.4354   60.5600 Cl  0  0  0  0  0  0  0  0  0  0  0  0
 15 16  2  0  0  0
 15 19  1  0  0  0
 16 17  1  0  0  0
 17 20  2  0  0  0
 18 19  2  0  0  0
 18 20  1  0  0  0
 20  9  1  0  0  0
  9 10  1  0  0  0
  9 13  1  0  0  0
 10 11  1  0  0  0
 11 14  1  0  0  0
 12 13  1  0  0  0
 12 14  1  0  0  0
 14  1  1  0  0  0
  1  2  2  0  0  0
  1  3  1  0  0  0
  3  4  1  0  0  0
  3  7  1  0  0  0
  4  5  1  0  0  0
  5  8  1  0  0  0
  6  7  1  0  0  0
  6  8  1  0  0  0
  8 21  1  0  0  0
 21 22  2  0  0  0
 21 23  2  0  0  0
 21 24  1  0  0  0
 24 25  2  0  0  0
 24 26  1  0  0  0
 25 28  1  0  0  0
 26 27  2  0  0  0
 27 29  1  0  0  0
 28 29  2  0  0  0
 28 32  1  0  0  0
 29 30  1  0  0  0
 30 33  2  0  0  0
 31 32  2  0  0  0
 31 33  1  0  0  0
 33 34  1  0  0  0
M  END
> <minimizedAffinity>
-8.98650

$$$$
1J17_ZEN_T_1


 34 38  0  0  0  0  0  0  0  0999 V2000
   12.5677   50.0617   63.1456 C   0  0  0  0  0  0  0  0  0  0  0  0
   12.6114   51.2904   63.2988 O   0  0  0  0  0  0  0  0  0  0  0  0
   11.4575   49.3750   63.4264 N   0  0  0  0  0  0  0  0  0  0  0  0
   11.3290   47.8981   63.2733 C   0  0  0  0  0  0  0  0  0  0  0  0
   10.0991   47.5964   62.3758 C   0  0  0  0  0  0  0  0  0  0  0  0
    9.0849   49.7760   62.9455 C   0  0  0  0  0  0  0  0  0  0  0  0
   10.2498   50.0881   63.9185 C   0  0  0  0  0  0  0  0  0  0  0  0
    8.9031   48.3049   62.8975 N   0  0  0  0  0  0  0  0  0  0  0  0
   16.5874   49.5464   61.5364 N   0  0  0  0  0  0  0  0  0  0  0  0
   16.3625   49.1994   62.9626 C   0  0  0  0  0  0  0  0  0  0  0  0
   15.0818   49.8938   63.4731 C   0  0  0  0  0  0  0  0  0  0  0  0
   14.1187   49.8800   61.1439 C   0  0  0  0  0  0  0  0  0  0  0  0
   15.4541   49.2889   60.5983 C   0  0  0  0  0  0  0  0  0  0  0  0
   13.8587   49.4421   62.6262 C   0  0  0  0  0  0  0  0  0  0  0  0
   20.0483   51.6479   60.3914 N   0  0  0  0  0  0  0  0  0  0  0  0
   19.9232   51.2343   61.6768 C   0  0  0  0  0  0  0  0  0  0  0  0
   18.7715   50.5351   62.0823 C   0  0  0  0  0  0  0  0  0  0  0  0
   17.9157   50.6995   59.8180 C   0  0  0  0  0  0  0  0  0  0  0  0
   19.0848   51.3972   59.4698 C   0  0  0  0  0  0  0  0  0  0  0  0
   17.7544   50.2676   61.1391 C   0  0  0  0  0  0  0  0  0  0  0  0
    7.5338   47.8595   62.1163 S   0  0  0  0  0  0  0  0  0  0  0  0
    6.3953   48.4254   62.8211 O   0  0  0  0  0  0  0  0  0  0  0  0
    7.5678   46.4279   62.0525 O   0  0  0  0  0  0  0  0  0  0  0  0
    7.5289   48.4828   60.4406 C   0  0  0  0  0  0  0  0  0  0  0  0
    7.9690   47.6760   59.3579 C   0  0  0  0  0  0  0  0  0  0  0  0
    7.0533   49.7823   60.1829 C   0  0  0  0  0  0  0  0  0  0  0  0
    7.0348   50.2843   58.8752 C   0  0  0  0  0  0  0  0  0  0  0  0
    7.9490   48.1762   58.0358 C   0  0  0  0  0  0  0  0  0  0  0  0
    7.4852   49.4922   57.8064 C   0  0  0  0  0  0  0  0  0  0  0  0
    7.4599   49.9944   56.5222 C   0  0  0  0  0  0  0  0  0  0  0  0
    8.3763   47.9118   55.6463 C   0  0  0  0  0  0  0  0  0  0  0  0
    8.3995   47.3889   56.9472 C   0  0  0  0  0  0  0  0  0  0  0  0
    7.8967   49.2253   55.4406 C   0  0  0  0  0  0  0  0  0  0  0  0
    7.7935   49.9151   53.8343 Cl  0  0  0  0  0  0  0  0  0  0  0  0
 15 16  2  0  0  0
 15 19  1  0  0  0
 16 17  1  0  0  0
 17 20  2  0  0  0
 18 19  2  0  0  0
 18 20  1  0  0  0
 20  9  1  0  0  0
  9 10  1  0  0  0
  9 13  1  0  0  0
 10 11  1  0  0  0
 11 14  1  0  0  0
 12 13  1  0  0  0
 12 14  1  0  0  0
 14  1  1  0  0  0
  1  2  2  0  0  0
  1  3  1  0  0  0
  3  4  1  0  0  0
  3  7  1  0  0  0
  4  5  1  0  0  0
  5  8  1  0  0  0
  6  7  1  0  0  0
  6  8  1  0  0  0
  8 21  1  0  0  0
 21 22  2  0  0  0
 21 23  2  0  0  0
 21 24  1  0  0  0
 24 25  2  0  0  0
 24 26  1  0  0  0
 25 28  1  0  0  0
 26 27  2  0  0  0
 27 29  1  0  0  0
 28 29  2  0  0  0
 28 32  1  0  0  0
 29 30  1  0  0  0
 30 33  2  0  0  0
 31 32  2  0  0  0
 31 33  1  0  0  0
 33 34  1  0  0  0
M  END
> <minimizedAffinity>
-8.47959

$$$$
1J17_ZEN_T_1


 34 38  0  0  0  0  0  0  0  0999 V2000
    8.4310   49.3384   61.8943 C   0  0  0  0  0  0  0  0  0  0  0  0
    7.4561   49.4771   62.6463 O   0  0  0  0  0  0  0  0  0  0  0  0
    9.6535   49.7108   62.2813 N   0  0  0  0  0  0  0  0  0  0  0  0
   10.8724   49.5809   61.4335 C   0  0  0  0  0  0  0  0  0  0  0  0
   11.9450   48.7844   62.2238 C   0  0  0  0  0  0  0  0  0  0  0  0
   10.9011   49.4125   64.3731 C   0  0  0  0  0  0  0  0  0  0  0  0
    9.8581   50.2891   63.6350 C   0  0  0  0  0  0  0  0  0  0  0  0
   12.1439   49.3914   63.5641 N   0  0  0  0  0  0  0  0  0  0  0  0
    7.7377   48.8044   57.6226 N   0  0  0  0  0  0  0  0  0  0  0  0
    8.9541   48.1872   58.2094 C   0  0  0  0  0  0  0  0  0  0  0  0
    9.2932   48.8738   59.5498 C   0  0  0  0  0  0  0  0  0  0  0  0
    6.8623   49.4398   59.9008 C   0  0  0  0  0  0  0  0  0  0  0  0
    6.5263   48.8560   58.4948 C   0  0  0  0  0  0  0  0  0  0  0  0
    8.1029   48.7255   60.5389 C   0  0  0  0  0  0  0  0  0  0  0  0
    7.9088   50.7664   53.9042 N   0  0  0  0  0  0  0  0  0  0  0  0
    8.2609   49.4589   53.9765 C   0  0  0  0  0  0  0  0  0  0  0  0
    8.2165   48.7852   55.2109 C   0  0  0  0  0  0  0  0  0  0  0  0
    7.4345   50.8285   56.2596 C   0  0  0  0  0  0  0  0  0  0  0  0
    7.5021   51.4521   55.0020 C   0  0  0  0  0  0  0  0  0  0  0  0
    7.7999   49.4822   56.3669 C   0  0  0  0  0  0  0  0  0  0  0  0
   13.4093   48.7231   64.3614 S   0  0  0  0  0  0  0  0  0  0  0  0
   13.3346   47.2785   64.2176 O   0  0  0  0  0  0  0  0  0  0  0  0
   13.3269   49.2122   65.7062 O   0  0  0  0  0  0  0  0  0  0  0  0
   14.9605   49.2813   63.6693 C   0  0  0  0  0  0  0  0  0  0  0  0
   15.1016   49.5045   62.2738 C   0  0  0  0  0  0  0  0  0  0  0  0
   16.0518   49.5342   64.5215 C   0  0  0  0  0  0  0  0  0  0  0  0
   17.2722   49.9796   63.9976 C   0  0  0  0  0  0  0  0  0  0  0  0
   16.3298   49.9575   61.7403 C   0  0  0  0  0  0  0  0  0  0  0  0
   17.4168   50.1847   62.6158 C   0  0  0  0  0  0  0  0  0  0  0  0
   18.6214   50.6266   62.1101 C   0  0  0  0  0  0  0  0  0  0  0  0
   17.7220   50.6120   59.8440 C   0  0  0  0  0  0  0  0  0  0  0  0
   16.4907   50.1696   60.3486 C   0  0  0  0  0  0  0  0  0  0  0  0
   18.7899   50.8442   60.7403 C   0  0  0  0  0  0  0  0  0  0  0  0
   20.3349   51.4472   60.1781 Cl  0  0  0  0  0  0  0  0  0  0  0  0
 15 16  2  0  0  0
 15 19  1  0  0  0
 16 17  1  0  0  0
 17 20  2  0  0  0
 18 19  2  0  0  0
 18 20  1  0  0  0
 20  9  1  0  0  0
  9 10  1  0  0  0
  9 13  1  0  0  0
 10 11  1  0  0  0
 11 14  1  0  0  0
 12 13  1  0  0  0
 12 14  1  0  0  0
 14  1  1  0  0  0
  1  2  2  0  0  0
  1  3  1  0  0  0
  3  4  1  0  0  0
  3  7  1  0  0  0
  4  5  1  0  0  0
  5  8  1  0  0  0
  6  7  1  0  0  0
  6  8  1  0  0  0
  8 21  1  0  0  0
 21 22  2  0  0  0
 21 23  2  0  0  0
 21 24  1  0  0  0
 24 25  2  0  0  0
 24 26  1  0  0  0
 25 28  1  0  0  0
 26 27  2  0  0  0
 27 29  1  0  0  0
 28 29  2  0  0  0
 28 32  1  0  0  0
 29 30  1  0  0  0
 30 33  2  0  0  0
 31 32  2  0  0  0
 31 33  1  0  0  0
 33 34  1  0  0  0
M  END
> <minimizedAffinity>
-8.45960

$$$$
1J17_ZEN_T_1


 34 38  0  0  0  0  0  0  0  0999 V2000
   11.8223   47.2565   63.1934 C   0  0  0  0  0  0  0  0  0  0  0  0
   11.7017   46.5675   64.2161 O   0  0  0  0  0  0  0  0  0  0  0  0
   11.1792   46.9327   62.0689 N   0  0  0  0  0  0  0  0  0  0  0  0
   11.2775   47.7070   60.7993 C   0  0  0  0  0  0  0  0  0  0  0  0
    9.8452   48.0847   60.3353 C   0  0  0  0  0  0  0  0  0  0  0  0
    8.8799   46.2054   61.6159 C   0  0  0  0  0  0  0  0  0  0  0  0
   10.2955   45.7380   62.0386 C   0  0  0  0  0  0  0  0  0  0  0  0
    8.9875   46.8734   60.2962 N   0  0  0  0  0  0  0  0  0  0  0  0
   15.1436   50.0446   62.7364 N   0  0  0  0  0  0  0  0  0  0  0  0
   13.8218   50.4466   62.1920 C   0  0  0  0  0  0  0  0  0  0  0  0
   12.9381   49.1970   61.9910 C   0  0  0  0  0  0  0  0  0  0  0  0
   14.1567   48.0083   63.8498 C   0  0  0  0  0  0  0  0  0  0  0  0
   15.1315   49.2179   63.9802 C   0  0  0  0  0  0  0  0  0  0  0  0
   12.7430   48.4605   63.3462 C   0  0  0  0  0  0  0  0  0  0  0  0
   18.6853   50.7066   60.5631 N   0  0  0  0  0  0  0  0  0  0  0  0
   18.7470   50.6257   61.9154 C   0  0  0  0  0  0  0  0  0  0  0  0
   17.5739   50.4106   62.6619 C   0  0  0  0  0  0  0  0  0  0  0  0
   16.3077   50.3567   60.5930 C   0  0  0  0  0  0  0  0  0  0  0  0
   17.5095   50.5770   59.8988 C   0  0  0  0  0  0  0  0  0  0  0  0
   16.3386   50.2772   61.9896 C   0  0  0  0  0  0  0  0  0  0  0  0
    7.5280   47.1737   59.6156 S   0  0  0  0  0  0  0  0  0  0  0  0
    6.8092   48.1133   60.4603 O   0  0  0  0  0  0  0  0  0  0  0  0
    6.9033   45.8944   59.4490 O   0  0  0  0  0  0  0  0  0  0  0  0
    7.7227   47.9038   57.9952 C   0  0  0  0  0  0  0  0  0  0  0  0
    7.4662   49.2836   57.7781 C   0  0  0  0  0  0  0  0  0  0  0  0
    8.1666   47.1081   56.9223 C   0  0  0  0  0  0  0  0  0  0  0  0
    8.3324   47.6650   55.6477 C   0  0  0  0  0  0  0  0  0  0  0  0
    7.6355   49.8516   56.4946 C   0  0  0  0  0  0  0  0  0  0  0  0
    8.0632   49.0260   55.4292 C   0  0  0  0  0  0  0  0  0  0  0  0
    8.2327   49.5656   54.1713 C   0  0  0  0  0  0  0  0  0  0  0  0
    7.5370   51.7600   54.9745 C   0  0  0  0  0  0  0  0  0  0  0  0
    7.3685   51.2230   56.2589 C   0  0  0  0  0  0  0  0  0  0  0  0
    7.9775   50.9176   53.9285 C   0  0  0  0  0  0  0  0  0  0  0  0
    8.2574   51.5400   52.3158 Cl  0  0  0  0  0  0  0  0  0  0  0  0
 15 16  2  0  0  0
 15 19  1  0  0  0
 16 17  1  0  0  0
 17 20  2  0  0  0
 18 19  2  0  0  0
 18 20  1  0  0  0
 20  9  1  0  0  0
  9 10  1  0  0  0
  9 13  1  0  0  0
 10 11  1  0  0  0
 11 14  1  0  0  0
 12 13  1  0  0  0
 12 14  1  0  0  0
 14  1  1  0  0  0
  1  2  2  0  0  0
  1  3  1  0  0  0
  3  4  1  0  0  0
  3  7  1  0  0  0
  4  5  1  0  0  0
  5  8  1  0  0  0
  6  7  1  0  0  0
  6  8  1  0  0  0
  8 21  1  0  0  0
 21 22  2  0  0  0
 21 23  2  0  0  0
 21 24  1  0  0  0
 24 25  2  0  0  0
 24 26  1  0  0  0
 25 28  1  0  0  0
 26 27  2  0  0  0
 27 29  1  0  0  0
 28 29  2  0  0  0
 28 32  1  0  0  0
 29 30  1  0  0  0
 30 33  2  0  0  0
 31 32  2  0  0  0
 31 33  1  0  0  0
 33 34  1  0  0  0
M  END
> <minimizedAffinity>
-8.12772

$$$$
1J17_ZEN_T_1


 34 38  0  0  0  0  0  0  0  0999 V2000
    8.1403   51.0775   63.8378 C   0  0  0  0  0  0  0  0  0  0  0  0
    7.5889   51.6982   64.7574 O   0  0  0  0  0  0  0  0  0  0  0  0
    9.4708   51.0558   63.7268 N   0  0  0  0  0  0  0  0  0  0  0  0
   10.2061   50.3374   62.6477 C   0  0  0  0  0  0  0  0  0  0  0  0
   11.2375   49.3794   63.3016 C   0  0  0  0  0  0  0  0  0  0  0  0
   11.2734   50.7423   65.3619 C   0  0  0  0  0  0  0  0  0  0  0  0
   10.3092   51.7731   64.7226 C   0  0  0  0  0  0  0  0  0  0  0  0
   12.0736   50.1223   64.2781 N   0  0  0  0  0  0  0  0  0  0  0  0
    6.5168   48.7921   60.4980 N   0  0  0  0  0  0  0  0  0  0  0  0
    6.4959   48.1631   61.8430 C   0  0  0  0  0  0  0  0  0  0  0  0
    7.5221   48.8604   62.7615 C   0  0  0  0  0  0  0  0  0  0  0  0
    7.2729   51.0003   61.4531 C   0  0  0  0  0  0  0  0  0  0  0  0
    6.3280   50.2728   60.4488 C   0  0  0  0  0  0  0  0  0  0  0  0
    7.1822   50.3724   62.8863 C   0  0  0  0  0  0  0  0  0  0  0  0
    7.6091   46.5301   57.1223 N   0  0  0  0  0  0  0  0  0  0  0  0
    7.4901   45.9089   58.3218 C   0  0  0  0  0  0  0  0  0  0  0  0
    7.1316   46.6474   59.4644 C   0  0  0  0  0  0  0  0  0  0  0  0
    7.0173   48.6468   58.0948 C   0  0  0  0  0  0  0  0  0  0  0  0
    7.3821   47.8610   56.9884 C   0  0  0  0  0  0  0  0  0  0  0  0
    6.8950   48.0352   59.3473 C   0  0  0  0  0  0  0  0  0  0  0  0
   13.3136   49.2137   64.8444 S   0  0  0  0  0  0  0  0  0  0  0  0
   13.0090   47.8135   64.6002 O   0  0  0  0  0  0  0  0  0  0  0  0
   13.4683   49.5782   66.2220 O   0  0  0  0  0  0  0  0  0  0  0  0
   14.8345   49.6184   63.9961 C   0  0  0  0  0  0  0  0  0  0  0  0
   14.8653   49.7817   62.5857 C   0  0  0  0  0  0  0  0  0  0  0  0
   16.0155   49.8092   64.7380 C   0  0  0  0  0  0  0  0  0  0  0  0
   17.2145   50.1345   64.0909 C   0  0  0  0  0  0  0  0  0  0  0  0
   16.0718   50.1136   61.9280 C   0  0  0  0  0  0  0  0  0  0  0  0
   17.2485   50.2800   62.6944 C   0  0  0  0  0  0  0  0  0  0  0  0
   18.4333   50.6037   62.0670 C   0  0  0  0  0  0  0  0  0  0  0  0
   17.3331   50.5864   59.8913 C   0  0  0  0  0  0  0  0  0  0  0  0
   16.1217   50.2644   60.5200 C   0  0  0  0  0  0  0  0  0  0  0  0
   18.4931   50.7600   60.6799 C   0  0  0  0  0  0  0  0  0  0  0  0
   20.0233   51.2143   59.9596 Cl  0  0  0  0  0  0  0  0  0  0  0  0
 15 16  2  0  0  0
 15 19  1  0  0  0
 16 17  1  0  0  0
 17 20  2  0  0  0
 18 19  2  0  0  0
 18 20  1  0  0  0
 20  9  1  0  0  0
  9 10  1  0  0  0
  9 13  1  0  0  0
 10 11  1  0  0  0
 11 14  1  0  0  0
 12 13  1  0  0  0
 12 14  1  0  0  0
 14  1  1  0  0  0
  1  2  2  0  0  0
  1  3  1  0  0  0
  3  4  1  0  0  0
  3  7  1  0  0  0
  4  5  1  0  0  0
  5  8  1  0  0  0
  6  7  1  0  0  0
  6  8  1  0  0  0
  8 21  1  0  0  0
 21 22  2  0  0  0
 21 23  2  0  0  0
 21 24  1  0  0  0
 24 25  2  0  0  0
 24 26  1  0  0  0
 25 28  1  0  0  0
 26 27  2  0  0  0
 27 29  1  0  0  0
 28 29  2  0  0  0
 28 32  1  0  0  0
 29 30  1  0  0  0
 30 33  2  0  0  0
 31 32  2  0  0  0
 31 33  1  0  0  0
 33 34  1  0  0  0
M  END
> <minimizedAffinity>
-7.99255

$$$$
1J17_ZEN_T_1


 34 38  0  0  0  0  0  0  0  0999 V2000
   11.9318   47.5197   63.4184 C   0  0  0  0  0  0  0  0  0  0  0  0
   11.7601   47.1558   64.5902 O   0  0  0  0  0  0  0  0  0  0  0  0
   11.1340   47.0824   62.4410 N   0  0  0  0  0  0  0  0  0  0  0  0
   11.2797   47.4698   61.0092 C   0  0  0  0  0  0  0  0  0  0  0  0
    9.9257   48.0400   60.5083 C   0  0  0  0  0  0  0  0  0  0  0  0
    8.7006   46.8170   62.2710 C   0  0  0  0  0  0  0  0  0  0  0  0
   10.0153   46.1560   62.7564 C   0  0  0  0  0  0  0  0  0  0  0  0
    8.8279   47.0897   60.8189 N   0  0  0  0  0  0  0  0  0  0  0  0
   15.7980   49.5051   63.7704 N   0  0  0  0  0  0  0  0  0  0  0  0
   15.5338   48.7164   62.5404 C   0  0  0  0  0  0  0  0  0  0  0  0
   14.3883   47.7144   62.7987 C   0  0  0  0  0  0  0  0  0  0  0  0
   13.4126   49.2458   64.5467 C   0  0  0  0  0  0  0  0  0  0  0  0
   14.6285   50.2069   64.3793 C   0  0  0  0  0  0  0  0  0  0  0  0
   13.0997   48.4768   63.2173 C   0  0  0  0  0  0  0  0  0  0  0  0
   19.5226   49.2224   65.7077 N   0  0  0  0  0  0  0  0  0  0  0  0
   18.5791   48.2796   65.9522 C   0  0  0  0  0  0  0  0  0  0  0  0
   17.3248   48.3583   65.3195 C   0  0  0  0  0  0  0  0  0  0  0  0
   18.0590   50.3762   64.1900 C   0  0  0  0  0  0  0  0  0  0  0  0
   19.2918   50.2503   64.8527 C   0  0  0  0  0  0  0  0  0  0  0  0
   17.0627   49.4232   64.4290 C   0  0  0  0  0  0  0  0  0  0  0  0
    7.4109   47.5392   60.1305 S   0  0  0  0  0  0  0  0  0  0  0  0
    6.8615   48.6510   60.8888 O   0  0  0  0  0  0  0  0  0  0  0  0
    6.6002   46.3576   60.0968 O   0  0  0  0  0  0  0  0  0  0  0  0
    7.6677   48.0759   58.4445 C   0  0  0  0  0  0  0  0  0  0  0  0
    7.4273   49.4217   58.0598 C   0  0  0  0  0  0  0  0  0  0  0  0
    8.1450   47.1604   57.4878 C   0  0  0  0  0  0  0  0  0  0  0  0
    8.3595   47.5653   56.1640 C   0  0  0  0  0  0  0  0  0  0  0  0
    7.6457   49.8366   56.7261 C   0  0  0  0  0  0  0  0  0  0  0  0
    8.1063   48.8922   55.7797 C   0  0  0  0  0  0  0  0  0  0  0  0
    8.3238   49.2819   54.4748 C   0  0  0  0  0  0  0  0  0  0  0  0
    7.6130   51.5559   54.9924 C   0  0  0  0  0  0  0  0  0  0  0  0
    7.3955   51.1719   56.3235 C   0  0  0  0  0  0  0  0  0  0  0  0
    8.0855   50.5970   54.0678 C   0  0  0  0  0  0  0  0  0  0  0  0
    8.4265   51.0276   52.4049 Cl  0  0  0  0  0  0  0  0  0  0  0  0
 15 16  2  0  0  0
 15 19  1  0  0  0
 16 17  1  0  0  0
 17 20  2  0  0  0
 18 19  2  0  0  0
 18 20  1  0  0  0
 20  9  1  0  0  0
  9 10  1  0  0  0
  9 13  1  0  0  0
 10 11  1  0  0  0
 11 14  1  0  0  0
 12 13  1  0  0  0
 12 14  1  0  0  0
 14  1  1  0  0  0
  1  2  2  0  0  0
  1  3  1  0  0  0
  3  4  1  0  0  0
  3  7  1  0  0  0
  4  5  1  0  0  0
  5  8  1  0  0  0
  6  7  1  0  0  0
  6  8  1  0  0  0
  8 21  1  0  0  0
 21 22  2  0  0  0
 21 23  2  0  0  0
 21 24  1  0  0  0
 24 25  2  0  0  0
 24 26  1  0  0  0
 25 28  1  0  0  0
 26 27  2  0  0  0
 27 29  1  0  0  0
 28 29  2  0  0  0
 28 32  1  0  0  0
 29 30  1  0  0  0
 30 33  2  0  0  0
 31 32  2  0  0  0
 31 33  1  0  0  0
 33 34  1  0  0  0
M  END
> <minimizedAffinity>
-7.67928

$$$$
