2BMK_PDD_B_1217
  RCSB PDB12061705083D
Coordinates from PDB:2BMK:B:1217 Model:1 without hydrogens
 21 21  0  0  0  0            999 V2000
   75.6480   33.6140   62.1450   N 0  0  0  0  0  0  0  0  0  0  0  0
   74.6870   38.6070   62.4280   N 0  0  0  0  0  0  0  0  0  0  0  0
   74.5920   37.6720   63.4220   C 0  0  0  0  0  0  0  0  0  0  0  0
   73.8720   38.0430   64.6840   C 0  0  0  0  0  0  0  0  0  0  0  0
   75.1980   36.3860   63.1860   C 0  0  0  0  0  0  0  0  0  0  0  0
   75.1460   35.4160   64.1130   O 0  0  0  0  0  0  0  0  0  0  0  0
   75.8800   36.1380   61.9290   C 0  0  0  0  0  0  0  0  0  0  0  0
   76.5160   34.7620   61.7260   C 0  0  0  0  0  0  0  0  0  0  0  0
   75.9340   37.1950   60.9390   C 0  0  0  0  0  0  0  0  0  0  0  0
   76.6340   37.0420   59.5890   C 0  0  0  0  0  0  0  0  0  0  0  0
   77.3300   38.2750   59.2680   O 0  0  0  0  0  0  0  0  0  0  0  0
   77.6610   38.5710   57.7240   P 0  0  0  0  0  0  0  0  0  0  0  0
   76.4560   38.1500   56.9540   O 0  0  0  0  0  0  0  0  0  0  0  0
   78.9020   37.6990   57.3660   O 0  0  0  0  0  0  0  0  0  0  0  0
   78.0780   40.0160   57.6120   O 0  0  0  0  0  0  0  0  0  0  0  0
   75.3210   38.4110   61.2310   C 0  0  0  0  0  0  0  0  0  0  0  0
   76.4500   32.4810   62.7530   C 0  0  0  0  0  0  0  0  0  0  0  0
   77.5330   31.9780   61.7920   C 0  0  0  0  0  0  0  0  0  0  0  0
   75.4790   31.3420   63.1570   C 0  0  0  0  0  0  0  0  0  0  0  0
   75.5360   30.3060   62.2760   O 0  0  0  0  0  0  0  0  0  0  0  0
   74.6760   31.3870   64.2000   O 0  0  0  0  0  0  0  0  0  0  0  0
  1  8  1  0  0  0  0
  1 17  1  0  0  0  0
  2  3  2  0  0  0  0
  2 16  1  0  0  0  0
  3  4  1  0  0  0  0
  3  5  1  0  0  0  0
  5  6  1  0  0  0  0
  5  7  2  0  0  0  0
  7  8  1  0  0  0  0
  7  9  1  0  0  0  0
  9 10  1  0  0  0  0
  9 16  2  0  0  0  0
 10 11  1  0  0  0  0
 11 12  1  0  0  0  0
 12 13  2  0  0  0  0
 12 14  1  0  0  0  0
 12 15  1  0  0  0  0
 17 18  1  0  0  0  0
 17 19  1  0  0  0  0
 19 20  2  0  0  0  0
 19 21  1  0  0  0  0
A    1
N
A    2
N1
A    3
C2
A    4
C2A
A    5
C3
A    6
O3A
A    7
C4
A    8
C4A
A    9
C5
A   10
C5A
A   11
OP4
A   12
P
A   13
OP1
A   14
OP2
A   15
OP3
A   16
C6
A   17
CA
A   18
CB
A   19
C
A   20
O
A   21
OXT
M  END
>  <InstanceId>
2BMK_PDD_B_1217

>  <ChemCompId>
PDD

>  <PdbId>
2BMK

>  <ChainId>
B

>  <ResidueNumber>
1217

>  <InsertionCode>


>  <Model>
1

>  <AltIds>


>  <MissingHeavyAtoms>
0

>  <ObservedFormula>
C11 N2 O7 P

>  <Name>
N-(5'-PHOSPHOPYRIDOXYL)-D-ALANINE

>  <SystematicName>
(2R)-2-[[3-hydroxy-2-methyl-5-(phosphonooxymethyl)pyridin-4-yl]methylamino]propanoic acid

>  <Synonyms>


>  <Type>
D-PEPTIDE LINKING

>  <Formula>
C11 H17 N2 O7 P

>  <MolecularWeight>
320.236

>  <ModifiedDate>
2011-06-04

>  <Parent>


>  <OneLetterCode>


>  <SubcomponentList>


>  <AmbiguousFlag>
N

>  <InChI>
InChI=1S/C11H17N2O7P/c1-6-10(14)9(4-13-7(2)11(15)16)8(3-12-6)5-20-21(17,18)19/h3,7,13-14H,4-5H2,1-2H3,(H,15,16)(H2,17,18,19)/t7-/m1/s1

>  <InChIKey>
WACJCHFWJNNBPR-SSDOTTSWSA-N

>  <SMILES>
Cc1c(c(c(cn1)COP(=O)(O)O)CN[C@H](C)C(=O)O)O

$$$$
