1LNM_DTX_A_700


 29 33  0  0  0  0  0  0  0  0999 V2000
   11.0198  -24.5489   35.9079 C   0  0  0  0  0  0  0  0  0  0  0  0
   11.3470  -26.0891   35.8392 C   0  0  0  0  0  0  0  0  0  0  0  0
    9.8939  -24.3584   36.9231 C   0  0  0  0  0  0  0  0  0  0  0  0
    8.5678  -24.1636   36.1282 C   0  0  0  0  0  0  0  0  0  0  0  0
    7.2868  -24.3534   36.9298 C   0  0  0  0  0  0  0  0  0  0  0  0
   10.1201  -23.1776   37.8616 C   0  0  0  0  0  0  0  0  0  0  0  0
    9.7747  -25.7769   37.6039 C   0  0  0  0  0  0  0  0  0  0  0  0
   10.1084  -26.7209   36.4721 C   0  0  0  0  0  0  0  0  0  0  0  0
   10.9171  -25.9465   38.4977 O   0  0  0  0  0  0  0  0  0  0  0  0
    8.4859  -26.0039   38.4300 C   0  0  0  0  0  0  0  0  0  0  0  0
    8.5209  -27.3680   39.1244 C   0  0  0  0  0  0  0  0  0  0  0  0
    7.1882  -25.7578   37.5874 C   0  0  0  0  0  0  0  0  0  0  0  0
    5.9204  -25.9830   38.4654 C   0  0  0  0  0  0  0  0  0  0  0  0
    4.6536  -25.8297   37.5774 C   0  0  0  0  0  0  0  0  0  0  0  0
    5.7049  -24.9025   39.5762 C   0  0  0  0  0  0  0  0  0  0  0  0
    5.9596  -27.4024   38.9903 C   0  0  0  0  0  0  0  0  0  0  0  0
    7.1996  -27.7198   39.8391 C   0  0  0  0  0  0  0  0  0  0  0  0
    5.8869  -28.4231   37.8439 C   0  0  0  0  0  0  0  0  0  0  0  0
    4.6799  -28.2225   36.9449 C   0  0  0  0  0  0  0  0  0  0  0  0
    4.6625  -26.8052   36.4075 C   0  0  0  0  0  0  0  0  0  0  0  0
    3.4798  -28.4424   37.7449 O   0  0  0  0  0  0  0  0  0  0  0  0
   11.7391  -25.8086   38.0015 H   0  0  0  0  0  0  0  0  0  0  0  0
    3.4638  -27.8138   38.4834 H   0  0  0  0  0  0  0  0  0  0  0  0
   14.6913  -21.3795   36.6782 O   0  0  0  0  0  0  0  0  0  0  0  0
   13.9597  -22.3032   36.6095 C   0  0  0  0  0  0  0  0  0  0  0  0
   12.6776  -22.5303   35.9355 C   0  0  0  0  0  0  0  0  0  0  0  0
   14.3311  -23.4699   37.2686 O   0  0  0  0  0  0  0  0  0  0  0  0
   13.3032  -24.4624   37.0532 C   0  0  0  0  0  0  0  0  0  0  0  0
   12.2874  -23.8054   36.1957 C   0  0  0  0  0  0  0  0  0  0  0  0
 24 25  2  0  0  0
 25 26  1  0  0  0
 25 27  1  0  0  0
 26 29  2  0  0  0
 27 28  1  0  0  0
 28 29  1  0  0  0
 29  1  1  0  0  0
  1  2  1  0  0  0
  1  3  1  0  0  0
  2  8  1  0  0  0
  3  4  1  0  0  0
  3  6  1  0  0  0
  3  7  1  0  0  0
  4  5  1  0  0  0
  5 12  1  0  0  0
  7  8  1  0  0  0
  7  9  1  0  0  0
  7 10  1  0  0  0
 10 11  1  0  0  0
 10 12  1  0  0  0
 11 17  1  0  0  0
 12 13  1  0  0  0
 13 14  1  0  0  0
 13 15  1  0  0  0
 13 16  1  0  0  0
 14 20  1  0  0  0
 16 17  1  0  0  0
 16 18  1  0  0  0
 18 19  1  0  0  0
 19 20  1  0  0  0
 19 21  1  0  0  0
  9 22  1  0  0  0
 21 23  1  0  0  0
M  END
> <minimizedAffinity>
-13.63494

$$$$
1LNM_DTX_A_700


 29 33  0  0  0  0  0  0  0  0999 V2000
   10.8027  -24.4772   38.0447 C   0  0  0  0  0  0  0  0  0  0  0  0
    9.9017  -23.2083   38.2938 C   0  0  0  0  0  0  0  0  0  0  0  0
   10.0324  -25.4193   37.1207 C   0  0  0  0  0  0  0  0  0  0  0  0
    9.4290  -26.5557   37.9999 C   0  0  0  0  0  0  0  0  0  0  0  0
    8.3125  -27.3649   37.3531 C   0  0  0  0  0  0  0  0  0  0  0  0
   10.8934  -26.0160   36.0122 C   0  0  0  0  0  0  0  0  0  0  0  0
    8.8030  -24.5466   36.6550 C   0  0  0  0  0  0  0  0  0  0  0  0
    8.5170  -23.6952   37.8702 C   0  0  0  0  0  0  0  0  0  0  0  0
    9.2873  -23.5616   35.6918 O   0  0  0  0  0  0  0  0  0  0  0  0
    7.6500  -25.3362   35.9900 C   0  0  0  0  0  0  0  0  0  0  0  0
    6.5602  -24.3846   35.4892 C   0  0  0  0  0  0  0  0  0  0  0  0
    7.1108  -26.4867   36.9065 C   0  0  0  0  0  0  0  0  0  0  0  0
    5.9646  -27.2606   36.1880 C   0  0  0  0  0  0  0  0  0  0  0  0
    5.3853  -28.3274   37.1592 C   0  0  0  0  0  0  0  0  0  0  0  0
    6.4322  -28.1156   34.9639 C   0  0  0  0  0  0  0  0  0  0  0  0
    4.8647  -26.2730   35.8616 C   0  0  0  0  0  0  0  0  0  0  0  0
    5.3126  -25.1177   34.9540 C   0  0  0  0  0  0  0  0  0  0  0  0
    4.2565  -25.6735   37.1391 C   0  0  0  0  0  0  0  0  0  0  0  0
    3.7531  -26.7275   38.1091 C   0  0  0  0  0  0  0  0  0  0  0  0
    4.8678  -27.6978   38.4462 C   0  0  0  0  0  0  0  0  0  0  0  0
    2.6682  -27.4563   37.4607 O   0  0  0  0  0  0  0  0  0  0  0  0
   10.0125  -23.0526   36.0867 H   0  0  0  0  0  0  0  0  0  0  0  0
    2.9974  -27.8700   36.6475 H   0  0  0  0  0  0  0  0  0  0  0  0
   14.7714  -22.2001   36.2604 O   0  0  0  0  0  0  0  0  0  0  0  0
   13.9832  -22.9176   36.7677 C   0  0  0  0  0  0  0  0  0  0  0  0
   12.5178  -22.9455   36.8050 C   0  0  0  0  0  0  0  0  0  0  0  0
   14.4696  -24.0026   37.4885 O   0  0  0  0  0  0  0  0  0  0  0  0
   13.3450  -24.7405   38.0167 C   0  0  0  0  0  0  0  0  0  0  0  0
   12.1378  -24.0217   37.5421 C   0  0  0  0  0  0  0  0  0  0  0  0
 24 25  2  0  0  0
 25 26  1  0  0  0
 25 27  1  0  0  0
 26 29  2  0  0  0
 27 28  1  0  0  0
 28 29  1  0  0  0
 29  1  1  0  0  0
  1  2  1  0  0  0
  1  3  1  0  0  0
  2  8  1  0  0  0
  3  4  1  0  0  0
  3  6  1  0  0  0
  3  7  1  0  0  0
  4  5  1  0  0  0
  5 12  1  0  0  0
  7  8  1  0  0  0
  7  9  1  0  0  0
  7 10  1  0  0  0
 10 11  1  0  0  0
 10 12  1  0  0  0
 11 17  1  0  0  0
 12 13  1  0  0  0
 13 14  1  0  0  0
 13 15  1  0  0  0
 13 16  1  0  0  0
 14 20  1  0  0  0
 16 17  1  0  0  0
 16 18  1  0  0  0
 18 19  1  0  0  0
 19 20  1  0  0  0
 19 21  1  0  0  0
  9 22  1  0  0  0
 21 23  1  0  0  0
M  END
> <minimizedAffinity>
-12.74159

$$$$
1LNM_DTX_A_700


 29 33  0  0  0  0  0  0  0  0999 V2000
    6.5677  -26.1342   38.9384 C   0  0  0  0  0  0  0  0  0  0  0  0
    7.5048  -27.2777   39.4844 C   0  0  0  0  0  0  0  0  0  0  0  0
    7.2824  -25.4702   37.7624 C   0  0  0  0  0  0  0  0  0  0  0  0
    7.8932  -24.1312   38.2746 C   0  0  0  0  0  0  0  0  0  0  0  0
    8.9669  -23.5161   37.3866 C   0  0  0  0  0  0  0  0  0  0  0  0
    6.3679  -25.2066   36.5705 C   0  0  0  0  0  0  0  0  0  0  0  0
    8.5123  -26.4232   37.4997 C   0  0  0  0  0  0  0  0  0  0  0  0
    8.8618  -26.9093   38.8872 C   0  0  0  0  0  0  0  0  0  0  0  0
    8.0140  -27.6382   36.8607 O   0  0  0  0  0  0  0  0  0  0  0  0
    9.6222  -25.8316   36.5980 C   0  0  0  0  0  0  0  0  0  0  0  0
   10.7131  -26.8716   36.3289 C   0  0  0  0  0  0  0  0  0  0  0  0
   10.1700  -24.4695   37.1450 C   0  0  0  0  0  0  0  0  0  0  0  0
   11.2715  -23.9076   36.1964 C   0  0  0  0  0  0  0  0  0  0  0  0
   11.8632  -22.6108   36.8170 C   0  0  0  0  0  0  0  0  0  0  0  0
   10.7401  -23.4225   34.8071 C   0  0  0  0  0  0  0  0  0  0  0  0
   12.3797  -24.9347   36.1043 C   0  0  0  0  0  0  0  0  0  0  0  0
   11.9236  -26.2979   35.5634 C   0  0  0  0  0  0  0  0  0  0  0  0
   13.0480  -25.1579   37.4699 C   0  0  0  0  0  0  0  0  0  0  0  0
   13.5641  -23.8746   38.0960 C   0  0  0  0  0  0  0  0  0  0  0  0
   12.4418  -22.8613   38.2037 C   0  0  0  0  0  0  0  0  0  0  0  0
   14.6080  -23.3377   37.2296 O   0  0  0  0  0  0  0  0  0  0  0  0
    7.3153  -28.0285   37.4087 H   0  0  0  0  0  0  0  0  0  0  0  0
   14.2398  -23.1641   36.3491 H   0  0  0  0  0  0  0  0  0  0  0  0
    1.9325  -27.2270   37.7387 O   0  0  0  0  0  0  0  0  0  0  0  0
    3.0814  -27.2113   38.0090 C   0  0  0  0  0  0  0  0  0  0  0  0
    3.9979  -26.1640   38.4703 C   0  0  0  0  0  0  0  0  0  0  0  0
    3.7831  -28.4077   37.9103 O   0  0  0  0  0  0  0  0  0  0  0  0
    5.1571  -28.1630   38.2850 C   0  0  0  0  0  0  0  0  0  0  0  0
    5.2251  -26.7235   38.6344 C   0  0  0  0  0  0  0  0  0  0  0  0
 24 25  2  0  0  0
 25 26  1  0  0  0
 25 27  1  0  0  0
 26 29  2  0  0  0
 27 28  1  0  0  0
 28 29  1  0  0  0
 29  1  1  0  0  0
  1  2  1  0  0  0
  1  3  1  0  0  0
  2  8  1  0  0  0
  3  4  1  0  0  0
  3  6  1  0  0  0
  3  7  1  0  0  0
  4  5  1  0  0  0
  5 12  1  0  0  0
  7  8  1  0  0  0
  7  9  1  0  0  0
  7 10  1  0  0  0
 10 11  1  0  0  0
 10 12  1  0  0  0
 11 17  1  0  0  0
 12 13  1  0  0  0
 13 14  1  0  0  0
 13 15  1  0  0  0
 13 16  1  0  0  0
 14 20  1  0  0  0
 16 17  1  0  0  0
 16 18  1  0  0  0
 18 19  1  0  0  0
 19 20  1  0  0  0
 19 21  1  0  0  0
  9 22  1  0  0  0
 21 23  1  0  0  0
M  END
> <minimizedAffinity>
-11.82389

$$$$
1LNM_DTX_A_700


 29 33  0  0  0  0  0  0  0  0999 V2000
   10.6736  -23.5956   36.1750 C   0  0  0  0  0  0  0  0  0  0  0  0
   11.1271  -25.0366   35.7258 C   0  0  0  0  0  0  0  0  0  0  0  0
    9.6756  -23.7590   37.3204 C   0  0  0  0  0  0  0  0  0  0  0  0
    8.2458  -23.5551   36.7350 C   0  0  0  0  0  0  0  0  0  0  0  0
    7.1014  -24.0599   37.6040 C   0  0  0  0  0  0  0  0  0  0  0  0
    9.9133  -22.7878   38.4721 C   0  0  0  0  0  0  0  0  0  0  0  0
    9.7739  -25.2942   37.6717 C   0  0  0  0  0  0  0  0  0  0  0  0
   10.0427  -25.9291   36.3270 C   0  0  0  0  0  0  0  0  0  0  0  0
   11.0327  -25.5163   38.3779 O   0  0  0  0  0  0  0  0  0  0  0  0
    8.6283  -25.8413   38.5567 C   0  0  0  0  0  0  0  0  0  0  0  0
    8.8758  -27.3086   38.9172 C   0  0  0  0  0  0  0  0  0  0  0  0
    7.2159  -25.5741   37.9338 C   0  0  0  0  0  0  0  0  0  0  0  0
    6.0976  -26.1281   38.8673 C   0  0  0  0  0  0  0  0  0  0  0  0
    4.7182  -25.9375   38.1762 C   0  0  0  0  0  0  0  0  0  0  0  0
    5.9304  -25.3424   40.2100 C   0  0  0  0  0  0  0  0  0  0  0  0
    6.3323  -27.6123   39.0507 C   0  0  0  0  0  0  0  0  0  0  0  0
    7.6951  -27.9567   39.6697 C   0  0  0  0  0  0  0  0  0  0  0  0
    6.2050  -28.3659   37.7176 C   0  0  0  0  0  0  0  0  0  0  0  0
    4.8789  -28.1202   37.0202 C   0  0  0  0  0  0  0  0  0  0  0  0
    4.6641  -26.6327   36.8219 C   0  0  0  0  0  0  0  0  0  0  0  0
    3.8168  -28.6444   37.8721 O   0  0  0  0  0  0  0  0  0  0  0  0
   11.7680  -25.1807   37.8416 H   0  0  0  0  0  0  0  0  0  0  0  0
    3.8395  -28.1943   38.7311 H   0  0  0  0  0  0  0  0  0  0  0  0
   14.7979  -21.5335   37.8652 O   0  0  0  0  0  0  0  0  0  0  0  0
   13.8502  -21.8879   37.2572 C   0  0  0  0  0  0  0  0  0  0  0  0
   12.6928  -22.7257   37.5858 C   0  0  0  0  0  0  0  0  0  0  0  0
   13.7230  -21.4441   35.9456 O   0  0  0  0  0  0  0  0  0  0  0  0
   12.5036  -21.9905   35.3954 C   0  0  0  0  0  0  0  0  0  0  0  0
   11.8953  -22.7880   36.4876 C   0  0  0  0  0  0  0  0  0  0  0  0
 24 25  2  0  0  0
 25 26  1  0  0  0
 25 27  1  0  0  0
 26 29  2  0  0  0
 27 28  1  0  0  0
 28 29  1  0  0  0
 29  1  1  0  0  0
  1  2  1  0  0  0
  1  3  1  0  0  0
  2  8  1  0  0  0
  3  4  1  0  0  0
  3  6  1  0  0  0
  3  7  1  0  0  0
  4  5  1  0  0  0
  5 12  1  0  0  0
  7  8  1  0  0  0
  7  9  1  0  0  0
  7 10  1  0  0  0
 10 11  1  0  0  0
 10 12  1  0  0  0
 11 17  1  0  0  0
 12 13  1  0  0  0
 13 14  1  0  0  0
 13 15  1  0  0  0
 13 16  1  0  0  0
 14 20  1  0  0  0
 16 17  1  0  0  0
 16 18  1  0  0  0
 18 19  1  0  0  0
 19 20  1  0  0  0
 19 21  1  0  0  0
  9 22  1  0  0  0
 21 23  1  0  0  0
M  END
> <minimizedAffinity>
-11.80153

$$$$
1LNM_DTX_A_700


 29 33  0  0  0  0  0  0  0  0999 V2000
   10.5118  -24.5196   36.1463 C   0  0  0  0  0  0  0  0  0  0  0  0
   10.8812  -26.0148   35.8119 C   0  0  0  0  0  0  0  0  0  0  0  0
    9.2764  -24.5366   37.0453 C   0  0  0  0  0  0  0  0  0  0  0  0
    8.0420  -24.1892   36.1598 C   0  0  0  0  0  0  0  0  0  0  0  0
    6.6851  -24.5365   36.7581 C   0  0  0  0  0  0  0  0  0  0  0  0
    9.3693  -23.5661   38.2182 C   0  0  0  0  0  0  0  0  0  0  0  0
    9.1165  -26.0624   37.4142 C   0  0  0  0  0  0  0  0  0  0  0  0
    9.5956  -26.7616   36.1632 C   0  0  0  0  0  0  0  0  0  0  0  0
   10.1568  -26.4051   38.3801 O   0  0  0  0  0  0  0  0  0  0  0  0
    7.7500  -26.4512   38.0279 C   0  0  0  0  0  0  0  0  0  0  0  0
    7.7405  -27.9261   38.4383 C   0  0  0  0  0  0  0  0  0  0  0  0
    6.5479  -26.0439   37.1095 C   0  0  0  0  0  0  0  0  0  0  0  0
    5.1966  -26.4411   37.7766 C   0  0  0  0  0  0  0  0  0  0  0  0
    4.0324  -26.1157   36.7991 C   0  0  0  0  0  0  0  0  0  0  0  0
    4.8340  -25.6037   39.0475 C   0  0  0  0  0  0  0  0  0  0  0  0
    5.2113  -27.9366   38.0114 C   0  0  0  0  0  0  0  0  0  0  0  0
    6.3571  -28.4150   38.9154 C   0  0  0  0  0  0  0  0  0  0  0  0
    5.2901  -28.7086   36.6851 C   0  0  0  0  0  0  0  0  0  0  0  0
    4.1854  -28.3345   35.7130 C   0  0  0  0  0  0  0  0  0  0  0  0
    4.1937  -26.8386   35.4679 C   0  0  0  0  0  0  0  0  0  0  0  0
    2.9098  -28.7110   36.3127 O   0  0  0  0  0  0  0  0  0  0  0  0
   11.0251  -26.1701   38.0171 H   0  0  0  0  0  0  0  0  0  0  0  0
    2.7973  -28.2420   37.1544 H   0  0  0  0  0  0  0  0  0  0  0  0
   14.2869  -22.7751   38.7586 O   0  0  0  0  0  0  0  0  0  0  0  0
   13.5056  -23.1009   37.9360 C   0  0  0  0  0  0  0  0  0  0  0  0
   12.1652  -23.6923   37.9919 C   0  0  0  0  0  0  0  0  0  0  0  0
   13.8491  -22.8968   36.6042 O   0  0  0  0  0  0  0  0  0  0  0  0
   12.7596  -23.3605   35.7759 C   0  0  0  0  0  0  0  0  0  0  0  0
   11.7218  -23.8466   36.7169 C   0  0  0  0  0  0  0  0  0  0  0  0
 24 25  2  0  0  0
 25 26  1  0  0  0
 25 27  1  0  0  0
 26 29  2  0  0  0
 27 28  1  0  0  0
 28 29  1  0  0  0
 29  1  1  0  0  0
  1  2  1  0  0  0
  1  3  1  0  0  0
  2  8  1  0  0  0
  3  4  1  0  0  0
  3  6  1  0  0  0
  3  7  1  0  0  0
  4  5  1  0  0  0
  5 12  1  0  0  0
  7  8  1  0  0  0
  7  9  1  0  0  0
  7 10  1  0  0  0
 10 11  1  0  0  0
 10 12  1  0  0  0
 11 17  1  0  0  0
 12 13  1  0  0  0
 13 14  1  0  0  0
 13 15  1  0  0  0
 13 16  1  0  0  0
 14 20  1  0  0  0
 16 17  1  0  0  0
 16 18  1  0  0  0
 18 19  1  0  0  0
 19 20  1  0  0  0
 19 21  1  0  0  0
  9 22  1  0  0  0
 21 23  1  0  0  0
M  END
> <minimizedAffinity>
-11.59876

$$$$
1LNM_DTX_A_700


 29 33  0  0  0  0  0  0  0  0999 V2000
   11.2853  -25.3416   37.0837 C   0  0  0  0  0  0  0  0  0  0  0  0
   11.0029  -25.4149   38.6325 C   0  0  0  0  0  0  0  0  0  0  0  0
    9.9528  -25.0874   36.3804 C   0  0  0  0  0  0  0  0  0  0  0  0
    9.4639  -26.4435   35.7885 C   0  0  0  0  0  0  0  0  0  0  0  0
    7.9923  -26.4990   35.4000 C   0  0  0  0  0  0  0  0  0  0  0  0
   10.0421  -24.0369   35.2784 C   0  0  0  0  0  0  0  0  0  0  0  0
    8.9688  -24.7663   37.5714 C   0  0  0  0  0  0  0  0  0  0  0  0
    9.4931  -25.6430   38.6849 C   0  0  0  0  0  0  0  0  0  0  0  0
    9.2748  -23.4249   38.0610 O   0  0  0  0  0  0  0  0  0  0  0  0
    7.4642  -24.8105   37.2118 C   0  0  0  0  0  0  0  0  0  0  0  0
    6.6086  -24.3873   38.4088 C   0  0  0  0  0  0  0  0  0  0  0  0
    7.0417  -26.1841   36.5882 C   0  0  0  0  0  0  0  0  0  0  0  0
    5.5251  -26.1734   36.2293 C   0  0  0  0  0  0  0  0  0  0  0  0
    5.1166  -27.5797   35.7075 C   0  0  0  0  0  0  0  0  0  0  0  0
    5.1513  -25.2327   35.0363 C   0  0  0  0  0  0  0  0  0  0  0  0
    4.7452  -25.8957   37.4967 C   0  0  0  0  0  0  0  0  0  0  0  0
    5.0948  -24.5571   38.1637 C   0  0  0  0  0  0  0  0  0  0  0  0
    4.9441  -27.0150   38.5305 C   0  0  0  0  0  0  0  0  0  0  0  0
    4.6039  -28.3920   37.9886 C   0  0  0  0  0  0  0  0  0  0  0  0
    5.4062  -28.6686   36.7326 C   0  0  0  0  0  0  0  0  0  0  0  0
    3.1828  -28.4086   37.6584 O   0  0  0  0  0  0  0  0  0  0  0  0
   10.2150  -23.3723   38.2936 H   0  0  0  0  0  0  0  0  0  0  0  0
    2.9969  -27.7252   36.9956 H   0  0  0  0  0  0  0  0  0  0  0  0
   14.1053  -21.4412   36.1077 O   0  0  0  0  0  0  0  0  0  0  0  0
   13.6365  -22.4708   36.4442 C   0  0  0  0  0  0  0  0  0  0  0  0
   12.3384  -23.1136   36.2172 C   0  0  0  0  0  0  0  0  0  0  0  0
   14.4285  -23.3204   37.2087 O   0  0  0  0  0  0  0  0  0  0  0  0
   13.6658  -24.5115   37.5048 C   0  0  0  0  0  0  0  0  0  0  0  0
   12.3530  -24.3197   36.8424 C   0  0  0  0  0  0  0  0  0  0  0  0
 24 25  2  0  0  0
 25 26  1  0  0  0
 25 27  1  0  0  0
 26 29  2  0  0  0
 27 28  1  0  0  0
 28 29  1  0  0  0
 29  1  1  0  0  0
  1  2  1  0  0  0
  1  3  1  0  0  0
  2  8  1  0  0  0
  3  4  1  0  0  0
  3  6  1  0  0  0
  3  7  1  0  0  0
  4  5  1  0  0  0
  5 12  1  0  0  0
  7  8  1  0  0  0
  7  9  1  0  0  0
  7 10  1  0  0  0
 10 11  1  0  0  0
 10 12  1  0  0  0
 11 17  1  0  0  0
 12 13  1  0  0  0
 13 14  1  0  0  0
 13 15  1  0  0  0
 13 16  1  0  0  0
 14 20  1  0  0  0
 16 17  1  0  0  0
 16 18  1  0  0  0
 18 19  1  0  0  0
 19 20  1  0  0  0
 19 21  1  0  0  0
  9 22  1  0  0  0
 21 23  1  0  0  0
M  END
> <minimizedAffinity>
-11.11114

$$$$
