4YMB_4E7_A_301


 23 24  0  0  0  0  0  0  0  0999 V2000
   -1.0411   37.9200  -11.6010 N   0  0  0  0  0  0  0  0  0  0  0  0
   -0.3805   38.9652  -12.4152 C   0  0  0  0  0  0  0  0  0  0  0  0
    0.0347   38.2847  -13.7510 C   0  0  0  0  0  0  0  0  0  0  0  0
   -1.0770   36.6672  -12.4064 C   0  0  0  0  0  0  0  0  0  0  0  0
    0.1075   36.7852  -13.3817 C   0  0  0  0  0  0  0  0  0  0  0  0
   -0.5135   37.7648  -10.7420 H   0  0  0  0  0  0  0  0  0  0  0  0
    3.7496   39.9509  -15.3404 C   0  0  0  0  0  0  0  0  0  0  0  0
    2.6372   39.7408  -16.1985 C   0  0  0  0  0  0  0  0  0  0  0  0
    3.6416   39.5939  -13.9768 C   0  0  0  0  0  0  0  0  0  0  0  0
    1.3140   38.8631  -14.3311 C   0  0  0  0  0  0  0  0  0  0  0  0
    1.4277   39.2151  -15.6952 C   0  0  0  0  0  0  0  0  0  0  0  0
    2.4302   39.0538  -13.4864 C   0  0  0  0  0  0  0  0  0  0  0  0
    4.7694   39.7446  -13.0226 C   0  0  0  0  0  0  0  0  0  0  0  0
    5.0726   40.9134  -12.7067 O   0  0  0  0  0  0  0  0  0  0  0  0
    5.3716   38.7478  -12.5644 O   0  0  0  0  0  0  0  0  0  0  0  0
    4.5985   41.6351  -13.0706 H   0  0  0  0  0  0  0  0  0  0  0  0
   -1.3861   40.1329  -12.5792 C   0  0  0  0  0  0  0  0  0  0  0  0
   -2.4118   40.1939  -11.8612 O   0  0  0  0  0  0  0  0  0  0  0  0
   -1.1308   40.9968  -13.4246 O   0  0  0  0  0  0  0  0  0  0  0  0
   -2.5807   39.5245  -11.2277 H   0  0  0  0  0  0  0  0  0  0  0  0
    0.0996   35.7585  -14.5512 C   0  0  0  0  0  0  0  0  0  0  0  0
   -0.1841   34.3073  -14.1097 C   0  0  0  0  0  0  0  0  0  0  0  0
    0.6079   33.2738  -14.9314 C   0  0  0  0  0  0  0  0  0  0  0  0
  8 11  2  0  0  0
  8  7  1  0  0  0
 11 10  1  0  0  0
 23 22  1  0  0  0
  7  9  2  0  0  0
 21 22  1  0  0  0
 21  5  1  0  0  0
 10  3  1  0  0  0
 10 12  2  0  0  0
  9 12  1  0  0  0
  9 13  1  0  0  0
  3  5  1  0  0  0
  3  2  1  0  0  0
  5  4  1  0  0  0
 19 17  2  0  0  0
 13 15  2  0  0  0
 13 14  1  0  0  0
  4  1  1  0  0  0
 17  2  1  0  0  0
 17 18  1  0  0  0
  2  1  1  0  0  0
  1  6  1  0  0  0
 18 20  1  0  0  0
 14 16  1  0  0  0
M  END
> <minimizedAffinity>
-9.22865

$$$$
4YMB_4E7_A_301


 23 24  0  0  0  0  0  0  0  0999 V2000
    2.4866   38.1305  -18.1725 N   0  0  0  0  0  0  0  0  0  0  0  0
    1.2065   37.9761  -17.4452 C   0  0  0  0  0  0  0  0  0  0  0  0
    1.2004   39.0617  -16.3310 C   0  0  0  0  0  0  0  0  0  0  0  0
    3.2178   39.2817  -17.5727 C   0  0  0  0  0  0  0  0  0  0  0  0
    2.7007   39.3733  -16.1262 C   0  0  0  0  0  0  0  0  0  0  0  0
    3.0427   37.2804  -18.0797 H   0  0  0  0  0  0  0  0  0  0  0  0
   -0.9300   37.8575  -12.7097 C   0  0  0  0  0  0  0  0  0  0  0  0
   -0.3526   36.8751  -13.5579 C   0  0  0  0  0  0  0  0  0  0  0  0
   -0.8226   39.2212  -13.0665 C   0  0  0  0  0  0  0  0  0  0  0  0
    0.4637   38.6143  -15.0801 C   0  0  0  0  0  0  0  0  0  0  0  0
    0.3487   37.2515  -14.7236 C   0  0  0  0  0  0  0  0  0  0  0  0
   -0.1308   39.5861  -14.2447 C   0  0  0  0  0  0  0  0  0  0  0  0
   -1.4311   40.3066  -12.2561 C   0  0  0  0  0  0  0  0  0  0  0  0
   -2.5581   40.0702  -11.7745 O   0  0  0  0  0  0  0  0  0  0  0  0
   -0.8358   41.3914  -12.0699 O   0  0  0  0  0  0  0  0  0  0  0  0
   -2.9729   39.2456  -11.9357 H   0  0  0  0  0  0  0  0  0  0  0  0
    0.0623   38.1176  -18.4808 C   0  0  0  0  0  0  0  0  0  0  0  0
   -0.4857   37.0997  -18.9653 O   0  0  0  0  0  0  0  0  0  0  0  0
   -0.2923   39.2591  -18.7932 O   0  0  0  0  0  0  0  0  0  0  0  0
   -0.1965   36.2457  -18.7104 H   0  0  0  0  0  0  0  0  0  0  0  0
    3.0632   40.6911  -15.3818 C   0  0  0  0  0  0  0  0  0  0  0  0
    4.0394   40.4968  -14.2025 C   0  0  0  0  0  0  0  0  0  0  0  0
    3.4746   39.5647  -13.1150 C   0  0  0  0  0  0  0  0  0  0  0  0
  8 11  2  0  0  0
  8  7  1  0  0  0
 11 10  1  0  0  0
 23 22  1  0  0  0
  7  9  2  0  0  0
 21 22  1  0  0  0
 21  5  1  0  0  0
 10  3  1  0  0  0
 10 12  2  0  0  0
  9 12  1  0  0  0
  9 13  1  0  0  0
  3  5  1  0  0  0
  3  2  1  0  0  0
  5  4  1  0  0  0
 19 17  2  0  0  0
 13 15  2  0  0  0
 13 14  1  0  0  0
  4  1  1  0  0  0
 17  2  1  0  0  0
 17 18  1  0  0  0
  2  1  1  0  0  0
  1  6  1  0  0  0
 18 20  1  0  0  0
 14 16  1  0  0  0
M  END
> <minimizedAffinity>
-8.44833

$$$$
4YMB_4E7_A_301


 23 24  0  0  0  0  0  0  0  0999 V2000
    2.4906   35.8100  -12.8736 N   0  0  0  0  0  0  0  0  0  0  0  0
    1.4751   36.5516  -13.6549 C   0  0  0  0  0  0  0  0  0  0  0  0
    2.2162   37.7507  -14.3128 C   0  0  0  0  0  0  0  0  0  0  0  0
    3.8037   36.4849  -13.0727 C   0  0  0  0  0  0  0  0  0  0  0  0
    3.4551   37.9456  -13.4088 C   0  0  0  0  0  0  0  0  0  0  0  0
    2.2421   35.8201  -11.8844 H   0  0  0  0  0  0  0  0  0  0  0  0
   -0.3571   41.2669  -14.6549 C   0  0  0  0  0  0  0  0  0  0  0  0
    0.4175   40.8387  -15.7660 C   0  0  0  0  0  0  0  0  0  0  0  0
   -0.2651   40.5530  -13.4381 C   0  0  0  0  0  0  0  0  0  0  0  0
    1.3324   38.9774  -14.4595 C   0  0  0  0  0  0  0  0  0  0  0  0
    1.2429   39.6975  -15.6724 C   0  0  0  0  0  0  0  0  0  0  0  0
    0.5767   39.4200  -13.3510 C   0  0  0  0  0  0  0  0  0  0  0  0
   -1.0106   40.9575  -12.2193 C   0  0  0  0  0  0  0  0  0  0  0  0
   -0.5257   41.9029  -11.5641 O   0  0  0  0  0  0  0  0  0  0  0  0
   -2.0670   40.3785  -11.8806 O   0  0  0  0  0  0  0  0  0  0  0  0
    0.2676   42.3120  -11.8490 H   0  0  0  0  0  0  0  0  0  0  0  0
    0.8468   35.5577  -14.6645 C   0  0  0  0  0  0  0  0  0  0  0  0
    1.4138   34.4698  -14.9218 O   0  0  0  0  0  0  0  0  0  0  0  0
   -0.2282   35.8712  -15.1864 O   0  0  0  0  0  0  0  0  0  0  0  0
    2.2289   34.2577  -14.5113 H   0  0  0  0  0  0  0  0  0  0  0  0
    4.6332   38.7868  -13.9803 C   0  0  0  0  0  0  0  0  0  0  0  0
    4.8103   40.1607  -13.3003 C   0  0  0  0  0  0  0  0  0  0  0  0
    5.8227   41.0581  -14.0356 C   0  0  0  0  0  0  0  0  0  0  0  0
  8 11  2  0  0  0
  8  7  1  0  0  0
 11 10  1  0  0  0
 23 22  1  0  0  0
  7  9  2  0  0  0
 21 22  1  0  0  0
 21  5  1  0  0  0
 10  3  1  0  0  0
 10 12  2  0  0  0
  9 12  1  0  0  0
  9 13  1  0  0  0
  3  5  1  0  0  0
  3  2  1  0  0  0
  5  4  1  0  0  0
 19 17  2  0  0  0
 13 15  2  0  0  0
 13 14  1  0  0  0
  4  1  1  0  0  0
 17  2  1  0  0  0
 17 18  1  0  0  0
  2  1  1  0  0  0
  1  6  1  0  0  0
 18 20  1  0  0  0
 14 16  1  0  0  0
M  END
> <minimizedAffinity>
-8.40377

$$$$
4YMB_4E7_A_301


 23 24  0  0  0  0  0  0  0  0999 V2000
    1.0808   34.5644  -14.2013 N   0  0  0  0  0  0  0  0  0  0  0  0
    0.8595   35.8005  -13.4174 C   0  0  0  0  0  0  0  0  0  0  0  0
    0.6098   36.9370  -14.4499 C   0  0  0  0  0  0  0  0  0  0  0  0
    0.9302   34.9043  -15.6440 C   0  0  0  0  0  0  0  0  0  0  0  0
    1.2733   36.4014  -15.7395 C   0  0  0  0  0  0  0  0  0  0  0  0
    2.0195   34.2061  -14.0258 H   0  0  0  0  0  0  0  0  0  0  0  0
    2.1773   40.7763  -13.0695 C   0  0  0  0  0  0  0  0  0  0  0  0
    0.8153   40.6589  -13.4556 C   0  0  0  0  0  0  0  0  0  0  0  0
    3.0165   39.6421  -13.1595 C   0  0  0  0  0  0  0  0  0  0  0  0
    1.1280   38.2841  -13.9763 C   0  0  0  0  0  0  0  0  0  0  0  0
    0.2937   39.4217  -13.8913 C   0  0  0  0  0  0  0  0  0  0  0  0
    2.4870   38.4113  -13.6118 C   0  0  0  0  0  0  0  0  0  0  0  0
    4.4597   39.6899  -12.8130 C   0  0  0  0  0  0  0  0  0  0  0  0
    4.9798   40.8238  -12.7709 O   0  0  0  0  0  0  0  0  0  0  0  0
    5.1064   38.6455  -12.5745 O   0  0  0  0  0  0  0  0  0  0  0  0
    4.4633   41.5834  -12.9557 H   0  0  0  0  0  0  0  0  0  0  0  0
   -0.3286   35.5373  -12.4578 C   0  0  0  0  0  0  0  0  0  0  0  0
   -0.9734   36.4939  -11.9675 O   0  0  0  0  0  0  0  0  0  0  0  0
   -0.6191   34.3621  -12.2115 O   0  0  0  0  0  0  0  0  0  0  0  0
   -0.7310   37.3758  -12.1715 H   0  0  0  0  0  0  0  0  0  0  0  0
    0.8787   37.0808  -17.0830 C   0  0  0  0  0  0  0  0  0  0  0  0
    1.8048   38.2456  -17.4922 C   0  0  0  0  0  0  0  0  0  0  0  0
    1.0699   39.5979  -17.5354 C   0  0  0  0  0  0  0  0  0  0  0  0
  8 11  2  0  0  0
  8  7  1  0  0  0
 11 10  1  0  0  0
 23 22  1  0  0  0
  7  9  2  0  0  0
 21 22  1  0  0  0
 21  5  1  0  0  0
 10  3  1  0  0  0
 10 12  2  0  0  0
  9 12  1  0  0  0
  9 13  1  0  0  0
  3  5  1  0  0  0
  3  2  1  0  0  0
  5  4  1  0  0  0
 19 17  2  0  0  0
 13 15  2  0  0  0
 13 14  1  0  0  0
  4  1  1  0  0  0
 17  2  1  0  0  0
 17 18  1  0  0  0
  2  1  1  0  0  0
  1  6  1  0  0  0
 18 20  1  0  0  0
 14 16  1  0  0  0
M  END
> <minimizedAffinity>
-8.22706

$$$$
4YMB_4E7_A_301


 23 24  0  0  0  0  0  0  0  0999 V2000
   -1.0024   37.9733  -11.6563 N   0  0  0  0  0  0  0  0  0  0  0  0
   -0.4910   39.1204  -12.4399 C   0  0  0  0  0  0  0  0  0  0  0  0
   -0.1737   38.5750  -13.8618 C   0  0  0  0  0  0  0  0  0  0  0  0
   -1.0454   36.7870  -12.5566 C   0  0  0  0  0  0  0  0  0  0  0  0
    0.0250   37.0597  -13.6280 C   0  0  0  0  0  0  0  0  0  0  0  0
   -0.3822   37.7879  -10.8681 H   0  0  0  0  0  0  0  0  0  0  0  0
    3.1990   40.5627  -15.8051 C   0  0  0  0  0  0  0  0  0  0  0  0
    2.9209   40.8066  -14.4335 C   0  0  0  0  0  0  0  0  0  0  0  0
    2.3583   39.6881  -16.5310 C   0  0  0  0  0  0  0  0  0  0  0  0
    1.0036   39.2814  -14.5118 C   0  0  0  0  0  0  0  0  0  0  0  0
    1.8423   40.1614  -13.7910 C   0  0  0  0  0  0  0  0  0  0  0  0
    1.2714   39.0588  -15.8810 C   0  0  0  0  0  0  0  0  0  0  0  0
    2.5564   39.4102  -17.9762 C   0  0  0  0  0  0  0  0  0  0  0  0
    2.8596   38.2371  -18.2761 O   0  0  0  0  0  0  0  0  0  0  0  0
    2.4199   40.3089  -18.8362 O   0  0  0  0  0  0  0  0  0  0  0  0
    2.9529   37.5909  -17.6040 H   0  0  0  0  0  0  0  0  0  0  0  0
   -1.5755   40.2271  -12.4080 C   0  0  0  0  0  0  0  0  0  0  0  0
   -2.5981   40.0943  -11.6954 O   0  0  0  0  0  0  0  0  0  0  0  0
   -1.3858   41.2377  -13.0928 O   0  0  0  0  0  0  0  0  0  0  0  0
   -2.7164   39.3168  -11.1858 H   0  0  0  0  0  0  0  0  0  0  0  0
   -0.0405   36.1285  -14.8732 C   0  0  0  0  0  0  0  0  0  0  0  0
    0.8348   34.8629  -14.7564 C   0  0  0  0  0  0  0  0  0  0  0  0
    0.0658   33.6643  -14.1711 C   0  0  0  0  0  0  0  0  0  0  0  0
  8 11  2  0  0  0
  8  7  1  0  0  0
 11 10  1  0  0  0
 23 22  1  0  0  0
  7  9  2  0  0  0
 21 22  1  0  0  0
 21  5  1  0  0  0
 10  3  1  0  0  0
 10 12  2  0  0  0
  9 12  1  0  0  0
  9 13  1  0  0  0
  3  5  1  0  0  0
  3  2  1  0  0  0
  5  4  1  0  0  0
 19 17  2  0  0  0
 13 15  2  0  0  0
 13 14  1  0  0  0
  4  1  1  0  0  0
 17  2  1  0  0  0
 17 18  1  0  0  0
  2  1  1  0  0  0
  1  6  1  0  0  0
 18 20  1  0  0  0
 14 16  1  0  0  0
M  END
> <minimizedAffinity>
-8.21157

$$$$
4YMB_4E7_A_301


 23 24  0  0  0  0  0  0  0  0999 V2000
    3.8676   40.5772  -13.9349 N   0  0  0  0  0  0  0  0  0  0  0  0
    3.3478   39.3095  -13.3744 C   0  0  0  0  0  0  0  0  0  0  0  0
    2.3725   38.7264  -14.4368 C   0  0  0  0  0  0  0  0  0  0  0  0
    3.2828   40.7504  -15.2942 C   0  0  0  0  0  0  0  0  0  0  0  0
    1.9590   39.9665  -15.2622 C   0  0  0  0  0  0  0  0  0  0  0  0
    3.5943   41.3579  -13.3380 H   0  0  0  0  0  0  0  0  0  0  0  0
   -0.9062   36.4422  -12.6662 C   0  0  0  0  0  0  0  0  0  0  0  0
   -0.9996   37.8553  -12.7776 C   0  0  0  0  0  0  0  0  0  0  0  0
    0.2673   35.7944  -13.1155 C   0  0  0  0  0  0  0  0  0  0  0  0
    1.2188   37.9583  -13.8151 C   0  0  0  0  0  0  0  0  0  0  0  0
    0.0469   38.6033  -13.3588 C   0  0  0  0  0  0  0  0  0  0  0  0
    1.3159   36.5552  -13.6824 C   0  0  0  0  0  0  0  0  0  0  0  0
    0.4607   34.3267  -12.9994 C   0  0  0  0  0  0  0  0  0  0  0  0
    0.4313   33.6800  -14.0666 O   0  0  0  0  0  0  0  0  0  0  0  0
    0.6461   33.7808  -11.8887 O   0  0  0  0  0  0  0  0  0  0  0  0
    0.2899   34.1238  -14.8796 H   0  0  0  0  0  0  0  0  0  0  0  0
    4.5662   38.4043  -13.0613 C   0  0  0  0  0  0  0  0  0  0  0  0
    4.6772   37.2788  -13.6017 O   0  0  0  0  0  0  0  0  0  0  0  0
    5.4188   38.8383  -12.2796 O   0  0  0  0  0  0  0  0  0  0  0  0
    4.0152   36.9746  -14.1909 H   0  0  0  0  0  0  0  0  0  0  0  0
    1.3107   39.7160  -16.6547 C   0  0  0  0  0  0  0  0  0  0  0  0
    2.0351   38.6477  -17.5006 C   0  0  0  0  0  0  0  0  0  0  0  0
    1.1882   37.3774  -17.7000 C   0  0  0  0  0  0  0  0  0  0  0  0
  8 11  2  0  0  0
  8  7  1  0  0  0
 11 10  1  0  0  0
 23 22  1  0  0  0
  7  9  2  0  0  0
 21 22  1  0  0  0
 21  5  1  0  0  0
 10  3  1  0  0  0
 10 12  2  0  0  0
  9 12  1  0  0  0
  9 13  1  0  0  0
  3  5  1  0  0  0
  3  2  1  0  0  0
  5  4  1  0  0  0
 19 17  2  0  0  0
 13 15  2  0  0  0
 13 14  1  0  0  0
  4  1  1  0  0  0
 17  2  1  0  0  0
 17 18  1  0  0  0
  2  1  1  0  0  0
  1  6  1  0  0  0
 18 20  1  0  0  0
 14 16  1  0  0  0
M  END
> <minimizedAffinity>
-8.20004

$$$$
4YMB_4E7_A_301


 23 24  0  0  0  0  0  0  0  0999 V2000
   -0.5710   42.0100  -14.4889 N   0  0  0  0  0  0  0  0  0  0  0  0
   -0.4065   40.8216  -13.6216 C   0  0  0  0  0  0  0  0  0  0  0  0
    0.4551   39.8064  -14.4259 C   0  0  0  0  0  0  0  0  0  0  0  0
    0.1875   41.7662  -15.7478 C   0  0  0  0  0  0  0  0  0  0  0  0
    0.2357   40.2352  -15.8949 C   0  0  0  0  0  0  0  0  0  0  0  0
   -1.5588   42.1502  -14.7009 H   0  0  0  0  0  0  0  0  0  0  0  0
   -0.5308   35.6255  -13.6186 C   0  0  0  0  0  0  0  0  0  0  0  0
   -1.0904   36.6578  -12.8192 C   0  0  0  0  0  0  0  0  0  0  0  0
    0.3617   35.9708  -14.6593 C   0  0  0  0  0  0  0  0  0  0  0  0
    0.0967   38.3620  -14.1211 C   0  0  0  0  0  0  0  0  0  0  0  0
   -0.7900   38.0126  -13.0774 C   0  0  0  0  0  0  0  0  0  0  0  0
    0.6675   37.3304  -14.8995 C   0  0  0  0  0  0  0  0  0  0  0  0
    1.0198   34.9510  -15.5148 C   0  0  0  0  0  0  0  0  0  0  0  0
    1.1114   33.8029  -15.0337 O   0  0  0  0  0  0  0  0  0  0  0  0
    1.4507   35.2376  -16.6542 O   0  0  0  0  0  0  0  0  0  0  0  0
    0.7769   33.6261  -14.1765 H   0  0  0  0  0  0  0  0  0  0  0  0
    0.2398   41.2981  -12.2960 C   0  0  0  0  0  0  0  0  0  0  0  0
   -0.4006   42.0279  -11.5032 O   0  0  0  0  0  0  0  0  0  0  0  0
    1.3905   40.9219  -12.0498 O   0  0  0  0  0  0  0  0  0  0  0  0
   -1.2722   42.2984  -11.7155 H   0  0  0  0  0  0  0  0  0  0  0  0
    1.2482   39.7090  -16.9532 C   0  0  0  0  0  0  0  0  0  0  0  0
    0.6218   39.4297  -18.3357 C   0  0  0  0  0  0  0  0  0  0  0  0
    0.3511   37.9322  -18.5703 C   0  0  0  0  0  0  0  0  0  0  0  0
  8 11  2  0  0  0
  8  7  1  0  0  0
 11 10  1  0  0  0
 23 22  1  0  0  0
  7  9  2  0  0  0
 21 22  1  0  0  0
 21  5  1  0  0  0
 10  3  1  0  0  0
 10 12  2  0  0  0
  9 12  1  0  0  0
  9 13  1  0  0  0
  3  5  1  0  0  0
  3  2  1  0  0  0
  5  4  1  0  0  0
 19 17  2  0  0  0
 13 15  2  0  0  0
 13 14  1  0  0  0
  4  1  1  0  0  0
 17  2  1  0  0  0
 17 18  1  0  0  0
  2  1  1  0  0  0
  1  6  1  0  0  0
 18 20  1  0  0  0
 14 16  1  0  0  0
M  END
> <minimizedAffinity>
-7.72652

$$$$
4YMB_4E7_A_301


 23 24  0  0  0  0  0  0  0  0999 V2000
    4.8575   37.6508  -14.0342 N   0  0  0  0  0  0  0  0  0  0  0  0
    4.4593   39.0507  -14.3047 C   0  0  0  0  0  0  0  0  0  0  0  0
    2.9813   39.1851  -13.8384 C   0  0  0  0  0  0  0  0  0  0  0  0
    3.7034   36.9629  -13.3905 C   0  0  0  0  0  0  0  0  0  0  0  0
    2.4605   37.7300  -13.8750 C   0  0  0  0  0  0  0  0  0  0  0  0
    5.0959   37.1831  -14.9088 H   0  0  0  0  0  0  0  0  0  0  0  0
    0.6833   42.0649  -16.1897 C   0  0  0  0  0  0  0  0  0  0  0  0
    1.1872   40.8855  -16.8004 C   0  0  0  0  0  0  0  0  0  0  0  0
    0.9548   42.2996  -14.8222 C   0  0  0  0  0  0  0  0  0  0  0  0
    2.1879   40.1696  -14.6803 C   0  0  0  0  0  0  0  0  0  0  0  0
    1.9201   39.9415  -16.0492 C   0  0  0  0  0  0  0  0  0  0  0  0
    1.7030   41.3544  -14.0829 C   0  0  0  0  0  0  0  0  0  0  0  0
    0.4985   43.5252  -14.1188 C   0  0  0  0  0  0  0  0  0  0  0  0
   -0.1300   44.3551  -14.8074 O   0  0  0  0  0  0  0  0  0  0  0  0
    0.7332   43.7027  -12.9025 O   0  0  0  0  0  0  0  0  0  0  0  0
   -0.2866   44.1874  -15.7159 H   0  0  0  0  0  0  0  0  0  0  0  0
    5.4527   39.9715  -13.5515 C   0  0  0  0  0  0  0  0  0  0  0  0
    6.6812   39.9135  -13.7933 O   0  0  0  0  0  0  0  0  0  0  0  0
    4.9883   40.7641  -12.7253 O   0  0  0  0  0  0  0  0  0  0  0  0
    7.0060   39.3025  -14.4250 H   0  0  0  0  0  0  0  0  0  0  0  0
    1.1510   37.4184  -13.0938 C   0  0  0  0  0  0  0  0  0  0  0  0
   -0.1384   37.7623  -13.8689 C   0  0  0  0  0  0  0  0  0  0  0  0
   -0.9554   38.8780  -13.1919 C   0  0  0  0  0  0  0  0  0  0  0  0
  8 11  2  0  0  0
  8  7  1  0  0  0
 11 10  1  0  0  0
 23 22  1  0  0  0
  7  9  2  0  0  0
 21 22  1  0  0  0
 21  5  1  0  0  0
 10  3  1  0  0  0
 10 12  2  0  0  0
  9 12  1  0  0  0
  9 13  1  0  0  0
  3  5  1  0  0  0
  3  2  1  0  0  0
  5  4  1  0  0  0
 19 17  2  0  0  0
 13 15  2  0  0  0
 13 14  1  0  0  0
  4  1  1  0  0  0
 17  2  1  0  0  0
 17 18  1  0  0  0
  2  1  1  0  0  0
  1  6  1  0  0  0
 18 20  1  0  0  0
 14 16  1  0  0  0
M  END
> <minimizedAffinity>
-7.70777

$$$$
4YMB_4E7_A_301


 23 24  0  0  0  0  0  0  0  0999 V2000
    4.2431   37.7255  -13.6504 N   0  0  0  0  0  0  0  0  0  0  0  0
    4.2685   38.9567  -14.4718 C   0  0  0  0  0  0  0  0  0  0  0  0
    2.7841   39.3553  -14.7123 C   0  0  0  0  0  0  0  0  0  0  0  0
    2.8192   37.4012  -13.3556 C   0  0  0  0  0  0  0  0  0  0  0  0
    2.0195   38.0267  -14.5121 C   0  0  0  0  0  0  0  0  0  0  0  0
    4.6744   36.9571  -14.1642 H   0  0  0  0  0  0  0  0  0  0  0  0
    2.1421   41.3469  -18.5495 C   0  0  0  0  0  0  0  0  0  0  0  0
    2.3791   39.9471  -18.5029 C   0  0  0  0  0  0  0  0  0  0  0  0
    2.1390   42.0831  -17.3425 C   0  0  0  0  0  0  0  0  0  0  0  0
    2.5665   40.0215  -16.0600 C   0  0  0  0  0  0  0  0  0  0  0  0
    2.5754   39.2899  -17.2692 C   0  0  0  0  0  0  0  0  0  0  0  0
    2.3520   41.4168  -16.1134 C   0  0  0  0  0  0  0  0  0  0  0  0
    1.9383   43.5540  -17.3075 C   0  0  0  0  0  0  0  0  0  0  0  0
    2.7756   44.2402  -17.9287 O   0  0  0  0  0  0  0  0  0  0  0  0
    0.9772   44.0649  -16.6900 O   0  0  0  0  0  0  0  0  0  0  0  0
    3.4824   43.8217  -18.3796 H   0  0  0  0  0  0  0  0  0  0  0  0
    5.0967   40.0150  -13.6997 C   0  0  0  0  0  0  0  0  0  0  0  0
    4.5256   40.8663  -12.9784 O   0  0  0  0  0  0  0  0  0  0  0  0
    6.3264   39.9758  -13.8114 O   0  0  0  0  0  0  0  0  0  0  0  0
    3.5909   40.8730  -12.9122 H   0  0  0  0  0  0  0  0  0  0  0  0
    0.4835   38.1129  -14.2769 C   0  0  0  0  0  0  0  0  0  0  0  0
    0.0798   39.0262  -13.1002 C   0  0  0  0  0  0  0  0  0  0  0  0
   -0.5972   40.3278  -13.5676 C   0  0  0  0  0  0  0  0  0  0  0  0
  8 11  2  0  0  0
  8  7  1  0  0  0
 11 10  1  0  0  0
 23 22  1  0  0  0
  7  9  2  0  0  0
 21 22  1  0  0  0
 21  5  1  0  0  0
 10  3  1  0  0  0
 10 12  2  0  0  0
  9 12  1  0  0  0
  9 13  1  0  0  0
  3  5  1  0  0  0
  3  2  1  0  0  0
  5  4  1  0  0  0
 19 17  2  0  0  0
 13 15  2  0  0  0
 13 14  1  0  0  0
  4  1  1  0  0  0
 17  2  1  0  0  0
 17 18  1  0  0  0
  2  1  1  0  0  0
  1  6  1  0  0  0
 18 20  1  0  0  0
 14 16  1  0  0  0
M  END
> <minimizedAffinity>
-7.57329

$$$$
4YMB_4E7_A_301


 23 24  0  0  0  0  0  0  0  0999 V2000
   -0.9557   42.9701  -15.7945 N   0  0  0  0  0  0  0  0  0  0  0  0
    0.0132   42.4250  -14.8169 C   0  0  0  0  0  0  0  0  0  0  0  0
    1.0612   41.6208  -15.6385 C   0  0  0  0  0  0  0  0  0  0  0  0
   -0.5079   42.5659  -17.1567 C   0  0  0  0  0  0  0  0  0  0  0  0
    0.3067   41.2778  -16.9435 C   0  0  0  0  0  0  0  0  0  0  0  0
   -1.8849   42.5927  -15.6089 H   0  0  0  0  0  0  0  0  0  0  0  0
    2.7025   38.2153  -13.4450 C   0  0  0  0  0  0  0  0  0  0  0  0
    1.4325   38.1143  -14.0734 C   0  0  0  0  0  0  0  0  0  0  0  0
    3.4117   39.4358  -13.5230 C   0  0  0  0  0  0  0  0  0  0  0  0
    1.6060   40.4221  -14.8810 C   0  0  0  0  0  0  0  0  0  0  0  0
    0.8968   39.2026  -14.7953 C   0  0  0  0  0  0  0  0  0  0  0  0
    2.8588   40.5246  -14.2361 C   0  0  0  0  0  0  0  0  0  0  0  0
    4.7260   39.6365  -12.8616 C   0  0  0  0  0  0  0  0  0  0  0  0
    5.0665   40.8200  -12.6583 O   0  0  0  0  0  0  0  0  0  0  0  0
    5.4413   38.6655  -12.5276 O   0  0  0  0  0  0  0  0  0  0  0  0
    4.5041   41.5213  -12.9227 H   0  0  0  0  0  0  0  0  0  0  0  0
    0.6023   43.6217  -14.0279 C   0  0  0  0  0  0  0  0  0  0  0  0
    0.6173   44.7694  -14.5316 O   0  0  0  0  0  0  0  0  0  0  0  0
    1.0367   43.4033  -12.8921 O   0  0  0  0  0  0  0  0  0  0  0  0
    0.2811   44.9063  -15.3954 H   0  0  0  0  0  0  0  0  0  0  0  0
    1.1586   40.8299  -18.1665 C   0  0  0  0  0  0  0  0  0  0  0  0
    0.9982   39.3386  -18.5299 C   0  0  0  0  0  0  0  0  0  0  0  0
    2.2143   38.4935  -18.1088 C   0  0  0  0  0  0  0  0  0  0  0  0
  8 11  2  0  0  0
  8  7  1  0  0  0
 11 10  1  0  0  0
 23 22  1  0  0  0
  7  9  2  0  0  0
 21 22  1  0  0  0
 21  5  1  0  0  0
 10  3  1  0  0  0
 10 12  2  0  0  0
  9 12  1  0  0  0
  9 13  1  0  0  0
  3  5  1  0  0  0
  3  2  1  0  0  0
  5  4  1  0  0  0
 19 17  2  0  0  0
 13 15  2  0  0  0
 13 14  1  0  0  0
  4  1  1  0  0  0
 17  2  1  0  0  0
 17 18  1  0  0  0
  2  1  1  0  0  0
  1  6  1  0  0  0
 18 20  1  0  0  0
 14 16  1  0  0  0
M  END
> <minimizedAffinity>
-7.50830

$$$$
