4DA5_0H7_A_502


 23 26  0  0  0  0  0  0  0  0999 V2000
  -11.9938  -14.1534    7.2778 O   0  0  0  0  0  0  0  0  0  0  0  0
  -10.5702  -13.9741    7.2274 C   0  0  0  0  0  0  0  0  0  0  0  0
  -12.4304  -13.3916    6.8655 H   0  0  0  0  0  0  0  0  0  0  0  0
   -9.8209  -15.1825    7.8832 C   0  0  0  0  0  0  0  0  0  0  0  0
  -10.4381  -15.5438    9.2473 C   0  0  0  0  0  0  0  0  0  0  0  0
  -10.9332  -16.9392    9.2115 N   0  0  0  0  0  0  0  0  0  0  0  0
  -11.9554  -17.1102    8.1527 C   0  0  0  0  0  0  0  0  0  0  0  0
  -11.2922  -16.9338    6.7698 C   0  0  0  0  0  0  0  0  0  0  0  0
   -9.8347  -16.4593    6.9710 C   0  0  0  0  0  0  0  0  0  0  0  0
   -9.0801  -17.5886    7.7049 C   0  0  0  0  0  0  0  0  0  0  0  0
   -9.8219  -17.9002    9.0243 C   0  0  0  0  0  0  0  0  0  0  0  0
  -10.1187  -13.8221    5.8231 C   0  0  0  0  0  0  0  0  0  0  0  0
   -8.8953  -13.4338    5.4598 C   0  0  0  0  0  0  0  0  0  0  0  0
   -8.7154  -13.2907    4.1063 C   0  0  0  0  0  0  0  0  0  0  0  0
   -9.8063  -13.4942    3.3832 C   0  0  0  0  0  0  0  0  0  0  0  0
   -9.8836  -13.3639    1.6699 Cl  0  0  0  0  0  0  0  0  0  0  0  0
  -11.1531  -13.9365    4.4198 S   0  0  0  0  0  0  0  0  0  0  0  0
  -10.2386  -12.6625    7.9069 C   0  0  0  0  0  0  0  0  0  0  0  0
   -9.0899  -12.3908    8.5430 C   0  0  0  0  0  0  0  0  0  0  0  0
   -9.0173  -11.1345    9.1136 C   0  0  0  0  0  0  0  0  0  0  0  0
  -10.1382  -10.4102    9.0139 C   0  0  0  0  0  0  0  0  0  0  0  0
  -10.3687   -8.7876    9.6177 Cl  0  0  0  0  0  0  0  0  0  0  0  0
  -11.3483  -11.3272    8.1333 S   0  0  0  0  0  0  0  0  0  0  0  0
 22 21  1  0  0  0
 20 21  2  0  0  0
 20 19  1  0  0  0
 21 23  1  0  0  0
 19 18  2  0  0  0
 23 18  1  0  0  0
 18  2  1  0  0  0
 17 15  1  0  0  0
 17 12  1  0  0  0
 16 15  1  0  0  0
  1  2  1  0  0  0
 15 14  2  0  0  0
  2 12  1  0  0  0
  2  4  1  0  0  0
 12 13  2  0  0  0
 14 13  1  0  0  0
  5  4  1  0  0  0
  5  6  1  0  0  0
  4  9  1  0  0  0
  7  6  1  0  0  0
  7  8  1  0  0  0
  6 11  1  0  0  0
  8  9  1  0  0  0
  9 10  1  0  0  0
 11 10  1  0  0  0
  1  3  1  0  0  0
M  END
> <minimizedAffinity>
-7.88438

$$$$
4DA5_0H7_A_502


 23 26  0  0  0  0  0  0  0  0999 V2000
  -11.9486  -14.6942    6.4770 O   0  0  0  0  0  0  0  0  0  0  0  0
  -10.5716  -14.7650    6.8774 C   0  0  0  0  0  0  0  0  0  0  0  0
  -12.5141  -14.6805    7.2650 H   0  0  0  0  0  0  0  0  0  0  0  0
   -9.6184  -14.7895    5.6354 C   0  0  0  0  0  0  0  0  0  0  0  0
  -10.2497  -15.5692    4.4668 C   0  0  0  0  0  0  0  0  0  0  0  0
  -10.3961  -14.6730    3.2968 N   0  0  0  0  0  0  0  0  0  0  0  0
  -11.2522  -13.5095    3.6262 C   0  0  0  0  0  0  0  0  0  0  0  0
  -10.5310  -12.6227    4.6640 C   0  0  0  0  0  0  0  0  0  0  0  0
   -9.2502  -13.3476    5.1372 C   0  0  0  0  0  0  0  0  0  0  0  0
   -8.3175  -13.4799    3.9143 C   0  0  0  0  0  0  0  0  0  0  0  0
   -9.0772  -14.2248    2.7935 C   0  0  0  0  0  0  0  0  0  0  0  0
  -10.2244  -13.6084    7.7381 C   0  0  0  0  0  0  0  0  0  0  0  0
   -9.0672  -13.4688    8.3867 C   0  0  0  0  0  0  0  0  0  0  0  0
   -8.9859  -12.3549    9.1850 C   0  0  0  0  0  0  0  0  0  0  0  0
  -10.0962  -11.6345    9.2365 C   0  0  0  0  0  0  0  0  0  0  0  0
  -10.2917  -10.2025   10.1689 Cl  0  0  0  0  0  0  0  0  0  0  0  0
  -11.3291  -12.3369    8.2019 S   0  0  0  0  0  0  0  0  0  0  0  0
  -10.3998  -15.9897    7.7507 C   0  0  0  0  0  0  0  0  0  0  0  0
   -9.4427  -16.9169    7.6013 C   0  0  0  0  0  0  0  0  0  0  0  0
   -9.4952  -17.9654    8.4997 C   0  0  0  0  0  0  0  0  0  0  0  0
  -10.5438  -17.9368    9.3307 C   0  0  0  0  0  0  0  0  0  0  0  0
  -10.8921  -19.1025   10.5839 Cl  0  0  0  0  0  0  0  0  0  0  0  0
  -11.5093  -16.5084    9.0019 S   0  0  0  0  0  0  0  0  0  0  0  0
 22 21  1  0  0  0
 20 21  2  0  0  0
 20 19  1  0  0  0
 21 23  1  0  0  0
 19 18  2  0  0  0
 23 18  1  0  0  0
 18  2  1  0  0  0
 17 15  1  0  0  0
 17 12  1  0  0  0
 16 15  1  0  0  0
  1  2  1  0  0  0
 15 14  2  0  0  0
  2 12  1  0  0  0
  2  4  1  0  0  0
 12 13  2  0  0  0
 14 13  1  0  0  0
  5  4  1  0  0  0
  5  6  1  0  0  0
  4  9  1  0  0  0
  7  6  1  0  0  0
  7  8  1  0  0  0
  6 11  1  0  0  0
  8  9  1  0  0  0
  9 10  1  0  0  0
 11 10  1  0  0  0
  1  3  1  0  0  0
M  END
> <minimizedAffinity>
-7.67717

$$$$
4DA5_0H7_A_502


 23 26  0  0  0  0  0  0  0  0999 V2000
  -11.2027  -11.9055    6.2800 O   0  0  0  0  0  0  0  0  0  0  0  0
  -11.0834  -13.3244    6.4638 C   0  0  0  0  0  0  0  0  0  0  0  0
  -11.3746  -11.4820    7.1356 H   0  0  0  0  0  0  0  0  0  0  0  0
  -10.8049  -14.0526    5.1059 C   0  0  0  0  0  0  0  0  0  0  0  0
  -11.4237  -13.2808    3.9253 C   0  0  0  0  0  0  0  0  0  0  0  0
  -10.3548  -12.8835    2.9803 N   0  0  0  0  0  0  0  0  0  0  0  0
   -9.3489  -12.0265    3.6501 C   0  0  0  0  0  0  0  0  0  0  0  0
   -8.5943  -12.8579    4.7096 C   0  0  0  0  0  0  0  0  0  0  0  0
   -9.2711  -14.2422    4.8340 C   0  0  0  0  0  0  0  0  0  0  0  0
   -9.1035  -14.9602    3.4776 C   0  0  0  0  0  0  0  0  0  0  0  0
   -9.7081  -14.0680    2.3700 C   0  0  0  0  0  0  0  0  0  0  0  0
   -9.9895  -13.6310    7.4169 C   0  0  0  0  0  0  0  0  0  0  0  0
   -9.7409  -14.8416    7.9188 C   0  0  0  0  0  0  0  0  0  0  0  0
   -8.7242  -14.8847    8.8402 C   0  0  0  0  0  0  0  0  0  0  0  0
   -8.1997  -13.7046    9.1342 C   0  0  0  0  0  0  0  0  0  0  0  0
   -6.9298  -13.4521   10.2665 Cl  0  0  0  0  0  0  0  0  0  0  0  0
   -8.9694  -12.4409    8.1883 S   0  0  0  0  0  0  0  0  0  0  0  0
  -12.3519  -13.8197    7.1253 C   0  0  0  0  0  0  0  0  0  0  0  0
  -13.2501  -14.6380    6.5582 C   0  0  0  0  0  0  0  0  0  0  0  0
  -14.3486  -14.9374    7.3411 C   0  0  0  0  0  0  0  0  0  0  0  0
  -14.3877  -14.2984    8.5163 C   0  0  0  0  0  0  0  0  0  0  0  0
  -15.6290  -14.4641    9.7337 Cl  0  0  0  0  0  0  0  0  0  0  0  0
  -12.9623  -13.2869    8.6775 S   0  0  0  0  0  0  0  0  0  0  0  0
 22 21  1  0  0  0
 20 21  2  0  0  0
 20 19  1  0  0  0
 21 23  1  0  0  0
 19 18  2  0  0  0
 23 18  1  0  0  0
 18  2  1  0  0  0
 17 15  1  0  0  0
 17 12  1  0  0  0
 16 15  1  0  0  0
  1  2  1  0  0  0
 15 14  2  0  0  0
  2 12  1  0  0  0
  2  4  1  0  0  0
 12 13  2  0  0  0
 14 13  1  0  0  0
  5  4  1  0  0  0
  5  6  1  0  0  0
  4  9  1  0  0  0
  7  6  1  0  0  0
  7  8  1  0  0  0
  6 11  1  0  0  0
  8  9  1  0  0  0
  9 10  1  0  0  0
 11 10  1  0  0  0
  1  3  1  0  0  0
M  END
> <minimizedAffinity>
-7.64682

$$$$
4DA5_0H7_A_502


 23 26  0  0  0  0  0  0  0  0999 V2000
   -9.7260  -14.4826    8.4178 O   0  0  0  0  0  0  0  0  0  0  0  0
  -10.5759  -15.4048    7.7188 C   0  0  0  0  0  0  0  0  0  0  0  0
   -9.8675  -13.5872    8.0726 H   0  0  0  0  0  0  0  0  0  0  0  0
  -10.3818  -16.8672    8.2435 C   0  0  0  0  0  0  0  0  0  0  0  0
   -8.8943  -17.1705    8.5036 C   0  0  0  0  0  0  0  0  0  0  0  0
   -8.7029  -17.5162    9.9310 N   0  0  0  0  0  0  0  0  0  0  0  0
   -9.1343  -16.4021   10.8070 C   0  0  0  0  0  0  0  0  0  0  0  0
  -10.6629  -16.2215   10.6879 C   0  0  0  0  0  0  0  0  0  0  0  0
  -11.1887  -17.1404    9.5613 C   0  0  0  0  0  0  0  0  0  0  0  0
  -10.9278  -18.5983    9.9970 C   0  0  0  0  0  0  0  0  0  0  0  0
   -9.4183  -18.7643   10.2833 C   0  0  0  0  0  0  0  0  0  0  0  0
  -11.9981  -15.0142    7.8730 C   0  0  0  0  0  0  0  0  0  0  0  0
  -13.0004  -15.5040    7.1416 C   0  0  0  0  0  0  0  0  0  0  0  0
  -14.2284  -14.9490    7.4036 C   0  0  0  0  0  0  0  0  0  0  0  0
  -14.2084  -13.9669    8.2921 C   0  0  0  0  0  0  0  0  0  0  0  0
  -15.5901  -13.0766    8.7986 Cl  0  0  0  0  0  0  0  0  0  0  0  0
  -12.5771  -13.7199    8.8935 S   0  0  0  0  0  0  0  0  0  0  0  0
  -10.2784  -15.2870    6.2390 C   0  0  0  0  0  0  0  0  0  0  0  0
  -10.1113  -16.3196    5.4001 C   0  0  0  0  0  0  0  0  0  0  0  0
   -9.8204  -15.9744    4.0942 C   0  0  0  0  0  0  0  0  0  0  0  0
   -9.6691  -14.6614    3.8841 C   0  0  0  0  0  0  0  0  0  0  0  0
   -9.3107  -13.9017    2.3528 Cl  0  0  0  0  0  0  0  0  0  0  0  0
   -9.9326  -13.7962    5.3883 S   0  0  0  0  0  0  0  0  0  0  0  0
 22 21  1  0  0  0
 20 21  2  0  0  0
 20 19  1  0  0  0
 21 23  1  0  0  0
 19 18  2  0  0  0
 23 18  1  0  0  0
 18  2  1  0  0  0
 17 15  1  0  0  0
 17 12  1  0  0  0
 16 15  1  0  0  0
  1  2  1  0  0  0
 15 14  2  0  0  0
  2 12  1  0  0  0
  2  4  1  0  0  0
 12 13  2  0  0  0
 14 13  1  0  0  0
  5  4  1  0  0  0
  5  6  1  0  0  0
  4  9  1  0  0  0
  7  6  1  0  0  0
  7  8  1  0  0  0
  6 11  1  0  0  0
  8  9  1  0  0  0
  9 10  1  0  0  0
 11 10  1  0  0  0
  1  3  1  0  0  0
M  END
> <minimizedAffinity>
-7.20325

$$$$
4DA5_0H7_A_502


 23 26  0  0  0  0  0  0  0  0999 V2000
  -10.1200  -17.6162    7.8582 O   0  0  0  0  0  0  0  0  0  0  0  0
  -10.3871  -16.2235    7.6336 C   0  0  0  0  0  0  0  0  0  0  0  0
  -10.6740  -18.1509    7.2683 H   0  0  0  0  0  0  0  0  0  0  0  0
   -9.5134  -15.3189    8.5663 C   0  0  0  0  0  0  0  0  0  0  0  0
  -10.3891  -14.5544    9.5767 C   0  0  0  0  0  0  0  0  0  0  0  0
   -9.9944  -14.9282   10.9545 N   0  0  0  0  0  0  0  0  0  0  0  0
  -10.1548  -16.3847   11.1734 C   0  0  0  0  0  0  0  0  0  0  0  0
   -9.1403  -17.1477   10.2947 C   0  0  0  0  0  0  0  0  0  0  0  0
   -8.4355  -16.1415    9.3562 C   0  0  0  0  0  0  0  0  0  0  0  0
   -7.6352  -15.1656   10.2452 C   0  0  0  0  0  0  0  0  0  0  0  0
   -8.6060  -14.5057   11.2502 C   0  0  0  0  0  0  0  0  0  0  0  0
  -10.1209  -15.8688    6.2186 C   0  0  0  0  0  0  0  0  0  0  0  0
  -10.0651  -16.7474    5.2164 C   0  0  0  0  0  0  0  0  0  0  0  0
   -9.7334  -16.2095    3.9976 C   0  0  0  0  0  0  0  0  0  0  0  0
   -9.4541  -14.9151    4.0268 C   0  0  0  0  0  0  0  0  0  0  0  0
   -8.9884  -13.9829    2.6584 Cl  0  0  0  0  0  0  0  0  0  0  0  0
   -9.6485  -14.2844    5.6542 S   0  0  0  0  0  0  0  0  0  0  0  0
  -11.8687  -15.9910    7.8408 C   0  0  0  0  0  0  0  0  0  0  0  0
  -12.6826  -16.7832    8.5535 C   0  0  0  0  0  0  0  0  0  0  0  0
  -14.0067  -16.3894    8.5843 C   0  0  0  0  0  0  0  0  0  0  0  0
  -14.2894  -15.3212    7.8293 C   0  0  0  0  0  0  0  0  0  0  0  0
  -15.8569  -14.5698    7.6602 Cl  0  0  0  0  0  0  0  0  0  0  0  0
  -12.8211  -14.7487    7.0565 S   0  0  0  0  0  0  0  0  0  0  0  0
 22 21  1  0  0  0
 20 21  2  0  0  0
 20 19  1  0  0  0
 21 23  1  0  0  0
 19 18  2  0  0  0
 23 18  1  0  0  0
 18  2  1  0  0  0
 17 15  1  0  0  0
 17 12  1  0  0  0
 16 15  1  0  0  0
  1  2  1  0  0  0
 15 14  2  0  0  0
  2 12  1  0  0  0
  2  4  1  0  0  0
 12 13  2  0  0  0
 14 13  1  0  0  0
  5  4  1  0  0  0
  5  6  1  0  0  0
  4  9  1  0  0  0
  7  6  1  0  0  0
  7  8  1  0  0  0
  6 11  1  0  0  0
  8  9  1  0  0  0
  9 10  1  0  0  0
 11 10  1  0  0  0
  1  3  1  0  0  0
M  END
> <minimizedAffinity>
-7.14142

$$$$
4DA5_0H7_A_502


 23 26  0  0  0  0  0  0  0  0999 V2000
  -11.4881  -12.6328    6.1007 O   0  0  0  0  0  0  0  0  0  0  0  0
  -10.7766  -13.8410    6.4093 C   0  0  0  0  0  0  0  0  0  0  0  0
  -11.9131  -12.2937    6.9040 H   0  0  0  0  0  0  0  0  0  0  0  0
  -10.0723  -14.4268    5.1394 C   0  0  0  0  0  0  0  0  0  0  0  0
  -11.0599  -14.5487    3.9638 C   0  0  0  0  0  0  0  0  0  0  0  0
  -10.5828  -13.7232    2.8304 N   0  0  0  0  0  0  0  0  0  0  0  0
  -10.4672  -12.2999    3.2251 C   0  0  0  0  0  0  0  0  0  0  0  0
   -9.3416  -12.1501    4.2711 C   0  0  0  0  0  0  0  0  0  0  0  0
   -8.8492  -13.5571    4.6808 C   0  0  0  0  0  0  0  0  0  0  0  0
   -8.2310  -14.2118    3.4268 C   0  0  0  0  0  0  0  0  0  0  0  0
   -9.2928  -14.2254    2.3039 C   0  0  0  0  0  0  0  0  0  0  0  0
   -9.7606  -13.5876    7.4593 C   0  0  0  0  0  0  0  0  0  0  0  0
   -9.2214  -14.5307    8.2333 C   0  0  0  0  0  0  0  0  0  0  0  0
   -8.3537  -14.0639    9.1892 C   0  0  0  0  0  0  0  0  0  0  0  0
   -8.2450  -12.7446    9.2343 C   0  0  0  0  0  0  0  0  0  0  0  0
   -7.2509  -11.8813   10.3409 Cl  0  0  0  0  0  0  0  0  0  0  0  0
   -9.2416  -12.0064    7.9909 S   0  0  0  0  0  0  0  0  0  0  0  0
  -11.7576  -14.8201    7.0184 C   0  0  0  0  0  0  0  0  0  0  0  0
  -12.8524  -14.4837    7.7158 C   0  0  0  0  0  0  0  0  0  0  0  0
  -13.5891  -15.5469    8.2016 C   0  0  0  0  0  0  0  0  0  0  0  0
  -13.0515  -16.7506    7.9709 C   0  0  0  0  0  0  0  0  0  0  0  0
  -13.7350  -18.2872    8.4424 Cl  0  0  0  0  0  0  0  0  0  0  0  0
  -11.5571  -16.5587    7.0705 S   0  0  0  0  0  0  0  0  0  0  0  0
 22 21  1  0  0  0
 20 21  2  0  0  0
 20 19  1  0  0  0
 21 23  1  0  0  0
 19 18  2  0  0  0
 23 18  1  0  0  0
 18  2  1  0  0  0
 17 15  1  0  0  0
 17 12  1  0  0  0
 16 15  1  0  0  0
  1  2  1  0  0  0
 15 14  2  0  0  0
  2 12  1  0  0  0
  2  4  1  0  0  0
 12 13  2  0  0  0
 14 13  1  0  0  0
  5  4  1  0  0  0
  5  6  1  0  0  0
  4  9  1  0  0  0
  7  6  1  0  0  0
  7  8  1  0  0  0
  6 11  1  0  0  0
  8  9  1  0  0  0
  9 10  1  0  0  0
 11 10  1  0  0  0
  1  3  1  0  0  0
M  END
> <minimizedAffinity>
-6.73272

$$$$
4DA5_0H7_A_502


 23 26  0  0  0  0  0  0  0  0999 V2000
  -13.5114  -14.3731    6.7123 O   0  0  0  0  0  0  0  0  0  0  0  0
  -12.1470  -14.7887    6.8770 C   0  0  0  0  0  0  0  0  0  0  0  0
  -13.5340  -13.4750    6.3467 H   0  0  0  0  0  0  0  0  0  0  0  0
  -12.0605  -16.2368    7.4663 C   0  0  0  0  0  0  0  0  0  0  0  0
  -11.1435  -16.2787    8.7030 C   0  0  0  0  0  0  0  0  0  0  0  0
  -11.9193  -16.7390    9.8777 N   0  0  0  0  0  0  0  0  0  0  0  0
  -13.0598  -15.8324   10.1462 C   0  0  0  0  0  0  0  0  0  0  0  0
  -14.0760  -15.9338    8.9884 C   0  0  0  0  0  0  0  0  0  0  0  0
  -13.4683  -16.8042    7.8645 C   0  0  0  0  0  0  0  0  0  0  0  0
  -13.2752  -18.2252    8.4361 C   0  0  0  0  0  0  0  0  0  0  0  0
  -12.3904  -18.1319    9.6996 C   0  0  0  0  0  0  0  0  0  0  0  0
  -11.4343  -14.7458    5.5773 C   0  0  0  0  0  0  0  0  0  0  0  0
  -10.5841  -15.6806    5.1498 C   0  0  0  0  0  0  0  0  0  0  0  0
   -9.9815  -15.4037    3.9477 C   0  0  0  0  0  0  0  0  0  0  0  0
  -10.2892  -14.2200    3.4394 C   0  0  0  0  0  0  0  0  0  0  0  0
   -9.6694  -13.5985    1.9603 Cl  0  0  0  0  0  0  0  0  0  0  0  0
  -11.4346  -13.3877    4.4784 S   0  0  0  0  0  0  0  0  0  0  0  0
  -11.4508  -13.7733    7.7580 C   0  0  0  0  0  0  0  0  0  0  0  0
  -12.0669  -12.8300    8.4850 C   0  0  0  0  0  0  0  0  0  0  0  0
  -11.2270  -11.9934    9.1948 C   0  0  0  0  0  0  0  0  0  0  0  0
   -9.9221  -12.2015    8.9830 C   0  0  0  0  0  0  0  0  0  0  0  0
   -8.6087  -11.3264    9.7311 Cl  0  0  0  0  0  0  0  0  0  0  0  0
   -9.7192  -13.5347    7.8596 S   0  0  0  0  0  0  0  0  0  0  0  0
 22 21  1  0  0  0
 20 21  2  0  0  0
 20 19  1  0  0  0
 21 23  1  0  0  0
 19 18  2  0  0  0
 23 18  1  0  0  0
 18  2  1  0  0  0
 17 15  1  0  0  0
 17 12  1  0  0  0
 16 15  1  0  0  0
  1  2  1  0  0  0
 15 14  2  0  0  0
  2 12  1  0  0  0
  2  4  1  0  0  0
 12 13  2  0  0  0
 14 13  1  0  0  0
  5  4  1  0  0  0
  5  6  1  0  0  0
  4  9  1  0  0  0
  7  6  1  0  0  0
  7  8  1  0  0  0
  6 11  1  0  0  0
  8  9  1  0  0  0
  9 10  1  0  0  0
 11 10  1  0  0  0
  1  3  1  0  0  0
M  END
> <minimizedAffinity>
-6.72708

$$$$
4DA5_0H7_A_502


 23 26  0  0  0  0  0  0  0  0999 V2000
  -12.0516  -15.0772    9.4600 O   0  0  0  0  0  0  0  0  0  0  0  0
  -12.8317  -15.8601    8.5435 C   0  0  0  0  0  0  0  0  0  0  0  0
  -12.4728  -15.0875   10.3338 H   0  0  0  0  0  0  0  0  0  0  0  0
  -12.1887  -15.8727    7.1158 C   0  0  0  0  0  0  0  0  0  0  0  0
  -11.6630  -14.4769    6.7318 C   0  0  0  0  0  0  0  0  0  0  0  0
  -10.2044  -14.5493    6.4844 N   0  0  0  0  0  0  0  0  0  0  0  0
   -9.4871  -15.0265    7.6896 C   0  0  0  0  0  0  0  0  0  0  0  0
   -9.8732  -16.4956    7.9653 C   0  0  0  0  0  0  0  0  0  0  0  0
  -11.0107  -16.9030    7.0009 C   0  0  0  0  0  0  0  0  0  0  0  0
  -10.4445  -16.8351    5.5663 C   0  0  0  0  0  0  0  0  0  0  0  0
   -9.8981  -15.4108    5.3193 C   0  0  0  0  0  0  0  0  0  0  0  0
  -12.9601  -17.2534    9.0347 C   0  0  0  0  0  0  0  0  0  0  0  0
  -13.7602  -18.1745    8.4956 C   0  0  0  0  0  0  0  0  0  0  0  0
  -13.7768  -19.3788    9.1545 C   0  0  0  0  0  0  0  0  0  0  0  0
  -13.0483  -19.4094   10.2603 C   0  0  0  0  0  0  0  0  0  0  0  0
  -12.8987  -20.7737   11.2968 Cl  0  0  0  0  0  0  0  0  0  0  0  0
  -12.2415  -17.8686   10.5034 S   0  0  0  0  0  0  0  0  0  0  0  0
  -14.2385  -15.3010    8.5291 C   0  0  0  0  0  0  0  0  0  0  0  0
  -14.8704  -14.8273    7.4455 C   0  0  0  0  0  0  0  0  0  0  0  0
  -16.1436  -14.3412    7.6735 C   0  0  0  0  0  0  0  0  0  0  0  0
  -16.5202  -14.3426    8.9577 C   0  0  0  0  0  0  0  0  0  0  0  0
  -18.0637  -13.8069    9.5750 Cl  0  0  0  0  0  0  0  0  0  0  0  0
  -15.2320  -15.0150    9.9421 S   0  0  0  0  0  0  0  0  0  0  0  0
 22 21  1  0  0  0
 20 21  2  0  0  0
 20 19  1  0  0  0
 21 23  1  0  0  0
 19 18  2  0  0  0
 23 18  1  0  0  0
 18  2  1  0  0  0
 17 15  1  0  0  0
 17 12  1  0  0  0
 16 15  1  0  0  0
  1  2  1  0  0  0
 15 14  2  0  0  0
  2 12  1  0  0  0
  2  4  1  0  0  0
 12 13  2  0  0  0
 14 13  1  0  0  0
  5  4  1  0  0  0
  5  6  1  0  0  0
  4  9  1  0  0  0
  7  6  1  0  0  0
  7  8  1  0  0  0
  6 11  1  0  0  0
  8  9  1  0  0  0
  9 10  1  0  0  0
 11 10  1  0  0  0
  1  3  1  0  0  0
M  END
> <minimizedAffinity>
-6.68313

$$$$
4DA5_0H7_A_502


 23 26  0  0  0  0  0  0  0  0999 V2000
   -9.2951  -13.9585    7.4208 O   0  0  0  0  0  0  0  0  0  0  0  0
  -10.6415  -13.4892    7.2519 C   0  0  0  0  0  0  0  0  0  0  0  0
   -9.1962  -14.3459    8.3045 H   0  0  0  0  0  0  0  0  0  0  0  0
  -10.8491  -12.8537    5.8360 C   0  0  0  0  0  0  0  0  0  0  0  0
   -9.5211  -12.3196    5.2674 C   0  0  0  0  0  0  0  0  0  0  0  0
   -9.2119  -13.0159    3.9973 N   0  0  0  0  0  0  0  0  0  0  0  0
   -9.0989  -14.4777    4.2099 C   0  0  0  0  0  0  0  0  0  0  0  0
  -10.4811  -15.0454    4.5980 C   0  0  0  0  0  0  0  0  0  0  0  0
  -11.4628  -13.8701    4.8099 C   0  0  0  0  0  0  0  0  0  0  0  0
  -11.6222  -13.1529    3.4522 C   0  0  0  0  0  0  0  0  0  0  0  0
  -10.2244  -12.7162    2.9587 C   0  0  0  0  0  0  0  0  0  0  0  0
  -11.6029  -14.6034    7.4341 C   0  0  0  0  0  0  0  0  0  0  0  0
  -12.9296  -14.4655    7.4316 C   0  0  0  0  0  0  0  0  0  0  0  0
  -13.6284  -15.6185    7.6904 C   0  0  0  0  0  0  0  0  0  0  0  0
  -12.8706  -16.6684    7.9698 C   0  0  0  0  0  0  0  0  0  0  0  0
  -13.4700  -18.2342    8.3533 Cl  0  0  0  0  0  0  0  0  0  0  0  0
  -11.1707  -16.2388    7.8709 S   0  0  0  0  0  0  0  0  0  0  0  0
  -10.9388  -12.5074    8.3653 C   0  0  0  0  0  0  0  0  0  0  0  0
  -11.3516  -11.2436    8.1911 C   0  0  0  0  0  0  0  0  0  0  0  0
  -11.5355  -10.5201    9.3537 C   0  0  0  0  0  0  0  0  0  0  0  0
  -11.1942  -11.1674   10.4742 C   0  0  0  0  0  0  0  0  0  0  0  0
  -11.3160  -10.5398   12.0996 Cl  0  0  0  0  0  0  0  0  0  0  0  0
  -10.6397  -12.7825   10.0684 S   0  0  0  0  0  0  0  0  0  0  0  0
 22 21  1  0  0  0
 20 21  2  0  0  0
 20 19  1  0  0  0
 21 23  1  0  0  0
 19 18  2  0  0  0
 23 18  1  0  0  0
 18  2  1  0  0  0
 17 15  1  0  0  0
 17 12  1  0  0  0
 16 15  1  0  0  0
  1  2  1  0  0  0
 15 14  2  0  0  0
  2 12  1  0  0  0
  2  4  1  0  0  0
 12 13  2  0  0  0
 14 13  1  0  0  0
  5  4  1  0  0  0
  5  6  1  0  0  0
  4  9  1  0  0  0
  7  6  1  0  0  0
  7  8  1  0  0  0
  6 11  1  0  0  0
  8  9  1  0  0  0
  9 10  1  0  0  0
 11 10  1  0  0  0
  1  3  1  0  0  0
M  END
> <minimizedAffinity>
-6.54401

$$$$
4DA5_0H7_A_502


 23 26  0  0  0  0  0  0  0  0999 V2000
  -10.3864  -16.9184   10.9928 O   0  0  0  0  0  0  0  0  0  0  0  0
  -11.3803  -17.0093    9.9606 C   0  0  0  0  0  0  0  0  0  0  0  0
   -9.8423  -17.7214   10.9893 H   0  0  0  0  0  0  0  0  0  0  0  0
  -12.2852  -15.7318    9.9280 C   0  0  0  0  0  0  0  0  0  0  0  0
  -12.8557  -15.4202   11.3242 C   0  0  0  0  0  0  0  0  0  0  0  0
  -12.4029  -14.0773   11.7544 N   0  0  0  0  0  0  0  0  0  0  0  0
  -10.9238  -14.0095   11.8053 C   0  0  0  0  0  0  0  0  0  0  0  0
  -10.3576  -14.1329   10.3744 C   0  0  0  0  0  0  0  0  0  0  0  0
  -11.5150  -14.4682    9.4059 C   0  0  0  0  0  0  0  0  0  0  0  0
  -12.4866  -13.2686    9.4168 C   0  0  0  0  0  0  0  0  0  0  0  0
  -12.9439  -13.0182   10.8716 C   0  0  0  0  0  0  0  0  0  0  0  0
  -10.7350  -17.1859    8.6372 C   0  0  0  0  0  0  0  0  0  0  0  0
   -9.4637  -17.5479    8.4580 C   0  0  0  0  0  0  0  0  0  0  0  0
   -9.0541  -17.5808    7.1481 C   0  0  0  0  0  0  0  0  0  0  0  0
   -9.9680  -17.1803    6.2771 C   0  0  0  0  0  0  0  0  0  0  0  0
   -9.7291  -17.0970    4.5759 Cl  0  0  0  0  0  0  0  0  0  0  0  0
  -11.4617  -16.7691    7.1041 S   0  0  0  0  0  0  0  0  0  0  0  0
  -12.1846  -18.2705   10.1942 C   0  0  0  0  0  0  0  0  0  0  0  0
  -11.7419  -19.3611   10.8365 C   0  0  0  0  0  0  0  0  0  0  0  0
  -12.6423  -20.4067   10.9081 C   0  0  0  0  0  0  0  0  0  0  0  0
  -13.7909  -20.2004   10.2529 C   0  0  0  0  0  0  0  0  0  0  0  0
  -15.1328  -21.3143   10.1585 Cl  0  0  0  0  0  0  0  0  0  0  0  0
  -13.7696  -18.6019    9.5282 S   0  0  0  0  0  0  0  0  0  0  0  0
 22 21  1  0  0  0
 20 21  2  0  0  0
 20 19  1  0  0  0
 21 23  1  0  0  0
 19 18  2  0  0  0
 23 18  1  0  0  0
 18  2  1  0  0  0
 17 15  1  0  0  0
 17 12  1  0  0  0
 16 15  1  0  0  0
  1  2  1  0  0  0
 15 14  2  0  0  0
  2 12  1  0  0  0
  2  4  1  0  0  0
 12 13  2  0  0  0
 14 13  1  0  0  0
  5  4  1  0  0  0
  5  6  1  0  0  0
  4  9  1  0  0  0
  7  6  1  0  0  0
  7  8  1  0  0  0
  6 11  1  0  0  0
  8  9  1  0  0  0
  9 10  1  0  0  0
 11 10  1  0  0  0
  1  3  1  0  0  0
M  END
> <minimizedAffinity>
-6.44224

$$$$
