3OE4_610_A_223


 38 41  0  0  0  0  0  0  0  0999 V2000
   20.5295  -30.5642   11.1545 C   0  0  0  0  0  0  0  0  0  0  0  0
   20.3743  -29.7949   10.1094 C   0  0  0  0  0  0  0  0  0  0  0  0
   20.5683  -31.2704   13.5246 C   0  0  0  0  0  0  0  0  0  0  0  0
   19.1638  -31.8422   13.5320 C   0  0  0  0  0  0  0  0  0  0  0  0
   18.2106  -30.6252   13.5167 C   0  0  0  0  0  0  0  0  0  0  0  0
   18.9778  -29.6627   12.7404 O   0  0  0  0  0  0  0  0  0  0  0  0
   20.3306  -30.0602   12.5282 C   0  0  0  0  0  0  0  0  0  0  0  0
   20.8860  -30.7457   14.8116 O   0  0  0  0  0  0  0  0  0  0  0  0
   18.8352  -32.6433   14.6657 O   0  0  0  0  0  0  0  0  0  0  0  0
   20.2011  -30.1139   15.0813 H   0  0  0  0  0  0  0  0  0  0  0  0
   18.8950  -32.1048   15.4703 H   0  0  0  0  0  0  0  0  0  0  0  0
   17.0076  -30.8546   12.7819 N   0  0  0  0  0  0  0  0  0  0  0  0
   16.8545  -31.2617   11.4234 C   0  0  0  0  0  0  0  0  0  0  0  0
   15.5809  -31.2140   11.0398 N   0  0  0  0  0  0  0  0  0  0  0  0
   15.7466  -30.5861   13.2268 C   0  0  0  0  0  0  0  0  0  0  0  0
   14.8376  -30.8068   12.1254 C   0  0  0  0  0  0  0  0  0  0  0  0
   13.5017  -30.5745   12.3318 C   0  0  0  0  0  0  0  0  0  0  0  0
   13.0554  -30.1265   13.5206 N   0  0  0  0  0  0  0  0  0  0  0  0
   13.9589  -29.9171   14.5299 C   0  0  0  0  0  0  0  0  0  0  0  0
   15.2787  -30.1317   14.4194 N   0  0  0  0  0  0  0  0  0  0  0  0
   20.5833  -30.2716    8.6957 C   0  0  0  0  0  0  0  0  0  0  0  0
   21.6361  -29.5621    8.0016 N   0  0  0  0  0  0  0  0  0  0  0  0
   22.3400  -30.0279    6.9639 C   0  0  0  0  0  0  0  0  0  0  0  0
   22.0496  -31.1480    6.4480 O   0  0  0  0  0  0  0  0  0  0  0  0
   21.8536  -28.6567    8.3212 H   0  0  0  0  0  0  0  0  0  0  0  0
   23.4469  -29.2718    6.3686 C   0  0  0  0  0  0  0  0  0  0  0  0
   23.5590  -27.8583    6.5791 C   0  0  0  0  0  0  0  0  0  0  0  0
   24.6765  -27.2389    5.9986 C   0  0  0  0  0  0  0  0  0  0  0  0
   25.6405  -27.8679    5.2712 C   0  0  0  0  0  0  0  0  0  0  0  0
   25.5115  -29.2909    5.1391 C   0  0  0  0  0  0  0  0  0  0  0  0
   24.4212  -29.9542    5.6822 C   0  0  0  0  0  0  0  0  0  0  0  0
   22.6492  -27.1029    7.2134 O   0  0  0  0  0  0  0  0  0  0  0  0
   24.7963  -25.8829    6.2101 O   0  0  0  0  0  0  0  0  0  0  0  0
   21.8985  -27.5038    7.6053 H   0  0  0  0  0  0  0  0  0  0  0  0
   24.1460  -25.4270    6.7074 H   0  0  0  0  0  0  0  0  0  0  0  0
   26.4909  -29.9780    4.3959 N   0  0  0  0  0  0  0  0  0  0  0  0
   27.1923  -29.4147    3.6073 O   0  0  0  0  0  0  0  0  0  0  0  0
   26.4981  -31.2017    4.5936 O   0  0  0  0  0  0  0  0  0  0  0  0
  3  4  1  0  0  0
  3  7  1  0  0  0
  3  8  1  0  0  0
  4  5  1  0  0  0
  4  9  1  0  0  0
  5  6  1  0  0  0
  5 12  1  0  0  0
  6  7  1  0  0  0
  7  1  1  0  0  0
  1  2  2  0  0  0
 12 13  1  0  0  0
 12 15  1  0  0  0
  2 21  1  0  0  0
 13 14  2  0  0  0
 14 16  1  0  0  0
 21 22  1  0  0  0
 22 23  1  0  0  0
 23 26  1  0  0  0
 23 24  2  0  0  0
 26 27  2  0  0  0
 26 31  1  0  0  0
 27 28  1  0  0  0
 27 32  1  0  0  0
 28 29  2  0  0  0
 28 33  1  0  0  0
 29 30  1  0  0  0
 30 31  2  0  0  0
 30 36  1  0  0  0
 36 37  2  0  0  0
 36 38  1  0  0  0
 15 16  2  0  0  0
 15 20  1  0  0  0
 16 17  1  0  0  0
 17 18  2  0  0  0
 18 19  1  0  0  0
 19 20  2  0  0  0
  8 10  1  0  0  0
  9 11  1  0  0  0
 22 25  1  0  0  0
 32 34  1  0  0  0
 33 35  1  0  0  0
M  CHG 1  36   1
M  CHG 1  38  -1
M  END
> <minimizedAffinity>
-11.39161

$$$$
3OE4_610_A_223


 38 41  0  0  0  0  0  0  0  0999 V2000
   20.9616  -32.9656   13.1773 C   0  0  0  0  0  0  0  0  0  0  0  0
   20.4693  -31.9608   13.8527 C   0  0  0  0  0  0  0  0  0  0  0  0
   22.9396  -33.4209   14.5908 C   0  0  0  0  0  0  0  0  0  0  0  0
   23.9369  -33.4400   13.4486 C   0  0  0  0  0  0  0  0  0  0  0  0
   23.6959  -34.7696   12.6977 C   0  0  0  0  0  0  0  0  0  0  0  0
   22.2640  -34.9534   12.8807 O   0  0  0  0  0  0  0  0  0  0  0  0
   21.6993  -34.0608   13.8385 C   0  0  0  0  0  0  0  0  0  0  0  0
   23.3605  -34.3152   15.6183 O   0  0  0  0  0  0  0  0  0  0  0  0
   25.3096  -33.3958   13.8341 O   0  0  0  0  0  0  0  0  0  0  0  0
   23.5134  -35.1947   15.2389 H   0  0  0  0  0  0  0  0  0  0  0  0
   25.5205  -34.1769   14.3691 H   0  0  0  0  0  0  0  0  0  0  0  0
   23.9036  -34.6720   11.2881 N   0  0  0  0  0  0  0  0  0  0  0  0
   22.9353  -34.6690   10.2406 C   0  0  0  0  0  0  0  0  0  0  0  0
   23.5119  -34.7275    9.0424 N   0  0  0  0  0  0  0  0  0  0  0  0
   25.1160  -34.6999   10.6641 C   0  0  0  0  0  0  0  0  0  0  0  0
   24.8747  -34.7406    9.2400 C   0  0  0  0  0  0  0  0  0  0  0  0
   25.9582  -34.7979    8.4010 C   0  0  0  0  0  0  0  0  0  0  0  0
   27.2104  -34.8429    8.8940 N   0  0  0  0  0  0  0  0  0  0  0  0
   27.3873  -34.8179   10.2530 C   0  0  0  0  0  0  0  0  0  0  0  0
   26.3868  -34.7482   11.1443 N   0  0  0  0  0  0  0  0  0  0  0  0
   19.7248  -30.8200   13.2093 C   0  0  0  0  0  0  0  0  0  0  0  0
   18.2979  -30.8615   13.4455 N   0  0  0  0  0  0  0  0  0  0  0  0
   17.3517  -30.9400   12.5033 C   0  0  0  0  0  0  0  0  0  0  0  0
   17.6743  -31.0751   11.2857 O   0  0  0  0  0  0  0  0  0  0  0  0
   17.9968  -30.8290   14.3823 H   0  0  0  0  0  0  0  0  0  0  0  0
   15.9217  -30.8966   12.8269 C   0  0  0  0  0  0  0  0  0  0  0  0
   15.4495  -30.1194   13.9350 C   0  0  0  0  0  0  0  0  0  0  0  0
   14.0602  -30.1148   14.1326 C   0  0  0  0  0  0  0  0  0  0  0  0
   13.1499  -30.7753   13.3650 C   0  0  0  0  0  0  0  0  0  0  0  0
   13.6698  -31.4910   12.2351 C   0  0  0  0  0  0  0  0  0  0  0  0
   15.0355  -31.5396   11.9979 C   0  0  0  0  0  0  0  0  0  0  0  0
   16.2364  -29.4776   14.8123 O   0  0  0  0  0  0  0  0  0  0  0  0
   13.6002  -29.3579   15.1878 O   0  0  0  0  0  0  0  0  0  0  0  0
   17.1656  -29.4730   14.6920 H   0  0  0  0  0  0  0  0  0  0  0  0
   14.2065  -28.8939   15.7310 H   0  0  0  0  0  0  0  0  0  0  0  0
   12.7590  -32.1849   11.4150 N   0  0  0  0  0  0  0  0  0  0  0  0
   12.3244  -31.7032   10.4099 O   0  0  0  0  0  0  0  0  0  0  0  0
   12.4170  -33.2855   11.8713 O   0  0  0  0  0  0  0  0  0  0  0  0
  3  4  1  0  0  0
  3  7  1  0  0  0
  3  8  1  0  0  0
  4  5  1  0  0  0
  4  9  1  0  0  0
  5  6  1  0  0  0
  5 12  1  0  0  0
  6  7  1  0  0  0
  7  1  1  0  0  0
  1  2  2  0  0  0
 12 13  1  0  0  0
 12 15  1  0  0  0
  2 21  1  0  0  0
 13 14  2  0  0  0
 14 16  1  0  0  0
 21 22  1  0  0  0
 22 23  1  0  0  0
 23 26  1  0  0  0
 23 24  2  0  0  0
 26 27  2  0  0  0
 26 31  1  0  0  0
 27 28  1  0  0  0
 27 32  1  0  0  0
 28 29  2  0  0  0
 28 33  1  0  0  0
 29 30  1  0  0  0
 30 31  2  0  0  0
 30 36  1  0  0  0
 36 37  2  0  0  0
 36 38  1  0  0  0
 15 16  2  0  0  0
 15 20  1  0  0  0
 16 17  1  0  0  0
 17 18  2  0  0  0
 18 19  1  0  0  0
 19 20  2  0  0  0
  8 10  1  0  0  0
  9 11  1  0  0  0
 22 25  1  0  0  0
 32 34  1  0  0  0
 33 35  1  0  0  0
M  CHG 1  36   1
M  CHG 1  38  -1
M  END
> <minimizedAffinity>
-9.66837

$$$$
3OE4_610_A_223


 38 41  0  0  0  0  0  0  0  0999 V2000
   19.8149  -29.0058   11.3348 C   0  0  0  0  0  0  0  0  0  0  0  0
   20.7711  -29.5327   10.6165 C   0  0  0  0  0  0  0  0  0  0  0  0
   20.3976  -30.6126   13.1226 C   0  0  0  0  0  0  0  0  0  0  0  0
   19.1766  -31.4922   12.9353 C   0  0  0  0  0  0  0  0  0  0  0  0
   17.9868  -30.6953   13.5177 C   0  0  0  0  0  0  0  0  0  0  0  0
   18.3824  -29.3253   13.2274 O   0  0  0  0  0  0  0  0  0  0  0  0
   19.7363  -29.2093   12.7954 C   0  0  0  0  0  0  0  0  0  0  0  0
   20.7967  -30.6204   14.4914 O   0  0  0  0  0  0  0  0  0  0  0  0
   19.2251  -32.7552   13.5967 O   0  0  0  0  0  0  0  0  0  0  0  0
   20.0419  -30.3766   15.0496 H   0  0  0  0  0  0  0  0  0  0  0  0
   19.2942  -32.6164   14.5542 H   0  0  0  0  0  0  0  0  0  0  0  0
   16.7616  -30.9089   12.8156 N   0  0  0  0  0  0  0  0  0  0  0  0
   16.5665  -31.3538   11.4744 C   0  0  0  0  0  0  0  0  0  0  0  0
   15.2870  -31.2771   11.1158 N   0  0  0  0  0  0  0  0  0  0  0  0
   15.5196  -30.5856   13.2772 C   0  0  0  0  0  0  0  0  0  0  0  0
   14.5806  -30.8117   12.2025 C   0  0  0  0  0  0  0  0  0  0  0  0
   13.2574  -30.5298   12.4287 C   0  0  0  0  0  0  0  0  0  0  0  0
   12.8514  -30.0299   13.6111 N   0  0  0  0  0  0  0  0  0  0  0  0
   13.7826  -29.8179   14.5943 C   0  0  0  0  0  0  0  0  0  0  0  0
   15.0922  -30.0785   14.4639 N   0  0  0  0  0  0  0  0  0  0  0  0
   20.8735  -29.3580    9.1236 C   0  0  0  0  0  0  0  0  0  0  0  0
   20.6975  -30.5921    8.3890 N   0  0  0  0  0  0  0  0  0  0  0  0
   21.3246  -30.9227    7.2547 C   0  0  0  0  0  0  0  0  0  0  0  0
   22.2218  -30.1656    6.7785 O   0  0  0  0  0  0  0  0  0  0  0  0
   20.0599  -31.2461    8.7565 H   0  0  0  0  0  0  0  0  0  0  0  0
   21.0273  -32.1633    6.5310 C   0  0  0  0  0  0  0  0  0  0  0  0
   21.4727  -33.4273    7.0398 C   0  0  0  0  0  0  0  0  0  0  0  0
   21.1006  -34.5547    6.2915 C   0  0  0  0  0  0  0  0  0  0  0  0
   20.3621  -34.5363    5.1477 C   0  0  0  0  0  0  0  0  0  0  0  0
   19.8931  -33.2516    4.7133 C   0  0  0  0  0  0  0  0  0  0  0  0
   20.2400  -32.1019    5.4074 C   0  0  0  0  0  0  0  0  0  0  0  0
   22.2628  -33.5868    8.1126 O   0  0  0  0  0  0  0  0  0  0  0  0
   21.5142  -35.7730    6.7841 O   0  0  0  0  0  0  0  0  0  0  0  0
   22.5186  -32.8424    8.6209 H   0  0  0  0  0  0  0  0  0  0  0  0
   22.0235  -35.8123    7.5696 H   0  0  0  0  0  0  0  0  0  0  0  0
   19.1233  -33.1916    3.5354 N   0  0  0  0  0  0  0  0  0  0  0  0
   19.6252  -33.0102    2.4647 O   0  0  0  0  0  0  0  0  0  0  0  0
   17.9027  -33.2765    3.7336 O   0  0  0  0  0  0  0  0  0  0  0  0
  3  4  1  0  0  0
  3  7  1  0  0  0
  3  8  1  0  0  0
  4  5  1  0  0  0
  4  9  1  0  0  0
  5  6  1  0  0  0
  5 12  1  0  0  0
  6  7  1  0  0  0
  7  1  1  0  0  0
  1  2  2  0  0  0
 12 13  1  0  0  0
 12 15  1  0  0  0
  2 21  1  0  0  0
 13 14  2  0  0  0
 14 16  1  0  0  0
 21 22  1  0  0  0
 22 23  1  0  0  0
 23 26  1  0  0  0
 23 24  2  0  0  0
 26 27  2  0  0  0
 26 31  1  0  0  0
 27 28  1  0  0  0
 27 32  1  0  0  0
 28 29  2  0  0  0
 28 33  1  0  0  0
 29 30  1  0  0  0
 30 31  2  0  0  0
 30 36  1  0  0  0
 36 37  2  0  0  0
 36 38  1  0  0  0
 15 16  2  0  0  0
 15 20  1  0  0  0
 16 17  1  0  0  0
 17 18  2  0  0  0
 18 19  1  0  0  0
 19 20  2  0  0  0
  8 10  1  0  0  0
  9 11  1  0  0  0
 22 25  1  0  0  0
 32 34  1  0  0  0
 33 35  1  0  0  0
M  CHG 1  36   1
M  CHG 1  38  -1
M  END
> <minimizedAffinity>
-9.31949

$$$$
3OE4_610_A_223


 38 41  0  0  0  0  0  0  0  0999 V2000
   19.5348  -30.7329   10.5276 C   0  0  0  0  0  0  0  0  0  0  0  0
   20.3059  -30.0579    9.7164 C   0  0  0  0  0  0  0  0  0  0  0  0
   20.3816  -29.5450   12.5250 C   0  0  0  0  0  0  0  0  0  0  0  0
   20.9130  -30.7836   13.2200 C   0  0  0  0  0  0  0  0  0  0  0  0
   19.6709  -31.5472   13.7337 C   0  0  0  0  0  0  0  0  0  0  0  0
   18.6859  -31.2240   12.7125 O   0  0  0  0  0  0  0  0  0  0  0  0
   19.1081  -30.1857   11.8311 C   0  0  0  0  0  0  0  0  0  0  0  0
   19.9435  -28.5948   13.4934 O   0  0  0  0  0  0  0  0  0  0  0  0
   21.7705  -30.5399   14.3337 O   0  0  0  0  0  0  0  0  0  0  0  0
   19.3098  -29.0153   14.0954 H   0  0  0  0  0  0  0  0  0  0  0  0
   21.2827  -30.0542   15.0171 H   0  0  0  0  0  0  0  0  0  0  0  0
   19.8222  -32.9669   13.6998 N   0  0  0  0  0  0  0  0  0  0  0  0
   19.3157  -33.9412   14.6104 C   0  0  0  0  0  0  0  0  0  0  0  0
   19.7971  -35.1536   14.3460 N   0  0  0  0  0  0  0  0  0  0  0  0
   20.6187  -33.6564   12.8336 C   0  0  0  0  0  0  0  0  0  0  0  0
   20.6114  -35.0427   13.2410 C   0  0  0  0  0  0  0  0  0  0  0  0
   21.3698  -35.9324   12.5236 C   0  0  0  0  0  0  0  0  0  0  0  0
   22.1211  -35.5182   11.4859 N   0  0  0  0  0  0  0  0  0  0  0  0
   22.1070  -34.1899   11.1478 C   0  0  0  0  0  0  0  0  0  0  0  0
   21.3848  -33.2555   11.7847 N   0  0  0  0  0  0  0  0  0  0  0  0
   20.7722  -30.5911    8.3867 C   0  0  0  0  0  0  0  0  0  0  0  0
   21.7898  -29.7711    7.7657 N   0  0  0  0  0  0  0  0  0  0  0  0
   22.5353  -30.1166    6.7102 C   0  0  0  0  0  0  0  0  0  0  0  0
   22.3207  -31.2109    6.1091 O   0  0  0  0  0  0  0  0  0  0  0  0
   21.9474  -28.8803    8.1543 H   0  0  0  0  0  0  0  0  0  0  0  0
   23.6027  -29.2542    6.1921 C   0  0  0  0  0  0  0  0  0  0  0  0
   23.6281  -27.8566    6.5102 C   0  0  0  0  0  0  0  0  0  0  0  0
   24.7140  -27.1309    5.9967 C   0  0  0  0  0  0  0  0  0  0  0  0
   25.7225  -27.6456    5.2404 C   0  0  0  0  0  0  0  0  0  0  0  0
   25.6798  -29.0595    4.9995 C   0  0  0  0  0  0  0  0  0  0  0  0
   24.6241  -29.8246    5.4728 C   0  0  0  0  0  0  0  0  0  0  0  0
   22.6674  -27.2059    7.1841 O   0  0  0  0  0  0  0  0  0  0  0  0
   24.7506  -25.7902    6.3115 O   0  0  0  0  0  0  0  0  0  0  0  0
   21.9370  -27.6785    7.5321 H   0  0  0  0  0  0  0  0  0  0  0  0
   24.0683  -25.4121    6.8307 H   0  0  0  0  0  0  0  0  0  0  0  0
   26.7073  -29.6300    4.2233 N   0  0  0  0  0  0  0  0  0  0  0  0
   27.4681  -28.9552    3.5932 O   0  0  0  0  0  0  0  0  0  0  0  0
   26.6929  -30.8694    4.2121 O   0  0  0  0  0  0  0  0  0  0  0  0
  3  4  1  0  0  0
  3  7  1  0  0  0
  3  8  1  0  0  0
  4  5  1  0  0  0
  4  9  1  0  0  0
  5  6  1  0  0  0
  5 12  1  0  0  0
  6  7  1  0  0  0
  7  1  1  0  0  0
  1  2  2  0  0  0
 12 13  1  0  0  0
 12 15  1  0  0  0
  2 21  1  0  0  0
 13 14  2  0  0  0
 14 16  1  0  0  0
 21 22  1  0  0  0
 22 23  1  0  0  0
 23 26  1  0  0  0
 23 24  2  0  0  0
 26 27  2  0  0  0
 26 31  1  0  0  0
 27 28  1  0  0  0
 27 32  1  0  0  0
 28 29  2  0  0  0
 28 33  1  0  0  0
 29 30  1  0  0  0
 30 31  2  0  0  0
 30 36  1  0  0  0
 36 37  2  0  0  0
 36 38  1  0  0  0
 15 16  2  0  0  0
 15 20  1  0  0  0
 16 17  1  0  0  0
 17 18  2  0  0  0
 18 19  1  0  0  0
 19 20  2  0  0  0
  8 10  1  0  0  0
  9 11  1  0  0  0
 22 25  1  0  0  0
 32 34  1  0  0  0
 33 35  1  0  0  0
M  CHG 1  36   1
M  CHG 1  38  -1
M  END
> <minimizedAffinity>
-9.01581

$$$$
3OE4_610_A_223


 38 41  0  0  0  0  0  0  0  0999 V2000
   21.2184  -33.0699   13.3615 C   0  0  0  0  0  0  0  0  0  0  0  0
   20.3762  -32.2720   13.9635 C   0  0  0  0  0  0  0  0  0  0  0  0
   23.1666  -33.6012   14.7897 C   0  0  0  0  0  0  0  0  0  0  0  0
   24.1530  -33.7463   13.6471 C   0  0  0  0  0  0  0  0  0  0  0  0
   23.8116  -35.0886   12.9604 C   0  0  0  0  0  0  0  0  0  0  0  0
   22.3713  -35.1590   13.1557 O   0  0  0  0  0  0  0  0  0  0  0  0
   21.8786  -34.1836   14.0718 C   0  0  0  0  0  0  0  0  0  0  0  0
   23.5277  -34.4745   15.8572 O   0  0  0  0  0  0  0  0  0  0  0  0
   25.5276  -33.7841   14.0265 O   0  0  0  0  0  0  0  0  0  0  0  0
   23.6140  -35.3797   15.5193 H   0  0  0  0  0  0  0  0  0  0  0  0
   25.6845  -34.5526   14.5972 H   0  0  0  0  0  0  0  0  0  0  0  0
   24.0173  -35.0727   11.5472 N   0  0  0  0  0  0  0  0  0  0  0  0
   25.0859  -34.4857   10.8067 C   0  0  0  0  0  0  0  0  0  0  0  0
   24.8549  -34.5312    9.4967 N   0  0  0  0  0  0  0  0  0  0  0  0
   23.1271  -35.5164   10.6141 C   0  0  0  0  0  0  0  0  0  0  0  0
   23.6496  -35.1714    9.3118 C   0  0  0  0  0  0  0  0  0  0  0  0
   22.9055  -35.5003    8.2075 C   0  0  0  0  0  0  0  0  0  0  0  0
   21.7085  -36.1031    8.3374 N   0  0  0  0  0  0  0  0  0  0  0  0
   21.2484  -36.3957    9.5950 C   0  0  0  0  0  0  0  0  0  0  0  0
   21.9158  -36.1230   10.7264 N   0  0  0  0  0  0  0  0  0  0  0  0
   19.6964  -31.1179   13.2739 C   0  0  0  0  0  0  0  0  0  0  0  0
   18.2655  -31.0861   13.4863 N   0  0  0  0  0  0  0  0  0  0  0  0
   17.3346  -31.0144   12.5283 C   0  0  0  0  0  0  0  0  0  0  0  0
   17.6714  -31.0578   11.3078 O   0  0  0  0  0  0  0  0  0  0  0  0
   17.9491  -31.1203   14.4179 H   0  0  0  0  0  0  0  0  0  0  0  0
   15.9045  -30.9062   12.8355 C   0  0  0  0  0  0  0  0  0  0  0  0
   15.4565  -30.1213   13.9483 C   0  0  0  0  0  0  0  0  0  0  0  0
   14.0666  -30.0522   14.1295 C   0  0  0  0  0  0  0  0  0  0  0  0
   13.1353  -30.6582   13.3423 C   0  0  0  0  0  0  0  0  0  0  0  0
   13.6342  -31.3837   12.2093 C   0  0  0  0  0  0  0  0  0  0  0  0
   14.9988  -31.4951   11.9877 C   0  0  0  0  0  0  0  0  0  0  0  0
   16.2623  -29.5295   14.8433 O   0  0  0  0  0  0  0  0  0  0  0  0
   13.6304  -29.2874   15.1891 O   0  0  0  0  0  0  0  0  0  0  0  0
   17.1921  -29.5681   14.7341 H   0  0  0  0  0  0  0  0  0  0  0  0
   14.2515  -28.8602   15.7455 H   0  0  0  0  0  0  0  0  0  0  0  0
   12.7013  -32.0223   11.3693 N   0  0  0  0  0  0  0  0  0  0  0  0
   12.9350  -32.2325   10.2150 O   0  0  0  0  0  0  0  0  0  0  0  0
   11.6213  -32.2720   11.9241 O   0  0  0  0  0  0  0  0  0  0  0  0
  3  4  1  0  0  0
  3  7  1  0  0  0
  3  8  1  0  0  0
  4  5  1  0  0  0
  4  9  1  0  0  0
  5  6  1  0  0  0
  5 12  1  0  0  0
  6  7  1  0  0  0
  7  1  1  0  0  0
  1  2  2  0  0  0
 12 13  1  0  0  0
 12 15  1  0  0  0
  2 21  1  0  0  0
 13 14  2  0  0  0
 14 16  1  0  0  0
 21 22  1  0  0  0
 22 23  1  0  0  0
 23 26  1  0  0  0
 23 24  2  0  0  0
 26 27  2  0  0  0
 26 31  1  0  0  0
 27 28  1  0  0  0
 27 32  1  0  0  0
 28 29  2  0  0  0
 28 33  1  0  0  0
 29 30  1  0  0  0
 30 31  2  0  0  0
 30 36  1  0  0  0
 36 37  2  0  0  0
 36 38  1  0  0  0
 15 16  2  0  0  0
 15 20  1  0  0  0
 16 17  1  0  0  0
 17 18  2  0  0  0
 18 19  1  0  0  0
 19 20  2  0  0  0
  8 10  1  0  0  0
  9 11  1  0  0  0
 22 25  1  0  0  0
 32 34  1  0  0  0
 33 35  1  0  0  0
M  CHG 1  36   1
M  CHG 1  38  -1
M  END
> <minimizedAffinity>
-8.84766

$$$$
