2GVJ_DGB_A_502
  RCSB PDB12061705443D
Coordinates from PDB:2GVJ:A:502 Model:1 without hydrogens
 29 31  0  0  0  0            999 V2000
   13.9340    9.1130    1.4180   O 0  0  0  0  0  0  0  0  0  0  0  0
   14.2240    3.4290   -7.4560   O 0  0  0  0  0  0  0  0  0  0  0  0
   15.0460    8.6150    3.3080   C 0  0  0  0  0  0  0  0  0  0  0  0
   14.2730    9.3540    4.1120   C 0  0  0  0  0  0  0  0  0  0  0  0
    9.4390    2.6280   -6.3300   C 0  0  0  0  0  0  0  0  0  0  0  0
   10.1700    1.7710   -7.1460   C 0  0  0  0  0  0  0  0  0  0  0  0
   10.0840    3.5880   -5.5580   C 0  0  0  0  0  0  0  0  0  0  0  0
   15.8010    8.7500    7.5060   C 0  0  0  0  0  0  0  0  0  0  0  0
   14.9600    9.5450    8.2790   C 0  0  0  0  0  0  0  0  0  0  0  0
   15.5870    8.6740    6.1390   C 0  0  0  0  0  0  0  0  0  0  0  0
   11.5590    1.8770   -7.1940   C 0  0  0  0  0  0  0  0  0  0  0  0
   11.4700    3.6920   -5.6050   C 0  0  0  0  0  0  0  0  0  0  0  0
   13.7280   10.1780    6.4030   C 0  0  0  0  0  0  0  0  0  0  0  0
   15.7740    5.8840   -0.1190   C 0  0  0  0  0  0  0  0  0  0  0  0
   15.3230    5.2590   -1.4410   C 0  0  0  0  0  0  0  0  0  0  0  0
   15.7220    7.4170   -0.0830   C 0  0  0  0  0  0  0  0  0  0  0  0
   15.9640    3.8740   -1.5860   C 0  0  0  0  0  0  0  0  0  0  0  0
   16.2090    3.5990   -4.1360   C 0  0  0  0  0  0  0  0  0  0  0  0
   14.0800    2.9240   -3.0080   C 0  0  0  0  0  0  0  0  0  0  0  0
   15.8830    2.6730   -5.3250   C 0  0  0  0  0  0  0  0  0  0  0  0
   13.7760    2.0040   -4.1890   C 0  0  0  0  0  0  0  0  0  0  0  0
   13.9480   10.2360    7.7260   N 0  0  0  0  0  0  0  0  0  0  0  0
   15.6990    7.7150    1.3430   N 0  0  0  0  0  0  0  0  0  0  0  0
   14.8440    8.5130    1.9830   C 0  0  0  0  0  0  0  0  0  0  0  0
   13.7020    2.9590   -6.4530   C 0  0  0  0  0  0  0  0  0  0  0  0
   14.5370    9.4020    5.5750   C 0  0  0  0  0  0  0  0  0  0  0  0
   12.2060    2.8390   -6.4220   C 0  0  0  0  0  0  0  0  0  0  0  0
   15.5960    3.0540   -2.8340   C 0  0  0  0  0  0  0  0  0  0  0  0
   14.4130    2.5740   -5.3820   N 0  0  0  0  0  0  0  0  0  0  0  0
  1 24  2  0  0  0  0
  2 25  2  0  0  0  0
  3  4  2  0  0  0  0
  3 24  1  0  0  0  0
  4 26  1  0  0  0  0
  5  6  2  0  0  0  0
  5  7  1  0  0  0  0
  6 11  1  0  0  0  0
  7 12  2  0  0  0  0
  8  9  2  0  0  0  0
  8 10  1  0  0  0  0
  9 22  1  0  0  0  0
 10 26  2  0  0  0  0
 11 27  2  0  0  0  0
 12 27  1  0  0  0  0
 13 22  2  0  0  0  0
 13 26  1  0  0  0  0
 14 15  1  0  0  0  0
 14 16  1  0  0  0  0
 15 17  1  0  0  0  0
 16 23  1  0  0  0  0
 17 28  1  0  0  0  0
 18 20  1  0  0  0  0
 18 28  1  0  0  0  0
 19 21  1  0  0  0  0
 19 28  1  0  0  0  0
 20 29  1  0  0  0  0
 21 29  1  0  0  0  0
 23 24  1  0  0  0  0
 25 27  1  0  0  0  0
 25 29  1  0  0  0  0
A    1
OAA
A    2
OAB
A    3
CAC
A    4
CAD
A    5
CAE
A    6
CAF
A    7
CAG
A    8
CAH
A    9
CAI
A   10
CAJ
A   11
CAK
A   12
CAL
A   13
CAM
A   14
CAN
A   15
CAO
A   16
CAP
A   17
CAQ
A   18
CAR
A   19
CAS
A   20
CAT
A   21
CAU
A   22
NAV
A   23
NAW
A   24
CAX
A   25
CAY
A   26
CAZ
A   27
CBA
A   28
CBB
A   29
NBC
M  END
>  <InstanceId>
2GVJ_DGB_A_502

>  <ChemCompId>
DGB

>  <PdbId>
2GVJ

>  <ChainId>
A

>  <ResidueNumber>
502

>  <InsertionCode>


>  <Model>
1

>  <AltIds>


>  <MissingHeavyAtoms>
0

>  <ObservedFormula>
C24 N3 O2

>  <Name>
(2E)-N-{4-[1-(benzenecarbonyl)piperidin-4-yl]butyl}-3-(pyridin-3-yl)prop-2-enamide

>  <SystematicName>
(E)-N-[4-[1-(phenylcarbonyl)piperidin-4-yl]butyl]-3-pyridin-3-yl-prop-2-enamide

>  <Synonyms>
FK-866

>  <Type>
NON-POLYMER

>  <Formula>
C24 H29 N3 O2

>  <MolecularWeight>
391.506

>  <ModifiedDate>
2016-10-31

>  <Parent>


>  <OneLetterCode>


>  <SubcomponentList>


>  <AmbiguousFlag>
N

>  <InChI>
InChI=1S/C24H29N3O2/c28-23(12-11-21-8-6-15-25-19-21)26-16-5-4-7-20-13-17-27(18-14-20)24(29)22-9-2-1-3-10-22/h1-3,6,8-12,15,19-20H,4-5,7,13-14,16-18H2,(H,26,28)/b12-11+

>  <InChIKey>
KPBNHDGDUADAGP-VAWYXSNFSA-N

>  <SMILES>
c1ccc(cc1)C(=O)N2CCC(CC2)CCCCNC(=O)/C=C/c3cccnc3

$$$$
