2R2M_I50_B_5000
  RCSB PDB12061706523D
Coordinates from PDB:2R2M:B:5000 Model:1 without hydrogens
 30 31  0  0  0  0            999 V2000
   11.2820  -11.8930   24.1440   C 0  0  0  0  0  0  0  0  0  0  0  0
   12.8320  -10.8210   22.8090   O 0  0  0  0  0  0  0  0  0  0  0  0
   13.5960  -11.6280   20.7120   C 0  0  0  0  0  0  0  0  0  0  0  0
   15.9110  -12.6250   20.6430   C 0  0  0  0  0  0  0  0  0  0  0  0
   17.4290  -12.4680   20.7380   C 0  0  0  0  0  0  0  0  0  0  0  0
   18.0500  -13.6860   21.4320   C 0  0  0  0  0  0  0  0  0  0  0  0
   17.3890  -14.3750   22.4770   C 0  0  0  0  0  0  0  0  0  0  0  0
   18.0100  -15.4820   23.0830   C 0  0  0  0  0  0  0  0  0  0  0  0
   19.2980  -15.9110   22.6540   C 0  0  0  0  0  0  0  0  0  0  0  0
   19.9610  -15.2270   21.6180   C 0  0  0  0  0  0  0  0  0  0  0  0
   17.9920  -17.4000   24.6850   C 0  0  0  0  0  0  0  0  0  0  0  0
   18.5950  -17.1030   26.0710   C 0  0  0  0  0  0  0  0  0  0  0  0
   22.2290  -15.9830   25.3400   C 0  0  0  0  0  0  0  0  0  0  0  0
   19.7770  -14.8320   26.1720   C 0  0  0  0  0  0  0  0  0  0  0  0
   11.0940  -10.7580   24.6540   N 0  0  0  0  0  0  0  0  0  0  0  0
   10.3040  -12.9490   24.3330   N 0  0  0  0  0  0  0  0  0  0  0  0
   12.3530  -12.0830   23.1850   N 0  0  0  0  0  0  0  0  0  0  0  0
   12.9150  -10.4740   21.4530   C 0  0  0  0  0  0  0  0  0  0  0  0
   15.0380  -11.4860   20.8980   N 0  0  0  0  0  0  0  0  0  0  0  0
   15.4670  -13.6050   20.1460   O 0  0  0  0  0  0  0  0  0  0  0  0
   19.3340  -14.1170   21.0090   C 0  0  0  0  0  0  0  0  0  0  0  0
   20.1610  -13.2430   19.6960  Cl 0  0  0  0  0  0  0  0  0  0  0  0
   16.1630  -13.9770   22.9160   F 0  0  0  0  0  0  0  0  0  0  0  0
   17.3490  -16.1960   24.1720   N 0  0  0  0  0  0  0  0  0  0  0  0
   19.8580  -16.2290   25.9150   C 0  0  0  0  0  0  0  0  0  0  0  0
   21.0880  -16.7970   25.4930   C 0  0  0  0  0  0  0  0  0  0  0  0
   22.1470  -14.5890   25.5970   C 0  0  0  0  0  0  0  0  0  0  0  0
   20.9160  -14.0200   26.0160   C 0  0  0  0  0  0  0  0  0  0  0  0
   17.6690  -16.4360   26.8250   F 0  0  0  0  0  0  0  0  0  0  0  0
   18.8830  -18.3030   26.6480   F 0  0  0  0  0  0  0  0  0  0  0  0
 22 21  1  0  0  0  0
 20  4  2  0  0  0  0
  4  5  1  0  0  0  0
  4 19  1  0  0  0  0
  3 19  1  0  0  0  0
  3 18  1  0  0  0  0
  5  6  1  0  0  0  0
 21  6  2  0  0  0  0
 21 10  1  0  0  0  0
  6  7  1  0  0  0  0
 18  2  1  0  0  0  0
 10  9  2  0  0  0  0
  7 23  1  0  0  0  0
  7  8  2  0  0  0  0
  9  8  1  0  0  0  0
  2 17  1  0  0  0  0
  8 24  1  0  0  0  0
 17  1  1  0  0  0  0
  1 16  1  0  0  0  0
  1 15  2  0  0  0  0
 24 11  1  0  0  0  0
 11 12  1  0  0  0  0
 13 26  2  0  0  0  0
 13 27  1  0  0  0  0
 26 25  1  0  0  0  0
 27 28  2  0  0  0  0
 25 12  1  0  0  0  0
 25 14  2  0  0  0  0
 28 14  1  0  0  0  0
 12 30  1  0  0  0  0
 12 29  1  0  0  0  0
A    1
C1
A    2
O5
A    3
C7
A    4
C9
A    5
C11
A    6
C12
A    7
C13
A    8
C14
A    9
C15
A   10
C16
A   11
C21
A   12
C24
A   13
C27
A   14
C30
A   15
N2
A   16
N3
A   17
N4
A   18
C6
A   19
N8
A   20
O10
A   21
C17
A   22
CL18
A   23
F19
A   24
N20
A   25
C25
A   26
C26
A   27
C28
A   28
C29
A   29
F31
A   30
F32
M  END
>  <InstanceId>
2R2M_I50_B_5000

>  <ChemCompId>
I50

>  <PdbId>
2R2M

>  <ChainId>
B

>  <ResidueNumber>
5000

>  <InsertionCode>


>  <Model>
1

>  <AltIds>


>  <MissingHeavyAtoms>
0

>  <ObservedFormula>
C19 N5 O2 F3 Cl

>  <Name>
N-[2-({[amino(imino)methyl]amino}oxy)ethyl]-2-{6-chloro-3-[(2,2-difluoro-2-phenylethyl)amino]-2-fluorophenyl}acetamide

>  <SystematicName>
N-(2-carbamimidamidooxyethyl)-2-[6-chloro-3-[(2,2-difluoro-2-phenyl-ethyl)amino]-2-fluoro-phenyl]ethanamide

>  <Synonyms>


>  <Type>
NON-POLYMER

>  <Formula>
C19 H21 Cl F3 N5 O2

>  <MolecularWeight>
443.851

>  <ModifiedDate>
2011-06-04

>  <Parent>


>  <OneLetterCode>


>  <SubcomponentList>


>  <AmbiguousFlag>


>  <InChI>
InChI=1S/C19H21ClF3N5O2/c20-14-6-7-15(27-11-19(22,23)12-4-2-1-3-5-12)17(21)13(14)10-16(29)26-8-9-30-28-18(24)25/h1-7,27H,8-11H2,(H,26,29)(H4,24,25,28)

>  <InChIKey>
DZEJHPMTDNDECN-UHFFFAOYSA-N

>  <SMILES>
[H]/N=C(/N)\NOCCNC(=O)Cc1c(ccc(c1F)NCC(c2ccccc2)(F)F)Cl

$$$$
