2R2M_I50_B_5000


 36 37  0  0  0  0  0  0  0  0999 V2000
   18.2349  -13.6660   21.5130 C   0  0  0  0  0  0  0  0  0  0  0  0
   17.5428  -14.4167   22.4934 C   0  0  0  0  0  0  0  0  0  0  0  0
   18.0618  -15.6530   22.9184 C   0  0  0  0  0  0  0  0  0  0  0  0
   19.2780  -16.1514   22.3711 C   0  0  0  0  0  0  0  0  0  0  0  0
   19.9719  -15.4071   21.3989 C   0  0  0  0  0  0  0  0  0  0  0  0
   19.4472  -14.1668   20.9717 C   0  0  0  0  0  0  0  0  0  0  0  0
   20.3142  -13.2150   19.7412 Cl  0  0  0  0  0  0  0  0  0  0  0  0
   16.3852  -13.9566   23.0433 F   0  0  0  0  0  0  0  0  0  0  0  0
   17.3686  -16.4343   23.9391 N   0  0  0  0  0  0  0  0  0  0  0  0
   16.4060  -16.3125   24.1060 H   0  0  0  0  0  0  0  0  0  0  0  0
   18.1492  -17.4005   24.7027 C   0  0  0  0  0  0  0  0  0  0  0  0
   18.5097  -16.7941   26.0721 C   0  0  0  0  0  0  0  0  0  0  0  0
   17.4612  -16.0334   26.5113 F   0  0  0  0  0  0  0  0  0  0  0  0
   18.7173  -17.8332   26.9282 F   0  0  0  0  0  0  0  0  0  0  0  0
   20.8520  -13.7110   26.0165 C   0  0  0  0  0  0  0  0  0  0  0  0
   21.0203  -16.5148   25.6433 C   0  0  0  0  0  0  0  0  0  0  0  0
   19.7671  -15.9086   25.9367 C   0  0  0  0  0  0  0  0  0  0  0  0
   19.6919  -14.5045   26.1280 C   0  0  0  0  0  0  0  0  0  0  0  0
   22.1021  -14.3171   25.7235 C   0  0  0  0  0  0  0  0  0  0  0  0
   22.1781  -15.7219   25.5353 C   0  0  0  0  0  0  0  0  0  0  0  0
   17.7248  -12.3086   21.0153 C   0  0  0  0  0  0  0  0  0  0  0  0
   16.3087  -12.4442   20.4545 C   0  0  0  0  0  0  0  0  0  0  0  0
   15.1866  -11.8077   21.1329 N   0  0  0  0  0  0  0  0  0  0  0  0
   16.1658  -12.8721   19.3586 O   0  0  0  0  0  0  0  0  0  0  0  0
   15.3249  -11.3405   21.9883 H   0  0  0  0  0  0  0  0  0  0  0  0
   13.8553  -11.8679   20.5345 C   0  0  0  0  0  0  0  0  0  0  0  0
   13.0159  -12.8442   21.3633 C   0  0  0  0  0  0  0  0  0  0  0  0
   12.9311  -12.3399   22.6689 O   0  0  0  0  0  0  0  0  0  0  0  0
   12.1867  -11.1817   22.9295 N   0  0  0  0  0  0  0  0  0  0  0  0
   12.2550  -10.3293   22.4416 H   0  0  0  0  0  0  0  0  0  0  0  0
   11.2983  -11.4559   24.0423 C   0  0  0  0  0  0  0  0  0  0  0  0
   11.0200  -10.5406   24.8599 N   0  0  0  0  0  0  0  0  0  0  0  0
   10.5662  -12.7091   24.0729 N   0  0  0  0  0  0  0  0  0  0  0  0
   11.5181   -9.6918   24.8368 H   0  0  0  0  0  0  0  0  0  0  0  0
   10.7861  -13.4234   23.4320 H   0  0  0  0  0  0  0  0  0  0  0  0
    9.8499  -12.8447   24.7344 H   0  0  0  0  0  0  0  0  0  0  0  0
  7  6  1  0  0  0
 24 22  2  0  0  0
 22 21  1  0  0  0
 22 23  1  0  0  0
 26 23  1  0  0  0
 26 27  1  0  0  0
 21  1  1  0  0  0
  6  1  2  0  0  0
  6  5  1  0  0  0
  1  2  1  0  0  0
 27 28  1  0  0  0
  5  4  2  0  0  0
  2  8  1  0  0  0
  2  3  2  0  0  0
  4  3  1  0  0  0
 28 29  1  0  0  0
  3  9  1  0  0  0
 29 31  1  0  0  0
 31 33  1  0  0  0
 31 32  2  0  0  0
  9 11  1  0  0  0
 11 12  1  0  0  0
 15 18  2  0  0  0
 15 19  1  0  0  0
 18 17  1  0  0  0
 19 20  2  0  0  0
 17 12  1  0  0  0
 17 16  2  0  0  0
 20 16  1  0  0  0
 12 14  1  0  0  0
 12 13  1  0  0  0
 32 34  1  0  0  0
 33 35  1  0  0  0
 33 36  1  0  0  0
 29 30  1  0  0  0
 23 25  1  0  0  0
  9 10  1  0  0  0
M  END
> <minimizedAffinity>
-9.12648

$$$$
2R2M_I50_B_5000


 36 37  0  0  0  0  0  0  0  0999 V2000
   18.5684  -14.7774   21.4807 C   0  0  0  0  0  0  0  0  0  0  0  0
   17.2608  -14.9603   21.9910 C   0  0  0  0  0  0  0  0  0  0  0  0
   16.3162  -13.9248   21.8729 C   0  0  0  0  0  0  0  0  0  0  0  0
   16.6662  -12.6974   21.2420 C   0  0  0  0  0  0  0  0  0  0  0  0
   17.9638  -12.5121   20.7297 C   0  0  0  0  0  0  0  0  0  0  0  0
   18.9117  -13.5526   20.8520 C   0  0  0  0  0  0  0  0  0  0  0  0
   20.5578  -13.3311   20.2092 Cl  0  0  0  0  0  0  0  0  0  0  0  0
   16.8957  -16.1293   22.5862 F   0  0  0  0  0  0  0  0  0  0  0  0
   14.9584  -14.1012   22.3809 N   0  0  0  0  0  0  0  0  0  0  0  0
   14.6836  -13.7131   23.2429 H   0  0  0  0  0  0  0  0  0  0  0  0
   14.0232  -14.8711   21.5692 C   0  0  0  0  0  0  0  0  0  0  0  0
   13.1077  -13.9047   20.7942 C   0  0  0  0  0  0  0  0  0  0  0  0
   13.7813  -13.4353   19.7002 F   0  0  0  0  0  0  0  0  0  0  0  0
   12.0183  -14.6184   20.3948 F   0  0  0  0  0  0  0  0  0  0  0  0
   11.4983  -11.8216   23.6341 C   0  0  0  0  0  0  0  0  0  0  0  0
   13.2490  -11.4294   21.4408 C   0  0  0  0  0  0  0  0  0  0  0  0
   12.7106  -12.7204   21.7015 C   0  0  0  0  0  0  0  0  0  0  0  0
   11.8393  -12.9100   22.8053 C   0  0  0  0  0  0  0  0  0  0  0  0
   12.0360  -10.5337   23.3729 C   0  0  0  0  0  0  0  0  0  0  0  0
   12.9102  -10.3444   22.2708 C   0  0  0  0  0  0  0  0  0  0  0  0
   19.6393  -15.8709   21.5717 C   0  0  0  0  0  0  0  0  0  0  0  0
   20.2536  -15.9003   22.9716 C   0  0  0  0  0  0  0  0  0  0  0  0
   21.2727  -14.9280   23.3464 N   0  0  0  0  0  0  0  0  0  0  0  0
   19.7395  -16.5638   23.8083 O   0  0  0  0  0  0  0  0  0  0  0  0
   21.6155  -14.2879   22.6816 H   0  0  0  0  0  0  0  0  0  0  0  0
   21.7818  -14.9098   24.7156 C   0  0  0  0  0  0  0  0  0  0  0  0
   23.1690  -14.2623   24.6881 C   0  0  0  0  0  0  0  0  0  0  0  0
   23.9355  -14.9249   23.7188 O   0  0  0  0  0  0  0  0  0  0  0  0
   25.1501  -15.5275   24.0725 N   0  0  0  0  0  0  0  0  0  0  0  0
   26.0340  -15.0940   24.0635 H   0  0  0  0  0  0  0  0  0  0  0  0
   24.8799  -16.9001   24.4541 C   0  0  0  0  0  0  0  0  0  0  0  0
   24.2136  -17.6424   23.6868 N   0  0  0  0  0  0  0  0  0  0  0  0
   25.5670  -17.4655   25.6011 N   0  0  0  0  0  0  0  0  0  0  0  0
   23.7486  -17.2562   22.9097 H   0  0  0  0  0  0  0  0  0  0  0  0
   26.0876  -16.8825   26.1997 H   0  0  0  0  0  0  0  0  0  0  0  0
   25.5125  -18.4320   25.7804 H   0  0  0  0  0  0  0  0  0  0  0  0
  7  6  1  0  0  0
 24 22  2  0  0  0
 22 21  1  0  0  0
 22 23  1  0  0  0
 26 23  1  0  0  0
 26 27  1  0  0  0
 21  1  1  0  0  0
  6  1  2  0  0  0
  6  5  1  0  0  0
  1  2  1  0  0  0
 27 28  1  0  0  0
  5  4  2  0  0  0
  2  8  1  0  0  0
  2  3  2  0  0  0
  4  3  1  0  0  0
 28 29  1  0  0  0
  3  9  1  0  0  0
 29 31  1  0  0  0
 31 33  1  0  0  0
 31 32  2  0  0  0
  9 11  1  0  0  0
 11 12  1  0  0  0
 15 18  2  0  0  0
 15 19  1  0  0  0
 18 17  1  0  0  0
 19 20  2  0  0  0
 17 12  1  0  0  0
 17 16  2  0  0  0
 20 16  1  0  0  0
 12 14  1  0  0  0
 12 13  1  0  0  0
 32 34  1  0  0  0
 33 35  1  0  0  0
 33 36  1  0  0  0
 29 30  1  0  0  0
 23 25  1  0  0  0
  9 10  1  0  0  0
M  END
> <minimizedAffinity>
-8.61304

$$$$
2R2M_I50_B_5000


 36 37  0  0  0  0  0  0  0  0999 V2000
   18.1356  -13.7634   21.5522 C   0  0  0  0  0  0  0  0  0  0  0  0
   17.4691  -14.5341   22.5349 C   0  0  0  0  0  0  0  0  0  0  0  0
   18.0298  -15.7506   22.9640 C   0  0  0  0  0  0  0  0  0  0  0  0
   19.2624  -16.2091   22.4186 C   0  0  0  0  0  0  0  0  0  0  0  0
   19.9308  -15.4447   21.4441 C   0  0  0  0  0  0  0  0  0  0  0  0
   19.3643  -14.2244   21.0127 C   0  0  0  0  0  0  0  0  0  0  0  0
   20.1988  -13.2476   19.7793 Cl  0  0  0  0  0  0  0  0  0  0  0  0
   16.2963  -14.1119   23.0831 F   0  0  0  0  0  0  0  0  0  0  0  0
   17.3633  -16.5517   23.9871 N   0  0  0  0  0  0  0  0  0  0  0  0
   16.3892  -16.4987   24.1198 H   0  0  0  0  0  0  0  0  0  0  0  0
   18.1882  -17.4325   24.8056 C   0  0  0  0  0  0  0  0  0  0  0  0
   18.5180  -16.7291   26.1357 C   0  0  0  0  0  0  0  0  0  0  0  0
   17.4867  -15.8927   26.4639 F   0  0  0  0  0  0  0  0  0  0  0  0
   18.6440  -17.7008   27.0822 F   0  0  0  0  0  0  0  0  0  0  0  0
   22.2014  -15.7662   25.4287 C   0  0  0  0  0  0  0  0  0  0  0  0
   19.7929  -14.5088   26.2334 C   0  0  0  0  0  0  0  0  0  0  0  0
   19.8176  -15.9095   25.9852 C   0  0  0  0  0  0  0  0  0  0  0  0
   21.0262  -16.5309   25.5768 C   0  0  0  0  0  0  0  0  0  0  0  0
   22.1756  -14.3684   25.6768 C   0  0  0  0  0  0  0  0  0  0  0  0
   20.9661  -13.7460   26.0822 C   0  0  0  0  0  0  0  0  0  0  0  0
   17.5796  -12.4257   21.0499 C   0  0  0  0  0  0  0  0  0  0  0  0
   16.1688  -12.6112   20.4903 C   0  0  0  0  0  0  0  0  0  0  0  0
   15.0831  -11.7465   20.9355 N   0  0  0  0  0  0  0  0  0  0  0  0
   16.0165  -13.3021   19.5395 O   0  0  0  0  0  0  0  0  0  0  0  0
   15.2384  -11.0807   21.6439 H   0  0  0  0  0  0  0  0  0  0  0  0
   13.7630  -11.8748   20.3231 C   0  0  0  0  0  0  0  0  0  0  0  0
   12.8706  -12.6479   21.2980 C   0  0  0  0  0  0  0  0  0  0  0  0
   12.5138  -13.8593   20.6885 O   0  0  0  0  0  0  0  0  0  0  0  0
   13.4248  -14.9232   20.6494 N   0  0  0  0  0  0  0  0  0  0  0  0
   14.2716  -14.9402   20.1474 H   0  0  0  0  0  0  0  0  0  0  0  0
   12.9046  -15.9948   21.4763 C   0  0  0  0  0  0  0  0  0  0  0  0
   13.1127  -15.9837   22.7174 N   0  0  0  0  0  0  0  0  0  0  0  0
   11.9648  -16.9407   20.9025 N   0  0  0  0  0  0  0  0  0  0  0  0
   13.7506  -15.3410   23.1038 H   0  0  0  0  0  0  0  0  0  0  0  0
   11.8040  -16.9472   19.9312 H   0  0  0  0  0  0  0  0  0  0  0  0
   11.4883  -17.5758   21.4845 H   0  0  0  0  0  0  0  0  0  0  0  0
  7  6  1  0  0  0
 24 22  2  0  0  0
 22 21  1  0  0  0
 22 23  1  0  0  0
 26 23  1  0  0  0
 26 27  1  0  0  0
 21  1  1  0  0  0
  6  1  2  0  0  0
  6  5  1  0  0  0
  1  2  1  0  0  0
 27 28  1  0  0  0
  5  4  2  0  0  0
  2  8  1  0  0  0
  2  3  2  0  0  0
  4  3  1  0  0  0
 28 29  1  0  0  0
  3  9  1  0  0  0
 29 31  1  0  0  0
 31 33  1  0  0  0
 31 32  2  0  0  0
  9 11  1  0  0  0
 11 12  1  0  0  0
 15 18  2  0  0  0
 15 19  1  0  0  0
 18 17  1  0  0  0
 19 20  2  0  0  0
 17 12  1  0  0  0
 17 16  2  0  0  0
 20 16  1  0  0  0
 12 14  1  0  0  0
 12 13  1  0  0  0
 32 34  1  0  0  0
 33 35  1  0  0  0
 33 36  1  0  0  0
 29 30  1  0  0  0
 23 25  1  0  0  0
  9 10  1  0  0  0
M  END
> <minimizedAffinity>
-8.61045

$$$$
2R2M_I50_B_5000


 36 37  0  0  0  0  0  0  0  0999 V2000
   16.1494  -14.0921   20.2884 C   0  0  0  0  0  0  0  0  0  0  0  0
   16.2947  -14.6526   21.5801 C   0  0  0  0  0  0  0  0  0  0  0  0
   17.5377  -14.5812   22.2343 C   0  0  0  0  0  0  0  0  0  0  0  0
   18.6477  -13.9475   21.6071 C   0  0  0  0  0  0  0  0  0  0  0  0
   18.5074  -13.3853   20.3245 C   0  0  0  0  0  0  0  0  0  0  0  0
   17.2585  -13.4607   19.6683 C   0  0  0  0  0  0  0  0  0  0  0  0
   17.0672  -12.7548   18.0445 Cl  0  0  0  0  0  0  0  0  0  0  0  0
   15.2456  -15.2518   22.2083 F   0  0  0  0  0  0  0  0  0  0  0  0
   17.7020  -15.1414   23.5729 N   0  0  0  0  0  0  0  0  0  0  0  0
   17.6913  -14.5643   24.3705 H   0  0  0  0  0  0  0  0  0  0  0  0
   17.8824  -16.5837   23.6892 C   0  0  0  0  0  0  0  0  0  0  0  0
   19.3790  -16.8950   23.8790 C   0  0  0  0  0  0  0  0  0  0  0  0
   19.5090  -18.1549   24.3956 F   0  0  0  0  0  0  0  0  0  0  0  0
   19.9592  -16.8384   22.6477 F   0  0  0  0  0  0  0  0  0  0  0  0
   21.6119  -14.0811   25.3249 C   0  0  0  0  0  0  0  0  0  0  0  0
   19.5003  -15.7678   26.1767 C   0  0  0  0  0  0  0  0  0  0  0  0
   20.0063  -15.8728   24.8511 C   0  0  0  0  0  0  0  0  0  0  0  0
   21.0599  -15.0205   24.4301 C   0  0  0  0  0  0  0  0  0  0  0  0
   21.1063  -13.9774   26.6476 C   0  0  0  0  0  0  0  0  0  0  0  0
   20.0503  -14.8275   27.0680 C   0  0  0  0  0  0  0  0  0  0  0  0
   14.8187  -14.1309   19.5279 C   0  0  0  0  0  0  0  0  0  0  0  0
   13.9264  -12.9650   19.9551 C   0  0  0  0  0  0  0  0  0  0  0  0
   13.2214  -13.0092   21.2301 N   0  0  0  0  0  0  0  0  0  0  0  0
   13.9921  -11.9445   19.3560 O   0  0  0  0  0  0  0  0  0  0  0  0
   13.2661  -13.8153   21.7935 H   0  0  0  0  0  0  0  0  0  0  0  0
   12.4482  -11.8490   21.6661 C   0  0  0  0  0  0  0  0  0  0  0  0
   11.5674  -12.2901   22.8384 C   0  0  0  0  0  0  0  0  0  0  0  0
   11.4228  -11.1972   23.7048 O   0  0  0  0  0  0  0  0  0  0  0  0
   12.1427  -10.0170   23.4760 N   0  0  0  0  0  0  0  0  0  0  0  0
   12.6852   -9.8168   22.6792 H   0  0  0  0  0  0  0  0  0  0  0  0
   11.9504   -9.1417   24.6161 C   0  0  0  0  0  0  0  0  0  0  0  0
   12.8995   -8.4181   25.0154 N   0  0  0  0  0  0  0  0  0  0  0  0
   10.6109   -8.9425   25.1390 N   0  0  0  0  0  0  0  0  0  0  0  0
   13.8069   -8.5555   24.6590 H   0  0  0  0  0  0  0  0  0  0  0  0
    9.8704   -9.5101   24.8247 H   0  0  0  0  0  0  0  0  0  0  0  0
   10.4430   -8.2399   25.8078 H   0  0  0  0  0  0  0  0  0  0  0  0
  7  6  1  0  0  0
 24 22  2  0  0  0
 22 21  1  0  0  0
 22 23  1  0  0  0
 26 23  1  0  0  0
 26 27  1  0  0  0
 21  1  1  0  0  0
  6  1  2  0  0  0
  6  5  1  0  0  0
  1  2  1  0  0  0
 27 28  1  0  0  0
  5  4  2  0  0  0
  2  8  1  0  0  0
  2  3  2  0  0  0
  4  3  1  0  0  0
 28 29  1  0  0  0
  3  9  1  0  0  0
 29 31  1  0  0  0
 31 33  1  0  0  0
 31 32  2  0  0  0
  9 11  1  0  0  0
 11 12  1  0  0  0
 15 18  2  0  0  0
 15 19  1  0  0  0
 18 17  1  0  0  0
 19 20  2  0  0  0
 17 12  1  0  0  0
 17 16  2  0  0  0
 20 16  1  0  0  0
 12 14  1  0  0  0
 12 13  1  0  0  0
 32 34  1  0  0  0
 33 35  1  0  0  0
 33 36  1  0  0  0
 29 30  1  0  0  0
 23 25  1  0  0  0
  9 10  1  0  0  0
M  END
> <minimizedAffinity>
-8.23412

$$$$
2R2M_I50_B_5000


 36 37  0  0  0  0  0  0  0  0999 V2000
   16.7030  -15.0814   20.9627 C   0  0  0  0  0  0  0  0  0  0  0  0
   16.5760  -15.8130   22.1678 C   0  0  0  0  0  0  0  0  0  0  0  0
   17.4542  -15.5538   23.2355 C   0  0  0  0  0  0  0  0  0  0  0  0
   18.4664  -14.5602   23.1122 C   0  0  0  0  0  0  0  0  0  0  0  0
   18.5944  -13.8275   21.9174 C   0  0  0  0  0  0  0  0  0  0  0  0
   17.7128  -14.0916   20.8454 C   0  0  0  0  0  0  0  0  0  0  0  0
   17.8643  -13.1728   19.3273 Cl  0  0  0  0  0  0  0  0  0  0  0  0
   15.6077  -16.7587   22.3172 F   0  0  0  0  0  0  0  0  0  0  0  0
   17.3287  -16.2889   24.4911 N   0  0  0  0  0  0  0  0  0  0  0  0
   16.6361  -16.0547   25.1504 H   0  0  0  0  0  0  0  0  0  0  0  0
   18.2631  -17.3812   24.7361 C   0  0  0  0  0  0  0  0  0  0  0  0
   18.9574  -17.1615   26.0934 C   0  0  0  0  0  0  0  0  0  0  0  0
   18.0243  -16.7629   27.0107 F   0  0  0  0  0  0  0  0  0  0  0  0
   19.4922  -18.3571   26.4680 F   0  0  0  0  0  0  0  0  0  0  0  0
   22.1030  -15.2251   24.9315 C   0  0  0  0  0  0  0  0  0  0  0  0
   19.9319  -14.8758   26.7185 C   0  0  0  0  0  0  0  0  0  0  0  0
   20.0419  -16.0714   25.9553 C   0  0  0  0  0  0  0  0  0  0  0  0
   21.1289  -16.2365   25.0581 C   0  0  0  0  0  0  0  0  0  0  0  0
   21.9923  -14.0324   25.6938 C   0  0  0  0  0  0  0  0  0  0  0  0
   20.9034  -13.8656   26.5889 C   0  0  0  0  0  0  0  0  0  0  0  0
   15.7714  -15.3120   19.7670 C   0  0  0  0  0  0  0  0  0  0  0  0
   14.6224  -14.3034   19.7842 C   0  0  0  0  0  0  0  0  0  0  0  0
   13.8621  -14.0777   21.0071 N   0  0  0  0  0  0  0  0  0  0  0  0
   14.5049  -13.5541   18.8735 O   0  0  0  0  0  0  0  0  0  0  0  0
   14.0431  -14.6178   21.8101 H   0  0  0  0  0  0  0  0  0  0  0  0
   12.8297  -13.0445   21.0330 C   0  0  0  0  0  0  0  0  0  0  0  0
   13.4554  -11.7754   21.6182 C   0  0  0  0  0  0  0  0  0  0  0  0
   13.0614  -11.6793   22.9604 O   0  0  0  0  0  0  0  0  0  0  0  0
   11.9019  -10.9719   23.3050 N   0  0  0  0  0  0  0  0  0  0  0  0
   11.6253  -10.1019   22.9365 H   0  0  0  0  0  0  0  0  0  0  0  0
   11.1800  -11.7431   24.2985 C   0  0  0  0  0  0  0  0  0  0  0  0
   11.0787  -11.3079   25.4749 N   0  0  0  0  0  0  0  0  0  0  0  0
   10.3954  -12.8884   23.8741 N   0  0  0  0  0  0  0  0  0  0  0  0
   11.6121  -10.5310   25.7599 H   0  0  0  0  0  0  0  0  0  0  0  0
   10.4767  -13.2268   22.9531 H   0  0  0  0  0  0  0  0  0  0  0  0
    9.7820  -13.3267   24.5072 H   0  0  0  0  0  0  0  0  0  0  0  0
  7  6  1  0  0  0
 24 22  2  0  0  0
 22 21  1  0  0  0
 22 23  1  0  0  0
 26 23  1  0  0  0
 26 27  1  0  0  0
 21  1  1  0  0  0
  6  1  2  0  0  0
  6  5  1  0  0  0
  1  2  1  0  0  0
 27 28  1  0  0  0
  5  4  2  0  0  0
  2  8  1  0  0  0
  2  3  2  0  0  0
  4  3  1  0  0  0
 28 29  1  0  0  0
  3  9  1  0  0  0
 29 31  1  0  0  0
 31 33  1  0  0  0
 31 32  2  0  0  0
  9 11  1  0  0  0
 11 12  1  0  0  0
 15 18  2  0  0  0
 15 19  1  0  0  0
 18 17  1  0  0  0
 19 20  2  0  0  0
 17 12  1  0  0  0
 17 16  2  0  0  0
 20 16  1  0  0  0
 12 14  1  0  0  0
 12 13  1  0  0  0
 32 34  1  0  0  0
 33 35  1  0  0  0
 33 36  1  0  0  0
 29 30  1  0  0  0
 23 25  1  0  0  0
  9 10  1  0  0  0
M  END
> <minimizedAffinity>
-8.17168

$$$$
2R2M_I50_B_5000


 36 37  0  0  0  0  0  0  0  0999 V2000
   16.4890  -14.7532   20.9744 C   0  0  0  0  0  0  0  0  0  0  0  0
   16.7764  -15.1974   22.2873 C   0  0  0  0  0  0  0  0  0  0  0  0
   16.4748  -16.5208   22.6563 C   0  0  0  0  0  0  0  0  0  0  0  0
   15.8857  -17.4149   21.7179 C   0  0  0  0  0  0  0  0  0  0  0  0
   15.6016  -16.9793   20.4102 C   0  0  0  0  0  0  0  0  0  0  0  0
   15.9030  -15.6487   20.0428 C   0  0  0  0  0  0  0  0  0  0  0  0
   15.5475  -15.0837   18.3917 Cl  0  0  0  0  0  0  0  0  0  0  0  0
   17.3525  -14.3671   23.1999 F   0  0  0  0  0  0  0  0  0  0  0  0
   16.7774  -17.0003   24.0020 N   0  0  0  0  0  0  0  0  0  0  0  0
   16.0608  -17.1606   24.6578 H   0  0  0  0  0  0  0  0  0  0  0  0
   18.1759  -17.2340   24.3424 C   0  0  0  0  0  0  0  0  0  0  0  0
   18.4554  -16.6794   25.7521 C   0  0  0  0  0  0  0  0  0  0  0  0
   17.3514  -16.0008   26.1898 F   0  0  0  0  0  0  0  0  0  0  0  0
   18.6927  -17.7480   26.5631 F   0  0  0  0  0  0  0  0  0  0  0  0
   21.0845  -14.0198   26.7568 C   0  0  0  0  0  0  0  0  0  0  0  0
   20.4990  -15.7033   24.5539 C   0  0  0  0  0  0  0  0  0  0  0  0
   19.6645  -15.7205   25.7061 C   0  0  0  0  0  0  0  0  0  0  0  0
   19.9676  -14.8789   26.8076 C   0  0  0  0  0  0  0  0  0  0  0  0
   21.9165  -14.0033   25.6064 C   0  0  0  0  0  0  0  0  0  0  0  0
   21.6154  -14.8475   24.5057 C   0  0  0  0  0  0  0  0  0  0  0  0
   16.8018  -13.3259   20.5099 C   0  0  0  0  0  0  0  0  0  0  0  0
   15.5087  -12.5698   20.2030 C   0  0  0  0  0  0  0  0  0  0  0  0
   14.5659  -12.2642   21.2717 N   0  0  0  0  0  0  0  0  0  0  0  0
   15.3900  -12.0440   19.1475 O   0  0  0  0  0  0  0  0  0  0  0  0
   14.7261  -12.5970   22.1843 H   0  0  0  0  0  0  0  0  0  0  0  0
   13.3815  -11.4606   20.9792 C   0  0  0  0  0  0  0  0  0  0  0  0
   13.2303  -10.4288   22.1003 C   0  0  0  0  0  0  0  0  0  0  0  0
   11.9455  -10.5677   22.6445 O   0  0  0  0  0  0  0  0  0  0  0  0
   11.4292  -11.8420   22.9147 N   0  0  0  0  0  0  0  0  0  0  0  0
   11.3049  -12.5658   22.2590 H   0  0  0  0  0  0  0  0  0  0  0  0
   11.1096  -11.9103   24.3275 C   0  0  0  0  0  0  0  0  0  0  0  0
   10.7413  -13.0024   24.8328 N   0  0  0  0  0  0  0  0  0  0  0  0
   11.4330  -10.7828   25.1828 N   0  0  0  0  0  0  0  0  0  0  0  0
   10.5226  -13.7653   24.2503 H   0  0  0  0  0  0  0  0  0  0  0  0
   11.7209   -9.9296   24.7847 H   0  0  0  0  0  0  0  0  0  0  0  0
   11.3645  -10.8713   26.1609 H   0  0  0  0  0  0  0  0  0  0  0  0
  7  6  1  0  0  0
 24 22  2  0  0  0
 22 21  1  0  0  0
 22 23  1  0  0  0
 26 23  1  0  0  0
 26 27  1  0  0  0
 21  1  1  0  0  0
  6  1  2  0  0  0
  6  5  1  0  0  0
  1  2  1  0  0  0
 27 28  1  0  0  0
  5  4  2  0  0  0
  2  8  1  0  0  0
  2  3  2  0  0  0
  4  3  1  0  0  0
 28 29  1  0  0  0
  3  9  1  0  0  0
 29 31  1  0  0  0
 31 33  1  0  0  0
 31 32  2  0  0  0
  9 11  1  0  0  0
 11 12  1  0  0  0
 15 18  2  0  0  0
 15 19  1  0  0  0
 18 17  1  0  0  0
 19 20  2  0  0  0
 17 12  1  0  0  0
 17 16  2  0  0  0
 20 16  1  0  0  0
 12 14  1  0  0  0
 12 13  1  0  0  0
 32 34  1  0  0  0
 33 35  1  0  0  0
 33 36  1  0  0  0
 29 30  1  0  0  0
 23 25  1  0  0  0
  9 10  1  0  0  0
M  END
> <minimizedAffinity>
-7.94414

$$$$
2R2M_I50_B_5000


 36 37  0  0  0  0  0  0  0  0999 V2000
   14.3303  -16.9123   20.7222 C   0  0  0  0  0  0  0  0  0  0  0  0
   15.6508  -16.6903   21.1812 C   0  0  0  0  0  0  0  0  0  0  0  0
   16.1637  -17.4731   22.2312 C   0  0  0  0  0  0  0  0  0  0  0  0
   15.3649  -18.4871   22.8319 C   0  0  0  0  0  0  0  0  0  0  0  0
   14.0528  -18.7143   22.3766 C   0  0  0  0  0  0  0  0  0  0  0  0
   13.5388  -17.9248   21.3236 C   0  0  0  0  0  0  0  0  0  0  0  0
   11.8796  -18.2007   20.7383 Cl  0  0  0  0  0  0  0  0  0  0  0  0
   16.4408  -15.7367   20.6149 F   0  0  0  0  0  0  0  0  0  0  0  0
   17.5286  -17.2676   22.7080 N   0  0  0  0  0  0  0  0  0  0  0  0
   18.2625  -17.8565   22.4185 H   0  0  0  0  0  0  0  0  0  0  0  0
   17.7686  -16.1613   23.6271 C   0  0  0  0  0  0  0  0  0  0  0  0
   18.8490  -15.2354   23.0370 C   0  0  0  0  0  0  0  0  0  0  0  0
   19.4457  -15.8659   21.9799 F   0  0  0  0  0  0  0  0  0  0  0  0
   18.2181  -14.1075   22.6061 F   0  0  0  0  0  0  0  0  0  0  0  0
   22.2485  -14.6092   24.7824 C   0  0  0  0  0  0  0  0  0  0  0  0
   19.4908  -14.5972   25.4340 C   0  0  0  0  0  0  0  0  0  0  0  0
   19.9099  -14.9182   24.1128 C   0  0  0  0  0  0  0  0  0  0  0  0
   21.2923  -14.9163   23.7928 C   0  0  0  0  0  0  0  0  0  0  0  0
   21.8290  -14.2893   26.1007 C   0  0  0  0  0  0  0  0  0  0  0  0
   20.4461  -14.2879   26.4203 C   0  0  0  0  0  0  0  0  0  0  0  0
   13.7178  -16.0979   19.5766 C   0  0  0  0  0  0  0  0  0  0  0  0
   13.3095  -14.7090   20.0687 C   0  0  0  0  0  0  0  0  0  0  0  0
   14.1739  -13.5609   19.8257 N   0  0  0  0  0  0  0  0  0  0  0  0
   12.1977  -14.5380   20.4418 O   0  0  0  0  0  0  0  0  0  0  0  0
   15.0528  -13.6835   19.3995 H   0  0  0  0  0  0  0  0  0  0  0  0
   13.7269  -12.2268   20.2190 C   0  0  0  0  0  0  0  0  0  0  0  0
   14.3078  -11.9307   21.6044 C   0  0  0  0  0  0  0  0  0  0  0  0
   13.2780  -12.0778   22.5446 O   0  0  0  0  0  0  0  0  0  0  0  0
   12.5293  -10.9646   22.9491 N   0  0  0  0  0  0  0  0  0  0  0  0
   12.7569  -10.0223   22.7775 H   0  0  0  0  0  0  0  0  0  0  0  0
   11.3610  -11.4408   23.6642 C   0  0  0  0  0  0  0  0  0  0  0  0
   11.0204  -12.6486   23.5705 N   0  0  0  0  0  0  0  0  0  0  0  0
   10.7347  -10.5805   24.6515 N   0  0  0  0  0  0  0  0  0  0  0  0
   11.4469  -13.2298   22.8999 H   0  0  0  0  0  0  0  0  0  0  0  0
   11.0032   -9.6360   24.7226 H   0  0  0  0  0  0  0  0  0  0  0  0
   10.0415  -10.9415   25.2501 H   0  0  0  0  0  0  0  0  0  0  0  0
  7  6  1  0  0  0
 24 22  2  0  0  0
 22 21  1  0  0  0
 22 23  1  0  0  0
 26 23  1  0  0  0
 26 27  1  0  0  0
 21  1  1  0  0  0
  6  1  2  0  0  0
  6  5  1  0  0  0
  1  2  1  0  0  0
 27 28  1  0  0  0
  5  4  2  0  0  0
  2  8  1  0  0  0
  2  3  2  0  0  0
  4  3  1  0  0  0
 28 29  1  0  0  0
  3  9  1  0  0  0
 29 31  1  0  0  0
 31 33  1  0  0  0
 31 32  2  0  0  0
  9 11  1  0  0  0
 11 12  1  0  0  0
 15 18  2  0  0  0
 15 19  1  0  0  0
 18 17  1  0  0  0
 19 20  2  0  0  0
 17 12  1  0  0  0
 17 16  2  0  0  0
 20 16  1  0  0  0
 12 14  1  0  0  0
 12 13  1  0  0  0
 32 34  1  0  0  0
 33 35  1  0  0  0
 33 36  1  0  0  0
 29 30  1  0  0  0
 23 25  1  0  0  0
  9 10  1  0  0  0
M  END
> <minimizedAffinity>
-7.93191

$$$$
2R2M_I50_B_5000


 36 37  0  0  0  0  0  0  0  0999 V2000
   18.0399  -15.8241   21.5728 C   0  0  0  0  0  0  0  0  0  0  0  0
   17.4581  -14.6618   21.0122 C   0  0  0  0  0  0  0  0  0  0  0  0
   16.0581  -14.5561   20.9264 C   0  0  0  0  0  0  0  0  0  0  0  0
   15.2247  -15.6081   21.4016 C   0  0  0  0  0  0  0  0  0  0  0  0
   15.7982  -16.7641   21.9633 C   0  0  0  0  0  0  0  0  0  0  0  0
   17.2047  -16.8691   22.0458 C   0  0  0  0  0  0  0  0  0  0  0  0
   17.9440  -18.3269   22.7531 Cl  0  0  0  0  0  0  0  0  0  0  0  0
   18.2316  -13.6351   20.5632 F   0  0  0  0  0  0  0  0  0  0  0  0
   15.4402  -13.3584   20.3640 N   0  0  0  0  0  0  0  0  0  0  0  0
   15.3986  -13.2169   19.3907 H   0  0  0  0  0  0  0  0  0  0  0  0
   14.8870  -12.3789   21.2918 C   0  0  0  0  0  0  0  0  0  0  0  0
   13.3838  -12.2006   21.0060 C   0  0  0  0  0  0  0  0  0  0  0  0
   13.2279  -11.2856   20.0014 F   0  0  0  0  0  0  0  0  0  0  0  0
   12.9057  -13.4119   20.6061 F   0  0  0  0  0  0  0  0  0  0  0  0
   12.1144   -9.8975   23.8484 C   0  0  0  0  0  0  0  0  0  0  0  0
   11.8515  -12.5949   23.0212 C   0  0  0  0  0  0  0  0  0  0  0  0
   12.6664  -11.6971   22.2769 C   0  0  0  0  0  0  0  0  0  0  0  0
   12.7884  -10.3463   22.6942 C   0  0  0  0  0  0  0  0  0  0  0  0
   11.3016  -10.7945   24.5905 C   0  0  0  0  0  0  0  0  0  0  0  0
   11.1768  -12.1449   24.1716 C   0  0  0  0  0  0  0  0  0  0  0  0
   19.5582  -15.9948   21.7013 C   0  0  0  0  0  0  0  0  0  0  0  0
   20.0998  -15.1164   22.8296 C   0  0  0  0  0  0  0  0  0  0  0  0
   19.4325  -15.0915   24.1252 N   0  0  0  0  0  0  0  0  0  0  0  0
   21.1789  -14.6398   22.7160 O   0  0  0  0  0  0  0  0  0  0  0  0
   18.5950  -15.5908   24.2610 H   0  0  0  0  0  0  0  0  0  0  0  0
   20.0151  -14.3204   25.2206 C   0  0  0  0  0  0  0  0  0  0  0  0
   20.5353  -15.3132   26.2638 C   0  0  0  0  0  0  0  0  0  0  0  0
   21.9366  -15.2711   26.2387 O   0  0  0  0  0  0  0  0  0  0  0  0
   22.5982  -14.2698   25.5155 N   0  0  0  0  0  0  0  0  0  0  0  0
   22.5288  -13.3007   25.6748 H   0  0  0  0  0  0  0  0  0  0  0  0
   23.4030  -14.9080   24.4919 C   0  0  0  0  0  0  0  0  0  0  0  0
   24.2671  -14.2383   23.8686 N   0  0  0  0  0  0  0  0  0  0  0  0
   23.3618  -16.3527   24.3559 N   0  0  0  0  0  0  0  0  0  0  0  0
   24.2927  -13.2587   23.9627 H   0  0  0  0  0  0  0  0  0  0  0  0
   22.6847  -16.8740   24.8447 H   0  0  0  0  0  0  0  0  0  0  0  0
   24.0110  -16.8111   23.7748 H   0  0  0  0  0  0  0  0  0  0  0  0
  7  6  1  0  0  0
 24 22  2  0  0  0
 22 21  1  0  0  0
 22 23  1  0  0  0
 26 23  1  0  0  0
 26 27  1  0  0  0
 21  1  1  0  0  0
  6  1  2  0  0  0
  6  5  1  0  0  0
  1  2  1  0  0  0
 27 28  1  0  0  0
  5  4  2  0  0  0
  2  8  1  0  0  0
  2  3  2  0  0  0
  4  3  1  0  0  0
 28 29  1  0  0  0
  3  9  1  0  0  0
 29 31  1  0  0  0
 31 33  1  0  0  0
 31 32  2  0  0  0
  9 11  1  0  0  0
 11 12  1  0  0  0
 15 18  2  0  0  0
 15 19  1  0  0  0
 18 17  1  0  0  0
 19 20  2  0  0  0
 17 12  1  0  0  0
 17 16  2  0  0  0
 20 16  1  0  0  0
 12 14  1  0  0  0
 12 13  1  0  0  0
 32 34  1  0  0  0
 33 35  1  0  0  0
 33 36  1  0  0  0
 29 30  1  0  0  0
 23 25  1  0  0  0
  9 10  1  0  0  0
M  END
> <minimizedAffinity>
-7.86463

$$$$
2R2M_I50_B_5000


 36 37  0  0  0  0  0  0  0  0999 V2000
   14.9893  -16.9634   20.3455 C   0  0  0  0  0  0  0  0  0  0  0  0
   15.4444  -16.5859   21.6316 C   0  0  0  0  0  0  0  0  0  0  0  0
   16.5146  -17.2810   22.2232 C   0  0  0  0  0  0  0  0  0  0  0  0
   17.1430  -18.3581   21.5363 C   0  0  0  0  0  0  0  0  0  0  0  0
   16.6967  -18.7349   20.2558 C   0  0  0  0  0  0  0  0  0  0  0  0
   15.6198  -18.0369   19.6648 C   0  0  0  0  0  0  0  0  0  0  0  0
   15.0440  -18.5039   18.0455 Cl  0  0  0  0  0  0  0  0  0  0  0  0
   14.8705  -15.5505   22.3044 F   0  0  0  0  0  0  0  0  0  0  0  0
   17.0065  -16.8961   23.5433 N   0  0  0  0  0  0  0  0  0  0  0  0
   16.4097  -16.8896   24.3263 H   0  0  0  0  0  0  0  0  0  0  0  0
   18.4107  -16.5219   23.6634 C   0  0  0  0  0  0  0  0  0  0  0  0
   18.5199  -14.9901   23.7842 C   0  0  0  0  0  0  0  0  0  0  0  0
   17.3835  -14.5086   24.3738 F   0  0  0  0  0  0  0  0  0  0  0  0
   19.5978  -14.7266   24.5745 F   0  0  0  0  0  0  0  0  0  0  0  0
   17.7707  -13.0747   20.5033 C   0  0  0  0  0  0  0  0  0  0  0  0
   19.9194  -14.4828   21.6989 C   0  0  0  0  0  0  0  0  0  0  0  0
   18.6766  -14.3651   22.3813 C   0  0  0  0  0  0  0  0  0  0  0  0
   17.6072  -13.6533   21.7786 C   0  0  0  0  0  0  0  0  0  0  0  0
   19.0114  -13.1930   19.8231 C   0  0  0  0  0  0  0  0  0  0  0  0
   20.0823  -13.9021   20.4271 C   0  0  0  0  0  0  0  0  0  0  0  0
   13.8334  -16.2397   19.6449 C   0  0  0  0  0  0  0  0  0  0  0  0
   14.2225  -14.7953   19.3284 C   0  0  0  0  0  0  0  0  0  0  0  0
   13.6530  -13.6963   20.0981 N   0  0  0  0  0  0  0  0  0  0  0  0
   15.1482  -14.5949   18.6159 O   0  0  0  0  0  0  0  0  0  0  0  0
   12.9684  -13.8734   20.7830 H   0  0  0  0  0  0  0  0  0  0  0  0
   14.1052  -12.3303   19.8460 C   0  0  0  0  0  0  0  0  0  0  0  0
   13.9600  -11.5433   21.1515 C   0  0  0  0  0  0  0  0  0  0  0  0
   12.5988  -11.5099   21.4861 O   0  0  0  0  0  0  0  0  0  0  0  0
   12.2054  -11.4156   22.8277 N   0  0  0  0  0  0  0  0  0  0  0  0
   12.2604  -10.6095   23.3903 H   0  0  0  0  0  0  0  0  0  0  0  0
   11.7033  -12.7107   23.2440 C   0  0  0  0  0  0  0  0  0  0  0  0
   12.4439  -13.7246   23.1594 N   0  0  0  0  0  0  0  0  0  0  0  0
   10.4425  -12.7857   23.9596 N   0  0  0  0  0  0  0  0  0  0  0  0
   13.2984  -13.6709   22.6735 H   0  0  0  0  0  0  0  0  0  0  0  0
    9.8651  -11.9909   24.0242 H   0  0  0  0  0  0  0  0  0  0  0  0
   10.1648  -13.6313   24.3803 H   0  0  0  0  0  0  0  0  0  0  0  0
  7  6  1  0  0  0
 24 22  2  0  0  0
 22 21  1  0  0  0
 22 23  1  0  0  0
 26 23  1  0  0  0
 26 27  1  0  0  0
 21  1  1  0  0  0
  6  1  2  0  0  0
  6  5  1  0  0  0
  1  2  1  0  0  0
 27 28  1  0  0  0
  5  4  2  0  0  0
  2  8  1  0  0  0
  2  3  2  0  0  0
  4  3  1  0  0  0
 28 29  1  0  0  0
  3  9  1  0  0  0
 29 31  1  0  0  0
 31 33  1  0  0  0
 31 32  2  0  0  0
  9 11  1  0  0  0
 11 12  1  0  0  0
 15 18  2  0  0  0
 15 19  1  0  0  0
 18 17  1  0  0  0
 19 20  2  0  0  0
 17 12  1  0  0  0
 17 16  2  0  0  0
 20 16  1  0  0  0
 12 14  1  0  0  0
 12 13  1  0  0  0
 32 34  1  0  0  0
 33 35  1  0  0  0
 33 36  1  0  0  0
 29 30  1  0  0  0
 23 25  1  0  0  0
  9 10  1  0  0  0
M  END
> <minimizedAffinity>
-7.83792

$$$$
2R2M_I50_B_5000


 36 37  0  0  0  0  0  0  0  0999 V2000
   14.7726  -17.2115   20.8606 C   0  0  0  0  0  0  0  0  0  0  0  0
   15.7973  -16.6051   21.6261 C   0  0  0  0  0  0  0  0  0  0  0  0
   16.1868  -17.1812   22.8487 C   0  0  0  0  0  0  0  0  0  0  0  0
   15.5594  -18.3697   23.3185 C   0  0  0  0  0  0  0  0  0  0  0  0
   14.5427  -18.9786   22.5593 C   0  0  0  0  0  0  0  0  0  0  0  0
   14.1514  -18.3965   21.3329 C   0  0  0  0  0  0  0  0  0  0  0  0
   12.8653  -19.1558   20.3627 Cl  0  0  0  0  0  0  0  0  0  0  0  0
   16.4235  -15.4760   21.1931 F   0  0  0  0  0  0  0  0  0  0  0  0
   17.2518  -16.5772   23.6446 N   0  0  0  0  0  0  0  0  0  0  0  0
   17.0688  -16.1973   24.5342 H   0  0  0  0  0  0  0  0  0  0  0  0
   18.5953  -16.5553   23.0782 C   0  0  0  0  0  0  0  0  0  0  0  0
   19.1121  -15.1044   23.0515 C   0  0  0  0  0  0  0  0  0  0  0  0
   19.7877  -14.8946   21.8809 F   0  0  0  0  0  0  0  0  0  0  0  0
   18.0217  -14.2897   23.1081 F   0  0  0  0  0  0  0  0  0  0  0  0
   22.3246  -14.6144   25.1574 C   0  0  0  0  0  0  0  0  0  0  0  0
   19.5166  -14.6346   25.5376 C   0  0  0  0  0  0  0  0  0  0  0  0
   20.0628  -14.8663   24.2444 C   0  0  0  0  0  0  0  0  0  0  0  0
   21.4698  -14.8487   24.0609 C   0  0  0  0  0  0  0  0  0  0  0  0
   21.7784  -14.3835   26.4475 C   0  0  0  0  0  0  0  0  0  0  0  0
   20.3709  -14.3977   26.6308 C   0  0  0  0  0  0  0  0  0  0  0  0
   14.3099  -16.6363   19.5168 C   0  0  0  0  0  0  0  0  0  0  0  0
   13.7794  -15.2139   19.7001 C   0  0  0  0  0  0  0  0  0  0  0  0
   13.0426  -14.8551   20.9053 N   0  0  0  0  0  0  0  0  0  0  0  0
   14.1628  -14.3618   18.9711 O   0  0  0  0  0  0  0  0  0  0  0  0
   12.8285  -15.5411   21.5782 H   0  0  0  0  0  0  0  0  0  0  0  0
   12.6239  -13.4702   21.1080 C   0  0  0  0  0  0  0  0  0  0  0  0
   13.3373  -12.9461   22.3573 C   0  0  0  0  0  0  0  0  0  0  0  0
   14.6565  -12.6318   22.0012 O   0  0  0  0  0  0  0  0  0  0  0  0
   14.9090  -11.7490   20.9428 N   0  0  0  0  0  0  0  0  0  0  0  0
   14.3111  -11.0298   20.6355 H   0  0  0  0  0  0  0  0  0  0  0  0
   16.2036  -12.0781   20.3783 C   0  0  0  0  0  0  0  0  0  0  0  0
   16.3178  -12.2535   19.1374 N   0  0  0  0  0  0  0  0  0  0  0  0
   17.3870  -11.9792   21.2133 N   0  0  0  0  0  0  0  0  0  0  0  0
   15.5135  -12.3202   18.5735 H   0  0  0  0  0  0  0  0  0  0  0  0
   17.2946  -11.8420   22.1838 H   0  0  0  0  0  0  0  0  0  0  0  0
   18.2819  -12.0494   20.8090 H   0  0  0  0  0  0  0  0  0  0  0  0
  7  6  1  0  0  0
 24 22  2  0  0  0
 22 21  1  0  0  0
 22 23  1  0  0  0
 26 23  1  0  0  0
 26 27  1  0  0  0
 21  1  1  0  0  0
  6  1  2  0  0  0
  6  5  1  0  0  0
  1  2  1  0  0  0
 27 28  1  0  0  0
  5  4  2  0  0  0
  2  8  1  0  0  0
  2  3  2  0  0  0
  4  3  1  0  0  0
 28 29  1  0  0  0
  3  9  1  0  0  0
 29 31  1  0  0  0
 31 33  1  0  0  0
 31 32  2  0  0  0
  9 11  1  0  0  0
 11 12  1  0  0  0
 15 18  2  0  0  0
 15 19  1  0  0  0
 18 17  1  0  0  0
 19 20  2  0  0  0
 17 12  1  0  0  0
 17 16  2  0  0  0
 20 16  1  0  0  0
 12 14  1  0  0  0
 12 13  1  0  0  0
 32 34  1  0  0  0
 33 35  1  0  0  0
 33 36  1  0  0  0
 29 30  1  0  0  0
 23 25  1  0  0  0
  9 10  1  0  0  0
M  END
> <minimizedAffinity>
-7.56992

$$$$
