3WZN_BTN_A_1001


 19 20  0  0  0  0  0  0  0  0999 V2000
    5.8574  -18.8096    4.5779 C   0  0  0  0  0  0  0  0  0  0  0  0
    5.0254  -17.9371    5.8468 S   0  0  0  0  0  0  0  0  0  0  0  0
    5.8527  -18.9091    7.1611 C   0  0  0  0  0  0  0  0  0  0  0  0
    7.2820  -19.0728    6.6118 C   0  0  0  0  0  0  0  0  0  0  0  0
    8.0733  -17.8988    6.9958 N   0  0  0  0  0  0  0  0  0  0  0  0
    8.5275  -17.2951    5.8896 C   0  0  0  0  0  0  0  0  0  0  0  0
    9.0879  -16.0831    5.9205 O   0  0  0  0  0  0  0  0  0  0  0  0
    8.1334  -17.8368    4.7129 N   0  0  0  0  0  0  0  0  0  0  0  0
    7.3382  -19.0280    5.0727 C   0  0  0  0  0  0  0  0  0  0  0  0
    8.2434  -17.6021    7.9189 H   0  0  0  0  0  0  0  0  0  0  0  0
    8.3347  -17.5060    3.8077 H   0  0  0  0  0  0  0  0  0  0  0  0
    5.7535  -18.2182    3.1654 C   0  0  0  0  0  0  0  0  0  0  0  0
    4.4662  -17.4067    3.0357 C   0  0  0  0  0  0  0  0  0  0  0  0
    4.6167  -16.4836    1.8184 C   0  0  0  0  0  0  0  0  0  0  0  0
    3.3520  -16.2970    0.9523 C   0  0  0  0  0  0  0  0  0  0  0  0
    2.6338  -17.5975    0.6458 C   0  0  0  0  0  0  0  0  0  0  0  0
    1.5122  -17.8597    1.1902 O   0  0  0  0  0  0  0  0  0  0  0  0
    3.1702  -18.4831   -0.1472 O   0  0  0  0  0  0  0  0  0  0  0  0
    3.9947  -18.3073   -0.5563 H   0  0  0  0  0  0  0  0  0  0  0  0
 16 17  2  0  0  0
 16 18  1  0  0  0
 16 15  1  0  0  0
 15 14  1  0  0  0
 14 13  1  0  0  0
 13 12  1  0  0  0
 12  1  1  0  0  0
  1  2  1  0  0  0
  1  9  1  0  0  0
  2  3  1  0  0  0
  3  4  1  0  0  0
  4  5  1  0  0  0
  4  9  1  0  0  0
  5  6  1  0  0  0
  6  7  2  0  0  0
  6  8  1  0  0  0
  8  9  1  0  0  0
 18 19  1  0  0  0
  5 10  1  0  0  0
  8 11  1  0  0  0
M  END
> <minimizedAffinity>
-7.41641

$$$$
3WZN_BTN_A_1001


 19 20  0  0  0  0  0  0  0  0999 V2000
    7.5750  -18.5217    5.1997 C   0  0  0  0  0  0  0  0  0  0  0  0
    6.9093  -19.8501    6.1247 S   0  0  0  0  0  0  0  0  0  0  0  0
    8.5067  -20.7474    6.1277 C   0  0  0  0  0  0  0  0  0  0  0  0
    9.5321  -19.6120    6.3028 C   0  0  0  0  0  0  0  0  0  0  0  0
    9.6945  -19.3384    7.7348 N   0  0  0  0  0  0  0  0  0  0  0  0
    9.3688  -18.0619    7.9772 C   0  0  0  0  0  0  0  0  0  0  0  0
    9.2084  -17.5925    9.2173 O   0  0  0  0  0  0  0  0  0  0  0  0
    8.9286  -17.3490    6.9136 N   0  0  0  0  0  0  0  0  0  0  0  0
    9.0266  -18.2625    5.7575 C   0  0  0  0  0  0  0  0  0  0  0  0
    9.9949  -19.9891    8.4099 H   0  0  0  0  0  0  0  0  0  0  0  0
    8.6101  -16.4174    6.9115 H   0  0  0  0  0  0  0  0  0  0  0  0
    6.7093  -17.2579    5.1052 C   0  0  0  0  0  0  0  0  0  0  0  0
    5.2537  -17.6437    4.8506 C   0  0  0  0  0  0  0  0  0  0  0  0
    5.1121  -17.9731    3.3578 C   0  0  0  0  0  0  0  0  0  0  0  0
    5.1467  -16.7671    2.3943 C   0  0  0  0  0  0  0  0  0  0  0  0
    3.8635  -16.5885    1.6053 C   0  0  0  0  0  0  0  0  0  0  0  0
    2.8055  -17.2129    1.9429 O   0  0  0  0  0  0  0  0  0  0  0  0
    3.8330  -15.8254    0.5481 O   0  0  0  0  0  0  0  0  0  0  0  0
    4.6016  -15.3586    0.2849 H   0  0  0  0  0  0  0  0  0  0  0  0
 16 17  2  0  0  0
 16 18  1  0  0  0
 16 15  1  0  0  0
 15 14  1  0  0  0
 14 13  1  0  0  0
 13 12  1  0  0  0
 12  1  1  0  0  0
  1  2  1  0  0  0
  1  9  1  0  0  0
  2  3  1  0  0  0
  3  4  1  0  0  0
  4  5  1  0  0  0
  4  9  1  0  0  0
  5  6  1  0  0  0
  6  7  2  0  0  0
  6  8  1  0  0  0
  8  9  1  0  0  0
 18 19  1  0  0  0
  5 10  1  0  0  0
  8 11  1  0  0  0
M  END
> <minimizedAffinity>
-7.30513

$$$$
3WZN_BTN_A_1001


 19 20  0  0  0  0  0  0  0  0999 V2000
    6.4332  -18.0948    5.9948 C   0  0  0  0  0  0  0  0  0  0  0  0
    7.6877  -16.8911    5.7931 S   0  0  0  0  0  0  0  0  0  0  0  0
    8.3108  -17.1458    7.4971 C   0  0  0  0  0  0  0  0  0  0  0  0
    8.1850  -18.6698    7.6789 C   0  0  0  0  0  0  0  0  0  0  0  0
    9.3948  -19.3102    7.1514 N   0  0  0  0  0  0  0  0  0  0  0  0
    9.0512  -20.1583    6.1732 C   0  0  0  0  0  0  0  0  0  0  0  0
    9.9567  -20.7139    5.3636 O   0  0  0  0  0  0  0  0  0  0  0  0
    7.7350  -20.2000    5.8583 N   0  0  0  0  0  0  0  0  0  0  0  0
    7.0720  -19.2844    6.8085 C   0  0  0  0  0  0  0  0  0  0  0  0
   10.3126  -19.1433    7.4661 H   0  0  0  0  0  0  0  0  0  0  0  0
    7.3094  -20.7294    5.1457 H   0  0  0  0  0  0  0  0  0  0  0  0
    5.7018  -18.5348    4.7193 C   0  0  0  0  0  0  0  0  0  0  0  0
    6.4255  -17.9874    3.4908 C   0  0  0  0  0  0  0  0  0  0  0  0
    5.4886  -16.9822    2.8062 C   0  0  0  0  0  0  0  0  0  0  0  0
    4.0329  -17.4521    2.5949 C   0  0  0  0  0  0  0  0  0  0  0  0
    3.3317  -16.7468    1.4496 C   0  0  0  0  0  0  0  0  0  0  0  0
    2.0825  -16.9088    1.2592 O   0  0  0  0  0  0  0  0  0  0  0  0
    4.0021  -15.9964    0.6199 O   0  0  0  0  0  0  0  0  0  0  0  0
    4.9216  -15.8660    0.7443 H   0  0  0  0  0  0  0  0  0  0  0  0
 16 17  2  0  0  0
 16 18  1  0  0  0
 16 15  1  0  0  0
 15 14  1  0  0  0
 14 13  1  0  0  0
 13 12  1  0  0  0
 12  1  1  0  0  0
  1  2  1  0  0  0
  1  9  1  0  0  0
  2  3  1  0  0  0
  3  4  1  0  0  0
  4  5  1  0  0  0
  4  9  1  0  0  0
  5  6  1  0  0  0
  6  7  2  0  0  0
  6  8  1  0  0  0
  8  9  1  0  0  0
 18 19  1  0  0  0
  5 10  1  0  0  0
  8 11  1  0  0  0
M  END
> <minimizedAffinity>
-6.76952

$$$$
3WZN_BTN_A_1001


 19 20  0  0  0  0  0  0  0  0999 V2000
    7.6711  -18.6046    6.0961 C   0  0  0  0  0  0  0  0  0  0  0  0
    6.5135  -19.9149    6.1766 S   0  0  0  0  0  0  0  0  0  0  0  0
    5.1508  -18.7826    6.6432 C   0  0  0  0  0  0  0  0  0  0  0  0
    5.4351  -17.5383    5.7817 C   0  0  0  0  0  0  0  0  0  0  0  0
    4.8166  -17.7239    4.4645 N   0  0  0  0  0  0  0  0  0  0  0  0
    5.7660  -17.6631    3.5216 C   0  0  0  0  0  0  0  0  0  0  0  0
    5.5332  -18.0163    2.2547 O   0  0  0  0  0  0  0  0  0  0  0  0
    7.0355  -17.5073    3.9661 N   0  0  0  0  0  0  0  0  0  0  0  0
    6.9280  -17.3823    5.4336 C   0  0  0  0  0  0  0  0  0  0  0  0
    3.8570  -17.8698    4.2999 H   0  0  0  0  0  0  0  0  0  0  0  0
    7.8575  -17.4826    3.4248 H   0  0  0  0  0  0  0  0  0  0  0  0
    9.0256  -18.9327    5.4532 C   0  0  0  0  0  0  0  0  0  0  0  0
    9.4608  -20.3419    5.8499 C   0  0  0  0  0  0  0  0  0  0  0  0
    9.8431  -20.3116    7.3364 C   0  0  0  0  0  0  0  0  0  0  0  0
   11.1392  -21.0604    7.7153 C   0  0  0  0  0  0  0  0  0  0  0  0
   10.9166  -22.5255    8.0392 C   0  0  0  0  0  0  0  0  0  0  0  0
   11.7193  -23.4129    7.6019 O   0  0  0  0  0  0  0  0  0  0  0  0
    9.8806  -22.9031    8.7357 O   0  0  0  0  0  0  0  0  0  0  0  0
    9.2796  -22.2643    9.0653 H   0  0  0  0  0  0  0  0  0  0  0  0
 16 17  2  0  0  0
 16 18  1  0  0  0
 16 15  1  0  0  0
 15 14  1  0  0  0
 14 13  1  0  0  0
 13 12  1  0  0  0
 12  1  1  0  0  0
  1  2  1  0  0  0
  1  9  1  0  0  0
  2  3  1  0  0  0
  3  4  1  0  0  0
  4  5  1  0  0  0
  4  9  1  0  0  0
  5  6  1  0  0  0
  6  7  2  0  0  0
  6  8  1  0  0  0
  8  9  1  0  0  0
 18 19  1  0  0  0
  5 10  1  0  0  0
  8 11  1  0  0  0
M  END
> <minimizedAffinity>
-6.48194

$$$$
3WZN_BTN_A_1001


 19 20  0  0  0  0  0  0  0  0999 V2000
    2.3398  -18.6746    0.7796 C   0  0  0  0  0  0  0  0  0  0  0  0
    3.1089  -19.8329   -0.2834 S   0  0  0  0  0  0  0  0  0  0  0  0
    2.1787  -21.2330    0.4455 C   0  0  0  0  0  0  0  0  0  0  0  0
    0.7838  -20.6252    0.6827 C   0  0  0  0  0  0  0  0  0  0  0  0
   -0.0040  -20.7555   -0.5479 N   0  0  0  0  0  0  0  0  0  0  0  0
   -0.3738  -19.5368   -0.9631 C   0  0  0  0  0  0  0  0  0  0  0  0
   -0.9080  -19.3286   -2.1694 O   0  0  0  0  0  0  0  0  0  0  0  0
    0.0819  -18.4952   -0.2277 N   0  0  0  0  0  0  0  0  0  0  0  0
    0.8261  -19.0998    0.8954 C   0  0  0  0  0  0  0  0  0  0  0  0
   -0.2256  -21.6032   -0.9968 H   0  0  0  0  0  0  0  0  0  0  0  0
   -0.0543  -17.5363   -0.4046 H   0  0  0  0  0  0  0  0  0  0  0  0
    2.5459  -17.1935    0.4342 C   0  0  0  0  0  0  0  0  0  0  0  0
    3.7489  -16.6447    1.1985 C   0  0  0  0  0  0  0  0  0  0  0  0
    3.8319  -17.3914    2.5373 C   0  0  0  0  0  0  0  0  0  0  0  0
    5.2199  -17.9559    2.9103 C   0  0  0  0  0  0  0  0  0  0  0  0
    5.6399  -17.6336    4.3318 C   0  0  0  0  0  0  0  0  0  0  0  0
    4.8412  -17.8378    5.3032 O   0  0  0  0  0  0  0  0  0  0  0  0
    6.8073  -17.1069    4.5776 O   0  0  0  0  0  0  0  0  0  0  0  0
    7.4076  -16.9497    3.8755 H   0  0  0  0  0  0  0  0  0  0  0  0
 16 17  2  0  0  0
 16 18  1  0  0  0
 16 15  1  0  0  0
 15 14  1  0  0  0
 14 13  1  0  0  0
 13 12  1  0  0  0
 12  1  1  0  0  0
  1  2  1  0  0  0
  1  9  1  0  0  0
  2  3  1  0  0  0
  3  4  1  0  0  0
  4  5  1  0  0  0
  4  9  1  0  0  0
  5  6  1  0  0  0
  6  7  2  0  0  0
  6  8  1  0  0  0
  8  9  1  0  0  0
 18 19  1  0  0  0
  5 10  1  0  0  0
  8 11  1  0  0  0
M  END
> <minimizedAffinity>
-6.39266

$$$$
3WZN_BTN_A_1001


 19 20  0  0  0  0  0  0  0  0999 V2000
    7.4358  -18.4584    5.6556 C   0  0  0  0  0  0  0  0  0  0  0  0
    6.2345  -19.7007    5.9331 S   0  0  0  0  0  0  0  0  0  0  0  0
    4.9180  -18.4644    6.2416 C   0  0  0  0  0  0  0  0  0  0  0  0
    5.2345  -17.3682    5.2075 C   0  0  0  0  0  0  0  0  0  0  0  0
    4.5932  -17.7189    3.9356 N   0  0  0  0  0  0  0  0  0  0  0  0
    5.5321  -17.8288    2.9867 C   0  0  0  0  0  0  0  0  0  0  0  0
    5.2711  -18.3521    1.7858 O   0  0  0  0  0  0  0  0  0  0  0  0
    6.8118  -17.6568    3.3945 N   0  0  0  0  0  0  0  0  0  0  0  0
    6.7273  -17.3181    4.8293 C   0  0  0  0  0  0  0  0  0  0  0  0
    3.6271  -17.8521    3.8010 H   0  0  0  0  0  0  0  0  0  0  0  0
    7.6272  -17.7401    2.8490 H   0  0  0  0  0  0  0  0  0  0  0  0
    8.7699  -18.9244    5.0566 C   0  0  0  0  0  0  0  0  0  0  0  0
    9.0760  -20.3484    5.5161 C   0  0  0  0  0  0  0  0  0  0  0  0
   10.2346  -20.2760    6.5208 C   0  0  0  0  0  0  0  0  0  0  0  0
    9.8344  -20.2517    8.0119 C   0  0  0  0  0  0  0  0  0  0  0  0
    9.5211  -18.8607    8.5297 C   0  0  0  0  0  0  0  0  0  0  0  0
   10.0025  -17.8327    7.9512 O   0  0  0  0  0  0  0  0  0  0  0  0
    8.7882  -18.6969    9.5959 O   0  0  0  0  0  0  0  0  0  0  0  0
    8.4260  -19.4415   10.0343 H   0  0  0  0  0  0  0  0  0  0  0  0
 16 17  2  0  0  0
 16 18  1  0  0  0
 16 15  1  0  0  0
 15 14  1  0  0  0
 14 13  1  0  0  0
 13 12  1  0  0  0
 12  1  1  0  0  0
  1  2  1  0  0  0
  1  9  1  0  0  0
  2  3  1  0  0  0
  3  4  1  0  0  0
  4  5  1  0  0  0
  4  9  1  0  0  0
  5  6  1  0  0  0
  6  7  2  0  0  0
  6  8  1  0  0  0
  8  9  1  0  0  0
 18 19  1  0  0  0
  5 10  1  0  0  0
  8 11  1  0  0  0
M  END
> <minimizedAffinity>
-6.37854

$$$$
3WZN_BTN_A_1001


 19 20  0  0  0  0  0  0  0  0999 V2000
    1.8478  -19.4907   -0.5591 C   0  0  0  0  0  0  0  0  0  0  0  0
    0.2553  -18.7683   -0.6325 S   0  0  0  0  0  0  0  0  0  0  0  0
   -0.3528  -20.0453   -1.7971 C   0  0  0  0  0  0  0  0  0  0  0  0
    0.3146  -21.3290   -1.2699 C   0  0  0  0  0  0  0  0  0  0  0  0
   -0.5297  -21.9022   -0.2161 N   0  0  0  0  0  0  0  0  0  0  0  0
    0.1745  -21.9710    0.9213 C   0  0  0  0  0  0  0  0  0  0  0  0
   -0.3986  -22.2424    2.0968 O   0  0  0  0  0  0  0  0  0  0  0  0
    1.4320  -21.4711    0.8725 N   0  0  0  0  0  0  0  0  0  0  0  0
    1.6369  -21.0527   -0.5287 C   0  0  0  0  0  0  0  0  0  0  0  0
   -1.4645  -22.1903   -0.3271 H   0  0  0  0  0  0  0  0  0  0  0  0
    2.0746  -21.4014    1.6151 H   0  0  0  0  0  0  0  0  0  0  0  0
    2.7819  -18.9669    0.5404 C   0  0  0  0  0  0  0  0  0  0  0  0
    2.7943  -17.4398    0.5271 C   0  0  0  0  0  0  0  0  0  0  0  0
    3.3188  -16.9651    1.8896 C   0  0  0  0  0  0  0  0  0  0  0  0
    4.8254  -16.6330    1.9544 C   0  0  0  0  0  0  0  0  0  0  0  0
    5.5747  -17.4326    3.0033 C   0  0  0  0  0  0  0  0  0  0  0  0
    5.0478  -17.6594    4.1409 O   0  0  0  0  0  0  0  0  0  0  0  0
    6.7829  -17.8659    2.7723 O   0  0  0  0  0  0  0  0  0  0  0  0
    7.1863  -17.7084    1.9414 H   0  0  0  0  0  0  0  0  0  0  0  0
 16 17  2  0  0  0
 16 18  1  0  0  0
 16 15  1  0  0  0
 15 14  1  0  0  0
 14 13  1  0  0  0
 13 12  1  0  0  0
 12  1  1  0  0  0
  1  2  1  0  0  0
  1  9  1  0  0  0
  2  3  1  0  0  0
  3  4  1  0  0  0
  4  5  1  0  0  0
  4  9  1  0  0  0
  5  6  1  0  0  0
  6  7  2  0  0  0
  6  8  1  0  0  0
  8  9  1  0  0  0
 18 19  1  0  0  0
  5 10  1  0  0  0
  8 11  1  0  0  0
M  END
> <minimizedAffinity>
-6.07276

$$$$
3WZN_BTN_A_1001


 19 20  0  0  0  0  0  0  0  0999 V2000
    2.4679  -19.5863    0.0936 C   0  0  0  0  0  0  0  0  0  0  0  0
    2.6631  -20.0969   -1.5691 S   0  0  0  0  0  0  0  0  0  0  0  0
    3.3205  -21.7322   -1.0687 C   0  0  0  0  0  0  0  0  0  0  0  0
    2.4578  -22.0825    0.1579 C   0  0  0  0  0  0  0  0  0  0  0  0
    1.2242  -22.7300   -0.3012 N   0  0  0  0  0  0  0  0  0  0  0  0
    0.1719  -22.0095    0.1085 C   0  0  0  0  0  0  0  0  0  0  0  0
   -1.0636  -22.2334   -0.3469 O   0  0  0  0  0  0  0  0  0  0  0  0
    0.4582  -20.8669    0.7763 N   0  0  0  0  0  0  0  0  0  0  0  0
    1.9300  -20.8348    0.8919 C   0  0  0  0  0  0  0  0  0  0  0  0
    1.1771  -23.5613   -0.8266 H   0  0  0  0  0  0  0  0  0  0  0  0
   -0.1806  -20.1981    1.1138 H   0  0  0  0  0  0  0  0  0  0  0  0
    1.6543  -18.3047    0.3201 C   0  0  0  0  0  0  0  0  0  0  0  0
    2.5971  -17.1201    0.5211 C   0  0  0  0  0  0  0  0  0  0  0  0
    3.2446  -17.2682    1.9052 C   0  0  0  0  0  0  0  0  0  0  0  0
    4.6851  -16.7282    2.0377 C   0  0  0  0  0  0  0  0  0  0  0  0
    5.5232  -17.4875    3.0487 C   0  0  0  0  0  0  0  0  0  0  0  0
    5.0732  -17.7172    4.2183 O   0  0  0  0  0  0  0  0  0  0  0  0
    6.7300  -17.8818    2.7507 O   0  0  0  0  0  0  0  0  0  0  0  0
    7.0775  -17.7215    1.8954 H   0  0  0  0  0  0  0  0  0  0  0  0
 16 17  2  0  0  0
 16 18  1  0  0  0
 16 15  1  0  0  0
 15 14  1  0  0  0
 14 13  1  0  0  0
 13 12  1  0  0  0
 12  1  1  0  0  0
  1  2  1  0  0  0
  1  9  1  0  0  0
  2  3  1  0  0  0
  3  4  1  0  0  0
  4  5  1  0  0  0
  4  9  1  0  0  0
  5  6  1  0  0  0
  6  7  2  0  0  0
  6  8  1  0  0  0
  8  9  1  0  0  0
 18 19  1  0  0  0
  5 10  1  0  0  0
  8 11  1  0  0  0
M  END
> <minimizedAffinity>
-5.95700

$$$$
3WZN_BTN_A_1001


 19 20  0  0  0  0  0  0  0  0999 V2000
    8.6185  -18.5104    6.1524 C   0  0  0  0  0  0  0  0  0  0  0  0
    8.0264  -16.8640    6.1977 S   0  0  0  0  0  0  0  0  0  0  0  0
    7.3784  -16.9701    4.4872 C   0  0  0  0  0  0  0  0  0  0  0  0
    6.8169  -18.4027    4.4267 C   0  0  0  0  0  0  0  0  0  0  0  0
    5.4414  -18.3932    4.9365 N   0  0  0  0  0  0  0  0  0  0  0  0
    5.3592  -19.2139    5.9920 C   0  0  0  0  0  0  0  0  0  0  0  0
    4.2902  -19.2374    6.7924 O   0  0  0  0  0  0  0  0  0  0  0  0
    6.5156  -19.8034    6.3775 N   0  0  0  0  0  0  0  0  0  0  0  0
    7.5291  -19.3641    5.3975 C   0  0  0  0  0  0  0  0  0  0  0  0
    4.6976  -17.8676    4.5626 H   0  0  0  0  0  0  0  0  0  0  0  0
    6.6520  -20.3996    7.1490 H   0  0  0  0  0  0  0  0  0  0  0  0
    9.0608  -19.1110    7.4937 C   0  0  0  0  0  0  0  0  0  0  0  0
   10.2602  -20.0320    7.2799 C   0  0  0  0  0  0  0  0  0  0  0  0
    9.7834  -21.4761    7.4898 C   0  0  0  0  0  0  0  0  0  0  0  0
   10.5874  -22.3107    8.5102 C   0  0  0  0  0  0  0  0  0  0  0  0
   12.0141  -22.5853    8.0742 C   0  0  0  0  0  0  0  0  0  0  0  0
   12.9871  -21.9771    8.6278 O   0  0  0  0  0  0  0  0  0  0  0  0
   12.2642  -23.4168    7.1012 O   0  0  0  0  0  0  0  0  0  0  0  0
   11.5610  -23.8730    6.6823 H   0  0  0  0  0  0  0  0  0  0  0  0
 16 17  2  0  0  0
 16 18  1  0  0  0
 16 15  1  0  0  0
 15 14  1  0  0  0
 14 13  1  0  0  0
 13 12  1  0  0  0
 12  1  1  0  0  0
  1  2  1  0  0  0
  1  9  1  0  0  0
  2  3  1  0  0  0
  3  4  1  0  0  0
  4  5  1  0  0  0
  4  9  1  0  0  0
  5  6  1  0  0  0
  6  7  2  0  0  0
  6  8  1  0  0  0
  8  9  1  0  0  0
 18 19  1  0  0  0
  5 10  1  0  0  0
  8 11  1  0  0  0
M  END
> <minimizedAffinity>
-5.54420

$$$$
3WZN_BTN_A_1001


 19 20  0  0  0  0  0  0  0  0999 V2000
    7.3871  -18.0418    4.4599 C   0  0  0  0  0  0  0  0  0  0  0  0
    8.1026  -19.5126    5.0828 S   0  0  0  0  0  0  0  0  0  0  0  0
    8.6115  -18.6944    6.6411 C   0  0  0  0  0  0  0  0  0  0  0  0
    7.4188  -17.7679    6.9417 C   0  0  0  0  0  0  0  0  0  0  0  0
    6.4056  -18.5269    7.6828 N   0  0  0  0  0  0  0  0  0  0  0  0
    5.2608  -18.5253    6.9874 C   0  0  0  0  0  0  0  0  0  0  0  0
    4.2343  -19.3182    7.3064 O   0  0  0  0  0  0  0  0  0  0  0  0
    5.2969  -17.9034    5.7851 N   0  0  0  0  0  0  0  0  0  0  0  0
    6.6583  -17.3431    5.6707 C   0  0  0  0  0  0  0  0  0  0  0  0
    6.5449  -18.9671    8.5523 H   0  0  0  0  0  0  0  0  0  0  0  0
    4.5685  -17.8384    5.1259 H   0  0  0  0  0  0  0  0  0  0  0  0
    6.5123  -18.1888    3.2074 C   0  0  0  0  0  0  0  0  0  0  0  0
    5.8027  -16.8691    2.9120 C   0  0  0  0  0  0  0  0  0  0  0  0
    4.3338  -17.1883    2.6000 C   0  0  0  0  0  0  0  0  0  0  0  0
    4.0779  -17.9935    1.3075 C   0  0  0  0  0  0  0  0  0  0  0  0
    2.8182  -17.5731    0.5744 C   0  0  0  0  0  0  0  0  0  0  0  0
    2.1413  -16.5712    0.9758 O   0  0  0  0  0  0  0  0  0  0  0  0
    2.3875  -18.2525   -0.4521 O   0  0  0  0  0  0  0  0  0  0  0  0
    2.8724  -18.9923   -0.7611 H   0  0  0  0  0  0  0  0  0  0  0  0
 16 17  2  0  0  0
 16 18  1  0  0  0
 16 15  1  0  0  0
 15 14  1  0  0  0
 14 13  1  0  0  0
 13 12  1  0  0  0
 12  1  1  0  0  0
  1  2  1  0  0  0
  1  9  1  0  0  0
  2  3  1  0  0  0
  3  4  1  0  0  0
  4  5  1  0  0  0
  4  9  1  0  0  0
  5  6  1  0  0  0
  6  7  2  0  0  0
  6  8  1  0  0  0
  8  9  1  0  0  0
 18 19  1  0  0  0
  5 10  1  0  0  0
  8 11  1  0  0  0
M  END
> <minimizedAffinity>
-5.49575

$$$$
