3WZN_BTN_A_1001
  RCSB PDB12061711263D
Coordinates from PDB:3WZN:A:1001 Model:1 without hydrogens
 16 17  0  0  0  0            999 V2000
    2.5050  -17.5940    0.5180   C 0  0  0  0  0  0  0  0  0  0  0  0
    3.2150  -18.3450   -0.2270   O 0  0  0  0  0  0  0  0  0  0  0  0
    1.2720  -17.9390    0.7660   O 0  0  0  0  0  0  0  0  0  0  0  0
    3.0720  -16.2990    1.0680   C 0  0  0  0  0  0  0  0  0  0  0  0
    4.4450  -16.4720    1.7530   C 0  0  0  0  0  0  0  0  0  0  0  0
    4.4990  -17.4910    2.9000   C 0  0  0  0  0  0  0  0  0  0  0  0
    5.9440  -17.5640    3.3890   C 0  0  0  0  0  0  0  0  0  0  0  0
    6.0300  -18.4630    4.6300   C 0  0  0  0  0  0  0  0  0  0  0  0
    5.3050  -17.8350    6.0940   S 0  0  0  0  0  0  0  0  0  0  0  0
    6.0770  -19.1380    7.1250   C 0  0  0  0  0  0  0  0  0  0  0  0
    7.4740  -19.2850    6.4940   C 0  0  0  0  0  0  0  0  0  0  0  0
    8.3710  -18.2920    7.0950   N 0  0  0  0  0  0  0  0  0  0  0  0
    8.8490  -17.4930    6.1320   C 0  0  0  0  0  0  0  0  0  0  0  0
    9.5110  -16.3660    6.4070   O 0  0  0  0  0  0  0  0  0  0  0  0
    8.3830  -17.7250    4.8820   N 0  0  0  0  0  0  0  0  0  0  0  0
    7.4980  -18.9010    5.0020   C 0  0  0  0  0  0  0  0  0  0  0  0
  1  2  2  0  0  0  0
  1  3  1  0  0  0  0
  1  4  1  0  0  0  0
  4  5  1  0  0  0  0
  5  6  1  0  0  0  0
  6  7  1  0  0  0  0
  7  8  1  0  0  0  0
  8  9  1  0  0  0  0
  8 16  1  0  0  0  0
  9 10  1  0  0  0  0
 10 11  1  0  0  0  0
 11 12  1  0  0  0  0
 11 16  1  0  0  0  0
 12 13  1  0  0  0  0
 13 14  2  0  0  0  0
 13 15  1  0  0  0  0
 15 16  1  0  0  0  0
A    1
C11
A    2
O11
A    3
O12
A    4
C10
A    5
C9
A    6
C8
A    7
C7
A    8
C2
A    9
S1
A   10
C6
A   11
C5
A   12
N1
A   13
C3
A   14
O3
A   15
N2
A   16
C4
M  END
>  <InstanceId>
3WZN_BTN_A_1001

>  <ChemCompId>
BTN

>  <PdbId>
3WZN

>  <ChainId>
A

>  <ResidueNumber>
1001

>  <InsertionCode>


>  <Model>
1

>  <AltIds>


>  <MissingHeavyAtoms>
0

>  <ObservedFormula>
C10 N2 O3 S

>  <Name>
BIOTIN

>  <SystematicName>
5-[(3aS,4S,6aR)-2-oxidanylidene-1,3,3a,4,6,6a-hexahydrothieno[3,4-d]imidazol-4-yl]pentanoic acid

>  <Synonyms>


>  <Type>
NON-POLYMER

>  <Formula>
C10 H16 N2 O3 S

>  <MolecularWeight>
244.311

>  <ModifiedDate>
2014-04-29

>  <Parent>


>  <OneLetterCode>


>  <SubcomponentList>


>  <AmbiguousFlag>
N

>  <InChI>
InChI=1S/C10H16N2O3S/c13-8(14)4-2-1-3-7-9-6(5-16-7)11-10(15)12-9/h6-7,9H,1-5H2,(H,13,14)(H2,11,12,15)/t6-,7-,9-/m0/s1

>  <InChIKey>
YBJHBAHKTGYVGT-ZKWXMUAHSA-N

>  <SMILES>
C1[C@H]2[C@@H]([C@@H](S1)CCCCC(=O)O)NC(=O)N2

$$$$
