3DX4_GOO_A_1049


 16 16  0  0  0  0  0  0  0  0999 V2000
   30.5360   65.6219    7.3026 C   0  0  0  0  0  0  0  0  0  0  0  0
   31.2010   66.9690    6.9507 C   0  0  0  0  0  0  0  0  0  0  0  0
   31.5482   67.1143    5.5731 O   0  0  0  0  0  0  0  0  0  0  0  0
   32.4385   66.9272    7.8471 C   0  0  0  0  0  0  0  0  0  0  0  0
   33.4460   66.0452    7.3027 O   0  0  0  0  0  0  0  0  0  0  0  0
   31.8875   66.3489    9.1749 C   0  0  0  0  0  0  0  0  0  0  0  0
   32.7842   65.4060    9.7819 O   0  0  0  0  0  0  0  0  0  0  0  0
   30.5308   65.7151    8.8056 C   0  0  0  0  0  0  0  0  0  0  0  0
   30.4817   64.3793    9.4595 N   0  0  0  0  0  0  0  0  0  0  0  0
   32.1473   66.3970    5.3133 H   0  0  0  0  0  0  0  0  0  0  0  0
   33.0705   65.1584    7.1860 H   0  0  0  0  0  0  0  0  0  0  0  0
   32.9419   64.6699    9.1703 H   0  0  0  0  0  0  0  0  0  0  0  0
   31.2899   63.8289    9.1694 H   0  0  0  0  0  0  0  0  0  0  0  0
   29.6258   63.8975    9.1846 H   0  0  0  0  0  0  0  0  0  0  0  0
   28.5782   66.9216    6.8447 C   0  0  0  0  0  0  0  0  0  0  0  0
   29.1429   65.6013    6.9394 O   0  0  0  0  0  0  0  0  0  0  0  0
 15 16  1  0  0  0
 16  1  1  0  0  0
  2  1  1  0  0  0
  1  8  1  0  0  0
  3  2  1  0  0  0
  2  4  1  0  0  0
  5  4  1  0  0  0
  4  6  1  0  0  0
  8  6  1  0  0  0
  6  7  1  0  0  0
  8  9  1  0  0  0
  3 10  1  0  0  0
  5 11  1  0  0  0
  7 12  1  0  0  0
  9 13  1  0  0  0
  9 14  1  0  0  0
M  END
> <minimizedAffinity>
-7.89224

$$$$
3DX4_GOO_A_1049


 16 16  0  0  0  0  0  0  0  0999 V2000
   30.5353   65.7257    8.9779 C   0  0  0  0  0  0  0  0  0  0  0  0
   29.8762   66.5629    7.8618 C   0  0  0  0  0  0  0  0  0  0  0  0
   28.6905   65.9864    7.3131 O   0  0  0  0  0  0  0  0  0  0  0  0
   31.0068   66.6225    6.8347 C   0  0  0  0  0  0  0  0  0  0  0  0
   31.1263   65.3724    6.1190 O   0  0  0  0  0  0  0  0  0  0  0  0
   32.2627   66.8546    7.7122 C   0  0  0  0  0  0  0  0  0  0  0  0
   33.3965   66.0941    7.2673 O   0  0  0  0  0  0  0  0  0  0  0  0
   31.8287   66.4789    9.1437 C   0  0  0  0  0  0  0  0  0  0  0  0
   32.9104   65.6347    9.7193 N   0  0  0  0  0  0  0  0  0  0  0  0
   28.8925   65.1058    6.9600 H   0  0  0  0  0  0  0  0  0  0  0  0
   31.2679   64.6503    6.7510 H   0  0  0  0  0  0  0  0  0  0  0  0
   33.1800   65.1488    7.2879 H   0  0  0  0  0  0  0  0  0  0  0  0
   33.0755   64.8325    9.1114 H   0  0  0  0  0  0  0  0  0  0  0  0
   32.6311   65.3084   10.6445 H   0  0  0  0  0  0  0  0  0  0  0  0
   29.1277   64.7134   10.6288 C   0  0  0  0  0  0  0  0  0  0  0  0
   29.8605   65.8890   10.2393 O   0  0  0  0  0  0  0  0  0  0  0  0
 15 16  1  0  0  0
 16  1  1  0  0  0
  2  1  1  0  0  0
  1  8  1  0  0  0
  3  2  1  0  0  0
  2  4  1  0  0  0
  5  4  1  0  0  0
  4  6  1  0  0  0
  8  6  1  0  0  0
  6  7  1  0  0  0
  8  9  1  0  0  0
  3 10  1  0  0  0
  5 11  1  0  0  0
  7 12  1  0  0  0
  9 13  1  0  0  0
  9 14  1  0  0  0
M  END
> <minimizedAffinity>
-6.68077

$$$$
3DX4_GOO_A_1049


 16 16  0  0  0  0  0  0  0  0999 V2000
   29.9539   66.0453    8.0363 C   0  0  0  0  0  0  0  0  0  0  0  0
   30.5824   65.9415    9.4418 C   0  0  0  0  0  0  0  0  0  0  0  0
   31.8548   65.2939    9.4734 O   0  0  0  0  0  0  0  0  0  0  0  0
   29.5153   65.1338   10.1803 C   0  0  0  0  0  0  0  0  0  0  0  0
   29.5765   63.7359    9.8173 O   0  0  0  0  0  0  0  0  0  0  0  0
   28.1915   65.7575    9.6708 C   0  0  0  0  0  0  0  0  0  0  0  0
   27.1765   64.7732    9.4205 O   0  0  0  0  0  0  0  0  0  0  0  0
   28.5781   66.5389    8.3985 C   0  0  0  0  0  0  0  0  0  0  0  0
   27.5633   66.2111    7.3608 N   0  0  0  0  0  0  0  0  0  0  0  0
   31.7720   64.4002    9.1055 H   0  0  0  0  0  0  0  0  0  0  0  0
   29.4777   63.6468    8.8565 H   0  0  0  0  0  0  0  0  0  0  0  0
   27.4939   64.1437    8.7542 H   0  0  0  0  0  0  0  0  0  0  0  0
   27.5238   65.2001    7.2313 H   0  0  0  0  0  0  0  0  0  0  0  0
   27.8212   66.6568    6.4803 H   0  0  0  0  0  0  0  0  0  0  0  0
   31.5630   66.6661    6.3759 C   0  0  0  0  0  0  0  0  0  0  0  0
   30.5304   67.1192    7.2699 O   0  0  0  0  0  0  0  0  0  0  0  0
 15 16  1  0  0  0
 16  1  1  0  0  0
  2  1  1  0  0  0
  1  8  1  0  0  0
  3  2  1  0  0  0
  2  4  1  0  0  0
  5  4  1  0  0  0
  4  6  1  0  0  0
  8  6  1  0  0  0
  6  7  1  0  0  0
  8  9  1  0  0  0
  3 10  1  0  0  0
  5 11  1  0  0  0
  7 12  1  0  0  0
  9 13  1  0  0  0
  9 14  1  0  0  0
M  END
> <minimizedAffinity>
-5.85759

$$$$
3DX4_GOO_A_1049


 16 16  0  0  0  0  0  0  0  0999 V2000
   30.7372   66.1029    7.5565 C   0  0  0  0  0  0  0  0  0  0  0  0
   32.0317   66.7433    8.1000 C   0  0  0  0  0  0  0  0  0  0  0  0
   33.2291   66.2702    7.4820 O   0  0  0  0  0  0  0  0  0  0  0  0
   31.9578   66.3459    9.5742 C   0  0  0  0  0  0  0  0  0  0  0  0
   32.3154   64.9574    9.7575 O   0  0  0  0  0  0  0  0  0  0  0  0
   30.4621   66.5592    9.9180 C   0  0  0  0  0  0  0  0  0  0  0  0
   29.9351   65.5232   10.7610 O   0  0  0  0  0  0  0  0  0  0  0  0
   29.7422   66.6310    8.5559 C   0  0  0  0  0  0  0  0  0  0  0  0
   28.5289   65.7756    8.6589 N   0  0  0  0  0  0  0  0  0  0  0  0
   33.2911   65.3084    7.5912 H   0  0  0  0  0  0  0  0  0  0  0  0
   31.7341   64.3997    9.2171 H   0  0  0  0  0  0  0  0  0  0  0  0
   30.0269   64.6662   10.3160 H   0  0  0  0  0  0  0  0  0  0  0  0
   28.8005   64.8323    8.9359 H   0  0  0  0  0  0  0  0  0  0  0  0
   28.0587   65.7423    7.7544 H   0  0  0  0  0  0  0  0  0  0  0  0
   29.2044   66.0173    5.7194 C   0  0  0  0  0  0  0  0  0  0  0  0
   30.3344   66.6893    6.3047 O   0  0  0  0  0  0  0  0  0  0  0  0
 15 16  1  0  0  0
 16  1  1  0  0  0
  2  1  1  0  0  0
  1  8  1  0  0  0
  3  2  1  0  0  0
  2  4  1  0  0  0
  5  4  1  0  0  0
  4  6  1  0  0  0
  8  6  1  0  0  0
  6  7  1  0  0  0
  8  9  1  0  0  0
  3 10  1  0  0  0
  5 11  1  0  0  0
  7 12  1  0  0  0
  9 13  1  0  0  0
  9 14  1  0  0  0
M  END
> <minimizedAffinity>
-5.48794

$$$$
3DX4_GOO_A_1049


 16 16  0  0  0  0  0  0  0  0999 V2000
   28.0992   65.4769    9.5264 C   0  0  0  0  0  0  0  0  0  0  0  0
   28.4909   66.5634    8.5031 C   0  0  0  0  0  0  0  0  0  0  0  0
   27.7329   66.5358    7.2931 O   0  0  0  0  0  0  0  0  0  0  0  0
   29.9607   66.2205    8.2609 C   0  0  0  0  0  0  0  0  0  0  0  0
   30.0909   65.0647    7.4026 O   0  0  0  0  0  0  0  0  0  0  0  0
   30.4797   65.8879    9.6824 C   0  0  0  0  0  0  0  0  0  0  0  0
   31.3716   64.7627    9.6964 O   0  0  0  0  0  0  0  0  0  0  0  0
   29.2124   65.6431   10.5267 C   0  0  0  0  0  0  0  0  0  0  0  0
   29.4516   64.4096   11.3238 N   0  0  0  0  0  0  0  0  0  0  0  0
   27.8272   65.6670    6.8722 H   0  0  0  0  0  0  0  0  0  0  0  0
   29.6188   64.3145    7.7967 H   0  0  0  0  0  0  0  0  0  0  0  0
   30.9129   63.9821    9.3484 H   0  0  0  0  0  0  0  0  0  0  0  0
   29.6880   63.6404   10.6972 H   0  0  0  0  0  0  0  0  0  0  0  0
   28.6085   64.1746   11.8477 H   0  0  0  0  0  0  0  0  0  0  0  0
   27.0122   67.1160   10.8915 C   0  0  0  0  0  0  0  0  0  0  0  0
   26.9076   65.8305   10.2532 O   0  0  0  0  0  0  0  0  0  0  0  0
 15 16  1  0  0  0
 16  1  1  0  0  0
  2  1  1  0  0  0
  1  8  1  0  0  0
  3  2  1  0  0  0
  2  4  1  0  0  0
  5  4  1  0  0  0
  4  6  1  0  0  0
  8  6  1  0  0  0
  6  7  1  0  0  0
  8  9  1  0  0  0
  3 10  1  0  0  0
  5 11  1  0  0  0
  7 12  1  0  0  0
  9 13  1  0  0  0
  9 14  1  0  0  0
M  END
> <minimizedAffinity>
-5.40845

$$$$
3DX4_GOO_A_1049


 16 16  0  0  0  0  0  0  0  0999 V2000
   26.8724   64.7347   10.1804 C   0  0  0  0  0  0  0  0  0  0  0  0
   27.1563   66.2352    9.9592 C   0  0  0  0  0  0  0  0  0  0  0  0
   26.2289   66.8903    9.0931 O   0  0  0  0  0  0  0  0  0  0  0  0
   28.5588   66.1812    9.3536 C   0  0  0  0  0  0  0  0  0  0  0  0
   28.5123   65.7683    7.9691 O   0  0  0  0  0  0  0  0  0  0  0  0
   29.2656   65.0986   10.2075 C   0  0  0  0  0  0  0  0  0  0  0  0
   30.1009   64.2335    9.4230 O   0  0  0  0  0  0  0  0  0  0  0  0
   28.1263   64.3342   10.9120 C   0  0  0  0  0  0  0  0  0  0  0  0
   28.4265   62.8831   10.7766 N   0  0  0  0  0  0  0  0  0  0  0  0
   26.2233   66.4467    8.2304 H   0  0  0  0  0  0  0  0  0  0  0  0
   28.0713   64.9068    7.9032 H   0  0  0  0  0  0  0  0  0  0  0  0
   29.5632   63.7883    8.7495 H   0  0  0  0  0  0  0  0  0  0  0  0
   28.5355   62.6491    9.7898 H   0  0  0  0  0  0  0  0  0  0  0  0
   27.6599   62.3389   11.1724 H   0  0  0  0  0  0  0  0  0  0  0  0
   24.8280   63.5887   10.6692 C   0  0  0  0  0  0  0  0  0  0  0  0
   25.8164   64.5246   11.1363 O   0  0  0  0  0  0  0  0  0  0  0  0
 15 16  1  0  0  0
 16  1  1  0  0  0
  2  1  1  0  0  0
  1  8  1  0  0  0
  3  2  1  0  0  0
  2  4  1  0  0  0
  5  4  1  0  0  0
  4  6  1  0  0  0
  8  6  1  0  0  0
  6  7  1  0  0  0
  8  9  1  0  0  0
  3 10  1  0  0  0
  5 11  1  0  0  0
  7 12  1  0  0  0
  9 13  1  0  0  0
  9 14  1  0  0  0
M  END
> <minimizedAffinity>
-5.23329

$$$$
3DX4_GOO_A_1049


 16 16  0  0  0  0  0  0  0  0999 V2000
   27.0543   63.7497   10.8838 C   0  0  0  0  0  0  0  0  0  0  0  0
   27.5695   65.1321   10.4316 C   0  0  0  0  0  0  0  0  0  0  0  0
   27.6774   65.2881    9.0161 O   0  0  0  0  0  0  0  0  0  0  0  0
   28.9370   65.1719   11.1134 C   0  0  0  0  0  0  0  0  0  0  0  0
   29.8939   64.3487   10.4092 O   0  0  0  0  0  0  0  0  0  0  0  0
   28.6466   64.5710   12.5119 C   0  0  0  0  0  0  0  0  0  0  0  0
   29.6864   63.6887   12.9615 O   0  0  0  0  0  0  0  0  0  0  0  0
   27.2891   63.8534   12.3677 C   0  0  0  0  0  0  0  0  0  0  0  0
   27.4291   62.5220   13.0171 N   0  0  0  0  0  0  0  0  0  0  0  0
   28.2686   64.6066    8.6599 H   0  0  0  0  0  0  0  0  0  0  0  0
   29.5593   63.4400   10.3530 H   0  0  0  0  0  0  0  0  0  0  0  0
   29.7866   62.9590   12.3304 H   0  0  0  0  0  0  0  0  0  0  0  0
   28.2111   62.0194   12.5973 H   0  0  0  0  0  0  0  0  0  0  0  0
   26.5708   61.9871   12.8846 H   0  0  0  0  0  0  0  0  0  0  0  0
   25.2286   62.5388    9.9184 C   0  0  0  0  0  0  0  0  0  0  0  0
   25.6245   63.6421   10.7532 O   0  0  0  0  0  0  0  0  0  0  0  0
 15 16  1  0  0  0
 16  1  1  0  0  0
  2  1  1  0  0  0
  1  8  1  0  0  0
  3  2  1  0  0  0
  2  4  1  0  0  0
  5  4  1  0  0  0
  4  6  1  0  0  0
  8  6  1  0  0  0
  6  7  1  0  0  0
  8  9  1  0  0  0
  3 10  1  0  0  0
  5 11  1  0  0  0
  7 12  1  0  0  0
  9 13  1  0  0  0
  9 14  1  0  0  0
M  END
> <minimizedAffinity>
-5.10731

$$$$
3DX4_GOO_A_1049


 16 16  0  0  0  0  0  0  0  0999 V2000
   30.9021   66.7421    8.4402 C   0  0  0  0  0  0  0  0  0  0  0  0
   30.5480   66.1723    7.0506 C   0  0  0  0  0  0  0  0  0  0  0  0
   31.1516   66.8645    5.9571 O   0  0  0  0  0  0  0  0  0  0  0  0
   29.0271   66.3261    7.0505 C   0  0  0  0  0  0  0  0  0  0  0  0
   28.6430   67.7004    6.8198 O   0  0  0  0  0  0  0  0  0  0  0  0
   28.6336   65.8983    8.4868 C   0  0  0  0  0  0  0  0  0  0  0  0
   27.6039   66.7268    9.0482 O   0  0  0  0  0  0  0  0  0  0  0  0
   29.9438   65.9592    9.2983 C   0  0  0  0  0  0  0  0  0  0  0  0
   29.6312   66.6491   10.5791 N   0  0  0  0  0  0  0  0  0  0  0  0
   30.8920   67.7988    5.9829 H   0  0  0  0  0  0  0  0  0  0  0  0
   29.0502   68.2674    7.4934 H   0  0  0  0  0  0  0  0  0  0  0  0
   27.9089   67.6472    9.0764 H   0  0  0  0  0  0  0  0  0  0  0  0
   29.2218   67.5624   10.3823 H   0  0  0  0  0  0  0  0  0  0  0  0
   30.4886   66.7699   11.1182 H   0  0  0  0  0  0  0  0  0  0  0  0
   33.2614   66.8241    8.0415 C   0  0  0  0  0  0  0  0  0  0  0  0
   32.2060   66.3158    8.8774 O   0  0  0  0  0  0  0  0  0  0  0  0
 15 16  1  0  0  0
 16  1  1  0  0  0
  2  1  1  0  0  0
  1  8  1  0  0  0
  3  2  1  0  0  0
  2  4  1  0  0  0
  5  4  1  0  0  0
  4  6  1  0  0  0
  8  6  1  0  0  0
  6  7  1  0  0  0
  8  9  1  0  0  0
  3 10  1  0  0  0
  5 11  1  0  0  0
  7 12  1  0  0  0
  9 13  1  0  0  0
  9 14  1  0  0  0
M  END
> <minimizedAffinity>
-5.09356

$$$$
3DX4_GOO_A_1049


 16 16  0  0  0  0  0  0  0  0999 V2000
   30.6554   67.1393    7.8841 C   0  0  0  0  0  0  0  0  0  0  0  0
   29.3275   66.5466    7.3679 C   0  0  0  0  0  0  0  0  0  0  0  0
   28.4720   67.4894    6.7209 O   0  0  0  0  0  0  0  0  0  0  0  0
   28.7163   66.0230    8.6674 C   0  0  0  0  0  0  0  0  0  0  0  0
   28.1723   67.1032    9.4591 O   0  0  0  0  0  0  0  0  0  0  0  0
   29.9304   65.3912    9.3937 C   0  0  0  0  0  0  0  0  0  0  0  0
   29.9312   65.6579   10.8046 O   0  0  0  0  0  0  0  0  0  0  0  0
   31.1708   65.9731    8.6854 C   0  0  0  0  0  0  0  0  0  0  0  0
   32.1245   66.3892    9.7490 N   0  0  0  0  0  0  0  0  0  0  0  0
   28.2693   68.2148    7.3322 H   0  0  0  0  0  0  0  0  0  0  0  0
   28.8684   67.7543    9.6393 H   0  0  0  0  0  0  0  0  0  0  0  0
   29.9518   66.6164   10.9524 H   0  0  0  0  0  0  0  0  0  0  0  0
   31.6635   67.0423   10.3826 H   0  0  0  0  0  0  0  0  0  0  0  0
   32.9328   66.8424    9.3226 H   0  0  0  0  0  0  0  0  0  0  0  0
   32.1547   66.0444    6.3725 C   0  0  0  0  0  0  0  0  0  0  0  0
   31.6175   67.3004    6.8251 O   0  0  0  0  0  0  0  0  0  0  0  0
 15 16  1  0  0  0
 16  1  1  0  0  0
  2  1  1  0  0  0
  1  8  1  0  0  0
  3  2  1  0  0  0
  2  4  1  0  0  0
  5  4  1  0  0  0
  4  6  1  0  0  0
  8  6  1  0  0  0
  6  7  1  0  0  0
  8  9  1  0  0  0
  3 10  1  0  0  0
  5 11  1  0  0  0
  7 12  1  0  0  0
  9 13  1  0  0  0
  9 14  1  0  0  0
M  END
> <minimizedAffinity>
-5.07819

$$$$
3DX4_GOO_A_1049


 16 16  0  0  0  0  0  0  0  0999 V2000
   28.6622   65.2068   10.1744 C   0  0  0  0  0  0  0  0  0  0  0  0
   28.4129   64.5440   11.5454 C   0  0  0  0  0  0  0  0  0  0  0  0
   29.5558   63.8954   12.1045 O   0  0  0  0  0  0  0  0  0  0  0  0
   27.3099   63.5466   11.1917 C   0  0  0  0  0  0  0  0  0  0  0  0
   27.8488   62.3993   10.4969 O   0  0  0  0  0  0  0  0  0  0  0  0
   26.3950   64.3610   10.2426 C   0  0  0  0  0  0  0  0  0  0  0  0
   25.9179   63.5844    9.1331 O   0  0  0  0  0  0  0  0  0  0  0  0
   27.2498   65.5635    9.7932 C   0  0  0  0  0  0  0  0  0  0  0  0
   27.0730   65.6980    8.3219 N   0  0  0  0  0  0  0  0  0  0  0  0
   29.8771   63.2187   11.4884 H   0  0  0  0  0  0  0  0  0  0  0  0
   28.3193   62.6945    9.7017 H   0  0  0  0  0  0  0  0  0  0  0  0
   26.6727   63.2544    8.6210 H   0  0  0  0  0  0  0  0  0  0  0  0
   27.3215   64.8190    7.8679 H   0  0  0  0  0  0  0  0  0  0  0  0
   27.6763   66.4430    7.9737 H   0  0  0  0  0  0  0  0  0  0  0  0
   28.7466   67.3016   11.3304 C   0  0  0  0  0  0  0  0  0  0  0  0
   29.3299   66.4756   10.3065 O   0  0  0  0  0  0  0  0  0  0  0  0
 15 16  1  0  0  0
 16  1  1  0  0  0
  2  1  1  0  0  0
  1  8  1  0  0  0
  3  2  1  0  0  0
  2  4  1  0  0  0
  5  4  1  0  0  0
  4  6  1  0  0  0
  8  6  1  0  0  0
  6  7  1  0  0  0
  8  9  1  0  0  0
  3 10  1  0  0  0
  5 11  1  0  0  0
  7 12  1  0  0  0
  9 13  1  0  0  0
  9 14  1  0  0  0
M  END
> <minimizedAffinity>
-5.02752

$$$$
