2ZYM_ACX_A_901
  RCSB PDB12061707483D
Coordinates from PDB:2ZYM:A:901 Model:1 without hydrogens
 66 72  0  0  0  0            999 V2000
   16.5910    5.9200   12.6180   C 0  0  0  0  0  0  0  0  0  0  0  0
   15.5460    5.8960   13.7640   C 0  0  0  0  0  0  0  0  0  0  0  0
   16.0260    4.9540   14.8690   C 0  0  0  0  0  0  0  0  0  0  0  0
   16.1490    3.5570   14.2720   C 0  0  0  0  0  0  0  0  0  0  0  0
   17.2020    3.6050   13.1120   C 0  0  0  0  0  0  0  0  0  0  0  0
   17.3890    2.2910   12.4170   C 0  0  0  0  0  0  0  0  0  0  0  0
   17.8050    6.3600   13.1750   O 0  0  0  0  0  0  0  0  0  0  0  0
   15.3930    7.2190   14.2680   O 0  0  0  0  0  0  0  0  0  0  0  0
   15.0750    4.9130   15.9260   O 0  0  0  0  0  0  0  0  0  0  0  0
   16.7950    4.5770   12.0960   O 0  0  0  0  0  0  0  0  0  0  0  0
   16.2030    1.9090   11.7250   O 0  0  0  0  0  0  0  0  0  0  0  0
   20.8090    9.2510   13.1530   C 0  0  0  0  0  0  0  0  0  0  0  0
   19.3490    9.7680   13.1520   C 0  0  0  0  0  0  0  0  0  0  0  0
   18.4610    8.6280   13.6320   C 0  0  0  0  0  0  0  0  0  0  0  0
   18.6280    7.4460   12.6920   C 0  0  0  0  0  0  0  0  0  0  0  0
   20.0990    6.9700   12.6620   C 0  0  0  0  0  0  0  0  0  0  0  0
   20.2800    5.8190   11.6730   C 0  0  0  0  0  0  0  0  0  0  0  0
   21.1010    8.8170   14.4740   O 0  0  0  0  0  0  0  0  0  0  0  0
   19.1900   10.8870   14.0510   O 0  0  0  0  0  0  0  0  0  0  0  0
   17.1220    9.0770   13.6380   O 0  0  0  0  0  0  0  0  0  0  0  0
   20.9310    8.0890   12.2220   O 0  0  0  0  0  0  0  0  0  0  0  0
   21.5940    5.2480   11.7580   O 0  0  0  0  0  0  0  0  0  0  0  0
   23.8050    8.3340   17.5700   C 0  0  0  0  0  0  0  0  0  0  0  0
   22.6010    9.2640   17.8420   C 0  0  0  0  0  0  0  0  0  0  0  0
   21.5630    9.0250   16.7470   C 0  0  0  0  0  0  0  0  0  0  0  0
   22.1140    9.3070   15.3300   C 0  0  0  0  0  0  0  0  0  0  0  0
   23.4140    8.4810   15.1080   C 0  0  0  0  0  0  0  0  0  0  0  0
   24.2370    8.8530   13.8900   C 0  0  0  0  0  0  0  0  0  0  0  0
   23.3770    6.9910   17.6280   O 0  0  0  0  0  0  0  0  0  0  0  0
   22.0540    8.9690   19.1430   O 0  0  0  0  0  0  0  0  0  0  0  0
   20.3830    9.8390   16.8840   O 0  0  0  0  0  0  0  0  0  0  0  0
   24.3230    8.6340   16.2420   O 0  0  0  0  0  0  0  0  0  0  0  0
   24.8730   10.1200   14.0450   O 0  0  0  0  0  0  0  0  0  0  0  0
   24.3540    3.1400   18.8510   C 0  0  0  0  0  0  0  0  0  0  0  0
   24.2620    4.2130   19.9300   C 0  0  0  0  0  0  0  0  0  0  0  0
   23.4700    5.3950   19.3540   C 0  0  0  0  0  0  0  0  0  0  0  0
   24.2170    5.9570   18.1130   C 0  0  0  0  0  0  0  0  0  0  0  0
   24.3840    4.8620   17.0450   C 0  0  0  0  0  0  0  0  0  0  0  0
   25.2490    5.2750   15.8670   C 0  0  0  0  0  0  0  0  0  0  0  0
   23.0820    2.7280   18.5580   O 0  0  0  0  0  0  0  0  0  0  0  0
   23.5980    3.6580   21.0760   O 0  0  0  0  0  0  0  0  0  0  0  0
   23.3500    6.4250   20.3420   O 0  0  0  0  0  0  0  0  0  0  0  0
   25.0100    3.7010   17.6730   O 0  0  0  0  0  0  0  0  0  0  0  0
   24.8950    4.4900   14.7280   O 0  0  0  0  0  0  0  0  0  0  0  0
   20.3280   -0.3600   17.9420   C 0  0  0  0  0  0  0  0  0  0  0  0
   20.9740   -0.2210   19.3460   C 0  0  0  0  0  0  0  0  0  0  0  0
   21.5350    1.1840   19.5090   C 0  0  0  0  0  0  0  0  0  0  0  0
   22.5640    1.4350   18.4170   C 0  0  0  0  0  0  0  0  0  0  0  0
   21.9080    1.3050   17.0260   C 0  0  0  0  0  0  0  0  0  0  0  0
   22.9110    1.5330   15.9130   C 0  0  0  0  0  0  0  0  0  0  0  0
   19.2420    0.5450   17.8050   O 0  0  0  0  0  0  0  0  0  0  0  0
   19.9950   -0.4640   20.3470   O 0  0  0  0  0  0  0  0  0  0  0  0
   22.1640    1.3090   20.7970   O 0  0  0  0  0  0  0  0  0  0  0  0
   21.3320   -0.0700   16.9180   O 0  0  0  0  0  0  0  0  0  0  0  0
   22.3490    1.4540   14.6070   O 0  0  0  0  0  0  0  0  0  0  0  0
   15.8710    1.4880   15.6090   C 0  0  0  0  0  0  0  0  0  0  0  0
   15.6960    1.4560   17.1400   C 0  0  0  0  0  0  0  0  0  0  0  0
   17.0970    1.4150   17.7610   C 0  0  0  0  0  0  0  0  0  0  0  0
   17.9050    0.1900   17.3050   C 0  0  0  0  0  0  0  0  0  0  0  0
   17.9320    0.1280   15.7390   C 0  0  0  0  0  0  0  0  0  0  0  0
   18.4170   -1.1930   15.1700   C 0  0  0  0  0  0  0  0  0  0  0  0
   16.5960    2.6260   15.2590   O 0  0  0  0  0  0  0  0  0  0  0  0
   14.9960    2.6230   17.5760   O 0  0  0  0  0  0  0  0  0  0  0  0
   17.0450    1.4050   19.1930   O 0  0  0  0  0  0  0  0  0  0  0  0
   16.5750    0.3060   15.2190   O 0  0  0  0  0  0  0  0  0  0  0  0
   18.4030   -1.1440   13.7420   O 0  0  0  0  0  0  0  0  0  0  0  0
  1  2  1  0  0  0  0
  1  7  1  0  0  0  0
  1 10  1  0  0  0  0
  2  3  1  0  0  0  0
  2  8  1  0  0  0  0
  3  4  1  0  0  0  0
  3  9  1  0  0  0  0
  4  5  1  0  0  0  0
  4 62  1  0  0  0  0
  5  6  1  0  0  0  0
  5 10  1  0  0  0  0
  6 11  1  0  0  0  0
  7 15  1  0  0  0  0
 12 13  1  0  0  0  0
 12 18  1  0  0  0  0
 12 21  1  0  0  0  0
 13 14  1  0  0  0  0
 13 19  1  0  0  0  0
 14 15  1  0  0  0  0
 14 20  1  0  0  0  0
 15 16  1  0  0  0  0
 16 17  1  0  0  0  0
 16 21  1  0  0  0  0
 17 22  1  0  0  0  0
 18 26  1  0  0  0  0
 23 24  1  0  0  0  0
 23 29  1  0  0  0  0
 23 32  1  0  0  0  0
 24 25  1  0  0  0  0
 24 30  1  0  0  0  0
 25 26  1  0  0  0  0
 25 31  1  0  0  0  0
 26 27  1  0  0  0  0
 27 28  1  0  0  0  0
 27 32  1  0  0  0  0
 28 33  1  0  0  0  0
 29 37  1  0  0  0  0
 34 35  1  0  0  0  0
 34 40  1  0  0  0  0
 34 43  1  0  0  0  0
 35 36  1  0  0  0  0
 35 41  1  0  0  0  0
 36 37  1  0  0  0  0
 36 42  1  0  0  0  0
 37 38  1  0  0  0  0
 38 39  1  0  0  0  0
 38 43  1  0  0  0  0
 39 44  1  0  0  0  0
 40 48  1  0  0  0  0
 45 46  1  0  0  0  0
 45 51  1  0  0  0  0
 45 54  1  0  0  0  0
 46 47  1  0  0  0  0
 46 52  1  0  0  0  0
 47 48  1  0  0  0  0
 47 53  1  0  0  0  0
 48 49  1  0  0  0  0
 49 50  1  0  0  0  0
 49 54  1  0  0  0  0
 50 55  1  0  0  0  0
 51 59  1  0  0  0  0
 56 57  1  0  0  0  0
 56 62  1  0  0  0  0
 56 65  1  0  0  0  0
 57 58  1  0  0  0  0
 57 63  1  0  0  0  0
 58 59  1  0  0  0  0
 58 64  1  0  0  0  0
 59 60  1  0  0  0  0
 60 61  1  0  0  0  0
 60 65  1  0  0  0  0
 61 66  1  0  0  0  0
A    1
C1A
A    2
C2A
A    3
C3A
A    4
C4A
A    5
C5A
A    6
C6A
A    7
O1A
A    8
O2A
A    9
O3A
A   10
O5A
A   11
O6A
A   12
C1B
A   13
C2B
A   14
C3B
A   15
C4B
A   16
C5B
A   17
C6B
A   18
O1B
A   19
O2B
A   20
O3B
A   21
O5B
A   22
O6B
A   23
C1C
A   24
C2C
A   25
C3C
A   26
C4C
A   27
C5C
A   28
C6C
A   29
O1C
A   30
O2C
A   31
O3C
A   32
O5C
A   33
O6C
A   34
C1D
A   35
C2D
A   36
C3D
A   37
C4D
A   38
C5D
A   39
C6D
A   40
O1D
A   41
O2D
A   42
O3D
A   43
O5D
A   44
O6D
A   45
C1E
A   46
C2E
A   47
C3E
A   48
C4E
A   49
C5E
A   50
C6E
A   51
O1E
A   52
O2E
A   53
O3E
A   54
O5E
A   55
O6E
A   56
C1F
A   57
C2F
A   58
C3F
A   59
C4F
A   60
C5F
A   61
C6F
A   62
O1F
A   63
O2F
A   64
O3F
A   65
O5F
A   66
O6F
M  END
>  <InstanceId>
2ZYM_ACX_A_901

>  <ChemCompId>
ACX

>  <PdbId>
2ZYM

>  <ChainId>
A

>  <ResidueNumber>
901

>  <InsertionCode>


>  <Model>
1

>  <AltIds>


>  <MissingHeavyAtoms>
0

>  <ObservedFormula>
C36 O30

>  <Name>
ALPHA-CYCLODEXTRIN (CYCLOHEXA-AMYLOSE)

>  <SystematicName>


>  <Synonyms>


>  <Type>
SACCHARIDE

>  <Formula>
C36 H60 O30

>  <MolecularWeight>
972.844

>  <ModifiedDate>
2011-06-04

>  <Parent>


>  <OneLetterCode>


>  <SubcomponentList>


>  <AmbiguousFlag>
N

>  <InChI>
InChI=1S/C36H60O30/c37-1-7-25-13(43)19(49)31(55-7)62-26-8(2-38)57-33(21(51)15(26)45)64-28-10(4-40)59-35(23(53)17(28)47)66-30-12(6-42)60-36(24(54)18(30)48)65-29-11(5-41)58-34(22(52)16(29)46)63-27-9(3-39)56-32(61-25)20(50)14(27)44/h7-54H,1-6H2/t7-,8-,9-,10-,11-,12-,13-,14-,15-,16-,17-,18-,19-,20-,21-,22-,23-,24-,25-,26-,27-,28-,29-,30-,31-,32-,33-,34-,35-,36-/m1/s1

>  <InChIKey>
HFHDHCJBZVLPGP-RWMJIURBSA-N

>  <SMILES>
C([C@@H]1[C@@H]2[C@@H]([C@H]([C@H](O1)O[C@@H]3[C@H](O[C@@H]([C@@H]([C@H]3O)O)O[C@@H]4[C@H](O[C@@H]([C@@H]([C@H]4O)O)O[C@@H]5[C@H](O[C@@H]([C@@H]([C@H]5O)O)O[C@@H]6[C@H](O[C@@H]([C@@H]([C@H]6O)O)O[C@@H]7[C@H](O[C@H](O2)[C@@H]([C@H]7O)O)CO)CO)CO)CO)CO)O)O)O

$$$$
