2ZYM_ACX_A_901


 84 90  0  0  0  0  0  0  0  0999 V2000
   16.7340    6.1848   12.3285 C   0  0  0  0  0  0  0  0  0  0  0  0
   15.6785    6.1046   13.4623 C   0  0  0  0  0  0  0  0  0  0  0  0
   16.1507    5.1126   14.5261 C   0  0  0  0  0  0  0  0  0  0  0  0
   16.2827    3.7455   13.8651 C   0  0  0  0  0  0  0  0  0  0  0  0
   17.3463    3.8503   12.7186 C   0  0  0  0  0  0  0  0  0  0  0  0
   17.9417    6.6006   12.9169 O   0  0  0  0  0  0  0  0  0  0  0  0
   15.5175    7.4020   14.0266 O   0  0  0  0  0  0  0  0  0  0  0  0
   15.1901    5.0198   15.5711 O   0  0  0  0  0  0  0  0  0  0  0  0
   16.9462    4.8683   11.7457 O   0  0  0  0  0  0  0  0  0  0  0  0
   20.9384    9.4957   13.0592 C   0  0  0  0  0  0  0  0  0  0  0  0
   19.4772   10.0091   13.0689 C   0  0  0  0  0  0  0  0  0  0  0  0
   18.5877    8.8459   13.4864 C   0  0  0  0  0  0  0  0  0  0  0  0
   18.7664    7.7098   12.4933 C   0  0  0  0  0  0  0  0  0  0  0  0
   20.2388    7.2389   12.4547 C   0  0  0  0  0  0  0  0  0  0  0  0
   21.2193    9.0005   14.3610 O   0  0  0  0  0  0  0  0  0  0  0  0
   19.3071   11.0841   14.0181 O   0  0  0  0  0  0  0  0  0  0  0  0
   17.2476    9.2913   13.5010 O   0  0  0  0  0  0  0  0  0  0  0  0
   21.0720    8.3791   12.0757 O   0  0  0  0  0  0  0  0  0  0  0  0
   23.8958    8.3777   17.4559 C   0  0  0  0  0  0  0  0  0  0  0  0
   22.6870    9.2914   17.7602 C   0  0  0  0  0  0  0  0  0  0  0  0
   21.6598    9.1021   16.6455 C   0  0  0  0  0  0  0  0  0  0  0  0
   22.2231    9.4517   15.2486 C   0  0  0  0  0  0  0  0  0  0  0  0
   23.5272    8.6398   15.0000 C   0  0  0  0  0  0  0  0  0  0  0  0
   23.4707    7.0326   17.4466 O   0  0  0  0  0  0  0  0  0  0  0  0
   22.1288    8.9342   19.0407 O   0  0  0  0  0  0  0  0  0  0  0  0
   20.4765    9.9063   16.8096 O   0  0  0  0  0  0  0  0  0  0  0  0
   24.4253    8.7411   16.1484 O   0  0  0  0  0  0  0  0  0  0  0  0
   24.4461    3.1303   18.4959 C   0  0  0  0  0  0  0  0  0  0  0  0
   24.3414    4.1511   19.6233 C   0  0  0  0  0  0  0  0  0  0  0  0
   23.5518    5.3572   19.0963 C   0  0  0  0  0  0  0  0  0  0  0  0
   24.3088    5.9787   17.8902 C   0  0  0  0  0  0  0  0  0  0  0  0
   24.4884    4.9356   16.7734 C   0  0  0  0  0  0  0  0  0  0  0  0
   23.1779    2.7299   18.1719 O   0  0  0  0  0  0  0  0  0  0  0  0
   23.6683    3.5413   20.7357 O   0  0  0  0  0  0  0  0  0  0  0  0
   23.4201    6.3393   20.1305 O   0  0  0  0  0  0  0  0  0  0  0  0
   25.1115    3.7476   17.3518 O   0  0  0  0  0  0  0  0  0  0  0  0
   20.4375   -0.3314   17.3854 C   0  0  0  0  0  0  0  0  0  0  0  0
   21.0702   -0.2574   18.8004 C   0  0  0  0  0  0  0  0  0  0  0  0
   21.6261    1.1396   19.0346 C   0  0  0  0  0  0  0  0  0  0  0  0
   22.6645    1.4439   17.9653 C   0  0  0  0  0  0  0  0  0  0  0  0
   22.0217    1.3782   16.5637 C   0  0  0  0  0  0  0  0  0  0  0  0
   19.3506    0.5768   17.2811 O   0  0  0  0  0  0  0  0  0  0  0  0
   20.0826   -0.5493   19.7796 O   0  0  0  0  0  0  0  0  0  0  0  0
   22.2429    1.2050   20.3329 O   0  0  0  0  0  0  0  0  0  0  0  0
   21.4502    0.0087   16.3856 O   0  0  0  0  0  0  0  0  0  0  0  0
   15.9976    1.6152   15.1005 C   0  0  0  0  0  0  0  0  0  0  0  0
   15.8086    1.5107   16.6266 C   0  0  0  0  0  0  0  0  0  0  0  0
   17.2039    1.4434   17.2580 C   0  0  0  0  0  0  0  0  0  0  0  0
   18.0191    0.2430   16.7524 C   0  0  0  0  0  0  0  0  0  0  0  0
   18.0608    0.2549   15.1855 C   0  0  0  0  0  0  0  0  0  0  0  0
   16.7229    2.7700   14.8113 O   0  0  0  0  0  0  0  0  0  0  0  0
   15.1016    2.6544   17.1105 O   0  0  0  0  0  0  0  0  0  0  0  0
   17.1387    1.3658   18.6874 O   0  0  0  0  0  0  0  0  0  0  0  0
   16.7082    0.4544   14.6619 O   0  0  0  0  0  0  0  0  0  0  0  0
   16.3677    7.7095   14.3781 H   0  0  0  0  0  0  0  0  0  0  0  0
   14.3416    4.7247   15.2051 H   0  0  0  0  0  0  0  0  0  0  0  0
   19.5327   10.7690   14.9074 H   0  0  0  0  0  0  0  0  0  0  0  0
   17.0039    9.6123   12.6187 H   0  0  0  0  0  0  0  0  0  0  0  0
   21.8532    8.0043   19.0252 H   0  0  0  0  0  0  0  0  0  0  0  0
   20.7122   10.8450   16.7458 H   0  0  0  0  0  0  0  0  0  0  0  0
   22.7896    3.2401   20.4562 H   0  0  0  0  0  0  0  0  0  0  0  0
   24.3008    6.6317   20.4128 H   0  0  0  0  0  0  0  0  0  0  0  0
   19.3623    0.0972   19.7152 H   0  0  0  0  0  0  0  0  0  0  0  0
   22.9635    0.5576   20.3815 H   0  0  0  0  0  0  0  0  0  0  0  0
   15.5989    3.4581   16.8923 H   0  0  0  0  0  0  0  0  0  0  0  0
   16.6964    0.5424   18.9467 H   0  0  0  0  0  0  0  0  0  0  0  0
   17.5430    2.5709   11.9642 C   0  0  0  0  0  0  0  0  0  0  0  0
   18.6235    1.8196   12.5114 O   0  0  0  0  0  0  0  0  0  0  0  0
   19.4414    2.3372   12.4493 H   0  0  0  0  0  0  0  0  0  0  0  0
   20.4318    6.1361   11.4143 C   0  0  0  0  0  0  0  0  0  0  0  0
   19.4306    6.1940   10.3877 O   0  0  0  0  0  0  0  0  0  0  0  0
   18.5538    6.0708   10.7838 H   0  0  0  0  0  0  0  0  0  0  0  0
   24.3605    9.0705   13.8087 C   0  0  0  0  0  0  0  0  0  0  0  0
   25.6785    8.5282   13.8580 O   0  0  0  0  0  0  0  0  0  0  0  0
   26.1293    8.8461   14.6559 H   0  0  0  0  0  0  0  0  0  0  0  0
   25.3632    5.4054   15.6243 C   0  0  0  0  0  0  0  0  0  0  0  0
   24.8259    4.9150   14.3956 O   0  0  0  0  0  0  0  0  0  0  0  0
   24.8045    3.9455   14.4162 H   0  0  0  0  0  0  0  0  0  0  0  0
   23.0344    1.6606   15.4721 C   0  0  0  0  0  0  0  0  0  0  0  0
   22.7366    2.8168   14.6961 O   0  0  0  0  0  0  0  0  0  0  0  0
   21.8903    2.6904   14.2392 H   0  0  0  0  0  0  0  0  0  0  0  0
   18.5543   -1.0368   14.5595 C   0  0  0  0  0  0  0  0  0  0  0  0
   19.7927   -0.8097   13.8838 O   0  0  0  0  0  0  0  0  0  0  0  0
   19.6636   -0.1490   13.1854 H   0  0  0  0  0  0  0  0  0  0  0  0
  1  2  1  0  0  0
  1  6  1  0  0  0
  1  9  1  0  0  0
  2  3  1  0  0  0
  2  7  1  0  0  0
  3  4  1  0  0  0
  3  8  1  0  0  0
  4  5  1  0  0  0
  4 51  1  0  0  0
  5 67  1  0  0  0
  5  9  1  0  0  0
 67 68  1  0  0  0
  6 13  1  0  0  0
 10 11  1  0  0  0
 10 15  1  0  0  0
 10 18  1  0  0  0
 11 12  1  0  0  0
 11 16  1  0  0  0
 12 13  1  0  0  0
 12 17  1  0  0  0
 13 14  1  0  0  0
 14 70  1  0  0  0
 14 18  1  0  0  0
 70 71  1  0  0  0
 15 22  1  0  0  0
 19 20  1  0  0  0
 19 24  1  0  0  0
 19 27  1  0  0  0
 20 21  1  0  0  0
 20 25  1  0  0  0
 21 22  1  0  0  0
 21 26  1  0  0  0
 22 23  1  0  0  0
 23 73  1  0  0  0
 23 27  1  0  0  0
 73 74  1  0  0  0
 24 31  1  0  0  0
 28 29  1  0  0  0
 28 33  1  0  0  0
 28 36  1  0  0  0
 29 30  1  0  0  0
 29 34  1  0  0  0
 30 31  1  0  0  0
 30 35  1  0  0  0
 31 32  1  0  0  0
 32 76  1  0  0  0
 32 36  1  0  0  0
 76 77  1  0  0  0
 33 40  1  0  0  0
 37 38  1  0  0  0
 37 42  1  0  0  0
 37 45  1  0  0  0
 38 39  1  0  0  0
 38 43  1  0  0  0
 39 40  1  0  0  0
 39 44  1  0  0  0
 40 41  1  0  0  0
 41 79  1  0  0  0
 41 45  1  0  0  0
 79 80  1  0  0  0
 42 49  1  0  0  0
 46 47  1  0  0  0
 46 51  1  0  0  0
 46 54  1  0  0  0
 47 48  1  0  0  0
 47 52  1  0  0  0
 48 49  1  0  0  0
 48 53  1  0  0  0
 49 50  1  0  0  0
 50 82  1  0  0  0
 50 54  1  0  0  0
 82 83  1  0  0  0
  7 55  1  0  0  0
  8 56  1  0  0  0
 68 69  1  0  0  0
 16 57  1  0  0  0
 17 58  1  0  0  0
 71 72  1  0  0  0
 25 59  1  0  0  0
 26 60  1  0  0  0
 74 75  1  0  0  0
 34 61  1  0  0  0
 35 62  1  0  0  0
 77 78  1  0  0  0
 43 63  1  0  0  0
 44 64  1  0  0  0
 80 81  1  0  0  0
 52 65  1  0  0  0
 53 66  1  0  0  0
 83 84  1  0  0  0
M  END
> <minimizedAffinity>
-13.72730

$$$$
2ZYM_ACX_A_901


 84 90  0  0  0  0  0  0  0  0999 V2000
   24.4172    3.2306   18.5639 C   0  0  0  0  0  0  0  0  0  0  0  0
   24.0788    4.2915   19.6437 C   0  0  0  0  0  0  0  0  0  0  0  0
   23.3135    5.4472   18.9976 C   0  0  0  0  0  0  0  0  0  0  0  0
   24.2170    6.0747   17.9426 C   0  0  0  0  0  0  0  0  0  0  0  0
   24.5534    4.9853   16.8671 C   0  0  0  0  0  0  0  0  0  0  0  0
   23.1974    2.7949   18.0163 O   0  0  0  0  0  0  0  0  0  0  0  0
   23.2896    3.6748   20.6559 O   0  0  0  0  0  0  0  0  0  0  0  0
   23.0015    6.4348   19.9726 O   0  0  0  0  0  0  0  0  0  0  0  0
   25.2011    3.8331   17.4961 O   0  0  0  0  0  0  0  0  0  0  0  0
   20.6140   -0.4114   17.3620 C   0  0  0  0  0  0  0  0  0  0  0  0
   21.1846   -0.2617   18.7941 C   0  0  0  0  0  0  0  0  0  0  0  0
   21.6842    1.1694   18.9388 C   0  0  0  0  0  0  0  0  0  0  0  0
   22.7533    1.4249   17.8898 C   0  0  0  0  0  0  0  0  0  0  0  0
   22.1862    1.2233   16.4654 C   0  0  0  0  0  0  0  0  0  0  0  0
   19.5952    0.5672   17.2103 O   0  0  0  0  0  0  0  0  0  0  0  0
   20.1659   -0.4980   19.7902 O   0  0  0  0  0  0  0  0  0  0  0  0
   22.2113    1.3291   20.2393 O   0  0  0  0  0  0  0  0  0  0  0  0
   21.6922   -0.1490   16.3618 O   0  0  0  0  0  0  0  0  0  0  0  0
   15.9681    1.7417   15.5995 C   0  0  0  0  0  0  0  0  0  0  0  0
   16.0452    1.6564   17.1407 C   0  0  0  0  0  0  0  0  0  0  0  0
   17.5184    1.5694   17.5356 C   0  0  0  0  0  0  0  0  0  0  0  0
   18.2297    0.3413   16.9216 C   0  0  0  0  0  0  0  0  0  0  0  0
   18.0264    0.3451   15.3788 C   0  0  0  0  0  0  0  0  0  0  0  0
   16.6298    2.9094   15.1652 O   0  0  0  0  0  0  0  0  0  0  0  0
   15.4265    2.8251   17.7153 O   0  0  0  0  0  0  0  0  0  0  0  0
   17.7297    1.4815   18.9573 O   0  0  0  0  0  0  0  0  0  0  0  0
   16.6210    0.5641   15.0436 O   0  0  0  0  0  0  0  0  0  0  0  0
   16.5659    6.0757   12.4725 C   0  0  0  0  0  0  0  0  0  0  0  0
   15.3895    5.9534   13.4344 C   0  0  0  0  0  0  0  0  0  0  0  0
   15.8197    5.0427   14.5927 C   0  0  0  0  0  0  0  0  0  0  0  0
   16.1919    3.6419   14.0331 C   0  0  0  0  0  0  0  0  0  0  0  0
   17.3288    3.7596   13.0030 C   0  0  0  0  0  0  0  0  0  0  0  0
   17.6009    6.6654   13.1466 O   0  0  0  0  0  0  0  0  0  0  0  0
   15.0455    7.2639   13.9102 O   0  0  0  0  0  0  0  0  0  0  0  0
   14.7439    4.9090   15.5289 O   0  0  0  0  0  0  0  0  0  0  0  0
   16.9367    4.7451   11.9984 O   0  0  0  0  0  0  0  0  0  0  0  0
   20.6205    9.5544   13.3347 C   0  0  0  0  0  0  0  0  0  0  0  0
   19.1471   10.0355   13.2621 C   0  0  0  0  0  0  0  0  0  0  0  0
   18.2227    8.9029   13.6840 C   0  0  0  0  0  0  0  0  0  0  0  0
   18.4455    7.7136   12.7619 C   0  0  0  0  0  0  0  0  0  0  0  0
   19.9108    7.2371   12.8507 C   0  0  0  0  0  0  0  0  0  0  0  0
   20.9627    9.2070   14.6687 O   0  0  0  0  0  0  0  0  0  0  0  0
   18.9660   11.1480   14.1276 O   0  0  0  0  0  0  0  0  0  0  0  0
   16.8530    9.3329   13.5878 O   0  0  0  0  0  0  0  0  0  0  0  0
   20.7895    8.3852   12.4714 O   0  0  0  0  0  0  0  0  0  0  0  0
   24.0715    8.4610   17.2866 C   0  0  0  0  0  0  0  0  0  0  0  0
   22.9868    9.4371   17.7826 C   0  0  0  0  0  0  0  0  0  0  0  0
   21.7941    9.3218   16.8263 C   0  0  0  0  0  0  0  0  0  0  0  0
   22.1713    9.6584   15.3751 C   0  0  0  0  0  0  0  0  0  0  0  0
   23.3939    8.7839   14.9306 C   0  0  0  0  0  0  0  0  0  0  0  0
   23.5563    7.1658   17.2993 O   0  0  0  0  0  0  0  0  0  0  0  0
   22.5901    9.0922   19.1114 O   0  0  0  0  0  0  0  0  0  0  0  0
   20.7144   10.1799   17.2152 O   0  0  0  0  0  0  0  0  0  0  0  0
   24.4359    8.8421   15.9574 O   0  0  0  0  0  0  0  0  0  0  0  0
   22.4761    3.3228   20.2620 H   0  0  0  0  0  0  0  0  0  0  0  0
   23.8217    6.7690   20.3682 H   0  0  0  0  0  0  0  0  0  0  0  0
   19.4452    0.1407   19.6734 H   0  0  0  0  0  0  0  0  0  0  0  0
   22.9337    0.6963   20.3753 H   0  0  0  0  0  0  0  0  0  0  0  0
   15.8818    3.6208   17.3984 H   0  0  0  0  0  0  0  0  0  0  0  0
   17.3550    0.6507   19.2892 H   0  0  0  0  0  0  0  0  0  0  0  0
   15.8141    7.6606   14.3492 H   0  0  0  0  0  0  0  0  0  0  0  0
   13.9748    4.5196   15.0841 H   0  0  0  0  0  0  0  0  0  0  0  0
   19.1745   10.8866   15.0381 H   0  0  0  0  0  0  0  0  0  0  0  0
   16.6573    9.5863   12.6722 H   0  0  0  0  0  0  0  0  0  0  0  0
   22.2488    8.1843   19.1215 H   0  0  0  0  0  0  0  0  0  0  0  0
   21.0014   11.1050   17.1619 H   0  0  0  0  0  0  0  0  0  0  0  0
   25.4699    5.4723   15.7865 C   0  0  0  0  0  0  0  0  0  0  0  0
   25.1050    4.9204   14.5241 O   0  0  0  0  0  0  0  0  0  0  0  0
   25.1691    3.9533   14.5633 H   0  0  0  0  0  0  0  0  0  0  0  0
   23.2748    1.4227   15.4114 C   0  0  0  0  0  0  0  0  0  0  0  0
   23.4258    2.8059   15.0596 O   0  0  0  0  0  0  0  0  0  0  0  0
   22.5942    3.1372   14.6860 H   0  0  0  0  0  0  0  0  0  0  0  0
   18.4100   -0.9312   14.6555 C   0  0  0  0  0  0  0  0  0  0  0  0
   19.7059   -0.8398   14.0671 O   0  0  0  0  0  0  0  0  0  0  0  0
   19.7142   -0.1235   13.4131 H   0  0  0  0  0  0  0  0  0  0  0  0
   17.6448    2.4615   12.2809 C   0  0  0  0  0  0  0  0  0  0  0  0
   16.4863    1.6268   12.2893 O   0  0  0  0  0  0  0  0  0  0  0  0
   16.2303    1.4383   13.2057 H   0  0  0  0  0  0  0  0  0  0  0  0
   20.1717    6.0618   11.9302 C   0  0  0  0  0  0  0  0  0  0  0  0
   19.3995    6.0854   10.7340 O   0  0  0  0  0  0  0  0  0  0  0  0
   18.4566    6.0367   10.9569 H   0  0  0  0  0  0  0  0  0  0  0  0
   24.0607    9.2415   13.6461 C   0  0  0  0  0  0  0  0  0  0  0  0
   25.3217    8.5876   13.4909 O   0  0  0  0  0  0  0  0  0  0  0  0
   25.8953    8.8090   14.2412 H   0  0  0  0  0  0  0  0  0  0  0  0
  1  2  1  0  0  0
  1  6  1  0  0  0
  1  9  1  0  0  0
  2  3  1  0  0  0
  2  7  1  0  0  0
  3  4  1  0  0  0
  3  8  1  0  0  0
  4  5  1  0  0  0
  4 51  1  0  0  0
  5 67  1  0  0  0
  5  9  1  0  0  0
 67 68  1  0  0  0
  6 13  1  0  0  0
 10 11  1  0  0  0
 10 15  1  0  0  0
 10 18  1  0  0  0
 11 12  1  0  0  0
 11 16  1  0  0  0
 12 13  1  0  0  0
 12 17  1  0  0  0
 13 14  1  0  0  0
 14 70  1  0  0  0
 14 18  1  0  0  0
 70 71  1  0  0  0
 15 22  1  0  0  0
 19 20  1  0  0  0
 19 24  1  0  0  0
 19 27  1  0  0  0
 20 21  1  0  0  0
 20 25  1  0  0  0
 21 22  1  0  0  0
 21 26  1  0  0  0
 22 23  1  0  0  0
 23 73  1  0  0  0
 23 27  1  0  0  0
 73 74  1  0  0  0
 24 31  1  0  0  0
 28 29  1  0  0  0
 28 33  1  0  0  0
 28 36  1  0  0  0
 29 30  1  0  0  0
 29 34  1  0  0  0
 30 31  1  0  0  0
 30 35  1  0  0  0
 31 32  1  0  0  0
 32 76  1  0  0  0
 32 36  1  0  0  0
 76 77  1  0  0  0
 33 40  1  0  0  0
 37 38  1  0  0  0
 37 42  1  0  0  0
 37 45  1  0  0  0
 38 39  1  0  0  0
 38 43  1  0  0  0
 39 40  1  0  0  0
 39 44  1  0  0  0
 40 41  1  0  0  0
 41 79  1  0  0  0
 41 45  1  0  0  0
 79 80  1  0  0  0
 42 49  1  0  0  0
 46 47  1  0  0  0
 46 51  1  0  0  0
 46 54  1  0  0  0
 47 48  1  0  0  0
 47 52  1  0  0  0
 48 49  1  0  0  0
 48 53  1  0  0  0
 49 50  1  0  0  0
 50 82  1  0  0  0
 50 54  1  0  0  0
 82 83  1  0  0  0
  7 55  1  0  0  0
  8 56  1  0  0  0
 68 69  1  0  0  0
 16 57  1  0  0  0
 17 58  1  0  0  0
 71 72  1  0  0  0
 25 59  1  0  0  0
 26 60  1  0  0  0
 74 75  1  0  0  0
 34 61  1  0  0  0
 35 62  1  0  0  0
 77 78  1  0  0  0
 43 63  1  0  0  0
 44 64  1  0  0  0
 80 81  1  0  0  0
 52 65  1  0  0  0
 53 66  1  0  0  0
 83 84  1  0  0  0
M  END
> <minimizedAffinity>
-12.66112

$$$$
2ZYM_ACX_A_901


 84 90  0  0  0  0  0  0  0  0999 V2000
   15.9062    5.5973   11.8398 C   0  0  0  0  0  0  0  0  0  0  0  0
   14.9466    5.4345   13.0476 C   0  0  0  0  0  0  0  0  0  0  0  0
   15.7014    4.7929   14.2127 C   0  0  0  0  0  0  0  0  0  0  0  0
   16.1778    3.4175   13.7606 C   0  0  0  0  0  0  0  0  0  0  0  0
   17.1380    3.6036   12.5359 C   0  0  0  0  0  0  0  0  0  0  0  0
   16.9739    6.4069   12.2666 O   0  0  0  0  0  0  0  0  0  0  0  0
   14.4583    6.7201   13.4172 O   0  0  0  0  0  0  0  0  0  0  0  0
   14.8339    4.6281   15.3278 O   0  0  0  0  0  0  0  0  0  0  0  0
   16.4484    4.3040   11.4512 O   0  0  0  0  0  0  0  0  0  0  0  0
   19.0799    9.9667   11.7420 C   0  0  0  0  0  0  0  0  0  0  0  0
   17.5352   10.0741   11.7813 C   0  0  0  0  0  0  0  0  0  0  0  0
   17.0063    8.8054   12.4365 C   0  0  0  0  0  0  0  0  0  0  0  0
   17.4549    7.6062   11.6184 C   0  0  0  0  0  0  0  0  0  0  0  0
   18.9979    7.5373   11.5433 C   0  0  0  0  0  0  0  0  0  0  0  0
   19.5236    9.7871   13.0797 O   0  0  0  0  0  0  0  0  0  0  0  0
   17.1099   11.2102   12.5649 O   0  0  0  0  0  0  0  0  0  0  0  0
   15.5967    8.8807   12.4821 O   0  0  0  0  0  0  0  0  0  0  0  0
   19.4801    8.7758   10.9336 O   0  0  0  0  0  0  0  0  0  0  0  0
   22.3617   10.4129   16.0266 C   0  0  0  0  0  0  0  0  0  0  0  0
   20.9608   11.0160   16.2762 C   0  0  0  0  0  0  0  0  0  0  0  0
   19.9895   10.3809   15.2828 C   0  0  0  0  0  0  0  0  0  0  0  0
   20.3946   10.6271   13.8110 C   0  0  0  0  0  0  0  0  0  0  0  0
   21.8614   10.1549   13.5936 C   0  0  0  0  0  0  0  0  0  0  0  0
   22.3157    9.0214   16.2546 O   0  0  0  0  0  0  0  0  0  0  0  0
   20.5590   10.7445   17.6341 O   0  0  0  0  0  0  0  0  0  0  0  0
   18.6385   10.8632   15.4093 O   0  0  0  0  0  0  0  0  0  0  0  0
   22.7332   10.6782   14.6433 O   0  0  0  0  0  0  0  0  0  0  0  0
   24.3407    5.7426   17.8132 C   0  0  0  0  0  0  0  0  0  0  0  0
   23.9985    6.8740   18.7758 C   0  0  0  0  0  0  0  0  0  0  0  0
   22.8967    7.7259   18.1305 C   0  0  0  0  0  0  0  0  0  0  0  0
   23.4205    8.3130   16.7908 C   0  0  0  0  0  0  0  0  0  0  0  0
   23.8412    7.1817   15.8365 C   0  0  0  0  0  0  0  0  0  0  0  0
   23.2186    4.9760   17.6491 O   0  0  0  0  0  0  0  0  0  0  0  0
   23.5493    6.3043   20.0151 O   0  0  0  0  0  0  0  0  0  0  0  0
   22.5360    8.7979   19.0093 O   0  0  0  0  0  0  0  0  0  0  0  0
   24.7795    6.3121   16.5420 O   0  0  0  0  0  0  0  0  0  0  0  0
   21.3847    1.2176   17.5453 C   0  0  0  0  0  0  0  0  0  0  0  0
   22.0166    1.6901   18.8815 C   0  0  0  0  0  0  0  0  0  0  0  0
   22.1813    3.2026   18.8575 C   0  0  0  0  0  0  0  0  0  0  0  0
   23.0658    3.5847   17.6803 C   0  0  0  0  0  0  0  0  0  0  0  0
   22.4223    3.1198   16.3567 C   0  0  0  0  0  0  0  0  0  0  0  0
   20.0901    1.7791   17.3841 O   0  0  0  0  0  0  0  0  0  0  0  0
   21.1749    1.3179   19.9644 O   0  0  0  0  0  0  0  0  0  0  0  0
   22.7966    3.6432   20.0812 O   0  0  0  0  0  0  0  0  0  0  0  0
   22.2370    1.6386   16.4331 O   0  0  0  0  0  0  0  0  0  0  0  0
   16.5166    1.5244   15.3250 C   0  0  0  0  0  0  0  0  0  0  0  0
   16.4093    1.6308   16.8589 C   0  0  0  0  0  0  0  0  0  0  0  0
   17.7895    2.0374   17.3880 C   0  0  0  0  0  0  0  0  0  0  0  0
   18.8830    1.0251   17.0129 C   0  0  0  0  0  0  0  0  0  0  0  0
   18.8721    0.7853   15.4639 C   0  0  0  0  0  0  0  0  0  0  0  0
   16.8938    2.7635   14.8096 O   0  0  0  0  0  0  0  0  0  0  0  0
   15.4347    2.6139   17.2132 O   0  0  0  0  0  0  0  0  0  0  0  0
   17.7912    2.1856   18.8133 O   0  0  0  0  0  0  0  0  0  0  0  0
   17.5007    0.5335   15.0176 O   0  0  0  0  0  0  0  0  0  0  0  0
   15.2041    7.2936   13.6536 H   0  0  0  0  0  0  0  0  0  0  0  0
   14.0860    4.0644   15.0752 H   0  0  0  0  0  0  0  0  0  0  0  0
   17.4392   11.1184   13.4727 H   0  0  0  0  0  0  0  0  0  0  0  0
   15.2486    8.9745   11.5816 H   0  0  0  0  0  0  0  0  0  0  0  0
   20.5446    9.7859   17.7815 H   0  0  0  0  0  0  0  0  0  0  0  0
   18.6097   11.8066   15.1854 H   0  0  0  0  0  0  0  0  0  0  0  0
   22.7766    5.7414   19.8509 H   0  0  0  0  0  0  0  0  0  0  0  0
   23.3132    9.3535   19.1774 H   0  0  0  0  0  0  0  0  0  0  0  0
   20.3051    1.7332   19.8553 H   0  0  0  0  0  0  0  0  0  0  0  0
   23.6665    3.2245   20.1747 H   0  0  0  0  0  0  0  0  0  0  0  0
   15.6895    3.4715   16.8384 H   0  0  0  0  0  0  0  0  0  0  0  0
   17.5960    1.3305   19.2275 H   0  0  0  0  0  0  0  0  0  0  0  0
   17.6501    2.3128   11.9736 C   0  0  0  0  0  0  0  0  0  0  0  0
   18.9095    1.9727   12.5476 O   0  0  0  0  0  0  0  0  0  0  0  0
   19.5549    2.6684   12.3466 H   0  0  0  0  0  0  0  0  0  0  0  0
   19.4500    6.3656   10.6724 C   0  0  0  0  0  0  0  0  0  0  0  0
   18.4291    5.9690    9.7448 O   0  0  0  0  0  0  0  0  0  0  0  0
   17.6419    5.6822   10.2336 H   0  0  0  0  0  0  0  0  0  0  0  0
   22.5106   10.5831   12.2920 C   0  0  0  0  0  0  0  0  0  0  0  0
   23.9224   10.3821   12.3108 O   0  0  0  0  0  0  0  0  0  0  0  0
   24.3156   10.9158   13.0190 H   0  0  0  0  0  0  0  0  0  0  0  0
   24.5212    7.6651   14.5674 C   0  0  0  0  0  0  0  0  0  0  0  0
   25.0232    8.9850   14.7786 O   0  0  0  0  0  0  0  0  0  0  0  0
   24.2892    9.5780   15.0035 H   0  0  0  0  0  0  0  0  0  0  0  0
   23.2873    3.4706   15.1627 C   0  0  0  0  0  0  0  0  0  0  0  0
   24.6756    3.5636   15.4656 O   0  0  0  0  0  0  0  0  0  0  0  0
   24.8192    4.2754   16.1087 H   0  0  0  0  0  0  0  0  0  0  0  0
   19.6771   -0.4181   15.0080 C   0  0  0  0  0  0  0  0  0  0  0  0
   20.7622    0.0055   14.1804 O   0  0  0  0  0  0  0  0  0  0  0  0
   20.4138    0.4665   13.4013 H   0  0  0  0  0  0  0  0  0  0  0  0
  1  2  1  0  0  0
  1  6  1  0  0  0
  1  9  1  0  0  0
  2  3  1  0  0  0
  2  7  1  0  0  0
  3  4  1  0  0  0
  3  8  1  0  0  0
  4  5  1  0  0  0
  4 51  1  0  0  0
  5 67  1  0  0  0
  5  9  1  0  0  0
 67 68  1  0  0  0
  6 13  1  0  0  0
 10 11  1  0  0  0
 10 15  1  0  0  0
 10 18  1  0  0  0
 11 12  1  0  0  0
 11 16  1  0  0  0
 12 13  1  0  0  0
 12 17  1  0  0  0
 13 14  1  0  0  0
 14 70  1  0  0  0
 14 18  1  0  0  0
 70 71  1  0  0  0
 15 22  1  0  0  0
 19 20  1  0  0  0
 19 24  1  0  0  0
 19 27  1  0  0  0
 20 21  1  0  0  0
 20 25  1  0  0  0
 21 22  1  0  0  0
 21 26  1  0  0  0
 22 23  1  0  0  0
 23 73  1  0  0  0
 23 27  1  0  0  0
 73 74  1  0  0  0
 24 31  1  0  0  0
 28 29  1  0  0  0
 28 33  1  0  0  0
 28 36  1  0  0  0
 29 30  1  0  0  0
 29 34  1  0  0  0
 30 31  1  0  0  0
 30 35  1  0  0  0
 31 32  1  0  0  0
 32 76  1  0  0  0
 32 36  1  0  0  0
 76 77  1  0  0  0
 33 40  1  0  0  0
 37 38  1  0  0  0
 37 42  1  0  0  0
 37 45  1  0  0  0
 38 39  1  0  0  0
 38 43  1  0  0  0
 39 40  1  0  0  0
 39 44  1  0  0  0
 40 41  1  0  0  0
 41 79  1  0  0  0
 41 45  1  0  0  0
 79 80  1  0  0  0
 42 49  1  0  0  0
 46 47  1  0  0  0
 46 51  1  0  0  0
 46 54  1  0  0  0
 47 48  1  0  0  0
 47 52  1  0  0  0
 48 49  1  0  0  0
 48 53  1  0  0  0
 49 50  1  0  0  0
 50 82  1  0  0  0
 50 54  1  0  0  0
 82 83  1  0  0  0
  7 55  1  0  0  0
  8 56  1  0  0  0
 68 69  1  0  0  0
 16 57  1  0  0  0
 17 58  1  0  0  0
 71 72  1  0  0  0
 25 59  1  0  0  0
 26 60  1  0  0  0
 74 75  1  0  0  0
 34 61  1  0  0  0
 35 62  1  0  0  0
 77 78  1  0  0  0
 43 63  1  0  0  0
 44 64  1  0  0  0
 80 81  1  0  0  0
 52 65  1  0  0  0
 53 66  1  0  0  0
 83 84  1  0  0  0
M  END
> <minimizedAffinity>
-11.05664

$$$$
