1HFS_L04_A_256


 55 59  0  0  0  0  0  0  0  0999 V2000
   35.5197   35.7993   24.6920 C   0  0  0  0  0  0  0  0  0  0  0  0
   36.2036   36.3400   23.4445 C   0  0  0  0  0  0  0  0  0  0  0  0
   37.1620   37.2372   23.6513 N   0  0  0  0  0  0  0  0  0  0  0  0
   35.8725   35.9527   22.3209 O   0  0  0  0  0  0  0  0  0  0  0  0
   37.3655   37.5239   24.5709 H   0  0  0  0  0  0  0  0  0  0  0  0
   37.9162   37.8038   22.5427 C   0  0  0  0  0  0  0  0  0  0  0  0
   39.2882   37.1390   22.5374 C   0  0  0  0  0  0  0  0  0  0  0  0
   39.4310   36.1044   21.7083 N   0  0  0  0  0  0  0  0  0  0  0  0
   40.1661   37.5204   23.3159 O   0  0  0  0  0  0  0  0  0  0  0  0
   38.6334   35.8630   21.1840 H   0  0  0  0  0  0  0  0  0  0  0  0
   40.5517   35.3270   21.4887 C   0  0  0  0  0  0  0  0  0  0  0  0
   41.0506   35.2640   20.1887 C   0  0  0  0  0  0  0  0  0  0  0  0
   42.1816   34.5098   19.8910 C   0  0  0  0  0  0  0  0  0  0  0  0
   42.8282   33.8031   20.8989 C   0  0  0  0  0  0  0  0  0  0  0  0
   42.3409   33.8569   22.2046 C   0  0  0  0  0  0  0  0  0  0  0  0
   41.2087   34.6153   22.4916 C   0  0  0  0  0  0  0  0  0  0  0  0
   38.0744   39.3167   22.7052 C   0  0  0  0  0  0  0  0  0  0  0  0
   36.2579   39.4022   21.0309 C   0  0  0  0  0  0  0  0  0  0  0  0
   37.2995   40.2355   21.7567 C   0  0  0  0  0  0  0  0  0  0  0  0
   36.6378   41.3789   22.5250 C   0  0  0  0  0  0  0  0  0  0  0  0
   36.1909   34.4779   25.0772 C   0  0  0  0  0  0  0  0  0  0  0  0
   35.4223   33.6730   26.0908 C   0  0  0  0  0  0  0  0  0  0  0  0
   36.2504   33.1058   27.2021 C   0  0  0  0  0  0  0  0  0  0  0  0
   36.2937   31.7368   27.4253 C   0  0  0  0  0  0  0  0  0  0  0  0
   37.0327   31.2189   28.4723 C   0  0  0  0  0  0  0  0  0  0  0  0
   37.7487   32.0561   29.3228 C   0  0  0  0  0  0  0  0  0  0  0  0
   37.7093   33.4270   29.0996 C   0  0  0  0  0  0  0  0  0  0  0  0
   36.9676   33.9445   28.0474 C   0  0  0  0  0  0  0  0  0  0  0  0
   38.5286   31.4904   30.4350 C   0  0  0  0  0  0  0  0  0  0  0  0
   38.5047   32.0780   31.6960 C   0  0  0  0  0  0  0  0  0  0  0  0
   39.2419   31.5390   32.7452 C   0  0  0  0  0  0  0  0  0  0  0  0
   40.0027   30.3943   32.5528 C   0  0  0  0  0  0  0  0  0  0  0  0
   40.0352   29.8122   31.2937 C   0  0  0  0  0  0  0  0  0  0  0  0
   39.3053   30.3534   30.2441 C   0  0  0  0  0  0  0  0  0  0  0  0
   40.7032   29.8496   33.5688 F   0  0  0  0  0  0  0  0  0  0  0  0
   34.0246   35.6044   24.4424 C   0  0  0  0  0  0  0  0  0  0  0  0
   33.1867   36.8763   24.2987 C   0  0  0  0  0  0  0  0  0  0  0  0
   31.7207   36.5750   24.6308 C   0  0  0  0  0  0  0  0  0  0  0  0
   31.1767   37.2906   25.4759 O   0  0  0  0  0  0  0  0  0  0  0  0
   31.0487   35.6756   24.0625 O   0  0  0  0  0  0  0  0  0  0  0  0
   31.4512   35.1261   23.4191 H   0  0  0  0  0  0  0  0  0  0  0  0
   33.7293   38.0572   25.1168 C   0  0  0  0  0  0  0  0  0  0  0  0
   34.0532   39.2924   24.2932 C   0  0  0  0  0  0  0  0  0  0  0  0
   33.1575   39.3877   23.0655 C   0  0  0  0  0  0  0  0  0  0  0  0
   32.2551   40.6120   23.1197 C   0  0  0  0  0  0  0  0  0  0  0  0
   29.8882   40.0586   23.1654 C   0  0  0  0  0  0  0  0  0  0  0  0
   30.6745   40.5708   21.0111 C   0  0  0  0  0  0  0  0  0  0  0  0
   28.7542   39.8534   22.2558 C   0  0  0  0  0  0  0  0  0  0  0  0
   29.2073   40.1511   20.9450 C   0  0  0  0  0  0  0  0  0  0  0  0
   27.4372   39.4152   22.4552 C   0  0  0  0  0  0  0  0  0  0  0  0
   28.3340   40.0042   19.8600 C   0  0  0  0  0  0  0  0  0  0  0  0
   27.0323   39.5661   20.0850 C   0  0  0  0  0  0  0  0  0  0  0  0
   26.5922   39.2748   21.3648 C   0  0  0  0  0  0  0  0  0  0  0  0
   30.9759   40.4159   22.4396 N   0  0  0  0  0  0  0  0  0  0  0  0
   29.8673   39.8917   24.3876 O   0  0  0  0  0  0  0  0  0  0  0  0
 42 37  1  0  0  0
 42 43  1  0  0  0
 37 38  1  0  0  0
 37 36  1  0  0  0
 38 39  2  0  0  0
 38 40  1  0  0  0
 18 19  1  0  0  0
 29 30  2  0  0  0
 29 26  1  0  0  0
 29 34  1  0  0  0
 30 31  1  0  0  0
  1 21  1  0  0  0
  1  2  1  0  0  0
  1 36  1  0  0  0
 21 22  1  0  0  0
 22 23  1  0  0  0
 23 24  2  0  0  0
 23 28  1  0  0  0
 24 25  1  0  0  0
 25 26  2  0  0  0
 26 27  1  0  0  0
 27 28  2  0  0  0
  2  3  1  0  0  0
  2  4  2  0  0  0
 31 32  2  0  0  0
  6 17  1  0  0  0
  6  7  1  0  0  0
  6  3  1  0  0  0
 17 19  1  0  0  0
 19 20  1  0  0  0
 43 44  1  0  0  0
 44 45  1  0  0  0
 45 54  1  0  0  0
 46 48  1  0  0  0
 46 54  1  0  0  0
 46 55  2  0  0  0
  7  8  1  0  0  0
  7  9  2  0  0  0
 47 49  1  0  0  0
 47 54  1  0  0  0
 48 49  2  0  0  0
 48 50  1  0  0  0
 11 12  2  0  0  0
 11 16  1  0  0  0
 11  8  1  0  0  0
 12 13  1  0  0  0
 13 14  2  0  0  0
 14 15  1  0  0  0
 15 16  2  0  0  0
 49 51  1  0  0  0
 50 53  2  0  0  0
 51 52  2  0  0  0
 52 53  1  0  0  0
 32 33  1  0  0  0
 32 35  1  0  0  0
 33 34  2  0  0  0
  3  5  1  0  0  0
  8 10  1  0  0  0
 40 41  1  0  0  0
M  END
> <minimizedAffinity>
-13.28104

$$$$
1HFS_L04_A_256


 55 59  0  0  0  0  0  0  0  0999 V2000
   36.1200   35.6665   25.0189 C   0  0  0  0  0  0  0  0  0  0  0  0
   36.2634   36.1561   23.5851 C   0  0  0  0  0  0  0  0  0  0  0  0
   36.8429   37.3424   23.4326 N   0  0  0  0  0  0  0  0  0  0  0  0
   35.8601   35.4751   22.6386 O   0  0  0  0  0  0  0  0  0  0  0  0
   37.1231   37.8493   24.2286 H   0  0  0  0  0  0  0  0  0  0  0  0
   37.0708   37.9056   22.1098 C   0  0  0  0  0  0  0  0  0  0  0  0
   38.4462   38.5632   22.1247 C   0  0  0  0  0  0  0  0  0  0  0  0
   38.8974   38.9965   20.9471 N   0  0  0  0  0  0  0  0  0  0  0  0
   39.0999   38.6119   23.1699 O   0  0  0  0  0  0  0  0  0  0  0  0
   38.3023   38.8429   20.1780 H   0  0  0  0  0  0  0  0  0  0  0  0
   40.0908   39.6328   20.6651 C   0  0  0  0  0  0  0  0  0  0  0  0
   40.9430   39.0295   19.7418 C   0  0  0  0  0  0  0  0  0  0  0  0
   42.1581   39.6151   19.3990 C   0  0  0  0  0  0  0  0  0  0  0  0
   42.5367   40.8185   19.9837 C   0  0  0  0  0  0  0  0  0  0  0  0
   41.6941   41.4343   20.9089 C   0  0  0  0  0  0  0  0  0  0  0  0
   40.4801   40.8399   21.2443 C   0  0  0  0  0  0  0  0  0  0  0  0
   36.0029   38.9461   21.7669 C   0  0  0  0  0  0  0  0  0  0  0  0
   35.0742   41.2365   21.7290 C   0  0  0  0  0  0  0  0  0  0  0  0
   36.1529   40.3585   22.3386 C   0  0  0  0  0  0  0  0  0  0  0  0
   36.0411   40.3442   23.8627 C   0  0  0  0  0  0  0  0  0  0  0  0
   36.1687   34.1359   25.0143 C   0  0  0  0  0  0  0  0  0  0  0  0
   35.3984   33.4950   26.1376 C   0  0  0  0  0  0  0  0  0  0  0  0
   36.2419   32.9565   27.2515 C   0  0  0  0  0  0  0  0  0  0  0  0
   36.2932   31.5932   27.5055 C   0  0  0  0  0  0  0  0  0  0  0  0
   37.0467   31.1022   28.5552 C   0  0  0  0  0  0  0  0  0  0  0  0
   37.7696   31.9612   29.3775 C   0  0  0  0  0  0  0  0  0  0  0  0
   37.7222   33.3265   29.1235 C   0  0  0  0  0  0  0  0  0  0  0  0
   36.9660   33.8170   28.0687 C   0  0  0  0  0  0  0  0  0  0  0  0
   38.5650   31.4241   30.4929 C   0  0  0  0  0  0  0  0  0  0  0  0
   39.3683   30.3010   30.3220 C   0  0  0  0  0  0  0  0  0  0  0  0
   40.1201   29.7976   31.3785 C   0  0  0  0  0  0  0  0  0  0  0  0
   40.0916   30.4196   32.6189 C   0  0  0  0  0  0  0  0  0  0  0  0
   39.2840   31.5341   32.7939 C   0  0  0  0  0  0  0  0  0  0  0  0
   38.5278   32.0332   31.7420 C   0  0  0  0  0  0  0  0  0  0  0  0
   40.8343   29.9538   33.6442 F   0  0  0  0  0  0  0  0  0  0  0  0
   34.8145   36.1733   25.6309 C   0  0  0  0  0  0  0  0  0  0  0  0
   33.7841   36.7484   24.6572 C   0  0  0  0  0  0  0  0  0  0  0  0
   32.7025   35.7020   24.3649 C   0  0  0  0  0  0  0  0  0  0  0  0
   31.5852   35.8970   24.8506 O   0  0  0  0  0  0  0  0  0  0  0  0
   32.8874   34.6952   23.6332 O   0  0  0  0  0  0  0  0  0  0  0  0
   33.7317   34.5368   23.2589 H   0  0  0  0  0  0  0  0  0  0  0  0
   33.1817   38.0806   25.1268 C   0  0  0  0  0  0  0  0  0  0  0  0
   32.6953   38.9783   24.0014 C   0  0  0  0  0  0  0  0  0  0  0  0
   31.9413   40.1846   24.5443 C   0  0  0  0  0  0  0  0  0  0  0  0
   31.3172   41.0087   23.4274 C   0  0  0  0  0  0  0  0  0  0  0  0
   29.8114   40.4533   21.6013 C   0  0  0  0  0  0  0  0  0  0  0  0
   28.9694   39.8445   23.7088 C   0  0  0  0  0  0  0  0  0  0  0  0
   28.4667   39.9137   21.3649 C   0  0  0  0  0  0  0  0  0  0  0  0
   27.9341   39.5442   22.6266 C   0  0  0  0  0  0  0  0  0  0  0  0
   27.6895   39.7589   20.2080 C   0  0  0  0  0  0  0  0  0  0  0  0
   26.6348   39.0274   22.7058 C   0  0  0  0  0  0  0  0  0  0  0  0
   25.8839   38.8853   21.5426 C   0  0  0  0  0  0  0  0  0  0  0  0
   26.4048   39.2477   20.3123 C   0  0  0  0  0  0  0  0  0  0  0  0
   30.0587   40.4516   22.9340 N   0  0  0  0  0  0  0  0  0  0  0  0
   30.5768   40.8794   20.7324 O   0  0  0  0  0  0  0  0  0  0  0  0
 42 37  1  0  0  0
 42 43  1  0  0  0
 37 38  1  0  0  0
 37 36  1  0  0  0
 38 39  2  0  0  0
 38 40  1  0  0  0
 18 19  1  0  0  0
 29 30  2  0  0  0
 29 26  1  0  0  0
 29 34  1  0  0  0
 30 31  1  0  0  0
  1 21  1  0  0  0
  1  2  1  0  0  0
  1 36  1  0  0  0
 21 22  1  0  0  0
 22 23  1  0  0  0
 23 24  2  0  0  0
 23 28  1  0  0  0
 24 25  1  0  0  0
 25 26  2  0  0  0
 26 27  1  0  0  0
 27 28  2  0  0  0
  2  3  1  0  0  0
  2  4  2  0  0  0
 31 32  2  0  0  0
  6 17  1  0  0  0
  6  7  1  0  0  0
  6  3  1  0  0  0
 17 19  1  0  0  0
 19 20  1  0  0  0
 43 44  1  0  0  0
 44 45  1  0  0  0
 45 54  1  0  0  0
 46 48  1  0  0  0
 46 54  1  0  0  0
 46 55  2  0  0  0
  7  8  1  0  0  0
  7  9  2  0  0  0
 47 49  1  0  0  0
 47 54  1  0  0  0
 48 49  2  0  0  0
 48 50  1  0  0  0
 11 12  2  0  0  0
 11 16  1  0  0  0
 11  8  1  0  0  0
 12 13  1  0  0  0
 13 14  2  0  0  0
 14 15  1  0  0  0
 15 16  2  0  0  0
 49 51  1  0  0  0
 50 53  2  0  0  0
 51 52  2  0  0  0
 52 53  1  0  0  0
 32 33  1  0  0  0
 32 35  1  0  0  0
 33 34  2  0  0  0
  3  5  1  0  0  0
  8 10  1  0  0  0
 40 41  1  0  0  0
M  END
> <minimizedAffinity>
-12.90504

$$$$
1HFS_L04_A_256


 55 59  0  0  0  0  0  0  0  0999 V2000
   33.5772   36.8794   24.0790 C   0  0  0  0  0  0  0  0  0  0  0  0
   33.5555   38.3906   23.9004 C   0  0  0  0  0  0  0  0  0  0  0  0
   33.0236   38.8329   22.7655 N   0  0  0  0  0  0  0  0  0  0  0  0
   34.0085   39.1391   24.7703 O   0  0  0  0  0  0  0  0  0  0  0  0
   32.6994   38.1850   22.0989 H   0  0  0  0  0  0  0  0  0  0  0  0
   32.9116   40.2579   22.4905 C   0  0  0  0  0  0  0  0  0  0  0  0
   31.4387   40.5591   22.2367 C   0  0  0  0  0  0  0  0  0  0  0  0
   30.7388   39.5888   21.6478 N   0  0  0  0  0  0  0  0  0  0  0  0
   30.9755   41.6690   22.5118 O   0  0  0  0  0  0  0  0  0  0  0  0
   31.2423   38.7726   21.4252 H   0  0  0  0  0  0  0  0  0  0  0  0
   29.3995   39.5791   21.3091 C   0  0  0  0  0  0  0  0  0  0  0  0
   29.0723   39.7135   19.9609 C   0  0  0  0  0  0  0  0  0  0  0  0
   27.7454   39.7031   19.5412 C   0  0  0  0  0  0  0  0  0  0  0  0
   26.7246   39.5599   20.4742 C   0  0  0  0  0  0  0  0  0  0  0  0
   27.0366   39.4239   21.8267 C   0  0  0  0  0  0  0  0  0  0  0  0
   28.3677   39.4349   22.2359 C   0  0  0  0  0  0  0  0  0  0  0  0
   33.7384   40.6446   21.2628 C   0  0  0  0  0  0  0  0  0  0  0  0
   35.3933   41.6183   22.8194 C   0  0  0  0  0  0  0  0  0  0  0  0
   35.2220   40.9692   21.4572 C   0  0  0  0  0  0  0  0  0  0  0  0
   36.0750   39.7058   21.3491 C   0  0  0  0  0  0  0  0  0  0  0  0
   32.3875   36.4792   24.9564 C   0  0  0  0  0  0  0  0  0  0  0  0
   31.0692   36.4613   24.2300 C   0  0  0  0  0  0  0  0  0  0  0  0
   30.0242   37.3691   24.8011 C   0  0  0  0  0  0  0  0  0  0  0  0
   30.3655   38.6214   25.2919 C   0  0  0  0  0  0  0  0  0  0  0  0
   29.4040   39.4437   25.8486 C   0  0  0  0  0  0  0  0  0  0  0  0
   28.0758   39.0359   25.9279 C   0  0  0  0  0  0  0  0  0  0  0  0
   27.7308   37.7836   25.4345 C   0  0  0  0  0  0  0  0  0  0  0  0
   28.6975   36.9604   24.8753 C   0  0  0  0  0  0  0  0  0  0  0  0
   27.0637   39.9210   26.5259 C   0  0  0  0  0  0  0  0  0  0  0  0
   25.7343   39.5223   26.6246 C   0  0  0  0  0  0  0  0  0  0  0  0
   24.7811   40.3612   27.1924 C   0  0  0  0  0  0  0  0  0  0  0  0
   25.1463   41.6066   27.6842 C   0  0  0  0  0  0  0  0  0  0  0  0
   26.4696   42.0099   27.5782 C   0  0  0  0  0  0  0  0  0  0  0  0
   27.4205   41.1761   27.0055 C   0  0  0  0  0  0  0  0  0  0  0  0
   24.2347   42.4190   28.2576 F   0  0  0  0  0  0  0  0  0  0  0  0
   34.8974   36.4321   24.7054 C   0  0  0  0  0  0  0  0  0  0  0  0
   35.6271   35.2825   24.0079 C   0  0  0  0  0  0  0  0  0  0  0  0
   36.7246   35.8399   23.0941 C   0  0  0  0  0  0  0  0  0  0  0  0
   37.8653   35.9047   23.5597 O   0  0  0  0  0  0  0  0  0  0  0  0
   36.5268   36.1887   21.9014 O   0  0  0  0  0  0  0  0  0  0  0  0
   35.6647   36.1438   21.5369 H   0  0  0  0  0  0  0  0  0  0  0  0
   36.1725   34.2285   24.9826 C   0  0  0  0  0  0  0  0  0  0  0  0
   35.1438   33.2081   25.4403 C   0  0  0  0  0  0  0  0  0  0  0  0
   35.6450   32.4204   26.6431 C   0  0  0  0  0  0  0  0  0  0  0  0
   36.8067   33.1216   27.3320 C   0  0  0  0  0  0  0  0  0  0  0  0
   37.6838   33.1398   29.5994 C   0  0  0  0  0  0  0  0  0  0  0  0
   37.3693   30.9719   28.7492 C   0  0  0  0  0  0  0  0  0  0  0  0
   38.1753   32.2194   30.6322 C   0  0  0  0  0  0  0  0  0  0  0  0
   38.0013   30.9012   30.1380 C   0  0  0  0  0  0  0  0  0  0  0  0
   38.7667   32.4206   31.8876 C   0  0  0  0  0  0  0  0  0  0  0  0
   38.4226   29.8108   30.9095 C   0  0  0  0  0  0  0  0  0  0  0  0
   39.0080   30.0380   32.1515 C   0  0  0  0  0  0  0  0  0  0  0  0
   39.1782   31.3253   32.6316 C   0  0  0  0  0  0  0  0  0  0  0  0
   37.2782   32.4199   28.5248 N   0  0  0  0  0  0  0  0  0  0  0  0
   37.6796   34.3710   29.6782 O   0  0  0  0  0  0  0  0  0  0  0  0
 42 37  1  0  0  0
 42 43  1  0  0  0
 37 38  1  0  0  0
 37 36  1  0  0  0
 38 39  2  0  0  0
 38 40  1  0  0  0
 18 19  1  0  0  0
 29 30  2  0  0  0
 29 26  1  0  0  0
 29 34  1  0  0  0
 30 31  1  0  0  0
  1 21  1  0  0  0
  1  2  1  0  0  0
  1 36  1  0  0  0
 21 22  1  0  0  0
 22 23  1  0  0  0
 23 24  2  0  0  0
 23 28  1  0  0  0
 24 25  1  0  0  0
 25 26  2  0  0  0
 26 27  1  0  0  0
 27 28  2  0  0  0
  2  3  1  0  0  0
  2  4  2  0  0  0
 31 32  2  0  0  0
  6 17  1  0  0  0
  6  7  1  0  0  0
  6  3  1  0  0  0
 17 19  1  0  0  0
 19 20  1  0  0  0
 43 44  1  0  0  0
 44 45  1  0  0  0
 45 54  1  0  0  0
 46 48  1  0  0  0
 46 54  1  0  0  0
 46 55  2  0  0  0
  7  8  1  0  0  0
  7  9  2  0  0  0
 47 49  1  0  0  0
 47 54  1  0  0  0
 48 49  2  0  0  0
 48 50  1  0  0  0
 11 12  2  0  0  0
 11 16  1  0  0  0
 11  8  1  0  0  0
 12 13  1  0  0  0
 13 14  2  0  0  0
 14 15  1  0  0  0
 15 16  2  0  0  0
 49 51  1  0  0  0
 50 53  2  0  0  0
 51 52  2  0  0  0
 52 53  1  0  0  0
 32 33  1  0  0  0
 32 35  1  0  0  0
 33 34  2  0  0  0
  3  5  1  0  0  0
  8 10  1  0  0  0
 40 41  1  0  0  0
M  END
> <minimizedAffinity>
-12.81511

$$$$
1HFS_L04_A_256


 55 59  0  0  0  0  0  0  0  0999 V2000
   33.1671   39.5984   23.0575 C   0  0  0  0  0  0  0  0  0  0  0  0
   31.7288   39.9593   23.3998 C   0  0  0  0  0  0  0  0  0  0  0  0
   31.3212   39.6239   24.6195 N   0  0  0  0  0  0  0  0  0  0  0  0
   31.0052   40.5296   22.5793 O   0  0  0  0  0  0  0  0  0  0  0  0
   31.9385   39.1491   25.2219 H   0  0  0  0  0  0  0  0  0  0  0  0
   29.9787   39.9458   25.0809 C   0  0  0  0  0  0  0  0  0  0  0  0
   28.9981   39.1726   24.2063 C   0  0  0  0  0  0  0  0  0  0  0  0
   28.2614   39.9046   23.3698 N   0  0  0  0  0  0  0  0  0  0  0  0
   28.8744   37.9525   24.3412 O   0  0  0  0  0  0  0  0  0  0  0  0
   28.4152   40.8764   23.4027 H   0  0  0  0  0  0  0  0  0  0  0  0
   27.3106   39.4775   22.4632 C   0  0  0  0  0  0  0  0  0  0  0  0
   27.5905   39.6403   21.1075 C   0  0  0  0  0  0  0  0  0  0  0  0
   26.6860   39.2258   20.1343 C   0  0  0  0  0  0  0  0  0  0  0  0
   25.4816   38.6423   20.5113 C   0  0  0  0  0  0  0  0  0  0  0  0
   25.1878   38.4724   21.8640 C   0  0  0  0  0  0  0  0  0  0  0  0
   26.1002   38.8901   22.8296 C   0  0  0  0  0  0  0  0  0  0  0  0
   29.7052   41.4464   24.9639 C   0  0  0  0  0  0  0  0  0  0  0  0
   29.3016   43.6994   25.8972 C   0  0  0  0  0  0  0  0  0  0  0  0
   29.3264   42.2181   26.2308 C   0  0  0  0  0  0  0  0  0  0  0  0
   27.9685   41.7606   26.7621 C   0  0  0  0  0  0  0  0  0  0  0  0
   33.6699   40.5750   21.9905 C   0  0  0  0  0  0  0  0  0  0  0  0
   35.0219   41.1657   22.2890 C   0  0  0  0  0  0  0  0  0  0  0  0
   36.1316   40.1676   22.4092 C   0  0  0  0  0  0  0  0  0  0  0  0
   36.8218   40.0163   23.6035 C   0  0  0  0  0  0  0  0  0  0  0  0
   37.8673   39.1175   23.7016 C   0  0  0  0  0  0  0  0  0  0  0  0
   38.2494   38.3456   22.6085 C   0  0  0  0  0  0  0  0  0  0  0  0
   37.5580   38.4931   21.4122 C   0  0  0  0  0  0  0  0  0  0  0  0
   36.5083   39.3951   21.3164 C   0  0  0  0  0  0  0  0  0  0  0  0
   39.3663   37.3951   22.7271 C   0  0  0  0  0  0  0  0  0  0  0  0
   39.3241   36.1594   22.0888 C   0  0  0  0  0  0  0  0  0  0  0  0
   40.3830   35.2645   22.2020 C   0  0  0  0  0  0  0  0  0  0  0  0
   41.5076   35.5985   22.9434 C   0  0  0  0  0  0  0  0  0  0  0  0
   41.5478   36.8263   23.5884 C   0  0  0  0  0  0  0  0  0  0  0  0
   40.4885   37.7174   23.4818 C   0  0  0  0  0  0  0  0  0  0  0  0
   42.5502   34.7480   23.0412 F   0  0  0  0  0  0  0  0  0  0  0  0
   33.2554   38.1539   22.5662 C   0  0  0  0  0  0  0  0  0  0  0  0
   33.8883   37.1454   23.5268 C   0  0  0  0  0  0  0  0  0  0  0  0
   32.7941   36.4341   24.3311 C   0  0  0  0  0  0  0  0  0  0  0  0
   32.4332   36.9670   25.3837 O   0  0  0  0  0  0  0  0  0  0  0  0
   32.2298   35.3747   23.9535 O   0  0  0  0  0  0  0  0  0  0  0  0
   32.4954   34.9610   23.1559 H   0  0  0  0  0  0  0  0  0  0  0  0
   34.8275   36.1497   22.8304 C   0  0  0  0  0  0  0  0  0  0  0  0
   36.0024   35.6980   23.6815 C   0  0  0  0  0  0  0  0  0  0  0  0
   35.6945   34.3903   24.3981 C   0  0  0  0  0  0  0  0  0  0  0  0
   35.2708   34.6242   25.8409 C   0  0  0  0  0  0  0  0  0  0  0  0
   36.7246   34.2567   27.7546 C   0  0  0  0  0  0  0  0  0  0  0  0
   35.8530   32.2653   26.8623 C   0  0  0  0  0  0  0  0  0  0  0  0
   37.3280   33.1634   28.5265 C   0  0  0  0  0  0  0  0  0  0  0  0
   36.8205   31.9475   28.0007 C   0  0  0  0  0  0  0  0  0  0  0  0
   38.2634   33.1345   29.5707 C   0  0  0  0  0  0  0  0  0  0  0  0
   37.2592   30.7273   28.5300 C   0  0  0  0  0  0  0  0  0  0  0  0
   38.1894   30.7263   29.5652 C   0  0  0  0  0  0  0  0  0  0  0  0
   38.6845   31.9139   30.0761 C   0  0  0  0  0  0  0  0  0  0  0  0
   35.9333   33.7294   26.7886 N   0  0  0  0  0  0  0  0  0  0  0  0
   36.9360   35.4598   27.9282 O   0  0  0  0  0  0  0  0  0  0  0  0
 42 37  1  0  0  0
 42 43  1  0  0  0
 37 38  1  0  0  0
 37 36  1  0  0  0
 38 39  2  0  0  0
 38 40  1  0  0  0
 18 19  1  0  0  0
 29 30  2  0  0  0
 29 26  1  0  0  0
 29 34  1  0  0  0
 30 31  1  0  0  0
  1 21  1  0  0  0
  1  2  1  0  0  0
  1 36  1  0  0  0
 21 22  1  0  0  0
 22 23  1  0  0  0
 23 24  2  0  0  0
 23 28  1  0  0  0
 24 25  1  0  0  0
 25 26  2  0  0  0
 26 27  1  0  0  0
 27 28  2  0  0  0
  2  3  1  0  0  0
  2  4  2  0  0  0
 31 32  2  0  0  0
  6 17  1  0  0  0
  6  7  1  0  0  0
  6  3  1  0  0  0
 17 19  1  0  0  0
 19 20  1  0  0  0
 43 44  1  0  0  0
 44 45  1  0  0  0
 45 54  1  0  0  0
 46 48  1  0  0  0
 46 54  1  0  0  0
 46 55  2  0  0  0
  7  8  1  0  0  0
  7  9  2  0  0  0
 47 49  1  0  0  0
 47 54  1  0  0  0
 48 49  2  0  0  0
 48 50  1  0  0  0
 11 12  2  0  0  0
 11 16  1  0  0  0
 11  8  1  0  0  0
 12 13  1  0  0  0
 13 14  2  0  0  0
 14 15  1  0  0  0
 15 16  2  0  0  0
 49 51  1  0  0  0
 50 53  2  0  0  0
 51 52  2  0  0  0
 52 53  1  0  0  0
 32 33  1  0  0  0
 32 35  1  0  0  0
 33 34  2  0  0  0
  3  5  1  0  0  0
  8 10  1  0  0  0
 40 41  1  0  0  0
M  END
> <minimizedAffinity>
-12.80092

$$$$
1HFS_L04_A_256


 55 59  0  0  0  0  0  0  0  0999 V2000
   33.8588   36.9413   24.4546 C   0  0  0  0  0  0  0  0  0  0  0  0
   32.4772   37.4960   24.7703 C   0  0  0  0  0  0  0  0  0  0  0  0
   32.1915   38.6792   24.2366 N   0  0  0  0  0  0  0  0  0  0  0  0
   31.6876   36.8669   25.4795 O   0  0  0  0  0  0  0  0  0  0  0  0
   32.8722   39.1435   23.6978 H   0  0  0  0  0  0  0  0  0  0  0  0
   30.8902   39.3009   24.4341 C   0  0  0  0  0  0  0  0  0  0  0  0
   30.0265   38.9439   23.2296 C   0  0  0  0  0  0  0  0  0  0  0  0
   28.8075   39.4842   23.2063 N   0  0  0  0  0  0  0  0  0  0  0  0
   30.4398   38.1470   22.3834 O   0  0  0  0  0  0  0  0  0  0  0  0
   28.5783   40.0562   23.9741 H   0  0  0  0  0  0  0  0  0  0  0  0
   27.8244   39.3464   22.2457 C   0  0  0  0  0  0  0  0  0  0  0  0
   26.6249   38.7488   22.6289 C   0  0  0  0  0  0  0  0  0  0  0  0
   25.5840   38.5840   21.7199 C   0  0  0  0  0  0  0  0  0  0  0  0
   25.7355   39.0163   20.4072 C   0  0  0  0  0  0  0  0  0  0  0  0
   26.9298   39.6166   20.0091 C   0  0  0  0  0  0  0  0  0  0  0  0
   27.9648   39.7772   20.9270 C   0  0  0  0  0  0  0  0  0  0  0  0
   31.0214   40.8210   24.5451 C   0  0  0  0  0  0  0  0  0  0  0  0
   29.7469   42.7890   25.3280 C   0  0  0  0  0  0  0  0  0  0  0  0
   30.4371   41.5138   25.7792 C   0  0  0  0  0  0  0  0  0  0  0  0
   29.4552   40.5955   26.5060 C   0  0  0  0  0  0  0  0  0  0  0  0
   34.3177   36.0843   25.6378 C   0  0  0  0  0  0  0  0  0  0  0  0
   34.9870   34.7965   25.2384 C   0  0  0  0  0  0  0  0  0  0  0  0
   35.6799   34.0758   26.3531 C   0  0  0  0  0  0  0  0  0  0  0  0
   36.4298   34.7735   27.2894 C   0  0  0  0  0  0  0  0  0  0  0  0
   37.0952   34.1022   28.2979 C   0  0  0  0  0  0  0  0  0  0  0  0
   37.0272   32.7157   28.3975 C   0  0  0  0  0  0  0  0  0  0  0  0
   36.2746   32.0149   27.4630 C   0  0  0  0  0  0  0  0  0  0  0  0
   35.6068   32.6911   26.4521 C   0  0  0  0  0  0  0  0  0  0  0  0
   37.7434   32.0145   29.4748 C   0  0  0  0  0  0  0  0  0  0  0  0
   37.9173   30.6345   29.4371 C   0  0  0  0  0  0  0  0  0  0  0  0
   38.5966   29.9758   30.4567 C   0  0  0  0  0  0  0  0  0  0  0  0
   39.1259   30.6898   31.5226 C   0  0  0  0  0  0  0  0  0  0  0  0
   38.9455   32.0648   31.5667 C   0  0  0  0  0  0  0  0  0  0  0  0
   38.2617   32.7225   30.5532 C   0  0  0  0  0  0  0  0  0  0  0  0
   39.8064   30.0643   32.5051 F   0  0  0  0  0  0  0  0  0  0  0  0
   34.8442   38.0776   24.1838 C   0  0  0  0  0  0  0  0  0  0  0  0
   35.4781   38.1121   22.7918 C   0  0  0  0  0  0  0  0  0  0  0  0
   35.4320   36.7146   22.1634 C   0  0  0  0  0  0  0  0  0  0  0  0
   34.3289   36.2959   21.8028 O   0  0  0  0  0  0  0  0  0  0  0  0
   36.4530   36.0064   21.9651 O   0  0  0  0  0  0  0  0  0  0  0  0
   37.2961   36.3139   22.2346 H   0  0  0  0  0  0  0  0  0  0  0  0
   34.8638   39.1761   21.8705 C   0  0  0  0  0  0  0  0  0  0  0  0
   35.8374   40.2533   21.4228 C   0  0  0  0  0  0  0  0  0  0  0  0
   36.8748   40.5417   22.4993 C   0  0  0  0  0  0  0  0  0  0  0  0
   38.2821   40.6053   21.9235 C   0  0  0  0  0  0  0  0  0  0  0  0
   39.7855   38.9845   20.9118 C   0  0  0  0  0  0  0  0  0  0  0  0
   38.9242   38.2780   22.9808 C   0  0  0  0  0  0  0  0  0  0  0  0
   40.2995   37.6263   21.1273 C   0  0  0  0  0  0  0  0  0  0  0  0
   39.7866   37.1749   22.3704 C   0  0  0  0  0  0  0  0  0  0  0  0
   41.1046   36.7763   20.3556 C   0  0  0  0  0  0  0  0  0  0  0  0
   40.0893   35.8823   22.8165 C   0  0  0  0  0  0  0  0  0  0  0  0
   40.8895   35.0581   22.0307 C   0  0  0  0  0  0  0  0  0  0  0  0
   41.3880   35.4999   20.8171 C   0  0  0  0  0  0  0  0  0  0  0  0
   38.9724   39.3167   21.9443 N   0  0  0  0  0  0  0  0  0  0  0  0
   40.0204   39.6936   19.9299 O   0  0  0  0  0  0  0  0  0  0  0  0
 42 37  1  0  0  0
 42 43  1  0  0  0
 37 38  1  0  0  0
 37 36  1  0  0  0
 38 39  2  0  0  0
 38 40  1  0  0  0
 18 19  1  0  0  0
 29 30  2  0  0  0
 29 26  1  0  0  0
 29 34  1  0  0  0
 30 31  1  0  0  0
  1 21  1  0  0  0
  1  2  1  0  0  0
  1 36  1  0  0  0
 21 22  1  0  0  0
 22 23  1  0  0  0
 23 24  2  0  0  0
 23 28  1  0  0  0
 24 25  1  0  0  0
 25 26  2  0  0  0
 26 27  1  0  0  0
 27 28  2  0  0  0
  2  3  1  0  0  0
  2  4  2  0  0  0
 31 32  2  0  0  0
  6 17  1  0  0  0
  6  7  1  0  0  0
  6  3  1  0  0  0
 17 19  1  0  0  0
 19 20  1  0  0  0
 43 44  1  0  0  0
 44 45  1  0  0  0
 45 54  1  0  0  0
 46 48  1  0  0  0
 46 54  1  0  0  0
 46 55  2  0  0  0
  7  8  1  0  0  0
  7  9  2  0  0  0
 47 49  1  0  0  0
 47 54  1  0  0  0
 48 49  2  0  0  0
 48 50  1  0  0  0
 11 12  2  0  0  0
 11 16  1  0  0  0
 11  8  1  0  0  0
 12 13  1  0  0  0
 13 14  2  0  0  0
 14 15  1  0  0  0
 15 16  2  0  0  0
 49 51  1  0  0  0
 50 53  2  0  0  0
 51 52  2  0  0  0
 52 53  1  0  0  0
 32 33  1  0  0  0
 32 35  1  0  0  0
 33 34  2  0  0  0
  3  5  1  0  0  0
  8 10  1  0  0  0
 40 41  1  0  0  0
M  END
> <minimizedAffinity>
-12.54451

$$$$
1HFS_L04_A_256


 55 59  0  0  0  0  0  0  0  0999 V2000
   36.3959   35.2881   25.4229 C   0  0  0  0  0  0  0  0  0  0  0  0
   36.7628   35.8085   24.0406 C   0  0  0  0  0  0  0  0  0  0  0  0
   37.5913   36.8473   24.0130 N   0  0  0  0  0  0  0  0  0  0  0  0
   36.3076   35.2809   23.0225 O   0  0  0  0  0  0  0  0  0  0  0  0
   37.9028   37.2397   24.8605 H   0  0  0  0  0  0  0  0  0  0  0  0
   38.0464   37.4154   22.7525 C   0  0  0  0  0  0  0  0  0  0  0  0
   39.5284   37.0861   22.6124 C   0  0  0  0  0  0  0  0  0  0  0  0
   40.3732   38.0895   22.8524 N   0  0  0  0  0  0  0  0  0  0  0  0
   39.8826   35.9671   22.2325 O   0  0  0  0  0  0  0  0  0  0  0  0
   39.9587   38.9505   23.0893 H   0  0  0  0  0  0  0  0  0  0  0  0
   41.7541   38.0789   22.8119 C   0  0  0  0  0  0  0  0  0  0  0  0
   42.4354   37.9314   24.0189 C   0  0  0  0  0  0  0  0  0  0  0  0
   43.8262   37.9016   24.0577 C   0  0  0  0  0  0  0  0  0  0  0  0
   44.5549   38.0231   22.8798 C   0  0  0  0  0  0  0  0  0  0  0  0
   43.8871   38.1709   21.6643 C   0  0  0  0  0  0  0  0  0  0  0  0
   42.4951   38.1988   21.6368 C   0  0  0  0  0  0  0  0  0  0  0  0
   37.8487   38.9324   22.7331 C   0  0  0  0  0  0  0  0  0  0  0  0
   36.4441   40.6197   23.8689 C   0  0  0  0  0  0  0  0  0  0  0  0
   36.4258   39.4826   22.8625 C   0  0  0  0  0  0  0  0  0  0  0  0
   35.9033   39.9659   21.5100 C   0  0  0  0  0  0  0  0  0  0  0  0
   36.3544   33.7583   25.3683 C   0  0  0  0  0  0  0  0  0  0  0  0
   35.5561   33.1271   26.4775 C   0  0  0  0  0  0  0  0  0  0  0  0
   36.3687   32.6303   27.6330 C   0  0  0  0  0  0  0  0  0  0  0  0
   36.9737   33.5211   28.5083 C   0  0  0  0  0  0  0  0  0  0  0  0
   37.7503   33.0599   29.5546 C   0  0  0  0  0  0  0  0  0  0  0  0
   37.9412   31.6959   29.7540 C   0  0  0  0  0  0  0  0  0  0  0  0
   37.3340   30.8017   28.8808 C   0  0  0  0  0  0  0  0  0  0  0  0
   36.5542   31.2670   27.8318 C   0  0  0  0  0  0  0  0  0  0  0  0
   38.7730   31.2198   30.8705 C   0  0  0  0  0  0  0  0  0  0  0  0
   39.5709   30.0880   30.7353 C   0  0  0  0  0  0  0  0  0  0  0  0
   40.3572   29.6424   31.7927 C   0  0  0  0  0  0  0  0  0  0  0  0
   40.3690   30.3316   32.9973 C   0  0  0  0  0  0  0  0  0  0  0  0
   39.5670   31.4552   33.1372 C   0  0  0  0  0  0  0  0  0  0  0  0
   38.7765   31.8967   32.0848 C   0  0  0  0  0  0  0  0  0  0  0  0
   41.1452   29.9220   34.0218 F   0  0  0  0  0  0  0  0  0  0  0  0
   35.0512   35.8590   25.8716 C   0  0  0  0  0  0  0  0  0  0  0  0
   34.1887   36.5044   24.7853 C   0  0  0  0  0  0  0  0  0  0  0  0
   33.0926   35.5286   24.3418 C   0  0  0  0  0  0  0  0  0  0  0  0
   31.9667   35.6926   24.8188 O   0  0  0  0  0  0  0  0  0  0  0  0
   33.2756   34.6121   23.4992 O   0  0  0  0  0  0  0  0  0  0  0  0
   34.1264   34.4781   23.1302 H   0  0  0  0  0  0  0  0  0  0  0  0
   33.6119   37.8668   25.1968 C   0  0  0  0  0  0  0  0  0  0  0  0
   33.1398   38.7232   24.0338 C   0  0  0  0  0  0  0  0  0  0  0  0
   32.0242   39.6674   24.4608 C   0  0  0  0  0  0  0  0  0  0  0  0
   30.7280   38.9198   24.7377 C   0  0  0  0  0  0  0  0  0  0  0  0
   28.4250   38.8182   23.9653 C   0  0  0  0  0  0  0  0  0  0  0  0
   29.9158   39.5920   22.3222 C   0  0  0  0  0  0  0  0  0  0  0  0
   27.6280   39.0118   22.7476 C   0  0  0  0  0  0  0  0  0  0  0  0
   28.5098   39.4739   21.7371 C   0  0  0  0  0  0  0  0  0  0  0  0
   26.2756   38.7953   22.4469 C   0  0  0  0  0  0  0  0  0  0  0  0
   28.0210   39.7100   20.4460 C   0  0  0  0  0  0  0  0  0  0  0  0
   26.6748   39.4857   20.1734 C   0  0  0  0  0  0  0  0  0  0  0  0
   25.8160   39.0335   21.1606 C   0  0  0  0  0  0  0  0  0  0  0  0
   29.7218   39.1037   23.6930 N   0  0  0  0  0  0  0  0  0  0  0  0
   27.9931   38.4192   25.0499 O   0  0  0  0  0  0  0  0  0  0  0  0
 42 37  1  0  0  0
 42 43  1  0  0  0
 37 38  1  0  0  0
 37 36  1  0  0  0
 38 39  2  0  0  0
 38 40  1  0  0  0
 18 19  1  0  0  0
 29 30  2  0  0  0
 29 26  1  0  0  0
 29 34  1  0  0  0
 30 31  1  0  0  0
  1 21  1  0  0  0
  1  2  1  0  0  0
  1 36  1  0  0  0
 21 22  1  0  0  0
 22 23  1  0  0  0
 23 24  2  0  0  0
 23 28  1  0  0  0
 24 25  1  0  0  0
 25 26  2  0  0  0
 26 27  1  0  0  0
 27 28  2  0  0  0
  2  3  1  0  0  0
  2  4  2  0  0  0
 31 32  2  0  0  0
  6 17  1  0  0  0
  6  7  1  0  0  0
  6  3  1  0  0  0
 17 19  1  0  0  0
 19 20  1  0  0  0
 43 44  1  0  0  0
 44 45  1  0  0  0
 45 54  1  0  0  0
 46 48  1  0  0  0
 46 54  1  0  0  0
 46 55  2  0  0  0
  7  8  1  0  0  0
  7  9  2  0  0  0
 47 49  1  0  0  0
 47 54  1  0  0  0
 48 49  2  0  0  0
 48 50  1  0  0  0
 11 12  2  0  0  0
 11 16  1  0  0  0
 11  8  1  0  0  0
 12 13  1  0  0  0
 13 14  2  0  0  0
 14 15  1  0  0  0
 15 16  2  0  0  0
 49 51  1  0  0  0
 50 53  2  0  0  0
 51 52  2  0  0  0
 52 53  1  0  0  0
 32 33  1  0  0  0
 32 35  1  0  0  0
 33 34  2  0  0  0
  3  5  1  0  0  0
  8 10  1  0  0  0
 40 41  1  0  0  0
M  END
> <minimizedAffinity>
-12.41945

$$$$
1HFS_L04_A_256


 55 59  0  0  0  0  0  0  0  0999 V2000
   34.0945   38.1989   24.1329 C   0  0  0  0  0  0  0  0  0  0  0  0
   32.6662   38.4015   24.6176 C   0  0  0  0  0  0  0  0  0  0  0  0
   32.0316   39.4606   24.1256 N   0  0  0  0  0  0  0  0  0  0  0  0
   32.1499   37.6164   25.4172 O   0  0  0  0  0  0  0  0  0  0  0  0
   32.5048   40.0639   23.5081 H   0  0  0  0  0  0  0  0  0  0  0  0
   30.6495   39.7446   24.4832 C   0  0  0  0  0  0  0  0  0  0  0  0
   29.7651   39.1551   23.3902 C   0  0  0  0  0  0  0  0  0  0  0  0
   28.5968   39.7672   23.1929 N   0  0  0  0  0  0  0  0  0  0  0  0
   30.1136   38.1333   22.7931 O   0  0  0  0  0  0  0  0  0  0  0  0
   28.4130   40.5372   23.7782 H   0  0  0  0  0  0  0  0  0  0  0  0
   27.6108   39.4621   22.2747 C   0  0  0  0  0  0  0  0  0  0  0  0
   26.4350   38.8879   22.7550 C   0  0  0  0  0  0  0  0  0  0  0  0
   25.3926   38.5616   21.8926 C   0  0  0  0  0  0  0  0  0  0  0  0
   25.5187   38.8060   20.5297 C   0  0  0  0  0  0  0  0  0  0  0  0
   26.6891   39.3805   20.0344 C   0  0  0  0  0  0  0  0  0  0  0  0
   27.7258   39.7037   20.9063 C   0  0  0  0  0  0  0  0  0  0  0  0
   30.4099   41.2520   24.5866 C   0  0  0  0  0  0  0  0  0  0  0  0
   29.5366   43.2654   25.7240 C   0  0  0  0  0  0  0  0  0  0  0  0
   29.9837   41.8302   25.9388 C   0  0  0  0  0  0  0  0  0  0  0  0
   28.8589   41.0000   26.5563 C   0  0  0  0  0  0  0  0  0  0  0  0
   34.7512   39.5733   23.9752 C   0  0  0  0  0  0  0  0  0  0  0  0
   34.9884   39.9785   22.5450 C   0  0  0  0  0  0  0  0  0  0  0  0
   36.4295   40.0974   22.1559 C   0  0  0  0  0  0  0  0  0  0  0  0
   37.2317   41.0880   22.7045 C   0  0  0  0  0  0  0  0  0  0  0  0
   38.5528   41.2159   22.3185 C   0  0  0  0  0  0  0  0  0  0  0  0
   39.1068   40.3558   21.3750 C   0  0  0  0  0  0  0  0  0  0  0  0
   38.3064   39.3612   20.8264 C   0  0  0  0  0  0  0  0  0  0  0  0
   36.9809   39.2342   21.2160 C   0  0  0  0  0  0  0  0  0  0  0  0
   40.5139   40.5060   20.9718 C   0  0  0  0  0  0  0  0  0  0  0  0
   40.9416   40.1095   19.7085 C   0  0  0  0  0  0  0  0  0  0  0  0
   42.2723   40.2550   19.3306 C   0  0  0  0  0  0  0  0  0  0  0  0
   43.1931   40.8137   20.2059 C   0  0  0  0  0  0  0  0  0  0  0  0
   42.7707   41.2012   21.4694 C   0  0  0  0  0  0  0  0  0  0  0  0
   41.4442   41.0500   21.8501 C   0  0  0  0  0  0  0  0  0  0  0  0
   44.4813   40.9809   19.8418 F   0  0  0  0  0  0  0  0  0  0  0  0
   34.1091   37.4278   22.8135 C   0  0  0  0  0  0  0  0  0  0  0  0
   34.7756   36.0509   22.8367 C   0  0  0  0  0  0  0  0  0  0  0  0
   36.2983   36.2075   22.7535 C   0  0  0  0  0  0  0  0  0  0  0  0
   36.8896   36.5163   23.7914 O   0  0  0  0  0  0  0  0  0  0  0  0
   36.9635   35.9993   21.7059 O   0  0  0  0  0  0  0  0  0  0  0  0
   36.5253   35.7641   20.9117 H   0  0  0  0  0  0  0  0  0  0  0  0
   34.3518   35.1908   24.0361 C   0  0  0  0  0  0  0  0  0  0  0  0
   34.7089   33.7194   23.9080 C   0  0  0  0  0  0  0  0  0  0  0  0
   35.7542   33.3134   24.9380 C   0  0  0  0  0  0  0  0  0  0  0  0
   35.1864   33.3192   26.3499 C   0  0  0  0  0  0  0  0  0  0  0  0
   36.9599   33.5945   27.9900 C   0  0  0  0  0  0  0  0  0  0  0  0
   36.2368   31.3689   27.7780 C   0  0  0  0  0  0  0  0  0  0  0  0
   37.8200   32.7984   28.8741 C   0  0  0  0  0  0  0  0  0  0  0  0
   37.4057   31.4467   28.7581 C   0  0  0  0  0  0  0  0  0  0  0  0
   38.9035   33.1267   29.7015 C   0  0  0  0  0  0  0  0  0  0  0  0
   38.0837   30.4506   29.4720 C   0  0  0  0  0  0  0  0  0  0  0  0
   39.1569   30.8029   30.2851 C   0  0  0  0  0  0  0  0  0  0  0  0
   39.5607   32.1225   30.3960 C   0  0  0  0  0  0  0  0  0  0  0  0
   36.1051   32.7649   27.3431 N   0  0  0  0  0  0  0  0  0  0  0  0
   37.0309   34.8157   27.8287 O   0  0  0  0  0  0  0  0  0  0  0  0
 42 37  1  0  0  0
 42 43  1  0  0  0
 37 38  1  0  0  0
 37 36  1  0  0  0
 38 39  2  0  0  0
 38 40  1  0  0  0
 18 19  1  0  0  0
 29 30  2  0  0  0
 29 26  1  0  0  0
 29 34  1  0  0  0
 30 31  1  0  0  0
  1 21  1  0  0  0
  1  2  1  0  0  0
  1 36  1  0  0  0
 21 22  1  0  0  0
 22 23  1  0  0  0
 23 24  2  0  0  0
 23 28  1  0  0  0
 24 25  1  0  0  0
 25 26  2  0  0  0
 26 27  1  0  0  0
 27 28  2  0  0  0
  2  3  1  0  0  0
  2  4  2  0  0  0
 31 32  2  0  0  0
  6 17  1  0  0  0
  6  7  1  0  0  0
  6  3  1  0  0  0
 17 19  1  0  0  0
 19 20  1  0  0  0
 43 44  1  0  0  0
 44 45  1  0  0  0
 45 54  1  0  0  0
 46 48  1  0  0  0
 46 54  1  0  0  0
 46 55  2  0  0  0
  7  8  1  0  0  0
  7  9  2  0  0  0
 47 49  1  0  0  0
 47 54  1  0  0  0
 48 49  2  0  0  0
 48 50  1  0  0  0
 11 12  2  0  0  0
 11 16  1  0  0  0
 11  8  1  0  0  0
 12 13  1  0  0  0
 13 14  2  0  0  0
 14 15  1  0  0  0
 15 16  2  0  0  0
 49 51  1  0  0  0
 50 53  2  0  0  0
 51 52  2  0  0  0
 52 53  1  0  0  0
 32 33  1  0  0  0
 32 35  1  0  0  0
 33 34  2  0  0  0
  3  5  1  0  0  0
  8 10  1  0  0  0
 40 41  1  0  0  0
M  END
> <minimizedAffinity>
-12.37135

$$$$
1HFS_L04_A_256


 55 59  0  0  0  0  0  0  0  0999 V2000
   33.5038   39.6631   21.8525 C   0  0  0  0  0  0  0  0  0  0  0  0
   32.2697   40.3787   21.3224 C   0  0  0  0  0  0  0  0  0  0  0  0
   32.0109   40.2084   20.0300 N   0  0  0  0  0  0  0  0  0  0  0  0
   31.5671   41.0678   22.0665 O   0  0  0  0  0  0  0  0  0  0  0  0
   32.6223   39.6650   19.4821 H   0  0  0  0  0  0  0  0  0  0  0  0
   30.8400   40.8110   19.4098 C   0  0  0  0  0  0  0  0  0  0  0  0
   29.6553   39.8907   19.6819 C   0  0  0  0  0  0  0  0  0  0  0  0
   28.7680   40.3318   20.5743 N   0  0  0  0  0  0  0  0  0  0  0  0
   29.5916   38.7839   19.1406 O   0  0  0  0  0  0  0  0  0  0  0  0
   28.9670   41.2069   20.9790 H   0  0  0  0  0  0  0  0  0  0  0  0
   27.6060   39.7214   21.0052 C   0  0  0  0  0  0  0  0  0  0  0  0
   27.4715   39.4777   22.3709 C   0  0  0  0  0  0  0  0  0  0  0  0
   26.3256   38.8754   22.8819 C   0  0  0  0  0  0  0  0  0  0  0  0
   25.2960   38.5053   22.0239 C   0  0  0  0  0  0  0  0  0  0  0  0
   25.4161   38.7432   20.6549 C   0  0  0  0  0  0  0  0  0  0  0  0
   26.5667   39.3471   20.1542 C   0  0  0  0  0  0  0  0  0  0  0  0
   31.0391   40.9667   17.9010 C   0  0  0  0  0  0  0  0  0  0  0  0
   29.2542   41.3143   16.2267 C   0  0  0  0  0  0  0  0  0  0  0  0
   30.2148   42.0254   17.1635 C   0  0  0  0  0  0  0  0  0  0  0  0
   29.4529   42.9083   18.1512 C   0  0  0  0  0  0  0  0  0  0  0  0
   33.0471   38.4404   22.6536 C   0  0  0  0  0  0  0  0  0  0  0  0
   33.6714   37.1461   22.2054 C   0  0  0  0  0  0  0  0  0  0  0  0
   34.2307   36.3024   23.3088 C   0  0  0  0  0  0  0  0  0  0  0  0
   34.0513   36.6634   24.6367 C   0  0  0  0  0  0  0  0  0  0  0  0
   34.5970   35.9004   25.6519 C   0  0  0  0  0  0  0  0  0  0  0  0
   35.3352   34.7558   25.3660 C   0  0  0  0  0  0  0  0  0  0  0  0
   35.5138   34.3905   24.0373 C   0  0  0  0  0  0  0  0  0  0  0  0
   34.9643   35.1574   23.0201 C   0  0  0  0  0  0  0  0  0  0  0  0
   35.9125   33.9551   26.4572 C   0  0  0  0  0  0  0  0  0  0  0  0
   35.7766   32.5704   26.4769 C   0  0  0  0  0  0  0  0  0  0  0  0
   36.3255   31.8171   27.5092 C   0  0  0  0  0  0  0  0  0  0  0  0
   37.0325   32.4363   28.5305 C   0  0  0  0  0  0  0  0  0  0  0  0
   37.1613   33.8177   28.5177 C   0  0  0  0  0  0  0  0  0  0  0  0
   36.6078   34.5712   27.4915 C   0  0  0  0  0  0  0  0  0  0  0  0
   37.5888   31.7135   29.5245 F   0  0  0  0  0  0  0  0  0  0  0  0
   34.3407   40.6055   22.7168 C   0  0  0  0  0  0  0  0  0  0  0  0
   35.0710   39.9732   23.9032 C   0  0  0  0  0  0  0  0  0  0  0  0
   36.5867   40.0773   23.6977 C   0  0  0  0  0  0  0  0  0  0  0  0
   37.0241   41.1484   23.2691 O   0  0  0  0  0  0  0  0  0  0  0  0
   37.3926   39.1530   23.9795 O   0  0  0  0  0  0  0  0  0  0  0  0
   37.0720   38.3352   24.3058 H   0  0  0  0  0  0  0  0  0  0  0  0
   34.6353   40.5453   25.2600 C   0  0  0  0  0  0  0  0  0  0  0  0
   33.4777   41.5265   25.1825 C   0  0  0  0  0  0  0  0  0  0  0  0
   32.1417   40.8197   25.3666 C   0  0  0  0  0  0  0  0  0  0  0  0
   30.9812   41.8039   25.3864 C   0  0  0  0  0  0  0  0  0  0  0  0
   28.7863   41.9529   26.4213 C   0  0  0  0  0  0  0  0  0  0  0  0
   29.2693   39.8100   25.5868 C   0  0  0  0  0  0  0  0  0  0  0  0
   27.6442   41.1048   26.7845 C   0  0  0  0  0  0  0  0  0  0  0  0
   27.9162   39.8013   26.2956 C   0  0  0  0  0  0  0  0  0  0  0  0
   26.4638   41.3481   27.5013 C   0  0  0  0  0  0  0  0  0  0  0  0
   27.0021   38.7673   26.5337 C   0  0  0  0  0  0  0  0  0  0  0  0
   25.8387   39.0350   27.2492 C   0  0  0  0  0  0  0  0  0  0  0  0
   25.5756   40.3075   27.7267 C   0  0  0  0  0  0  0  0  0  0  0  0
   29.7148   41.1942   25.7891 N   0  0  0  0  0  0  0  0  0  0  0  0
   28.9024   43.1524   26.6858 O   0  0  0  0  0  0  0  0  0  0  0  0
 42 37  1  0  0  0
 42 43  1  0  0  0
 37 38  1  0  0  0
 37 36  1  0  0  0
 38 39  2  0  0  0
 38 40  1  0  0  0
 18 19  1  0  0  0
 29 30  2  0  0  0
 29 26  1  0  0  0
 29 34  1  0  0  0
 30 31  1  0  0  0
  1 21  1  0  0  0
  1  2  1  0  0  0
  1 36  1  0  0  0
 21 22  1  0  0  0
 22 23  1  0  0  0
 23 24  2  0  0  0
 23 28  1  0  0  0
 24 25  1  0  0  0
 25 26  2  0  0  0
 26 27  1  0  0  0
 27 28  2  0  0  0
  2  3  1  0  0  0
  2  4  2  0  0  0
 31 32  2  0  0  0
  6 17  1  0  0  0
  6  7  1  0  0  0
  6  3  1  0  0  0
 17 19  1  0  0  0
 19 20  1  0  0  0
 43 44  1  0  0  0
 44 45  1  0  0  0
 45 54  1  0  0  0
 46 48  1  0  0  0
 46 54  1  0  0  0
 46 55  2  0  0  0
  7  8  1  0  0  0
  7  9  2  0  0  0
 47 49  1  0  0  0
 47 54  1  0  0  0
 48 49  2  0  0  0
 48 50  1  0  0  0
 11 12  2  0  0  0
 11 16  1  0  0  0
 11  8  1  0  0  0
 12 13  1  0  0  0
 13 14  2  0  0  0
 14 15  1  0  0  0
 15 16  2  0  0  0
 49 51  1  0  0  0
 50 53  2  0  0  0
 51 52  2  0  0  0
 52 53  1  0  0  0
 32 33  1  0  0  0
 32 35  1  0  0  0
 33 34  2  0  0  0
  3  5  1  0  0  0
  8 10  1  0  0  0
 40 41  1  0  0  0
M  END
> <minimizedAffinity>
-12.36833

$$$$
1HFS_L04_A_256


 55 59  0  0  0  0  0  0  0  0999 V2000
   35.6309   40.6984   23.3113 C   0  0  0  0  0  0  0  0  0  0  0  0
   34.7621   39.8508   24.2294 C   0  0  0  0  0  0  0  0  0  0  0  0
   34.6042   38.5812   23.8692 N   0  0  0  0  0  0  0  0  0  0  0  0
   34.2477   40.3344   25.2412 O   0  0  0  0  0  0  0  0  0  0  0  0
   35.0214   38.2592   23.0377 H   0  0  0  0  0  0  0  0  0  0  0  0
   33.8256   37.6583   24.6820 C   0  0  0  0  0  0  0  0  0  0  0  0
   34.6389   36.3764   24.8226 C   0  0  0  0  0  0  0  0  0  0  0  0
   34.7334   35.8789   26.0562 N   0  0  0  0  0  0  0  0  0  0  0  0
   35.2155   35.8963   23.8433 O   0  0  0  0  0  0  0  0  0  0  0  0
   34.2753   36.3918   26.7607 H   0  0  0  0  0  0  0  0  0  0  0  0
   35.3900   34.7378   26.4749 C   0  0  0  0  0  0  0  0  0  0  0  0
   36.3742   34.8795   27.4517 C   0  0  0  0  0  0  0  0  0  0  0  0
   37.0722   33.7750   27.9310 C   0  0  0  0  0  0  0  0  0  0  0  0
   36.7921   32.5081   27.4315 C   0  0  0  0  0  0  0  0  0  0  0  0
   35.8095   32.3506   26.4543 C   0  0  0  0  0  0  0  0  0  0  0  0
   35.1166   33.4624   25.9821 C   0  0  0  0  0  0  0  0  0  0  0  0
   32.4807   37.3486   24.0218 C   0  0  0  0  0  0  0  0  0  0  0  0
   30.8861   38.6890   25.3524 C   0  0  0  0  0  0  0  0  0  0  0  0
   31.2338   37.2793   24.9077 C   0  0  0  0  0  0  0  0  0  0  0  0
   30.0646   36.6460   24.1544 C   0  0  0  0  0  0  0  0  0  0  0  0
   34.7404   41.7415   22.6301 C   0  0  0  0  0  0  0  0  0  0  0  0
   34.0660   41.2476   21.3782 C   0  0  0  0  0  0  0  0  0  0  0  0
   32.6447   40.8126   21.5594 C   0  0  0  0  0  0  0  0  0  0  0  0
   32.0793   39.8694   20.7130 C   0  0  0  0  0  0  0  0  0  0  0  0
   30.7574   39.4943   20.8623 C   0  0  0  0  0  0  0  0  0  0  0  0
   29.9664   40.0514   21.8626 C   0  0  0  0  0  0  0  0  0  0  0  0
   30.5309   40.9939   22.7134 C   0  0  0  0  0  0  0  0  0  0  0  0
   31.8583   41.3681   22.5622 C   0  0  0  0  0  0  0  0  0  0  0  0
   28.5598   39.6444   22.0075 C   0  0  0  0  0  0  0  0  0  0  0  0
   27.9956   39.4586   23.2657 C   0  0  0  0  0  0  0  0  0  0  0  0
   26.6649   39.0757   23.3983 C   0  0  0  0  0  0  0  0  0  0  0  0
   25.8736   38.8875   22.2738 C   0  0  0  0  0  0  0  0  0  0  0  0
   26.4368   39.0632   21.0180 C   0  0  0  0  0  0  0  0  0  0  0  0
   27.7667   39.4386   20.8844 C   0  0  0  0  0  0  0  0  0  0  0  0
   24.5758   38.5386   22.3910 F   0  0  0  0  0  0  0  0  0  0  0  0
   36.3371   39.8199   22.2792 C   0  0  0  0  0  0  0  0  0  0  0  0
   37.7997   39.4746   22.5655 C   0  0  0  0  0  0  0  0  0  0  0  0
   37.9131   38.0105   23.0057 C   0  0  0  0  0  0  0  0  0  0  0  0
   38.2127   37.1843   22.1398 O   0  0  0  0  0  0  0  0  0  0  0  0
   37.7580   37.6267   24.1940 O   0  0  0  0  0  0  0  0  0  0  0  0
   37.5304   38.2452   24.8601 H   0  0  0  0  0  0  0  0  0  0  0  0
   38.7404   39.7965   21.3951 C   0  0  0  0  0  0  0  0  0  0  0  0
   39.7458   40.8982   21.6854 C   0  0  0  0  0  0  0  0  0  0  0  0
   41.1739   40.4084   21.4879 C   0  0  0  0  0  0  0  0  0  0  0  0
   41.5491   39.3398   22.5045 C   0  0  0  0  0  0  0  0  0  0  0  0
   41.4569   36.9273   22.7902 C   0  0  0  0  0  0  0  0  0  0  0  0
   41.5948   37.5850   20.5386 C   0  0  0  0  0  0  0  0  0  0  0  0
   41.5381   35.6889   22.0059 C   0  0  0  0  0  0  0  0  0  0  0  0
   41.6288   36.0613   20.6402 C   0  0  0  0  0  0  0  0  0  0  0  0
   41.5762   34.3333   22.3626 C   0  0  0  0  0  0  0  0  0  0  0  0
   41.7559   35.0702   19.6588 C   0  0  0  0  0  0  0  0  0  0  0  0
   41.7928   33.7321   20.0396 C   0  0  0  0  0  0  0  0  0  0  0  0
   41.7055   33.3706   21.3731 C   0  0  0  0  0  0  0  0  0  0  0  0
   41.5395   37.9873   21.9494 N   0  0  0  0  0  0  0  0  0  0  0  0
   41.3706   36.9942   24.0191 O   0  0  0  0  0  0  0  0  0  0  0  0
 42 37  1  0  0  0
 42 43  1  0  0  0
 37 38  1  0  0  0
 37 36  1  0  0  0
 38 39  2  0  0  0
 38 40  1  0  0  0
 18 19  1  0  0  0
 29 30  2  0  0  0
 29 26  1  0  0  0
 29 34  1  0  0  0
 30 31  1  0  0  0
  1 21  1  0  0  0
  1  2  1  0  0  0
  1 36  1  0  0  0
 21 22  1  0  0  0
 22 23  1  0  0  0
 23 24  2  0  0  0
 23 28  1  0  0  0
 24 25  1  0  0  0
 25 26  2  0  0  0
 26 27  1  0  0  0
 27 28  2  0  0  0
  2  3  1  0  0  0
  2  4  2  0  0  0
 31 32  2  0  0  0
  6 17  1  0  0  0
  6  7  1  0  0  0
  6  3  1  0  0  0
 17 19  1  0  0  0
 19 20  1  0  0  0
 43 44  1  0  0  0
 44 45  1  0  0  0
 45 54  1  0  0  0
 46 48  1  0  0  0
 46 54  1  0  0  0
 46 55  2  0  0  0
  7  8  1  0  0  0
  7  9  2  0  0  0
 47 49  1  0  0  0
 47 54  1  0  0  0
 48 49  2  0  0  0
 48 50  1  0  0  0
 11 12  2  0  0  0
 11 16  1  0  0  0
 11  8  1  0  0  0
 12 13  1  0  0  0
 13 14  2  0  0  0
 14 15  1  0  0  0
 15 16  2  0  0  0
 49 51  1  0  0  0
 50 53  2  0  0  0
 51 52  2  0  0  0
 52 53  1  0  0  0
 32 33  1  0  0  0
 32 35  1  0  0  0
 33 34  2  0  0  0
  3  5  1  0  0  0
  8 10  1  0  0  0
 40 41  1  0  0  0
M  END
> <minimizedAffinity>
-12.36078

$$$$
1HFS_L04_A_256


 55 59  0  0  0  0  0  0  0  0999 V2000
   33.7267   36.6809   24.3041 C   0  0  0  0  0  0  0  0  0  0  0  0
   32.2995   36.8427   24.8071 C   0  0  0  0  0  0  0  0  0  0  0  0
   31.7128   38.0013   24.5244 N   0  0  0  0  0  0  0  0  0  0  0  0
   31.7417   35.9391   25.4352 O   0  0  0  0  0  0  0  0  0  0  0  0
   32.2180   38.6932   24.0394 H   0  0  0  0  0  0  0  0  0  0  0  0
   30.3369   38.2656   24.9190 C   0  0  0  0  0  0  0  0  0  0  0  0
   29.5014   38.3301   23.6453 C   0  0  0  0  0  0  0  0  0  0  0  0
   30.0017   39.0733   22.6575 N   0  0  0  0  0  0  0  0  0  0  0  0
   28.4030   37.7707   23.5941 O   0  0  0  0  0  0  0  0  0  0  0  0
   30.8598   39.5167   22.8482 H   0  0  0  0  0  0  0  0  0  0  0  0
   29.4735   39.3024   21.4018 C   0  0  0  0  0  0  0  0  0  0  0  0
   30.2272   38.9016   20.3000 C   0  0  0  0  0  0  0  0  0  0  0  0
   29.7574   39.0899   19.0036 C   0  0  0  0  0  0  0  0  0  0  0  0
   28.5199   39.6886   18.7952 C   0  0  0  0  0  0  0  0  0  0  0  0
   27.7541   40.0944   19.8879 C   0  0  0  0  0  0  0  0  0  0  0  0
   28.2335   39.9007   21.1810 C   0  0  0  0  0  0  0  0  0  0  0  0
   30.2298   39.5905   25.6763 C   0  0  0  0  0  0  0  0  0  0  0  0
   28.1828   40.7830   26.3819 C   0  0  0  0  0  0  0  0  0  0  0  0
   29.1622   40.5960   25.2365 C   0  0  0  0  0  0  0  0  0  0  0  0
   29.7978   41.9296   24.8453 C   0  0  0  0  0  0  0  0  0  0  0  0
   34.5679   36.0652   25.4259 C   0  0  0  0  0  0  0  0  0  0  0  0
   34.9643   34.6341   25.1796 C   0  0  0  0  0  0  0  0  0  0  0  0
   35.6712   33.9719   26.3216 C   0  0  0  0  0  0  0  0  0  0  0  0
   36.3821   34.7239   27.2462 C   0  0  0  0  0  0  0  0  0  0  0  0
   37.0608   34.1070   28.2803 C   0  0  0  0  0  0  0  0  0  0  0  0
   37.0454   32.7222   28.4178 C   0  0  0  0  0  0  0  0  0  0  0  0
   36.3318   31.9672   27.4951 C   0  0  0  0  0  0  0  0  0  0  0  0
   35.6505   32.5887   26.4585 C   0  0  0  0  0  0  0  0  0  0  0  0
   37.7751   32.0794   29.5221 C   0  0  0  0  0  0  0  0  0  0  0  0
   37.8976   30.6949   29.5875 C   0  0  0  0  0  0  0  0  0  0  0  0
   38.5899   30.0914   30.6321 C   0  0  0  0  0  0  0  0  0  0  0  0
   39.1838   30.8648   31.6197 C   0  0  0  0  0  0  0  0  0  0  0  0
   39.0549   32.2451   31.5614 C   0  0  0  0  0  0  0  0  0  0  0  0
   38.3582   32.8482   30.5230 C   0  0  0  0  0  0  0  0  0  0  0  0
   39.8772   30.2914   32.6249 F   0  0  0  0  0  0  0  0  0  0  0  0
   34.2972   38.0292   23.8657 C   0  0  0  0  0  0  0  0  0  0  0  0
   34.3325   38.2965   22.3598 C   0  0  0  0  0  0  0  0  0  0  0  0
   33.8685   39.7294   22.0737 C   0  0  0  0  0  0  0  0  0  0  0  0
   32.7894   40.0788   22.5591 O   0  0  0  0  0  0  0  0  0  0  0  0
   34.5441   40.5613   21.4143 O   0  0  0  0  0  0  0  0  0  0  0  0
   35.3651   40.3074   21.0410 H   0  0  0  0  0  0  0  0  0  0  0  0
   35.6966   37.9968   21.7212 C   0  0  0  0  0  0  0  0  0  0  0  0
   36.8837   38.2443   22.6367 C   0  0  0  0  0  0  0  0  0  0  0  0
   37.9631   39.0561   21.9337 C   0  0  0  0  0  0  0  0  0  0  0  0
   39.3440   38.7748   22.5080 C   0  0  0  0  0  0  0  0  0  0  0  0
   40.0344   36.4445   22.5693 C   0  0  0  0  0  0  0  0  0  0  0  0
   40.6469   37.5361   20.5807 C   0  0  0  0  0  0  0  0  0  0  0  0
   40.8020   35.4685   21.7859 C   0  0  0  0  0  0  0  0  0  0  0  0
   41.1891   36.1081   20.5804 C   0  0  0  0  0  0  0  0  0  0  0  0
   41.2053   34.1489   22.0353 C   0  0  0  0  0  0  0  0  0  0  0  0
   41.9721   35.4149   19.6488 C   0  0  0  0  0  0  0  0  0  0  0  0
   42.3603   34.1065   19.9213 C   0  0  0  0  0  0  0  0  0  0  0  0
   41.9826   33.4843   21.0990 C   0  0  0  0  0  0  0  0  0  0  0  0
   39.9989   37.6201   21.8954 N   0  0  0  0  0  0  0  0  0  0  0  0
   39.5380   36.2418   23.6805 O   0  0  0  0  0  0  0  0  0  0  0  0
 42 37  1  0  0  0
 42 43  1  0  0  0
 37 38  1  0  0  0
 37 36  1  0  0  0
 38 39  2  0  0  0
 38 40  1  0  0  0
 18 19  1  0  0  0
 29 30  2  0  0  0
 29 26  1  0  0  0
 29 34  1  0  0  0
 30 31  1  0  0  0
  1 21  1  0  0  0
  1  2  1  0  0  0
  1 36  1  0  0  0
 21 22  1  0  0  0
 22 23  1  0  0  0
 23 24  2  0  0  0
 23 28  1  0  0  0
 24 25  1  0  0  0
 25 26  2  0  0  0
 26 27  1  0  0  0
 27 28  2  0  0  0
  2  3  1  0  0  0
  2  4  2  0  0  0
 31 32  2  0  0  0
  6 17  1  0  0  0
  6  7  1  0  0  0
  6  3  1  0  0  0
 17 19  1  0  0  0
 19 20  1  0  0  0
 43 44  1  0  0  0
 44 45  1  0  0  0
 45 54  1  0  0  0
 46 48  1  0  0  0
 46 54  1  0  0  0
 46 55  2  0  0  0
  7  8  1  0  0  0
  7  9  2  0  0  0
 47 49  1  0  0  0
 47 54  1  0  0  0
 48 49  2  0  0  0
 48 50  1  0  0  0
 11 12  2  0  0  0
 11 16  1  0  0  0
 11  8  1  0  0  0
 12 13  1  0  0  0
 13 14  2  0  0  0
 14 15  1  0  0  0
 15 16  2  0  0  0
 49 51  1  0  0  0
 50 53  2  0  0  0
 51 52  2  0  0  0
 52 53  1  0  0  0
 32 33  1  0  0  0
 32 35  1  0  0  0
 33 34  2  0  0  0
  3  5  1  0  0  0
  8 10  1  0  0  0
 40 41  1  0  0  0
M  END
> <minimizedAffinity>
-12.34640

$$$$
