4F09_JAK_A_1201
  RCSB PDB12061712283D
Coordinates from PDB:4F09:A:1201 Model:1 without hydrogens
 19 22  0  0  0  0            999 V2000
   16.9310    6.3180   12.4400   C 0  0  0  0  0  0  0  0  0  0  0  0
   16.5970    7.7520   12.3140   C 0  0  0  0  0  0  0  0  0  0  0  0
   17.3130    8.7240   12.7670   N 0  0  0  0  0  0  0  0  0  0  0  0
   16.6240    9.8760   12.4470   C 0  0  0  0  0  0  0  0  0  0  0  0
   16.8930   11.2010   12.7470   C 0  0  0  0  0  0  0  0  0  0  0  0
   16.0460   12.1710   12.4260   N 0  0  0  0  0  0  0  0  0  0  0  0
   14.9230   11.8220   11.7920   C 0  0  0  0  0  0  0  0  0  0  0  0
   14.5740   10.5280   11.4280   C 0  0  0  0  0  0  0  0  0  0  0  0
   15.4800    9.5240   11.7850   C 0  0  0  0  0  0  0  0  0  0  0  0
   15.5130    8.1500   11.7260   N 0  0  0  0  0  0  0  0  0  0  0  0
   14.5060    7.2170   11.2180   C 0  0  0  0  0  0  0  0  0  0  0  0
   14.2750    7.3290    9.7390   C 0  0  0  0  0  0  0  0  0  0  0  0
   13.4050    6.1810    9.3550   C 0  0  0  0  0  0  0  0  0  0  0  0
   12.1350    6.0630   10.0260   N 0  0  0  0  0  0  0  0  0  0  0  0
   12.2390    6.2550   11.4640   C 0  0  0  0  0  0  0  0  0  0  0  0
   13.2000    7.2910   11.9730   C 0  0  0  0  0  0  0  0  0  0  0  0
   13.3080   10.6300   10.7680   C 0  0  0  0  0  0  0  0  0  0  0  0
   12.9640   11.9260   10.7780   C 0  0  0  0  0  0  0  0  0  0  0  0
   13.9200   12.6500   11.3990   N 0  0  0  0  0  0  0  0  0  0  0  0
  1  2  1  0  0  0  0
  2 10  1  0  0  0  0
  3  2  2  0  0  0  0
  3  4  1  0  0  0  0
  4  9  1  0  0  0  0
  5  4  2  0  0  0  0
  5  6  1  0  0  0  0
  6  7  2  0  0  0  0
  7  8  1  0  0  0  0
  7 19  1  0  0  0  0
  8 17  1  0  0  0  0
  9  8  2  0  0  0  0
  9 10  1  0  0  0  0
 10 11  1  0  0  0  0
 11 12  1  0  0  0  0
 12 13  1  0  0  0  0
 14 13  1  0  0  0  0
 15 14  1  0  0  0  0
 16 11  1  0  0  0  0
 16 15  1  0  0  0  0
 17 18  2  0  0  0  0
 19 18  1  0  0  0  0
A    1
C1
A    2
C2
A    3
N3
A    4
C4
A    5
C5
A    6
N6
A    7
C7
A    8
C8
A    9
C9
A   10
N10
A   11
C11
A   12
C12
A   13
C13
A   14
N14
A   15
C15
A   16
C16
A   17
C17
A   18
C18
A   19
N19
M  END
>  <InstanceId>
4F09_JAK_A_1201

>  <ChemCompId>
JAK

>  <PdbId>
4F09

>  <ChainId>
A

>  <ResidueNumber>
1201

>  <InsertionCode>


>  <Model>
1

>  <AltIds>


>  <MissingHeavyAtoms>
0

>  <ObservedFormula>
C14 N5

>  <Name>
2-methyl-1-(piperidin-4-yl)-1,6-dihydroimidazo[4,5-d]pyrrolo[2,3-b]pyridine

>  <SystematicName>


>  <Synonyms>


>  <Type>
NON-POLYMER

>  <Formula>
C14 H17 N5

>  <MolecularWeight>
255.318

>  <ModifiedDate>
2012-06-29

>  <Parent>


>  <OneLetterCode>


>  <SubcomponentList>


>  <AmbiguousFlag>
N

>  <InChI>
InChI=1S/C14H17N5/c1-9-18-12-8-17-14-11(4-7-16-14)13(12)19(9)10-2-5-15-6-3-10/h4,7-8,10,15H,2-3,5-6H2,1H3,(H,16,17)

>  <InChIKey>
XTQACRIFOIASKV-UHFFFAOYSA-N

>  <SMILES>
Cc1nc2cnc3c(c2n1C4CCNCC4)cc[nH]3

$$$$
