4RQK_R1S_A_404


 24 27  0  0  0  0  0  0  0  0999 V2000
  -10.6740   18.3062   -8.8128 N   0  0  0  0  0  0  0  0  0  0  0  0
  -10.8531   18.9372   -8.0787 H   0  0  0  0  0  0  0  0  0  0  0  0
  -14.0679   19.3602  -15.8103 Cl  0  0  0  0  0  0  0  0  0  0  0  0
  -13.7289   18.8189  -14.1969 C   0  0  0  0  0  0  0  0  0  0  0  0
  -12.5975   19.3432  -13.5917 C   0  0  0  0  0  0  0  0  0  0  0  0
  -12.2756   18.9408  -12.3076 C   0  0  0  0  0  0  0  0  0  0  0  0
  -13.0706   18.0332  -11.6186 C   0  0  0  0  0  0  0  0  0  0  0  0
  -14.2228   17.4995  -12.2364 C   0  0  0  0  0  0  0  0  0  0  0  0
  -14.5450   17.8970  -13.5272 C   0  0  0  0  0  0  0  0  0  0  0  0
  -12.6207   17.6915  -10.2751 N   0  0  0  0  0  0  0  0  0  0  0  0
  -11.4567   18.3833   -9.9913 C   0  0  0  0  0  0  0  0  0  0  0  0
  -11.0411   19.3504  -11.2841 S   0  0  0  0  0  0  0  0  0  0  0  0
   -9.4996   17.2169   -8.6378 S   0  0  0  0  0  0  0  0  0  0  0  0
   -8.6739   17.1132   -9.8070 O   0  0  0  0  0  0  0  0  0  0  0  0
   -8.5466   17.5552   -7.6198 O   0  0  0  0  0  0  0  0  0  0  0  0
  -10.4679   15.7913   -8.2717 C   0  0  0  0  0  0  0  0  0  0  0  0
  -11.5519   15.7282   -7.3430 C   0  0  0  0  0  0  0  0  0  0  0  0
  -12.1687   14.1953   -7.3633 S   0  0  0  0  0  0  0  0  0  0  0  0
  -11.1871   13.4799   -8.4996 C   0  0  0  0  0  0  0  0  0  0  0  0
  -11.0954   12.2005   -9.0309 C   0  0  0  0  0  0  0  0  0  0  0  0
  -10.1207   11.9471   -9.9988 C   0  0  0  0  0  0  0  0  0  0  0  0
   -9.2212   12.9353  -10.4442 C   0  0  0  0  0  0  0  0  0  0  0  0
   -9.3089   14.1984   -9.9141 C   0  0  0  0  0  0  0  0  0  0  0  0
  -10.2914   14.4591   -8.9394 C   0  0  0  0  0  0  0  0  0  0  0  0
  3  4  1  0  0  0
  9  4  2  0  0  0
  9  8  1  0  0  0
  4  5  1  0  0  0
  8  7  2  0  0  0
  5  6  2  0  0  0
  7  6  1  0  0  0
  7 10  1  0  0  0
  6 12  1  0  0  0
 21 22  2  0  0  0
 21 20  1  0  0  0
 22 23  1  0  0  0
 10 11  2  0  0  0
 20 19  2  0  0  0
 23 24  2  0  0  0
 12 11  1  0  0  0
 11  1  1  0  0  0
 19 24  1  0  0  0
 19 18  1  0  0  0
 24 16  1  0  0  0
 14 13  2  0  0  0
  1 13  1  0  0  0
 16 13  1  0  0  0
 16 17  2  0  0  0
 18 17  1  0  0  0
 13 15  2  0  0  0
  1  2  1  0  0  0
M  END
> <minimizedAffinity>
-7.27853

$$$$
4RQK_R1S_A_404


 24 27  0  0  0  0  0  0  0  0999 V2000
  -12.2680   17.6183   -8.0229 N   0  0  0  0  0  0  0  0  0  0  0  0
  -12.0747   18.3983   -7.4541 H   0  0  0  0  0  0  0  0  0  0  0  0
  -14.1451   19.3013  -15.4552 Cl  0  0  0  0  0  0  0  0  0  0  0  0
  -14.1794   18.6722  -13.8384 C   0  0  0  0  0  0  0  0  0  0  0  0
  -13.1287   19.0336  -13.0098 C   0  0  0  0  0  0  0  0  0  0  0  0
  -13.1018   18.5547  -11.7120 C   0  0  0  0  0  0  0  0  0  0  0  0
  -14.1114   17.7311  -11.2292 C   0  0  0  0  0  0  0  0  0  0  0  0
  -15.1811   17.3633  -12.0744 C   0  0  0  0  0  0  0  0  0  0  0  0
  -15.2075   17.8377  -13.3791 C   0  0  0  0  0  0  0  0  0  0  0  0
  -13.9638   17.2946   -9.8465 N   0  0  0  0  0  0  0  0  0  0  0  0
  -12.8017   17.8283   -9.3185 C   0  0  0  0  0  0  0  0  0  0  0  0
  -12.0422   18.7766  -10.4602 S   0  0  0  0  0  0  0  0  0  0  0  0
  -11.9678   16.1417   -7.4523 S   0  0  0  0  0  0  0  0  0  0  0  0
  -11.6691   16.1503   -6.0485 O   0  0  0  0  0  0  0  0  0  0  0  0
  -13.0959   15.2574   -7.5191 O   0  0  0  0  0  0  0  0  0  0  0  0
  -10.6305   15.6825   -8.5033 C   0  0  0  0  0  0  0  0  0  0  0  0
   -9.5480   16.5255   -8.9020 C   0  0  0  0  0  0  0  0  0  0  0  0
   -8.5282   15.6478   -9.8614 S   0  0  0  0  0  0  0  0  0  0  0  0
   -9.3005   14.1747   -9.8704 C   0  0  0  0  0  0  0  0  0  0  0  0
   -9.0450   12.9523  -10.4772 C   0  0  0  0  0  0  0  0  0  0  0  0
   -9.9352   11.8984  -10.2580 C   0  0  0  0  0  0  0  0  0  0  0  0
  -11.0863   12.0339   -9.4577 C   0  0  0  0  0  0  0  0  0  0  0  0
  -11.3412   13.2445   -8.8630 C   0  0  0  0  0  0  0  0  0  0  0  0
  -10.4453   14.3093   -9.0795 C   0  0  0  0  0  0  0  0  0  0  0  0
  3  4  1  0  0  0
  9  4  2  0  0  0
  9  8  1  0  0  0
  4  5  1  0  0  0
  8  7  2  0  0  0
  5  6  2  0  0  0
  7  6  1  0  0  0
  7 10  1  0  0  0
  6 12  1  0  0  0
 21 22  2  0  0  0
 21 20  1  0  0  0
 22 23  1  0  0  0
 10 11  2  0  0  0
 20 19  2  0  0  0
 23 24  2  0  0  0
 12 11  1  0  0  0
 11  1  1  0  0  0
 19 24  1  0  0  0
 19 18  1  0  0  0
 24 16  1  0  0  0
 14 13  2  0  0  0
  1 13  1  0  0  0
 16 13  1  0  0  0
 16 17  2  0  0  0
 18 17  1  0  0  0
 13 15  2  0  0  0
  1  2  1  0  0  0
M  END
> <minimizedAffinity>
-7.18930

$$$$
4RQK_R1S_A_404


 24 27  0  0  0  0  0  0  0  0999 V2000
  -10.8397   17.9831   -8.2868 N   0  0  0  0  0  0  0  0  0  0  0  0
  -10.5068   18.8502   -7.9604 H   0  0  0  0  0  0  0  0  0  0  0  0
  -15.8932   17.5093  -14.2728 Cl  0  0  0  0  0  0  0  0  0  0  0  0
  -14.4635   17.7808  -13.3278 C   0  0  0  0  0  0  0  0  0  0  0  0
  -14.5417   17.4661  -11.9802 C   0  0  0  0  0  0  0  0  0  0  0  0
  -13.4329   17.6695  -11.1778 C   0  0  0  0  0  0  0  0  0  0  0  0
  -12.2485   18.1714  -11.7030 C   0  0  0  0  0  0  0  0  0  0  0  0
  -12.1702   18.4920  -13.0760 C   0  0  0  0  0  0  0  0  0  0  0  0
  -13.2832   18.2945  -13.8823 C   0  0  0  0  0  0  0  0  0  0  0  0
  -11.1569   18.3397  -10.7522 N   0  0  0  0  0  0  0  0  0  0  0  0
  -11.5773   17.9414   -9.4957 C   0  0  0  0  0  0  0  0  0  0  0  0
  -13.1542   17.4051   -9.5680 S   0  0  0  0  0  0  0  0  0  0  0  0
  -10.5292   16.6544   -7.4299 S   0  0  0  0  0  0  0  0  0  0  0  0
   -9.7486   16.9318   -6.2580 O   0  0  0  0  0  0  0  0  0  0  0  0
  -11.7011   16.0377   -6.8773 O   0  0  0  0  0  0  0  0  0  0  0  0
   -9.7204   15.6882   -8.6613 C   0  0  0  0  0  0  0  0  0  0  0  0
   -8.5941   16.0937   -9.4412 C   0  0  0  0  0  0  0  0  0  0  0  0
   -8.1717   14.8449  -10.4377 S   0  0  0  0  0  0  0  0  0  0  0  0
   -9.3053   13.7064  -10.0073 C   0  0  0  0  0  0  0  0  0  0  0  0
   -9.5869   12.4140  -10.4295 C   0  0  0  0  0  0  0  0  0  0  0  0
  -10.6463   11.7305   -9.8280 C   0  0  0  0  0  0  0  0  0  0  0  0
  -11.4454   12.3074   -8.8218 C   0  0  0  0  0  0  0  0  0  0  0  0
  -11.1698   13.5872   -8.4092 C   0  0  0  0  0  0  0  0  0  0  0  0
  -10.1015   14.2796   -9.0113 C   0  0  0  0  0  0  0  0  0  0  0  0
  3  4  1  0  0  0
  9  4  2  0  0  0
  9  8  1  0  0  0
  4  5  1  0  0  0
  8  7  2  0  0  0
  5  6  2  0  0  0
  7  6  1  0  0  0
  7 10  1  0  0  0
  6 12  1  0  0  0
 21 22  2  0  0  0
 21 20  1  0  0  0
 22 23  1  0  0  0
 10 11  2  0  0  0
 20 19  2  0  0  0
 23 24  2  0  0  0
 12 11  1  0  0  0
 11  1  1  0  0  0
 19 24  1  0  0  0
 19 18  1  0  0  0
 24 16  1  0  0  0
 14 13  2  0  0  0
  1 13  1  0  0  0
 16 13  1  0  0  0
 16 17  2  0  0  0
 18 17  1  0  0  0
 13 15  2  0  0  0
  1  2  1  0  0  0
M  END
> <minimizedAffinity>
-7.15592

$$$$
4RQK_R1S_A_404


 24 27  0  0  0  0  0  0  0  0999 V2000
  -11.2225   18.9413   -9.5337 N   0  0  0  0  0  0  0  0  0  0  0  0
  -11.5632   19.3216   -8.6920 H   0  0  0  0  0  0  0  0  0  0  0  0
  -10.3893   11.1374   -9.5328 Cl  0  0  0  0  0  0  0  0  0  0  0  0
  -10.0813   12.8375   -9.6934 C   0  0  0  0  0  0  0  0  0  0  0  0
  -11.1154   13.6911   -9.3422 C   0  0  0  0  0  0  0  0  0  0  0  0
  -10.9268   15.0570   -9.4574 C   0  0  0  0  0  0  0  0  0  0  0  0
   -9.7209   15.5803   -9.9072 C   0  0  0  0  0  0  0  0  0  0  0  0
   -8.6682   14.7097  -10.2650 C   0  0  0  0  0  0  0  0  0  0  0  0
   -8.8567   13.3383  -10.1560 C   0  0  0  0  0  0  0  0  0  0  0  0
   -9.6522   17.0341   -9.9837 N   0  0  0  0  0  0  0  0  0  0  0  0
  -10.8580   17.5727   -9.5713 C   0  0  0  0  0  0  0  0  0  0  0  0
  -11.9033   16.3520   -9.1280 S   0  0  0  0  0  0  0  0  0  0  0  0
  -11.0964   19.8942  -10.8269 S   0  0  0  0  0  0  0  0  0  0  0  0
  -10.3751   21.1025  -10.5452 O   0  0  0  0  0  0  0  0  0  0  0  0
  -10.3264   19.3203  -11.8931 O   0  0  0  0  0  0  0  0  0  0  0  0
  -12.8035   20.1082  -11.2066 C   0  0  0  0  0  0  0  0  0  0  0  0
  -13.6308   21.1899  -10.7743 C   0  0  0  0  0  0  0  0  0  0  0  0
  -15.1436   20.9745  -11.4034 S   0  0  0  0  0  0  0  0  0  0  0  0
  -14.9273   19.5637  -12.2575 C   0  0  0  0  0  0  0  0  0  0  0  0
  -15.7588   18.7627  -13.0287 C   0  0  0  0  0  0  0  0  0  0  0  0
  -15.2233   17.6140  -13.6161 C   0  0  0  0  0  0  0  0  0  0  0  0
  -13.8784   17.2323  -13.4438 C   0  0  0  0  0  0  0  0  0  0  0  0
  -13.0587   18.0217  -12.6762 C   0  0  0  0  0  0  0  0  0  0  0  0
  -13.5937   19.1819  -12.0837 C   0  0  0  0  0  0  0  0  0  0  0  0
  3  4  1  0  0  0
  9  4  2  0  0  0
  9  8  1  0  0  0
  4  5  1  0  0  0
  8  7  2  0  0  0
  5  6  2  0  0  0
  7  6  1  0  0  0
  7 10  1  0  0  0
  6 12  1  0  0  0
 21 22  2  0  0  0
 21 20  1  0  0  0
 22 23  1  0  0  0
 10 11  2  0  0  0
 20 19  2  0  0  0
 23 24  2  0  0  0
 12 11  1  0  0  0
 11  1  1  0  0  0
 19 24  1  0  0  0
 19 18  1  0  0  0
 24 16  1  0  0  0
 14 13  2  0  0  0
  1 13  1  0  0  0
 16 13  1  0  0  0
 16 17  2  0  0  0
 18 17  1  0  0  0
 13 15  2  0  0  0
  1  2  1  0  0  0
M  END
> <minimizedAffinity>
-6.76159

$$$$
4RQK_R1S_A_404


 24 27  0  0  0  0  0  0  0  0999 V2000
  -11.0782   19.1330   -8.3669 N   0  0  0  0  0  0  0  0  0  0  0  0
  -10.2792   19.5732   -7.9967 H   0  0  0  0  0  0  0  0  0  0  0  0
  -10.3913   11.3943   -9.4787 Cl  0  0  0  0  0  0  0  0  0  0  0  0
  -10.8635   12.9446   -8.8585 C   0  0  0  0  0  0  0  0  0  0  0  0
  -10.3395   14.0554   -9.5009 C   0  0  0  0  0  0  0  0  0  0  0  0
  -10.6773   15.3169   -9.0435 C   0  0  0  0  0  0  0  0  0  0  0  0
  -11.5358   15.4834   -7.9638 C   0  0  0  0  0  0  0  0  0  0  0  0
  -12.0687   14.3510   -7.3100 C   0  0  0  0  0  0  0  0  0  0  0  0
  -11.7268   13.0838   -7.7631 C   0  0  0  0  0  0  0  0  0  0  0  0
  -11.8097   16.8628   -7.5812 N   0  0  0  0  0  0  0  0  0  0  0  0
  -11.1195   17.7178   -8.4219 C   0  0  0  0  0  0  0  0  0  0  0  0
  -10.2678   16.8374   -9.5527 S   0  0  0  0  0  0  0  0  0  0  0  0
  -12.2993   20.0437   -8.8920 S   0  0  0  0  0  0  0  0  0  0  0  0
  -13.5533   19.6642   -8.3061 O   0  0  0  0  0  0  0  0  0  0  0  0
  -12.1920   21.4244   -8.5162 O   0  0  0  0  0  0  0  0  0  0  0  0
  -12.1610   19.7568  -10.6248 C   0  0  0  0  0  0  0  0  0  0  0  0
  -11.1542   20.2905  -11.4866 C   0  0  0  0  0  0  0  0  0  0  0  0
  -11.4188   19.7204  -13.0149 S   0  0  0  0  0  0  0  0  0  0  0  0
  -12.7644   18.7749  -12.7657 C   0  0  0  0  0  0  0  0  0  0  0  0
  -13.5661   17.9968  -13.5900 C   0  0  0  0  0  0  0  0  0  0  0  0
  -14.6475   17.3181  -13.0232 C   0  0  0  0  0  0  0  0  0  0  0  0
  -14.9616   17.4050  -11.6529 C   0  0  0  0  0  0  0  0  0  0  0  0
  -14.1719   18.1793  -10.8399 C   0  0  0  0  0  0  0  0  0  0  0  0
  -13.0793   18.8638  -11.4065 C   0  0  0  0  0  0  0  0  0  0  0  0
  3  4  1  0  0  0
  9  4  2  0  0  0
  9  8  1  0  0  0
  4  5  1  0  0  0
  8  7  2  0  0  0
  5  6  2  0  0  0
  7  6  1  0  0  0
  7 10  1  0  0  0
  6 12  1  0  0  0
 21 22  2  0  0  0
 21 20  1  0  0  0
 22 23  1  0  0  0
 10 11  2  0  0  0
 20 19  2  0  0  0
 23 24  2  0  0  0
 12 11  1  0  0  0
 11  1  1  0  0  0
 19 24  1  0  0  0
 19 18  1  0  0  0
 24 16  1  0  0  0
 14 13  2  0  0  0
  1 13  1  0  0  0
 16 13  1  0  0  0
 16 17  2  0  0  0
 18 17  1  0  0  0
 13 15  2  0  0  0
  1  2  1  0  0  0
M  END
> <minimizedAffinity>
-6.69599

$$$$
4RQK_R1S_A_404


 24 27  0  0  0  0  0  0  0  0999 V2000
  -10.6923   17.3451  -11.0535 N   0  0  0  0  0  0  0  0  0  0  0  0
  -10.3186   16.6563  -11.6495 H   0  0  0  0  0  0  0  0  0  0  0  0
  -17.3265   21.2234  -12.6474 Cl  0  0  0  0  0  0  0  0  0  0  0  0
  -15.6779   20.6823  -12.6631 C   0  0  0  0  0  0  0  0  0  0  0  0
  -15.3596   19.6384  -11.8086 C   0  0  0  0  0  0  0  0  0  0  0  0
  -14.0574   19.1715  -11.7751 C   0  0  0  0  0  0  0  0  0  0  0  0
  -13.0750   19.7242  -12.5874 C   0  0  0  0  0  0  0  0  0  0  0  0
  -13.4005   20.7879  -13.4572 C   0  0  0  0  0  0  0  0  0  0  0  0
  -14.7050   21.2624  -13.4886 C   0  0  0  0  0  0  0  0  0  0  0  0
  -11.7450   19.1431  -12.4551 N   0  0  0  0  0  0  0  0  0  0  0  0
  -11.7775   18.1332  -11.5101 C   0  0  0  0  0  0  0  0  0  0  0  0
  -13.3250   17.9630  -10.9137 S   0  0  0  0  0  0  0  0  0  0  0  0
  -10.0511   17.5419   -9.5884 S   0  0  0  0  0  0  0  0  0  0  0  0
   -8.6164   17.5172   -9.6137 O   0  0  0  0  0  0  0  0  0  0  0  0
  -10.3244   18.8250   -9.0071 O   0  0  0  0  0  0  0  0  0  0  0  0
  -10.8121   16.1940   -8.7469 C   0  0  0  0  0  0  0  0  0  0  0  0
  -11.8004   16.2953   -7.7201 C   0  0  0  0  0  0  0  0  0  0  0  0
  -12.2329   14.7686   -7.2588 S   0  0  0  0  0  0  0  0  0  0  0  0
  -11.2719   13.8558   -8.2639 C   0  0  0  0  0  0  0  0  0  0  0  0
  -11.0754   12.4926   -8.4388 C   0  0  0  0  0  0  0  0  0  0  0  0
  -10.1614   12.0679   -9.4060 C   0  0  0  0  0  0  0  0  0  0  0  0
   -9.4240   12.9694  -10.1982 C   0  0  0  0  0  0  0  0  0  0  0  0
   -9.6147   14.3170  -10.0204 C   0  0  0  0  0  0  0  0  0  0  0  0
  -10.5367   14.7498   -9.0478 C   0  0  0  0  0  0  0  0  0  0  0  0
  3  4  1  0  0  0
  9  4  2  0  0  0
  9  8  1  0  0  0
  4  5  1  0  0  0
  8  7  2  0  0  0
  5  6  2  0  0  0
  7  6  1  0  0  0
  7 10  1  0  0  0
  6 12  1  0  0  0
 21 22  2  0  0  0
 21 20  1  0  0  0
 22 23  1  0  0  0
 10 11  2  0  0  0
 20 19  2  0  0  0
 23 24  2  0  0  0
 12 11  1  0  0  0
 11  1  1  0  0  0
 19 24  1  0  0  0
 19 18  1  0  0  0
 24 16  1  0  0  0
 14 13  2  0  0  0
  1 13  1  0  0  0
 16 13  1  0  0  0
 16 17  2  0  0  0
 18 17  1  0  0  0
 13 15  2  0  0  0
  1  2  1  0  0  0
M  END
> <minimizedAffinity>
-6.36666

$$$$
4RQK_R1S_A_404


 24 27  0  0  0  0  0  0  0  0999 V2000
  -11.2537   18.1726   -7.6520 N   0  0  0  0  0  0  0  0  0  0  0  0
  -11.3561   18.2563   -6.6765 H   0  0  0  0  0  0  0  0  0  0  0  0
  -16.6883   20.7610  -12.6879 Cl  0  0  0  0  0  0  0  0  0  0  0  0
  -15.4722   20.6921  -11.4520 C   0  0  0  0  0  0  0  0  0  0  0  0
  -14.9130   19.4490  -11.2008 C   0  0  0  0  0  0  0  0  0  0  0  0
  -13.9432   19.3349  -10.2204 C   0  0  0  0  0  0  0  0  0  0  0  0
  -13.5189   20.4430   -9.4974 C   0  0  0  0  0  0  0  0  0  0  0  0
  -14.0896   21.7088   -9.7541 C   0  0  0  0  0  0  0  0  0  0  0  0
  -15.0672   21.8251  -10.7332 C   0  0  0  0  0  0  0  0  0  0  0  0
  -12.4937   20.1877   -8.4934 N   0  0  0  0  0  0  0  0  0  0  0  0
  -12.1711   18.8423   -8.4990 C   0  0  0  0  0  0  0  0  0  0  0  0
  -13.0618   18.0494   -9.6641 S   0  0  0  0  0  0  0  0  0  0  0  0
  -10.0480   17.2782   -8.2371 S   0  0  0  0  0  0  0  0  0  0  0  0
   -9.6778   17.6663   -9.5683 O   0  0  0  0  0  0  0  0  0  0  0  0
   -8.8148   17.4327   -7.5199 O   0  0  0  0  0  0  0  0  0  0  0  0
  -10.7683   15.6767   -8.0932 C   0  0  0  0  0  0  0  0  0  0  0  0
  -11.8535   15.3180   -7.2359 C   0  0  0  0  0  0  0  0  0  0  0  0
  -12.1973   13.7186   -7.4697 S   0  0  0  0  0  0  0  0  0  0  0  0
  -11.0728   13.3251   -8.6305 C   0  0  0  0  0  0  0  0  0  0  0  0
  -10.7467   12.1557   -9.3042 C   0  0  0  0  0  0  0  0  0  0  0  0
   -9.7136   12.1917  -10.2437 C   0  0  0  0  0  0  0  0  0  0  0  0
   -8.9836   13.3639  -10.5216 C   0  0  0  0  0  0  0  0  0  0  0  0
   -9.3030   14.5181   -9.8507 C   0  0  0  0  0  0  0  0  0  0  0  0
  -10.3452   14.4870   -8.9041 C   0  0  0  0  0  0  0  0  0  0  0  0
  3  4  1  0  0  0
  9  4  2  0  0  0
  9  8  1  0  0  0
  4  5  1  0  0  0
  8  7  2  0  0  0
  5  6  2  0  0  0
  7  6  1  0  0  0
  7 10  1  0  0  0
  6 12  1  0  0  0
 21 22  2  0  0  0
 21 20  1  0  0  0
 22 23  1  0  0  0
 10 11  2  0  0  0
 20 19  2  0  0  0
 23 24  2  0  0  0
 12 11  1  0  0  0
 11  1  1  0  0  0
 19 24  1  0  0  0
 19 18  1  0  0  0
 24 16  1  0  0  0
 14 13  2  0  0  0
  1 13  1  0  0  0
 16 13  1  0  0  0
 16 17  2  0  0  0
 18 17  1  0  0  0
 13 15  2  0  0  0
  1  2  1  0  0  0
M  END
> <minimizedAffinity>
-6.02334

$$$$
4RQK_R1S_A_404


 24 27  0  0  0  0  0  0  0  0999 V2000
  -10.0221   18.9764   -8.2892 N   0  0  0  0  0  0  0  0  0  0  0  0
   -9.7752   19.3535   -7.4140 H   0  0  0  0  0  0  0  0  0  0  0  0
  -10.3891   11.2338   -9.5189 Cl  0  0  0  0  0  0  0  0  0  0  0  0
  -10.7013   12.8351   -8.9281 C   0  0  0  0  0  0  0  0  0  0  0  0
   -9.9217   13.8533   -9.4542 C   0  0  0  0  0  0  0  0  0  0  0  0
  -10.1233   15.1493   -9.0135 C   0  0  0  0  0  0  0  0  0  0  0  0
  -11.0959   15.4425   -8.0655 C   0  0  0  0  0  0  0  0  0  0  0  0
  -11.8892   14.4044   -7.5300 C   0  0  0  0  0  0  0  0  0  0  0  0
  -11.6851   13.1020   -7.9662 C   0  0  0  0  0  0  0  0  0  0  0  0
  -11.2058   16.8454   -7.6860 N   0  0  0  0  0  0  0  0  0  0  0  0
  -10.2742   17.5859   -8.3916 C   0  0  0  0  0  0  0  0  0  0  0  0
   -9.4116   16.5892   -9.4124 S   0  0  0  0  0  0  0  0  0  0  0  0
  -10.1274   19.9591   -9.5618 S   0  0  0  0  0  0  0  0  0  0  0  0
   -9.5490   21.2472   -9.3048 O   0  0  0  0  0  0  0  0  0  0  0  0
   -9.3789   19.5098  -10.7006 O   0  0  0  0  0  0  0  0  0  0  0  0
  -11.8730   19.9521   -9.7998 C   0  0  0  0  0  0  0  0  0  0  0  0
  -12.8340   20.6298   -8.9881 C   0  0  0  0  0  0  0  0  0  0  0  0
  -14.3368   20.3546   -9.6179 S   0  0  0  0  0  0  0  0  0  0  0  0
  -13.9558   19.4023  -10.9273 C   0  0  0  0  0  0  0  0  0  0  0  0
  -14.7012   18.7740  -11.9160 C   0  0  0  0  0  0  0  0  0  0  0  0
  -14.0287   18.0316  -12.8896 C   0  0  0  0  0  0  0  0  0  0  0  0
  -12.6277   17.8861  -12.8971 C   0  0  0  0  0  0  0  0  0  0  0  0
  -11.8922   18.5028  -11.9158 C   0  0  0  0  0  0  0  0  0  0  0  0
  -12.5657   19.2540  -10.9332 C   0  0  0  0  0  0  0  0  0  0  0  0
  3  4  1  0  0  0
  9  4  2  0  0  0
  9  8  1  0  0  0
  4  5  1  0  0  0
  8  7  2  0  0  0
  5  6  2  0  0  0
  7  6  1  0  0  0
  7 10  1  0  0  0
  6 12  1  0  0  0
 21 22  2  0  0  0
 21 20  1  0  0  0
 22 23  1  0  0  0
 10 11  2  0  0  0
 20 19  2  0  0  0
 23 24  2  0  0  0
 12 11  1  0  0  0
 11  1  1  0  0  0
 19 24  1  0  0  0
 19 18  1  0  0  0
 24 16  1  0  0  0
 14 13  2  0  0  0
  1 13  1  0  0  0
 16 13  1  0  0  0
 16 17  2  0  0  0
 18 17  1  0  0  0
 13 15  2  0  0  0
  1  2  1  0  0  0
M  END
> <minimizedAffinity>
-5.76244

$$$$
4RQK_R1S_A_404


 24 27  0  0  0  0  0  0  0  0999 V2000
  -11.4295   19.2451   -8.7803 N   0  0  0  0  0  0  0  0  0  0  0  0
  -10.6042   19.7472   -8.5906 H   0  0  0  0  0  0  0  0  0  0  0  0
  -10.3770   11.4902   -9.3699 Cl  0  0  0  0  0  0  0  0  0  0  0  0
  -10.9078   13.0558   -8.8426 C   0  0  0  0  0  0  0  0  0  0  0  0
  -10.4658   14.1419   -9.5815 C   0  0  0  0  0  0  0  0  0  0  0  0
  -10.8529   15.4148   -9.2014 C   0  0  0  0  0  0  0  0  0  0  0  0
  -11.6805   15.6160   -8.1036 C   0  0  0  0  0  0  0  0  0  0  0  0
  -12.1299   14.5087   -7.3514 C   0  0  0  0  0  0  0  0  0  0  0  0
  -11.7381   13.2307   -7.7271 C   0  0  0  0  0  0  0  0  0  0  0  0
  -12.0128   17.0041   -7.8088 N   0  0  0  0  0  0  0  0  0  0  0  0
  -11.3984   17.8294   -8.7338 C   0  0  0  0  0  0  0  0  0  0  0  0
  -10.5420   16.9130   -9.8320 S   0  0  0  0  0  0  0  0  0  0  0  0
  -12.7748   20.0583   -9.1343 S   0  0  0  0  0  0  0  0  0  0  0  0
  -13.8005   19.8705   -8.1483 O   0  0  0  0  0  0  0  0  0  0  0  0
  -12.6050   21.4831   -9.1309 O   0  0  0  0  0  0  0  0  0  0  0  0
  -13.1240   19.3791  -10.7221 C   0  0  0  0  0  0  0  0  0  0  0  0
  -14.1613   18.4447  -11.0261 C   0  0  0  0  0  0  0  0  0  0  0  0
  -14.1171   18.1241  -12.6466 S   0  0  0  0  0  0  0  0  0  0  0  0
  -12.8495   19.0911  -13.1207 C   0  0  0  0  0  0  0  0  0  0  0  0
  -12.2187   19.3334  -14.3335 C   0  0  0  0  0  0  0  0  0  0  0  0
  -11.1531   20.2361  -14.3639 C   0  0  0  0  0  0  0  0  0  0  0  0
  -10.6876   20.8969  -13.2103 C   0  0  0  0  0  0  0  0  0  0  0  0
  -11.3082   20.6521  -12.0107 C   0  0  0  0  0  0  0  0  0  0  0  0
  -12.3843   19.7443  -11.9756 C   0  0  0  0  0  0  0  0  0  0  0  0
  3  4  1  0  0  0
  9  4  2  0  0  0
  9  8  1  0  0  0
  4  5  1  0  0  0
  8  7  2  0  0  0
  5  6  2  0  0  0
  7  6  1  0  0  0
  7 10  1  0  0  0
  6 12  1  0  0  0
 21 22  2  0  0  0
 21 20  1  0  0  0
 22 23  1  0  0  0
 10 11  2  0  0  0
 20 19  2  0  0  0
 23 24  2  0  0  0
 12 11  1  0  0  0
 11  1  1  0  0  0
 19 24  1  0  0  0
 19 18  1  0  0  0
 24 16  1  0  0  0
 14 13  2  0  0  0
  1 13  1  0  0  0
 16 13  1  0  0  0
 16 17  2  0  0  0
 18 17  1  0  0  0
 13 15  2  0  0  0
  1  2  1  0  0  0
M  END
> <minimizedAffinity>
-5.57945

$$$$
4RQK_R1S_A_404


 24 27  0  0  0  0  0  0  0  0999 V2000
  -11.0651   19.1266   -8.0224 N   0  0  0  0  0  0  0  0  0  0  0  0
  -11.6206   19.6807   -8.6170 H   0  0  0  0  0  0  0  0  0  0  0  0
  -10.3318   11.4646   -9.5558 Cl  0  0  0  0  0  0  0  0  0  0  0  0
  -10.8300   12.9771   -8.8665 C   0  0  0  0  0  0  0  0  0  0  0  0
  -10.2789   14.1223   -9.4196 C   0  0  0  0  0  0  0  0  0  0  0  0
  -10.6358   15.3557   -8.9039 C   0  0  0  0  0  0  0  0  0  0  0  0
  -11.5398   15.4609   -7.8540 C   0  0  0  0  0  0  0  0  0  0  0  0
  -12.1004   14.2935   -7.2912 C   0  0  0  0  0  0  0  0  0  0  0  0
  -11.7395   13.0541   -7.8028 C   0  0  0  0  0  0  0  0  0  0  0  0
  -11.8298   16.8162   -7.4032 N   0  0  0  0  0  0  0  0  0  0  0  0
  -11.1041   17.7172   -8.1620 C   0  0  0  0  0  0  0  0  0  0  0  0
  -10.2047   16.9023   -9.3050 S   0  0  0  0  0  0  0  0  0  0  0  0
  -10.1391   19.8500   -6.9199 S   0  0  0  0  0  0  0  0  0  0  0  0
   -8.8067   19.3173   -6.8930 O   0  0  0  0  0  0  0  0  0  0  0  0
   -9.9067   21.2409   -7.1851 O   0  0  0  0  0  0  0  0  0  0  0  0
  -11.1011   19.5438   -5.4760 C   0  0  0  0  0  0  0  0  0  0  0  0
  -10.6806   18.8045   -4.3279 C   0  0  0  0  0  0  0  0  0  0  0  0
  -11.9091   18.8125   -3.2226 S   0  0  0  0  0  0  0  0  0  0  0  0
  -13.0488   19.7152   -4.0307 C   0  0  0  0  0  0  0  0  0  0  0  0
  -14.3416   20.1276   -3.7375 C   0  0  0  0  0  0  0  0  0  0  0  0
  -15.0262   20.9002   -4.6787 C   0  0  0  0  0  0  0  0  0  0  0  0
  -14.4598   21.2632   -5.9162 C   0  0  0  0  0  0  0  0  0  0  0  0
  -13.1837   20.8499   -6.2075 C   0  0  0  0  0  0  0  0  0  0  0  0
  -12.4889   20.0726   -5.2608 C   0  0  0  0  0  0  0  0  0  0  0  0
  3  4  1  0  0  0
  9  4  2  0  0  0
  9  8  1  0  0  0
  4  5  1  0  0  0
  8  7  2  0  0  0
  5  6  2  0  0  0
  7  6  1  0  0  0
  7 10  1  0  0  0
  6 12  1  0  0  0
 21 22  2  0  0  0
 21 20  1  0  0  0
 22 23  1  0  0  0
 10 11  2  0  0  0
 20 19  2  0  0  0
 23 24  2  0  0  0
 12 11  1  0  0  0
 11  1  1  0  0  0
 19 24  1  0  0  0
 19 18  1  0  0  0
 24 16  1  0  0  0
 14 13  2  0  0  0
  1 13  1  0  0  0
 16 13  1  0  0  0
 16 17  2  0  0  0
 18 17  1  0  0  0
 13 15  2  0  0  0
  1  2  1  0  0  0
M  END
> <minimizedAffinity>
-5.39631

$$$$
