3B24_B2J_A_237
  RCSB PDB12061707583D
Coordinates from PDB:3B24:A:237 Model:1 without hydrogens
 11 11  0  0  0  0            999 V2000
   33.1270   37.9480   51.7240   C 0  0  0  0  0  0  0  0  0  0  0  0
   32.4970   36.7920   52.5120   C 0  0  0  0  0  0  0  0  0  0  0  0
   33.6450   35.3630   52.4470   S 0  0  0  0  0  0  0  0  0  0  0  0
   33.2200   34.6180   50.9370   C 0  0  0  0  0  0  0  0  0  0  0  0
   34.2160   34.1190   50.2040   N 0  0  0  0  0  0  0  0  0  0  0  0
   31.9440   34.5230   50.5140   N 0  0  0  0  0  0  0  0  0  0  0  0
   31.6740   33.9270   49.3430   C 0  0  0  0  0  0  0  0  0  0  0  0
   30.2030   33.7930   48.8770   C 0  0  0  0  0  0  0  0  0  0  0  0
   32.6890   33.4320   48.5990   N 0  0  0  0  0  0  0  0  0  0  0  0
   33.9650   33.5690   49.0140   C 0  0  0  0  0  0  0  0  0  0  0  0
   34.9910   33.1870   48.2730   N 0  0  0  0  0  0  0  0  0  0  0  0
  1  2  1  0  0  0  0
  2  3  1  0  0  0  0
  3  4  1  0  0  0  0
  4  5  2  0  0  0  0
  4  6  1  0  0  0  0
  5 10  1  0  0  0  0
  6  7  2  0  0  0  0
  7  8  1  0  0  0  0
  7  9  1  0  0  0  0
  9 10  2  0  0  0  0
 10 11  1  0  0  0  0
A    1
C1
A    2
C2
A    3
S3
A    4
C4
A    5
N5
A    6
N6
A    7
C7
A    8
C8
A    9
N9
A   10
C10
A   11
N11
M  END
>  <InstanceId>
3B24_B2J_A_237

>  <ChemCompId>
B2J

>  <PdbId>
3B24

>  <ChainId>
A

>  <ResidueNumber>
237

>  <InsertionCode>


>  <Model>
1

>  <AltIds>


>  <MissingHeavyAtoms>
0

>  <ObservedFormula>
C6 N4 S

>  <Name>
4-(ethylsulfanyl)-6-methyl-1,3,5-triazin-2-amine

>  <SystematicName>
4-ethylsulfanyl-6-methyl-1,3,5-triazin-2-amine

>  <Synonyms>


>  <Type>
NON-POLYMER

>  <Formula>
C6 H10 N4 S

>  <MolecularWeight>
170.235

>  <ModifiedDate>
2011-09-09

>  <Parent>


>  <OneLetterCode>


>  <SubcomponentList>


>  <AmbiguousFlag>
N

>  <InChI>
InChI=1S/C6H10N4S/c1-3-11-6-9-4(2)8-5(7)10-6/h3H2,1-2H3,(H2,7,8,9,10)

>  <InChIKey>
PJQMCVIFTDRXNT-UHFFFAOYSA-N

>  <SMILES>
CCSc1nc(nc(n1)N)C

$$$$
