3K00_MTT_A_405
  RCSB PDB12061709213D
Coordinates from PDB:3K00:A:405 Model:1 without hydrogens
 45 48  0  0  0  0            999 V2000
   -4.7180  -13.2830   18.8360   O 0  0  0  0  0  0  0  0  0  0  0  0
   -5.0250  -12.2290   19.7610   C 0  0  0  0  0  0  0  0  0  0  0  0
   -6.4210  -11.6180   19.5530   C 0  0  0  0  0  0  0  0  0  0  0  0
   -7.2330  -12.4900   18.7620   O 0  0  0  0  0  0  0  0  0  0  0  0
   -7.1620  -11.2190   20.8530   C 0  0  0  0  0  0  0  0  0  0  0  0
   -8.3170  -12.0380   21.1110   O 0  0  0  0  0  0  0  0  0  0  0  0
   -6.2830  -11.2750   22.1020   C 0  0  0  0  0  0  0  0  0  0  0  0
   -4.7330  -12.7990   21.1510   C 0  0  0  0  0  0  0  0  0  0  0  0
   -5.7370  -12.5790   22.1550   O 0  0  0  0  0  0  0  0  0  0  0  0
   -3.3780  -12.3070   21.6330   C 0  0  0  0  0  0  0  0  0  0  0  0
   -3.2580  -12.5890   23.0260   O 0  0  0  0  0  0  0  0  0  0  0  0
   -5.2100  -10.3100   22.0650   O 0  0  0  0  0  0  0  0  0  0  0  0
   -5.1330   -9.4900   23.2420   C 0  0  0  0  0  0  0  0  0  0  0  0
   -3.6940   -8.9900   23.4380   C 0  0  0  0  0  0  0  0  0  0  0  0
   -2.8000  -10.0270   23.8830   O 0  0  0  0  0  0  0  0  0  0  0  0
   -3.6790   -7.8580   24.4530   C 0  0  0  0  0  0  0  0  0  0  0  0
   -2.3650   -7.3860   24.7410   O 0  0  0  0  0  0  0  0  0  0  0  0
   -4.5210   -6.7140   23.9200   C 0  0  0  0  0  0  0  0  0  0  0  0
   -6.1320   -8.3330   23.0780   C 0  0  0  0  0  0  0  0  0  0  0  0
   -5.8810   -7.1990   23.9250   O 0  0  0  0  0  0  0  0  0  0  0  0
   -7.5580   -8.7900   23.4140   C 0  0  0  0  0  0  0  0  0  0  0  0
   -8.3610   -8.1740   22.4440   O 0  0  0  0  0  0  0  0  0  0  0  0
   -4.0160   -6.3090   22.6290   O 0  0  0  0  0  0  0  0  0  0  0  0
   -4.1140   -4.8880   22.3690   C 0  0  0  0  0  0  0  0  0  0  0  0
   -2.7790   -4.4010   21.7630   C 0  0  0  0  0  0  0  0  0  0  0  0
   -1.6980   -4.5270   22.6780   O 0  0  0  0  0  0  0  0  0  0  0  0
   -2.9310   -2.9170   21.4060   C 0  0  0  0  0  0  0  0  0  0  0  0
   -1.7700   -2.4100   20.7370   O 0  0  0  0  0  0  0  0  0  0  0  0
   -4.1580   -2.6610   20.5390   C 0  0  0  0  0  0  0  0  0  0  0  0
   -5.3000   -4.5660   21.4660   C 0  0  0  0  0  0  0  0  0  0  0  0
   -5.3320   -3.1590   21.1690   O 0  0  0  0  0  0  0  0  0  0  0  0
   -6.6810   -4.8890   22.0440   C 0  0  0  0  0  0  0  0  0  0  0  0
   -7.7200   -4.6520   21.0880   O 0  0  0  0  0  0  0  0  0  0  0  0
   -3.9810   -3.2900   19.2620   O 0  0  0  0  0  0  0  0  0  0  0  0
   -4.3130   -2.5380   18.0970   C 0  0  0  0  0  0  0  0  0  0  0  0
   -3.0180   -2.0930   17.4210   C 0  0  0  0  0  0  0  0  0  0  0  0
   -2.2980   -1.1290   18.2100   O 0  0  0  0  0  0  0  0  0  0  0  0
   -3.3410   -1.5120   16.0350   C 0  0  0  0  0  0  0  0  0  0  0  0
   -2.1160   -1.1450   15.3910   O 0  0  0  0  0  0  0  0  0  0  0  0
   -4.0980   -2.5480   15.2090   C 0  0  0  0  0  0  0  0  0  0  0  0
   -3.2930   -3.7200   15.0990   O 0  0  0  0  0  0  0  0  0  0  0  0
   -5.1470   -3.4310   17.1750   C 0  0  0  0  0  0  0  0  0  0  0  0
   -5.3430   -2.8730   15.8540   O 0  0  0  0  0  0  0  0  0  0  0  0
   -6.5540   -3.6730   17.7150   C 0  0  0  0  0  0  0  0  0  0  0  0
   -7.2620   -2.4220   17.8070   O 0  0  0  0  0  0  0  0  0  0  0  0
  1  2  1  0  0  0  0
  2  3  1  0  0  0  0
  2  8  1  0  0  0  0
  3  4  1  0  0  0  0
  3  5  1  0  0  0  0
  5  6  1  0  0  0  0
  5  7  1  0  0  0  0
  7  9  1  0  0  0  0
  7 12  1  0  0  0  0
  8  9  1  0  0  0  0
  8 10  1  0  0  0  0
 10 11  1  0  0  0  0
 12 13  1  0  0  0  0
 13 14  1  0  0  0  0
 13 19  1  0  0  0  0
 14 15  1  0  0  0  0
 14 16  1  0  0  0  0
 16 17  1  0  0  0  0
 16 18  1  0  0  0  0
 18 20  1  0  0  0  0
 18 23  1  0  0  0  0
 19 20  1  0  0  0  0
 19 21  1  0  0  0  0
 21 22  1  0  0  0  0
 23 24  1  0  0  0  0
 24 25  1  0  0  0  0
 24 30  1  0  0  0  0
 25 26  1  0  0  0  0
 25 27  1  0  0  0  0
 27 28  1  0  0  0  0
 27 29  1  0  0  0  0
 29 31  1  0  0  0  0
 29 34  1  0  0  0  0
 30 31  1  0  0  0  0
 30 32  1  0  0  0  0
 32 33  1  0  0  0  0
 34 35  1  0  0  0  0
 35 36  1  0  0  0  0
 35 42  1  0  0  0  0
 36 37  1  0  0  0  0
 36 38  1  0  0  0  0
 38 39  1  0  0  0  0
 38 40  1  0  0  0  0
 40 41  1  0  0  0  0
 40 43  1  0  0  0  0
 42 43  1  0  0  0  0
 42 44  1  0  0  0  0
 44 45  1  0  0  0  0
A    1
O14
A    2
C14
A    3
C13
A    4
O13
A    5
C12
A    6
O12
A    7
C11
A    8
C15
A    9
O15
A   10
C16
A   11
O16
A   12
O24
A   13
C24
A   14
C23
A   15
O23
A   16
C22
A   17
O22
A   18
C21
A   19
C25
A   20
O25
A   21
C26
A   22
O26
A   23
O34
A   24
C34
A   25
C33
A   26
O33
A   27
C32
A   28
O32
A   29
C31
A   30
C35
A   31
O35
A   32
C36
A   33
O36
A   34
O44
A   35
C44
A   36
C43
A   37
O43
A   38
C42
A   39
O42
A   40
C41
A   41
O41
A   42
C45
A   43
O45
A   44
C46
A   45
O46
M  END
>  <InstanceId>
3K00_MTT_A_405

>  <ChemCompId>
MTT

>  <PdbId>
3K00

>  <ChainId>
A

>  <ResidueNumber>
405

>  <InsertionCode>


>  <Model>
1

>  <AltIds>


>  <MissingHeavyAtoms>
0

>  <ObservedFormula>
C24 O21

>  <Name>
MALTOTETRAOSE

>  <SystematicName>
(2R,3R,4S,5S,6R)-2-[(2R,3S,4R,5R,6R)-6-[(2R,3S,4R,5R,6R)-4,5-dihydroxy-2-(hydroxymethyl)-6-[(2R,3S,4R,5R,6S)-4,5,6-trihydroxy-2-(hydroxymethyl)oxan-3-yl]oxy-oxan-3-yl]oxy-4,5-dihydroxy-2-(hydroxymethyl)oxan-3-yl]oxy-6-(hydroxymethyl)oxane-3,4,5-triol

>  <Synonyms>


>  <Type>
D-SACCHARIDE

>  <Formula>
C24 H42 O21

>  <MolecularWeight>
666.578

>  <ModifiedDate>
2011-06-04

>  <Parent>


>  <OneLetterCode>


>  <SubcomponentList>


>  <AmbiguousFlag>
N

>  <InChI>
InChI=1S/C24H42O21/c25-1-5-9(29)10(30)15(35)22(40-5)44-19-7(3-27)42-24(17(37)12(19)32)45-20-8(4-28)41-23(16(36)13(20)33)43-18-6(2-26)39-21(38)14(34)11(18)31/h5-38H,1-4H2/t5-,6-,7-,8-,9-,10+,11-,12-,13-,14-,15-,16-,17-,18-,19-,20-,21+,22-,23-,24-/m1/s1

>  <InChIKey>
LUEWUZLMQUOBSB-ZLBHSGTGSA-N

>  <SMILES>
C([C@@H]1[C@H]([C@@H]([C@H]([C@H](O1)O[C@@H]2[C@H](O[C@@H]([C@@H]([C@H]2O)O)O[C@@H]3[C@H](O[C@@H]([C@@H]([C@H]3O)O)O[C@@H]4[C@H](O[C@@H]([C@@H]([C@H]4O)O)O)CO)CO)CO)O)O)O)O

$$$$
