3FZN_D7K_A_601
  RCSB PDB12061708403D
Coordinates from PDB:3FZN:A:601 Model:1 without hydrogens
 39 41  0  0  0  0            999 V2000
  107.8070   41.3610   99.1990   P 0  0  0  0  0  0  0  0  0  0  0  0
  107.9080   41.2790  100.6960   O 0  0  0  0  0  0  0  0  0  0  0  0
  106.5640   40.9320   98.5630   O 0  0  0  0  0  0  0  0  0  0  0  0
  111.2130   41.8300   98.0640   O 0  0  0  0  0  0  0  0  0  0  0  0
  110.6680   40.7070   98.9010   P 0  0  0  0  0  0  0  0  0  0  0  0
  110.8350   40.8570  100.4090   O 0  0  0  0  0  0  0  0  0  0  0  0
  111.2970   39.2970   98.4450   O 0  0  0  0  0  0  0  0  0  0  0  0
  109.0410   40.4970   98.5070   O 0  0  0  0  0  0  0  0  0  0  0  0
  108.1550   42.8520   98.8390   O 0  0  0  0  0  0  0  0  0  0  0  0
  107.6820   43.4690   97.5880   C 0  0  0  0  0  0  0  0  0  0  0  0
  108.4960   44.7270   97.3960   C 0  0  0  0  0  0  0  0  0  0  0  0
  108.3520   45.4780   96.0430   C 0  0  0  0  0  0  0  0  0  0  0  0
  107.6850   46.6090   95.7590   C 0  0  0  0  0  0  0  0  0  0  0  0
  106.8450   47.3680   96.8440   C 0  0  0  0  0  0  0  0  0  0  0  0
  109.1320   44.8780   94.6460   S 0  0  0  0  0  0  0  0  0  0  0  0
  108.5680   46.2170   93.6360   C 0  0  0  0  0  0  0  0  0  0  0  0
  107.7800   47.0420   94.4380   N 0  3  0  0  0  0  0  0  0  0  0  0
  107.0630   48.3140   94.0440   C 0  0  0  0  0  0  0  0  0  0  0  0
  105.5980   48.1760   93.7800   C 0  0  0  0  0  0  0  0  0  0  0  0
  104.7000   48.9130   94.5800   C 0  0  0  0  0  0  0  0  0  0  0  0
  104.9860   47.4860   92.7040   C 0  0  0  0  0  0  0  0  0  0  0  0
  105.7730   46.7670   91.8970   N 0  0  0  0  0  0  0  0  0  0  0  0
  103.6090   47.4180   92.5660   N 0  0  0  0  0  0  0  0  0  0  0  0
  102.7770   48.1200   93.3610   C 0  0  0  0  0  0  0  0  0  0  0  0
  103.2810   48.8690   94.3620   N 0  0  0  0  0  0  0  0  0  0  0  0
  101.3660   48.0790   93.1380   C 0  0  0  0  0  0  0  0  0  0  0  0
  110.2000   48.7960   93.0470   O 0  0  0  0  0  0  0  0  0  0  0  0
  110.6460   47.5570   92.2990   P 0  0  0  0  0  0  0  0  0  0  0  0
  111.3290   47.7250   90.9950   O 0  0  0  0  0  0  0  0  0  0  0  0
  111.6430   46.7050   93.2680   O 0  0  0  0  0  0  0  0  0  0  0  0
  113.0720   46.7950   93.1090   C 0  0  0  0  0  0  0  0  0  0  0  0
  109.1110   46.3380   92.1700   C 0  0  0  0  0  0  0  0  0  0  0  0
  108.3400   47.1550   91.2880   O 0  0  0  0  0  0  0  0  0  0  0  0
  109.4730   45.0720   91.5690   C 0  0  0  0  0  0  0  0  0  0  0  0
  108.6440   44.4990   90.6110   C 0  0  0  0  0  0  0  0  0  0  0  0
  108.9430   43.2840   90.0090   C 0  0  0  0  0  0  0  0  0  0  0  0
  110.1080   42.6040   90.3570   C 0  0  0  0  0  0  0  0  0  0  0  0
  110.9570   43.1460   91.2990   C 0  0  0  0  0  0  0  0  0  0  0  0
  110.6490   44.3610   91.9080   C 0  0  0  0  0  0  0  0  0  0  0  0
  1  3  1  0  0  0  0
  1  8  1  0  0  0  0
  2  1  2  0  0  0  0
  5  4  1  0  0  0  0
  5  8  1  0  0  0  0
  5  7  1  0  0  0  0
  6  5  2  0  0  0  0
  9  1  1  0  0  0  0
  9 10  1  0  0  0  0
 11 10  1  0  0  0  0
 11 12  1  0  0  0  0
 12 15  1  0  0  0  0
 13 12  2  0  0  0  0
 13 17  1  0  0  0  0
 14 13  1  0  0  0  0
 15 16  1  0  0  0  0
 16 32  1  0  0  0  0
 17 16  2  0  0  0  0
 17 18  1  0  0  0  0
 19 18  1  0  0  0  0
 19 21  1  0  0  0  0
 20 19  2  0  0  0  0
 20 25  1  0  0  0  0
 21 22  1  0  0  0  0
 23 21  2  0  0  0  0
 24 23  1  0  0  0  0
 24 26  1  0  0  0  0
 25 24  2  0  0  0  0
 27 28  2  0  0  0  0
 28 32  1  0  0  0  0
 28 30  1  0  0  0  0
 29 28  1  0  0  0  0
 30 31  1  0  0  0  0
 32 33  1  0  0  0  0
 32 34  1  0  0  0  0
 34 35  1  0  0  0  0
 35 36  2  0  0  0  0
 37 36  1  0  0  0  0
 38 37  2  0  0  0  0
 39 34  2  0  0  0  0
 39 38  1  0  0  0  0
M  CHG  1  17   1
A    1
PA
A    2
O1A
A    3
O2A
A    4
O1B
A    5
PB
A    6
O2B
A    7
O3B
A    8
O3A
A    9
O01
A   10
C01
A   11
C05
A   12
C04
A   13
C03
A   14
CM4
A   15
S1
A   16
C02
A   17
N3
A   18
C7,
A   19
C5,
A   20
C6,
A   21
C4,
A   22
N4,
A   23
N3,
A   24
C2,
A   25
N1,
A   26
CM2
A   27
O12
A   28
P8
A   29
O11
A   30
O9
A   31
C10
A   32
C7
A   33
O7
A   34
C2
A   35
C3
A   36
C4
A   37
C5
A   38
C6
A   39
C1
M  END
>  <InstanceId>
3FZN_D7K_A_601

>  <ChemCompId>
D7K

>  <PdbId>
3FZN

>  <ChainId>
A

>  <ResidueNumber>
601

>  <InsertionCode>


>  <Model>
1

>  <AltIds>


>  <MissingHeavyAtoms>
0

>  <ObservedFormula>
C20 N4 O11 P3 S

>  <Name>
3-[(4-amino-2-methylpyrimidin-5-yl)methyl]-2-{(S)-hydroxy[(R)-hydroxy(methoxy)phosphoryl]phenylmethyl}-5-(2-{[(R)-hydroxy(phosphonooxy)phosphoryl]oxy}ethyl)-4-methyl-1,3-thiazol-3-ium

>  <SystematicName>
[(S)-[3-[(4-amino-2-methyl-pyrimidin-5-yl)methyl]-5-[2-(hydroxy-phosphonooxy-phosphoryl)oxyethyl]-4-methyl-1,3-thiazol-3-ium-2-yl]-hydroxy-phenyl-methyl]-methoxy-phosphinic acid

>  <Synonyms>


>  <Type>
NON-POLYMER

>  <Formula>
C20 H28 N4 O11 P3 S

>  <MolecularWeight>
625.443

>  <ModifiedDate>
2011-06-04

>  <Parent>


>  <OneLetterCode>


>  <SubcomponentList>


>  <AmbiguousFlag>
N

>  <InChI>
InChI=1S/C20H27N4O11P3S/c1-13-17(9-10-34-38(31,32)35-37(28,29)30)39-19(24(13)12-15-11-22-14(2)23-18(15)21)20(25,36(26,27)33-3)16-7-5-4-6-8-16/h4-8,11,25H,9-10,12H2,1-3H3,(H5-,21,22,23,26,27,28,29,30,31,32)/p+1/t20-/m0/s1

>  <InChIKey>
NEEQBMRCDKRNBV-FQEVSTJZSA-O

>  <SMILES>
Cc1c(sc([n+]1Cc2cnc(nc2N)C)[C@@](c3ccccc3)(O)[P@@](=O)(O)OC)CCO[P@@](=O)(O)OP(=O)(O)O

$$$$
