3EGT_722_A_3001


 28 28  0  0  0  0  0  0  0  0999 V2000
   28.3659  -15.9132   10.7354 C   0  0  0  0  0  0  0  0  0  0  0  0
   28.8656  -16.6332   11.9124 N   0  0  0  0  0  0  0  0  0  0  0  0
   28.4016  -17.8765   12.0527 C   0  0  0  0  0  0  0  0  0  0  0  0
   28.7899  -18.6800   13.1100 C   0  0  0  0  0  0  0  0  0  0  0  0
   29.7111  -18.1869   14.0424 C   0  0  0  0  0  0  0  0  0  0  0  0
   30.1996  -16.8943   13.8782 C   0  0  0  0  0  0  0  0  0  0  0  0
   29.7631  -16.1367   12.7807 C   0  0  0  0  0  0  0  0  0  0  0  0
   28.2564  -19.9363   13.1735 O   0  0  0  0  0  0  0  0  0  0  0  0
   28.7478  -20.8794   14.1282 C   0  0  0  0  0  0  0  0  0  0  0  0
   28.1034  -22.2380   13.9404 C   0  0  0  0  0  0  0  0  0  0  0  0
   29.2319  -23.2756   14.0997 C   0  0  0  0  0  0  0  0  0  0  0  0
   28.8106  -24.4410   14.9741 C   0  0  0  0  0  0  0  0  0  0  0  0
   29.1536  -24.2303   16.4333 C   0  0  0  0  0  0  0  0  0  0  0  0
   30.5104  -23.5626   16.5437 C   0  0  0  0  0  0  0  0  0  0  0  0
   31.4711  -24.3339   17.4191 C   0  0  0  0  0  0  0  0  0  0  0  0
   28.2129  -14.4123   10.9062 C   0  0  0  0  0  0  0  0  0  0  0  0
   28.6144  -14.1668    8.1165 O   0  0  0  0  0  0  0  0  0  0  0  0
   29.3184  -13.6889    9.6454 P   0  0  0  0  0  0  0  0  0  0  0  0
   30.8547  -14.5139    9.8895 O   0  0  0  0  0  0  0  0  0  0  0  0
   29.2403  -11.9542    9.9718 O   0  0  0  0  0  0  0  0  0  0  0  0
   28.6949  -15.1276    8.0098 H   0  0  0  0  0  0  0  0  0  0  0  0
   28.3421  -11.6324    9.7970 H   0  0  0  0  0  0  0  0  0  0  0  0
   26.5041  -13.8715   10.6096 P   0  0  0  0  0  0  0  0  0  0  0  0
   25.3993  -15.2168   11.0158 O   0  0  0  0  0  0  0  0  0  0  0  0
   26.2169  -13.2847    8.9716 O   0  0  0  0  0  0  0  0  0  0  0  0
   26.0657  -12.4975   11.6128 O   0  0  0  0  0  0  0  0  0  0  0  0
   25.5779  -15.5201   11.9197 H   0  0  0  0  0  0  0  0  0  0  0  0
   26.8280  -12.5569    8.7772 H   0  0  0  0  0  0  0  0  0  0  0  0
 17 18  1  0  0  0
 16 18  1  0  0  0
 19 18  2  0  0  0
 18 20  1  0  0  0
 23 16  1  0  0  0
 16  1  1  0  0  0
 26 23  2  0  0  0
 25 23  1  0  0  0
 24 23  1  0  0  0
  2  1  1  0  0  0
  3  2  2  0  0  0
  7  2  1  0  0  0
  4  3  1  0  0  0
  8  4  1  0  0  0
  5  4  2  0  0  0
  5  6  1  0  0  0
  6  7  2  0  0  0
  9  8  1  0  0  0
  9 10  1  0  0  0
 11 10  1  0  0  0
 12 11  1  0  0  0
 12 13  1  0  0  0
 14 13  1  0  0  0
 15 14  1  0  0  0
 17 21  1  0  0  0
 20 22  1  0  0  0
 24 27  1  0  0  0
 25 28  1  0  0  0
M  CHG 1   2   1
M  END
> <minimizedAffinity>
-9.41526

$$$$
3EGT_722_A_3001


 28 28  0  0  0  0  0  0  0  0999 V2000
   26.8949  -13.6473   11.2870 C   0  0  0  0  0  0  0  0  0  0  0  0
   27.9275  -14.4828   11.9108 N   0  0  0  0  0  0  0  0  0  0  0  0
   27.5436  -15.7253   12.2101 C   0  0  0  0  0  0  0  0  0  0  0  0
   28.4109  -16.6307   12.7950 C   0  0  0  0  0  0  0  0  0  0  0  0
   29.7310  -16.2434   13.0568 C   0  0  0  0  0  0  0  0  0  0  0  0
   30.1247  -14.9501   12.7270 C   0  0  0  0  0  0  0  0  0  0  0  0
   29.1918  -14.0857   12.1341 C   0  0  0  0  0  0  0  0  0  0  0  0
   27.9254  -17.8778   13.0710 O   0  0  0  0  0  0  0  0  0  0  0  0
   28.7613  -19.0263   12.9148 C   0  0  0  0  0  0  0  0  0  0  0  0
   29.0466  -19.6838   14.2499 C   0  0  0  0  0  0  0  0  0  0  0  0
   28.6906  -21.1739   14.0810 C   0  0  0  0  0  0  0  0  0  0  0  0
   28.9526  -21.9661   15.3474 C   0  0  0  0  0  0  0  0  0  0  0  0
   28.3944  -23.3717   15.2830 C   0  0  0  0  0  0  0  0  0  0  0  0
   29.3836  -24.3389   15.9035 C   0  0  0  0  0  0  0  0  0  0  0  0
   30.4394  -23.6431   16.7313 C   0  0  0  0  0  0  0  0  0  0  0  0
   25.8544  -14.3961   10.4735 C   0  0  0  0  0  0  0  0  0  0  0  0
   23.4579  -14.3059   11.9742 O   0  0  0  0  0  0  0  0  0  0  0  0
   24.3120  -13.4476   10.7111 P   0  0  0  0  0  0  0  0  0  0  0  0
   23.4583  -13.6155    9.1802 O   0  0  0  0  0  0  0  0  0  0  0  0
   24.8808  -11.8416   11.1789 O   0  0  0  0  0  0  0  0  0  0  0  0
   23.1788  -15.1740   11.6435 H   0  0  0  0  0  0  0  0  0  0  0  0
   25.3300  -11.8949   12.0369 H   0  0  0  0  0  0  0  0  0  0  0  0
   26.2836  -14.4408    8.7088 P   0  0  0  0  0  0  0  0  0  0  0  0
   26.3352  -12.7647    8.0896 O   0  0  0  0  0  0  0  0  0  0  0  0
   25.2060  -15.4447    7.7389 O   0  0  0  0  0  0  0  0  0  0  0  0
   27.8621  -15.1616    8.4340 O   0  0  0  0  0  0  0  0  0  0  0  0
   26.9335  -12.2351    8.6395 H   0  0  0  0  0  0  0  0  0  0  0  0
   25.1964  -16.3467    8.0954 H   0  0  0  0  0  0  0  0  0  0  0  0
 17 18  1  0  0  0
 16 18  1  0  0  0
 19 18  2  0  0  0
 18 20  1  0  0  0
 23 16  1  0  0  0
 16  1  1  0  0  0
 26 23  2  0  0  0
 25 23  1  0  0  0
 24 23  1  0  0  0
  2  1  1  0  0  0
  3  2  2  0  0  0
  7  2  1  0  0  0
  4  3  1  0  0  0
  8  4  1  0  0  0
  5  4  2  0  0  0
  5  6  1  0  0  0
  6  7  2  0  0  0
  9  8  1  0  0  0
  9 10  1  0  0  0
 11 10  1  0  0  0
 12 11  1  0  0  0
 12 13  1  0  0  0
 14 13  1  0  0  0
 15 14  1  0  0  0
 17 21  1  0  0  0
 20 22  1  0  0  0
 24 27  1  0  0  0
 25 28  1  0  0  0
M  CHG 1   2   1
M  END
> <minimizedAffinity>
-9.40808

$$$$
3EGT_722_A_3001


 28 28  0  0  0  0  0  0  0  0999 V2000
   26.6212  -14.6858   12.4368 C   0  0  0  0  0  0  0  0  0  0  0  0
   27.8397  -15.4396   12.7537 N   0  0  0  0  0  0  0  0  0  0  0  0
   27.7094  -16.7670   12.7113 C   0  0  0  0  0  0  0  0  0  0  0  0
   28.7744  -17.6086   12.9790 C   0  0  0  0  0  0  0  0  0  0  0  0
   30.0261  -17.0557   13.2771 C   0  0  0  0  0  0  0  0  0  0  0  0
   30.1541  -15.6703   13.3041 C   0  0  0  0  0  0  0  0  0  0  0  0
   29.0312  -14.8781   13.0203 C   0  0  0  0  0  0  0  0  0  0  0  0
   28.5431  -18.9539   12.9177 O   0  0  0  0  0  0  0  0  0  0  0  0
   28.9352  -19.8016   13.9994 C   0  0  0  0  0  0  0  0  0  0  0  0
   28.4300  -21.2163   13.7998 C   0  0  0  0  0  0  0  0  0  0  0  0
   28.6672  -21.9505   15.1341 C   0  0  0  0  0  0  0  0  0  0  0  0
   28.4343  -23.4438   15.0082 C   0  0  0  0  0  0  0  0  0  0  0  0
   29.2218  -24.2452   16.0226 C   0  0  0  0  0  0  0  0  0  0  0  0
   30.3526  -23.3972   16.5712 C   0  0  0  0  0  0  0  0  0  0  0  0
   31.4225  -24.2201   17.2511 C   0  0  0  0  0  0  0  0  0  0  0  0
   26.2287  -14.6684   10.9702 C   0  0  0  0  0  0  0  0  0  0  0  0
   25.2447  -12.0276   11.2183 O   0  0  0  0  0  0  0  0  0  0  0  0
   24.7049  -13.6635   10.9118 P   0  0  0  0  0  0  0  0  0  0  0  0
   23.7458  -14.2492   12.2674 O   0  0  0  0  0  0  0  0  0  0  0  0
   24.0927  -13.9334    9.2765 O   0  0  0  0  0  0  0  0  0  0  0  0
   25.5647  -11.9584   12.1314 H   0  0  0  0  0  0  0  0  0  0  0  0
   24.7162  -13.5626    8.6326 H   0  0  0  0  0  0  0  0  0  0  0  0
   27.5120  -13.9006    9.9387 P   0  0  0  0  0  0  0  0  0  0  0  0
   28.8231  -15.0876    9.6783 O   0  0  0  0  0  0  0  0  0  0  0  0
   28.1425  -12.3895   10.5933 O   0  0  0  0  0  0  0  0  0  0  0  0
   26.8947  -13.4308    8.3623 O   0  0  0  0  0  0  0  0  0  0  0  0
   28.4501  -15.9076    9.3187 H   0  0  0  0  0  0  0  0  0  0  0  0
   27.4124  -11.7645   10.7247 H   0  0  0  0  0  0  0  0  0  0  0  0
 17 18  1  0  0  0
 16 18  1  0  0  0
 19 18  2  0  0  0
 18 20  1  0  0  0
 23 16  1  0  0  0
 16  1  1  0  0  0
 26 23  2  0  0  0
 25 23  1  0  0  0
 24 23  1  0  0  0
  2  1  1  0  0  0
  3  2  2  0  0  0
  7  2  1  0  0  0
  4  3  1  0  0  0
  8  4  1  0  0  0
  5  4  2  0  0  0
  5  6  1  0  0  0
  6  7  2  0  0  0
  9  8  1  0  0  0
  9 10  1  0  0  0
 11 10  1  0  0  0
 12 11  1  0  0  0
 12 13  1  0  0  0
 14 13  1  0  0  0
 15 14  1  0  0  0
 17 21  1  0  0  0
 20 22  1  0  0  0
 24 27  1  0  0  0
 25 28  1  0  0  0
M  CHG 1   2   1
M  END
> <minimizedAffinity>
-8.97947

$$$$
3EGT_722_A_3001


 28 28  0  0  0  0  0  0  0  0999 V2000
   30.5027  -11.9387    7.7449 C   0  0  0  0  0  0  0  0  0  0  0  0
   29.7024  -12.8992    8.5132 N   0  0  0  0  0  0  0  0  0  0  0  0
   30.3001  -13.3895    9.6010 C   0  0  0  0  0  0  0  0  0  0  0  0
   29.6660  -14.2991   10.4285 C   0  0  0  0  0  0  0  0  0  0  0  0
   28.3561  -14.6967   10.1326 C   0  0  0  0  0  0  0  0  0  0  0  0
   27.7373  -14.1679    9.0039 C   0  0  0  0  0  0  0  0  0  0  0  0
   28.4403  -13.2481    8.2110 C   0  0  0  0  0  0  0  0  0  0  0  0
   30.3603  -14.7502   11.5154 O   0  0  0  0  0  0  0  0  0  0  0  0
   29.6628  -15.2512   12.6577 C   0  0  0  0  0  0  0  0  0  0  0  0
   29.9799  -16.7134   12.8974 C   0  0  0  0  0  0  0  0  0  0  0  0
   28.7080  -17.4975   12.5193 C   0  0  0  0  0  0  0  0  0  0  0  0
   28.7123  -18.8985   13.1002 C   0  0  0  0  0  0  0  0  0  0  0  0
   29.3730  -18.9646   14.4605 C   0  0  0  0  0  0  0  0  0  0  0  0
   29.2483  -20.3695   15.0169 C   0  0  0  0  0  0  0  0  0  0  0  0
   28.5226  -21.3065   14.0791 C   0  0  0  0  0  0  0  0  0  0  0  0
   30.4759  -12.1259    6.2384 C   0  0  0  0  0  0  0  0  0  0  0  0
   30.2065   -9.3761    6.8463 O   0  0  0  0  0  0  0  0  0  0  0  0
   30.7155  -10.4474    5.5599 P   0  0  0  0  0  0  0  0  0  0  0  0
   29.5845  -10.3574    4.2132 O   0  0  0  0  0  0  0  0  0  0  0  0
   32.4450  -10.3870    5.2041 O   0  0  0  0  0  0  0  0  0  0  0  0
   29.2503   -9.4655    6.9822 H   0  0  0  0  0  0  0  0  0  0  0  0
   32.9476  -10.4458    6.0316 H   0  0  0  0  0  0  0  0  0  0  0  0
   31.8142  -13.2157    5.6712 P   0  0  0  0  0  0  0  0  0  0  0  0
   33.2353  -12.9749    6.7286 O   0  0  0  0  0  0  0  0  0  0  0  0
   32.2396  -12.9973    3.9739 O   0  0  0  0  0  0  0  0  0  0  0  0
   31.3632  -14.9114    5.7589 O   0  0  0  0  0  0  0  0  0  0  0  0
   32.9744  -13.1005    7.6544 H   0  0  0  0  0  0  0  0  0  0  0  0
   31.4527  -13.1331    3.4233 H   0  0  0  0  0  0  0  0  0  0  0  0
 17 18  1  0  0  0
 16 18  1  0  0  0
 19 18  2  0  0  0
 18 20  1  0  0  0
 23 16  1  0  0  0
 16  1  1  0  0  0
 26 23  2  0  0  0
 25 23  1  0  0  0
 24 23  1  0  0  0
  2  1  1  0  0  0
  3  2  2  0  0  0
  7  2  1  0  0  0
  4  3  1  0  0  0
  8  4  1  0  0  0
  5  4  2  0  0  0
  5  6  1  0  0  0
  6  7  2  0  0  0
  9  8  1  0  0  0
  9 10  1  0  0  0
 11 10  1  0  0  0
 12 11  1  0  0  0
 12 13  1  0  0  0
 14 13  1  0  0  0
 15 14  1  0  0  0
 17 21  1  0  0  0
 20 22  1  0  0  0
 24 27  1  0  0  0
 25 28  1  0  0  0
M  CHG 1   2   1
M  END
> <minimizedAffinity>
-8.64970

$$$$
3EGT_722_A_3001


 28 28  0  0  0  0  0  0  0  0999 V2000
   29.9367  -12.8320    7.2609 C   0  0  0  0  0  0  0  0  0  0  0  0
   29.9528  -13.1628    8.6905 N   0  0  0  0  0  0  0  0  0  0  0  0
   29.1004  -14.1216    9.0578 C   0  0  0  0  0  0  0  0  0  0  0  0
   29.0088  -14.5456   10.3715 C   0  0  0  0  0  0  0  0  0  0  0  0
   29.8477  -13.9733   11.3359 C   0  0  0  0  0  0  0  0  0  0  0  0
   30.7430  -12.9846   10.9391 C   0  0  0  0  0  0  0  0  0  0  0  0
   30.7827  -12.6055    9.5887 C   0  0  0  0  0  0  0  0  0  0  0  0
   28.1021  -15.5283   10.6530 O   0  0  0  0  0  0  0  0  0  0  0  0
   28.2015  -16.2724   11.8690 C   0  0  0  0  0  0  0  0  0  0  0  0
   29.3021  -17.3110   11.7892 C   0  0  0  0  0  0  0  0  0  0  0  0
   30.0331  -17.2688   13.1455 C   0  0  0  0  0  0  0  0  0  0  0  0
   29.5513  -18.3594   14.0829 C   0  0  0  0  0  0  0  0  0  0  0  0
   28.8426  -19.4826   13.3567 C   0  0  0  0  0  0  0  0  0  0  0  0
   28.8189  -20.7185   14.2348 C   0  0  0  0  0  0  0  0  0  0  0  0
   29.4174  -20.4755   15.6011 C   0  0  0  0  0  0  0  0  0  0  0  0
   31.1988  -12.1763    6.7297 C   0  0  0  0  0  0  0  0  0  0  0  0
   31.6889  -12.7002    3.9930 O   0  0  0  0  0  0  0  0  0  0  0  0
   31.9086  -13.4045    5.5796 P   0  0  0  0  0  0  0  0  0  0  0  0
   30.8760  -14.8191    5.7629 O   0  0  0  0  0  0  0  0  0  0  0  0
   33.5944  -13.5283    6.0937 O   0  0  0  0  0  0  0  0  0  0  0  0
   30.7426  -12.6661    3.7826 H   0  0  0  0  0  0  0  0  0  0  0  0
   34.0432  -12.6828    5.9369 H   0  0  0  0  0  0  0  0  0  0  0  0
   30.8334  -10.6367    5.8370 P   0  0  0  0  0  0  0  0  0  0  0  0
   30.2821   -9.4097    7.0143 O   0  0  0  0  0  0  0  0  0  0  0  0
   29.6679  -10.8318    4.5282 O   0  0  0  0  0  0  0  0  0  0  0  0
   32.2520   -9.9968    5.0217 O   0  0  0  0  0  0  0  0  0  0  0  0
   30.9397   -9.3222    7.7220 H   0  0  0  0  0  0  0  0  0  0  0  0
   29.9905  -11.5015    3.9051 H   0  0  0  0  0  0  0  0  0  0  0  0
 17 18  1  0  0  0
 16 18  1  0  0  0
 19 18  2  0  0  0
 18 20  1  0  0  0
 23 16  1  0  0  0
 16  1  1  0  0  0
 26 23  2  0  0  0
 25 23  1  0  0  0
 24 23  1  0  0  0
  2  1  1  0  0  0
  3  2  2  0  0  0
  7  2  1  0  0  0
  4  3  1  0  0  0
  8  4  1  0  0  0
  5  4  2  0  0  0
  5  6  1  0  0  0
  6  7  2  0  0  0
  9  8  1  0  0  0
  9 10  1  0  0  0
 11 10  1  0  0  0
 12 11  1  0  0  0
 12 13  1  0  0  0
 14 13  1  0  0  0
 15 14  1  0  0  0
 17 21  1  0  0  0
 20 22  1  0  0  0
 24 27  1  0  0  0
 25 28  1  0  0  0
M  CHG 1   2   1
M  END
> <minimizedAffinity>
-8.61624

$$$$
3EGT_722_A_3001


 28 28  0  0  0  0  0  0  0  0999 V2000
   28.6933  -14.5582    9.2349 C   0  0  0  0  0  0  0  0  0  0  0  0
   28.1246  -15.0846   10.4810 N   0  0  0  0  0  0  0  0  0  0  0  0
   28.6245  -16.2560   10.8791 C   0  0  0  0  0  0  0  0  0  0  0  0
   28.1913  -16.8720   12.0398 C   0  0  0  0  0  0  0  0  0  0  0  0
   27.2230  -16.2401   12.8300 C   0  0  0  0  0  0  0  0  0  0  0  0
   26.7193  -15.0118   12.4129 C   0  0  0  0  0  0  0  0  0  0  0  0
   27.2065  -14.4449   11.2254 C   0  0  0  0  0  0  0  0  0  0  0  0
   28.7569  -18.0732   12.3625 O   0  0  0  0  0  0  0  0  0  0  0  0
   29.1594  -18.3410   13.7074 C   0  0  0  0  0  0  0  0  0  0  0  0
   29.0139  -19.8118   14.0419 C   0  0  0  0  0  0  0  0  0  0  0  0
   29.4706  -19.9677   15.5057 C   0  0  0  0  0  0  0  0  0  0  0  0
   29.3313  -21.3969   15.9935 C   0  0  0  0  0  0  0  0  0  0  0  0
   28.8939  -22.3473   14.8996 C   0  0  0  0  0  0  0  0  0  0  0  0
   28.8238  -23.7578   15.4516 C   0  0  0  0  0  0  0  0  0  0  0  0
   30.0067  -24.1015   16.3271 C   0  0  0  0  0  0  0  0  0  0  0  0
   30.1657  -14.1924    9.2941 C   0  0  0  0  0  0  0  0  0  0  0  0
   29.2824  -12.3178    7.3681 O   0  0  0  0  0  0  0  0  0  0  0  0
   30.5377  -13.5052    7.6435 P   0  0  0  0  0  0  0  0  0  0  0  0
   30.3327  -14.8689    6.5486 O   0  0  0  0  0  0  0  0  0  0  0  0
   32.1561  -12.8224    7.8339 O   0  0  0  0  0  0  0  0  0  0  0  0
   28.4277  -12.7667    7.2742 H   0  0  0  0  0  0  0  0  0  0  0  0
   32.1235  -12.0832    8.4612 H   0  0  0  0  0  0  0  0  0  0  0  0
   30.4984  -12.9428   10.5702 P   0  0  0  0  0  0  0  0  0  0  0  0
   29.4539  -11.5240   10.2679 O   0  0  0  0  0  0  0  0  0  0  0  0
   32.1942  -12.4725   10.6815 O   0  0  0  0  0  0  0  0  0  0  0  0
   30.1384  -13.5384   12.1834 O   0  0  0  0  0  0  0  0  0  0  0  0
   28.5287  -11.8098   10.2112 H   0  0  0  0  0  0  0  0  0  0  0  0
   32.7378  -13.2590   10.8454 H   0  0  0  0  0  0  0  0  0  0  0  0
 17 18  1  0  0  0
 16 18  1  0  0  0
 19 18  2  0  0  0
 18 20  1  0  0  0
 23 16  1  0  0  0
 16  1  1  0  0  0
 26 23  2  0  0  0
 25 23  1  0  0  0
 24 23  1  0  0  0
  2  1  1  0  0  0
  3  2  2  0  0  0
  7  2  1  0  0  0
  4  3  1  0  0  0
  8  4  1  0  0  0
  5  4  2  0  0  0
  5  6  1  0  0  0
  6  7  2  0  0  0
  9  8  1  0  0  0
  9 10  1  0  0  0
 11 10  1  0  0  0
 12 11  1  0  0  0
 12 13  1  0  0  0
 14 13  1  0  0  0
 15 14  1  0  0  0
 17 21  1  0  0  0
 20 22  1  0  0  0
 24 27  1  0  0  0
 25 28  1  0  0  0
M  CHG 1   2   1
M  END
> <minimizedAffinity>
-8.27190

$$$$
3EGT_722_A_3001


 28 28  0  0  0  0  0  0  0  0999 V2000
   28.5985  -15.5380   12.7793 C   0  0  0  0  0  0  0  0  0  0  0  0
   28.8250  -16.7392   13.5912 N   0  0  0  0  0  0  0  0  0  0  0  0
   28.5691  -17.8943   12.9739 C   0  0  0  0  0  0  0  0  0  0  0  0
   28.7438  -19.1103   13.6102 C   0  0  0  0  0  0  0  0  0  0  0  0
   29.2245  -19.1321   14.9254 C   0  0  0  0  0  0  0  0  0  0  0  0
   29.5020  -17.9222   15.5544 C   0  0  0  0  0  0  0  0  0  0  0  0
   29.3030  -16.7268   14.8471 C   0  0  0  0  0  0  0  0  0  0  0  0
   28.4494  -20.2396   12.8995 O   0  0  0  0  0  0  0  0  0  0  0  0
   27.7606  -21.3244   13.5248 C   0  0  0  0  0  0  0  0  0  0  0  0
   28.6788  -22.5120   13.7318 C   0  0  0  0  0  0  0  0  0  0  0  0
   28.3386  -23.0819   15.1229 C   0  0  0  0  0  0  0  0  0  0  0  0
   29.0146  -22.3031   16.2350 C   0  0  0  0  0  0  0  0  0  0  0  0
   29.5710  -23.1991   17.3207 C   0  0  0  0  0  0  0  0  0  0  0  0
   30.3761  -24.3189   16.6908 C   0  0  0  0  0  0  0  0  0  0  0  0
   31.7346  -24.4921   17.3298 C   0  0  0  0  0  0  0  0  0  0  0  0
   27.6824  -15.7234   11.5828 C   0  0  0  0  0  0  0  0  0  0  0  0
   26.7582  -13.1072   12.1349 O   0  0  0  0  0  0  0  0  0  0  0  0
   26.1885  -14.7552   11.9903 P   0  0  0  0  0  0  0  0  0  0  0  0
   25.6917  -15.3651   13.5657 O   0  0  0  0  0  0  0  0  0  0  0  0
   25.1219  -15.0380   10.6105 O   0  0  0  0  0  0  0  0  0  0  0  0
   27.3348  -13.0313   12.9113 H   0  0  0  0  0  0  0  0  0  0  0  0
   25.5160  -14.6517    9.8127 H   0  0  0  0  0  0  0  0  0  0  0  0
   28.4316  -15.0854   10.0557 P   0  0  0  0  0  0  0  0  0  0  0  0
   27.5156  -15.7227    8.6592 O   0  0  0  0  0  0  0  0  0  0  0  0
   30.1521  -15.4408    9.9040 O   0  0  0  0  0  0  0  0  0  0  0  0
   28.3738  -13.3312    9.9780 O   0  0  0  0  0  0  0  0  0  0  0  0
   26.5745  -15.5141    8.7674 H   0  0  0  0  0  0  0  0  0  0  0  0
   30.6248  -15.0850   10.6727 H   0  0  0  0  0  0  0  0  0  0  0  0
 17 18  1  0  0  0
 16 18  1  0  0  0
 19 18  2  0  0  0
 18 20  1  0  0  0
 23 16  1  0  0  0
 16  1  1  0  0  0
 26 23  2  0  0  0
 25 23  1  0  0  0
 24 23  1  0  0  0
  2  1  1  0  0  0
  3  2  2  0  0  0
  7  2  1  0  0  0
  4  3  1  0  0  0
  8  4  1  0  0  0
  5  4  2  0  0  0
  5  6  1  0  0  0
  6  7  2  0  0  0
  9  8  1  0  0  0
  9 10  1  0  0  0
 11 10  1  0  0  0
 12 11  1  0  0  0
 12 13  1  0  0  0
 14 13  1  0  0  0
 15 14  1  0  0  0
 17 21  1  0  0  0
 20 22  1  0  0  0
 24 27  1  0  0  0
 25 28  1  0  0  0
M  CHG 1   2   1
M  END
> <minimizedAffinity>
-7.68676

$$$$
3EGT_722_A_3001


 28 28  0  0  0  0  0  0  0  0999 V2000
   29.3506  -14.7022   11.7270 C   0  0  0  0  0  0  0  0  0  0  0  0
   29.2178  -16.1435   11.9691 N   0  0  0  0  0  0  0  0  0  0  0  0
   29.3533  -16.5168   13.2430 C   0  0  0  0  0  0  0  0  0  0  0  0
   29.2456  -17.8421   13.6252 C   0  0  0  0  0  0  0  0  0  0  0  0
   28.9627  -18.8133   12.6566 C   0  0  0  0  0  0  0  0  0  0  0  0
   28.8087  -18.4108   11.3334 C   0  0  0  0  0  0  0  0  0  0  0  0
   28.9296  -17.0487   11.0186 C   0  0  0  0  0  0  0  0  0  0  0  0
   29.4061  -18.1288   14.9515 O   0  0  0  0  0  0  0  0  0  0  0  0
   30.0531  -19.3381   15.3532 C   0  0  0  0  0  0  0  0  0  0  0  0
   29.0454  -20.3790   15.7973 C   0  0  0  0  0  0  0  0  0  0  0  0
   29.1513  -21.5390   14.7879 C   0  0  0  0  0  0  0  0  0  0  0  0
   27.9513  -22.4636   14.8593 C   0  0  0  0  0  0  0  0  0  0  0  0
   28.2860  -23.8090   15.4670 C   0  0  0  0  0  0  0  0  0  0  0  0
   29.7791  -23.8954   15.7161 C   0  0  0  0  0  0  0  0  0  0  0  0
   30.1163  -24.1077   17.1740 C   0  0  0  0  0  0  0  0  0  0  0  0
   29.5144  -14.2981   10.2727 C   0  0  0  0  0  0  0  0  0  0  0  0
   26.8464  -15.0579    9.7171 O   0  0  0  0  0  0  0  0  0  0  0  0
   27.8787  -13.6469    9.7872 P   0  0  0  0  0  0  0  0  0  0  0  0
   28.1313  -12.9998    8.1691 O   0  0  0  0  0  0  0  0  0  0  0  0
   27.4800  -12.5173   11.0860 O   0  0  0  0  0  0  0  0  0  0  0  0
   27.1260  -15.6269    8.9830 H   0  0  0  0  0  0  0  0  0  0  0  0
   27.3689  -13.0059   11.9166 H   0  0  0  0  0  0  0  0  0  0  0  0
   30.7757  -13.0064   10.0705 P   0  0  0  0  0  0  0  0  0  0  0  0
   29.9834  -11.4087   10.1924 O   0  0  0  0  0  0  0  0  0  0  0  0
   31.7034  -13.1443    8.5772 O   0  0  0  0  0  0  0  0  0  0  0  0
   32.0080  -13.0894   11.3199 O   0  0  0  0  0  0  0  0  0  0  0  0
   29.4810  -11.3593   11.0207 H   0  0  0  0  0  0  0  0  0  0  0  0
   32.1220  -14.0184    8.5362 H   0  0  0  0  0  0  0  0  0  0  0  0
 17 18  1  0  0  0
 16 18  1  0  0  0
 19 18  2  0  0  0
 18 20  1  0  0  0
 23 16  1  0  0  0
 16  1  1  0  0  0
 26 23  2  0  0  0
 25 23  1  0  0  0
 24 23  1  0  0  0
  2  1  1  0  0  0
  3  2  2  0  0  0
  7  2  1  0  0  0
  4  3  1  0  0  0
  8  4  1  0  0  0
  5  4  2  0  0  0
  5  6  1  0  0  0
  6  7  2  0  0  0
  9  8  1  0  0  0
  9 10  1  0  0  0
 11 10  1  0  0  0
 12 11  1  0  0  0
 12 13  1  0  0  0
 14 13  1  0  0  0
 15 14  1  0  0  0
 17 21  1  0  0  0
 20 22  1  0  0  0
 24 27  1  0  0  0
 25 28  1  0  0  0
M  CHG 1   2   1
M  END
> <minimizedAffinity>
-7.46779

$$$$
3EGT_722_A_3001


 28 28  0  0  0  0  0  0  0  0999 V2000
   28.8064  -14.4551    7.9429 C   0  0  0  0  0  0  0  0  0  0  0  0
   27.5477  -14.3236    8.6856 N   0  0  0  0  0  0  0  0  0  0  0  0
   27.6736  -14.3217   10.0141 C   0  0  0  0  0  0  0  0  0  0  0  0
   26.5752  -14.1972   10.8460 C   0  0  0  0  0  0  0  0  0  0  0  0
   25.3027  -14.0441   10.2817 C   0  0  0  0  0  0  0  0  0  0  0  0
   25.1847  -14.0328    8.8952 C   0  0  0  0  0  0  0  0  0  0  0  0
   26.3426  -14.1621    8.1132 C   0  0  0  0  0  0  0  0  0  0  0  0
   26.8023  -14.2125   12.1933 O   0  0  0  0  0  0  0  0  0  0  0  0
   27.1915  -15.4240   12.8439 C   0  0  0  0  0  0  0  0  0  0  0  0
   28.5815  -15.3078   13.4358 C   0  0  0  0  0  0  0  0  0  0  0  0
   29.4431  -16.3687   12.7232 C   0  0  0  0  0  0  0  0  0  0  0  0
   29.8665  -17.4801   13.6643 C   0  0  0  0  0  0  0  0  0  0  0  0
   29.0076  -18.7191   13.5288 C   0  0  0  0  0  0  0  0  0  0  0  0
   29.3199  -19.6787   14.6604 C   0  0  0  0  0  0  0  0  0  0  0  0
   28.7473  -21.0584   14.4307 C   0  0  0  0  0  0  0  0  0  0  0  0
   29.5803  -13.1648    7.7388 C   0  0  0  0  0  0  0  0  0  0  0  0
   32.3060  -12.7079    8.3433 O   0  0  0  0  0  0  0  0  0  0  0  0
   30.7894  -13.1300    9.1070 P   0  0  0  0  0  0  0  0  0  0  0  0
   30.8428  -14.7934    9.6822 O   0  0  0  0  0  0  0  0  0  0  0  0
   30.1515  -11.8905   10.1926 O   0  0  0  0  0  0  0  0  0  0  0  0
   32.5903  -13.4336    7.7660 H   0  0  0  0  0  0  0  0  0  0  0  0
   30.1805  -11.0276    9.7506 H   0  0  0  0  0  0  0  0  0  0  0  0
   30.4532  -13.1478    6.1456 P   0  0  0  0  0  0  0  0  0  0  0  0
   31.3090  -11.5874    5.9785 O   0  0  0  0  0  0  0  0  0  0  0  0
   29.4087  -13.4526    4.7579 O   0  0  0  0  0  0  0  0  0  0  0  0
   31.6505  -14.4290    6.0382 O   0  0  0  0  0  0  0  0  0  0  0  0
   31.8752  -11.4446    6.7531 H   0  0  0  0  0  0  0  0  0  0  0  0
   28.9573  -14.3034    4.8736 H   0  0  0  0  0  0  0  0  0  0  0  0
 17 18  1  0  0  0
 16 18  1  0  0  0
 19 18  2  0  0  0
 18 20  1  0  0  0
 23 16  1  0  0  0
 16  1  1  0  0  0
 26 23  2  0  0  0
 25 23  1  0  0  0
 24 23  1  0  0  0
  2  1  1  0  0  0
  3  2  2  0  0  0
  7  2  1  0  0  0
  4  3  1  0  0  0
  8  4  1  0  0  0
  5  4  2  0  0  0
  5  6  1  0  0  0
  6  7  2  0  0  0
  9  8  1  0  0  0
  9 10  1  0  0  0
 11 10  1  0  0  0
 12 11  1  0  0  0
 12 13  1  0  0  0
 14 13  1  0  0  0
 15 14  1  0  0  0
 17 21  1  0  0  0
 20 22  1  0  0  0
 24 27  1  0  0  0
 25 28  1  0  0  0
M  CHG 1   2   1
M  END
> <minimizedAffinity>
-7.40830

$$$$
3EGT_722_A_3001


 28 28  0  0  0  0  0  0  0  0999 V2000
   27.9585  -16.0533   11.5396 C   0  0  0  0  0  0  0  0  0  0  0  0
   28.4477  -16.8082   12.6991 N   0  0  0  0  0  0  0  0  0  0  0  0
   28.3962  -18.1355   12.5712 C   0  0  0  0  0  0  0  0  0  0  0  0
   28.8302  -18.9781   13.5790 C   0  0  0  0  0  0  0  0  0  0  0  0
   29.3599  -18.4263   14.7522 C   0  0  0  0  0  0  0  0  0  0  0  0
   29.4224  -17.0410   14.8688 C   0  0  0  0  0  0  0  0  0  0  0  0
   28.9656  -16.2478   13.8053 C   0  0  0  0  0  0  0  0  0  0  0  0
   28.7321  -20.3231   13.3595 O   0  0  0  0  0  0  0  0  0  0  0  0
   28.7522  -21.2352   14.4595 C   0  0  0  0  0  0  0  0  0  0  0  0
   27.7462  -22.3519   14.2658 C   0  0  0  0  0  0  0  0  0  0  0  0
   28.2671  -23.5478   15.0868 C   0  0  0  0  0  0  0  0  0  0  0  0
   29.5924  -23.2406   15.7571 C   0  0  0  0  0  0  0  0  0  0  0  0
   30.2287  -24.4641   16.3811 C   0  0  0  0  0  0  0  0  0  0  0  0
   31.4886  -24.0588   17.1210 C   0  0  0  0  0  0  0  0  0  0  0  0
   31.6337  -24.7578   18.4531 C   0  0  0  0  0  0  0  0  0  0  0  0
   29.0111  -15.2563   10.7899 C   0  0  0  0  0  0  0  0  0  0  0  0
   29.4895  -14.2712    8.1814 O   0  0  0  0  0  0  0  0  0  0  0  0
   28.1823  -14.7305    9.2498 P   0  0  0  0  0  0  0  0  0  0  0  0
   27.2549  -13.3090    9.7188 O   0  0  0  0  0  0  0  0  0  0  0  0
   27.2993  -16.1737    8.7407 O   0  0  0  0  0  0  0  0  0  0  0  0
   29.9238  -13.4751    8.5255 H   0  0  0  0  0  0  0  0  0  0  0  0
   27.9296  -16.8748    8.5126 H   0  0  0  0  0  0  0  0  0  0  0  0
   29.5466  -13.7966   11.7296 P   0  0  0  0  0  0  0  0  0  0  0  0
   29.8653  -12.4629   10.5828 O   0  0  0  0  0  0  0  0  0  0  0  0
   30.9415  -14.0903   12.7677 O   0  0  0  0  0  0  0  0  0  0  0  0
   28.3136  -13.2509   12.8559 O   0  0  0  0  0  0  0  0  0  0  0  0
   29.0841  -12.3224   10.0252 H   0  0  0  0  0  0  0  0  0  0  0  0
   30.7425  -14.8168   13.3788 H   0  0  0  0  0  0  0  0  0  0  0  0
 17 18  1  0  0  0
 16 18  1  0  0  0
 19 18  2  0  0  0
 18 20  1  0  0  0
 23 16  1  0  0  0
 16  1  1  0  0  0
 26 23  2  0  0  0
 25 23  1  0  0  0
 24 23  1  0  0  0
  2  1  1  0  0  0
  3  2  2  0  0  0
  7  2  1  0  0  0
  4  3  1  0  0  0
  8  4  1  0  0  0
  5  4  2  0  0  0
  5  6  1  0  0  0
  6  7  2  0  0  0
  9  8  1  0  0  0
  9 10  1  0  0  0
 11 10  1  0  0  0
 12 11  1  0  0  0
 12 13  1  0  0  0
 14 13  1  0  0  0
 15 14  1  0  0  0
 17 21  1  0  0  0
 20 22  1  0  0  0
 24 27  1  0  0  0
 25 28  1  0  0  0
M  CHG 1   2   1
M  END
> <minimizedAffinity>
-7.28498

$$$$
