3EGT_722_A_3001
  RCSB PDB12061708273D
Coordinates from PDB:3EGT:A:3001 Model:1 without hydrogens
 24 24  0  0  0  0            999 V2000
   25.4670  -12.5960    7.8980   O 0  0  0  0  0  0  0  0  0  0  0  0
   26.3160  -14.1170    8.0630   P 0  0  0  0  0  0  0  0  0  0  0  0
   25.1690  -15.4530    8.0760   O 0  0  0  0  0  0  0  0  0  0  0  0
   27.7550  -14.2610    7.0480   O 0  0  0  0  0  0  0  0  0  0  0  0
   26.9900  -14.0850    9.7600   C 0  0  0  0  0  0  0  0  0  0  0  0
   25.6350  -13.9070   10.9570   P 0  0  0  0  0  0  0  0  0  0  0  0
   24.5940  -12.5470   10.4450   O 0  0  0  0  0  0  0  0  0  0  0  0
   26.1780  -13.7010   12.6220   O 0  0  0  0  0  0  0  0  0  0  0  0
   24.6330  -15.3480   11.0350   O 0  0  0  0  0  0  0  0  0  0  0  0
   27.7060  -15.4150    9.9140   C 0  0  0  0  0  0  0  0  0  0  0  0
   28.3270  -15.6480   11.2230   N 0  3  0  0  0  0  0  0  0  0  0  0
   28.2790  -16.9100   11.6540   C 0  0  0  0  0  0  0  0  0  0  0  0
   28.8300  -17.2830   12.8670   C 0  0  0  0  0  0  0  0  0  0  0  0
   29.4760  -16.3190   13.6510   C 0  0  0  0  0  0  0  0  0  0  0  0
   29.5330  -15.0090   13.1850   C 0  0  0  0  0  0  0  0  0  0  0  0
   28.9540  -14.7030   11.9440   C 0  0  0  0  0  0  0  0  0  0  0  0
   28.7260  -18.5970   13.2270   O 0  0  0  0  0  0  0  0  0  0  0  0
   29.3090  -19.0570   14.4480   C 0  0  0  0  0  0  0  0  0  0  0  0
   28.9900  -20.5180   14.6930   C 0  0  0  0  0  0  0  0  0  0  0  0
   29.8090  -20.9360   15.9300   C 0  0  0  0  0  0  0  0  0  0  0  0
   29.3340  -22.2570   16.5040   C 0  0  0  0  0  0  0  0  0  0  0  0
   29.1570  -23.3240   15.4450   C 0  0  0  0  0  0  0  0  0  0  0  0
   27.8010  -23.9820   15.6100   C 0  0  0  0  0  0  0  0  0  0  0  0
   27.8760  -25.4910   15.5730   C 0  0  0  0  0  0  0  0  0  0  0  0
  1  2  1  0  0  0  0
  5  2  1  0  0  0  0
  3  2  2  0  0  0  0
  2  4  1  0  0  0  0
  6  5  1  0  0  0  0
  5 10  1  0  0  0  0
  9  6  2  0  0  0  0
  8  6  1  0  0  0  0
  7  6  1  0  0  0  0
 11 10  1  0  0  0  0
 12 11  2  0  0  0  0
 16 11  1  0  0  0  0
 13 12  1  0  0  0  0
 17 13  1  0  0  0  0
 14 13  2  0  0  0  0
 14 15  1  0  0  0  0
 15 16  2  0  0  0  0
 18 17  1  0  0  0  0
 18 19  1  0  0  0  0
 20 19  1  0  0  0  0
 21 20  1  0  0  0  0
 21 22  1  0  0  0  0
 23 22  1  0  0  0  0
 24 23  1  0  0  0  0
M  CHG  1  11   1
A    1
O1
A    2
P1
A    3
O3
A    4
O2
A    5
C1
A    6
P2
A    7
O4
A    8
O5
A    9
O6
A   10
C2
A   11
N1
A   12
C7
A   13
C6
A   14
C5
A   15
C4
A   16
C3
A   17
O7
A   18
C8
A   19
C9
A   20
C10
A   21
C11
A   22
C12
A   23
C13
A   24
C14
M  END
>  <InstanceId>
3EGT_722_A_3001

>  <ChemCompId>
722

>  <PdbId>
3EGT

>  <ChainId>
A

>  <ResidueNumber>
3001

>  <InsertionCode>


>  <Model>
1

>  <AltIds>


>  <MissingHeavyAtoms>
0

>  <ObservedFormula>
C14 N O7 P2

>  <Name>
1-(2,2-diphosphonoethyl)-3-(heptyloxy)pyridinium

>  <SystematicName>
[2-(3-heptoxypyridin-1-ium-1-yl)-1-phosphono-ethyl]phosphonic acid

>  <Synonyms>


>  <Type>
NON-POLYMER

>  <Formula>
C14 H26 N O7 P2

>  <MolecularWeight>
382.306

>  <ModifiedDate>
2011-06-04

>  <Parent>


>  <OneLetterCode>


>  <SubcomponentList>


>  <AmbiguousFlag>
N

>  <InChI>
InChI=1S/C14H25NO7P2/c1-2-3-4-5-6-10-22-13-8-7-9-15(11-13)12-14(23(16,17)18)24(19,20)21/h7-9,11,14H,2-6,10,12H2,1H3,(H3-,16,17,18,19,20,21)/p+1

>  <InChIKey>
MGVNBEXLLNDMNR-UHFFFAOYSA-O

>  <SMILES>
CCCCCCCOc1ccc[n+](c1)CC(P(=O)(O)O)P(=O)(O)O

$$$$
