5JFU_6KQ_B_201


 48 54  0  0  0  0  0  0  0  0999 V2000
   14.9081   22.0679   16.9042 C   0  0  0  0  0  0  0  0  0  0  0  0
   14.4105   19.8371   17.8604 C   0  0  0  0  0  0  0  0  0  0  0  0
   14.0007   21.0222   17.3797 N   0  0  0  0  0  0  0  0  0  0  0  0
   15.5848   19.5097   17.9443 O   0  0  0  0  0  0  0  0  0  0  0  0
   13.0327   21.1982   17.3452 H   0  0  0  0  0  0  0  0  0  0  0  0
   13.4158   19.0223   18.2858 O   0  0  0  0  0  0  0  0  0  0  0  0
   10.3959   17.9950   19.3244 O   0  0  0  0  0  0  0  0  0  0  0  0
   10.8806   17.8869   17.9929 C   0  0  0  0  0  0  0  0  0  0  0  0
   11.9913   16.8296   18.0696 C   0  0  0  0  0  0  0  0  0  0  0  0
   12.6027   17.0920   19.4492 C   0  0  0  0  0  0  0  0  0  0  0  0
   13.7297   18.1368   19.3692 C   0  0  0  0  0  0  0  0  0  0  0  0
   13.4459   18.9102   20.6715 C   0  0  0  0  0  0  0  0  0  0  0  0
   12.0151   19.0330   20.6750 O   0  0  0  0  0  0  0  0  0  0  0  0
   11.4911   17.7847   20.2183 C   0  0  0  0  0  0  0  0  0  0  0  0
   15.2706   23.0188   18.0498 C   0  0  0  0  0  0  0  0  0  0  0  0
   14.0976   23.5707   18.6485 O   0  0  0  0  0  0  0  0  0  0  0  0
   13.6171   24.0985   17.9917 H   0  0  0  0  0  0  0  0  0  0  0  0
   16.1856   24.1627   17.5787 C   0  0  0  0  0  0  0  0  0  0  0  0
   17.5668   23.8439   17.9052 N   0  0  0  0  0  0  0  0  0  0  0  0
   19.6293   22.7034   16.9704 O   0  0  0  0  0  0  0  0  0  0  0  0
   18.5417   23.6611   16.5980 S   0  0  0  0  0  0  0  0  0  0  0  0
   17.7350   23.1726   15.4340 O   0  0  0  0  0  0  0  0  0  0  0  0
   20.4185   27.6016   15.4617 C   0  0  0  0  0  0  0  0  0  0  0  0
   18.8623   25.8210   14.9924 C   0  0  0  0  0  0  0  0  0  0  0  0
   20.3269   25.6953   16.9199 C   0  0  0  0  0  0  0  0  0  0  0  0
   20.9184   26.9121   16.5682 C   0  0  0  0  0  0  0  0  0  0  0  0
   19.3908   27.0688   14.6877 C   0  0  0  0  0  0  0  0  0  0  0  0
   19.2583   25.2083   16.1777 C   0  0  0  0  0  0  0  0  0  0  0  0
   20.9487   28.7972   15.0952 O   0  0  0  0  0  0  0  0  0  0  0  0
   22.3732   28.7788   15.0981 C   0  0  0  0  0  0  0  0  0  0  0  0
   18.1777   24.6088   18.9626 C   0  0  0  0  0  0  0  0  0  0  0  0
   19.9632   24.1613   20.7107 C   0  0  0  0  0  0  0  0  0  0  0  0
   20.6065   23.3323   21.6234 C   0  0  0  0  0  0  0  0  0  0  0  0
   20.1486   22.0412   21.8457 C   0  0  0  0  0  0  0  0  0  0  0  0
   19.0115   21.6043   21.1697 C   0  0  0  0  0  0  0  0  0  0  0  0
   18.3759   22.4267   20.2466 C   0  0  0  0  0  0  0  0  0  0  0  0
   18.8522   23.7081   20.0052 C   0  0  0  0  0  0  0  0  0  0  0  0
   14.1536   22.7968   15.7773 C   0  0  0  0  0  0  0  0  0  0  0  0
   14.1496   22.1938   14.3657 C   0  0  0  0  0  0  0  0  0  0  0  0
   12.7192   22.0358   13.8879 C   0  0  0  0  0  0  0  0  0  0  0  0
   12.7232   21.4397   12.4775 C   0  0  0  0  0  0  0  0  0  0  0  0
   13.4719   20.0980   12.4631 C   0  0  0  0  0  0  0  0  0  0  0  0
   14.9069   20.2716   12.9547 C   0  0  0  0  0  0  0  0  0  0  0  0
   15.6377   21.2459   12.0270 C   0  0  0  0  0  0  0  0  0  0  0  0
   14.8948   22.5811   12.0155 C   0  0  0  0  0  0  0  0  0  0  0  0
   14.8847   23.1681   13.4312 C   0  0  0  0  0  0  0  0  0  0  0  0
   14.8758   20.8545   14.3741 C   0  0  0  0  0  0  0  0  0  0  0  0
   13.4473   22.4196   11.5390 C   0  0  0  0  0  0  0  0  0  0  0  0
 44 45  1  0  0  0
 44 43  1  0  0  0
 45 48  1  0  0  0
 45 46  1  0  0  0
 48 41  1  0  0  0
 46 39  1  0  0  0
 43 42  1  0  0  0
 43 47  1  0  0  0
 42 41  1  0  0  0
 41 40  1  0  0  0
 47 39  1  0  0  0
 39 40  1  0  0  0
 39 38  1  0  0  0
 27 24  2  0  0  0
 27 23  1  0  0  0
 29 23  1  0  0  0
 29 30  1  0  0  0
 24 28  1  0  0  0
 23 26  2  0  0  0
 22 21  2  0  0  0
 26 25  1  0  0  0
 38  1  1  0  0  0
 28 25  2  0  0  0
 28 21  1  0  0  0
 21 20  2  0  0  0
 21 19  1  0  0  0
  1  3  1  0  0  0
  1 15  1  0  0  0
  9  8  1  0  0  0
  9 10  1  0  0  0
 18 19  1  0  0  0
 18 15  1  0  0  0
  8  7  1  0  0  0
 19 31  1  0  0  0
  3  2  1  0  0  0
 15 16  1  0  0  0
  4  2  2  0  0  0
  2  6  1  0  0  0
 10 11  1  0  0  0
 10 14  1  0  0  0
  7 14  1  0  0  0
 31 37  1  0  0  0
  6 11  1  0  0  0
 11 12  1  0  0  0
 14 13  1  0  0  0
 37 36  2  0  0  0
 37 32  1  0  0  0
 36 35  1  0  0  0
 32 33  2  0  0  0
 13 12  1  0  0  0
 35 34  2  0  0  0
 33 34  1  0  0  0
 16 17  1  0  0  0
  3  5  1  0  0  0
M  END
> <minimizedAffinity>
-11.48863

$$$$
5JFU_6KQ_B_201


 48 54  0  0  0  0  0  0  0  0999 V2000
   15.0616   21.9221   17.0314 C   0  0  0  0  0  0  0  0  0  0  0  0
   14.5203   19.6800   17.9358 C   0  0  0  0  0  0  0  0  0  0  0  0
   14.1345   20.8566   17.4161 N   0  0  0  0  0  0  0  0  0  0  0  0
   15.6874   19.3778   18.1353 O   0  0  0  0  0  0  0  0  0  0  0  0
   13.1710   21.0118   17.2862 H   0  0  0  0  0  0  0  0  0  0  0  0
   13.5063   18.8435   18.2619 O   0  0  0  0  0  0  0  0  0  0  0  0
   10.3888   18.0517   19.2149 O   0  0  0  0  0  0  0  0  0  0  0  0
   10.9153   17.8614   17.9088 C   0  0  0  0  0  0  0  0  0  0  0  0
   11.9511   16.7393   18.0682 C   0  0  0  0  0  0  0  0  0  0  0  0
   12.5258   17.0154   19.4608 C   0  0  0  0  0  0  0  0  0  0  0  0
   13.7207   17.9823   19.3883 C   0  0  0  0  0  0  0  0  0  0  0  0
   13.4390   18.8221   20.6494 C   0  0  0  0  0  0  0  0  0  0  0  0
   12.0202   19.0359   20.5909 O   0  0  0  0  0  0  0  0  0  0  0  0
   11.4336   17.8068   20.1591 C   0  0  0  0  0  0  0  0  0  0  0  0
   15.4300   22.7728   18.2515 C   0  0  0  0  0  0  0  0  0  0  0  0
   14.2604   23.2780   18.8962 O   0  0  0  0  0  0  0  0  0  0  0  0
   13.7813   23.8608   18.2865 H   0  0  0  0  0  0  0  0  0  0  0  0
   16.3494   23.9480   17.8757 C   0  0  0  0  0  0  0  0  0  0  0  0
   17.7313   23.4942   17.8541 N   0  0  0  0  0  0  0  0  0  0  0  0
   17.0567   22.6895   20.1619 O   0  0  0  0  0  0  0  0  0  0  0  0
   18.1685   22.6078   19.1640 S   0  0  0  0  0  0  0  0  0  0  0  0
   18.4473   21.1966   18.7453 O   0  0  0  0  0  0  0  0  0  0  0  0
   21.8787   24.3456   21.0496 C   0  0  0  0  0  0  0  0  0  0  0  0
   20.3713   22.4899   20.7386 C   0  0  0  0  0  0  0  0  0  0  0  0
   19.9048   24.6359   19.7124 C   0  0  0  0  0  0  0  0  0  0  0  0
   21.0488   25.1826   20.3009 C   0  0  0  0  0  0  0  0  0  0  0  0
   21.5515   23.0079   21.2564 C   0  0  0  0  0  0  0  0  0  0  0  0
   19.6263   23.2843   19.8721 C   0  0  0  0  0  0  0  0  0  0  0  0
   23.0114   24.8286   21.6227 O   0  0  0  0  0  0  0  0  0  0  0  0
   23.0319   26.2526   21.6598 C   0  0  0  0  0  0  0  0  0  0  0  0
   18.2154   22.9445   16.6132 C   0  0  0  0  0  0  0  0  0  0  0  0
   18.3032   24.6087   14.6983 C   0  0  0  0  0  0  0  0  0  0  0  0
   18.9772   25.5273   13.9008 C   0  0  0  0  0  0  0  0  0  0  0  0
   20.3023   25.8468   14.1616 C   0  0  0  0  0  0  0  0  0  0  0  0
   20.9325   25.2628   15.2583 C   0  0  0  0  0  0  0  0  0  0  0  0
   20.2646   24.3338   16.0477 C   0  0  0  0  0  0  0  0  0  0  0  0
   18.9478   23.9947   15.7683 C   0  0  0  0  0  0  0  0  0  0  0  0
   14.3273   22.7505   15.9614 C   0  0  0  0  0  0  0  0  0  0  0  0
   14.2850   22.2383   14.5151 C   0  0  0  0  0  0  0  0  0  0  0  0
   12.8466   22.1917   14.0374 C   0  0  0  0  0  0  0  0  0  0  0  0
   12.8128   21.6858   12.5926 C   0  0  0  0  0  0  0  0  0  0  0  0
   13.4838   20.3074   12.4899 C   0  0  0  0  0  0  0  0  0  0  0  0
   14.9277   20.3683   12.9823 C   0  0  0  0  0  0  0  0  0  0  0  0
   15.7102   21.3557   12.1124 C   0  0  0  0  0  0  0  0  0  0  0  0
   15.0445   22.7289   12.1888 C   0  0  0  0  0  0  0  0  0  0  0  0
   15.0718   23.2259   13.6383 C   0  0  0  0  0  0  0  0  0  0  0  0
   14.9338   20.8621   14.4353 C   0  0  0  0  0  0  0  0  0  0  0  0
   13.5888   22.6798   11.7124 C   0  0  0  0  0  0  0  0  0  0  0  0
 44 45  1  0  0  0
 44 43  1  0  0  0
 45 48  1  0  0  0
 45 46  1  0  0  0
 48 41  1  0  0  0
 46 39  1  0  0  0
 43 42  1  0  0  0
 43 47  1  0  0  0
 42 41  1  0  0  0
 41 40  1  0  0  0
 47 39  1  0  0  0
 39 40  1  0  0  0
 39 38  1  0  0  0
 27 24  2  0  0  0
 27 23  1  0  0  0
 29 23  1  0  0  0
 29 30  1  0  0  0
 24 28  1  0  0  0
 23 26  2  0  0  0
 22 21  2  0  0  0
 26 25  1  0  0  0
 38  1  1  0  0  0
 28 25  2  0  0  0
 28 21  1  0  0  0
 21 20  2  0  0  0
 21 19  1  0  0  0
  1  3  1  0  0  0
  1 15  1  0  0  0
  9  8  1  0  0  0
  9 10  1  0  0  0
 18 19  1  0  0  0
 18 15  1  0  0  0
  8  7  1  0  0  0
 19 31  1  0  0  0
  3  2  1  0  0  0
 15 16  1  0  0  0
  4  2  2  0  0  0
  2  6  1  0  0  0
 10 11  1  0  0  0
 10 14  1  0  0  0
  7 14  1  0  0  0
 31 37  1  0  0  0
  6 11  1  0  0  0
 11 12  1  0  0  0
 14 13  1  0  0  0
 37 36  2  0  0  0
 37 32  1  0  0  0
 36 35  1  0  0  0
 32 33  2  0  0  0
 13 12  1  0  0  0
 35 34  2  0  0  0
 33 34  1  0  0  0
 16 17  1  0  0  0
  3  5  1  0  0  0
M  END
> <minimizedAffinity>
-11.25578

$$$$
5JFU_6KQ_B_201


 48 54  0  0  0  0  0  0  0  0999 V2000
   17.0441   21.7292   18.3469 C   0  0  0  0  0  0  0  0  0  0  0  0
   14.6170   21.5417   18.8078 C   0  0  0  0  0  0  0  0  0  0  0  0
   15.8106   20.9735   18.5713 N   0  0  0  0  0  0  0  0  0  0  0  0
   14.4413   22.7496   18.8647 O   0  0  0  0  0  0  0  0  0  0  0  0
   15.8590   19.9904   18.5476 H   0  0  0  0  0  0  0  0  0  0  0  0
   13.5911   20.6691   18.9503 O   0  0  0  0  0  0  0  0  0  0  0  0
   10.7206   19.0100   18.4387 O   0  0  0  0  0  0  0  0  0  0  0  0
   11.3682   19.8342   17.4792 C   0  0  0  0  0  0  0  0  0  0  0  0
   12.6425   19.0642   17.1041 C   0  0  0  0  0  0  0  0  0  0  0  0
   13.0288   18.3992   18.4286 C   0  0  0  0  0  0  0  0  0  0  0  0
   13.9391   19.3143   19.2665 C   0  0  0  0  0  0  0  0  0  0  0  0
   13.3647   19.0235   20.6666 C   0  0  0  0  0  0  0  0  0  0  0  0
   11.9460   19.0162   20.4442 O   0  0  0  0  0  0  0  0  0  0  0  0
   11.7245   18.3406   19.2048 C   0  0  0  0  0  0  0  0  0  0  0  0
   17.5852   21.4580   16.9392 C   0  0  0  0  0  0  0  0  0  0  0  0
   18.4501   20.3219   16.9325 O   0  0  0  0  0  0  0  0  0  0  0  0
   19.2197   20.4981   17.4960 H   0  0  0  0  0  0  0  0  0  0  0  0
   18.3392   22.6726   16.3701 C   0  0  0  0  0  0  0  0  0  0  0  0
   17.3835   23.6244   15.8254 N   0  0  0  0  0  0  0  0  0  0  0  0
   16.8192   26.0597   15.4018 O   0  0  0  0  0  0  0  0  0  0  0  0
   17.6464   25.1780   16.2834 S   0  0  0  0  0  0  0  0  0  0  0  0
   17.2966   25.3412   17.7309 O   0  0  0  0  0  0  0  0  0  0  0  0
   21.9831   26.2717   15.7020 C   0  0  0  0  0  0  0  0  0  0  0  0
   19.9332   26.4679   16.9559 C   0  0  0  0  0  0  0  0  0  0  0  0
   20.0054   25.1566   14.9184 C   0  0  0  0  0  0  0  0  0  0  0  0
   21.3473   25.4989   14.7282 C   0  0  0  0  0  0  0  0  0  0  0  0
   21.2875   26.7415   16.8132 C   0  0  0  0  0  0  0  0  0  0  0  0
   19.3427   25.5767   16.0648 C   0  0  0  0  0  0  0  0  0  0  0  0
   23.2915   26.6112   15.5692 O   0  0  0  0  0  0  0  0  0  0  0  0
   23.9054   26.8921   16.8237 C   0  0  0  0  0  0  0  0  0  0  0  0
   17.0624   23.4947   14.4267 C   0  0  0  0  0  0  0  0  0  0  0  0
   15.1143   22.8467   12.9336 C   0  0  0  0  0  0  0  0  0  0  0  0
   13.7653   22.5837   12.7215 C   0  0  0  0  0  0  0  0  0  0  0  0
   12.8662   22.6232   13.7780 C   0  0  0  0  0  0  0  0  0  0  0  0
   13.3437   22.8909   15.0591 C   0  0  0  0  0  0  0  0  0  0  0  0
   14.6895   23.1680   15.2702 C   0  0  0  0  0  0  0  0  0  0  0  0
   15.5825   23.1554   14.2075 C   0  0  0  0  0  0  0  0  0  0  0  0
   18.0273   21.2591   19.4343 C   0  0  0  0  0  0  0  0  0  0  0  0
   18.9743   22.2796   20.0807 C   0  0  0  0  0  0  0  0  0  0  0  0
   19.6753   21.6400   21.2635 C   0  0  0  0  0  0  0  0  0  0  0  0
   20.6222   22.6616   21.8992 C   0  0  0  0  0  0  0  0  0  0  0  0
   19.8503   23.9223   22.3182 C   0  0  0  0  0  0  0  0  0  0  0  0
   19.1432   24.5496   21.1191 C   0  0  0  0  0  0  0  0  0  0  0  0
   20.1895   24.9453   20.0740 C   0  0  0  0  0  0  0  0  0  0  0  0
   20.9795   23.7048   19.6596 C   0  0  0  0  0  0  0  0  0  0  0  0
   20.0255   22.6817   19.0335 C   0  0  0  0  0  0  0  0  0  0  0  0
   18.1895   23.5129   20.5101 C   0  0  0  0  0  0  0  0  0  0  0  0
   21.6821   23.0549   20.8565 C   0  0  0  0  0  0  0  0  0  0  0  0
 44 45  1  0  0  0
 44 43  1  0  0  0
 45 48  1  0  0  0
 45 46  1  0  0  0
 48 41  1  0  0  0
 46 39  1  0  0  0
 43 42  1  0  0  0
 43 47  1  0  0  0
 42 41  1  0  0  0
 41 40  1  0  0  0
 47 39  1  0  0  0
 39 40  1  0  0  0
 39 38  1  0  0  0
 27 24  2  0  0  0
 27 23  1  0  0  0
 29 23  1  0  0  0
 29 30  1  0  0  0
 24 28  1  0  0  0
 23 26  2  0  0  0
 22 21  2  0  0  0
 26 25  1  0  0  0
 38  1  1  0  0  0
 28 25  2  0  0  0
 28 21  1  0  0  0
 21 20  2  0  0  0
 21 19  1  0  0  0
  1  3  1  0  0  0
  1 15  1  0  0  0
  9  8  1  0  0  0
  9 10  1  0  0  0
 18 19  1  0  0  0
 18 15  1  0  0  0
  8  7  1  0  0  0
 19 31  1  0  0  0
  3  2  1  0  0  0
 15 16  1  0  0  0
  4  2  2  0  0  0
  2  6  1  0  0  0
 10 11  1  0  0  0
 10 14  1  0  0  0
  7 14  1  0  0  0
 31 37  1  0  0  0
  6 11  1  0  0  0
 11 12  1  0  0  0
 14 13  1  0  0  0
 37 36  2  0  0  0
 37 32  1  0  0  0
 36 35  1  0  0  0
 32 33  2  0  0  0
 13 12  1  0  0  0
 35 34  2  0  0  0
 33 34  1  0  0  0
 16 17  1  0  0  0
  3  5  1  0  0  0
M  END
> <minimizedAffinity>
-11.10377

$$$$
5JFU_6KQ_B_201


 48 54  0  0  0  0  0  0  0  0999 V2000
   15.0496   21.9323   16.9672 C   0  0  0  0  0  0  0  0  0  0  0  0
   14.5637   19.6841   17.8879 C   0  0  0  0  0  0  0  0  0  0  0  0
   14.1474   20.8598   17.3900 N   0  0  0  0  0  0  0  0  0  0  0  0
   15.7405   19.3887   18.0335 O   0  0  0  0  0  0  0  0  0  0  0  0
   13.1781   21.0092   17.3042 H   0  0  0  0  0  0  0  0  0  0  0  0
   13.5706   18.8402   18.2568 O   0  0  0  0  0  0  0  0  0  0  0  0
   10.4946   18.0957   19.3692 O   0  0  0  0  0  0  0  0  0  0  0  0
   10.9576   17.8764   18.0437 C   0  0  0  0  0  0  0  0  0  0  0  0
   11.9900   16.7477   18.1756 C   0  0  0  0  0  0  0  0  0  0  0  0
   12.6318   17.0439   19.5344 C   0  0  0  0  0  0  0  0  0  0  0  0
   13.8302   17.9980   19.3880 C   0  0  0  0  0  0  0  0  0  0  0  0
   13.6152   18.8634   20.6448 C   0  0  0  0  0  0  0  0  0  0  0  0
   12.1971   19.0896   20.6487 O   0  0  0  0  0  0  0  0  0  0  0  0
   11.5803   17.8583   20.2680 C   0  0  0  0  0  0  0  0  0  0  0  0
   15.4151   22.8211   18.1607 C   0  0  0  0  0  0  0  0  0  0  0  0
   14.2452   23.3688   18.7693 O   0  0  0  0  0  0  0  0  0  0  0  0
   13.7847   23.9365   18.1317 H   0  0  0  0  0  0  0  0  0  0  0  0
   16.3594   23.9665   17.7557 C   0  0  0  0  0  0  0  0  0  0  0  0
   17.7341   23.4913   17.7769 N   0  0  0  0  0  0  0  0  0  0  0  0
   16.9646   22.6772   20.0515 O   0  0  0  0  0  0  0  0  0  0  0  0
   18.1174   22.6007   19.1007 S   0  0  0  0  0  0  0  0  0  0  0  0
   18.4157   21.1915   18.6891 O   0  0  0  0  0  0  0  0  0  0  0  0
   21.7411   24.3411   21.1455 C   0  0  0  0  0  0  0  0  0  0  0  0
   20.2080   22.5086   20.8231 C   0  0  0  0  0  0  0  0  0  0  0  0
   19.8679   24.6117   19.6668 C   0  0  0  0  0  0  0  0  0  0  0  0
   20.9851   25.1595   20.3038 C   0  0  0  0  0  0  0  0  0  0  0  0
   21.3652   23.0234   21.3934 C   0  0  0  0  0  0  0  0  0  0  0  0
   19.5432   23.2766   19.8717 C   0  0  0  0  0  0  0  0  0  0  0  0
   22.8463   24.8248   21.7694 O   0  0  0  0  0  0  0  0  0  0  0  0
   23.5697   25.7403   20.9519 C   0  0  0  0  0  0  0  0  0  0  0  0
   18.2472   22.9319   16.5521 C   0  0  0  0  0  0  0  0  0  0  0  0
   20.2857   24.3376   15.9930 C   0  0  0  0  0  0  0  0  0  0  0  0
   20.9318   25.3229   15.2543 C   0  0  0  0  0  0  0  0  0  0  0  0
   20.2761   25.9656   14.2135 C   0  0  0  0  0  0  0  0  0  0  0  0
   18.9756   25.5795   13.8964 C   0  0  0  0  0  0  0  0  0  0  0  0
   18.3237   24.6049   14.6431 C   0  0  0  0  0  0  0  0  0  0  0  0
   18.9717   23.9829   15.7014 C   0  0  0  0  0  0  0  0  0  0  0  0
   14.2876   22.7186   15.8849 C   0  0  0  0  0  0  0  0  0  0  0  0
   14.2930   22.2022   14.4395 C   0  0  0  0  0  0  0  0  0  0  0  0
   14.9934   20.8583   14.3857 C   0  0  0  0  0  0  0  0  0  0  0  0
   14.9897   20.3468   12.9425 C   0  0  0  0  0  0  0  0  0  0  0  0
   15.6592   21.3671   12.0088 C   0  0  0  0  0  0  0  0  0  0  0  0
   14.9488   22.7166   12.0805 C   0  0  0  0  0  0  0  0  0  0  0  0
   13.4931   22.5381   11.6412 C   0  0  0  0  0  0  0  0  0  0  0  0
   12.8170   21.5116   12.5490 C   0  0  0  0  0  0  0  0  0  0  0  0
   12.8328   22.0237   13.9935 C   0  0  0  0  0  0  0  0  0  0  0  0
   14.9798   23.2149   13.5317 C   0  0  0  0  0  0  0  0  0  0  0  0
   13.5295   20.1557   12.4995 C   0  0  0  0  0  0  0  0  0  0  0  0
 44 45  1  0  0  0
 44 43  1  0  0  0
 45 48  1  0  0  0
 45 46  1  0  0  0
 48 41  1  0  0  0
 46 39  1  0  0  0
 43 42  1  0  0  0
 43 47  1  0  0  0
 42 41  1  0  0  0
 41 40  1  0  0  0
 47 39  1  0  0  0
 39 40  1  0  0  0
 39 38  1  0  0  0
 27 24  2  0  0  0
 27 23  1  0  0  0
 29 23  1  0  0  0
 29 30  1  0  0  0
 24 28  1  0  0  0
 23 26  2  0  0  0
 22 21  2  0  0  0
 26 25  1  0  0  0
 38  1  1  0  0  0
 28 25  2  0  0  0
 28 21  1  0  0  0
 21 20  2  0  0  0
 21 19  1  0  0  0
  1  3  1  0  0  0
  1 15  1  0  0  0
  9  8  1  0  0  0
  9 10  1  0  0  0
 18 19  1  0  0  0
 18 15  1  0  0  0
  8  7  1  0  0  0
 19 31  1  0  0  0
  3  2  1  0  0  0
 15 16  1  0  0  0
  4  2  2  0  0  0
  2  6  1  0  0  0
 10 11  1  0  0  0
 10 14  1  0  0  0
  7 14  1  0  0  0
 31 37  1  0  0  0
  6 11  1  0  0  0
 11 12  1  0  0  0
 14 13  1  0  0  0
 37 36  2  0  0  0
 37 32  1  0  0  0
 36 35  1  0  0  0
 32 33  2  0  0  0
 13 12  1  0  0  0
 35 34  2  0  0  0
 33 34  1  0  0  0
 16 17  1  0  0  0
  3  5  1  0  0  0
M  END
> <minimizedAffinity>
-11.09665

$$$$
5JFU_6KQ_B_201


 48 54  0  0  0  0  0  0  0  0999 V2000
   15.0563   22.4390   17.0781 C   0  0  0  0  0  0  0  0  0  0  0  0
   14.5702   20.1669   17.9382 C   0  0  0  0  0  0  0  0  0  0  0  0
   14.1658   21.4033   17.6048 N   0  0  0  0  0  0  0  0  0  0  0  0
   15.7241   19.7795   17.8300 O   0  0  0  0  0  0  0  0  0  0  0  0
   13.2141   21.6265   17.7216 H   0  0  0  0  0  0  0  0  0  0  0  0
   13.5996   19.3691   18.4439 O   0  0  0  0  0  0  0  0  0  0  0  0
   10.7342   18.1551   19.6966 O   0  0  0  0  0  0  0  0  0  0  0  0
   10.9879   18.3867   18.3177 C   0  0  0  0  0  0  0  0  0  0  0  0
   12.0317   17.3286   17.9327 C   0  0  0  0  0  0  0  0  0  0  0  0
   12.8745   17.2167   19.2067 C   0  0  0  0  0  0  0  0  0  0  0  0
   14.0331   18.2294   19.1985 C   0  0  0  0  0  0  0  0  0  0  0  0
   14.0119   18.6449   20.6824 C   0  0  0  0  0  0  0  0  0  0  0  0
   12.6107   18.7846   20.9639 O   0  0  0  0  0  0  0  0  0  0  0  0
   11.9463   17.7045   20.3056 C   0  0  0  0  0  0  0  0  0  0  0  0
   15.3626   23.4783   18.1617 C   0  0  0  0  0  0  0  0  0  0  0  0
   14.5126   24.6185   18.0333 O   0  0  0  0  0  0  0  0  0  0  0  0
   14.6775   25.0503   17.1805 H   0  0  0  0  0  0  0  0  0  0  0  0
   16.8317   23.9341   18.1212 C   0  0  0  0  0  0  0  0  0  0  0  0
   17.4707   23.4035   16.9269 N   0  0  0  0  0  0  0  0  0  0  0  0
   17.5070   23.7964   14.4223 O   0  0  0  0  0  0  0  0  0  0  0  0
   17.6772   24.5056   15.7288 S   0  0  0  0  0  0  0  0  0  0  0  0
   16.6915   25.6212   15.8969 O   0  0  0  0  0  0  0  0  0  0  0  0
   21.8197   26.2782   15.9248 C   0  0  0  0  0  0  0  0  0  0  0  0
   19.5775   26.1166   16.7960 C   0  0  0  0  0  0  0  0  0  0  0  0
   20.2116   24.8910   14.8030 C   0  0  0  0  0  0  0  0  0  0  0  0
   21.4945   25.4437   14.8535 C   0  0  0  0  0  0  0  0  0  0  0  0
   20.8752   26.6020   16.8954 C   0  0  0  0  0  0  0  0  0  0  0  0
   19.3006   25.1700   15.8141 C   0  0  0  0  0  0  0  0  0  0  0  0
   23.0606   26.8212   16.0258 O   0  0  0  0  0  0  0  0  0  0  0  0
   23.0534   28.2279   15.8009 C   0  0  0  0  0  0  0  0  0  0  0  0
   18.6241   22.5631   17.1260 C   0  0  0  0  0  0  0  0  0  0  0  0
   19.9421   23.3565   19.1453 C   0  0  0  0  0  0  0  0  0  0  0  0
   20.3352   23.2461   20.4747 C   0  0  0  0  0  0  0  0  0  0  0  0
   19.8075   22.2498   21.2841 C   0  0  0  0  0  0  0  0  0  0  0  0
   18.8492   21.3887   20.7541 C   0  0  0  0  0  0  0  0  0  0  0  0
   18.4659   21.4888   19.4217 C   0  0  0  0  0  0  0  0  0  0  0  0
   19.0156   22.4685   18.6062 C   0  0  0  0  0  0  0  0  0  0  0  0
   14.3118   23.0644   15.8845 C   0  0  0  0  0  0  0  0  0  0  0  0
   14.2326   22.2904   14.5613 C   0  0  0  0  0  0  0  0  0  0  0  0
   15.3884   21.3123   14.4783 C   0  0  0  0  0  0  0  0  0  0  0  0
   15.2995   20.5399   13.1591 C   0  0  0  0  0  0  0  0  0  0  0  0
   15.2975   21.5098   11.9674 C   0  0  0  0  0  0  0  0  0  0  0  0
   14.1341   22.4932   12.0696 C   0  0  0  0  0  0  0  0  0  0  0  0
   12.8179   21.7114   12.0621 C   0  0  0  0  0  0  0  0  0  0  0  0
   12.8113   20.7281   13.2316 C   0  0  0  0  0  0  0  0  0  0  0  0
   12.9109   21.5056   14.5486 C   0  0  0  0  0  0  0  0  0  0  0  0
   14.2543   23.2651   13.3906 C   0  0  0  0  0  0  0  0  0  0  0  0
   13.9835   19.7442   13.1507 C   0  0  0  0  0  0  0  0  0  0  0  0
 44 45  1  0  0  0
 44 43  1  0  0  0
 45 48  1  0  0  0
 45 46  1  0  0  0
 48 41  1  0  0  0
 46 39  1  0  0  0
 43 42  1  0  0  0
 43 47  1  0  0  0
 42 41  1  0  0  0
 41 40  1  0  0  0
 47 39  1  0  0  0
 39 40  1  0  0  0
 39 38  1  0  0  0
 27 24  2  0  0  0
 27 23  1  0  0  0
 29 23  1  0  0  0
 29 30  1  0  0  0
 24 28  1  0  0  0
 23 26  2  0  0  0
 22 21  2  0  0  0
 26 25  1  0  0  0
 38  1  1  0  0  0
 28 25  2  0  0  0
 28 21  1  0  0  0
 21 20  2  0  0  0
 21 19  1  0  0  0
  1  3  1  0  0  0
  1 15  1  0  0  0
  9  8  1  0  0  0
  9 10  1  0  0  0
 18 19  1  0  0  0
 18 15  1  0  0  0
  8  7  1  0  0  0
 19 31  1  0  0  0
  3  2  1  0  0  0
 15 16  1  0  0  0
  4  2  2  0  0  0
  2  6  1  0  0  0
 10 11  1  0  0  0
 10 14  1  0  0  0
  7 14  1  0  0  0
 31 37  1  0  0  0
  6 11  1  0  0  0
 11 12  1  0  0  0
 14 13  1  0  0  0
 37 36  2  0  0  0
 37 32  1  0  0  0
 36 35  1  0  0  0
 32 33  2  0  0  0
 13 12  1  0  0  0
 35 34  2  0  0  0
 33 34  1  0  0  0
 16 17  1  0  0  0
  3  5  1  0  0  0
M  END
> <minimizedAffinity>
-11.09632

$$$$
5JFU_6KQ_B_201


 48 54  0  0  0  0  0  0  0  0999 V2000
   17.0578   24.6445   16.3846 C   0  0  0  0  0  0  0  0  0  0  0  0
   19.0583   25.4789   15.1846 C   0  0  0  0  0  0  0  0  0  0  0  0
   18.3635   25.3033   16.3203 N   0  0  0  0  0  0  0  0  0  0  0  0
   18.6717   25.1007   14.0887 O   0  0  0  0  0  0  0  0  0  0  0  0
   18.7555   25.6373   17.1593 H   0  0  0  0  0  0  0  0  0  0  0  0
   20.2275   26.1465   15.3317 O   0  0  0  0  0  0  0  0  0  0  0  0
   22.4826   28.2602   16.6358 O   0  0  0  0  0  0  0  0  0  0  0  0
   22.4885   26.8502   16.8131 C   0  0  0  0  0  0  0  0  0  0  0  0
   22.8455   26.2873   15.4300 C   0  0  0  0  0  0  0  0  0  0  0  0
   22.1615   27.2780   14.4833 C   0  0  0  0  0  0  0  0  0  0  0  0
   20.7142   26.8511   14.1815 C   0  0  0  0  0  0  0  0  0  0  0  0
   20.0384   28.2361   14.1903 C   0  0  0  0  0  0  0  0  0  0  0  0
   20.6363   28.8856   15.3229 O   0  0  0  0  0  0  0  0  0  0  0  0
   22.0234   28.5433   15.3122 C   0  0  0  0  0  0  0  0  0  0  0  0
   16.6843   24.3453   17.8403 C   0  0  0  0  0  0  0  0  0  0  0  0
   15.8070   25.3446   18.3603 O   0  0  0  0  0  0  0  0  0  0  0  0
   16.2588   26.2029   18.3609 H   0  0  0  0  0  0  0  0  0  0  0  0
   17.9268   24.2424   18.7423 C   0  0  0  0  0  0  0  0  0  0  0  0
   17.6678   23.2976   19.8176 N   0  0  0  0  0  0  0  0  0  0  0  0
   18.8304   21.6937   18.2350 O   0  0  0  0  0  0  0  0  0  0  0  0
   17.8935   21.7265   19.4012 S   0  0  0  0  0  0  0  0  0  0  0  0
   18.4296   20.9673   20.5762 O   0  0  0  0  0  0  0  0  0  0  0  0
   13.9317   19.9045   18.2498 C   0  0  0  0  0  0  0  0  0  0  0  0
   15.2036   21.7796   19.0737 C   0  0  0  0  0  0  0  0  0  0  0  0
   16.2971   19.6701   18.5942 C   0  0  0  0  0  0  0  0  0  0  0  0
   15.0710   19.0972   18.2442 C   0  0  0  0  0  0  0  0  0  0  0  0
   13.9979   21.2373   18.6476 C   0  0  0  0  0  0  0  0  0  0  0  0
   16.3589   21.0180   18.9247 C   0  0  0  0  0  0  0  0  0  0  0  0
   12.7227   19.3959   17.8972 O   0  0  0  0  0  0  0  0  0  0  0  0
   12.0533   18.7855   18.9968 C   0  0  0  0  0  0  0  0  0  0  0  0
   18.2106   23.6221   21.1124 C   0  0  0  0  0  0  0  0  0  0  0  0
   20.0783   25.2753   20.6408 C   0  0  0  0  0  0  0  0  0  0  0  0
   21.4241   25.6056   20.5230 C   0  0  0  0  0  0  0  0  0  0  0  0
   22.4063   24.6643   20.7977 C   0  0  0  0  0  0  0  0  0  0  0  0
   22.0222   23.3973   21.2313 C   0  0  0  0  0  0  0  0  0  0  0  0
   20.6774   23.0614   21.3357 C   0  0  0  0  0  0  0  0  0  0  0  0
   19.6963   23.9958   21.0336 C   0  0  0  0  0  0  0  0  0  0  0  0
   17.1982   23.3541   15.5568 C   0  0  0  0  0  0  0  0  0  0  0  0
   15.9646   22.7825   14.8443 C   0  0  0  0  0  0  0  0  0  0  0  0
   16.2190   22.7390   13.3501 C   0  0  0  0  0  0  0  0  0  0  0  0
   14.9871   22.1624   12.6469 C   0  0  0  0  0  0  0  0  0  0  0  0
   13.7392   22.9944   12.9804 C   0  0  0  0  0  0  0  0  0  0  0  0
   13.5013   23.0361   14.4880 C   0  0  0  0  0  0  0  0  0  0  0  0
   13.2846   21.6092   14.9985 C   0  0  0  0  0  0  0  0  0  0  0  0
   14.5103   20.7627   14.6582 C   0  0  0  0  0  0  0  0  0  0  0  0
   15.7420   21.3501   15.3560 C   0  0  0  0  0  0  0  0  0  0  0  0
   14.7417   23.6317   15.1676 C   0  0  0  0  0  0  0  0  0  0  0  0
   14.7709   20.7248   13.1485 C   0  0  0  0  0  0  0  0  0  0  0  0
 44 45  1  0  0  0
 44 43  1  0  0  0
 45 48  1  0  0  0
 45 46  1  0  0  0
 48 41  1  0  0  0
 46 39  1  0  0  0
 43 42  1  0  0  0
 43 47  1  0  0  0
 42 41  1  0  0  0
 41 40  1  0  0  0
 47 39  1  0  0  0
 39 40  1  0  0  0
 39 38  1  0  0  0
 27 24  2  0  0  0
 27 23  1  0  0  0
 29 23  1  0  0  0
 29 30  1  0  0  0
 24 28  1  0  0  0
 23 26  2  0  0  0
 22 21  2  0  0  0
 26 25  1  0  0  0
 38  1  1  0  0  0
 28 25  2  0  0  0
 28 21  1  0  0  0
 21 20  2  0  0  0
 21 19  1  0  0  0
  1  3  1  0  0  0
  1 15  1  0  0  0
  9  8  1  0  0  0
  9 10  1  0  0  0
 18 19  1  0  0  0
 18 15  1  0  0  0
  8  7  1  0  0  0
 19 31  1  0  0  0
  3  2  1  0  0  0
 15 16  1  0  0  0
  4  2  2  0  0  0
  2  6  1  0  0  0
 10 11  1  0  0  0
 10 14  1  0  0  0
  7 14  1  0  0  0
 31 37  1  0  0  0
  6 11  1  0  0  0
 11 12  1  0  0  0
 14 13  1  0  0  0
 37 36  2  0  0  0
 37 32  1  0  0  0
 36 35  1  0  0  0
 32 33  2  0  0  0
 13 12  1  0  0  0
 35 34  2  0  0  0
 33 34  1  0  0  0
 16 17  1  0  0  0
  3  5  1  0  0  0
M  END
> <minimizedAffinity>
-10.59420

$$$$
5JFU_6KQ_B_201


 48 54  0  0  0  0  0  0  0  0999 V2000
   15.0566   22.4856   16.8776 C   0  0  0  0  0  0  0  0  0  0  0  0
   14.4348   20.3188   17.9055 C   0  0  0  0  0  0  0  0  0  0  0  0
   14.1459   21.5935   17.5971 N   0  0  0  0  0  0  0  0  0  0  0  0
   15.4876   19.7726   17.6111 O   0  0  0  0  0  0  0  0  0  0  0  0
   13.2697   21.9490   17.8710 H   0  0  0  0  0  0  0  0  0  0  0  0
   13.4741   19.6730   18.6085 O   0  0  0  0  0  0  0  0  0  0  0  0
   10.5450   18.2321   19.3817 O   0  0  0  0  0  0  0  0  0  0  0  0
   10.9438   18.6177   18.0734 C   0  0  0  0  0  0  0  0  0  0  0  0
   12.0741   17.6440   17.7102 C   0  0  0  0  0  0  0  0  0  0  0  0
   12.7695   17.4274   19.0576 C   0  0  0  0  0  0  0  0  0  0  0  0
   13.8719   18.4756   19.2900 C   0  0  0  0  0  0  0  0  0  0  0  0
   13.6609   18.7302   20.7951 C   0  0  0  0  0  0  0  0  0  0  0  0
   12.2316   18.7896   20.9206 O   0  0  0  0  0  0  0  0  0  0  0  0
   11.6992   17.7627   20.0819 C   0  0  0  0  0  0  0  0  0  0  0  0
   15.5080   23.6320   17.7887 C   0  0  0  0  0  0  0  0  0  0  0  0
   14.4029   24.4553   18.1625 O   0  0  0  0  0  0  0  0  0  0  0  0
   14.0220   24.8647   17.3699 H   0  0  0  0  0  0  0  0  0  0  0  0
   16.5872   24.5037   17.1228 C   0  0  0  0  0  0  0  0  0  0  0  0
   17.8561   24.3106   17.8073 N   0  0  0  0  0  0  0  0  0  0  0  0
   19.7503   23.5357   16.3106 O   0  0  0  0  0  0  0  0  0  0  0  0
   19.1679   24.7655   16.9327 S   0  0  0  0  0  0  0  0  0  0  0  0
   18.7608   25.7776   15.9059 O   0  0  0  0  0  0  0  0  0  0  0  0
   22.2737   26.6497   19.6057 C   0  0  0  0  0  0  0  0  0  0  0  0
   20.4757   26.8779   18.0158 C   0  0  0  0  0  0  0  0  0  0  0  0
   21.2856   24.6819   18.6465 C   0  0  0  0  0  0  0  0  0  0  0  0
   22.2558   25.2601   19.4701 C   0  0  0  0  0  0  0  0  0  0  0  0
   21.3837   27.4521   18.8963 C   0  0  0  0  0  0  0  0  0  0  0  0
   20.3617   25.4910   17.9969 C   0  0  0  0  0  0  0  0  0  0  0  0
   23.1854   27.2537   20.4111 O   0  0  0  0  0  0  0  0  0  0  0  0
   23.4993   26.4658   21.5558 C   0  0  0  0  0  0  0  0  0  0  0  0
   17.9223   24.7305   19.1841 C   0  0  0  0  0  0  0  0  0  0  0  0
   19.2673   24.0394   21.2231 C   0  0  0  0  0  0  0  0  0  0  0  0
   19.8964   23.0817   22.0113 C   0  0  0  0  0  0  0  0  0  0  0  0
   19.8371   21.7383   21.6680 C   0  0  0  0  0  0  0  0  0  0  0  0
   19.1042   21.3621   20.5444 C   0  0  0  0  0  0  0  0  0  0  0  0
   18.4869   22.3195   19.7478 C   0  0  0  0  0  0  0  0  0  0  0  0
   18.5708   23.6653   20.0774 C   0  0  0  0  0  0  0  0  0  0  0  0
   14.2643   23.0027   15.6631 C   0  0  0  0  0  0  0  0  0  0  0  0
   14.1700   22.1311   14.4032 C   0  0  0  0  0  0  0  0  0  0  0  0
   13.0378   21.1349   14.5615 C   0  0  0  0  0  0  0  0  0  0  0  0
   12.9460   20.2733   13.2991 C   0  0  0  0  0  0  0  0  0  0  0  0
   14.2837   19.5659   13.0325 C   0  0  0  0  0  0  0  0  0  0  0  0
   15.4146   20.5809   12.8842 C   0  0  0  0  0  0  0  0  0  0  0  0
   15.1071   21.5010   11.6999 C   0  0  0  0  0  0  0  0  0  0  0  0
   13.7694   22.1991   11.9407 C   0  0  0  0  0  0  0  0  0  0  0  0
   13.8635   23.0517   13.2108 C   0  0  0  0  0  0  0  0  0  0  0  0
   15.4965   21.4202   14.1665 C   0  0  0  0  0  0  0  0  0  0  0  0
   12.6267   21.1916   12.1074 C   0  0  0  0  0  0  0  0  0  0  0  0
 44 45  1  0  0  0
 44 43  1  0  0  0
 45 48  1  0  0  0
 45 46  1  0  0  0
 48 41  1  0  0  0
 46 39  1  0  0  0
 43 42  1  0  0  0
 43 47  1  0  0  0
 42 41  1  0  0  0
 41 40  1  0  0  0
 47 39  1  0  0  0
 39 40  1  0  0  0
 39 38  1  0  0  0
 27 24  2  0  0  0
 27 23  1  0  0  0
 29 23  1  0  0  0
 29 30  1  0  0  0
 24 28  1  0  0  0
 23 26  2  0  0  0
 22 21  2  0  0  0
 26 25  1  0  0  0
 38  1  1  0  0  0
 28 25  2  0  0  0
 28 21  1  0  0  0
 21 20  2  0  0  0
 21 19  1  0  0  0
  1  3  1  0  0  0
  1 15  1  0  0  0
  9  8  1  0  0  0
  9 10  1  0  0  0
 18 19  1  0  0  0
 18 15  1  0  0  0
  8  7  1  0  0  0
 19 31  1  0  0  0
  3  2  1  0  0  0
 15 16  1  0  0  0
  4  2  2  0  0  0
  2  6  1  0  0  0
 10 11  1  0  0  0
 10 14  1  0  0  0
  7 14  1  0  0  0
 31 37  1  0  0  0
  6 11  1  0  0  0
 11 12  1  0  0  0
 14 13  1  0  0  0
 37 36  2  0  0  0
 37 32  1  0  0  0
 36 35  1  0  0  0
 32 33  2  0  0  0
 13 12  1  0  0  0
 35 34  2  0  0  0
 33 34  1  0  0  0
 16 17  1  0  0  0
  3  5  1  0  0  0
M  END
> <minimizedAffinity>
-10.58802

$$$$
5JFU_6KQ_B_201


 48 54  0  0  0  0  0  0  0  0999 V2000
   16.8874   24.7200   16.5169 C   0  0  0  0  0  0  0  0  0  0  0  0
   18.8887   25.4934   15.2779 C   0  0  0  0  0  0  0  0  0  0  0  0
   18.2191   25.3216   16.4292 N   0  0  0  0  0  0  0  0  0  0  0  0
   18.4547   25.1591   14.1856 O   0  0  0  0  0  0  0  0  0  0  0  0
   18.6493   25.6177   17.2638 H   0  0  0  0  0  0  0  0  0  0  0  0
   20.0904   26.1048   15.4058 O   0  0  0  0  0  0  0  0  0  0  0  0
   22.4142   28.1606   16.6815 O   0  0  0  0  0  0  0  0  0  0  0  0
   22.3796   26.7525   16.8695 C   0  0  0  0  0  0  0  0  0  0  0  0
   22.7120   26.1690   15.4888 C   0  0  0  0  0  0  0  0  0  0  0  0
   22.0521   27.1724   14.5382 C   0  0  0  0  0  0  0  0  0  0  0  0
   20.5912   26.7861   14.2476 C   0  0  0  0  0  0  0  0  0  0  0  0
   19.9567   28.1905   14.2495 C   0  0  0  0  0  0  0  0  0  0  0  0
   20.5798   28.8305   15.3739 O   0  0  0  0  0  0  0  0  0  0  0  0
   21.9561   28.4473   15.3582 C   0  0  0  0  0  0  0  0  0  0  0  0
   16.4130   24.6886   17.9736 C   0  0  0  0  0  0  0  0  0  0  0  0
   15.8078   25.9281   18.3425 O   0  0  0  0  0  0  0  0  0  0  0  0
   16.4642   26.6396   18.2801 H   0  0  0  0  0  0  0  0  0  0  0  0
   17.5643   24.3773   18.9458 C   0  0  0  0  0  0  0  0  0  0  0  0
   17.7915   22.9410   18.9836 N   0  0  0  0  0  0  0  0  0  0  0  0
   19.4822   21.1428   19.5637 O   0  0  0  0  0  0  0  0  0  0  0  0
   19.3746   22.5098   18.9650 S   0  0  0  0  0  0  0  0  0  0  0  0
   19.8901   22.5513   17.5590 O   0  0  0  0  0  0  0  0  0  0  0  0
   21.8160   25.3583   21.4685 C   0  0  0  0  0  0  0  0  0  0  0  0
   21.4121   24.2518   19.3648 C   0  0  0  0  0  0  0  0  0  0  0  0
   20.0375   23.7531   21.2982 C   0  0  0  0  0  0  0  0  0  0  0  0
   20.7957   24.6281   22.0814 C   0  0  0  0  0  0  0  0  0  0  0  0
   22.1140   25.1830   20.1195 C   0  0  0  0  0  0  0  0  0  0  0  0
   20.3030   23.6380   19.9394 C   0  0  0  0  0  0  0  0  0  0  0  0
   22.5650   26.2353   22.1858 O   0  0  0  0  0  0  0  0  0  0  0  0
   21.7735   27.0215   23.0717 C   0  0  0  0  0  0  0  0  0  0  0  0
   17.0113   22.1845   19.9300 C   0  0  0  0  0  0  0  0  0  0  0  0
   14.6880   21.7090   19.0243 C   0  0  0  0  0  0  0  0  0  0  0  0
   13.7485   20.8695   18.4357 C   0  0  0  0  0  0  0  0  0  0  0  0
   14.0992   19.5843   18.0465 C   0  0  0  0  0  0  0  0  0  0  0  0
   15.4164   19.1644   18.2187 C   0  0  0  0  0  0  0  0  0  0  0  0
   16.3529   19.9973   18.8200 C   0  0  0  0  0  0  0  0  0  0  0  0
   15.9930   21.2725   19.2339 C   0  0  0  0  0  0  0  0  0  0  0  0
   17.0289   23.3021   15.9342 C   0  0  0  0  0  0  0  0  0  0  0  0
   15.8963   22.7299   15.0705 C   0  0  0  0  0  0  0  0  0  0  0  0
   15.7529   21.2454   15.3441 C   0  0  0  0  0  0  0  0  0  0  0  0
   14.6178   20.6830   14.4840 C   0  0  0  0  0  0  0  0  0  0  0  0
   14.8847   20.9568   12.9958 C   0  0  0  0  0  0  0  0  0  0  0  0
   15.0354   22.4541   12.7377 C   0  0  0  0  0  0  0  0  0  0  0  0
   13.7381   23.1622   13.1371 C   0  0  0  0  0  0  0  0  0  0  0  0
   13.4480   22.8846   14.6114 C   0  0  0  0  0  0  0  0  0  0  0  0
   14.5918   23.4402   15.4668 C   0  0  0  0  0  0  0  0  0  0  0  0
   16.1877   22.9902   13.5979 C   0  0  0  0  0  0  0  0  0  0  0  0
   13.3099   21.3837   14.8884 C   0  0  0  0  0  0  0  0  0  0  0  0
 44 45  1  0  0  0
 44 43  1  0  0  0
 45 48  1  0  0  0
 45 46  1  0  0  0
 48 41  1  0  0  0
 46 39  1  0  0  0
 43 42  1  0  0  0
 43 47  1  0  0  0
 42 41  1  0  0  0
 41 40  1  0  0  0
 47 39  1  0  0  0
 39 40  1  0  0  0
 39 38  1  0  0  0
 27 24  2  0  0  0
 27 23  1  0  0  0
 29 23  1  0  0  0
 29 30  1  0  0  0
 24 28  1  0  0  0
 23 26  2  0  0  0
 22 21  2  0  0  0
 26 25  1  0  0  0
 38  1  1  0  0  0
 28 25  2  0  0  0
 28 21  1  0  0  0
 21 20  2  0  0  0
 21 19  1  0  0  0
  1  3  1  0  0  0
  1 15  1  0  0  0
  9  8  1  0  0  0
  9 10  1  0  0  0
 18 19  1  0  0  0
 18 15  1  0  0  0
  8  7  1  0  0  0
 19 31  1  0  0  0
  3  2  1  0  0  0
 15 16  1  0  0  0
  4  2  2  0  0  0
  2  6  1  0  0  0
 10 11  1  0  0  0
 10 14  1  0  0  0
  7 14  1  0  0  0
 31 37  1  0  0  0
  6 11  1  0  0  0
 11 12  1  0  0  0
 14 13  1  0  0  0
 37 36  2  0  0  0
 37 32  1  0  0  0
 36 35  1  0  0  0
 32 33  2  0  0  0
 13 12  1  0  0  0
 35 34  2  0  0  0
 33 34  1  0  0  0
 16 17  1  0  0  0
  3  5  1  0  0  0
M  END
> <minimizedAffinity>
-10.45912

$$$$
5JFU_6KQ_B_201


 48 54  0  0  0  0  0  0  0  0999 V2000
   17.2817   24.3247   16.2395 C   0  0  0  0  0  0  0  0  0  0  0  0
   15.9992   22.4996   15.1613 C   0  0  0  0  0  0  0  0  0  0  0  0
   16.1099   23.7797   15.5518 N   0  0  0  0  0  0  0  0  0  0  0  0
   16.8699   21.6603   15.3364 O   0  0  0  0  0  0  0  0  0  0  0  0
   15.3585   24.3877   15.3646 H   0  0  0  0  0  0  0  0  0  0  0  0
   14.8192   22.1847   14.5759 O   0  0  0  0  0  0  0  0  0  0  0  0
   12.6569   20.3264   12.8081 O   0  0  0  0  0  0  0  0  0  0  0  0
   12.6198   20.5003   14.2180 C   0  0  0  0  0  0  0  0  0  0  0  0
   12.2094   21.9664   14.4169 C   0  0  0  0  0  0  0  0  0  0  0  0
   12.8915   22.6637   13.2361 C   0  0  0  0  0  0  0  0  0  0  0  0
   14.3182   23.1097   13.6014 C   0  0  0  0  0  0  0  0  0  0  0  0
   15.0292   22.7843   12.2735 C   0  0  0  0  0  0  0  0  0  0  0  0
   14.4806   21.5074   11.9120 O   0  0  0  0  0  0  0  0  0  0  0  0
   13.0854   21.5548   12.2163 C   0  0  0  0  0  0  0  0  0  0  0  0
   17.0041   24.4557   17.7407 C   0  0  0  0  0  0  0  0  0  0  0  0
   16.5164   25.7592   18.0600 O   0  0  0  0  0  0  0  0  0  0  0  0
   17.1935   26.4195   17.8447 H   0  0  0  0  0  0  0  0  0  0  0  0
   18.2574   24.1628   18.5840 C   0  0  0  0  0  0  0  0  0  0  0  0
   17.8846   23.3738   19.7478 N   0  0  0  0  0  0  0  0  0  0  0  0
   18.9720   21.4896   18.4455 O   0  0  0  0  0  0  0  0  0  0  0  0
   17.9547   21.7516   19.5110 S   0  0  0  0  0  0  0  0  0  0  0  0
   18.3003   21.0701   20.7996 O   0  0  0  0  0  0  0  0  0  0  0  0
   13.9600   20.2595   18.0422 C   0  0  0  0  0  0  0  0  0  0  0  0
   16.3207   19.9072   18.3822 C   0  0  0  0  0  0  0  0  0  0  0  0
   15.3018   22.0316   18.9523 C   0  0  0  0  0  0  0  0  0  0  0  0
   14.0628   21.5778   18.4908 C   0  0  0  0  0  0  0  0  0  0  0  0
   15.0749   19.4262   18.0003 C   0  0  0  0  0  0  0  0  0  0  0  0
   16.3901   21.1683   18.9668 C   0  0  0  0  0  0  0  0  0  0  0  0
   12.7715   19.7694   17.6040 O   0  0  0  0  0  0  0  0  0  0  0  0
   12.0529   19.0972   18.6342 C   0  0  0  0  0  0  0  0  0  0  0  0
   18.4357   23.7838   21.0146 C   0  0  0  0  0  0  0  0  0  0  0  0
   20.3031   25.4442   20.5673 C   0  0  0  0  0  0  0  0  0  0  0  0
   21.6472   25.7685   20.4186 C   0  0  0  0  0  0  0  0  0  0  0  0
   22.6284   24.8045   20.6037 C   0  0  0  0  0  0  0  0  0  0  0  0
   22.2465   23.5186   20.9798 C   0  0  0  0  0  0  0  0  0  0  0  0
   20.9027   23.1894   21.1149 C   0  0  0  0  0  0  0  0  0  0  0  0
   19.9216   24.1481   20.9019 C   0  0  0  0  0  0  0  0  0  0  0  0
   17.5499   25.6941   15.5891 C   0  0  0  0  0  0  0  0  0  0  0  0
   18.9995   26.1533   15.3791 C   0  0  0  0  0  0  0  0  0  0  0  0
   19.8188   25.0031   14.8266 C   0  0  0  0  0  0  0  0  0  0  0  0
   21.2615   25.4700   14.6140 C   0  0  0  0  0  0  0  0  0  0  0  0
   21.8537   26.0012   15.9285 C   0  0  0  0  0  0  0  0  0  0  0  0
   21.0136   27.1522   16.4767 C   0  0  0  0  0  0  0  0  0  0  0  0
   21.0008   28.2915   15.4541 C   0  0  0  0  0  0  0  0  0  0  0  0
   20.4310   27.7748   14.1338 C   0  0  0  0  0  0  0  0  0  0  0  0
   18.9909   27.2992   14.3544 C   0  0  0  0  0  0  0  0  0  0  0  0
   19.5782   26.6555   16.6959 C   0  0  0  0  0  0  0  0  0  0  0  0
   21.2555   26.6079   13.5795 C   0  0  0  0  0  0  0  0  0  0  0  0
 44 45  1  0  0  0
 44 43  1  0  0  0
 45 48  1  0  0  0
 45 46  1  0  0  0
 48 41  1  0  0  0
 46 39  1  0  0  0
 43 42  1  0  0  0
 43 47  1  0  0  0
 42 41  1  0  0  0
 41 40  1  0  0  0
 47 39  1  0  0  0
 39 40  1  0  0  0
 39 38  1  0  0  0
 27 24  2  0  0  0
 27 23  1  0  0  0
 29 23  1  0  0  0
 29 30  1  0  0  0
 24 28  1  0  0  0
 23 26  2  0  0  0
 22 21  2  0  0  0
 26 25  1  0  0  0
 38  1  1  0  0  0
 28 25  2  0  0  0
 28 21  1  0  0  0
 21 20  2  0  0  0
 21 19  1  0  0  0
  1  3  1  0  0  0
  1 15  1  0  0  0
  9  8  1  0  0  0
  9 10  1  0  0  0
 18 19  1  0  0  0
 18 15  1  0  0  0
  8  7  1  0  0  0
 19 31  1  0  0  0
  3  2  1  0  0  0
 15 16  1  0  0  0
  4  2  2  0  0  0
  2  6  1  0  0  0
 10 11  1  0  0  0
 10 14  1  0  0  0
  7 14  1  0  0  0
 31 37  1  0  0  0
  6 11  1  0  0  0
 11 12  1  0  0  0
 14 13  1  0  0  0
 37 36  2  0  0  0
 37 32  1  0  0  0
 36 35  1  0  0  0
 32 33  2  0  0  0
 13 12  1  0  0  0
 35 34  2  0  0  0
 33 34  1  0  0  0
 16 17  1  0  0  0
  3  5  1  0  0  0
M  END
> <minimizedAffinity>
-10.28693

$$$$
5JFU_6KQ_B_201


 48 54  0  0  0  0  0  0  0  0999 V2000
   16.9188   24.4280   16.5112 C   0  0  0  0  0  0  0  0  0  0  0  0
   15.8723   22.5434   15.2900 C   0  0  0  0  0  0  0  0  0  0  0  0
   15.8546   23.8182   15.7121 N   0  0  0  0  0  0  0  0  0  0  0  0
   16.7833   21.7641   15.5266 O   0  0  0  0  0  0  0  0  0  0  0  0
   15.0801   24.3755   15.4698 H   0  0  0  0  0  0  0  0  0  0  0  0
   14.7741   22.1598   14.5962 O   0  0  0  0  0  0  0  0  0  0  0  0
   12.8113   20.2153   12.6936 O   0  0  0  0  0  0  0  0  0  0  0  0
   12.6724   20.3890   14.0971 C   0  0  0  0  0  0  0  0  0  0  0  0
   12.1917   21.8378   14.2626 C   0  0  0  0  0  0  0  0  0  0  0  0
   12.9237   22.5605   13.1278 C   0  0  0  0  0  0  0  0  0  0  0  0
   14.3038   23.0633   13.5868 C   0  0  0  0  0  0  0  0  0  0  0  0
   15.1150   22.7651   12.3109 C   0  0  0  0  0  0  0  0  0  0  0  0
   14.6431   21.4670   11.9180 O   0  0  0  0  0  0  0  0  0  0  0  0
   13.2298   21.4593   12.1275 C   0  0  0  0  0  0  0  0  0  0  0  0
   16.4227   24.7058   17.9341 C   0  0  0  0  0  0  0  0  0  0  0  0
   16.0937   26.0850   18.1022 O   0  0  0  0  0  0  0  0  0  0  0  0
   16.8895   26.6250   17.9758 H   0  0  0  0  0  0  0  0  0  0  0  0
   17.4617   24.2996   18.9939 C   0  0  0  0  0  0  0  0  0  0  0  0
   17.6501   22.8576   18.9598 N   0  0  0  0  0  0  0  0  0  0  0  0
   19.2864   21.0361   19.6182 O   0  0  0  0  0  0  0  0  0  0  0  0
   19.2213   22.3843   18.9725 S   0  0  0  0  0  0  0  0  0  0  0  0
   19.7513   22.3642   17.5714 O   0  0  0  0  0  0  0  0  0  0  0  0
   21.5991   25.3476   21.4027 C   0  0  0  0  0  0  0  0  0  0  0  0
   19.8240   23.7232   21.2506 C   0  0  0  0  0  0  0  0  0  0  0  0
   21.1097   24.3245   19.2856 C   0  0  0  0  0  0  0  0  0  0  0  0
   21.8444   25.2506   20.0316 C   0  0  0  0  0  0  0  0  0  0  0  0
   20.6076   24.5819   22.0109 C   0  0  0  0  0  0  0  0  0  0  0  0
   20.1701   23.5201   19.9180 C   0  0  0  0  0  0  0  0  0  0  0  0
   22.3031   26.2190   22.1708 O   0  0  0  0  0  0  0  0  0  0  0  0
   23.6926   26.2133   21.8567 C   0  0  0  0  0  0  0  0  0  0  0  0
   16.8169   22.0725   19.8348 C   0  0  0  0  0  0  0  0  0  0  0  0
   16.0510   19.9411   18.6880 C   0  0  0  0  0  0  0  0  0  0  0  0
   15.1319   19.2112   17.9420 C   0  0  0  0  0  0  0  0  0  0  0  0
   13.9276   19.7823   17.5553 C   0  0  0  0  0  0  0  0  0  0  0  0
   13.6385   21.0835   17.9605 C   0  0  0  0  0  0  0  0  0  0  0  0
   14.5622   21.8191   18.6939 C   0  0  0  0  0  0  0  0  0  0  0  0
   15.7780   21.2555   19.0560 C   0  0  0  0  0  0  0  0  0  0  0  0
   17.3010   25.7270   15.7785 C   0  0  0  0  0  0  0  0  0  0  0  0
   18.7813   26.0242   15.5022 C   0  0  0  0  0  0  0  0  0  0  0  0
   19.4526   24.7800   14.9537 C   0  0  0  0  0  0  0  0  0  0  0  0
   20.9268   25.0855   14.6750 C   0  0  0  0  0  0  0  0  0  0  0  0
   21.6232   25.5836   15.9508 C   0  0  0  0  0  0  0  0  0  0  0  0
   20.9312   26.8307   16.4956 C   0  0  0  0  0  0  0  0  0  0  0  0
   20.9978   27.9389   15.4415 C   0  0  0  0  0  0  0  0  0  0  0  0
   20.3251   27.4526   14.1586 C   0  0  0  0  0  0  0  0  0  0  0  0
   18.8528   27.1384   14.4456 C   0  0  0  0  0  0  0  0  0  0  0  0
   19.4612   26.4949   16.7817 C   0  0  0  0  0  0  0  0  0  0  0  0
   20.9997   26.1913   13.6086 C   0  0  0  0  0  0  0  0  0  0  0  0
 44 45  1  0  0  0
 44 43  1  0  0  0
 45 48  1  0  0  0
 45 46  1  0  0  0
 48 41  1  0  0  0
 46 39  1  0  0  0
 43 42  1  0  0  0
 43 47  1  0  0  0
 42 41  1  0  0  0
 41 40  1  0  0  0
 47 39  1  0  0  0
 39 40  1  0  0  0
 39 38  1  0  0  0
 27 24  2  0  0  0
 27 23  1  0  0  0
 29 23  1  0  0  0
 29 30  1  0  0  0
 24 28  1  0  0  0
 23 26  2  0  0  0
 22 21  2  0  0  0
 26 25  1  0  0  0
 38  1  1  0  0  0
 28 25  2  0  0  0
 28 21  1  0  0  0
 21 20  2  0  0  0
 21 19  1  0  0  0
  1  3  1  0  0  0
  1 15  1  0  0  0
  9  8  1  0  0  0
  9 10  1  0  0  0
 18 19  1  0  0  0
 18 15  1  0  0  0
  8  7  1  0  0  0
 19 31  1  0  0  0
  3  2  1  0  0  0
 15 16  1  0  0  0
  4  2  2  0  0  0
  2  6  1  0  0  0
 10 11  1  0  0  0
 10 14  1  0  0  0
  7 14  1  0  0  0
 31 37  1  0  0  0
  6 11  1  0  0  0
 11 12  1  0  0  0
 14 13  1  0  0  0
 37 36  2  0  0  0
 37 32  1  0  0  0
 36 35  1  0  0  0
 32 33  2  0  0  0
 13 12  1  0  0  0
 35 34  2  0  0  0
 33 34  1  0  0  0
 16 17  1  0  0  0
  3  5  1  0  0  0
M  END
> <minimizedAffinity>
-10.27723

$$$$
