5JFU_6KQ_B_201
  RCSB PDB12061718253D
Coordinates from PDB:5JFU:B:201 Model:1 without hydrogens
 46 52  0  0  0  0            999 V2000
   21.2020   27.7500   14.8740   C 0  0  0  0  0  0  0  0  0  0  0  0
   19.1050   26.5640   14.7810   C 0  0  0  0  0  0  0  0  0  0  0  0
   21.0220   25.5830   15.8940   C 0  0  0  0  0  0  0  0  0  0  0  0
   21.8070   26.6860   15.5460   C 0  0  0  0  0  0  0  0  0  0  0  0
   19.5920   22.9920   16.1900   O 0  0  0  0  0  0  0  0  0  0  0  0
   17.8940   24.4430   17.3900   N 0  0  0  0  0  0  0  0  0  0  0  0
   16.5910   25.0680   17.2240   C 0  0  0  0  0  0  0  0  0  0  0  0
   15.5040   24.1500   17.8100   C 0  0  0  0  0  0  0  0  0  0  0  0
   14.3280   24.9180   18.0670   O 0  0  0  0  0  0  0  0  0  0  0  0
   14.5520   20.8560   18.0140   C 0  0  0  0  0  0  0  0  0  0  0  0
   10.4980   18.7660   18.3560   O 0  0  0  0  0  0  0  0  0  0  0  0
   11.1540   19.4680   17.3090   C 0  0  0  0  0  0  0  0  0  0  0  0
   12.3330   18.5660   16.9170   C 0  0  0  0  0  0  0  0  0  0  0  0
   12.7410   17.9530   18.2600   C 0  0  0  0  0  0  0  0  0  0  0  0
   14.5390   23.4250   15.5730   C 0  0  0  0  0  0  0  0  0  0  0  0
   21.9210   28.8510   14.5340   O 0  0  0  0  0  0  0  0  0  0  0  0
   23.2390   28.8220   15.0740   C 0  0  0  0  0  0  0  0  0  0  0  0
   19.8600   27.6970   14.5060   C 0  0  0  0  0  0  0  0  0  0  0  0
   19.6690   25.5730   15.5790   C 0  0  0  0  0  0  0  0  0  0  0  0
   18.6930   24.1700   15.9830   S 0  0  0  0  0  0  0  0  0  0  0  0
   17.7050   23.9380   14.8810   O 0  0  0  0  0  0  0  0  0  0  0  0
   18.7420   24.9740   18.4270   C 0  0  0  0  0  0  0  0  0  0  0  0
   20.4920   23.8880   19.9110   C 0  0  0  0  0  0  0  0  0  0  0  0
   20.9200   22.8790   20.7670   C 0  0  0  0  0  0  0  0  0  0  0  0
   20.0570   21.8570   21.1370   C 0  0  0  0  0  0  0  0  0  0  0  0
   18.7450   21.8810   20.6690   C 0  0  0  0  0  0  0  0  0  0  0  0
   18.3200   22.8810   19.8020   C 0  0  0  0  0  0  0  0  0  0  0  0
   19.1930   23.8870   19.4110   C 0  0  0  0  0  0  0  0  0  0  0  0
   15.1970   22.9660   16.8870   C 0  0  0  0  0  0  0  0  0  0  0  0
   14.2340   22.0640   17.5210   N 0  0  0  0  0  0  0  0  0  0  0  0
   15.6790   20.3850   17.9780   O 0  0  0  0  0  0  0  0  0  0  0  0
   13.5250   20.1920   18.5960   O 0  0  0  0  0  0  0  0  0  0  0  0
   13.7750   18.8340   18.9830   C 0  0  0  0  0  0  0  0  0  0  0  0
   13.2640   18.6830   20.4290   C 0  0  0  0  0  0  0  0  0  0  0  0
   11.8390   18.7880   20.2860   O 0  0  0  0  0  0  0  0  0  0  0  0
   11.4860   18.0590   19.1090   C 0  0  0  0  0  0  0  0  0  0  0  0
   14.2790   22.3950   14.4650   C 0  0  0  0  0  0  0  0  0  0  0  0
   13.0030   21.6350   14.7710   C 0  0  0  0  0  0  0  0  0  0  0  0
   12.7470   20.6140   13.6590   C 0  0  0  0  0  0  0  0  0  0  0  0
   13.9460   19.6640   13.5150   C 0  0  0  0  0  0  0  0  0  0  0  0
   15.2240   20.4440   13.2160   C 0  0  0  0  0  0  0  0  0  0  0  0
   15.0470   21.2060   11.9000   C 0  0  0  0  0  0  0  0  0  0  0  0
   13.8460   22.1430   12.0200   C 0  0  0  0  0  0  0  0  0  0  0  0
   14.1030   23.1560   13.1410   C 0  0  0  0  0  0  0  0  0  0  0  0
   15.4670   21.4480   14.3510   C 0  0  0  0  0  0  0  0  0  0  0  0
   12.5580   21.3750   12.3360   C 0  0  0  0  0  0  0  0  0  0  0  0
 42 43  1  0  0  0  0
 42 41  1  0  0  0  0
 43 46  1  0  0  0  0
 43 44  1  0  0  0  0
 46 39  1  0  0  0  0
 44 37  1  0  0  0  0
 41 40  1  0  0  0  0
 41 45  1  0  0  0  0
 40 39  1  0  0  0  0
 39 38  1  0  0  0  0
 45 37  1  0  0  0  0
 37 38  1  0  0  0  0
 37 15  1  0  0  0  0
 18  2  2  0  0  0  0
 18  1  1  0  0  0  0
 16  1  1  0  0  0  0
 16 17  1  0  0  0  0
  2 19  1  0  0  0  0
  1  4  2  0  0  0  0
 21 20  2  0  0  0  0
  4  3  1  0  0  0  0
 15 29  1  0  0  0  0
 19  3  2  0  0  0  0
 19 20  1  0  0  0  0
 20  5  2  0  0  0  0
 20  6  1  0  0  0  0
 29 30  1  0  0  0  0
 29  8  1  0  0  0  0
 13 12  1  0  0  0  0
 13 14  1  0  0  0  0
  7  6  1  0  0  0  0
  7  8  1  0  0  0  0
 12 11  1  0  0  0  0
  6 22  1  0  0  0  0
 30 10  1  0  0  0  0
  8  9  1  0  0  0  0
 31 10  2  0  0  0  0
 10 32  1  0  0  0  0
 14 33  1  0  0  0  0
 14 36  1  0  0  0  0
 11 36  1  0  0  0  0
 22 28  1  0  0  0  0
 32 33  1  0  0  0  0
 33 34  1  0  0  0  0
 36 35  1  0  0  0  0
 28 27  2  0  0  0  0
 28 23  1  0  0  0  0
 27 26  1  0  0  0  0
 23 24  2  0  0  0  0
 35 34  1  0  0  0  0
 26 25  2  0  0  0  0
 24 25  1  0  0  0  0
A    1
C2
A    2
C4
A    3
C6
A    4
C7
A    5
O10
A    6
N11
A    7
C16
A    8
C17
A    9
O18
A   10
C21
A   11
O28
A   12
C29
A   13
C30
A   14
C31
A   15
C32
A   16
O39
A   17
C40
A   18
C3
A   19
C5
A   20
S8
A   21
O9
A   22
C42
A   23
C43
A   24
C44
A   25
C45
A   26
C46
A   27
C47
A   28
C48
A   29
C19
A   30
N20
A   31
O22
A   32
O23
A   33
C24
A   34
C25
A   35
O26
A   36
C27
A   37
C51
A   38
C52
A   39
C53
A   40
C54
A   41
C55
A   42
C56
A   43
C57
A   44
C58
A   45
C59
A   46
C60
M  END
>  <InstanceId>
5JFU_6KQ_B_201

>  <ChemCompId>
6KQ

>  <PdbId>
5JFU

>  <ChainId>
B

>  <ResidueNumber>
201

>  <InsertionCode>


>  <Model>
1

>  <AltIds>


>  <MissingHeavyAtoms>
0

>  <ObservedFormula>
C35 N2 O8 S

>  <Name>
(3R,3aS,6aR)-hexahydrofuro[2,3-b]furan-3-yl {(2S,3R)-4-{benzyl[(4-methoxyphenyl)sulfonyl]amino}-3-hydroxy-1-[(3R,5R,7R)-tricyclo[3.3.1.1~3,7~]decan-1-yl]butan-2-yl}carbamate

>  <SystematicName>
[(3~{a}~{S},4~{R},6~{a}~{R})-2,3,3~{a},4,5,6~{a}-hexahydrofuro[2,3-b]furan-4-yl] ~{N}-[(2~{S},3~{R})-1-(1-adamantyl)-4-[(4-methoxyphenyl)sulfonyl-(phenylmethyl)amino]-3-oxidanyl-butan-2-yl]carbamate

>  <Synonyms>


>  <Type>
NON-POLYMER

>  <Formula>
C35 H46 N2 O8 S

>  <MolecularWeight>
654.813

>  <ModifiedDate>
2016-09-16

>  <Parent>


>  <OneLetterCode>


>  <SubcomponentList>


>  <AmbiguousFlag>
N

>  <InChI>
InChI=1S/C35H46N2O8S/c1-42-27-7-9-28(10-8-27)46(40,41)37(20-23-5-3-2-4-6-23)21-31(38)30(19-35-16-24-13-25(17-35)15-26(14-24)18-35)36-34(39)45-32-22-44-33-29(32)11-12-43-33/h2-10,24-26,29-33,38H,11-22H2,1H3,(H,36,39)/t24-,25+,26-,29-,30-,31+,32-,33+,35-/m0/s1

>  <InChIKey>
VFCWWTCOEZADQB-VTBYYCNJSA-N

>  <SMILES>
COc1ccc(cc1)S(=O)(=O)N(Cc2ccccc2)C[C@H]([C@H](CC34CC5CC(C3)CC(C5)C4)NC(=O)O[C@H]6CO[C@@H]7[C@H]6CCO7)O

$$$$
