4PVY_JD1_F_404


 31 32  0  0  0  0  0  0  0  0999 V2000
   15.0814   31.3878   -7.6244 C   0  0  0  0  0  0  0  0  0  0  0  0
   15.8192   30.2774   -7.2185 C   0  0  0  0  0  0  0  0  0  0  0  0
   13.8412   31.1602   -8.2141 C   0  0  0  0  0  0  0  0  0  0  0  0
   13.3902   29.8926   -8.3777 N   0  0  0  0  0  0  0  0  0  0  0  0
   14.1339   28.8130   -7.9801 C   0  0  0  0  0  0  0  0  0  0  0  0
   15.3681   28.9627   -7.3786 C   0  0  0  0  0  0  0  0  0  0  0  0
   16.1428   27.8351   -6.9826 C   0  0  0  0  0  0  0  0  0  0  0  0
   16.1098   26.6009   -7.6805 C   0  0  0  0  0  0  0  0  0  0  0  0
   16.9312   25.5233   -7.2832 C   0  0  0  0  0  0  0  0  0  0  0  0
   16.9849   27.8827   -5.8705 C   0  0  0  0  0  0  0  0  0  0  0  0
   17.7674   26.7982   -5.4419 C   0  0  0  0  0  0  0  0  0  0  0  0
   17.7623   25.5994   -6.1341 C   0  0  0  0  0  0  0  0  0  0  0  0
   18.5965   24.6213   -5.6709 O   0  0  0  0  0  0  0  0  0  0  0  0
   19.2898   24.7985   -4.4392 C   0  0  0  0  0  0  0  0  0  0  0  0
   19.3219   23.4765   -3.6915 C   0  0  0  0  0  0  0  0  0  0  0  0
   20.6746   25.1293   -4.7930 C   0  0  0  0  0  0  0  0  0  0  0  0
   15.5987   32.6137   -7.4936 N   0  0  0  0  0  0  0  0  0  0  0  0
   16.3107   32.7568   -6.8289 H   0  0  0  0  0  0  0  0  0  0  0  0
   15.1453   33.7653   -8.3071 C   0  0  0  0  0  0  0  0  0  0  0  0
   15.5518   34.4220  -10.9536 O   0  0  0  0  0  0  0  0  0  0  0  0
   16.3234   34.0468   -9.6676 P   0  0  0  0  0  0  0  0  0  0  0  0
   17.0549   32.7965   -9.9287 O   0  0  0  0  0  0  0  0  0  0  0  0
   17.1151   35.3075   -9.3916 O   0  0  0  0  0  0  0  0  0  0  0  0
   16.1812   34.5713  -11.6764 H   0  0  0  0  0  0  0  0  0  0  0  0
   17.6855   32.9359  -10.6524 H   0  0  0  0  0  0  0  0  0  0  0  0
   14.9671   35.1986   -7.1362 P   0  0  0  0  0  0  0  0  0  0  0  0
   14.5907   36.3505   -8.0026 O   0  0  0  0  0  0  0  0  0  0  0  0
   13.8643   34.9067   -6.1868 O   0  0  0  0  0  0  0  0  0  0  0  0
   16.3008   35.4337   -6.5511 O   0  0  0  0  0  0  0  0  0  0  0  0
   13.7137   36.1937   -8.3861 H   0  0  0  0  0  0  0  0  0  0  0  0
   16.5436   34.6825   -5.9875 H   0  0  0  0  0  0  0  0  0  0  0  0
 23 21  2  0  0  0
 22 21  1  0  0  0
 21 20  1  0  0  0
 21 19  1  0  0  0
  4  3  2  0  0  0
  4  5  1  0  0  0
  3  1  1  0  0  0
  5  6  2  0  0  0
 19 17  1  0  0  0
 19 26  1  0  0  0
 28 26  2  0  0  0
  1 17  1  0  0  0
  1  2  2  0  0  0
 10 11  2  0  0  0
 10  7  1  0  0  0
  6  2  1  0  0  0
  6  7  1  0  0  0
 11 12  1  0  0  0
 26 27  1  0  0  0
 26 29  1  0  0  0
  7  8  2  0  0  0
 12 13  1  0  0  0
 12  9  2  0  0  0
  8  9  1  0  0  0
 13 14  1  0  0  0
 16 14  1  0  0  0
 14 15  1  0  0  0
 20 24  1  0  0  0
 22 25  1  0  0  0
 27 30  1  0  0  0
 29 31  1  0  0  0
 17 18  1  0  0  0
M  END
> <minimizedAffinity>
-12.17927

$$$$
4PVY_JD1_F_404


 31 32  0  0  0  0  0  0  0  0999 V2000
   15.0188   31.4209   -7.6870 C   0  0  0  0  0  0  0  0  0  0  0  0
   15.7555   30.3428   -7.1998 C   0  0  0  0  0  0  0  0  0  0  0  0
   13.9080   31.1409   -8.4777 C   0  0  0  0  0  0  0  0  0  0  0  0
   13.5763   29.8555   -8.7508 N   0  0  0  0  0  0  0  0  0  0  0  0
   14.3179   28.8088   -8.2700 C   0  0  0  0  0  0  0  0  0  0  0  0
   15.4263   29.0102   -7.4710 C   0  0  0  0  0  0  0  0  0  0  0  0
   16.2020   27.9178   -6.9881 C   0  0  0  0  0  0  0  0  0  0  0  0
   17.1066   28.0422   -5.9029 C   0  0  0  0  0  0  0  0  0  0  0  0
   17.8201   26.9218   -5.4240 C   0  0  0  0  0  0  0  0  0  0  0  0
   16.1155   26.6500   -7.5655 C   0  0  0  0  0  0  0  0  0  0  0  0
   16.8591   25.5433   -7.1245 C   0  0  0  0  0  0  0  0  0  0  0  0
   17.7231   25.6497   -6.0480 C   0  0  0  0  0  0  0  0  0  0  0  0
   18.3620   24.5058   -5.6603 O   0  0  0  0  0  0  0  0  0  0  0  0
   19.2975   24.5395   -4.5866 C   0  0  0  0  0  0  0  0  0  0  0  0
   18.5449   24.6864   -3.2753 C   0  0  0  0  0  0  0  0  0  0  0  0
   19.9466   23.2240   -4.5680 C   0  0  0  0  0  0  0  0  0  0  0  0
   15.4239   32.6701   -7.4366 N   0  0  0  0  0  0  0  0  0  0  0  0
   15.9677   32.8377   -6.6332 H   0  0  0  0  0  0  0  0  0  0  0  0
   15.0886   33.8125   -8.3176 C   0  0  0  0  0  0  0  0  0  0  0  0
   16.9315   32.5510   -9.9341 O   0  0  0  0  0  0  0  0  0  0  0  0
   16.3379   33.9471   -9.6365 P   0  0  0  0  0  0  0  0  0  0  0  0
   17.4324   34.8122   -9.1673 O   0  0  0  0  0  0  0  0  0  0  0  0
   15.6522   34.2871  -10.9429 O   0  0  0  0  0  0  0  0  0  0  0  0
   17.5963   32.6254  -10.6366 H   0  0  0  0  0  0  0  0  0  0  0  0
   18.1037   34.8904   -9.8631 H   0  0  0  0  0  0  0  0  0  0  0  0
   14.9683   35.3070   -7.2181 P   0  0  0  0  0  0  0  0  0  0  0  0
   13.9519   34.9414   -6.1922 O   0  0  0  0  0  0  0  0  0  0  0  0
   16.2820   35.5265   -6.5633 O   0  0  0  0  0  0  0  0  0  0  0  0
   14.4532   36.4067   -8.0558 O   0  0  0  0  0  0  0  0  0  0  0  0
   14.2928   34.2183   -5.6428 H   0  0  0  0  0  0  0  0  0  0  0  0
   15.1165   36.6430   -8.7229 H   0  0  0  0  0  0  0  0  0  0  0  0
 23 21  2  0  0  0
 22 21  1  0  0  0
 21 20  1  0  0  0
 21 19  1  0  0  0
  4  3  2  0  0  0
  4  5  1  0  0  0
  3  1  1  0  0  0
  5  6  2  0  0  0
 19 17  1  0  0  0
 19 26  1  0  0  0
 28 26  2  0  0  0
  1 17  1  0  0  0
  1  2  2  0  0  0
 10 11  2  0  0  0
 10  7  1  0  0  0
  6  2  1  0  0  0
  6  7  1  0  0  0
 11 12  1  0  0  0
 26 27  1  0  0  0
 26 29  1  0  0  0
  7  8  2  0  0  0
 12 13  1  0  0  0
 12  9  2  0  0  0
  8  9  1  0  0  0
 13 14  1  0  0  0
 16 14  1  0  0  0
 14 15  1  0  0  0
 20 24  1  0  0  0
 22 25  1  0  0  0
 27 30  1  0  0  0
 29 31  1  0  0  0
 17 18  1  0  0  0
M  END
> <minimizedAffinity>
-11.42038

$$$$
4PVY_JD1_F_404


 31 32  0  0  0  0  0  0  0  0999 V2000
   15.0131   30.8726   -7.5767 C   0  0  0  0  0  0  0  0  0  0  0  0
   15.7173   29.8164   -7.0014 C   0  0  0  0  0  0  0  0  0  0  0  0
   14.3232   30.6221   -8.7594 C   0  0  0  0  0  0  0  0  0  0  0  0
   14.3522   29.3852   -9.3129 N   0  0  0  0  0  0  0  0  0  0  0  0
   15.0574   28.3615   -8.7372 C   0  0  0  0  0  0  0  0  0  0  0  0
   15.7567   28.5336   -7.5587 C   0  0  0  0  0  0  0  0  0  0  0  0
   16.5008   27.4690   -6.9746 C   0  0  0  0  0  0  0  0  0  0  0  0
   16.4667   26.1442   -7.4799 C   0  0  0  0  0  0  0  0  0  0  0  0
   17.2583   25.1286   -6.9006 C   0  0  0  0  0  0  0  0  0  0  0  0
   17.3120   27.6730   -5.8572 C   0  0  0  0  0  0  0  0  0  0  0  0
   18.0638   26.6558   -5.2470 C   0  0  0  0  0  0  0  0  0  0  0  0
   18.0580   25.3665   -5.7513 C   0  0  0  0  0  0  0  0  0  0  0  0
   18.8623   24.4591   -5.1214 O   0  0  0  0  0  0  0  0  0  0  0  0
   19.7099   24.8756   -4.0551 C   0  0  0  0  0  0  0  0  0  0  0  0
   19.6928   23.8188   -2.9639 C   0  0  0  0  0  0  0  0  0  0  0  0
   21.0703   24.9096   -4.6032 C   0  0  0  0  0  0  0  0  0  0  0  0
   15.0661   32.0875   -7.0213 N   0  0  0  0  0  0  0  0  0  0  0  0
   15.7572   32.2666   -6.3434 H   0  0  0  0  0  0  0  0  0  0  0  0
   14.1284   33.1752   -7.3835 C   0  0  0  0  0  0  0  0  0  0  0  0
   15.9648   35.0038   -6.4430 O   0  0  0  0  0  0  0  0  0  0  0  0
   15.0641   34.7125   -7.6652 P   0  0  0  0  0  0  0  0  0  0  0  0
   14.1139   35.8284   -7.8019 O   0  0  0  0  0  0  0  0  0  0  0  0
   16.0809   34.4856   -8.7638 O   0  0  0  0  0  0  0  0  0  0  0  0
   16.4619   35.8227   -6.5955 H   0  0  0  0  0  0  0  0  0  0  0  0
   14.6027   36.6527   -7.9524 H   0  0  0  0  0  0  0  0  0  0  0  0
   12.8824   33.2756   -6.0070 P   0  0  0  0  0  0  0  0  0  0  0  0
   12.4897   34.7116   -5.9559 O   0  0  0  0  0  0  0  0  0  0  0  0
   11.7040   32.4482   -6.3670 O   0  0  0  0  0  0  0  0  0  0  0  0
   13.5937   32.9120   -4.7667 O   0  0  0  0  0  0  0  0  0  0  0  0
   12.0222   34.9483   -6.7723 H   0  0  0  0  0  0  0  0  0  0  0  0
   13.8484   31.9767   -4.8024 H   0  0  0  0  0  0  0  0  0  0  0  0
 23 21  2  0  0  0
 22 21  1  0  0  0
 21 20  1  0  0  0
 21 19  1  0  0  0
  4  3  2  0  0  0
  4  5  1  0  0  0
  3  1  1  0  0  0
  5  6  2  0  0  0
 19 17  1  0  0  0
 19 26  1  0  0  0
 28 26  2  0  0  0
  1 17  1  0  0  0
  1  2  2  0  0  0
 10 11  2  0  0  0
 10  7  1  0  0  0
  6  2  1  0  0  0
  6  7  1  0  0  0
 11 12  1  0  0  0
 26 27  1  0  0  0
 26 29  1  0  0  0
  7  8  2  0  0  0
 12 13  1  0  0  0
 12  9  2  0  0  0
  8  9  1  0  0  0
 13 14  1  0  0  0
 16 14  1  0  0  0
 14 15  1  0  0  0
 20 24  1  0  0  0
 22 25  1  0  0  0
 27 30  1  0  0  0
 29 31  1  0  0  0
 17 18  1  0  0  0
M  END
> <minimizedAffinity>
-11.35151

$$$$
4PVY_JD1_F_404


 31 32  0  0  0  0  0  0  0  0999 V2000
   15.1990   30.5660   -7.7938 C   0  0  0  0  0  0  0  0  0  0  0  0
   15.9051   29.5956   -7.0852 C   0  0  0  0  0  0  0  0  0  0  0  0
   14.5676   30.1758   -8.9714 C   0  0  0  0  0  0  0  0  0  0  0  0
   14.6530   28.8907   -9.3933 N   0  0  0  0  0  0  0  0  0  0  0  0
   15.3593   27.9526   -8.6876 C   0  0  0  0  0  0  0  0  0  0  0  0
   16.0022   28.2647   -7.5058 C   0  0  0  0  0  0  0  0  0  0  0  0
   16.7481   27.2881   -6.7859 C   0  0  0  0  0  0  0  0  0  0  0  0
   17.5312   27.6092   -5.6479 C   0  0  0  0  0  0  0  0  0  0  0  0
   18.2163   26.6020   -4.9338 C   0  0  0  0  0  0  0  0  0  0  0  0
   16.7517   25.9455   -7.1675 C   0  0  0  0  0  0  0  0  0  0  0  0
   17.4704   24.9473   -6.4899 C   0  0  0  0  0  0  0  0  0  0  0  0
   18.2144   25.2477   -5.3617 C   0  0  0  0  0  0  0  0  0  0  0  0
   18.8354   24.2007   -4.7411 O   0  0  0  0  0  0  0  0  0  0  0  0
   20.0287   24.4193   -3.9945 C   0  0  0  0  0  0  0  0  0  0  0  0
   19.7584   24.1293   -2.5281 C   0  0  0  0  0  0  0  0  0  0  0  0
   20.9936   23.4184   -4.4629 C   0  0  0  0  0  0  0  0  0  0  0  0
   15.1960   31.8321   -7.3644 N   0  0  0  0  0  0  0  0  0  0  0  0
   16.0560   32.3041   -7.2813 H   0  0  0  0  0  0  0  0  0  0  0  0
   13.9528   32.5542   -7.0086 C   0  0  0  0  0  0  0  0  0  0  0  0
   14.3218   35.1799   -6.2537 O   0  0  0  0  0  0  0  0  0  0  0  0
   14.1032   34.3001   -7.5059 P   0  0  0  0  0  0  0  0  0  0  0  0
   12.8443   34.7232   -8.1407 O   0  0  0  0  0  0  0  0  0  0  0  0
   15.3999   34.4952   -8.2629 O   0  0  0  0  0  0  0  0  0  0  0  0
   14.4015   36.1089   -6.5211 H   0  0  0  0  0  0  0  0  0  0  0  0
   12.9142   35.6526   -8.4094 H   0  0  0  0  0  0  0  0  0  0  0  0
   13.6968   32.2940   -5.1855 P   0  0  0  0  0  0  0  0  0  0  0  0
   13.0351   30.9633   -5.0823 O   0  0  0  0  0  0  0  0  0  0  0  0
   15.0217   32.2458   -4.5183 O   0  0  0  0  0  0  0  0  0  0  0  0
   12.7659   33.3464   -4.7357 O   0  0  0  0  0  0  0  0  0  0  0  0
   13.6490   30.2731   -5.3785 H   0  0  0  0  0  0  0  0  0  0  0  0
   13.1989   34.2117   -4.8039 H   0  0  0  0  0  0  0  0  0  0  0  0
 23 21  2  0  0  0
 22 21  1  0  0  0
 21 20  1  0  0  0
 21 19  1  0  0  0
  4  3  2  0  0  0
  4  5  1  0  0  0
  3  1  1  0  0  0
  5  6  2  0  0  0
 19 17  1  0  0  0
 19 26  1  0  0  0
 28 26  2  0  0  0
  1 17  1  0  0  0
  1  2  2  0  0  0
 10 11  2  0  0  0
 10  7  1  0  0  0
  6  2  1  0  0  0
  6  7  1  0  0  0
 11 12  1  0  0  0
 26 27  1  0  0  0
 26 29  1  0  0  0
  7  8  2  0  0  0
 12 13  1  0  0  0
 12  9  2  0  0  0
  8  9  1  0  0  0
 13 14  1  0  0  0
 16 14  1  0  0  0
 14 15  1  0  0  0
 20 24  1  0  0  0
 22 25  1  0  0  0
 27 30  1  0  0  0
 29 31  1  0  0  0
 17 18  1  0  0  0
M  END
> <minimizedAffinity>
-10.35778

$$$$
4PVY_JD1_F_404


 31 32  0  0  0  0  0  0  0  0999 V2000
   13.9501   32.4061   -8.6609 C   0  0  0  0  0  0  0  0  0  0  0  0
   14.7841   31.3654   -8.2562 C   0  0  0  0  0  0  0  0  0  0  0  0
   12.5839   32.1494   -8.7334 C   0  0  0  0  0  0  0  0  0  0  0  0
   12.1067   30.9209   -8.4173 N   0  0  0  0  0  0  0  0  0  0  0  0
   12.9433   29.9076   -8.0298 C   0  0  0  0  0  0  0  0  0  0  0  0
   14.3080   30.0920   -7.9252 C   0  0  0  0  0  0  0  0  0  0  0  0
   15.1733   29.0294   -7.5374 C   0  0  0  0  0  0  0  0  0  0  0  0
   15.9458   29.0668   -6.3485 C   0  0  0  0  0  0  0  0  0  0  0  0
   16.7538   27.9703   -5.9763 C   0  0  0  0  0  0  0  0  0  0  0  0
   15.3125   27.8802   -8.3173 C   0  0  0  0  0  0  0  0  0  0  0  0
   16.1521   26.8073   -7.9765 C   0  0  0  0  0  0  0  0  0  0  0  0
   16.8876   26.8238   -6.8039 C   0  0  0  0  0  0  0  0  0  0  0  0
   17.6340   25.7116   -6.5334 O   0  0  0  0  0  0  0  0  0  0  0  0
   18.3126   25.5931   -5.2867 C   0  0  0  0  0  0  0  0  0  0  0  0
   18.3522   24.1304   -4.8787 C   0  0  0  0  0  0  0  0  0  0  0  0
   19.6971   26.0112   -5.5331 C   0  0  0  0  0  0  0  0  0  0  0  0
   14.4787   33.5809   -9.0182 N   0  0  0  0  0  0  0  0  0  0  0  0
   13.9922   34.1394   -9.6668 H   0  0  0  0  0  0  0  0  0  0  0  0
   15.7657   34.0773   -8.4789 C   0  0  0  0  0  0  0  0  0  0  0  0
   14.5653   36.5156   -8.0161 O   0  0  0  0  0  0  0  0  0  0  0  0
   15.4493   35.4516   -7.3259 P   0  0  0  0  0  0  0  0  0  0  0  0
   16.7318   36.0858   -6.9799 O   0  0  0  0  0  0  0  0  0  0  0  0
   14.5519   34.9691   -6.2060 O   0  0  0  0  0  0  0  0  0  0  0  0
   14.3983   37.2461   -7.4002 H   0  0  0  0  0  0  0  0  0  0  0  0
   16.5741   36.8198   -6.3656 H   0  0  0  0  0  0  0  0  0  0  0  0
   16.8111   34.5319   -9.9477 P   0  0  0  0  0  0  0  0  0  0  0  0
   15.8346   34.7831  -11.0442 O   0  0  0  0  0  0  0  0  0  0  0  0
   17.5498   35.7821   -9.6408 O   0  0  0  0  0  0  0  0  0  0  0  0
   17.6240   33.3439  -10.2708 O   0  0  0  0  0  0  0  0  0  0  0  0
   15.3014   35.5645  -10.8296 H   0  0  0  0  0  0  0  0  0  0  0  0
   18.2590   33.1823   -9.5556 H   0  0  0  0  0  0  0  0  0  0  0  0
 23 21  2  0  0  0
 22 21  1  0  0  0
 21 20  1  0  0  0
 21 19  1  0  0  0
  4  3  2  0  0  0
  4  5  1  0  0  0
  3  1  1  0  0  0
  5  6  2  0  0  0
 19 17  1  0  0  0
 19 26  1  0  0  0
 28 26  2  0  0  0
  1 17  1  0  0  0
  1  2  2  0  0  0
 10 11  2  0  0  0
 10  7  1  0  0  0
  6  2  1  0  0  0
  6  7  1  0  0  0
 11 12  1  0  0  0
 26 27  1  0  0  0
 26 29  1  0  0  0
  7  8  2  0  0  0
 12 13  1  0  0  0
 12  9  2  0  0  0
  8  9  1  0  0  0
 13 14  1  0  0  0
 16 14  1  0  0  0
 14 15  1  0  0  0
 20 24  1  0  0  0
 22 25  1  0  0  0
 27 30  1  0  0  0
 29 31  1  0  0  0
 17 18  1  0  0  0
M  END
> <minimizedAffinity>
-10.20252

$$$$
4PVY_JD1_F_404


 31 32  0  0  0  0  0  0  0  0999 V2000
   14.6128   31.4568   -8.0558 C   0  0  0  0  0  0  0  0  0  0  0  0
   15.4550   30.4653   -7.5558 C   0  0  0  0  0  0  0  0  0  0  0  0
   13.3915   31.0585   -8.5918 C   0  0  0  0  0  0  0  0  0  0  0  0
   13.0572   29.7453   -8.6159 N   0  0  0  0  0  0  0  0  0  0  0  0
   13.9022   28.7840   -8.1274 C   0  0  0  0  0  0  0  0  0  0  0  0
   15.1249   29.1058   -7.5717 C   0  0  0  0  0  0  0  0  0  0  0  0
   16.0052   28.0997   -7.0806 C   0  0  0  0  0  0  0  0  0  0  0  0
   16.8690   28.3116   -5.9758 C   0  0  0  0  0  0  0  0  0  0  0  0
   17.6906   27.2709   -5.4902 C   0  0  0  0  0  0  0  0  0  0  0  0
   16.0690   26.8355   -7.6688 C   0  0  0  0  0  0  0  0  0  0  0  0
   16.9198   25.8122   -7.2204 C   0  0  0  0  0  0  0  0  0  0  0  0
   17.7453   26.0018   -6.1253 C   0  0  0  0  0  0  0  0  0  0  0  0
   18.4972   24.9306   -5.7325 O   0  0  0  0  0  0  0  0  0  0  0  0
   19.1486   24.9416   -4.4658 C   0  0  0  0  0  0  0  0  0  0  0  0
   19.0725   23.5528   -3.8549 C   0  0  0  0  0  0  0  0  0  0  0  0
   20.5637   25.2186   -4.7357 C   0  0  0  0  0  0  0  0  0  0  0  0
   15.0166   32.7313   -8.0616 N   0  0  0  0  0  0  0  0  0  0  0  0
   15.4709   33.0787   -8.8630 H   0  0  0  0  0  0  0  0  0  0  0  0
   14.8090   33.6423   -6.9125 C   0  0  0  0  0  0  0  0  0  0  0  0
   12.7348   35.1338   -5.8762 O   0  0  0  0  0  0  0  0  0  0  0  0
   13.0265   33.7799   -6.5632 P   0  0  0  0  0  0  0  0  0  0  0  0
   12.6413   32.7083   -5.6305 O   0  0  0  0  0  0  0  0  0  0  0  0
   12.2696   33.9146   -7.8675 O   0  0  0  0  0  0  0  0  0  0  0  0
   11.7852   35.2046   -5.6913 H   0  0  0  0  0  0  0  0  0  0  0  0
   11.6929   32.7728   -5.4378 H   0  0  0  0  0  0  0  0  0  0  0  0
   15.6304   35.2492   -7.3601 P   0  0  0  0  0  0  0  0  0  0  0  0
   16.3800   34.9549   -8.6134 O   0  0  0  0  0  0  0  0  0  0  0  0
   14.5815   36.2634   -7.6322 O   0  0  0  0  0  0  0  0  0  0  0  0
   16.5813   35.5539   -6.2740 O   0  0  0  0  0  0  0  0  0  0  0  0
   15.7529   34.7549   -9.3258 H   0  0  0  0  0  0  0  0  0  0  0  0
   16.0910   35.7451   -5.4592 H   0  0  0  0  0  0  0  0  0  0  0  0
 23 21  2  0  0  0
 22 21  1  0  0  0
 21 20  1  0  0  0
 21 19  1  0  0  0
  4  3  2  0  0  0
  4  5  1  0  0  0
  3  1  1  0  0  0
  5  6  2  0  0  0
 19 17  1  0  0  0
 19 26  1  0  0  0
 28 26  2  0  0  0
  1 17  1  0  0  0
  1  2  2  0  0  0
 10 11  2  0  0  0
 10  7  1  0  0  0
  6  2  1  0  0  0
  6  7  1  0  0  0
 11 12  1  0  0  0
 26 27  1  0  0  0
 26 29  1  0  0  0
  7  8  2  0  0  0
 12 13  1  0  0  0
 12  9  2  0  0  0
  8  9  1  0  0  0
 13 14  1  0  0  0
 16 14  1  0  0  0
 14 15  1  0  0  0
 20 24  1  0  0  0
 22 25  1  0  0  0
 27 30  1  0  0  0
 29 31  1  0  0  0
 17 18  1  0  0  0
M  END
> <minimizedAffinity>
-9.94869

$$$$
4PVY_JD1_F_404


 31 32  0  0  0  0  0  0  0  0999 V2000
   14.3283   34.0298   -8.1705 C   0  0  0  0  0  0  0  0  0  0  0  0
   14.8107   32.7385   -7.9649 C   0  0  0  0  0  0  0  0  0  0  0  0
   13.0522   34.3262   -7.7002 C   0  0  0  0  0  0  0  0  0  0  0  0
   12.3238   33.3737   -7.0685 N   0  0  0  0  0  0  0  0  0  0  0  0
   12.8116   32.1070   -6.8835 C   0  0  0  0  0  0  0  0  0  0  0  0
   14.0726   31.7440   -7.3140 C   0  0  0  0  0  0  0  0  0  0  0  0
   14.5668   30.4207   -7.1325 C   0  0  0  0  0  0  0  0  0  0  0  0
   15.4635   30.0750   -6.0895 C   0  0  0  0  0  0  0  0  0  0  0  0
   15.8907   28.7405   -5.9156 C   0  0  0  0  0  0  0  0  0  0  0  0
   14.1935   29.3793   -7.9836 C   0  0  0  0  0  0  0  0  0  0  0  0
   14.6536   28.0597   -7.8447 C   0  0  0  0  0  0  0  0  0  0  0  0
   15.5066   27.7085   -6.8125 C   0  0  0  0  0  0  0  0  0  0  0  0
   15.8569   26.3903   -6.7293 O   0  0  0  0  0  0  0  0  0  0  0  0
   17.2298   26.0127   -6.7675 C   0  0  0  0  0  0  0  0  0  0  0  0
   17.8588   26.2852   -5.4118 C   0  0  0  0  0  0  0  0  0  0  0  0
   17.2491   24.5597   -6.9692 C   0  0  0  0  0  0  0  0  0  0  0  0
   15.0645   34.9138   -8.8517 N   0  0  0  0  0  0  0  0  0  0  0  0
   14.6331   35.4359   -9.5662 H   0  0  0  0  0  0  0  0  0  0  0  0
   16.5020   35.1402   -8.5762 C   0  0  0  0  0  0  0  0  0  0  0  0
   17.3481   37.6993   -9.1560 O   0  0  0  0  0  0  0  0  0  0  0  0
   16.7472   36.8540   -8.0095 P   0  0  0  0  0  0  0  0  0  0  0  0
   17.7107   36.8528   -6.8967 O   0  0  0  0  0  0  0  0  0  0  0  0
   15.3988   37.5106   -7.8022 O   0  0  0  0  0  0  0  0  0  0  0  0
   17.4777   38.6111   -8.8517 H   0  0  0  0  0  0  0  0  0  0  0  0
   17.8484   37.7618   -6.5873 H   0  0  0  0  0  0  0  0  0  0  0  0
   17.4113   34.7107  -10.1401 P   0  0  0  0  0  0  0  0  0  0  0  0
   18.8192   35.1253   -9.8853 O   0  0  0  0  0  0  0  0  0  0  0  0
   17.3520   33.2412  -10.3399 O   0  0  0  0  0  0  0  0  0  0  0  0
   16.8335   35.5488  -11.2079 O   0  0  0  0  0  0  0  0  0  0  0  0
   19.1969   34.5729   -9.1831 H   0  0  0  0  0  0  0  0  0  0  0  0
   15.9169   35.2770  -11.3719 H   0  0  0  0  0  0  0  0  0  0  0  0
 23 21  2  0  0  0
 22 21  1  0  0  0
 21 20  1  0  0  0
 21 19  1  0  0  0
  4  3  2  0  0  0
  4  5  1  0  0  0
  3  1  1  0  0  0
  5  6  2  0  0  0
 19 17  1  0  0  0
 19 26  1  0  0  0
 28 26  2  0  0  0
  1 17  1  0  0  0
  1  2  2  0  0  0
 10 11  2  0  0  0
 10  7  1  0  0  0
  6  2  1  0  0  0
  6  7  1  0  0  0
 11 12  1  0  0  0
 26 27  1  0  0  0
 26 29  1  0  0  0
  7  8  2  0  0  0
 12 13  1  0  0  0
 12  9  2  0  0  0
  8  9  1  0  0  0
 13 14  1  0  0  0
 16 14  1  0  0  0
 14 15  1  0  0  0
 20 24  1  0  0  0
 22 25  1  0  0  0
 27 30  1  0  0  0
 29 31  1  0  0  0
 17 18  1  0  0  0
M  END
> <minimizedAffinity>
-9.39172

$$$$
