2GSS_EAA_A_0
  RCSB PDB12061705433D
Coordinates from PDB:2GSS:A:0 Model:1 without hydrogens
 19 19  0  0  0  0            999 V2000
    7.9400    3.6820   25.9280   C 0  0  0  0  0  0  0  0  0  0  0  0
    8.9290    4.1010   25.0970   O 0  0  0  0  0  0  0  0  0  0  0  0
    8.2770    2.6700   26.8480   C 0  0  0  0  0  0  0  0  0  0  0  0
    9.9000    2.0990   26.8510  Cl 0  0  0  0  0  0  0  0  0  0  0  0
    7.3580    2.1900   27.7220   C 0  0  0  0  0  0  0  0  0  0  0  0
    7.8080    0.9230   28.8280  Cl 0  0  0  0  0  0  0  0  0  0  0  0
    6.0400    2.6530   27.7270   C 0  0  0  0  0  0  0  0  0  0  0  0
    5.7110    3.6480   26.8010   C 0  0  0  0  0  0  0  0  0  0  0  0
    6.6340    4.1410   25.9200   C 0  0  0  0  0  0  0  0  0  0  0  0
    5.0500    2.2350   28.7710   C 0  0  0  0  0  0  0  0  0  0  0  0
    4.5330    1.1470   28.7190   O 0  0  0  0  0  0  0  0  0  0  0  0
    4.7170    3.1410   29.9000   C 0  0  0  0  0  0  0  0  0  0  0  0
    4.9690    2.6060   31.2620   C 0  0  0  0  0  0  0  0  0  0  0  0
    5.6550    3.4510   32.2280   C 0  0  0  0  0  0  0  0  0  0  0  0
    4.1860    4.3020   29.6430   C 0  0  0  0  0  0  0  0  0  0  0  0
    8.6800    5.2280   24.2860   C 0  0  0  0  0  0  0  0  0  0  0  0
    9.9070    5.5890   23.5350   C 0  0  0  0  0  0  0  0  0  0  0  0
    9.8520    6.6840   22.9080   O 0  0  0  0  0  0  0  0  0  0  0  0
   10.9340    4.8540   23.5630   O 0  0  0  0  0  0  0  0  0  0  0  0
  1  2  1  0  0  0  0
  1  3  2  0  0  0  0
  1  9  1  0  0  0  0
  2 16  1  0  0  0  0
  3  4  1  0  0  0  0
  3  5  1  0  0  0  0
  5  6  1  0  0  0  0
  5  7  2  0  0  0  0
  7  8  1  0  0  0  0
  7 10  1  0  0  0  0
  8  9  2  0  0  0  0
 10 11  2  0  0  0  0
 10 12  1  0  0  0  0
 12 13  1  0  0  0  0
 12 15  2  0  0  0  0
 13 14  1  0  0  0  0
 16 17  1  0  0  0  0
 17 18  2  0  0  0  0
 17 19  1  0  0  0  0
A    1
C1
A    2
O2
A    3
C2
A    4
CL1
A    5
C3
A    6
CL2
A    7
C4
A    8
C5
A    9
C6
A   10
C7
A   11
O1
A   12
C8
A   13
C9
A   14
C10
A   15
C11
A   16
C12
A   17
C13
A   18
O
A   19
OXT
M  END
>  <InstanceId>
2GSS_EAA_A_0

>  <ChemCompId>
EAA

>  <PdbId>
2GSS

>  <ChainId>
A

>  <ResidueNumber>
0

>  <InsertionCode>


>  <Model>
1

>  <AltIds>


>  <MissingHeavyAtoms>
19

>  <ObservedFormula>
C13 O4 Cl2

>  <Name>
ETHACRYNIC ACID

>  <SystematicName>
2-[2,3-dichloro-4-(2-methylidenebutanoyl)phenoxy]ethanoic acid

>  <Synonyms>


>  <Type>
NON-POLYMER

>  <Formula>
C13 H12 Cl2 O4

>  <MolecularWeight>
303.138

>  <ModifiedDate>
2011-06-04

>  <Parent>


>  <OneLetterCode>


>  <SubcomponentList>


>  <AmbiguousFlag>
N

>  <InChI>
InChI=1S/C13H12Cl2O4/c1-3-7(2)13(18)8-4-5-9(12(15)11(8)14)19-6-10(16)17/h4-5H,2-3,6H2,1H3,(H,16,17)

>  <InChIKey>
AVOLMBLBETYQHX-UHFFFAOYSA-N

>  <SMILES>
CCC(=C)C(=O)c1ccc(c(c1Cl)Cl)OCC(=O)O

$$$$
