3O99_K13_A_200


 43 46  0  0  0  0  0  0  0  0999 V2000
   19.8694   29.6304   15.4230 C   0  0  0  0  0  0  0  0  0  0  0  0
   20.0040   28.5639   16.3724 O   0  0  0  0  0  0  0  0  0  0  0  0
   19.1593   28.0938   16.4527 H   0  0  0  0  0  0  0  0  0  0  0  0
   18.8192   30.6181   15.9425 C   0  0  0  0  0  0  0  0  0  0  0  0
   19.1128   31.9331   15.3565 N   0  0  0  0  0  0  0  0  0  0  0  0
   17.8888   32.5663   14.5041 S   0  0  0  0  0  0  0  0  0  0  0  0
   17.3427   31.5484   13.6667 O   0  0  0  0  0  0  0  0  0  0  0  0
   18.4921   33.5950   13.7126 O   0  0  0  0  0  0  0  0  0  0  0  0
   13.8787   34.9384   17.8903 N   0  0  0  0  0  0  0  0  0  0  0  0
   14.7935   34.3451   17.0999 C   0  0  0  0  0  0  0  0  0  0  0  0
   14.6689   33.0012   16.7375 C   0  0  0  0  0  0  0  0  0  0  0  0
   15.6568   32.4329   15.9226 C   0  0  0  0  0  0  0  0  0  0  0  0
   16.7457   33.1853   15.4698 C   0  0  0  0  0  0  0  0  0  0  0  0
   16.8364   34.5152   15.8465 C   0  0  0  0  0  0  0  0  0  0  0  0
   15.8691   35.0914   16.6631 C   0  0  0  0  0  0  0  0  0  0  0  0
   13.1026   34.4269   18.2147 H   0  0  0  0  0  0  0  0  0  0  0  0
   13.9861   35.8836   18.1438 H   0  0  0  0  0  0  0  0  0  0  0  0
   19.7118   32.8980   16.3113 C   0  0  0  0  0  0  0  0  0  0  0  0
   21.2040   33.0658   16.0329 C   0  0  0  0  0  0  0  0  0  0  0  0
   22.0992   32.3551   17.0573 C   0  0  0  0  0  0  0  0  0  0  0  0
   21.5079   32.6330   14.5908 C   0  0  0  0  0  0  0  0  0  0  0  0
   22.8841   32.0367   14.4301 C   0  0  0  0  0  0  0  0  0  0  0  0
   19.5529   29.0689   14.0297 C   0  0  0  0  0  0  0  0  0  0  0  0
   20.6925   28.2736   13.6280 N   0  0  0  0  0  0  0  0  0  0  0  0
   21.6450   28.6449   12.7845 C   0  0  0  0  0  0  0  0  0  0  0  0
   21.7419   29.7072   12.2106 O   0  0  0  0  0  0  0  0  0  0  0  0
   20.7676   27.3726   14.0175 H   0  0  0  0  0  0  0  0  0  0  0  0
   22.6362   27.6249   12.5927 O   0  0  0  0  0  0  0  0  0  0  0  0
   23.4955   27.6384   11.4714 C   0  0  0  0  0  0  0  0  0  0  0  0
   24.7997   27.0450   11.9718 C   0  0  0  0  0  0  0  0  0  0  0  0
   24.6364   25.6277   11.8144 O   0  0  0  0  0  0  0  0  0  0  0  0
   23.6793   25.3564   10.7892 C   0  0  0  0  0  0  0  0  0  0  0  0
   22.6314   24.5201   11.2650 O   0  0  0  0  0  0  0  0  0  0  0  0
   21.3771   25.1996   11.2707 C   0  0  0  0  0  0  0  0  0  0  0  0
   21.5517   26.3682   10.3147 C   0  0  0  0  0  0  0  0  0  0  0  0
   23.0380   26.6730   10.3953 C   0  0  0  0  0  0  0  0  0  0  0  0
   18.2815   28.2118   13.9595 C   0  0  0  0  0  0  0  0  0  0  0  0
   18.0081   26.3937   12.2138 C   0  0  0  0  0  0  0  0  0  0  0  0
   17.8168   25.9828   10.9060 C   0  0  0  0  0  0  0  0  0  0  0  0
   17.6033   26.9027    9.8926 C   0  0  0  0  0  0  0  0  0  0  0  0
   17.6272   28.2453   10.2102 C   0  0  0  0  0  0  0  0  0  0  0  0
   17.8233   28.6548   11.5212 C   0  0  0  0  0  0  0  0  0  0  0  0
   18.0307   27.7428   12.5360 C   0  0  0  0  0  0  0  0  0  0  0  0
  9 10  1  0  0  0
 10 11  2  0  0  0
 10 15  1  0  0  0
 11 12  1  0  0  0
 12 13  2  0  0  0
 13 14  1  0  0  0
 13  6  1  0  0  0
 14 15  2  0  0  0
  6  7  2  0  0  0
  6  8  2  0  0  0
  6  5  1  0  0  0
  5 18  1  0  0  0
  5  4  1  0  0  0
 18 19  1  0  0  0
 19 20  1  0  0  0
 19 21  1  0  0  0
 21 22  1  0  0  0
  4  1  1  0  0  0
  1  2  1  0  0  0
  1 23  1  0  0  0
 23 24  1  0  0  0
 23 37  1  0  0  0
 24 25  1  0  0  0
 25 26  2  0  0  0
 25 28  1  0  0  0
 28 29  1  0  0  0
 29 30  1  0  0  0
 29 36  1  0  0  0
 30 31  1  0  0  0
 31 32  1  0  0  0
 32 33  1  0  0  0
 32 36  1  0  0  0
 33 34  1  0  0  0
 34 35  1  0  0  0
 35 36  1  0  0  0
 37 43  1  0  0  0
 38 39  2  0  0  0
 38 43  1  0  0  0
 39 40  1  0  0  0
 40 41  2  0  0  0
 41 42  1  0  0  0
 42 43  2  0  0  0
  9 16  1  0  0  0
  9 17  1  0  0  0
  2  3  1  0  0  0
 24 27  1  0  0  0
M  END
> <minimizedAffinity>
-10.16404

$$$$
3O99_K13_A_200


 43 46  0  0  0  0  0  0  0  0999 V2000
   20.2541   31.2267   12.8650 C   0  0  0  0  0  0  0  0  0  0  0  0
   20.6413   32.0806   11.7797 O   0  0  0  0  0  0  0  0  0  0  0  0
   20.8961   32.9497   12.1271 H   0  0  0  0  0  0  0  0  0  0  0  0
   19.0341   31.8411   13.5596 C   0  0  0  0  0  0  0  0  0  0  0  0
   18.3083   30.7555   14.2331 N   0  0  0  0  0  0  0  0  0  0  0  0
   17.8856   31.0899   15.7611 S   0  0  0  0  0  0  0  0  0  0  0  0
   18.9254   30.6425   16.6296 O   0  0  0  0  0  0  0  0  0  0  0  0
   16.6904   30.3336   15.9805 O   0  0  0  0  0  0  0  0  0  0  0  0
   17.0727   36.7358   16.5593 N   0  0  0  0  0  0  0  0  0  0  0  0
   17.2253   35.4146   16.3480 C   0  0  0  0  0  0  0  0  0  0  0  0
   16.2954   34.6939   15.5939 C   0  0  0  0  0  0  0  0  0  0  0  0
   16.4984   33.3190   15.4163 C   0  0  0  0  0  0  0  0  0  0  0  0
   17.6071   32.6713   15.9714 C   0  0  0  0  0  0  0  0  0  0  0  0
   18.5100   33.4169   16.7113 C   0  0  0  0  0  0  0  0  0  0  0  0
   18.3173   34.7807   16.9050 C   0  0  0  0  0  0  0  0  0  0  0  0
   16.3018   37.2104   16.1725 H   0  0  0  0  0  0  0  0  0  0  0  0
   17.7321   37.2271   17.1007 H   0  0  0  0  0  0  0  0  0  0  0  0
   17.1919   30.1914   13.4349 C   0  0  0  0  0  0  0  0  0  0  0  0
   17.6911   29.0468   12.5559 C   0  0  0  0  0  0  0  0  0  0  0  0
   17.7415   27.6963   13.2836 C   0  0  0  0  0  0  0  0  0  0  0  0
   16.8546   28.9867   11.2690 C   0  0  0  0  0  0  0  0  0  0  0  0
   17.4757   28.1227   10.1999 C   0  0  0  0  0  0  0  0  0  0  0  0
   21.4431   30.9849   13.8053 C   0  0  0  0  0  0  0  0  0  0  0  0
   22.0890   29.7686   13.3623 N   0  0  0  0  0  0  0  0  0  0  0  0
   21.7808   28.5375   13.7443 C   0  0  0  0  0  0  0  0  0  0  0  0
   20.9072   28.2069   14.5153 O   0  0  0  0  0  0  0  0  0  0  0  0
   22.8262   29.8643   12.7169 H   0  0  0  0  0  0  0  0  0  0  0  0
   22.6122   27.5460   13.1233 O   0  0  0  0  0  0  0  0  0  0  0  0
   23.3386   27.8307   11.9455 C   0  0  0  0  0  0  0  0  0  0  0  0
   24.7227   27.2590   12.1927 C   0  0  0  0  0  0  0  0  0  0  0  0
   24.6250   25.8859   11.7861 O   0  0  0  0  0  0  0  0  0  0  0  0
   23.5766   25.7329   10.8278 C   0  0  0  0  0  0  0  0  0  0  0  0
   22.6386   24.7450   11.2377 O   0  0  0  0  0  0  0  0  0  0  0  0
   21.3556   25.3125   11.4962 C   0  0  0  0  0  0  0  0  0  0  0  0
   21.3544   26.6459   10.7669 C   0  0  0  0  0  0  0  0  0  0  0  0
   22.8203   27.0454   10.7564 C   0  0  0  0  0  0  0  0  0  0  0  0
   22.4706   32.1244   13.8429 C   0  0  0  0  0  0  0  0  0  0  0  0
   22.4043   32.2482   16.3743 C   0  0  0  0  0  0  0  0  0  0  0  0
   22.2694   32.9600   17.5537 C   0  0  0  0  0  0  0  0  0  0  0  0
   22.1335   34.3385   17.5440 C   0  0  0  0  0  0  0  0  0  0  0  0
   22.0934   34.9847   16.3255 C   0  0  0  0  0  0  0  0  0  0  0  0
   22.2247   34.2685   15.1445 C   0  0  0  0  0  0  0  0  0  0  0  0
   22.3663   32.8957   15.1481 C   0  0  0  0  0  0  0  0  0  0  0  0
  9 10  1  0  0  0
 10 11  2  0  0  0
 10 15  1  0  0  0
 11 12  1  0  0  0
 12 13  2  0  0  0
 13 14  1  0  0  0
 13  6  1  0  0  0
 14 15  2  0  0  0
  6  7  2  0  0  0
  6  8  2  0  0  0
  6  5  1  0  0  0
  5 18  1  0  0  0
  5  4  1  0  0  0
 18 19  1  0  0  0
 19 20  1  0  0  0
 19 21  1  0  0  0
 21 22  1  0  0  0
  4  1  1  0  0  0
  1  2  1  0  0  0
  1 23  1  0  0  0
 23 24  1  0  0  0
 23 37  1  0  0  0
 24 25  1  0  0  0
 25 26  2  0  0  0
 25 28  1  0  0  0
 28 29  1  0  0  0
 29 30  1  0  0  0
 29 36  1  0  0  0
 30 31  1  0  0  0
 31 32  1  0  0  0
 32 33  1  0  0  0
 32 36  1  0  0  0
 33 34  1  0  0  0
 34 35  1  0  0  0
 35 36  1  0  0  0
 37 43  1  0  0  0
 38 39  2  0  0  0
 38 43  1  0  0  0
 39 40  1  0  0  0
 40 41  2  0  0  0
 41 42  1  0  0  0
 42 43  2  0  0  0
  9 16  1  0  0  0
  9 17  1  0  0  0
  2  3  1  0  0  0
 24 27  1  0  0  0
M  END
> <minimizedAffinity>
-9.64434

$$$$
3O99_K13_A_200


 43 46  0  0  0  0  0  0  0  0999 V2000
   18.5050   30.9239   13.9190 C   0  0  0  0  0  0  0  0  0  0  0  0
   17.1077   31.2387   13.9914 O   0  0  0  0  0  0  0  0  0  0  0  0
   16.7877   31.0840   14.8940 H   0  0  0  0  0  0  0  0  0  0  0  0
   18.6891   29.4377   14.2440 C   0  0  0  0  0  0  0  0  0  0  0  0
   19.1443   28.7646   13.0198 N   0  0  0  0  0  0  0  0  0  0  0  0
   17.9612   28.0368   12.1853 S   0  0  0  0  0  0  0  0  0  0  0  0
   16.9754   29.0117   11.8485 O   0  0  0  0  0  0  0  0  0  0  0  0
   17.4199   27.0704   13.0916 O   0  0  0  0  0  0  0  0  0  0  0  0
   20.0361   25.3244    7.5472 N   0  0  0  0  0  0  0  0  0  0  0  0
   19.5259   25.9842    8.6046 C   0  0  0  0  0  0  0  0  0  0  0  0
   18.6049   27.0207    8.4305 C   0  0  0  0  0  0  0  0  0  0  0  0
   18.1162   27.6800    9.5660 C   0  0  0  0  0  0  0  0  0  0  0  0
   18.5284   27.3141   10.8517 C   0  0  0  0  0  0  0  0  0  0  0  0
   19.4407   26.2807   10.9874 C   0  0  0  0  0  0  0  0  0  0  0  0
   19.9428   25.6229    9.8695 C   0  0  0  0  0  0  0  0  0  0  0  0
   19.7542   25.5638    6.6348 H   0  0  0  0  0  0  0  0  0  0  0  0
   20.6909   24.6026    7.6866 H   0  0  0  0  0  0  0  0  0  0  0  0
   20.0249   29.5991   12.1655 C   0  0  0  0  0  0  0  0  0  0  0  0
   21.4922   29.2719   12.4339 C   0  0  0  0  0  0  0  0  0  0  0  0
   21.6958   28.2950   13.6002 C   0  0  0  0  0  0  0  0  0  0  0  0
   22.1531   28.7805   11.1373 C   0  0  0  0  0  0  0  0  0  0  0  0
   23.0397   27.5779   11.3446 C   0  0  0  0  0  0  0  0  0  0  0  0
   19.3118   31.8596   14.8301 C   0  0  0  0  0  0  0  0  0  0  0  0
   18.3695   32.4803   15.7354 N   0  0  0  0  0  0  0  0  0  0  0  0
   18.4548   33.7068   16.2304 C   0  0  0  0  0  0  0  0  0  0  0  0
   19.3190   34.5267   16.0112 O   0  0  0  0  0  0  0  0  0  0  0  0
   17.5924   31.9415   16.0093 H   0  0  0  0  0  0  0  0  0  0  0  0
   17.3604   34.0236   17.1032 O   0  0  0  0  0  0  0  0  0  0  0  0
   16.0889   34.3656   16.5913 C   0  0  0  0  0  0  0  0  0  0  0  0
   15.1011   33.6152   17.4658 C   0  0  0  0  0  0  0  0  0  0  0  0
   14.8723   34.4865   18.5831 O   0  0  0  0  0  0  0  0  0  0  0  0
   15.1327   35.8404   18.2091 C   0  0  0  0  0  0  0  0  0  0  0  0
   16.0823   36.4459   19.0783 O   0  0  0  0  0  0  0  0  0  0  0  0
   17.2908   36.7705   18.3933 C   0  0  0  0  0  0  0  0  0  0  0  0
   16.9189   36.8014   16.9201 C   0  0  0  0  0  0  0  0  0  0  0  0
   15.7573   35.8263   16.8273 C   0  0  0  0  0  0  0  0  0  0  0  0
   20.4174   31.1675   15.6391 C   0  0  0  0  0  0  0  0  0  0  0  0
   22.0609   32.7459   16.7507 C   0  0  0  0  0  0  0  0  0  0  0  0
   23.1975   33.5352   16.7224 C   0  0  0  0  0  0  0  0  0  0  0  0
   24.0100   33.5770   15.6013 C   0  0  0  0  0  0  0  0  0  0  0  0
   23.6369   32.8435   14.4937 C   0  0  0  0  0  0  0  0  0  0  0  0
   22.4949   32.0563   14.5231 C   0  0  0  0  0  0  0  0  0  0  0  0
   21.6847   32.0061   15.6391 C   0  0  0  0  0  0  0  0  0  0  0  0
  9 10  1  0  0  0
 10 11  2  0  0  0
 10 15  1  0  0  0
 11 12  1  0  0  0
 12 13  2  0  0  0
 13 14  1  0  0  0
 13  6  1  0  0  0
 14 15  2  0  0  0
  6  7  2  0  0  0
  6  8  2  0  0  0
  6  5  1  0  0  0
  5 18  1  0  0  0
  5  4  1  0  0  0
 18 19  1  0  0  0
 19 20  1  0  0  0
 19 21  1  0  0  0
 21 22  1  0  0  0
  4  1  1  0  0  0
  1  2  1  0  0  0
  1 23  1  0  0  0
 23 24  1  0  0  0
 23 37  1  0  0  0
 24 25  1  0  0  0
 25 26  2  0  0  0
 25 28  1  0  0  0
 28 29  1  0  0  0
 29 30  1  0  0  0
 29 36  1  0  0  0
 30 31  1  0  0  0
 31 32  1  0  0  0
 32 33  1  0  0  0
 32 36  1  0  0  0
 33 34  1  0  0  0
 34 35  1  0  0  0
 35 36  1  0  0  0
 37 43  1  0  0  0
 38 39  2  0  0  0
 38 43  1  0  0  0
 39 40  1  0  0  0
 40 41  2  0  0  0
 41 42  1  0  0  0
 42 43  2  0  0  0
  9 16  1  0  0  0
  9 17  1  0  0  0
  2  3  1  0  0  0
 24 27  1  0  0  0
M  END
> <minimizedAffinity>
-9.17924

$$$$
3O99_K13_A_200


 43 46  0  0  0  0  0  0  0  0999 V2000
   19.6355   31.1757   13.3628 C   0  0  0  0  0  0  0  0  0  0  0  0
   19.5558   31.9559   12.1619 O   0  0  0  0  0  0  0  0  0  0  0  0
   18.6391   31.9692   11.8453 H   0  0  0  0  0  0  0  0  0  0  0  0
   19.2196   29.7366   13.0396 C   0  0  0  0  0  0  0  0  0  0  0  0
   20.1822   29.1998   12.0680 N   0  0  0  0  0  0  0  0  0  0  0  0
   21.5264   28.5893   12.7357 S   0  0  0  0  0  0  0  0  0  0  0  0
   21.1944   28.0460   14.0125 O   0  0  0  0  0  0  0  0  0  0  0  0
   22.4010   29.7128   12.8821 O   0  0  0  0  0  0  0  0  0  0  0  0
   24.0762   24.6799    9.3609 N   0  0  0  0  0  0  0  0  0  0  0  0
   23.4525   25.5618   10.1651 C   0  0  0  0  0  0  0  0  0  0  0  0
   22.3834   25.1677   10.9741 C   0  0  0  0  0  0  0  0  0  0  0  0
   21.7644   26.1304   11.7821 C   0  0  0  0  0  0  0  0  0  0  0  0
   22.2017   27.4592   11.7926 C   0  0  0  0  0  0  0  0  0  0  0  0
   23.2656   27.8145   10.9799 C   0  0  0  0  0  0  0  0  0  0  0  0
   23.8843   26.8726   10.1646 C   0  0  0  0  0  0  0  0  0  0  0  0
   23.7864   23.7391    9.3435 H   0  0  0  0  0  0  0  0  0  0  0  0
   24.8219   24.9759    8.7903 H   0  0  0  0  0  0  0  0  0  0  0  0
   19.5779   28.2973   11.0572 C   0  0  0  0  0  0  0  0  0  0  0  0
   18.1504   27.9301   11.4568 C   0  0  0  0  0  0  0  0  0  0  0  0
   17.0908   28.4390   10.4698 C   0  0  0  0  0  0  0  0  0  0  0  0
   18.0563   26.4141   11.6856 C   0  0  0  0  0  0  0  0  0  0  0  0
   18.2868   25.6112   10.4296 C   0  0  0  0  0  0  0  0  0  0  0  0
   18.8023   31.8236   14.4775 C   0  0  0  0  0  0  0  0  0  0  0  0
   19.7280   32.2304   15.5121 N   0  0  0  0  0  0  0  0  0  0  0  0
   20.3022   31.4343   16.4026 C   0  0  0  0  0  0  0  0  0  0  0  0
   20.1685   30.2349   16.5068 O   0  0  0  0  0  0  0  0  0  0  0  0
   19.9524   33.1878   15.5590 H   0  0  0  0  0  0  0  0  0  0  0  0
   21.1693   32.1468   17.2972 O   0  0  0  0  0  0  0  0  0  0  0  0
   22.5275   32.3706   16.9794 C   0  0  0  0  0  0  0  0  0  0  0  0
   22.6442   32.0327   15.5044 C   0  0  0  0  0  0  0  0  0  0  0  0
   22.2977   33.2492   14.8260 O   0  0  0  0  0  0  0  0  0  0  0  0
   22.5493   34.3710   15.6738 C   0  0  0  0  0  0  0  0  0  0  0  0
   21.3878   35.1782   15.8257 O   0  0  0  0  0  0  0  0  0  0  0  0
   20.9125   35.1689   17.1707 C   0  0  0  0  0  0  0  0  0  0  0  0
   22.0951   34.7121   18.0090 C   0  0  0  0  0  0  0  0  0  0  0  0
   22.8918   33.8407   17.0527 C   0  0  0  0  0  0  0  0  0  0  0  0
   17.9698   33.0338   14.0323 C   0  0  0  0  0  0  0  0  0  0  0  0
   16.0137   32.3910   15.5116 C   0  0  0  0  0  0  0  0  0  0  0  0
   15.0224   32.7103   16.4233 C   0  0  0  0  0  0  0  0  0  0  0  0
   14.9159   33.9898   16.9432 C   0  0  0  0  0  0  0  0  0  0  0  0
   15.7976   34.9536   16.4986 C   0  0  0  0  0  0  0  0  0  0  0  0
   16.7878   34.6320   15.5815 C   0  0  0  0  0  0  0  0  0  0  0  0
   16.9026   33.3577   15.0645 C   0  0  0  0  0  0  0  0  0  0  0  0
  9 10  1  0  0  0
 10 11  2  0  0  0
 10 15  1  0  0  0
 11 12  1  0  0  0
 12 13  2  0  0  0
 13 14  1  0  0  0
 13  6  1  0  0  0
 14 15  2  0  0  0
  6  7  2  0  0  0
  6  8  2  0  0  0
  6  5  1  0  0  0
  5 18  1  0  0  0
  5  4  1  0  0  0
 18 19  1  0  0  0
 19 20  1  0  0  0
 19 21  1  0  0  0
 21 22  1  0  0  0
  4  1  1  0  0  0
  1  2  1  0  0  0
  1 23  1  0  0  0
 23 24  1  0  0  0
 23 37  1  0  0  0
 24 25  1  0  0  0
 25 26  2  0  0  0
 25 28  1  0  0  0
 28 29  1  0  0  0
 29 30  1  0  0  0
 29 36  1  0  0  0
 30 31  1  0  0  0
 31 32  1  0  0  0
 32 33  1  0  0  0
 32 36  1  0  0  0
 33 34  1  0  0  0
 34 35  1  0  0  0
 35 36  1  0  0  0
 37 43  1  0  0  0
 38 39  2  0  0  0
 38 43  1  0  0  0
 39 40  1  0  0  0
 40 41  2  0  0  0
 41 42  1  0  0  0
 42 43  2  0  0  0
  9 16  1  0  0  0
  9 17  1  0  0  0
  2  3  1  0  0  0
 24 27  1  0  0  0
M  END
> <minimizedAffinity>
-8.84433

$$$$
3O99_K13_A_200


 43 46  0  0  0  0  0  0  0  0999 V2000
   18.8945   29.7065   14.0158 C   0  0  0  0  0  0  0  0  0  0  0  0
   17.7271   29.3504   14.7690 O   0  0  0  0  0  0  0  0  0  0  0  0
   17.9905   29.0638   15.6575 H   0  0  0  0  0  0  0  0  0  0  0  0
   19.7830   28.4659   13.8750 C   0  0  0  0  0  0  0  0  0  0  0  0
   20.2398   28.3982   12.4801 N   0  0  0  0  0  0  0  0  0  0  0  0
   21.8471   28.5029   12.3038 S   0  0  0  0  0  0  0  0  0  0  0  0
   22.4454   28.5450   13.5984 O   0  0  0  0  0  0  0  0  0  0  0  0
   22.0565   29.7402   11.6154 O   0  0  0  0  0  0  0  0  0  0  0  0
   23.7905   23.9967    9.2887 N   0  0  0  0  0  0  0  0  0  0  0  0
   23.3643   25.0768    9.9708 C   0  0  0  0  0  0  0  0  0  0  0  0
   23.9069   26.3416    9.7287 C   0  0  0  0  0  0  0  0  0  0  0  0
   23.4336   27.4278   10.4766 C   0  0  0  0  0  0  0  0  0  0  0  0
   22.4356   27.2639   11.4430 C   0  0  0  0  0  0  0  0  0  0  0  0
   21.9186   25.9965   11.6552 C   0  0  0  0  0  0  0  0  0  0  0  0
   22.3849   24.9064   10.9280 C   0  0  0  0  0  0  0  0  0  0  0  0
   24.4883   24.0927    8.6009 H   0  0  0  0  0  0  0  0  0  0  0  0
   23.4042   23.1111    9.4778 H   0  0  0  0  0  0  0  0  0  0  0  0
   19.6450   27.2814   11.7051 C   0  0  0  0  0  0  0  0  0  0  0  0
   18.7483   27.8228   10.5938 C   0  0  0  0  0  0  0  0  0  0  0  0
   18.9959   27.1585    9.2324 C   0  0  0  0  0  0  0  0  0  0  0  0
   17.2786   27.7307   11.0308 C   0  0  0  0  0  0  0  0  0  0  0  0
   16.6130   29.0786   11.1544 C   0  0  0  0  0  0  0  0  0  0  0  0
   19.6040   30.9038   14.6636 C   0  0  0  0  0  0  0  0  0  0  0  0
   18.6089   31.6143   15.4367 N   0  0  0  0  0  0  0  0  0  0  0  0
   18.3848   32.9202   15.4084 C   0  0  0  0  0  0  0  0  0  0  0  0
   18.9558   33.7469   14.7320 O   0  0  0  0  0  0  0  0  0  0  0  0
   18.0457   31.0777   16.0402 H   0  0  0  0  0  0  0  0  0  0  0  0
   17.3283   33.3150   16.2962 O   0  0  0  0  0  0  0  0  0  0  0  0
   16.1707   33.9662   15.8151 C   0  0  0  0  0  0  0  0  0  0  0  0
   15.0124   33.1181   16.3078 C   0  0  0  0  0  0  0  0  0  0  0  0
   14.7320   33.6178   17.6238 O   0  0  0  0  0  0  0  0  0  0  0  0
   15.1687   34.9734   17.7356 C   0  0  0  0  0  0  0  0  0  0  0  0
   16.0568   35.1440   18.8338 O   0  0  0  0  0  0  0  0  0  0  0  0
   17.3675   35.5029   18.4000 C   0  0  0  0  0  0  0  0  0  0  0  0
   17.1878   36.0430   16.9908 C   0  0  0  0  0  0  0  0  0  0  0  0
   15.9570   35.3099   16.4845 C   0  0  0  0  0  0  0  0  0  0  0  0
   20.7859   30.5327   15.5699 C   0  0  0  0  0  0  0  0  0  0  0  0
   21.9928   32.4406   16.7237 C   0  0  0  0  0  0  0  0  0  0  0  0
   22.9043   33.4822   16.7195 C   0  0  0  0  0  0  0  0  0  0  0  0
   23.6874   33.7411   15.6066 C   0  0  0  0  0  0  0  0  0  0  0  0
   23.5082   32.9605   14.4829 C   0  0  0  0  0  0  0  0  0  0  0  0
   22.5909   31.9196   14.4882 C   0  0  0  0  0  0  0  0  0  0  0  0
   21.8122   31.6532   15.5959 C   0  0  0  0  0  0  0  0  0  0  0  0
  9 10  1  0  0  0
 10 11  2  0  0  0
 10 15  1  0  0  0
 11 12  1  0  0  0
 12 13  2  0  0  0
 13 14  1  0  0  0
 13  6  1  0  0  0
 14 15  2  0  0  0
  6  7  2  0  0  0
  6  8  2  0  0  0
  6  5  1  0  0  0
  5 18  1  0  0  0
  5  4  1  0  0  0
 18 19  1  0  0  0
 19 20  1  0  0  0
 19 21  1  0  0  0
 21 22  1  0  0  0
  4  1  1  0  0  0
  1  2  1  0  0  0
  1 23  1  0  0  0
 23 24  1  0  0  0
 23 37  1  0  0  0
 24 25  1  0  0  0
 25 26  2  0  0  0
 25 28  1  0  0  0
 28 29  1  0  0  0
 29 30  1  0  0  0
 29 36  1  0  0  0
 30 31  1  0  0  0
 31 32  1  0  0  0
 32 33  1  0  0  0
 32 36  1  0  0  0
 33 34  1  0  0  0
 34 35  1  0  0  0
 35 36  1  0  0  0
 37 43  1  0  0  0
 38 39  2  0  0  0
 38 43  1  0  0  0
 39 40  1  0  0  0
 40 41  2  0  0  0
 41 42  1  0  0  0
 42 43  2  0  0  0
  9 16  1  0  0  0
  9 17  1  0  0  0
  2  3  1  0  0  0
 24 27  1  0  0  0
M  END
> <minimizedAffinity>
-8.79966

$$$$
3O99_K13_A_200


 43 46  0  0  0  0  0  0  0  0999 V2000
   18.7916   28.8477   13.9900 C   0  0  0  0  0  0  0  0  0  0  0  0
   17.6067   28.3316   14.6119 O   0  0  0  0  0  0  0  0  0  0  0  0
   16.8323   28.5661   14.0768 H   0  0  0  0  0  0  0  0  0  0  0  0
   18.6906   30.3759   13.9377 C   0  0  0  0  0  0  0  0  0  0  0  0
   19.5040   30.9162   15.0356 N   0  0  0  0  0  0  0  0  0  0  0  0
   20.9049   31.5763   14.5590 S   0  0  0  0  0  0  0  0  0  0  0  0
   20.7489   32.0636   13.2272 O   0  0  0  0  0  0  0  0  0  0  0  0
   21.8437   30.4964   14.5900 O   0  0  0  0  0  0  0  0  0  0  0  0
   22.4800   35.9349   17.9791 N   0  0  0  0  0  0  0  0  0  0  0  0
   22.1203   34.8873   17.2131 C   0  0  0  0  0  0  0  0  0  0  0  0
   22.1778   33.5811   17.7064 C   0  0  0  0  0  0  0  0  0  0  0  0
   21.8026   32.5287   16.8610 C   0  0  0  0  0  0  0  0  0  0  0  0
   21.3721   32.7676   15.5516 C   0  0  0  0  0  0  0  0  0  0  0  0
   21.3253   34.0749   15.0962 C   0  0  0  0  0  0  0  0  0  0  0  0
   21.7038   35.1297   15.9199 C   0  0  0  0  0  0  0  0  0  0  0  0
   22.7806   35.7875   18.9049 H   0  0  0  0  0  0  0  0  0  0  0  0
   22.4423   36.8481   17.6133 H   0  0  0  0  0  0  0  0  0  0  0  0
   18.7486   31.7800   15.9763 C   0  0  0  0  0  0  0  0  0  0  0  0
   17.5808   32.4540   15.2593 C   0  0  0  0  0  0  0  0  0  0  0  0
   16.2069   31.9742   15.7472 C   0  0  0  0  0  0  0  0  0  0  0  0
   17.7343   33.9796   15.3522 C   0  0  0  0  0  0  0  0  0  0  0  0
   18.0505   34.4581   16.7473 C   0  0  0  0  0  0  0  0  0  0  0  0
   19.0016   28.1955   12.6163 C   0  0  0  0  0  0  0  0  0  0  0  0
   20.3536   27.6812   12.5973 N   0  0  0  0  0  0  0  0  0  0  0  0
   21.4118   28.2871   12.0781 C   0  0  0  0  0  0  0  0  0  0  0  0
   21.4445   29.3722   11.5410 O   0  0  0  0  0  0  0  0  0  0  0  0
   20.5013   26.7989   13.0083 H   0  0  0  0  0  0  0  0  0  0  0  0
   22.6115   27.5117   12.2179 O   0  0  0  0  0  0  0  0  0  0  0  0
   23.6348   27.5614   11.2452 C   0  0  0  0  0  0  0  0  0  0  0  0
   24.8830   27.0876   11.9671 C   0  0  0  0  0  0  0  0  0  0  0  0
   24.8517   25.6579   11.8436 O   0  0  0  0  0  0  0  0  0  0  0  0
   24.0925   25.2828   10.6931 C   0  0  0  0  0  0  0  0  0  0  0  0
   23.0468   24.3800   11.0327 O   0  0  0  0  0  0  0  0  0  0  0  0
   21.7609   24.9579   10.8145 C   0  0  0  0  0  0  0  0  0  0  0  0
   21.9987   26.1090    9.8512 C   0  0  0  0  0  0  0  0  0  0  0  0
   23.4267   26.5328   10.1508 C   0  0  0  0  0  0  0  0  0  0  0  0
   18.0193   27.0623   12.2896 C   0  0  0  0  0  0  0  0  0  0  0  0
   17.7945   25.4835   10.3186 C   0  0  0  0  0  0  0  0  0  0  0  0
   17.8388   25.2203    8.9605 C   0  0  0  0  0  0  0  0  0  0  0  0
   18.0716   26.2327    8.0443 C   0  0  0  0  0  0  0  0  0  0  0  0
   18.3008   27.5075    8.5201 C   0  0  0  0  0  0  0  0  0  0  0  0
   18.2599   27.7680    9.8822 C   0  0  0  0  0  0  0  0  0  0  0  0
   18.0227   26.7646   10.7994 C   0  0  0  0  0  0  0  0  0  0  0  0
  9 10  1  0  0  0
 10 11  2  0  0  0
 10 15  1  0  0  0
 11 12  1  0  0  0
 12 13  2  0  0  0
 13 14  1  0  0  0
 13  6  1  0  0  0
 14 15  2  0  0  0
  6  7  2  0  0  0
  6  8  2  0  0  0
  6  5  1  0  0  0
  5 18  1  0  0  0
  5  4  1  0  0  0
 18 19  1  0  0  0
 19 20  1  0  0  0
 19 21  1  0  0  0
 21 22  1  0  0  0
  4  1  1  0  0  0
  1  2  1  0  0  0
  1 23  1  0  0  0
 23 24  1  0  0  0
 23 37  1  0  0  0
 24 25  1  0  0  0
 25 26  2  0  0  0
 25 28  1  0  0  0
 28 29  1  0  0  0
 29 30  1  0  0  0
 29 36  1  0  0  0
 30 31  1  0  0  0
 31 32  1  0  0  0
 32 33  1  0  0  0
 32 36  1  0  0  0
 33 34  1  0  0  0
 34 35  1  0  0  0
 35 36  1  0  0  0
 37 43  1  0  0  0
 38 39  2  0  0  0
 38 43  1  0  0  0
 39 40  1  0  0  0
 40 41  2  0  0  0
 41 42  1  0  0  0
 42 43  2  0  0  0
  9 16  1  0  0  0
  9 17  1  0  0  0
  2  3  1  0  0  0
 24 27  1  0  0  0
M  END
> <minimizedAffinity>
-8.77333

$$$$
3O99_K13_A_200


 43 46  0  0  0  0  0  0  0  0999 V2000
   18.7109   29.0390   14.0578 C   0  0  0  0  0  0  0  0  0  0  0  0
   19.2387   28.1052   15.0100 O   0  0  0  0  0  0  0  0  0  0  0  0
   20.0169   28.4899   15.4429 H   0  0  0  0  0  0  0  0  0  0  0  0
   19.7752   29.2994   12.9865 C   0  0  0  0  0  0  0  0  0  0  0  0
   19.7987   28.1379   12.0870 N   0  0  0  0  0  0  0  0  0  0  0  0
   18.3971   27.8651   11.3211 S   0  0  0  0  0  0  0  0  0  0  0  0
   17.7639   29.1187   11.0698 O   0  0  0  0  0  0  0  0  0  0  0  0
   17.6244   27.0904   12.2438 O   0  0  0  0  0  0  0  0  0  0  0  0
   19.1868   25.1313    6.3133 N   0  0  0  0  0  0  0  0  0  0  0  0
   19.0171   25.7340    7.5056 C   0  0  0  0  0  0  0  0  0  0  0  0
   19.3117   25.0672    8.6979 C   0  0  0  0  0  0  0  0  0  0  0  0
   19.1048   25.7391    9.9098 C   0  0  0  0  0  0  0  0  0  0  0  0
   18.6202   27.0511    9.9389 C   0  0  0  0  0  0  0  0  0  0  0  0
   18.3409   27.6825    8.7381 C   0  0  0  0  0  0  0  0  0  0  0  0
   18.5316   27.0256    7.5271 C   0  0  0  0  0  0  0  0  0  0  0  0
   19.5318   24.2102    6.2720 H   0  0  0  0  0  0  0  0  0  0  0  0
   18.9658   25.6119    5.4830 H   0  0  0  0  0  0  0  0  0  0  0  0
   20.9704   28.1041   11.1773 C   0  0  0  0  0  0  0  0  0  0  0  0
   22.0412   27.1620   11.7231 C   0  0  0  0  0  0  0  0  0  0  0  0
   22.5035   26.1096   10.7058 C   0  0  0  0  0  0  0  0  0  0  0  0
   23.2099   27.9853   12.2849 C   0  0  0  0  0  0  0  0  0  0  0  0
   24.5599   27.4087   11.9380 C   0  0  0  0  0  0  0  0  0  0  0  0
   18.2261   30.3105   14.7683 C   0  0  0  0  0  0  0  0  0  0  0  0
   19.4063   31.0551   15.1496 N   0  0  0  0  0  0  0  0  0  0  0  0
   20.1263   30.8686   16.2466 C   0  0  0  0  0  0  0  0  0  0  0  0
   19.9385   30.0452   17.1148 O   0  0  0  0  0  0  0  0  0  0  0  0
   19.7023   31.7668   14.5370 H   0  0  0  0  0  0  0  0  0  0  0  0
   21.2367   31.7737   16.3346 O   0  0  0  0  0  0  0  0  0  0  0  0
   21.0540   33.1710   16.2349 C   0  0  0  0  0  0  0  0  0  0  0  0
   21.5896   33.7289   17.5409 C   0  0  0  0  0  0  0  0  0  0  0  0
   22.9946   33.9082   17.3085 O   0  0  0  0  0  0  0  0  0  0  0  0
   23.2424   34.0724   15.9113 C   0  0  0  0  0  0  0  0  0  0  0  0
   24.1967   33.1292   15.4386 O   0  0  0  0  0  0  0  0  0  0  0  0
   23.6185   32.2178   14.5058 C   0  0  0  0  0  0  0  0  0  0  0  0
   22.3568   32.9030   14.0077 C   0  0  0  0  0  0  0  0  0  0  0  0
   21.9479   33.7851   15.1753 C   0  0  0  0  0  0  0  0  0  0  0  0
   17.3087   31.2048   13.9232 C   0  0  0  0  0  0  0  0  0  0  0  0
   17.1821   33.6402   14.6166 C   0  0  0  0  0  0  0  0  0  0  0  0
   16.6814   34.6518   15.4177 C   0  0  0  0  0  0  0  0  0  0  0  0
   15.6982   34.3963   16.3594 C   0  0  0  0  0  0  0  0  0  0  0  0
   15.2571   33.0976   16.5107 C   0  0  0  0  0  0  0  0  0  0  0  0
   15.7636   32.0846   15.7093 C   0  0  0  0  0  0  0  0  0  0  0  0
   16.7389   32.3341   14.7655 C   0  0  0  0  0  0  0  0  0  0  0  0
  9 10  1  0  0  0
 10 11  2  0  0  0
 10 15  1  0  0  0
 11 12  1  0  0  0
 12 13  2  0  0  0
 13 14  1  0  0  0
 13  6  1  0  0  0
 14 15  2  0  0  0
  6  7  2  0  0  0
  6  8  2  0  0  0
  6  5  1  0  0  0
  5 18  1  0  0  0
  5  4  1  0  0  0
 18 19  1  0  0  0
 19 20  1  0  0  0
 19 21  1  0  0  0
 21 22  1  0  0  0
  4  1  1  0  0  0
  1  2  1  0  0  0
  1 23  1  0  0  0
 23 24  1  0  0  0
 23 37  1  0  0  0
 24 25  1  0  0  0
 25 26  2  0  0  0
 25 28  1  0  0  0
 28 29  1  0  0  0
 29 30  1  0  0  0
 29 36  1  0  0  0
 30 31  1  0  0  0
 31 32  1  0  0  0
 32 33  1  0  0  0
 32 36  1  0  0  0
 33 34  1  0  0  0
 34 35  1  0  0  0
 35 36  1  0  0  0
 37 43  1  0  0  0
 38 39  2  0  0  0
 38 43  1  0  0  0
 39 40  1  0  0  0
 40 41  2  0  0  0
 41 42  1  0  0  0
 42 43  2  0  0  0
  9 16  1  0  0  0
  9 17  1  0  0  0
  2  3  1  0  0  0
 24 27  1  0  0  0
M  END
> <minimizedAffinity>
-8.68548

$$$$
3O99_K13_A_200


 43 46  0  0  0  0  0  0  0  0999 V2000
   17.3199   30.7065   14.3130 C   0  0  0  0  0  0  0  0  0  0  0  0
   17.7905   29.6071   15.1048 O   0  0  0  0  0  0  0  0  0  0  0  0
   18.7341   29.7264   15.2953 H   0  0  0  0  0  0  0  0  0  0  0  0
   18.0801   30.7118   12.9825 C   0  0  0  0  0  0  0  0  0  0  0  0
   18.6731   29.3799   12.8003 N   0  0  0  0  0  0  0  0  0  0  0  0
   17.6727   28.2957   12.1301 S   0  0  0  0  0  0  0  0  0  0  0  0
   16.5290   28.9829   11.6248 O   0  0  0  0  0  0  0  0  0  0  0  0
   17.3009   27.4306   13.2080 O   0  0  0  0  0  0  0  0  0  0  0  0
   20.3047   25.1827    8.0611 N   0  0  0  0  0  0  0  0  0  0  0  0
   19.6693   25.9345    8.9802 C   0  0  0  0  0  0  0  0  0  0  0  0
   18.8189   26.9748    8.5964 C   0  0  0  0  0  0  0  0  0  0  0  0
   18.1933   27.7318    9.5957 C   0  0  0  0  0  0  0  0  0  0  0  0
   18.4023   27.4582   10.9516 C   0  0  0  0  0  0  0  0  0  0  0  0
   19.2499   26.4182   11.2961 C   0  0  0  0  0  0  0  0  0  0  0  0
   19.8861   25.6638   10.3159 C   0  0  0  0  0  0  0  0  0  0  0  0
   20.1662   25.3564    7.1020 H   0  0  0  0  0  0  0  0  0  0  0  0
   20.9076   24.4593    8.3484 H   0  0  0  0  0  0  0  0  0  0  0  0
   20.0138   29.3993   12.1647 C   0  0  0  0  0  0  0  0  0  0  0  0
   21.1079   29.4062   13.2300 C   0  0  0  0  0  0  0  0  0  0  0  0
   20.8033   28.4898   14.4231 C   0  0  0  0  0  0  0  0  0  0  0  0
   22.4608   29.0858   12.5771 C   0  0  0  0  0  0  0  0  0  0  0  0
   22.3251   28.4816   11.2016 C   0  0  0  0  0  0  0  0  0  0  0  0
   17.4399   32.0204   15.0979 C   0  0  0  0  0  0  0  0  0  0  0  0
   18.8176   32.4488   14.9925 N   0  0  0  0  0  0  0  0  0  0  0  0
   19.8284   32.0158   15.7323 C   0  0  0  0  0  0  0  0  0  0  0  0
   19.7883   31.1855   16.6133 O   0  0  0  0  0  0  0  0  0  0  0  0
   19.0236   33.1251   14.3073 H   0  0  0  0  0  0  0  0  0  0  0  0
   21.0722   32.6400   15.3814 O   0  0  0  0  0  0  0  0  0  0  0  0
   22.3101   32.0649   15.7454 C   0  0  0  0  0  0  0  0  0  0  0  0
   23.1840   32.2066   14.5125 C   0  0  0  0  0  0  0  0  0  0  0  0
   23.7690   33.5118   14.6317 O   0  0  0  0  0  0  0  0  0  0  0  0
   23.8099   33.9062   16.0041 C   0  0  0  0  0  0  0  0  0  0  0  0
   23.1655   35.1586   16.2041 O   0  0  0  0  0  0  0  0  0  0  0  0
   21.9979   35.0265   17.0131 C   0  0  0  0  0  0  0  0  0  0  0  0
   22.1687   33.7074   17.7484 C   0  0  0  0  0  0  0  0  0  0  0  0
   23.0257   32.8829   16.8027 C   0  0  0  0  0  0  0  0  0  0  0  0
   16.5165   33.1443   14.6080 C   0  0  0  0  0  0  0  0  0  0  0  0
   16.6236   35.2862   15.9602 C   0  0  0  0  0  0  0  0  0  0  0  0
   16.2462   36.0600   17.0440 C   0  0  0  0  0  0  0  0  0  0  0  0
   15.2909   35.6133   17.9421 C   0  0  0  0  0  0  0  0  0  0  0  0
   14.7521   34.3568   17.7549 C   0  0  0  0  0  0  0  0  0  0  0  0
   15.1351   33.5814   16.6701 C   0  0  0  0  0  0  0  0  0  0  0  0
   16.0820   34.0235   15.7688 C   0  0  0  0  0  0  0  0  0  0  0  0
  9 10  1  0  0  0
 10 11  2  0  0  0
 10 15  1  0  0  0
 11 12  1  0  0  0
 12 13  2  0  0  0
 13 14  1  0  0  0
 13  6  1  0  0  0
 14 15  2  0  0  0
  6  7  2  0  0  0
  6  8  2  0  0  0
  6  5  1  0  0  0
  5 18  1  0  0  0
  5  4  1  0  0  0
 18 19  1  0  0  0
 19 20  1  0  0  0
 19 21  1  0  0  0
 21 22  1  0  0  0
  4  1  1  0  0  0
  1  2  1  0  0  0
  1 23  1  0  0  0
 23 24  1  0  0  0
 23 37  1  0  0  0
 24 25  1  0  0  0
 25 26  2  0  0  0
 25 28  1  0  0  0
 28 29  1  0  0  0
 29 30  1  0  0  0
 29 36  1  0  0  0
 30 31  1  0  0  0
 31 32  1  0  0  0
 32 33  1  0  0  0
 32 36  1  0  0  0
 33 34  1  0  0  0
 34 35  1  0  0  0
 35 36  1  0  0  0
 37 43  1  0  0  0
 38 39  2  0  0  0
 38 43  1  0  0  0
 39 40  1  0  0  0
 40 41  2  0  0  0
 41 42  1  0  0  0
 42 43  2  0  0  0
  9 16  1  0  0  0
  9 17  1  0  0  0
  2  3  1  0  0  0
 24 27  1  0  0  0
M  END
> <minimizedAffinity>
-8.66258

$$$$
3O99_K13_A_200


 43 46  0  0  0  0  0  0  0  0999 V2000
   18.3067   33.0904   15.9630 C   0  0  0  0  0  0  0  0  0  0  0  0
   18.1221   33.4680   14.5918 O   0  0  0  0  0  0  0  0  0  0  0  0
   17.1859   33.3771   14.3546 H   0  0  0  0  0  0  0  0  0  0  0  0
   17.9133   31.6179   16.1221 C   0  0  0  0  0  0  0  0  0  0  0  0
   18.7114   30.8356   15.1683 N   0  0  0  0  0  0  0  0  0  0  0  0
   20.0603   30.1979   15.8001 S   0  0  0  0  0  0  0  0  0  0  0  0
   20.3775   29.0041   15.0859 O   0  0  0  0  0  0  0  0  0  0  0  0
   19.7170   29.8935   17.1559 O   0  0  0  0  0  0  0  0  0  0  0  0
   24.4531   33.9036   15.4183 N   0  0  0  0  0  0  0  0  0  0  0  0
   23.4195   33.0504   15.5500 C   0  0  0  0  0  0  0  0  0  0  0  0
   22.7200   32.9472   16.7554 C   0  0  0  0  0  0  0  0  0  0  0  0
   21.6606   32.0341   16.8390 C   0  0  0  0  0  0  0  0  0  0  0  0
   21.2972   31.2418   15.7449 C   0  0  0  0  0  0  0  0  0  0  0  0
   22.0108   31.3716   14.5648 C   0  0  0  0  0  0  0  0  0  0  0  0
   23.0713   32.2664   14.4690 C   0  0  0  0  0  0  0  0  0  0  0  0
   24.7205   34.4735   16.1753 H   0  0  0  0  0  0  0  0  0  0  0  0
   24.9412   33.9576   14.5651 H   0  0  0  0  0  0  0  0  0  0  0  0
   17.9213   29.8550   14.3836 C   0  0  0  0  0  0  0  0  0  0  0  0
   17.9612   30.2061   12.8979 C   0  0  0  0  0  0  0  0  0  0  0  0
   19.2354   30.9541   12.4821 C   0  0  0  0  0  0  0  0  0  0  0  0
   17.7303   28.9363   12.0650 C   0  0  0  0  0  0  0  0  0  0  0  0
   16.5533   29.0495   11.1285 C   0  0  0  0  0  0  0  0  0  0  0  0
   17.5322   34.0398   16.8879 C   0  0  0  0  0  0  0  0  0  0  0  0
   18.4584   35.0703   17.3036 N   0  0  0  0  0  0  0  0  0  0  0  0
   18.8334   35.3266   18.5487 C   0  0  0  0  0  0  0  0  0  0  0  0
   18.4835   34.7471   19.5531 O   0  0  0  0  0  0  0  0  0  0  0  0
   18.8464   35.6338   16.5957 H   0  0  0  0  0  0  0  0  0  0  0  0
   19.7639   36.4164   18.6282 O   0  0  0  0  0  0  0  0  0  0  0  0
   19.6835   37.5158   17.7447 C   0  0  0  0  0  0  0  0  0  0  0  0
   19.6676   38.7387   18.6435 C   0  0  0  0  0  0  0  0  0  0  0  0
   21.0527   39.0384   18.8712 O   0  0  0  0  0  0  0  0  0  0  0  0
   21.8464   38.5286   17.7984 C   0  0  0  0  0  0  0  0  0  0  0  0
   22.8780   37.6736   18.2764 O   0  0  0  0  0  0  0  0  0  0  0  0
   22.6932   36.3291   17.8368 C   0  0  0  0  0  0  0  0  0  0  0  0
   21.7616   36.4248   16.6398 C   0  0  0  0  0  0  0  0  0  0  0  0
   20.9479   37.6762   16.9232 C   0  0  0  0  0  0  0  0  0  0  0  0
   16.2980   34.6901   16.2479 C   0  0  0  0  0  0  0  0  0  0  0  0
   14.4967   35.2983   17.9252 C   0  0  0  0  0  0  0  0  0  0  0  0
   13.8836   36.2002   18.7775 C   0  0  0  0  0  0  0  0  0  0  0  0
   14.4124   37.4645   18.9794 C   0  0  0  0  0  0  0  0  0  0  0  0
   15.5454   37.8210   18.2771 C   0  0  0  0  0  0  0  0  0  0  0  0
   16.1557   36.9166   17.4201 C   0  0  0  0  0  0  0  0  0  0  0  0
   15.6369   35.6537   17.2194 C   0  0  0  0  0  0  0  0  0  0  0  0
  9 10  1  0  0  0
 10 11  2  0  0  0
 10 15  1  0  0  0
 11 12  1  0  0  0
 12 13  2  0  0  0
 13 14  1  0  0  0
 13  6  1  0  0  0
 14 15  2  0  0  0
  6  7  2  0  0  0
  6  8  2  0  0  0
  6  5  1  0  0  0
  5 18  1  0  0  0
  5  4  1  0  0  0
 18 19  1  0  0  0
 19 20  1  0  0  0
 19 21  1  0  0  0
 21 22  1  0  0  0
  4  1  1  0  0  0
  1  2  1  0  0  0
  1 23  1  0  0  0
 23 24  1  0  0  0
 23 37  1  0  0  0
 24 25  1  0  0  0
 25 26  2  0  0  0
 25 28  1  0  0  0
 28 29  1  0  0  0
 29 30  1  0  0  0
 29 36  1  0  0  0
 30 31  1  0  0  0
 31 32  1  0  0  0
 32 33  1  0  0  0
 32 36  1  0  0  0
 33 34  1  0  0  0
 34 35  1  0  0  0
 35 36  1  0  0  0
 37 43  1  0  0  0
 38 39  2  0  0  0
 38 43  1  0  0  0
 39 40  1  0  0  0
 40 41  2  0  0  0
 41 42  1  0  0  0
 42 43  2  0  0  0
  9 16  1  0  0  0
  9 17  1  0  0  0
  2  3  1  0  0  0
 24 27  1  0  0  0
M  END
> <minimizedAffinity>
-8.58598

$$$$
3O99_K13_A_200


 43 46  0  0  0  0  0  0  0  0999 V2000
   20.1207   30.2868   14.6095 C   0  0  0  0  0  0  0  0  0  0  0  0
   20.6061   29.3057   15.5363 O   0  0  0  0  0  0  0  0  0  0  0  0
   21.5640   29.4110   15.6464 H   0  0  0  0  0  0  0  0  0  0  0  0
   20.7879   30.0483   13.2507 C   0  0  0  0  0  0  0  0  0  0  0  0
   20.3157   28.7536   12.7411 N   0  0  0  0  0  0  0  0  0  0  0  0
   18.7254   28.7028   12.4344 S   0  0  0  0  0  0  0  0  0  0  0  0
   18.3065   29.9914   11.9874 O   0  0  0  0  0  0  0  0  0  0  0  0
   18.1230   28.3901   13.6945 O   0  0  0  0  0  0  0  0  0  0  0  0
   17.4925   24.7987    8.3832 N   0  0  0  0  0  0  0  0  0  0  0  0
   17.7826   25.6784    9.3607 C   0  0  0  0  0  0  0  0  0  0  0  0
   17.9663   25.2547   10.6796 C   0  0  0  0  0  0  0  0  0  0  0  0
   18.2547   26.2154   11.6578 C   0  0  0  0  0  0  0  0  0  0  0  0
   18.3653   27.5716   11.3330 C   0  0  0  0  0  0  0  0  0  0  0  0
   18.1794   27.9560   10.0153 C   0  0  0  0  0  0  0  0  0  0  0  0
   17.8827   27.0156    9.0344 C   0  0  0  0  0  0  0  0  0  0  0  0
   17.4158   23.8395    8.5911 H   0  0  0  0  0  0  0  0  0  0  0  0
   17.3571   25.1149    7.4607 H   0  0  0  0  0  0  0  0  0  0  0  0
   21.1358   28.2076   11.6317 C   0  0  0  0  0  0  0  0  0  0  0  0
   22.0798   27.1249   12.1503 C   0  0  0  0  0  0  0  0  0  0  0  0
   21.9431   25.7893   11.4065 C   0  0  0  0  0  0  0  0  0  0  0  0
   23.5216   27.6547   12.1407 C   0  0  0  0  0  0  0  0  0  0  0  0
   24.5016   26.6906   11.5202 C   0  0  0  0  0  0  0  0  0  0  0  0
   20.3394   31.7011   15.1648 C   0  0  0  0  0  0  0  0  0  0  0  0
   19.1349   32.0630   15.8798 N   0  0  0  0  0  0  0  0  0  0  0  0
   18.0570   32.6292   15.3564 C   0  0  0  0  0  0  0  0  0  0  0  0
   17.8791   32.9341   14.1977 O   0  0  0  0  0  0  0  0  0  0  0  0
   19.1141   31.8707   16.8451 H   0  0  0  0  0  0  0  0  0  0  0  0
   17.0314   32.8636   16.3327 O   0  0  0  0  0  0  0  0  0  0  0  0
   16.0563   33.8686   16.1459 C   0  0  0  0  0  0  0  0  0  0  0  0
   14.8860   33.4432   17.0136 C   0  0  0  0  0  0  0  0  0  0  0  0
   15.1800   33.9864   18.3093 O   0  0  0  0  0  0  0  0  0  0  0  0
   16.0406   35.1194   18.1810 C   0  0  0  0  0  0  0  0  0  0  0  0
   17.2175   34.9691   18.9660 O   0  0  0  0  0  0  0  0  0  0  0  0
   18.3856   34.8815   18.1518 C   0  0  0  0  0  0  0  0  0  0  0  0
   17.9831   35.4732   16.8110 C   0  0  0  0  0  0  0  0  0  0  0  0
   16.4911   35.1964   16.7350 C   0  0  0  0  0  0  0  0  0  0  0  0
   21.5494   31.8413   16.0986 C   0  0  0  0  0  0  0  0  0  0  0  0
   21.5040   34.3362   15.6497 C   0  0  0  0  0  0  0  0  0  0  0  0
   21.7075   35.6467   16.0458 C   0  0  0  0  0  0  0  0  0  0  0  0
   22.0994   35.9488   17.3396 C   0  0  0  0  0  0  0  0  0  0  0  0
   22.3239   34.9074   18.2166 C   0  0  0  0  0  0  0  0  0  0  0  0
   22.1233   33.5944   17.8159 C   0  0  0  0  0  0  0  0  0  0  0  0
   21.7273   33.2876   16.5300 C   0  0  0  0  0  0  0  0  0  0  0  0
  9 10  1  0  0  0
 10 11  2  0  0  0
 10 15  1  0  0  0
 11 12  1  0  0  0
 12 13  2  0  0  0
 13 14  1  0  0  0
 13  6  1  0  0  0
 14 15  2  0  0  0
  6  7  2  0  0  0
  6  8  2  0  0  0
  6  5  1  0  0  0
  5 18  1  0  0  0
  5  4  1  0  0  0
 18 19  1  0  0  0
 19 20  1  0  0  0
 19 21  1  0  0  0
 21 22  1  0  0  0
  4  1  1  0  0  0
  1  2  1  0  0  0
  1 23  1  0  0  0
 23 24  1  0  0  0
 23 37  1  0  0  0
 24 25  1  0  0  0
 25 26  2  0  0  0
 25 28  1  0  0  0
 28 29  1  0  0  0
 29 30  1  0  0  0
 29 36  1  0  0  0
 30 31  1  0  0  0
 31 32  1  0  0  0
 32 33  1  0  0  0
 32 36  1  0  0  0
 33 34  1  0  0  0
 34 35  1  0  0  0
 35 36  1  0  0  0
 37 43  1  0  0  0
 38 39  2  0  0  0
 38 43  1  0  0  0
 39 40  1  0  0  0
 40 41  2  0  0  0
 41 42  1  0  0  0
 42 43  2  0  0  0
  9 16  1  0  0  0
  9 17  1  0  0  0
  2  3  1  0  0  0
 24 27  1  0  0  0
M  END
> <minimizedAffinity>
-8.56085

$$$$
