6G35_EKK_A_802


 25 27  0  0  0  0  0  0  0  0999 V2000
   65.8086   28.6585   11.4981 C   0  0  0  0  0  0  0  0  0  0  0  0
   66.7813   27.7145   11.4888 C   0  0  0  0  0  0  0  0  0  0  0  0
   68.5596   25.4187   12.7917 N   0  0  0  0  0  0  0  0  0  0  0  0
   66.7739   27.0463   12.7405 C   0  0  0  0  0  0  0  0  0  0  0  0
   67.5085   26.0119   13.3617 C   0  0  0  0  0  0  0  0  0  0  0  0
   67.1474   25.6446   14.6066 N   0  0  0  0  0  0  0  0  0  0  0  0
   66.1306   26.2835   15.1896 C   0  0  0  0  0  0  0  0  0  0  0  0
   65.7353   27.6368   13.4725 C   0  0  0  0  0  0  0  0  0  0  0  0
   65.3844   27.2823   14.7140 N   0  0  0  0  0  0  0  0  0  0  0  0
   67.9202   27.2685   10.0673 Br  0  0  0  0  0  0  0  0  0  0  0  0
   65.1543   28.6165   12.7040 N   0  0  0  0  0  0  0  0  0  0  0  0
   68.8365   25.6756   11.8825 H   0  0  0  0  0  0  0  0  0  0  0  0
   69.0578   24.7243   13.2803 H   0  0  0  0  0  0  0  0  0  0  0  0
   64.0341   29.4600   13.1017 C   0  0  0  0  0  0  0  0  0  0  0  0
   64.4254   30.5724   14.0740 C   0  0  0  0  0  0  0  0  0  0  0  0
   63.3297   30.8269   14.9483 O   0  0  0  0  0  0  0  0  0  0  0  0
   64.7202   31.7225   13.1081 C   0  0  0  0  0  0  0  0  0  0  0  0
   64.5991   33.0055   13.7257 O   0  0  0  0  0  0  0  0  0  0  0  0
   63.5209   30.0856   11.9396 O   0  0  0  0  0  0  0  0  0  0  0  0
   63.6601   31.5181   12.0403 C   0  0  0  0  0  0  0  0  0  0  0  0
   62.5361   31.0190   14.4247 H   0  0  0  0  0  0  0  0  0  0  0  0
   63.7072   33.1041   14.0941 H   0  0  0  0  0  0  0  0  0  0  0  0
   63.0770   31.6270    9.6831 O   0  0  0  0  0  0  0  0  0  0  0  0
   63.9817   32.0840   10.6766 C   0  0  0  0  0  0  0  0  0  0  0  0
   63.3171   32.0118    8.8256 H   0  0  0  0  0  0  0  0  0  0  0  0
 23 24  1  0  0  0
 10  2  1  0  0  0
 24 20  1  0  0  0
  1  2  2  0  0  0
  1 11  1  0  0  0
  2  4  1  0  0  0
 20 19  1  0  0  0
 20 17  1  0  0  0
 19 14  1  0  0  0
 11 14  1  0  0  0
 11  8  1  0  0  0
 17 18  1  0  0  0
 17 15  1  0  0  0
  4  5  2  0  0  0
  4  8  1  0  0  0
  3  5  1  0  0  0
 14 15  1  0  0  0
  5  6  1  0  0  0
  8  9  2  0  0  0
 15 16  1  0  0  0
  6  7  2  0  0  0
  9  7  1  0  0  0
 23 25  1  0  0  0
  3 12  1  0  0  0
  3 13  1  0  0  0
 16 21  1  0  0  0
 18 22  1  0  0  0
M  END
> <minimizedAffinity>
-9.37604

$$$$
6G35_EKK_A_802


 25 27  0  0  0  0  0  0  0  0999 V2000
   65.3582   29.1967   11.3087 C   0  0  0  0  0  0  0  0  0  0  0  0
   66.3712   29.0482   10.4203 C   0  0  0  0  0  0  0  0  0  0  0  0
   69.1047   27.7987    9.3732 N   0  0  0  0  0  0  0  0  0  0  0  0
   67.2353   28.0246   10.8879 C   0  0  0  0  0  0  0  0  0  0  0  0
   68.4333   27.4107   10.4595 C   0  0  0  0  0  0  0  0  0  0  0  0
   68.9347   26.4149   11.2158 N   0  0  0  0  0  0  0  0  0  0  0  0
   68.2854   26.0728   12.3309 C   0  0  0  0  0  0  0  0  0  0  0  0
   66.6641   27.5717   12.0846 C   0  0  0  0  0  0  0  0  0  0  0  0
   67.1682   26.5922   12.8437 N   0  0  0  0  0  0  0  0  0  0  0  0
   66.6016   29.9559    8.7956 Br  0  0  0  0  0  0  0  0  0  0  0  0
   65.5203   28.2929   12.3290 N   0  0  0  0  0  0  0  0  0  0  0  0
   68.7521   28.5250    8.8098 H   0  0  0  0  0  0  0  0  0  0  0  0
   69.9527   27.3587    9.1353 H   0  0  0  0  0  0  0  0  0  0  0  0
   64.6325   28.1219   13.4723 C   0  0  0  0  0  0  0  0  0  0  0  0
   65.2644   28.5369   14.8006 C   0  0  0  0  0  0  0  0  0  0  0  0
   64.7427   27.7106   15.8374 O   0  0  0  0  0  0  0  0  0  0  0  0
   64.8205   29.9984   14.8982 C   0  0  0  0  0  0  0  0  0  0  0  0
   64.8101   30.4825   16.2426 O   0  0  0  0  0  0  0  0  0  0  0  0
   63.4990   28.9475   13.2757 O   0  0  0  0  0  0  0  0  0  0  0  0
   63.4185   29.9424   14.3176 C   0  0  0  0  0  0  0  0  0  0  0  0
   63.7737   27.7540   15.8286 H   0  0  0  0  0  0  0  0  0  0  0  0
   64.2293   29.9243   16.7829 H   0  0  0  0  0  0  0  0  0  0  0  0
   61.9720   31.8754   14.5987 O   0  0  0  0  0  0  0  0  0  0  0  0
   62.8959   31.2340   13.7330 C   0  0  0  0  0  0  0  0  0  0  0  0
   61.6614   32.6976   14.1882 H   0  0  0  0  0  0  0  0  0  0  0  0
 23 24  1  0  0  0
 10  2  1  0  0  0
 24 20  1  0  0  0
  1  2  2  0  0  0
  1 11  1  0  0  0
  2  4  1  0  0  0
 20 19  1  0  0  0
 20 17  1  0  0  0
 19 14  1  0  0  0
 11 14  1  0  0  0
 11  8  1  0  0  0
 17 18  1  0  0  0
 17 15  1  0  0  0
  4  5  2  0  0  0
  4  8  1  0  0  0
  3  5  1  0  0  0
 14 15  1  0  0  0
  5  6  1  0  0  0
  8  9  2  0  0  0
 15 16  1  0  0  0
  6  7  2  0  0  0
  9  7  1  0  0  0
 23 25  1  0  0  0
  3 12  1  0  0  0
  3 13  1  0  0  0
 16 21  1  0  0  0
 18 22  1  0  0  0
M  END
> <minimizedAffinity>
-9.22625

$$$$
6G35_EKK_A_802


 25 27  0  0  0  0  0  0  0  0999 V2000
   64.2924   31.8367   12.3212 C   0  0  0  0  0  0  0  0  0  0  0  0
   64.7846   32.8031   11.5080 C   0  0  0  0  0  0  0  0  0  0  0  0
   66.4653   33.8816    9.0297 N   0  0  0  0  0  0  0  0  0  0  0  0
   65.4944   32.1826   10.4476 C   0  0  0  0  0  0  0  0  0  0  0  0
   66.2278   32.5995    9.3145 C   0  0  0  0  0  0  0  0  0  0  0  0
   66.7432   31.6465    8.5138 N   0  0  0  0  0  0  0  0  0  0  0  0
   66.5478   30.3667    8.8392 C   0  0  0  0  0  0  0  0  0  0  0  0
   65.3750   30.8050   10.6745 C   0  0  0  0  0  0  0  0  0  0  0  0
   65.8978   29.8577    9.8876 N   0  0  0  0  0  0  0  0  0  0  0  0
   64.5363   34.6554   11.6628 Br  0  0  0  0  0  0  0  0  0  0  0  0
   64.6393   30.6075   11.8181 N   0  0  0  0  0  0  0  0  0  0  0  0
   66.0959   34.5903    9.6048 H   0  0  0  0  0  0  0  0  0  0  0  0
   67.0098   34.1188    8.2445 H   0  0  0  0  0  0  0  0  0  0  0  0
   64.2862   29.3152   12.3923 C   0  0  0  0  0  0  0  0  0  0  0  0
   65.4055   28.6943   13.2276 C   0  0  0  0  0  0  0  0  0  0  0  0
   65.3359   27.2762   13.1100 O   0  0  0  0  0  0  0  0  0  0  0  0
   65.0571   29.2124   14.6249 C   0  0  0  0  0  0  0  0  0  0  0  0
   65.5962   28.3952   15.6659 O   0  0  0  0  0  0  0  0  0  0  0  0
   63.1802   29.5056   13.2559 O   0  0  0  0  0  0  0  0  0  0  0  0
   63.5394   29.1640   14.6109 C   0  0  0  0  0  0  0  0  0  0  0  0
   64.4464   26.9749   13.3526 H   0  0  0  0  0  0  0  0  0  0  0  0
   65.2757   27.4856   15.5616 H   0  0  0  0  0  0  0  0  0  0  0  0
   63.6274   30.3804   16.7134 O   0  0  0  0  0  0  0  0  0  0  0  0
   62.8418   30.1069   15.5635 C   0  0  0  0  0  0  0  0  0  0  0  0
   63.1458   30.9870   17.2973 H   0  0  0  0  0  0  0  0  0  0  0  0
 23 24  1  0  0  0
 10  2  1  0  0  0
 24 20  1  0  0  0
  1  2  2  0  0  0
  1 11  1  0  0  0
  2  4  1  0  0  0
 20 19  1  0  0  0
 20 17  1  0  0  0
 19 14  1  0  0  0
 11 14  1  0  0  0
 11  8  1  0  0  0
 17 18  1  0  0  0
 17 15  1  0  0  0
  4  5  2  0  0  0
  4  8  1  0  0  0
  3  5  1  0  0  0
 14 15  1  0  0  0
  5  6  1  0  0  0
  8  9  2  0  0  0
 15 16  1  0  0  0
  6  7  2  0  0  0
  9  7  1  0  0  0
 23 25  1  0  0  0
  3 12  1  0  0  0
  3 13  1  0  0  0
 16 21  1  0  0  0
 18 22  1  0  0  0
M  END
> <minimizedAffinity>
-8.43519

$$$$
6G35_EKK_A_802


 25 27  0  0  0  0  0  0  0  0999 V2000
   65.4381   29.1623   11.4920 C   0  0  0  0  0  0  0  0  0  0  0  0
   65.8163   28.3550   12.5131 C   0  0  0  0  0  0  0  0  0  0  0  0
   65.7117   27.2809   15.5073 N   0  0  0  0  0  0  0  0  0  0  0  0
   65.0008   28.6388   13.6390 C   0  0  0  0  0  0  0  0  0  0  0  0
   64.8860   28.1818   14.9707 C   0  0  0  0  0  0  0  0  0  0  0  0
   63.9190   28.7202   15.7389 N   0  0  0  0  0  0  0  0  0  0  0  0
   63.1348   29.6618   15.2092 C   0  0  0  0  0  0  0  0  0  0  0  0
   64.1161   29.6397   13.2160 C   0  0  0  0  0  0  0  0  0  0  0  0
   63.1641   30.1849   13.9819 N   0  0  0  0  0  0  0  0  0  0  0  0
   67.1315   27.0186   12.4794 Br  0  0  0  0  0  0  0  0  0  0  0  0
   64.3920   29.9488   11.9060 N   0  0  0  0  0  0  0  0  0  0  0  0
   66.4237   26.8780   14.9596 H   0  0  0  0  0  0  0  0  0  0  0  0
   65.6089   27.0194   16.4509 H   0  0  0  0  0  0  0  0  0  0  0  0
   63.6902   30.9377   11.0972 C   0  0  0  0  0  0  0  0  0  0  0  0
   63.5526   32.2970   11.7823 C   0  0  0  0  0  0  0  0  0  0  0  0
   62.3304   32.9005   11.3678 O   0  0  0  0  0  0  0  0  0  0  0  0
   64.7997   33.0185   11.2661 C   0  0  0  0  0  0  0  0  0  0  0  0
   64.6704   34.4411   11.3082 O   0  0  0  0  0  0  0  0  0  0  0  0
   64.4354   31.1440    9.9109 O   0  0  0  0  0  0  0  0  0  0  0  0
   64.8899   32.5114    9.8376 C   0  0  0  0  0  0  0  0  0  0  0  0
   62.3017   32.9401   10.3990 H   0  0  0  0  0  0  0  0  0  0  0  0
   63.8952   34.7107   10.7912 H   0  0  0  0  0  0  0  0  0  0  0  0
   66.7375   33.8727    9.0367 O   0  0  0  0  0  0  0  0  0  0  0  0
   66.2651   32.5460    9.2124 C   0  0  0  0  0  0  0  0  0  0  0  0
   67.6198   33.8512    8.6343 H   0  0  0  0  0  0  0  0  0  0  0  0
 23 24  1  0  0  0
 10  2  1  0  0  0
 24 20  1  0  0  0
  1  2  2  0  0  0
  1 11  1  0  0  0
  2  4  1  0  0  0
 20 19  1  0  0  0
 20 17  1  0  0  0
 19 14  1  0  0  0
 11 14  1  0  0  0
 11  8  1  0  0  0
 17 18  1  0  0  0
 17 15  1  0  0  0
  4  5  2  0  0  0
  4  8  1  0  0  0
  3  5  1  0  0  0
 14 15  1  0  0  0
  5  6  1  0  0  0
  8  9  2  0  0  0
 15 16  1  0  0  0
  6  7  2  0  0  0
  9  7  1  0  0  0
 23 25  1  0  0  0
  3 12  1  0  0  0
  3 13  1  0  0  0
 16 21  1  0  0  0
 18 22  1  0  0  0
M  END
> <minimizedAffinity>
-8.25721

$$$$
6G35_EKK_A_802


 25 27  0  0  0  0  0  0  0  0999 V2000
   66.0387   27.9558   12.0473 C   0  0  0  0  0  0  0  0  0  0  0  0
   67.1891   27.5724   11.4417 C   0  0  0  0  0  0  0  0  0  0  0  0
   69.3961   27.6809    9.1510 N   0  0  0  0  0  0  0  0  0  0  0  0
   67.4002   28.3997   10.3084 C   0  0  0  0  0  0  0  0  0  0  0  0
   68.3636   28.5165    9.2819 C   0  0  0  0  0  0  0  0  0  0  0  0
   68.1977   29.4967    8.3726 N   0  0  0  0  0  0  0  0  0  0  0  0
   67.1305   30.2914    8.4801 C   0  0  0  0  0  0  0  0  0  0  0  0
   66.3237   29.2965   10.2954 C   0  0  0  0  0  0  0  0  0  0  0  0
   66.1504   30.2617    9.3852 N   0  0  0  0  0  0  0  0  0  0  0  0
   68.3800   26.2370   12.0033 Br  0  0  0  0  0  0  0  0  0  0  0  0
   65.5022   29.0165   11.3606 N   0  0  0  0  0  0  0  0  0  0  0  0
   69.5316   26.9592    9.8068 H   0  0  0  0  0  0  0  0  0  0  0  0
   70.0222   27.7861    8.3985 H   0  0  0  0  0  0  0  0  0  0  0  0
   64.2767   29.7276   11.7023 C   0  0  0  0  0  0  0  0  0  0  0  0
   64.2799   30.2988   13.1200 C   0  0  0  0  0  0  0  0  0  0  0  0
   62.9491   30.2779   13.6284 O   0  0  0  0  0  0  0  0  0  0  0  0
   64.8203   31.7091   12.8720 C   0  0  0  0  0  0  0  0  0  0  0  0
   64.4471   32.6306   13.8985 O   0  0  0  0  0  0  0  0  0  0  0  0
   64.1414   30.8220   10.8140 O   0  0  0  0  0  0  0  0  0  0  0  0
   64.1754   32.0659   11.5444 C   0  0  0  0  0  0  0  0  0  0  0  0
   62.3610   30.7446   13.0143 H   0  0  0  0  0  0  0  0  0  0  0  0
   63.4804   32.6561   13.9743 H   0  0  0  0  0  0  0  0  0  0  0  0
   66.0806   33.5635   11.3570 O   0  0  0  0  0  0  0  0  0  0  0  0
   64.8969   33.1072   10.7208 C   0  0  0  0  0  0  0  0  0  0  0  0
   66.5124   34.2283   10.7981 H   0  0  0  0  0  0  0  0  0  0  0  0
 23 24  1  0  0  0
 10  2  1  0  0  0
 24 20  1  0  0  0
  1  2  2  0  0  0
  1 11  1  0  0  0
  2  4  1  0  0  0
 20 19  1  0  0  0
 20 17  1  0  0  0
 19 14  1  0  0  0
 11 14  1  0  0  0
 11  8  1  0  0  0
 17 18  1  0  0  0
 17 15  1  0  0  0
  4  5  2  0  0  0
  4  8  1  0  0  0
  3  5  1  0  0  0
 14 15  1  0  0  0
  5  6  1  0  0  0
  8  9  2  0  0  0
 15 16  1  0  0  0
  6  7  2  0  0  0
  9  7  1  0  0  0
 23 25  1  0  0  0
  3 12  1  0  0  0
  3 13  1  0  0  0
 16 21  1  0  0  0
 18 22  1  0  0  0
M  END
> <minimizedAffinity>
-8.24873

$$$$
6G35_EKK_A_802


 25 27  0  0  0  0  0  0  0  0999 V2000
   64.7798   28.1498   13.6272 C   0  0  0  0  0  0  0  0  0  0  0  0
   65.8066   27.2778   13.4766 C   0  0  0  0  0  0  0  0  0  0  0  0
   68.1903   25.9062   11.8745 N   0  0  0  0  0  0  0  0  0  0  0  0
   66.4134   27.5084   12.2149 C   0  0  0  0  0  0  0  0  0  0  0  0
   67.4799   26.9606   11.4680 C   0  0  0  0  0  0  0  0  0  0  0  0
   67.7560   27.5110   10.2697 N   0  0  0  0  0  0  0  0  0  0  0  0
   67.0027   28.5289    9.8474 C   0  0  0  0  0  0  0  0  0  0  0  0
   65.6994   28.5715   11.6462 C   0  0  0  0  0  0  0  0  0  0  0  0
   65.9639   29.1102   10.4505 N   0  0  0  0  0  0  0  0  0  0  0  0
   66.4173   26.0139   14.7201 Br  0  0  0  0  0  0  0  0  0  0  0  0
   64.7078   28.9540   12.5171 N   0  0  0  0  0  0  0  0  0  0  0  0
   68.0011   25.4922   12.7474 H   0  0  0  0  0  0  0  0  0  0  0  0
   68.9034   25.5426   11.3014 H   0  0  0  0  0  0  0  0  0  0  0  0
   63.7501   30.0309   12.2989 C   0  0  0  0  0  0  0  0  0  0  0  0
   63.6781   31.0250   13.4577 C   0  0  0  0  0  0  0  0  0  0  0  0
   62.3469   31.5229   13.5558 O   0  0  0  0  0  0  0  0  0  0  0  0
   64.6959   32.0773   13.0113 C   0  0  0  0  0  0  0  0  0  0  0  0
   64.4671   33.3542   13.6106 O   0  0  0  0  0  0  0  0  0  0  0  0
   64.1584   30.7568   11.1537 O   0  0  0  0  0  0  0  0  0  0  0  0
   64.4691   32.1199   11.5104 C   0  0  0  0  0  0  0  0  0  0  0  0
   62.0754   31.8908   12.7003 H   0  0  0  0  0  0  0  0  0  0  0  0
   63.5688   33.6537   13.4005 H   0  0  0  0  0  0  0  0  0  0  0  0
   66.2046   33.7923   11.1963 O   0  0  0  0  0  0  0  0  0  0  0  0
   65.6386   32.5971   10.6811 C   0  0  0  0  0  0  0  0  0  0  0  0
   66.9495   34.0643   10.6377 H   0  0  0  0  0  0  0  0  0  0  0  0
 23 24  1  0  0  0
 10  2  1  0  0  0
 24 20  1  0  0  0
  1  2  2  0  0  0
  1 11  1  0  0  0
  2  4  1  0  0  0
 20 19  1  0  0  0
 20 17  1  0  0  0
 19 14  1  0  0  0
 11 14  1  0  0  0
 11  8  1  0  0  0
 17 18  1  0  0  0
 17 15  1  0  0  0
  4  5  2  0  0  0
  4  8  1  0  0  0
  3  5  1  0  0  0
 14 15  1  0  0  0
  5  6  1  0  0  0
  8  9  2  0  0  0
 15 16  1  0  0  0
  6  7  2  0  0  0
  9  7  1  0  0  0
 23 25  1  0  0  0
  3 12  1  0  0  0
  3 13  1  0  0  0
 16 21  1  0  0  0
 18 22  1  0  0  0
M  END
> <minimizedAffinity>
-8.23676

$$$$
6G35_EKK_A_802


 25 27  0  0  0  0  0  0  0  0999 V2000
   65.9566   29.9804    9.7458 C   0  0  0  0  0  0  0  0  0  0  0  0
   66.6966   28.8836   10.0404 C   0  0  0  0  0  0  0  0  0  0  0  0
   67.6383   26.4753   11.8960 N   0  0  0  0  0  0  0  0  0  0  0  0
   66.2740   28.3778   11.2969 C   0  0  0  0  0  0  0  0  0  0  0  0
   66.6270   27.3086   12.1499 C   0  0  0  0  0  0  0  0  0  0  0  0
   65.9290   27.1591   13.2924 N   0  0  0  0  0  0  0  0  0  0  0  0
   64.9566   28.0324   13.5639 C   0  0  0  0  0  0  0  0  0  0  0  0
   65.2375   29.2251   11.7106 C   0  0  0  0  0  0  0  0  0  0  0  0
   64.5526   29.0859   12.8514 N   0  0  0  0  0  0  0  0  0  0  0  0
   68.0128   28.0793    8.9737 Br  0  0  0  0  0  0  0  0  0  0  0  0
   65.0530   30.1964   10.7564 N   0  0  0  0  0  0  0  0  0  0  0  0
   68.1584   26.5710   11.0656 H   0  0  0  0  0  0  0  0  0  0  0  0
   67.8641   25.7649   12.5392 H   0  0  0  0  0  0  0  0  0  0  0  0
   64.0649   31.2665   10.8088 C   0  0  0  0  0  0  0  0  0  0  0  0
   64.2854   32.2421   11.9646 C   0  0  0  0  0  0  0  0  0  0  0  0
   63.0205   32.7248   12.4082 O   0  0  0  0  0  0  0  0  0  0  0  0
   65.1489   33.3115   11.2912 C   0  0  0  0  0  0  0  0  0  0  0  0
   65.0731   34.5768   11.9511 O   0  0  0  0  0  0  0  0  0  0  0  0
   64.1624   32.0139    9.6100 O   0  0  0  0  0  0  0  0  0  0  0  0
   64.5456   33.3746    9.8991 C   0  0  0  0  0  0  0  0  0  0  0  0
   62.5371   33.1028   11.6570 H   0  0  0  0  0  0  0  0  0  0  0  0
   64.1491   34.8702   11.9827 H   0  0  0  0  0  0  0  0  0  0  0  0
   66.6226   34.5021    9.3308 O   0  0  0  0  0  0  0  0  0  0  0  0
   65.4614   33.8764    8.8070 C   0  0  0  0  0  0  0  0  0  0  0  0
   67.1820   34.8091    8.6002 H   0  0  0  0  0  0  0  0  0  0  0  0
 23 24  1  0  0  0
 10  2  1  0  0  0
 24 20  1  0  0  0
  1  2  2  0  0  0
  1 11  1  0  0  0
  2  4  1  0  0  0
 20 19  1  0  0  0
 20 17  1  0  0  0
 19 14  1  0  0  0
 11 14  1  0  0  0
 11  8  1  0  0  0
 17 18  1  0  0  0
 17 15  1  0  0  0
  4  5  2  0  0  0
  4  8  1  0  0  0
  3  5  1  0  0  0
 14 15  1  0  0  0
  5  6  1  0  0  0
  8  9  2  0  0  0
 15 16  1  0  0  0
  6  7  2  0  0  0
  9  7  1  0  0  0
 23 25  1  0  0  0
  3 12  1  0  0  0
  3 13  1  0  0  0
 16 21  1  0  0  0
 18 22  1  0  0  0
M  END
> <minimizedAffinity>
-8.06387

$$$$
6G35_EKK_A_802


 25 27  0  0  0  0  0  0  0  0999 V2000
   64.2942   30.8042   13.9543 C   0  0  0  0  0  0  0  0  0  0  0  0
   64.5893   29.6852   14.6601 C   0  0  0  0  0  0  0  0  0  0  0  0
   65.6932   26.7195   15.0008 N   0  0  0  0  0  0  0  0  0  0  0  0
   65.2371   28.7644   13.7965 C   0  0  0  0  0  0  0  0  0  0  0  0
   65.7713   27.4603   13.8933 C   0  0  0  0  0  0  0  0  0  0  0  0
   66.3472   26.9338   12.7950 N   0  0  0  0  0  0  0  0  0  0  0  0
   66.3693   27.6616   11.6761 C   0  0  0  0  0  0  0  0  0  0  0  0
   65.3207   29.4114   12.5564 C   0  0  0  0  0  0  0  0  0  0  0  0
   65.8802   28.8845   11.4613 N   0  0  0  0  0  0  0  0  0  0  0  0
   64.2888   29.3794   16.4858 Br  0  0  0  0  0  0  0  0  0  0  0  0
   64.7440   30.6537   12.6662 N   0  0  0  0  0  0  0  0  0  0  0  0
   65.2754   27.0893   15.8119 H   0  0  0  0  0  0  0  0  0  0  0  0
   66.0535   25.8033   15.0066 H   0  0  0  0  0  0  0  0  0  0  0  0
   64.6347   31.6404   11.5990 C   0  0  0  0  0  0  0  0  0  0  0  0
   63.2221   31.7663   11.0292 C   0  0  0  0  0  0  0  0  0  0  0  0
   63.3107   32.0932    9.6453 O   0  0  0  0  0  0  0  0  0  0  0  0
   62.6524   32.8951   11.8915 C   0  0  0  0  0  0  0  0  0  0  0  0
   61.5656   33.5757   11.2606 O   0  0  0  0  0  0  0  0  0  0  0  0
   64.9815   32.9053   12.1328 O   0  0  0  0  0  0  0  0  0  0  0  0
   63.8565   33.8055   12.0565 C   0  0  0  0  0  0  0  0  0  0  0  0
   63.8550   32.8885    9.5352 H   0  0  0  0  0  0  0  0  0  0  0  0
   61.8578   33.9286   10.4056 H   0  0  0  0  0  0  0  0  0  0  0  0
   62.6909   34.4918   14.0760 O   0  0  0  0  0  0  0  0  0  0  0  0
   63.8470   34.6948   13.2781 C   0  0  0  0  0  0  0  0  0  0  0  0
   62.7231   35.0793   14.8472 H   0  0  0  0  0  0  0  0  0  0  0  0
 23 24  1  0  0  0
 10  2  1  0  0  0
 24 20  1  0  0  0
  1  2  2  0  0  0
  1 11  1  0  0  0
  2  4  1  0  0  0
 20 19  1  0  0  0
 20 17  1  0  0  0
 19 14  1  0  0  0
 11 14  1  0  0  0
 11  8  1  0  0  0
 17 18  1  0  0  0
 17 15  1  0  0  0
  4  5  2  0  0  0
  4  8  1  0  0  0
  3  5  1  0  0  0
 14 15  1  0  0  0
  5  6  1  0  0  0
  8  9  2  0  0  0
 15 16  1  0  0  0
  6  7  2  0  0  0
  9  7  1  0  0  0
 23 25  1  0  0  0
  3 12  1  0  0  0
  3 13  1  0  0  0
 16 21  1  0  0  0
 18 22  1  0  0  0
M  END
> <minimizedAffinity>
-8.04718

$$$$
6G35_EKK_A_802


 25 27  0  0  0  0  0  0  0  0999 V2000
   65.5259   29.6674   10.9560 C   0  0  0  0  0  0  0  0  0  0  0  0
   64.9853   30.6917   11.6603 C   0  0  0  0  0  0  0  0  0  0  0  0
   64.4002   33.7618   12.2622 N   0  0  0  0  0  0  0  0  0  0  0  0
   65.2700   31.9054   10.9827 C   0  0  0  0  0  0  0  0  0  0  0  0
   65.0158   33.2809   11.1800 C   0  0  0  0  0  0  0  0  0  0  0  0
   65.4587   34.1426   10.2438 N   0  0  0  0  0  0  0  0  0  0  0  0
   66.1232   33.6559    9.1933 C   0  0  0  0  0  0  0  0  0  0  0  0
   65.9881   31.5341    9.8381 C   0  0  0  0  0  0  0  0  0  0  0  0
   66.4403   32.3900    8.9146 N   0  0  0  0  0  0  0  0  0  0  0  0
   63.9594   30.5791   13.2261 Br  0  0  0  0  0  0  0  0  0  0  0  0
   66.1361   30.1681    9.8329 N   0  0  0  0  0  0  0  0  0  0  0  0
   64.0706   33.1456   12.9556 H   0  0  0  0  0  0  0  0  0  0  0  0
   64.2757   34.7328   12.3670 H   0  0  0  0  0  0  0  0  0  0  0  0
   66.8190   29.3883    8.8083 C   0  0  0  0  0  0  0  0  0  0  0  0
   68.3336   29.3223    9.0028 C   0  0  0  0  0  0  0  0  0  0  0  0
   68.9599   29.2548    7.7249 O   0  0  0  0  0  0  0  0  0  0  0  0
   68.4730   28.0379    9.8234 C   0  0  0  0  0  0  0  0  0  0  0  0
   69.7696   27.4484    9.7082 O   0  0  0  0  0  0  0  0  0  0  0  0
   66.3339   28.0594    8.8712 O   0  0  0  0  0  0  0  0  0  0  0  0
   67.4038   27.1521    9.2086 C   0  0  0  0  0  0  0  0  0  0  0  0
   68.5918   28.5106    7.2233 H   0  0  0  0  0  0  0  0  0  0  0  0
   69.9601   27.2660    8.7747 H   0  0  0  0  0  0  0  0  0  0  0  0
   67.6660   25.8665   11.2547 O   0  0  0  0  0  0  0  0  0  0  0  0
   66.8651   26.0562   10.0985 C   0  0  0  0  0  0  0  0  0  0  0  0
   67.2875   25.1572   11.7973 H   0  0  0  0  0  0  0  0  0  0  0  0
 23 24  1  0  0  0
 10  2  1  0  0  0
 24 20  1  0  0  0
  1  2  2  0  0  0
  1 11  1  0  0  0
  2  4  1  0  0  0
 20 19  1  0  0  0
 20 17  1  0  0  0
 19 14  1  0  0  0
 11 14  1  0  0  0
 11  8  1  0  0  0
 17 18  1  0  0  0
 17 15  1  0  0  0
  4  5  2  0  0  0
  4  8  1  0  0  0
  3  5  1  0  0  0
 14 15  1  0  0  0
  5  6  1  0  0  0
  8  9  2  0  0  0
 15 16  1  0  0  0
  6  7  2  0  0  0
  9  7  1  0  0  0
 23 25  1  0  0  0
  3 12  1  0  0  0
  3 13  1  0  0  0
 16 21  1  0  0  0
 18 22  1  0  0  0
M  END
> <minimizedAffinity>
-7.91630

$$$$
6G35_EKK_A_802


 25 27  0  0  0  0  0  0  0  0999 V2000
   65.1863   28.8123   12.0222 C   0  0  0  0  0  0  0  0  0  0  0  0
   66.2721   28.2574   11.4302 C   0  0  0  0  0  0  0  0  0  0  0  0
   68.4779   28.0055    9.1497 N   0  0  0  0  0  0  0  0  0  0  0  0
   66.6015   29.0234   10.2822 C   0  0  0  0  0  0  0  0  0  0  0  0
   67.5743   28.9817    9.2588 C   0  0  0  0  0  0  0  0  0  0  0  0
   67.5516   29.9571    8.3298 N   0  0  0  0  0  0  0  0  0  0  0  0
   66.6078   30.8973    8.4160 C   0  0  0  0  0  0  0  0  0  0  0  0
   65.6633   30.0636   10.2460 C   0  0  0  0  0  0  0  0  0  0  0  0
   65.6312   31.0252    9.3163 N   0  0  0  0  0  0  0  0  0  0  0  0
   67.2597   26.7779   12.0241 Br  0  0  0  0  0  0  0  0  0  0  0  0
   64.8077   29.9245   11.3121 N   0  0  0  0  0  0  0  0  0  0  0  0
   68.5079   27.2852    9.8202 H   0  0  0  0  0  0  0  0  0  0  0  0
   69.1145   28.0057    8.3987 H   0  0  0  0  0  0  0  0  0  0  0  0
   63.6947   30.8091   11.6333 C   0  0  0  0  0  0  0  0  0  0  0  0
   63.7372   31.3453   13.0640 C   0  0  0  0  0  0  0  0  0  0  0  0
   62.4025   31.5198   13.5307 O   0  0  0  0  0  0  0  0  0  0  0  0
   64.4956   32.6601   12.8671 C   0  0  0  0  0  0  0  0  0  0  0  0
   64.2334   33.6080   13.9038 O   0  0  0  0  0  0  0  0  0  0  0  0
   63.7592   31.9283   10.7682 O   0  0  0  0  0  0  0  0  0  0  0  0
   63.9585   33.1377   11.5295 C   0  0  0  0  0  0  0  0  0  0  0  0
   61.9141   32.0834   12.9104 H   0  0  0  0  0  0  0  0  0  0  0  0
   63.2800   33.7806   13.9506 H   0  0  0  0  0  0  0  0  0  0  0  0
   66.2229   33.6889   10.8390 O   0  0  0  0  0  0  0  0  0  0  0  0
   64.8587   34.0712   10.7540 C   0  0  0  0  0  0  0  0  0  0  0  0
   66.7654   34.3112   10.3298 H   0  0  0  0  0  0  0  0  0  0  0  0
 23 24  1  0  0  0
 10  2  1  0  0  0
 24 20  1  0  0  0
  1  2  2  0  0  0
  1 11  1  0  0  0
  2  4  1  0  0  0
 20 19  1  0  0  0
 20 17  1  0  0  0
 19 14  1  0  0  0
 11 14  1  0  0  0
 11  8  1  0  0  0
 17 18  1  0  0  0
 17 15  1  0  0  0
  4  5  2  0  0  0
  4  8  1  0  0  0
  3  5  1  0  0  0
 14 15  1  0  0  0
  5  6  1  0  0  0
  8  9  2  0  0  0
 15 16  1  0  0  0
  6  7  2  0  0  0
  9  7  1  0  0  0
 23 25  1  0  0  0
  3 12  1  0  0  0
  3 13  1  0  0  0
 16 21  1  0  0  0
 18 22  1  0  0  0
M  END
> <minimizedAffinity>
-7.76557

$$$$
