2QD6_065_B_404


 42 46  0  0  0  0  0  0  0  0999 V2000
   15.2193   23.6668   18.3270 C   0  0  0  0  0  0  0  0  0  0  0  0
   14.1231   24.5714   18.4833 O   0  0  0  0  0  0  0  0  0  0  0  0
   14.0164   25.0932   17.6726 H   0  0  0  0  0  0  0  0  0  0  0  0
   16.5538   24.3867   18.1591 C   0  0  0  0  0  0  0  0  0  0  0  0
   17.3668   23.7950   17.1112 N   0  0  0  0  0  0  0  0  0  0  0  0
   17.5607   24.7140   15.7660 S   0  0  0  0  0  0  0  0  0  0  0  0
   16.5811   25.8043   15.7928 O   0  0  0  0  0  0  0  0  0  0  0  0
   17.4234   23.7879   14.5861 O   0  0  0  0  0  0  0  0  0  0  0  0
   21.6658   26.5183   15.4414 C   0  0  0  0  0  0  0  0  0  0  0  0
   22.7569   27.3545   15.3705 O   0  0  0  0  0  0  0  0  0  0  0  0
   22.5407   28.2791   16.3555 C   0  0  0  0  0  0  0  0  0  0  0  0
   21.3142   28.1178   16.9598 O   0  0  0  0  0  0  0  0  0  0  0  0
   20.7549   27.0316   16.3534 C   0  0  0  0  0  0  0  0  0  0  0  0
   19.5066   26.4672   16.5019 C   0  0  0  0  0  0  0  0  0  0  0  0
   19.1776   25.3677   15.7180 C   0  0  0  0  0  0  0  0  0  0  0  0
   20.1003   24.8181   14.8488 C   0  0  0  0  0  0  0  0  0  0  0  0
   21.3578   25.3881   14.6991 C   0  0  0  0  0  0  0  0  0  0  0  0
   18.5259   23.0654   17.6060 C   0  0  0  0  0  0  0  0  0  0  0  0
   18.8590   23.3285   19.0798 C   0  0  0  0  0  0  0  0  0  0  0  0
   18.8633   22.0431   19.9086 C   0  0  0  0  0  0  0  0  0  0  0  0
   20.2462   23.9872   19.1730 C   0  0  0  0  0  0  0  0  0  0  0  0
   14.8754   22.7545   17.1411 C   0  0  0  0  0  0  0  0  0  0  0  0
   14.0787   21.6270   17.6160 N   0  0  0  0  0  0  0  0  0  0  0  0
   14.5511   20.4134   17.9097 C   0  0  0  0  0  0  0  0  0  0  0  0
   15.7190   20.0597   17.7136 O   0  0  0  0  0  0  0  0  0  0  0  0
   13.1118   21.7740   17.7291 H   0  0  0  0  0  0  0  0  0  0  0  0
   13.5764   19.6179   18.4224 O   0  0  0  0  0  0  0  0  0  0  0  0
   14.0358   18.4567   19.1258 C   0  0  0  0  0  0  0  0  0  0  0  0
   14.2416   18.9124   20.5743 C   0  0  0  0  0  0  0  0  0  0  0  0
   12.9365   18.9306   21.1501 O   0  0  0  0  0  0  0  0  0  0  0  0
   12.1551   17.9264   20.5356 C   0  0  0  0  0  0  0  0  0  0  0  0
   10.8889   18.4624   20.1284 O   0  0  0  0  0  0  0  0  0  0  0  0
   10.8376   18.5000   18.7030 C   0  0  0  0  0  0  0  0  0  0  0  0
   11.8109   17.4232   18.2283 C   0  0  0  0  0  0  0  0  0  0  0  0
   12.8987   17.4525   19.2966 C   0  0  0  0  0  0  0  0  0  0  0  0
   14.0885   23.4502   16.0244 C   0  0  0  0  0  0  0  0  0  0  0  0
   12.2796   22.1286   14.7365 C   0  0  0  0  0  0  0  0  0  0  0  0
   11.8886   21.1847   13.7800 C   0  0  0  0  0  0  0  0  0  0  0  0
   12.8508   20.5110   13.0347 C   0  0  0  0  0  0  0  0  0  0  0  0
   14.1829   20.8236   13.2585 C   0  0  0  0  0  0  0  0  0  0  0  0
   14.5650   21.7931   14.1810 C   0  0  0  0  0  0  0  0  0  0  0  0
   13.6241   22.4468   14.9573 C   0  0  0  0  0  0  0  0  0  0  0  0
  9 17  1  0  0  0
  9 10  1  0  0  0
  9 13  2  0  0  0
 10 11  1  0  0  0
 11 12  1  0  0  0
 12 13  1  0  0  0
 13 14  1  0  0  0
 14 15  2  0  0  0
 15  6  1  0  0  0
 15 16  1  0  0  0
 16 17  2  0  0  0
  6  5  1  0  0  0
  6  7  2  0  0  0
  6  8  2  0  0  0
  5 18  1  0  0  0
  5  4  1  0  0  0
 18 19  1  0  0  0
 19 20  1  0  0  0
 19 21  1  0  0  0
  4  1  1  0  0  0
  1  2  1  0  0  0
  1 22  1  0  0  0
 22 36  1  0  0  0
 22 23  1  0  0  0
 23 24  1  0  0  0
 24 25  2  0  0  0
 24 27  1  0  0  0
 27 28  1  0  0  0
 28 29  1  0  0  0
 28 35  1  0  0  0
 29 30  1  0  0  0
 30 31  1  0  0  0
 31 32  1  0  0  0
 31 35  1  0  0  0
 32 33  1  0  0  0
 33 34  1  0  0  0
 34 35  1  0  0  0
 36 42  1  0  0  0
 37 42  1  0  0  0
 37 38  2  0  0  0
 38 39  1  0  0  0
 39 40  2  0  0  0
 40 41  1  0  0  0
 41 42  2  0  0  0
  2  3  1  0  0  0
 23 26  1  0  0  0
M  END
> <minimizedAffinity>
-9.84333

$$$$
2QD6_065_B_404


 42 46  0  0  0  0  0  0  0  0999 V2000
   15.5263   23.8806   17.8946 C   0  0  0  0  0  0  0  0  0  0  0  0
   14.4770   24.6394   18.5008 O   0  0  0  0  0  0  0  0  0  0  0  0
   13.9424   25.0611   17.8100 H   0  0  0  0  0  0  0  0  0  0  0  0
   16.5146   24.7549   17.1289 C   0  0  0  0  0  0  0  0  0  0  0  0
   17.7195   25.0191   17.8953 N   0  0  0  0  0  0  0  0  0  0  0  0
   18.1751   23.8263   18.9256 S   0  0  0  0  0  0  0  0  0  0  0  0
   18.3665   22.5895   18.1623 O   0  0  0  0  0  0  0  0  0  0  0  0
   17.1089   23.7401   19.9860 O   0  0  0  0  0  0  0  0  0  0  0  0
   22.0675   25.0801   20.7940 C   0  0  0  0  0  0  0  0  0  0  0  0
   23.1394   25.7673   21.3170 O   0  0  0  0  0  0  0  0  0  0  0  0
   22.5725   26.7438   22.0895 C   0  0  0  0  0  0  0  0  0  0  0  0
   21.2000   26.7604   21.9820 O   0  0  0  0  0  0  0  0  0  0  0  0
   20.8933   25.7352   21.1364 C   0  0  0  0  0  0  0  0  0  0  0  0
   19.6825   25.3400   20.6105 C   0  0  0  0  0  0  0  0  0  0  0  0
   19.6605   24.2663   19.7283 C   0  0  0  0  0  0  0  0  0  0  0  0
   20.8183   23.5752   19.4273 C   0  0  0  0  0  0  0  0  0  0  0  0
   22.0384   23.9746   19.9571 C   0  0  0  0  0  0  0  0  0  0  0  0
   18.7633   25.6951   17.1377 C   0  0  0  0  0  0  0  0  0  0  0  0
   18.8121   25.3199   15.6514 C   0  0  0  0  0  0  0  0  0  0  0  0
   18.9051   26.5508   14.7485 C   0  0  0  0  0  0  0  0  0  0  0  0
   20.0351   24.4216   15.3983 C   0  0  0  0  0  0  0  0  0  0  0  0
   14.8534   22.8200   17.0121 C   0  0  0  0  0  0  0  0  0  0  0  0
   14.0089   21.9669   17.8433 N   0  0  0  0  0  0  0  0  0  0  0  0
   14.4383   20.9593   18.6066 C   0  0  0  0  0  0  0  0  0  0  0  0
   15.6052   20.5524   18.6229 O   0  0  0  0  0  0  0  0  0  0  0  0
   13.0416   22.1502   17.8407 H   0  0  0  0  0  0  0  0  0  0  0  0
   13.4222   20.4279   19.3352 O   0  0  0  0  0  0  0  0  0  0  0  0
   13.5529   19.0357   19.6501 C   0  0  0  0  0  0  0  0  0  0  0  0
   12.8585   18.8571   21.0044 C   0  0  0  0  0  0  0  0  0  0  0  0
   11.4638   18.8140   20.7074 O   0  0  0  0  0  0  0  0  0  0  0  0
   11.2896   18.2392   19.4283 C   0  0  0  0  0  0  0  0  0  0  0  0
   10.4096   19.0482   18.6363 O   0  0  0  0  0  0  0  0  0  0  0  0
   11.1563   19.6475   17.5785 C   0  0  0  0  0  0  0  0  0  0  0  0
   12.3543   18.7286   17.3494 C   0  0  0  0  0  0  0  0  0  0  0  0
   12.6493   18.1984   18.7484 C   0  0  0  0  0  0  0  0  0  0  0  0
   13.9807   23.3996   15.8928 C   0  0  0  0  0  0  0  0  0  0  0  0
   12.1072   21.9894   14.8072 C   0  0  0  0  0  0  0  0  0  0  0  0
   11.6684   20.9554   13.9723 C   0  0  0  0  0  0  0  0  0  0  0  0
   12.5939   20.1792   13.2824 C   0  0  0  0  0  0  0  0  0  0  0  0
   13.9384   20.4808   13.4357 C   0  0  0  0  0  0  0  0  0  0  0  0
   14.3679   21.5367   14.2343 C   0  0  0  0  0  0  0  0  0  0  0  0
   13.4641   22.2960   14.9566 C   0  0  0  0  0  0  0  0  0  0  0  0
  9 17  1  0  0  0
  9 10  1  0  0  0
  9 13  2  0  0  0
 10 11  1  0  0  0
 11 12  1  0  0  0
 12 13  1  0  0  0
 13 14  1  0  0  0
 14 15  2  0  0  0
 15  6  1  0  0  0
 15 16  1  0  0  0
 16 17  2  0  0  0
  6  5  1  0  0  0
  6  7  2  0  0  0
  6  8  2  0  0  0
  5 18  1  0  0  0
  5  4  1  0  0  0
 18 19  1  0  0  0
 19 20  1  0  0  0
 19 21  1  0  0  0
  4  1  1  0  0  0
  1  2  1  0  0  0
  1 22  1  0  0  0
 22 36  1  0  0  0
 22 23  1  0  0  0
 23 24  1  0  0  0
 24 25  2  0  0  0
 24 27  1  0  0  0
 27 28  1  0  0  0
 28 29  1  0  0  0
 28 35  1  0  0  0
 29 30  1  0  0  0
 30 31  1  0  0  0
 31 32  1  0  0  0
 31 35  1  0  0  0
 32 33  1  0  0  0
 33 34  1  0  0  0
 34 35  1  0  0  0
 36 42  1  0  0  0
 37 42  1  0  0  0
 37 38  2  0  0  0
 38 39  1  0  0  0
 39 40  2  0  0  0
 40 41  1  0  0  0
 41 42  2  0  0  0
  2  3  1  0  0  0
 23 26  1  0  0  0
M  END
> <minimizedAffinity>
-9.55653

$$$$
2QD6_065_B_404


 42 46  0  0  0  0  0  0  0  0999 V2000
   17.4468   23.6053   19.1329 C   0  0  0  0  0  0  0  0  0  0  0  0
   16.9356   23.3140   20.4360 O   0  0  0  0  0  0  0  0  0  0  0  0
   17.4978   22.6484   20.8625 H   0  0  0  0  0  0  0  0  0  0  0  0
   17.3879   22.4014   18.1977 C   0  0  0  0  0  0  0  0  0  0  0  0
   16.0245   22.0540   17.8381 N   0  0  0  0  0  0  0  0  0  0  0  0
   15.2831   23.0891   16.8033 S   0  0  0  0  0  0  0  0  0  0  0  0
   16.2917   23.9802   16.2222 O   0  0  0  0  0  0  0  0  0  0  0  0
   14.2131   23.7970   17.5922 O   0  0  0  0  0  0  0  0  0  0  0  0
   13.3498   20.5943   13.6014 C   0  0  0  0  0  0  0  0  0  0  0  0
   12.6699   19.6417   12.8769 O   0  0  0  0  0  0  0  0  0  0  0  0
   11.5272   19.4198   13.5958 C   0  0  0  0  0  0  0  0  0  0  0  0
   11.5198   20.1106   14.7866 O   0  0  0  0  0  0  0  0  0  0  0  0
   12.6863   20.8173   14.7994 C   0  0  0  0  0  0  0  0  0  0  0  0
   13.2395   21.6146   15.7778 C   0  0  0  0  0  0  0  0  0  0  0  0
   14.4795   22.1950   15.5387 C   0  0  0  0  0  0  0  0  0  0  0  0
   15.1188   22.0219   14.3262 C   0  0  0  0  0  0  0  0  0  0  0  0
   14.5610   21.2175   13.3411 C   0  0  0  0  0  0  0  0  0  0  0  0
   15.8138   20.6273   17.6359 C   0  0  0  0  0  0  0  0  0  0  0  0
   15.1801   19.9044   18.8309 C   0  0  0  0  0  0  0  0  0  0  0  0
   13.9224   20.6145   19.3340 C   0  0  0  0  0  0  0  0  0  0  0  0
   14.8107   18.4703   18.4141 C   0  0  0  0  0  0  0  0  0  0  0  0
   18.8702   24.1469   19.3261 C   0  0  0  0  0  0  0  0  0  0  0  0
   19.1095   25.2241   18.3700 N   0  0  0  0  0  0  0  0  0  0  0  0
   19.5354   25.0656   17.1146 C   0  0  0  0  0  0  0  0  0  0  0  0
   19.8840   23.9816   16.6341 O   0  0  0  0  0  0  0  0  0  0  0  0
   18.9429   26.1446   18.6768 H   0  0  0  0  0  0  0  0  0  0  0  0
   19.5604   26.2510   16.4514 O   0  0  0  0  0  0  0  0  0  0  0  0
   19.9151   26.1733   15.0649 C   0  0  0  0  0  0  0  0  0  0  0  0
   19.0148   27.1908   14.3561 C   0  0  0  0  0  0  0  0  0  0  0  0
   19.6221   28.4592   14.5960 O   0  0  0  0  0  0  0  0  0  0  0  0
   21.0206   28.2819   14.6934 C   0  0  0  0  0  0  0  0  0  0  0  0
   21.5249   28.9453   15.8603 O   0  0  0  0  0  0  0  0  0  0  0  0
   21.9632   27.9643   16.7990 C   0  0  0  0  0  0  0  0  0  0  0  0
   22.3018   26.7263   15.9715 C   0  0  0  0  0  0  0  0  0  0  0  0
   21.2912   26.7918   14.8314 C   0  0  0  0  0  0  0  0  0  0  0  0
   19.1458   24.6945   20.7313 C   0  0  0  0  0  0  0  0  0  0  0  0
   21.0664   26.2805   21.4190 C   0  0  0  0  0  0  0  0  0  0  0  0
   22.4257   26.5908   21.5409 C   0  0  0  0  0  0  0  0  0  0  0  0
   23.3874   25.6751   21.1263 C   0  0  0  0  0  0  0  0  0  0  0  0
   22.9525   24.4601   20.6195 C   0  0  0  0  0  0  0  0  0  0  0  0
   21.6006   24.1393   20.5392 C   0  0  0  0  0  0  0  0  0  0  0  0
   20.6293   25.0517   20.9125 C   0  0  0  0  0  0  0  0  0  0  0  0
  9 17  1  0  0  0
  9 10  1  0  0  0
  9 13  2  0  0  0
 10 11  1  0  0  0
 11 12  1  0  0  0
 12 13  1  0  0  0
 13 14  1  0  0  0
 14 15  2  0  0  0
 15  6  1  0  0  0
 15 16  1  0  0  0
 16 17  2  0  0  0
  6  5  1  0  0  0
  6  7  2  0  0  0
  6  8  2  0  0  0
  5 18  1  0  0  0
  5  4  1  0  0  0
 18 19  1  0  0  0
 19 20  1  0  0  0
 19 21  1  0  0  0
  4  1  1  0  0  0
  1  2  1  0  0  0
  1 22  1  0  0  0
 22 36  1  0  0  0
 22 23  1  0  0  0
 23 24  1  0  0  0
 24 25  2  0  0  0
 24 27  1  0  0  0
 27 28  1  0  0  0
 28 29  1  0  0  0
 28 35  1  0  0  0
 29 30  1  0  0  0
 30 31  1  0  0  0
 31 32  1  0  0  0
 31 35  1  0  0  0
 32 33  1  0  0  0
 33 34  1  0  0  0
 34 35  1  0  0  0
 36 42  1  0  0  0
 37 42  1  0  0  0
 37 38  2  0  0  0
 38 39  1  0  0  0
 39 40  2  0  0  0
 40 41  1  0  0  0
 41 42  2  0  0  0
  2  3  1  0  0  0
 23 26  1  0  0  0
M  END
> <minimizedAffinity>
-9.39951

$$$$
2QD6_065_B_404


 42 46  0  0  0  0  0  0  0  0999 V2000
   16.0648   23.5715   15.4663 C   0  0  0  0  0  0  0  0  0  0  0  0
   14.8954   24.2493   15.9327 O   0  0  0  0  0  0  0  0  0  0  0  0
   14.5261   23.7717   16.6920 H   0  0  0  0  0  0  0  0  0  0  0  0
   15.7584   22.1777   14.9271 C   0  0  0  0  0  0  0  0  0  0  0  0
   14.3643   21.8143   15.1102 N   0  0  0  0  0  0  0  0  0  0  0  0
   13.4018   22.0298   13.7990 S   0  0  0  0  0  0  0  0  0  0  0  0
   14.1952   21.8025   12.5874 O   0  0  0  0  0  0  0  0  0  0  0  0
   12.8247   23.4166   13.9094 O   0  0  0  0  0  0  0  0  0  0  0  0
    9.8576   19.2641   13.7430 C   0  0  0  0  0  0  0  0  0  0  0  0
    8.8865   18.3416   13.4258 O   0  0  0  0  0  0  0  0  0  0  0  0
    9.5760   17.3027   12.8627 C   0  0  0  0  0  0  0  0  0  0  0  0
   10.9155   17.5857   12.7178 O   0  0  0  0  0  0  0  0  0  0  0  0
   11.0773   18.8355   13.2394 C   0  0  0  0  0  0  0  0  0  0  0  0
   12.1884   19.6493   13.2861 C   0  0  0  0  0  0  0  0  0  0  0  0
   12.0627   20.9126   13.8519 C   0  0  0  0  0  0  0  0  0  0  0  0
   10.8651   21.3231   14.4051 C   0  0  0  0  0  0  0  0  0  0  0  0
    9.7456   20.5026   14.3569 C   0  0  0  0  0  0  0  0  0  0  0  0
   14.1690   20.6086   15.9030 C   0  0  0  0  0  0  0  0  0  0  0  0
   13.8753   20.8656   17.3862 C   0  0  0  0  0  0  0  0  0  0  0  0
   12.5093   20.3212   17.8066 C   0  0  0  0  0  0  0  0  0  0  0  0
   14.9647   20.1933   18.2394 C   0  0  0  0  0  0  0  0  0  0  0  0
   17.0639   23.5586   16.6317 C   0  0  0  0  0  0  0  0  0  0  0  0
   17.9326   24.7280   16.5345 N   0  0  0  0  0  0  0  0  0  0  0  0
   19.1542   24.7434   15.9963 C   0  0  0  0  0  0  0  0  0  0  0  0
   19.7498   23.7341   15.6036 O   0  0  0  0  0  0  0  0  0  0  0  0
   17.5885   25.5766   16.8962 H   0  0  0  0  0  0  0  0  0  0  0  0
   19.6612   26.0034   15.9652 O   0  0  0  0  0  0  0  0  0  0  0  0
   20.1406   26.4427   14.6879 C   0  0  0  0  0  0  0  0  0  0  0  0
   19.3595   27.7241   14.3779 C   0  0  0  0  0  0  0  0  0  0  0  0
   20.0002   28.7466   15.1390 O   0  0  0  0  0  0  0  0  0  0  0  0
   21.3735   28.4342   15.2535 C   0  0  0  0  0  0  0  0  0  0  0  0
   21.7965   28.5492   16.6189 O   0  0  0  0  0  0  0  0  0  0  0  0
   22.0982   27.2488   17.1225 C   0  0  0  0  0  0  0  0  0  0  0  0
   22.4547   26.4071   15.8992 C   0  0  0  0  0  0  0  0  0  0  0  0
   21.5600   26.9911   14.8113 C   0  0  0  0  0  0  0  0  0  0  0  0
   16.4086   23.5724   18.0177 C   0  0  0  0  0  0  0  0  0  0  0  0
   17.8233   24.2310   20.0774 C   0  0  0  0  0  0  0  0  0  0  0  0
   18.7852   23.9489   21.0541 C   0  0  0  0  0  0  0  0  0  0  0  0
   19.4050   22.7038   21.0797 C   0  0  0  0  0  0  0  0  0  0  0  0
   19.0218   21.7671   20.1321 C   0  0  0  0  0  0  0  0  0  0  0  0
   18.0347   22.0378   19.1890 C   0  0  0  0  0  0  0  0  0  0  0  0
   17.4338   23.2828   19.1251 C   0  0  0  0  0  0  0  0  0  0  0  0
  9 17  1  0  0  0
  9 10  1  0  0  0
  9 13  2  0  0  0
 10 11  1  0  0  0
 11 12  1  0  0  0
 12 13  1  0  0  0
 13 14  1  0  0  0
 14 15  2  0  0  0
 15  6  1  0  0  0
 15 16  1  0  0  0
 16 17  2  0  0  0
  6  5  1  0  0  0
  6  7  2  0  0  0
  6  8  2  0  0  0
  5 18  1  0  0  0
  5  4  1  0  0  0
 18 19  1  0  0  0
 19 20  1  0  0  0
 19 21  1  0  0  0
  4  1  1  0  0  0
  1  2  1  0  0  0
  1 22  1  0  0  0
 22 36  1  0  0  0
 22 23  1  0  0  0
 23 24  1  0  0  0
 24 25  2  0  0  0
 24 27  1  0  0  0
 27 28  1  0  0  0
 28 29  1  0  0  0
 28 35  1  0  0  0
 29 30  1  0  0  0
 30 31  1  0  0  0
 31 32  1  0  0  0
 31 35  1  0  0  0
 32 33  1  0  0  0
 33 34  1  0  0  0
 34 35  1  0  0  0
 36 42  1  0  0  0
 37 42  1  0  0  0
 37 38  2  0  0  0
 38 39  1  0  0  0
 39 40  2  0  0  0
 40 41  1  0  0  0
 41 42  2  0  0  0
  2  3  1  0  0  0
 23 26  1  0  0  0
M  END
> <minimizedAffinity>
-9.37776

$$$$
2QD6_065_B_404


 42 46  0  0  0  0  0  0  0  0999 V2000
   16.6453   22.9152   18.6984 C   0  0  0  0  0  0  0  0  0  0  0  0
   16.2491   24.2476   19.0329 O   0  0  0  0  0  0  0  0  0  0  0  0
   16.3054   24.8093   18.2441 H   0  0  0  0  0  0  0  0  0  0  0  0
   18.1077   22.8281   18.2726 C   0  0  0  0  0  0  0  0  0  0  0  0
   18.8629   24.0049   18.6649 N   0  0  0  0  0  0  0  0  0  0  0  0
   19.4954   23.9641   20.1783 S   0  0  0  0  0  0  0  0  0  0  0  0
   19.7861   22.5715   20.5320 O   0  0  0  0  0  0  0  0  0  0  0  0
   18.4962   24.6364   21.0829 O   0  0  0  0  0  0  0  0  0  0  0  0
   23.2700   26.3743   20.5743 C   0  0  0  0  0  0  0  0  0  0  0  0
   24.5457   26.8303   20.8175 O   0  0  0  0  0  0  0  0  0  0  0  0
   25.3573   25.8243   20.3688 C   0  0  0  0  0  0  0  0  0  0  0  0
   24.6411   24.7221   19.9595 O   0  0  0  0  0  0  0  0  0  0  0  0
   23.3309   25.0622   20.1272 C   0  0  0  0  0  0  0  0  0  0  0  0
   22.1837   24.3183   19.9558 C   0  0  0  0  0  0  0  0  0  0  0  0
   20.9592   24.9116   20.2389 C   0  0  0  0  0  0  0  0  0  0  0  0
   20.8888   26.2347   20.6305 C   0  0  0  0  0  0  0  0  0  0  0  0
   22.0455   26.9835   20.8039 C   0  0  0  0  0  0  0  0  0  0  0  0
   19.6890   24.5569   17.6003 C   0  0  0  0  0  0  0  0  0  0  0  0
   19.0596   24.4783   16.2039 C   0  0  0  0  0  0  0  0  0  0  0  0
   18.0449   25.5972   15.9647 C   0  0  0  0  0  0  0  0  0  0  0  0
   20.1705   24.5768   15.1442 C   0  0  0  0  0  0  0  0  0  0  0  0
   15.6742   22.4225   17.6164 C   0  0  0  0  0  0  0  0  0  0  0  0
   14.5823   21.6872   18.2478 N   0  0  0  0  0  0  0  0  0  0  0  0
   14.5903   20.3835   18.5352 C   0  0  0  0  0  0  0  0  0  0  0  0
   15.4930   19.6074   18.2031 O   0  0  0  0  0  0  0  0  0  0  0  0
   13.7721   22.1954   18.4812 H   0  0  0  0  0  0  0  0  0  0  0  0
   13.4684   20.0230   19.2114 O   0  0  0  0  0  0  0  0  0  0  0  0
   13.4467   18.6731   19.6927 C   0  0  0  0  0  0  0  0  0  0  0  0
   12.7410   18.7359   21.0514 C   0  0  0  0  0  0  0  0  0  0  0  0
   11.3491   18.8099   20.7475 O   0  0  0  0  0  0  0  0  0  0  0  0
   11.1091   18.1075   19.5451 C   0  0  0  0  0  0  0  0  0  0  0  0
   10.3206   18.9063   18.6526 O   0  0  0  0  0  0  0  0  0  0  0  0
   11.1253   19.2886   17.5381 C   0  0  0  0  0  0  0  0  0  0  0  0
   12.2147   18.2235   17.4334 C   0  0  0  0  0  0  0  0  0  0  0  0
   12.4541   17.8368   18.8889 C   0  0  0  0  0  0  0  0  0  0  0  0
   15.0598   23.5434   16.7700 C   0  0  0  0  0  0  0  0  0  0  0  0
   13.3272   23.1718   14.8892 C   0  0  0  0  0  0  0  0  0  0  0  0
   12.9526   22.6626   13.6405 C   0  0  0  0  0  0  0  0  0  0  0  0
   13.8769   21.9665   12.8683 C   0  0  0  0  0  0  0  0  0  0  0  0
   15.1625   21.8213   13.3667 C   0  0  0  0  0  0  0  0  0  0  0  0
   15.5418   22.3656   14.5902 C   0  0  0  0  0  0  0  0  0  0  0  0
   14.6265   23.0290   15.3883 C   0  0  0  0  0  0  0  0  0  0  0  0
  9 17  1  0  0  0
  9 10  1  0  0  0
  9 13  2  0  0  0
 10 11  1  0  0  0
 11 12  1  0  0  0
 12 13  1  0  0  0
 13 14  1  0  0  0
 14 15  2  0  0  0
 15  6  1  0  0  0
 15 16  1  0  0  0
 16 17  2  0  0  0
  6  5  1  0  0  0
  6  7  2  0  0  0
  6  8  2  0  0  0
  5 18  1  0  0  0
  5  4  1  0  0  0
 18 19  1  0  0  0
 19 20  1  0  0  0
 19 21  1  0  0  0
  4  1  1  0  0  0
  1  2  1  0  0  0
  1 22  1  0  0  0
 22 36  1  0  0  0
 22 23  1  0  0  0
 23 24  1  0  0  0
 24 25  2  0  0  0
 24 27  1  0  0  0
 27 28  1  0  0  0
 28 29  1  0  0  0
 28 35  1  0  0  0
 29 30  1  0  0  0
 30 31  1  0  0  0
 31 32  1  0  0  0
 31 35  1  0  0  0
 32 33  1  0  0  0
 33 34  1  0  0  0
 34 35  1  0  0  0
 36 42  1  0  0  0
 37 42  1  0  0  0
 37 38  2  0  0  0
 38 39  1  0  0  0
 39 40  2  0  0  0
 40 41  1  0  0  0
 41 42  2  0  0  0
  2  3  1  0  0  0
 23 26  1  0  0  0
M  END
> <minimizedAffinity>
-9.35941

$$$$
2QD6_065_B_404


 42 46  0  0  0  0  0  0  0  0999 V2000
   17.1157   24.7708   17.6088 C   0  0  0  0  0  0  0  0  0  0  0  0
   16.3833   25.9901   17.7538 O   0  0  0  0  0  0  0  0  0  0  0  0
   16.9200   26.7302   17.4297 H   0  0  0  0  0  0  0  0  0  0  0  0
   18.3730   24.7362   18.4722 C   0  0  0  0  0  0  0  0  0  0  0  0
   18.1796   23.9691   19.6901 N   0  0  0  0  0  0  0  0  0  0  0  0
   18.0941   22.3426   19.4923 S   0  0  0  0  0  0  0  0  0  0  0  0
   18.5393   21.6918   20.7283 O   0  0  0  0  0  0  0  0  0  0  0  0
   18.9278   22.0095   18.2830 O   0  0  0  0  0  0  0  0  0  0  0  0
   13.8906   21.2382   18.3418 C   0  0  0  0  0  0  0  0  0  0  0  0
   12.7551   20.7407   17.7437 O   0  0  0  0  0  0  0  0  0  0  0  0
   13.0669   19.4410   17.4513 C   0  0  0  0  0  0  0  0  0  0  0  0
   14.3792   19.1432   17.7420 O   0  0  0  0  0  0  0  0  0  0  0  0
   14.9001   20.2894   18.2666 C   0  0  0  0  0  0  0  0  0  0  0  0
   16.1869   20.5919   18.6557 C   0  0  0  0  0  0  0  0  0  0  0  0
   16.4540   21.8712   19.1289 C   0  0  0  0  0  0  0  0  0  0  0  0
   15.4417   22.8024   19.2585 C   0  0  0  0  0  0  0  0  0  0  0  0
   14.1452   22.4969   18.8653 C   0  0  0  0  0  0  0  0  0  0  0  0
   18.9315   24.4743   20.8302 C   0  0  0  0  0  0  0  0  0  0  0  0
   20.2985   25.0714   20.4741 C   0  0  0  0  0  0  0  0  0  0  0  0
   20.7121   26.1825   21.4401 C   0  0  0  0  0  0  0  0  0  0  0  0
   21.3596   23.9580   20.5101 C   0  0  0  0  0  0  0  0  0  0  0  0
   17.4107   24.6064   16.1112 C   0  0  0  0  0  0  0  0  0  0  0  0
   18.7980   24.9789   15.8498 N   0  0  0  0  0  0  0  0  0  0  0  0
   19.2369   25.6202   14.7642 C   0  0  0  0  0  0  0  0  0  0  0  0
   18.5302   25.8882   13.7863 O   0  0  0  0  0  0  0  0  0  0  0  0
   19.4660   24.7368   16.5314 H   0  0  0  0  0  0  0  0  0  0  0  0
   20.5601   25.9105   14.8669 O   0  0  0  0  0  0  0  0  0  0  0  0
   21.0082   27.0255   14.0857 C   0  0  0  0  0  0  0  0  0  0  0  0
   19.9367   28.1061   14.2653 C   0  0  0  0  0  0  0  0  0  0  0  0
   20.2075   28.6944   15.5364 O   0  0  0  0  0  0  0  0  0  0  0  0
   21.5991   28.6386   15.7753 C   0  0  0  0  0  0  0  0  0  0  0  0
   21.8572   28.1160   17.0854 O   0  0  0  0  0  0  0  0  0  0  0  0
   22.4581   26.8278   16.9611 C   0  0  0  0  0  0  0  0  0  0  0  0
   23.1330   26.8197   15.5913 C   0  0  0  0  0  0  0  0  0  0  0  0
   22.2086   27.6942   14.7509 C   0  0  0  0  0  0  0  0  0  0  0  0
   17.1980   23.1825   15.5844 C   0  0  0  0  0  0  0  0  0  0  0  0
   14.6975   23.8322   15.5373 C   0  0  0  0  0  0  0  0  0  0  0  0
   13.3569   23.5564   15.2445 C   0  0  0  0  0  0  0  0  0  0  0  0
   13.0078   22.3394   14.6681 C   0  0  0  0  0  0  0  0  0  0  0  0
   14.0236   21.4405   14.3814 C   0  0  0  0  0  0  0  0  0  0  0  0
   15.3596   21.7363   14.6359 C   0  0  0  0  0  0  0  0  0  0  0  0
   15.7220   22.9262   15.2424 C   0  0  0  0  0  0  0  0  0  0  0  0
  9 17  1  0  0  0
  9 10  1  0  0  0
  9 13  2  0  0  0
 10 11  1  0  0  0
 11 12  1  0  0  0
 12 13  1  0  0  0
 13 14  1  0  0  0
 14 15  2  0  0  0
 15  6  1  0  0  0
 15 16  1  0  0  0
 16 17  2  0  0  0
  6  5  1  0  0  0
  6  7  2  0  0  0
  6  8  2  0  0  0
  5 18  1  0  0  0
  5  4  1  0  0  0
 18 19  1  0  0  0
 19 20  1  0  0  0
 19 21  1  0  0  0
  4  1  1  0  0  0
  1  2  1  0  0  0
  1 22  1  0  0  0
 22 36  1  0  0  0
 22 23  1  0  0  0
 23 24  1  0  0  0
 24 25  2  0  0  0
 24 27  1  0  0  0
 27 28  1  0  0  0
 28 29  1  0  0  0
 28 35  1  0  0  0
 29 30  1  0  0  0
 30 31  1  0  0  0
 31 32  1  0  0  0
 31 35  1  0  0  0
 32 33  1  0  0  0
 33 34  1  0  0  0
 34 35  1  0  0  0
 36 42  1  0  0  0
 37 42  1  0  0  0
 37 38  2  0  0  0
 38 39  1  0  0  0
 39 40  2  0  0  0
 40 41  1  0  0  0
 41 42  2  0  0  0
  2  3  1  0  0  0
 23 26  1  0  0  0
M  END
> <minimizedAffinity>
-9.27521

$$$$
2QD6_065_B_404


 42 46  0  0  0  0  0  0  0  0999 V2000
   17.9108   22.9906   16.9623 C   0  0  0  0  0  0  0  0  0  0  0  0
   18.3677   22.0137   16.0236 O   0  0  0  0  0  0  0  0  0  0  0  0
   18.1464   22.3014   15.1241 H   0  0  0  0  0  0  0  0  0  0  0  0
   16.3915   23.1303   16.9700 C   0  0  0  0  0  0  0  0  0  0  0  0
   15.7244   21.8451   17.0803 N   0  0  0  0  0  0  0  0  0  0  0  0
   15.1722   21.4639   18.5775 S   0  0  0  0  0  0  0  0  0  0  0  0
   14.4134   22.6016   19.1057 O   0  0  0  0  0  0  0  0  0  0  0  0
   16.3766   21.0882   19.4001 O   0  0  0  0  0  0  0  0  0  0  0  0
   12.5479   17.8134   18.6051 C   0  0  0  0  0  0  0  0  0  0  0  0
   11.5471   16.8877   18.7953 O   0  0  0  0  0  0  0  0  0  0  0  0
   10.3911   17.5909   18.5932 C   0  0  0  0  0  0  0  0  0  0  0  0
   10.6269   18.9326   18.3941 O   0  0  0  0  0  0  0  0  0  0  0  0
   11.9831   19.0700   18.4405 C   0  0  0  0  0  0  0  0  0  0  0  0
   12.7711   20.1990   18.3845 C   0  0  0  0  0  0  0  0  0  0  0  0
   14.1489   20.0531   18.4947 C   0  0  0  0  0  0  0  0  0  0  0  0
   14.7204   18.7999   18.6025 C   0  0  0  0  0  0  0  0  0  0  0  0
   13.9254   17.6626   18.6597 C   0  0  0  0  0  0  0  0  0  0  0  0
   14.8746   21.5229   15.9425 C   0  0  0  0  0  0  0  0  0  0  0  0
   14.8390   22.6009   14.8522 C   0  0  0  0  0  0  0  0  0  0  0  0
   15.2527   22.0531   13.4856 C   0  0  0  0  0  0  0  0  0  0  0  0
   13.4128   23.1688   14.7515 C   0  0  0  0  0  0  0  0  0  0  0  0
   18.6329   24.3023   16.6238 C   0  0  0  0  0  0  0  0  0  0  0  0
   19.8469   24.4053   17.4284 N   0  0  0  0  0  0  0  0  0  0  0  0
   19.8875   24.5451   18.7555 C   0  0  0  0  0  0  0  0  0  0  0  0
   18.8889   24.7119   19.4643 O   0  0  0  0  0  0  0  0  0  0  0  0
   20.7078   24.3685   16.9523 H   0  0  0  0  0  0  0  0  0  0  0  0
   21.1658   24.5081   19.2141 O   0  0  0  0  0  0  0  0  0  0  0  0
   21.3630   25.0379   20.5312 C   0  0  0  0  0  0  0  0  0  0  0  0
   22.5863   24.3019   21.0878 C   0  0  0  0  0  0  0  0  0  0  0  0
   23.7127   24.9469   20.4959 O   0  0  0  0  0  0  0  0  0  0  0  0
   23.3958   26.3071   20.2808 C   0  0  0  0  0  0  0  0  0  0  0  0
   23.7403   26.6914   18.9429 O   0  0  0  0  0  0  0  0  0  0  0  0
   22.5426   26.9420   18.2091 C   0  0  0  0  0  0  0  0  0  0  0  0
   21.4911   27.3124   19.2528 C   0  0  0  0  0  0  0  0  0  0  0  0
   21.8937   26.4673   20.4566 C   0  0  0  0  0  0  0  0  0  0  0  0
   19.0323   24.4341   15.1495 C   0  0  0  0  0  0  0  0  0  0  0  0
   21.2324   25.7473   14.8148 C   0  0  0  0  0  0  0  0  0  0  0  0
   21.9398   26.9392   14.6202 C   0  0  0  0  0  0  0  0  0  0  0  0
   21.2553   28.1472   14.5333 C   0  0  0  0  0  0  0  0  0  0  0  0
   19.8721   28.1186   14.6229 C   0  0  0  0  0  0  0  0  0  0  0  0
   19.1703   26.9263   14.7743 C   0  0  0  0  0  0  0  0  0  0  0  0
   19.8361   25.7196   14.8995 C   0  0  0  0  0  0  0  0  0  0  0  0
  9 17  1  0  0  0
  9 10  1  0  0  0
  9 13  2  0  0  0
 10 11  1  0  0  0
 11 12  1  0  0  0
 12 13  1  0  0  0
 13 14  1  0  0  0
 14 15  2  0  0  0
 15  6  1  0  0  0
 15 16  1  0  0  0
 16 17  2  0  0  0
  6  5  1  0  0  0
  6  7  2  0  0  0
  6  8  2  0  0  0
  5 18  1  0  0  0
  5  4  1  0  0  0
 18 19  1  0  0  0
 19 20  1  0  0  0
 19 21  1  0  0  0
  4  1  1  0  0  0
  1  2  1  0  0  0
  1 22  1  0  0  0
 22 36  1  0  0  0
 22 23  1  0  0  0
 23 24  1  0  0  0
 24 25  2  0  0  0
 24 27  1  0  0  0
 27 28  1  0  0  0
 28 29  1  0  0  0
 28 35  1  0  0  0
 29 30  1  0  0  0
 30 31  1  0  0  0
 31 32  1  0  0  0
 31 35  1  0  0  0
 32 33  1  0  0  0
 33 34  1  0  0  0
 34 35  1  0  0  0
 36 42  1  0  0  0
 37 42  1  0  0  0
 37 38  2  0  0  0
 38 39  1  0  0  0
 39 40  2  0  0  0
 40 41  1  0  0  0
 41 42  2  0  0  0
  2  3  1  0  0  0
 23 26  1  0  0  0
M  END
> <minimizedAffinity>
-9.10830

$$$$
2QD6_065_B_404


 42 46  0  0  0  0  0  0  0  0999 V2000
   13.7049   22.2056   16.0902 C   0  0  0  0  0  0  0  0  0  0  0  0
   13.5356   23.5933   16.3900 O   0  0  0  0  0  0  0  0  0  0  0  0
   13.3779   23.7018   17.3409 H   0  0  0  0  0  0  0  0  0  0  0  0
   12.4452   21.3893   16.3630 C   0  0  0  0  0  0  0  0  0  0  0  0
   11.8453   20.8840   15.1407 N   0  0  0  0  0  0  0  0  0  0  0  0
   10.3637   20.2005   15.3132 S   0  0  0  0  0  0  0  0  0  0  0  0
    9.7433   20.0762   13.9908 O   0  0  0  0  0  0  0  0  0  0  0  0
    9.5970   21.0674   16.2772 O   0  0  0  0  0  0  0  0  0  0  0  0
   10.5214   16.1589   17.2764 C   0  0  0  0  0  0  0  0  0  0  0  0
   10.3375   14.8484   17.6549 O   0  0  0  0  0  0  0  0  0  0  0  0
   10.2810   14.1588   16.4746 C   0  0  0  0  0  0  0  0  0  0  0  0
   10.3123   14.9954   15.3817 O   0  0  0  0  0  0  0  0  0  0  0  0
   10.4257   16.2538   15.8955 C   0  0  0  0  0  0  0  0  0  0  0  0
   10.4203   17.4808   15.2684 C   0  0  0  0  0  0  0  0  0  0  0  0
   10.5151   18.6262   16.0499 C   0  0  0  0  0  0  0  0  0  0  0  0
   10.6670   18.5361   17.4202 C   0  0  0  0  0  0  0  0  0  0  0  0
   10.6714   17.2991   18.0515 C   0  0  0  0  0  0  0  0  0  0  0  0
   12.0679   21.7345   13.9799 C   0  0  0  0  0  0  0  0  0  0  0  0
   12.9171   21.0917   12.8763 C   0  0  0  0  0  0  0  0  0  0  0  0
   14.1799   21.9003   12.5754 C   0  0  0  0  0  0  0  0  0  0  0  0
   13.3244   19.6746   13.3150 C   0  0  0  0  0  0  0  0  0  0  0  0
   14.9195   21.7233   16.8956 C   0  0  0  0  0  0  0  0  0  0  0  0
   16.0427   22.6258   16.6603 N   0  0  0  0  0  0  0  0  0  0  0  0
   17.3012   22.2505   16.4197 C   0  0  0  0  0  0  0  0  0  0  0  0
   17.6958   21.0804   16.4708 O   0  0  0  0  0  0  0  0  0  0  0  0
   15.8565   23.5923   16.6808 H   0  0  0  0  0  0  0  0  0  0  0  0
   18.0883   23.3223   16.1414 O   0  0  0  0  0  0  0  0  0  0  0  0
   17.8436   24.4891   16.9370 C   0  0  0  0  0  0  0  0  0  0  0  0
   18.8197   24.3920   18.1142 C   0  0  0  0  0  0  0  0  0  0  0  0
   20.0763   24.8244   17.5954 O   0  0  0  0  0  0  0  0  0  0  0  0
   19.8442   25.7854   16.5857 C   0  0  0  0  0  0  0  0  0  0  0  0
   20.6057   25.4672   15.4131 O   0  0  0  0  0  0  0  0  0  0  0  0
   19.7128   25.0723   14.3727 C   0  0  0  0  0  0  0  0  0  0  0  0
   18.3774   25.7350   14.7039 C   0  0  0  0  0  0  0  0  0  0  0  0
   18.3667   25.7363   16.2288 C   0  0  0  0  0  0  0  0  0  0  0  0
   14.6797   21.6541   18.4082 C   0  0  0  0  0  0  0  0  0  0  0  0
   14.9142   19.0894   18.1969 C   0  0  0  0  0  0  0  0  0  0  0  0
   14.6302   17.7860   18.6204 C   0  0  0  0  0  0  0  0  0  0  0  0
   13.8090   17.5773   19.7237 C   0  0  0  0  0  0  0  0  0  0  0  0
   13.3131   18.6904   20.3850 C   0  0  0  0  0  0  0  0  0  0  0  0
   13.6322   19.9849   19.9854 C   0  0  0  0  0  0  0  0  0  0  0  0
   14.4173   20.2117   18.8687 C   0  0  0  0  0  0  0  0  0  0  0  0
  9 17  1  0  0  0
  9 10  1  0  0  0
  9 13  2  0  0  0
 10 11  1  0  0  0
 11 12  1  0  0  0
 12 13  1  0  0  0
 13 14  1  0  0  0
 14 15  2  0  0  0
 15  6  1  0  0  0
 15 16  1  0  0  0
 16 17  2  0  0  0
  6  5  1  0  0  0
  6  7  2  0  0  0
  6  8  2  0  0  0
  5 18  1  0  0  0
  5  4  1  0  0  0
 18 19  1  0  0  0
 19 20  1  0  0  0
 19 21  1  0  0  0
  4  1  1  0  0  0
  1  2  1  0  0  0
  1 22  1  0  0  0
 22 36  1  0  0  0
 22 23  1  0  0  0
 23 24  1  0  0  0
 24 25  2  0  0  0
 24 27  1  0  0  0
 27 28  1  0  0  0
 28 29  1  0  0  0
 28 35  1  0  0  0
 29 30  1  0  0  0
 30 31  1  0  0  0
 31 32  1  0  0  0
 31 35  1  0  0  0
 32 33  1  0  0  0
 33 34  1  0  0  0
 34 35  1  0  0  0
 36 42  1  0  0  0
 37 42  1  0  0  0
 37 38  2  0  0  0
 38 39  1  0  0  0
 39 40  2  0  0  0
 40 41  1  0  0  0
 41 42  2  0  0  0
  2  3  1  0  0  0
 23 26  1  0  0  0
M  END
> <minimizedAffinity>
-8.97861

$$$$
2QD6_065_B_404


 42 46  0  0  0  0  0  0  0  0999 V2000
   16.6496   21.4497   17.4278 C   0  0  0  0  0  0  0  0  0  0  0  0
   17.5208   20.3775   17.0596 O   0  0  0  0  0  0  0  0  0  0  0  0
   17.7221   19.8411   17.8424 H   0  0  0  0  0  0  0  0  0  0  0  0
   17.3018   22.4267   18.4014 C   0  0  0  0  0  0  0  0  0  0  0  0
   18.3879   23.1691   17.7864 N   0  0  0  0  0  0  0  0  0  0  0  0
   17.9317   24.4016   16.8043 S   0  0  0  0  0  0  0  0  0  0  0  0
   17.0606   25.3089   17.5574 O   0  0  0  0  0  0  0  0  0  0  0  0
   17.2793   23.7759   15.5995 O   0  0  0  0  0  0  0  0  0  0  0  0
   21.4228   26.7040   15.1536 C   0  0  0  0  0  0  0  0  0  0  0  0
   22.2941   27.6680   14.6996 O   0  0  0  0  0  0  0  0  0  0  0  0
   22.2002   28.6729   15.6233 C   0  0  0  0  0  0  0  0  0  0  0  0
   21.2311   28.4214   16.5683 O   0  0  0  0  0  0  0  0  0  0  0  0
   20.7213   27.1987   16.2437 C   0  0  0  0  0  0  0  0  0  0  0  0
   19.6760   26.4895   16.7945 C   0  0  0  0  0  0  0  0  0  0  0  0
   19.3382   25.2629   16.2351 C   0  0  0  0  0  0  0  0  0  0  0  0
   20.0686   24.7398   15.1854 C   0  0  0  0  0  0  0  0  0  0  0  0
   21.1215   25.4555   14.6304 C   0  0  0  0  0  0  0  0  0  0  0  0
   19.5236   23.3920   18.6702 C   0  0  0  0  0  0  0  0  0  0  0  0
   19.1442   23.7335   20.1164 C   0  0  0  0  0  0  0  0  0  0  0  0
   19.3684   22.5552   21.0652 C   0  0  0  0  0  0  0  0  0  0  0  0
   19.9926   24.9256   20.5918 C   0  0  0  0  0  0  0  0  0  0  0  0
   15.3704   20.8100   17.9853 C   0  0  0  0  0  0  0  0  0  0  0  0
   14.2503   21.1256   17.1036 N   0  0  0  0  0  0  0  0  0  0  0  0
   13.8297   22.3544   16.7945 C   0  0  0  0  0  0  0  0  0  0  0  0
   14.2763   23.3873   17.3057 O   0  0  0  0  0  0  0  0  0  0  0  0
   13.7643   20.3688   16.7033 H   0  0  0  0  0  0  0  0  0  0  0  0
   12.8338   22.3148   15.8714 O   0  0  0  0  0  0  0  0  0  0  0  0
   13.1900   22.7741   14.5612 C   0  0  0  0  0  0  0  0  0  0  0  0
   14.5422   22.1218   14.2542 C   0  0  0  0  0  0  0  0  0  0  0  0
   14.2333   20.7844   13.8659 O   0  0  0  0  0  0  0  0  0  0  0  0
   12.9698   20.7756   13.2332 C   0  0  0  0  0  0  0  0  0  0  0  0
   12.1463   19.7387   13.7835 O   0  0  0  0  0  0  0  0  0  0  0  0
   11.0788   20.3348   14.5188 C   0  0  0  0  0  0  0  0  0  0  0  0
   10.8879   21.7236   13.9130 C   0  0  0  0  0  0  0  0  0  0  0  0
   12.3044   22.1155   13.5065 C   0  0  0  0  0  0  0  0  0  0  0  0
   15.4437   19.2851   18.1261 C   0  0  0  0  0  0  0  0  0  0  0  0
   13.4040   17.7535   18.5391 C   0  0  0  0  0  0  0  0  0  0  0  0
   12.3378   17.3053   19.3274 C   0  0  0  0  0  0  0  0  0  0  0  0
   12.1147   17.8685   20.5796 C   0  0  0  0  0  0  0  0  0  0  0  0
   12.9871   18.8548   21.0137 C   0  0  0  0  0  0  0  0  0  0  0  0
   14.0707   19.2677   20.2440 C   0  0  0  0  0  0  0  0  0  0  0  0
   14.2867   18.7451   18.9810 C   0  0  0  0  0  0  0  0  0  0  0  0
  9 17  1  0  0  0
  9 10  1  0  0  0
  9 13  2  0  0  0
 10 11  1  0  0  0
 11 12  1  0  0  0
 12 13  1  0  0  0
 13 14  1  0  0  0
 14 15  2  0  0  0
 15  6  1  0  0  0
 15 16  1  0  0  0
 16 17  2  0  0  0
  6  5  1  0  0  0
  6  7  2  0  0  0
  6  8  2  0  0  0
  5 18  1  0  0  0
  5  4  1  0  0  0
 18 19  1  0  0  0
 19 20  1  0  0  0
 19 21  1  0  0  0
  4  1  1  0  0  0
  1  2  1  0  0  0
  1 22  1  0  0  0
 22 36  1  0  0  0
 22 23  1  0  0  0
 23 24  1  0  0  0
 24 25  2  0  0  0
 24 27  1  0  0  0
 27 28  1  0  0  0
 28 29  1  0  0  0
 28 35  1  0  0  0
 29 30  1  0  0  0
 30 31  1  0  0  0
 31 32  1  0  0  0
 31 35  1  0  0  0
 32 33  1  0  0  0
 33 34  1  0  0  0
 34 35  1  0  0  0
 36 42  1  0  0  0
 37 42  1  0  0  0
 37 38  2  0  0  0
 38 39  1  0  0  0
 39 40  2  0  0  0
 40 41  1  0  0  0
 41 42  2  0  0  0
  2  3  1  0  0  0
 23 26  1  0  0  0
M  END
> <minimizedAffinity>
-8.97783

$$$$
2QD6_065_B_404


 42 46  0  0  0  0  0  0  0  0999 V2000
   17.6605   22.0377   16.9405 C   0  0  0  0  0  0  0  0  0  0  0  0
   18.4039   21.2116   16.0409 O   0  0  0  0  0  0  0  0  0  0  0  0
   17.8080   20.8510   15.3658 H   0  0  0  0  0  0  0  0  0  0  0  0
   16.6190   21.2527   17.7321 C   0  0  0  0  0  0  0  0  0  0  0  0
   16.2536   21.9209   18.9686 N   0  0  0  0  0  0  0  0  0  0  0  0
   14.6474   21.9592   19.3010 S   0  0  0  0  0  0  0  0  0  0  0  0
   14.0370   23.0660   18.5585 O   0  0  0  0  0  0  0  0  0  0  0  0
   14.5179   22.0722   20.7973 O   0  0  0  0  0  0  0  0  0  0  0  0
   12.5928   18.0884   18.2961 C   0  0  0  0  0  0  0  0  0  0  0  0
   11.6966   17.0958   17.9706 O   0  0  0  0  0  0  0  0  0  0  0  0
   10.9344   17.6401   16.9732 C   0  0  0  0  0  0  0  0  0  0  0  0
   11.2469   18.9609   16.7422 O   0  0  0  0  0  0  0  0  0  0  0  0
   12.2650   19.2454   17.6040 C   0  0  0  0  0  0  0  0  0  0  0  0
   12.9123   20.4338   17.8640 C   0  0  0  0  0  0  0  0  0  0  0  0
   13.9058   20.4499   18.8358 C   0  0  0  0  0  0  0  0  0  0  0  0
   14.2749   19.2894   19.4883 C   0  0  0  0  0  0  0  0  0  0  0  0
   13.6214   18.0923   19.2263 C   0  0  0  0  0  0  0  0  0  0  0  0
   17.1676   21.6596   20.0718 C   0  0  0  0  0  0  0  0  0  0  0  0
   18.3387   22.6447   20.1719 C   0  0  0  0  0  0  0  0  0  0  0  0
   17.8844   24.0387   20.6070 C   0  0  0  0  0  0  0  0  0  0  0  0
   19.3598   22.1115   21.1917 C   0  0  0  0  0  0  0  0  0  0  0  0
   17.0501   23.1691   16.1015 C   0  0  0  0  0  0  0  0  0  0  0  0
   18.0306   24.2405   15.9517 N   0  0  0  0  0  0  0  0  0  0  0  0
   18.0612   25.3684   16.6653 C   0  0  0  0  0  0  0  0  0  0  0  0
   17.1905   25.6958   17.4791 O   0  0  0  0  0  0  0  0  0  0  0  0
   18.7278   24.1212   15.2669 H   0  0  0  0  0  0  0  0  0  0  0  0
   19.1543   26.1143   16.3579 O   0  0  0  0  0  0  0  0  0  0  0  0
   19.6573   25.9497   15.0259 C   0  0  0  0  0  0  0  0  0  0  0  0
   18.8260   26.8985   14.1560 C   0  0  0  0  0  0  0  0  0  0  0  0
   19.3879   28.1921   14.3702 O   0  0  0  0  0  0  0  0  0  0  0  0
   20.7699   28.0497   14.6283 C   0  0  0  0  0  0  0  0  0  0  0  0
   21.1372   28.8008   15.7933 O   0  0  0  0  0  0  0  0  0  0  0  0
   21.4840   27.8947   16.8395 C   0  0  0  0  0  0  0  0  0  0  0  0
   21.9252   26.6103   16.1411 C   0  0  0  0  0  0  0  0  0  0  0  0
   21.0427   26.5781   14.8980 C   0  0  0  0  0  0  0  0  0  0  0  0
   16.6055   22.7380   14.6991 C   0  0  0  0  0  0  0  0  0  0  0  0
   14.5537   21.2932   14.0828 C   0  0  0  0  0  0  0  0  0  0  0  0
   13.1726   21.0733   14.0253 C   0  0  0  0  0  0  0  0  0  0  0  0
   12.2951   22.0328   14.5197 C   0  0  0  0  0  0  0  0  0  0  0  0
   12.8348   23.1804   15.0800 C   0  0  0  0  0  0  0  0  0  0  0  0
   14.2097   23.3758   15.1730 C   0  0  0  0  0  0  0  0  0  0  0  0
   15.0969   22.4495   14.6535 C   0  0  0  0  0  0  0  0  0  0  0  0
  9 17  1  0  0  0
  9 10  1  0  0  0
  9 13  2  0  0  0
 10 11  1  0  0  0
 11 12  1  0  0  0
 12 13  1  0  0  0
 13 14  1  0  0  0
 14 15  2  0  0  0
 15  6  1  0  0  0
 15 16  1  0  0  0
 16 17  2  0  0  0
  6  5  1  0  0  0
  6  7  2  0  0  0
  6  8  2  0  0  0
  5 18  1  0  0  0
  5  4  1  0  0  0
 18 19  1  0  0  0
 19 20  1  0  0  0
 19 21  1  0  0  0
  4  1  1  0  0  0
  1  2  1  0  0  0
  1 22  1  0  0  0
 22 36  1  0  0  0
 22 23  1  0  0  0
 23 24  1  0  0  0
 24 25  2  0  0  0
 24 27  1  0  0  0
 27 28  1  0  0  0
 28 29  1  0  0  0
 28 35  1  0  0  0
 29 30  1  0  0  0
 30 31  1  0  0  0
 31 32  1  0  0  0
 31 35  1  0  0  0
 32 33  1  0  0  0
 33 34  1  0  0  0
 34 35  1  0  0  0
 36 42  1  0  0  0
 37 42  1  0  0  0
 37 38  2  0  0  0
 38 39  1  0  0  0
 39 40  2  0  0  0
 40 41  1  0  0  0
 41 42  2  0  0  0
  2  3  1  0  0  0
 23 26  1  0  0  0
M  END
> <minimizedAffinity>
-8.94060

$$$$
