2QD6_065_B_404
  RCSB PDB12061706473D
Coordinates from PDB:2QD6:B:404 Model:1 without hydrogens
 40 44  0  0  0  0            999 V2000
   20.7040   27.8150   14.8190   C 0  0  0  0  0  0  0  0  0  0  0  0
   21.5710   28.8840   14.8050   O 0  0  0  0  0  0  0  0  0  0  0  0
   22.7630   28.3600   15.2250   C 0  0  0  0  0  0  0  0  0  0  0  0
   22.6470   27.0410   15.6020   O 0  0  0  0  0  0  0  0  0  0  0  0
   21.3410   26.7170   15.3790   C 0  0  0  0  0  0  0  0  0  0  0  0
   20.6470   25.5580   15.6510   C 0  0  0  0  0  0  0  0  0  0  0  0
   19.2910   25.5100   15.3500   C 0  0  0  0  0  0  0  0  0  0  0  0
   18.6640   26.5800   14.7410   C 0  0  0  0  0  0  0  0  0  0  0  0
   19.3640   27.7480   14.4680   C 0  0  0  0  0  0  0  0  0  0  0  0
   18.3430   24.1200   15.8120   S 0  0  0  0  0  0  0  0  0  0  0  0
   17.2290   23.9410   14.8760   O 0  0  0  0  0  0  0  0  0  0  0  0
   19.2850   22.9470   15.8840   O 0  0  0  0  0  0  0  0  0  0  0  0
   17.7370   24.3310   17.3220   N 0  0  0  0  0  0  0  0  0  0  0  0
   18.6720   24.6690   18.3860   C 0  0  0  0  0  0  0  0  0  0  0  0
   18.3590   24.0140   19.7370   C 0  0  0  0  0  0  0  0  0  0  0  0
   18.3610   22.4870   19.6520   C 0  0  0  0  0  0  0  0  0  0  0  0
   19.4110   24.4580   20.7680   C 0  0  0  0  0  0  0  0  0  0  0  0
   16.4790   25.0530   17.3940   C 0  0  0  0  0  0  0  0  0  0  0  0
   15.3580   24.1980   17.9770   C 0  0  0  0  0  0  0  0  0  0  0  0
   14.1930   24.9630   18.2960   O 0  0  0  0  0  0  0  0  0  0  0  0
   14.9060   23.0750   17.0330   C 0  0  0  0  0  0  0  0  0  0  0  0
   14.0350   22.1560   17.7600   N 0  0  0  0  0  0  0  0  0  0  0  0
   14.3470   20.9060   18.1100   C 0  0  0  0  0  0  0  0  0  0  0  0
   15.3850   20.3300   17.7660   O 0  0  0  0  0  0  0  0  0  0  0  0
   13.3650   20.3480   18.8650   O 0  0  0  0  0  0  0  0  0  0  0  0
   13.4940   18.9400   19.1000   C 0  0  0  0  0  0  0  0  0  0  0  0
   12.8650   18.6970   20.4760   C 0  0  0  0  0  0  0  0  0  0  0  0
   11.4570   18.6830   20.2470   O 0  0  0  0  0  0  0  0  0  0  0  0
   11.2130   18.1780   18.9500   C 0  0  0  0  0  0  0  0  0  0  0  0
   10.3050   19.0360   18.2460   O 0  0  0  0  0  0  0  0  0  0  0  0
   11.0060   19.6830   17.1850   C 0  0  0  0  0  0  0  0  0  0  0  0
   12.1800   18.7660   16.8490   C 0  0  0  0  0  0  0  0  0  0  0  0
   12.5370   18.1600   18.2020   C 0  0  0  0  0  0  0  0  0  0  0  0
   14.1450   23.5660   15.7960   C 0  0  0  0  0  0  0  0  0  0  0  0
   12.4210   21.9600   14.7350   C 0  0  0  0  0  0  0  0  0  0  0  0
   12.0880   20.8690   13.9240   C 0  0  0  0  0  0  0  0  0  0  0  0
   13.0880   20.1660   13.2600   C 0  0  0  0  0  0  0  0  0  0  0  0
   14.3970   20.5960   13.4140   C 0  0  0  0  0  0  0  0  0  0  0  0
   14.7190   21.7070   14.1880   C 0  0  0  0  0  0  0  0  0  0  0  0
   13.7420   22.3960   14.8850   C 0  0  0  0  0  0  0  0  0  0  0  0
  1  9  1  0  0  0  0
  1  2  1  0  0  0  0
  1  5  2  0  0  0  0
  2  3  1  0  0  0  0
  3  4  1  0  0  0  0
  4  5  1  0  0  0  0
  5  6  1  0  0  0  0
  6  7  2  0  0  0  0
  7 10  1  0  0  0  0
  7  8  1  0  0  0  0
  8  9  2  0  0  0  0
 10 13  1  0  0  0  0
 10 11  2  0  0  0  0
 10 12  2  0  0  0  0
 13 14  1  0  0  0  0
 13 18  1  0  0  0  0
 14 15  1  0  0  0  0
 15 16  1  0  0  0  0
 15 17  1  0  0  0  0
 18 19  1  0  0  0  0
 19 20  1  0  0  0  0
 19 21  1  0  0  0  0
 21 34  1  0  0  0  0
 21 22  1  0  0  0  0
 22 23  1  0  0  0  0
 23 24  2  0  0  0  0
 23 25  1  0  0  0  0
 25 26  1  0  0  0  0
 26 27  1  0  0  0  0
 26 33  1  0  0  0  0
 27 28  1  0  0  0  0
 28 29  1  0  0  0  0
 29 30  1  0  0  0  0
 29 33  1  0  0  0  0
 30 31  1  0  0  0  0
 31 32  1  0  0  0  0
 32 33  1  0  0  0  0
 34 40  1  0  0  0  0
 35 40  1  0  0  0  0
 35 36  2  0  0  0  0
 36 37  1  0  0  0  0
 37 38  2  0  0  0  0
 38 39  1  0  0  0  0
 39 40  2  0  0  0  0
A    1
C2
A    2
O39
A    3
C40
A    4
O41
A    5
C3
A    6
C4
A    7
C5
A    8
C6
A    9
C7
A   10
S8
A   11
O9
A   12
O10
A   13
N11
A   14
C12
A   15
C13
A   16
C14
A   17
C15
A   18
C16
A   19
C17
A   20
O18
A   21
C19
A   22
N20
A   23
C21
A   24
O22
A   25
O23
A   26
C24
A   27
C25
A   28
O26
A   29
C27
A   30
O28
A   31
C29
A   32
C30
A   33
C31
A   34
C32
A   35
C33
A   36
C34
A   37
C35
A   38
C36
A   39
C37
A   40
C38
M  END
>  <InstanceId>
2QD6_065_B_404

>  <ChemCompId>
065

>  <PdbId>
2QD6

>  <ChainId>
B

>  <ResidueNumber>
404

>  <InsertionCode>


>  <Model>
1

>  <AltIds>


>  <MissingHeavyAtoms>
0

>  <ObservedFormula>
C28 N2 O9 S

>  <Name>
(3R,3AS,6AR)-HEXAHYDROFURO[2,3-B]FURAN-3-YL(2S,3R)-3-HYDROXY-4-(N-ISOBUTYLBENZO[D][1,3]DIOXOLE-5-SULFONAMIDO)-1-PHENYLBUTAN-2-YLCARBAMATE

>  <SystematicName>
[(3R,3aS,6aR)-2,3,3a,4,5,6a-hexahydrofuro[5,4-b]furan-3-yl] N-[(2S,3R)-4-(1,3-benzodioxol-5-ylsulfonyl-(2-methylpropyl)amino)-3-hydroxy-1-phenyl-butan-2-yl]carbamate

>  <Synonyms>
RL-98065, [(1R,5S,6R)-2,8-DIOXABICYCLO[3.3.0]OCT-6-YL]N-[(2S,3R)-4-[(3,4-METHYLENEDIOXYPHENYL)SULFONYL-(2-METHYLPROPYL)AMINO]-3-HYDROXY-1-PHENYL-BUTAN-2-YL] CARBAMATE

>  <Type>
NON-POLYMER

>  <Formula>
C28 H36 N2 O9 S

>  <MolecularWeight>
576.658

>  <ModifiedDate>
2011-06-04

>  <Parent>


>  <OneLetterCode>


>  <SubcomponentList>


>  <AmbiguousFlag>


>  <InChI>
InChI=1S/C28H36N2O9S/c1-18(2)14-30(40(33,34)20-8-9-24-25(13-20)38-17-37-24)15-23(31)22(12-19-6-4-3-5-7-19)29-28(32)39-26-16-36-27-21(26)10-11-35-27/h3-9,13,18,21-23,26-27,31H,10-12,14-17H2,1-2H3,(H,29,32)/t21-,22-,23+,26-,27+/m0/s1

>  <InChIKey>
HNEIRZJZTYYDES-VPZBFSRCSA-N

>  <SMILES>
CC(C)C[N@@](C[C@H]([C@H](Cc1ccccc1)NC(=O)O[C@H]2CO[C@@H]3[C@H]2CCO3)O)S(=O)(=O)c4ccc5c(c4)OCO5

$$$$
