2J75_NOY_A_1446


 16 16  0  0  0  0  0  0  0  0999 V2000
   -1.7261   10.7284    6.8551 O   0  0  0  0  0  0  0  0  0  0  0  0
   -1.2363   10.5086    8.1733 C   0  0  0  0  0  0  0  0  0  0  0  0
   -0.4200   11.7162    8.6176 C   0  0  0  0  0  0  0  0  0  0  0  0
    0.6852   11.9296    7.7455 O   0  0  0  0  0  0  0  0  0  0  0  0
    0.1346   11.5077   10.0195 C   0  0  0  0  0  0  0  0  0  0  0  0
   -0.9268   11.0901   10.9554 N   0  0  0  0  0  0  0  0  0  0  0  0
   -1.8129   10.0032   10.5516 C   0  0  0  0  0  0  0  0  0  0  0  0
   -2.4026   10.3103    9.1681 C   0  0  0  0  0  0  0  0  0  0  0  0
    0.6617   12.7525   10.4500 O   0  0  0  0  0  0  0  0  0  0  0  0
   -2.2460    9.9603    6.5711 H   0  0  0  0  0  0  0  0  0  0  0  0
    1.2714   11.1572    7.7714 H   0  0  0  0  0  0  0  0  0  0  0  0
   -1.5115   11.9066   11.1337 H   0  0  0  0  0  0  0  0  0  0  0  0
   -0.0434   13.4188   10.4521 H   0  0  0  0  0  0  0  0  0  0  0  0
   -3.3790    9.2206    8.7500 C   0  0  0  0  0  0  0  0  0  0  0  0
   -2.8598    7.8871    8.9565 O   0  0  0  0  0  0  0  0  0  0  0  0
   -2.0645    7.7624    8.4154 H   0  0  0  0  0  0  0  0  0  0  0  0
  1  2  1  0  0  0
  2  8  1  0  0  0
  2  3  1  0  0  0
  3  5  1  0  0  0
  3  4  1  0  0  0
  5  6  1  0  0  0
  5  9  1  0  0  0
  6  7  1  0  0  0
  7  8  1  0  0  0
  8 14  1  0  0  0
 14 15  1  0  0  0
  1 10  1  0  0  0
  4 11  1  0  0  0
  6 12  1  0  0  0
  9 13  1  0  0  0
 15 16  1  0  0  0
M  END
> <minimizedAffinity>
-8.07509

$$$$
2J75_NOY_A_1446


 16 16  0  0  0  0  0  0  0  0999 V2000
   -1.0648   10.0356   11.5323 O   0  0  0  0  0  0  0  0  0  0  0  0
   -1.2644   10.6014   10.2415 C   0  0  0  0  0  0  0  0  0  0  0  0
    0.0474   11.1925    9.7399 C   0  0  0  0  0  0  0  0  0  0  0  0
    0.5151   12.2089   10.6207 O   0  0  0  0  0  0  0  0  0  0  0  0
   -0.1338   11.8227    8.3663 C   0  0  0  0  0  0  0  0  0  0  0  0
   -0.7972   10.8894    7.4357 N   0  0  0  0  0  0  0  0  0  0  0  0
   -2.0061   10.2086    7.8878 C   0  0  0  0  0  0  0  0  0  0  0  0
   -1.7359    9.5263    9.2360 C   0  0  0  0  0  0  0  0  0  0  0  0
    1.1609   12.1223    7.8698 O   0  0  0  0  0  0  0  0  0  0  0  0
   -1.8993    9.6590   11.8527 H   0  0  0  0  0  0  0  0  0  0  0  0
   -0.1334   12.9294   10.6564 H   0  0  0  0  0  0  0  0  0  0  0  0
   -0.1169   10.1690    7.1935 H   0  0  0  0  0  0  0  0  0  0  0  0
    1.6813   11.3059    7.8103 H   0  0  0  0  0  0  0  0  0  0  0  0
   -2.9638    8.7569    9.7006 C   0  0  0  0  0  0  0  0  0  0  0  0
   -4.2058    9.3896    9.3166 O   0  0  0  0  0  0  0  0  0  0  0  0
   -4.2624   10.2666    9.7274 H   0  0  0  0  0  0  0  0  0  0  0  0
  1  2  1  0  0  0
  2  8  1  0  0  0
  2  3  1  0  0  0
  3  5  1  0  0  0
  3  4  1  0  0  0
  5  6  1  0  0  0
  5  9  1  0  0  0
  6  7  1  0  0  0
  7  8  1  0  0  0
  8 14  1  0  0  0
 14 15  1  0  0  0
  1 10  1  0  0  0
  4 11  1  0  0  0
  6 12  1  0  0  0
  9 13  1  0  0  0
 15 16  1  0  0  0
M  END
> <minimizedAffinity>
-6.66715

$$$$
2J75_NOY_A_1446


 16 16  0  0  0  0  0  0  0  0999 V2000
    0.4545    9.0857   10.8825 O   0  0  0  0  0  0  0  0  0  0  0  0
   -0.7260    9.6075   10.2825 C   0  0  0  0  0  0  0  0  0  0  0  0
   -0.4438    9.9495    8.8247 C   0  0  0  0  0  0  0  0  0  0  0  0
    0.5922   10.9211    8.7233 O   0  0  0  0  0  0  0  0  0  0  0  0
   -1.6827   10.5275    8.1554 C   0  0  0  0  0  0  0  0  0  0  0  0
   -2.8599    9.6671    8.3808 N   0  0  0  0  0  0  0  0  0  0  0  0
   -3.1342    9.2174    9.7416 C   0  0  0  0  0  0  0  0  0  0  0  0
   -1.8726    8.5722   10.3319 C   0  0  0  0  0  0  0  0  0  0  0  0
   -1.4169   10.5854    6.7630 O   0  0  0  0  0  0  0  0  0  0  0  0
    0.2762    8.8676   11.8107 H   0  0  0  0  0  0  0  0  0  0  0  0
    0.3133   11.7385    9.1647 H   0  0  0  0  0  0  0  0  0  0  0  0
   -2.7403    8.8337    7.8050 H   0  0  0  0  0  0  0  0  0  0  0  0
   -1.2291    9.6930    6.4323 H   0  0  0  0  0  0  0  0  0  0  0  0
   -2.1498    8.0389   11.7299 C   0  0  0  0  0  0  0  0  0  0  0  0
   -1.6796    8.9209   12.7745 O   0  0  0  0  0  0  0  0  0  0  0  0
   -0.7169    9.0186   12.7062 H   0  0  0  0  0  0  0  0  0  0  0  0
  1  2  1  0  0  0
  2  8  1  0  0  0
  2  3  1  0  0  0
  3  5  1  0  0  0
  3  4  1  0  0  0
  5  6  1  0  0  0
  5  9  1  0  0  0
  6  7  1  0  0  0
  7  8  1  0  0  0
  8 14  1  0  0  0
 14 15  1  0  0  0
  1 10  1  0  0  0
  4 11  1  0  0  0
  6 12  1  0  0  0
  9 13  1  0  0  0
 15 16  1  0  0  0
M  END
> <minimizedAffinity>
-6.40479

$$$$
2J75_NOY_A_1446


 16 16  0  0  0  0  0  0  0  0999 V2000
   -3.2437    9.1117    8.2504 O   0  0  0  0  0  0  0  0  0  0  0  0
   -1.9977    9.4940    8.8223 C   0  0  0  0  0  0  0  0  0  0  0  0
   -1.5295   10.7986    8.1893 C   0  0  0  0  0  0  0  0  0  0  0  0
   -1.3638   10.6489    6.7830 O   0  0  0  0  0  0  0  0  0  0  0  0
   -0.1885   11.2289    8.7666 C   0  0  0  0  0  0  0  0  0  0  0  0
   -0.2173   11.2230   10.2418 N   0  0  0  0  0  0  0  0  0  0  0  0
   -0.7483   10.0427   10.9157 C   0  0  0  0  0  0  0  0  0  0  0  0
   -2.1343    9.7083   10.3470 C   0  0  0  0  0  0  0  0  0  0  0  0
    0.0542   12.5528    8.3180 O   0  0  0  0  0  0  0  0  0  0  0  0
   -3.5429    8.2813    8.6525 H   0  0  0  0  0  0  0  0  0  0  0  0
   -0.6837    9.9801    6.6069 H   0  0  0  0  0  0  0  0  0  0  0  0
   -0.7822   12.0196   10.5365 H   0  0  0  0  0  0  0  0  0  0  0  0
   -0.6582   13.1344    8.6265 H   0  0  0  0  0  0  0  0  0  0  0  0
   -2.7374    8.5166   11.0762 C   0  0  0  0  0  0  0  0  0  0  0  0
   -2.2025    8.3393   12.4078 O   0  0  0  0  0  0  0  0  0  0  0  0
   -1.2488    8.1711   12.3533 H   0  0  0  0  0  0  0  0  0  0  0  0
  1  2  1  0  0  0
  2  8  1  0  0  0
  2  3  1  0  0  0
  3  5  1  0  0  0
  3  4  1  0  0  0
  5  6  1  0  0  0
  5  9  1  0  0  0
  6  7  1  0  0  0
  7  8  1  0  0  0
  8 14  1  0  0  0
 14 15  1  0  0  0
  1 10  1  0  0  0
  4 11  1  0  0  0
  6 12  1  0  0  0
  9 13  1  0  0  0
 15 16  1  0  0  0
M  END
> <minimizedAffinity>
-6.25304

$$$$
2J75_NOY_A_1446


 16 16  0  0  0  0  0  0  0  0999 V2000
    0.5076    8.8512   10.4804 O   0  0  0  0  0  0  0  0  0  0  0  0
   -0.4548    9.4114    9.5939 C   0  0  0  0  0  0  0  0  0  0  0  0
   -1.8247    8.8138    9.8911 C   0  0  0  0  0  0  0  0  0  0  0  0
   -1.8090    7.4003    9.7199 O   0  0  0  0  0  0  0  0  0  0  0  0
   -2.8772    9.3791    8.9482 C   0  0  0  0  0  0  0  0  0  0  0  0
   -2.8296   10.8535    8.9194 N   0  0  0  0  0  0  0  0  0  0  0  0
   -1.5326   11.4975    8.7390 C   0  0  0  0  0  0  0  0  0  0  0  0
   -0.5385   10.9448    9.7697 C   0  0  0  0  0  0  0  0  0  0  0  0
   -4.1431    8.9709    9.4418 O   0  0  0  0  0  0  0  0  0  0  0  0
    1.3801    9.2308   10.2922 H   0  0  0  0  0  0  0  0  0  0  0  0
   -1.5935    7.1886    8.7982 H   0  0  0  0  0  0  0  0  0  0  0  0
   -3.2118   11.1859    9.8048 H   0  0  0  0  0  0  0  0  0  0  0  0
   -4.2648    9.3126   10.3415 H   0  0  0  0  0  0  0  0  0  0  0  0
    0.8066   11.6450    9.6430 C   0  0  0  0  0  0  0  0  0  0  0  0
    1.2797   11.7174    8.2786 O   0  0  0  0  0  0  0  0  0  0  0  0
    1.4060   10.8202    7.9322 H   0  0  0  0  0  0  0  0  0  0  0  0
  1  2  1  0  0  0
  2  8  1  0  0  0
  2  3  1  0  0  0
  3  5  1  0  0  0
  3  4  1  0  0  0
  5  6  1  0  0  0
  5  9  1  0  0  0
  6  7  1  0  0  0
  7  8  1  0  0  0
  8 14  1  0  0  0
 14 15  1  0  0  0
  1 10  1  0  0  0
  4 11  1  0  0  0
  6 12  1  0  0  0
  9 13  1  0  0  0
 15 16  1  0  0  0
M  END
> <minimizedAffinity>
-6.07787

$$$$
2J75_NOY_A_1446


 16 16  0  0  0  0  0  0  0  0999 V2000
    0.5548   10.6880   10.0438 O   0  0  0  0  0  0  0  0  0  0  0  0
   -0.6703    9.9645   10.0835 C   0  0  0  0  0  0  0  0  0  0  0  0
   -1.5565   10.4061    8.9253 C   0  0  0  0  0  0  0  0  0  0  0  0
   -1.8415   11.7988    9.0074 O   0  0  0  0  0  0  0  0  0  0  0  0
   -2.8847    9.6633    8.9470 C   0  0  0  0  0  0  0  0  0  0  0  0
   -2.6784    8.2066    9.0581 N   0  0  0  0  0  0  0  0  0  0  0  0
   -1.7621    7.7168   10.0828 C   0  0  0  0  0  0  0  0  0  0  0  0
   -0.4167    8.4450    9.9573 C   0  0  0  0  0  0  0  0  0  0  0  0
   -3.5392    9.9413    7.7193 O   0  0  0  0  0  0  0  0  0  0  0  0
    1.1198   10.4078   10.7808 H   0  0  0  0  0  0  0  0  0  0  0  0
   -2.3240   11.9822    9.8287 H   0  0  0  0  0  0  0  0  0  0  0  0
   -2.3270    7.8812    8.1576 H   0  0  0  0  0  0  0  0  0  0  0  0
   -2.9857    9.6393    6.9822 H   0  0  0  0  0  0  0  0  0  0  0  0
    0.5780    7.9084   10.9762 C   0  0  0  0  0  0  0  0  0  0  0  0
    0.1295    8.0675   12.3415 O   0  0  0  0  0  0  0  0  0  0  0  0
    0.0205    9.0110   12.5382 H   0  0  0  0  0  0  0  0  0  0  0  0
  1  2  1  0  0  0
  2  8  1  0  0  0
  2  3  1  0  0  0
  3  5  1  0  0  0
  3  4  1  0  0  0
  5  6  1  0  0  0
  5  9  1  0  0  0
  6  7  1  0  0  0
  7  8  1  0  0  0
  8 14  1  0  0  0
 14 15  1  0  0  0
  1 10  1  0  0  0
  4 11  1  0  0  0
  6 12  1  0  0  0
  9 13  1  0  0  0
 15 16  1  0  0  0
M  END
> <minimizedAffinity>
-5.93856

$$$$
2J75_NOY_A_1446


 16 16  0  0  0  0  0  0  0  0999 V2000
   -1.6618   10.0302   12.0898 O   0  0  0  0  0  0  0  0  0  0  0  0
   -1.5265    9.3171   10.8654 C   0  0  0  0  0  0  0  0  0  0  0  0
   -1.3826   10.3076    9.7164 C   0  0  0  0  0  0  0  0  0  0  0  0
   -2.5237   11.1552    9.6319 O   0  0  0  0  0  0  0  0  0  0  0  0
   -1.2526    9.5782    8.3869 C   0  0  0  0  0  0  0  0  0  0  0  0
   -0.2096    8.5366    8.4508 N   0  0  0  0  0  0  0  0  0  0  0  0
   -0.2262    7.6133    9.5807 C   0  0  0  0  0  0  0  0  0  0  0  0
   -0.2756    8.4096   10.8921 C   0  0  0  0  0  0  0  0  0  0  0  0
   -0.8787   10.5425    7.4159 O   0  0  0  0  0  0  0  0  0  0  0  0
   -1.7535    9.4007   12.8221 H   0  0  0  0  0  0  0  0  0  0  0  0
   -3.3125   10.6188    9.4560 H   0  0  0  0  0  0  0  0  0  0  0  0
    0.6927    9.0122    8.4620 H   0  0  0  0  0  0  0  0  0  0  0  0
   -0.0359   10.9489    7.6717 H   0  0  0  0  0  0  0  0  0  0  0  0
   -0.2317    7.4707   12.0889 C   0  0  0  0  0  0  0  0  0  0  0  0
    0.1283    8.1398   13.3190 O   0  0  0  0  0  0  0  0  0  0  0  0
    1.0188    8.5149   13.2343 H   0  0  0  0  0  0  0  0  0  0  0  0
  1  2  1  0  0  0
  2  8  1  0  0  0
  2  3  1  0  0  0
  3  5  1  0  0  0
  3  4  1  0  0  0
  5  6  1  0  0  0
  5  9  1  0  0  0
  6  7  1  0  0  0
  7  8  1  0  0  0
  8 14  1  0  0  0
 14 15  1  0  0  0
  1 10  1  0  0  0
  4 11  1  0  0  0
  6 12  1  0  0  0
  9 13  1  0  0  0
 15 16  1  0  0  0
M  END
> <minimizedAffinity>
-5.89369

$$$$
2J75_NOY_A_1446


 16 16  0  0  0  0  0  0  0  0999 V2000
   -1.5762   10.9322   11.3648 O   0  0  0  0  0  0  0  0  0  0  0  0
   -0.9174    9.8045   10.7990 C   0  0  0  0  0  0  0  0  0  0  0  0
   -1.2589    8.5600   11.6092 C   0  0  0  0  0  0  0  0  0  0  0  0
   -0.8414    8.7059   12.9627 O   0  0  0  0  0  0  0  0  0  0  0  0
   -0.5561    7.3353   11.0412 C   0  0  0  0  0  0  0  0  0  0  0  0
   -0.7817    7.2183    9.5877 N   0  0  0  0  0  0  0  0  0  0  0  0
   -0.5707    8.4017    8.7604 C   0  0  0  0  0  0  0  0  0  0  0  0
   -1.3683    9.5792    9.3378 C   0  0  0  0  0  0  0  0  0  0  0  0
   -1.1111    6.1990   11.6842 O   0  0  0  0  0  0  0  0  0  0  0  0
   -1.3596   11.7252   10.8498 H   0  0  0  0  0  0  0  0  0  0  0  0
    0.1217    8.8176   12.9937 H   0  0  0  0  0  0  0  0  0  0  0  0
   -1.7493    6.9245    9.4544 H   0  0  0  0  0  0  0  0  0  0  0  0
   -2.0647    6.1627   11.5103 H   0  0  0  0  0  0  0  0  0  0  0  0
   -1.2144   10.8111    8.4578 C   0  0  0  0  0  0  0  0  0  0  0  0
   -1.1256   10.4925    7.0503 O   0  0  0  0  0  0  0  0  0  0  0  0
   -0.3410    9.9447    6.8916 H   0  0  0  0  0  0  0  0  0  0  0  0
  1  2  1  0  0  0
  2  8  1  0  0  0
  2  3  1  0  0  0
  3  5  1  0  0  0
  3  4  1  0  0  0
  5  6  1  0  0  0
  5  9  1  0  0  0
  6  7  1  0  0  0
  7  8  1  0  0  0
  8 14  1  0  0  0
 14 15  1  0  0  0
  1 10  1  0  0  0
  4 11  1  0  0  0
  6 12  1  0  0  0
  9 13  1  0  0  0
 15 16  1  0  0  0
M  END
> <minimizedAffinity>
-5.70604

$$$$
2J75_NOY_A_1446


 16 16  0  0  0  0  0  0  0  0999 V2000
   -0.1924    7.2573    8.7586 O   0  0  0  0  0  0  0  0  0  0  0  0
   -0.4575    8.4014    9.5628 C   0  0  0  0  0  0  0  0  0  0  0  0
   -1.4175    9.3268    8.8253 C   0  0  0  0  0  0  0  0  0  0  0  0
   -0.8590    9.7539    7.5870 O   0  0  0  0  0  0  0  0  0  0  0  0
   -1.7101   10.5715    9.6509 C   0  0  0  0  0  0  0  0  0  0  0  0
   -2.1134   10.2163   11.0250 N   0  0  0  0  0  0  0  0  0  0  0  0
   -1.2942    9.2558   11.7569 C   0  0  0  0  0  0  0  0  0  0  0  0
   -1.1032    7.9924   10.9063 C   0  0  0  0  0  0  0  0  0  0  0  0
   -2.7839   11.2496    9.0187 O   0  0  0  0  0  0  0  0  0  0  0  0
    0.4186    6.6673    9.2271 H   0  0  0  0  0  0  0  0  0  0  0  0
   -0.0448   10.2538    7.7548 H   0  0  0  0  0  0  0  0  0  0  0  0
   -3.0569    9.8321   10.9736 H   0  0  0  0  0  0  0  0  0  0  0  0
   -3.5587   10.6669    8.9842 H   0  0  0  0  0  0  0  0  0  0  0  0
   -0.3029    6.9490   11.6722 C   0  0  0  0  0  0  0  0  0  0  0  0
    1.1254    7.0962   11.5029 O   0  0  0  0  0  0  0  0  0  0  0  0
    1.3536    6.9815   10.5671 H   0  0  0  0  0  0  0  0  0  0  0  0
  1  2  1  0  0  0
  2  8  1  0  0  0
  2  3  1  0  0  0
  3  5  1  0  0  0
  3  4  1  0  0  0
  5  6  1  0  0  0
  5  9  1  0  0  0
  6  7  1  0  0  0
  7  8  1  0  0  0
  8 14  1  0  0  0
 14 15  1  0  0  0
  1 10  1  0  0  0
  4 11  1  0  0  0
  6 12  1  0  0  0
  9 13  1  0  0  0
 15 16  1  0  0  0
M  END
> <minimizedAffinity>
-5.55267

$$$$
2J75_NOY_A_1446


 16 16  0  0  0  0  0  0  0  0999 V2000
    0.0372    7.5417    8.7479 O   0  0  0  0  0  0  0  0  0  0  0  0
   -0.7153    7.8588    9.9137 C   0  0  0  0  0  0  0  0  0  0  0  0
    0.1331    7.5933   11.1513 C   0  0  0  0  0  0  0  0  0  0  0  0
    0.5244    6.2256   11.2138 O   0  0  0  0  0  0  0  0  0  0  0  0
   -0.6480    7.9062   12.4196 C   0  0  0  0  0  0  0  0  0  0  0  0
   -1.2561    9.2488   12.3529 N   0  0  0  0  0  0  0  0  0  0  0  0
   -2.0003    9.6090   11.1505 C   0  0  0  0  0  0  0  0  0  0  0  0
   -1.1313    9.3475    9.9126 C   0  0  0  0  0  0  0  0  0  0  0  0
    0.2743    7.8736   13.4972 O   0  0  0  0  0  0  0  0  0  0  0  0
   -0.5019    7.7103    7.9593 H   0  0  0  0  0  0  0  0  0  0  0  0
   -0.2653    5.6660   11.2775 H   0  0  0  0  0  0  0  0  0  0  0  0
   -0.5022    9.9279   12.4568 H   0  0  0  0  0  0  0  0  0  0  0  0
    0.9699    8.5328   13.3475 H   0  0  0  0  0  0  0  0  0  0  0  0
   -1.8621    9.7730    8.6475 C   0  0  0  0  0  0  0  0  0  0  0  0
   -0.9661   10.1373    7.5728 O   0  0  0  0  0  0  0  0  0  0  0  0
   -0.4273   10.8968    7.8445 H   0  0  0  0  0  0  0  0  0  0  0  0
  1  2  1  0  0  0
  2  8  1  0  0  0
  2  3  1  0  0  0
  3  5  1  0  0  0
  3  4  1  0  0  0
  5  6  1  0  0  0
  5  9  1  0  0  0
  6  7  1  0  0  0
  7  8  1  0  0  0
  8 14  1  0  0  0
 14 15  1  0  0  0
  1 10  1  0  0  0
  4 11  1  0  0  0
  6 12  1  0  0  0
  9 13  1  0  0  0
 15 16  1  0  0  0
M  END
> <minimizedAffinity>
-5.44190

$$$$
