4CPW_V78_A_1101


 57 60  0  0  0  0  0  0  0  0999 V2000
   14.8655   23.1607    4.9525 C   0  0  0  0  0  0  0  0  0  0  0  0
   13.4212   23.3865    5.3983 C   0  0  0  0  0  0  0  0  0  0  0  0
   12.4859   22.8112    4.3368 C   0  0  0  0  0  0  0  0  0  0  0  0
    7.0660   23.4078    3.0408 C   0  0  0  0  0  0  0  0  0  0  0  0
    8.3723   22.9396    3.1009 C   0  0  0  0  0  0  0  0  0  0  0  0
    9.4120   23.7335    2.6270 C   0  0  0  0  0  0  0  0  0  0  0  0
   10.7292   23.3519    2.8416 C   0  0  0  0  0  0  0  0  0  0  0  0
    9.1390   24.9684    2.0569 C   0  0  0  0  0  0  0  0  0  0  0  0
    7.8304   25.4298    1.9939 C   0  0  0  0  0  0  0  0  0  0  0  0
    6.7858   24.6096    2.3970 C   0  0  0  0  0  0  0  0  0  0  0  0
    5.4859   25.1040    2.3922 C   0  0  0  0  0  0  0  0  0  0  0  0
    5.0778   25.2528    3.7146 C   0  0  0  0  0  0  0  0  0  0  0  0
    5.0284   26.6066    4.0446 C   0  0  0  0  0  0  0  0  0  0  0  0
    5.8294   27.1326    5.0640 C   0  0  0  0  0  0  0  0  0  0  0  0
    6.8378   26.1477    5.5276 N   0  0  0  0  0  0  0  0  0  0  0  0
    8.1429   26.5961    5.7762 C   0  0  0  0  0  0  0  0  0  0  0  0
    8.4530   27.7151    5.3546 O   0  0  0  0  0  0  0  0  0  0  0  0
    9.1089   25.7112    6.2860 C   0  0  0  0  0  0  0  0  0  0  0  0
   10.0836   25.3926    5.2152 N   0  0  0  0  0  0  0  0  0  0  0  0
   10.5564   24.0944    5.0176 C   0  0  0  0  0  0  0  0  0  0  0  0
   10.1632   23.1951    5.7622 O   0  0  0  0  0  0  0  0  0  0  0  0
   11.4310   23.8440    3.9453 C   0  0  0  0  0  0  0  0  0  0  0  0
   12.0915   25.0642    3.5784 O   0  0  0  0  0  0  0  0  0  0  0  0
    6.5963   25.2021    5.6575 H   0  0  0  0  0  0  0  0  0  0  0  0
   10.4054   26.1149    4.6288 H   0  0  0  0  0  0  0  0  0  0  0  0
   11.4296   25.7275    3.3278 H   0  0  0  0  0  0  0  0  0  0  0  0
    9.8208   26.3567    7.4861 C   0  0  0  0  0  0  0  0  0  0  0  0
    8.8120   26.5914    8.6114 C   0  0  0  0  0  0  0  0  0  0  0  0
   10.9533   25.4514    7.9821 C   0  0  0  0  0  0  0  0  0  0  0  0
   15.5374   22.2457    5.8859 N   0  0  0  0  0  0  0  0  0  0  0  0
   16.2012   21.3800    5.4858 N   0  0  0  0  0  0  0  0  0  0  0  0
   15.5902   20.3153    4.9304 C   0  0  0  0  0  0  0  0  0  0  0  0
   14.5202   19.8551    5.3482 O   0  0  0  0  0  0  0  0  0  0  0  0
   17.1826   21.4233    5.5508 H   0  0  0  0  0  0  0  0  0  0  0  0
   16.5946   19.4181    4.1965 C   0  0  0  0  0  0  0  0  0  0  0  0
   15.9782   18.6266    3.0427 C   0  0  0  0  0  0  0  0  0  0  0  0
   15.0898   17.5067    3.5926 C   0  0  0  0  0  0  0  0  0  0  0  0
   15.1568   19.5530    2.1474 C   0  0  0  0  0  0  0  0  0  0  0  0
   17.1124   18.0059    2.2267 C   0  0  0  0  0  0  0  0  0  0  0  0
   17.2054   18.4791    5.1466 N   0  0  0  0  0  0  0  0  0  0  0  0
   18.3930   18.7530    5.6760 C   0  0  0  0  0  0  0  0  0  0  0  0
   18.9931   19.7600    5.2988 O   0  0  0  0  0  0  0  0  0  0  0  0
   16.7361   17.6488    5.3906 H   0  0  0  0  0  0  0  0  0  0  0  0
   18.9342   17.9070    6.5976 O   0  0  0  0  0  0  0  0  0  0  0  0
   18.6083   16.5447    6.3146 C   0  0  0  0  0  0  0  0  0  0  0  0
   15.7685   22.6128    7.1524 C   0  0  0  0  0  0  0  0  0  0  0  0
   16.0859   21.5853    8.0388 C   0  0  0  0  0  0  0  0  0  0  0  0
   17.4099   21.2449    8.2877 C   0  0  0  0  0  0  0  0  0  0  0  0
   17.7174   20.2496    9.2133 C   0  0  0  0  0  0  0  0  0  0  0  0
   15.0691   20.8999    8.6905 C   0  0  0  0  0  0  0  0  0  0  0  0
   15.3756   19.8725    9.5749 C   0  0  0  0  0  0  0  0  0  0  0  0
   16.6981   19.5462    9.8451 C   0  0  0  0  0  0  0  0  0  0  0  0
   16.9773   18.5897   10.7307 C   0  0  0  0  0  0  0  0  0  0  0  0
   17.9177   18.7770   11.6811 C   0  0  0  0  0  0  0  0  0  0  0  0
   18.1759   17.6787   12.4043 C   0  0  0  0  0  0  0  0  0  0  0  0
   17.3547   16.4204   11.7065 S   0  0  0  0  0  0  0  0  0  0  0  0
   16.6538   17.3111   10.4964 C   0  0  0  0  0  0  0  0  0  0  0  0
  4  5  1  0  0  0
  4 10  2  0  0  0
  5  6  2  0  0  0
  6  7  1  0  0  0
  6  8  1  0  0  0
  7 22  1  0  0  0
  8  9  2  0  0  0
  9 10  1  0  0  0
 10 11  1  0  0  0
 11 12  1  0  0  0
 12 13  2  0  0  0
 13 14  1  0  0  0
 14 15  1  0  0  0
 15 16  1  0  0  0
 16 17  2  0  0  0
 16 18  1  0  0  0
 18 27  1  0  0  0
 18 19  1  0  0  0
 27 28  1  0  0  0
 27 29  1  0  0  0
 19 20  1  0  0  0
 20 21  2  0  0  0
 20 22  1  0  0  0
 22 23  1  0  0  0
 22  3  1  0  0  0
  3  2  1  0  0  0
  2  1  1  0  0  0
  1 30  1  0  0  0
 30 31  1  0  0  0
 30 46  1  0  0  0
 31 32  1  0  0  0
 32 33  2  0  0  0
 32 35  1  0  0  0
 35 36  1  0  0  0
 35 40  1  0  0  0
 36 37  1  0  0  0
 36 38  1  0  0  0
 36 39  1  0  0  0
 40 41  1  0  0  0
 41 42  2  0  0  0
 41 44  1  0  0  0
 44 45  1  0  0  0
 46 47  1  0  0  0
 47 48  1  0  0  0
 47 50  2  0  0  0
 48 49  2  0  0  0
 49 52  1  0  0  0
 50 51  1  0  0  0
 51 52  2  0  0  0
 52 53  1  0  0  0
 53 54  1  0  0  0
 53 57  1  0  0  0
 54 55  1  0  0  0
 55 56  2  0  0  0
 56 57  2  0  0  0
 15 24  1  0  0  0
 19 25  1  0  0  0
 23 26  1  0  0  0
 31 34  1  0  0  0
 40 43  1  0  0  0
M  END
> <minimizedAffinity>
-11.82790

$$$$
4CPW_V78_A_1101


 57 60  0  0  0  0  0  0  0  0999 V2000
   12.4528   24.7018    4.8187 C   0  0  0  0  0  0  0  0  0  0  0  0
   12.8833   23.2561    5.0642 C   0  0  0  0  0  0  0  0  0  0  0  0
   13.2448   23.0969    6.5395 C   0  0  0  0  0  0  0  0  0  0  0  0
   16.4734   19.5735    9.4674 C   0  0  0  0  0  0  0  0  0  0  0  0
   15.5360   20.5387    9.1224 C   0  0  0  0  0  0  0  0  0  0  0  0
   15.9558   21.7313    8.5417 C   0  0  0  0  0  0  0  0  0  0  0  0
   15.0203   22.6229    8.0352 C   0  0  0  0  0  0  0  0  0  0  0  0
   17.3083   21.9722    8.3494 C   0  0  0  0  0  0  0  0  0  0  0  0
   18.2423   21.0062    8.7013 C   0  0  0  0  0  0  0  0  0  0  0  0
   17.8326   19.8486    9.3483 C   0  0  0  0  0  0  0  0  0  0  0  0
   18.7657   18.8586    9.6372 C   0  0  0  0  0  0  0  0  0  0  0  0
   18.5037   17.7677    8.8135 C   0  0  0  0  0  0  0  0  0  0  0  0
   19.4884   17.6697    7.8312 C   0  0  0  0  0  0  0  0  0  0  0  0
   19.1672   17.7647    6.4728 C   0  0  0  0  0  0  0  0  0  0  0  0
   17.7631   18.2014    6.2741 N   0  0  0  0  0  0  0  0  0  0  0  0
   17.4938   19.1467    5.2740 C   0  0  0  0  0  0  0  0  0  0  0  0
   18.4532   19.7562    4.7901 O   0  0  0  0  0  0  0  0  0  0  0  0
   16.1691   19.5324    5.0046 C   0  0  0  0  0  0  0  0  0  0  0  0
   15.9579   20.9125    5.5032 N   0  0  0  0  0  0  0  0  0  0  0  0
   14.7913   21.2776    6.1768 C   0  0  0  0  0  0  0  0  0  0  0  0
   13.9103   20.4335    6.3472 O   0  0  0  0  0  0  0  0  0  0  0  0
   14.6769   22.5853    6.6810 C   0  0  0  0  0  0  0  0  0  0  0  0
   15.5534   23.4537    5.9480 O   0  0  0  0  0  0  0  0  0  0  0  0
   17.0380   17.8363    6.8310 H   0  0  0  0  0  0  0  0  0  0  0  0
   16.6582   21.5886    5.3555 H   0  0  0  0  0  0  0  0  0  0  0  0
   16.4665   23.1370    6.0316 H   0  0  0  0  0  0  0  0  0  0  0  0
   15.9065   19.4615    3.4915 C   0  0  0  0  0  0  0  0  0  0  0  0
   15.4827   18.0414    3.1136 C   0  0  0  0  0  0  0  0  0  0  0  0
   14.8095   20.4554    3.0954 C   0  0  0  0  0  0  0  0  0  0  0  0
   11.0516   24.7359    4.3769 N   0  0  0  0  0  0  0  0  0  0  0  0
   10.3015   25.4825    4.8565 N   0  0  0  0  0  0  0  0  0  0  0  0
    9.8655   25.2306    6.1062 C   0  0  0  0  0  0  0  0  0  0  0  0
    9.6363   24.0891    6.5258 O   0  0  0  0  0  0  0  0  0  0  0  0
    9.9931   26.2769    4.3634 H   0  0  0  0  0  0  0  0  0  0  0  0
    9.1317   26.4424    6.6939 C   0  0  0  0  0  0  0  0  0  0  0  0
    9.0950   26.4527    8.2224 C   0  0  0  0  0  0  0  0  0  0  0  0
    7.9814   25.5289    8.7250 C   0  0  0  0  0  0  0  0  0  0  0  0
   10.4418   26.0012    8.7852 C   0  0  0  0  0  0  0  0  0  0  0  0
    8.8035   27.8802    8.6859 C   0  0  0  0  0  0  0  0  0  0  0  0
    7.7551   26.4826    6.1833 N   0  0  0  0  0  0  0  0  0  0  0  0
    7.4686   27.2136    5.1113 C   0  0  0  0  0  0  0  0  0  0  0  0
    8.3557   27.9051    4.6100 O   0  0  0  0  0  0  0  0  0  0  0  0
    7.0463   25.9692    6.6343 H   0  0  0  0  0  0  0  0  0  0  0  0
    6.2022   27.2078    4.6073 O   0  0  0  0  0  0  0  0  0  0  0  0
    5.3541   26.3124    5.3293 C   0  0  0  0  0  0  0  0  0  0  0  0
   10.7045   24.2607    3.1744 C   0  0  0  0  0  0  0  0  0  0  0  0
    9.3505   24.3386    2.8536 C   0  0  0  0  0  0  0  0  0  0  0  0
    8.4525   23.3891    3.3255 C   0  0  0  0  0  0  0  0  0  0  0  0
    7.0933   23.5045    3.0398 C   0  0  0  0  0  0  0  0  0  0  0  0
    8.8897   25.3826    2.0624 C   0  0  0  0  0  0  0  0  0  0  0  0
    7.5415   25.4678    1.7355 C   0  0  0  0  0  0  0  0  0  0  0  0
    6.6370   24.5350    2.2259 C   0  0  0  0  0  0  0  0  0  0  0  0
    5.3403   24.6562    1.9420 C   0  0  0  0  0  0  0  0  0  0  0  0
    4.8560   25.7824    1.3764 C   0  0  0  0  0  0  0  0  0  0  0  0
    3.5195   25.8025    1.2798 C   0  0  0  0  0  0  0  0  0  0  0  0
    2.9430   24.4791    2.0927 S   0  0  0  0  0  0  0  0  0  0  0  0
    4.4242   23.8803    2.5363 C   0  0  0  0  0  0  0  0  0  0  0  0
  4  5  1  0  0  0
  4 10  2  0  0  0
  5  6  2  0  0  0
  6  7  1  0  0  0
  6  8  1  0  0  0
  7 22  1  0  0  0
  8  9  2  0  0  0
  9 10  1  0  0  0
 10 11  1  0  0  0
 11 12  1  0  0  0
 12 13  2  0  0  0
 13 14  1  0  0  0
 14 15  1  0  0  0
 15 16  1  0  0  0
 16 17  2  0  0  0
 16 18  1  0  0  0
 18 27  1  0  0  0
 18 19  1  0  0  0
 27 28  1  0  0  0
 27 29  1  0  0  0
 19 20  1  0  0  0
 20 21  2  0  0  0
 20 22  1  0  0  0
 22 23  1  0  0  0
 22  3  1  0  0  0
  3  2  1  0  0  0
  2  1  1  0  0  0
  1 30  1  0  0  0
 30 31  1  0  0  0
 30 46  1  0  0  0
 31 32  1  0  0  0
 32 33  2  0  0  0
 32 35  1  0  0  0
 35 36  1  0  0  0
 35 40  1  0  0  0
 36 37  1  0  0  0
 36 38  1  0  0  0
 36 39  1  0  0  0
 40 41  1  0  0  0
 41 42  2  0  0  0
 41 44  1  0  0  0
 44 45  1  0  0  0
 46 47  1  0  0  0
 47 48  1  0  0  0
 47 50  2  0  0  0
 48 49  2  0  0  0
 49 52  1  0  0  0
 50 51  1  0  0  0
 51 52  2  0  0  0
 52 53  1  0  0  0
 53 54  1  0  0  0
 53 57  1  0  0  0
 54 55  1  0  0  0
 55 56  2  0  0  0
 56 57  2  0  0  0
 15 24  1  0  0  0
 19 25  1  0  0  0
 23 26  1  0  0  0
 31 34  1  0  0  0
 40 43  1  0  0  0
M  END
> <minimizedAffinity>
-11.61351

$$$$
4CPW_V78_A_1101


 57 60  0  0  0  0  0  0  0  0999 V2000
   11.4472   23.6885    8.0064 C   0  0  0  0  0  0  0  0  0  0  0  0
   12.9493   23.9171    7.8425 C   0  0  0  0  0  0  0  0  0  0  0  0
   13.4065   23.2540    6.5449 C   0  0  0  0  0  0  0  0  0  0  0  0
   16.3782   19.5096    9.4706 C   0  0  0  0  0  0  0  0  0  0  0  0
   15.4976   20.5265    9.1243 C   0  0  0  0  0  0  0  0  0  0  0  0
   15.9899   21.7118    8.5872 C   0  0  0  0  0  0  0  0  0  0  0  0
   15.1126   22.6592    8.0778 C   0  0  0  0  0  0  0  0  0  0  0  0
   17.3573   21.8928    8.4401 C   0  0  0  0  0  0  0  0  0  0  0  0
   18.2342   20.8751    8.7931 C   0  0  0  0  0  0  0  0  0  0  0  0
   17.7517   19.7227    9.3976 C   0  0  0  0  0  0  0  0  0  0  0  0
   18.6285   18.6826    9.6870 C   0  0  0  0  0  0  0  0  0  0  0  0
   18.3404   17.6261    8.8279 C   0  0  0  0  0  0  0  0  0  0  0  0
   19.3482   17.5058    7.8719 C   0  0  0  0  0  0  0  0  0  0  0  0
   19.0724   17.6496    6.5078 C   0  0  0  0  0  0  0  0  0  0  0  0
   17.6968   18.1574    6.2806 N   0  0  0  0  0  0  0  0  0  0  0  0
   17.5019   19.1389    5.2983 C   0  0  0  0  0  0  0  0  0  0  0  0
   18.5028   19.7140    4.8581 O   0  0  0  0  0  0  0  0  0  0  0  0
   16.2053   19.5937    5.0014 C   0  0  0  0  0  0  0  0  0  0  0  0
   16.0441   20.9695    5.5297 N   0  0  0  0  0  0  0  0  0  0  0  0
   14.8763   21.3728    6.1790 C   0  0  0  0  0  0  0  0  0  0  0  0
   13.9522   20.5675    6.3020 O   0  0  0  0  0  0  0  0  0  0  0  0
   14.8083   22.6715    6.7139 C   0  0  0  0  0  0  0  0  0  0  0  0
   15.7459   23.5152    6.0291 O   0  0  0  0  0  0  0  0  0  0  0  0
   16.9392   17.8134    6.8068 H   0  0  0  0  0  0  0  0  0  0  0  0
   16.7794   21.6149    5.4198 H   0  0  0  0  0  0  0  0  0  0  0  0
   16.6403   23.1535    6.1304 H   0  0  0  0  0  0  0  0  0  0  0  0
   15.9848   19.5729    3.4800 C   0  0  0  0  0  0  0  0  0  0  0  0
   15.7570   18.1330    3.0175 C   0  0  0  0  0  0  0  0  0  0  0  0
   14.7761   20.4375    3.1064 C   0  0  0  0  0  0  0  0  0  0  0  0
   10.7033   24.7318    7.2867 N   0  0  0  0  0  0  0  0  0  0  0  0
   10.1029   24.4702    6.3269 N   0  0  0  0  0  0  0  0  0  0  0  0
   10.7460   24.5129    5.1437 C   0  0  0  0  0  0  0  0  0  0  0  0
   11.6092   25.3573    4.8727 O   0  0  0  0  0  0  0  0  0  0  0  0
    9.1509   24.2243    6.3768 H   0  0  0  0  0  0  0  0  0  0  0  0
    9.9110   23.8633    4.0332 C   0  0  0  0  0  0  0  0  0  0  0  0
   10.5863   22.6518    3.3897 C   0  0  0  0  0  0  0  0  0  0  0  0
   11.6749   23.1154    2.4171 C   0  0  0  0  0  0  0  0  0  0  0  0
   11.1951   21.7541    4.4658 C   0  0  0  0  0  0  0  0  0  0  0  0
    9.5275   21.8681    2.6137 C   0  0  0  0  0  0  0  0  0  0  0  0
    9.6168   24.8553    2.9907 N   0  0  0  0  0  0  0  0  0  0  0  0
    8.4375   25.4673    2.9743 C   0  0  0  0  0  0  0  0  0  0  0  0
    7.5835   25.1325    3.7959 O   0  0  0  0  0  0  0  0  0  0  0  0
   10.2918   25.0662    2.3058 H   0  0  0  0  0  0  0  0  0  0  0  0
    8.1858   26.4258    2.0385 O   0  0  0  0  0  0  0  0  0  0  0  0
    7.4032   25.9123    0.9586 C   0  0  0  0  0  0  0  0  0  0  0  0
   10.3358   25.8587    7.9087 C   0  0  0  0  0  0  0  0  0  0  0  0
    9.0440   26.3100    7.6442 C   0  0  0  0  0  0  0  0  0  0  0  0
    8.7900   27.1442    6.5624 C   0  0  0  0  0  0  0  0  0  0  0  0
    7.4872   27.5490    6.2780 C   0  0  0  0  0  0  0  0  0  0  0  0
    7.9952   25.9135    8.4634 C   0  0  0  0  0  0  0  0  0  0  0  0
    6.7038   26.3597    8.2088 C   0  0  0  0  0  0  0  0  0  0  0  0
    6.4421   27.1731    7.1141 C   0  0  0  0  0  0  0  0  0  0  0  0
    5.1914   27.5551    6.8560 C   0  0  0  0  0  0  0  0  0  0  0  0
    4.2496   27.5468    7.8233 C   0  0  0  0  0  0  0  0  0  0  0  0
    3.0178   27.8262    7.3754 C   0  0  0  0  0  0  0  0  0  0  0  0
    3.0930   27.8876    5.7216 S   0  0  0  0  0  0  0  0  0  0  0  0
    4.7180   27.5805    5.6031 C   0  0  0  0  0  0  0  0  0  0  0  0
  4  5  1  0  0  0
  4 10  2  0  0  0
  5  6  2  0  0  0
  6  7  1  0  0  0
  6  8  1  0  0  0
  7 22  1  0  0  0
  8  9  2  0  0  0
  9 10  1  0  0  0
 10 11  1  0  0  0
 11 12  1  0  0  0
 12 13  2  0  0  0
 13 14  1  0  0  0
 14 15  1  0  0  0
 15 16  1  0  0  0
 16 17  2  0  0  0
 16 18  1  0  0  0
 18 27  1  0  0  0
 18 19  1  0  0  0
 27 28  1  0  0  0
 27 29  1  0  0  0
 19 20  1  0  0  0
 20 21  2  0  0  0
 20 22  1  0  0  0
 22 23  1  0  0  0
 22  3  1  0  0  0
  3  2  1  0  0  0
  2  1  1  0  0  0
  1 30  1  0  0  0
 30 31  1  0  0  0
 30 46  1  0  0  0
 31 32  1  0  0  0
 32 33  2  0  0  0
 32 35  1  0  0  0
 35 36  1  0  0  0
 35 40  1  0  0  0
 36 37  1  0  0  0
 36 38  1  0  0  0
 36 39  1  0  0  0
 40 41  1  0  0  0
 41 42  2  0  0  0
 41 44  1  0  0  0
 44 45  1  0  0  0
 46 47  1  0  0  0
 47 48  1  0  0  0
 47 50  2  0  0  0
 48 49  2  0  0  0
 49 52  1  0  0  0
 50 51  1  0  0  0
 51 52  2  0  0  0
 52 53  1  0  0  0
 53 54  1  0  0  0
 53 57  1  0  0  0
 54 55  1  0  0  0
 55 56  2  0  0  0
 56 57  2  0  0  0
 15 24  1  0  0  0
 19 25  1  0  0  0
 23 26  1  0  0  0
 31 34  1  0  0  0
 40 43  1  0  0  0
M  END
> <minimizedAffinity>
-11.01798

$$$$
4CPW_V78_A_1101


 57 60  0  0  0  0  0  0  0  0999 V2000
   17.8611   19.7306    9.0232 C   0  0  0  0  0  0  0  0  0  0  0  0
   16.4626   20.0769    8.5134 C   0  0  0  0  0  0  0  0  0  0  0  0
   16.1691   21.5387    8.8443 C   0  0  0  0  0  0  0  0  0  0  0  0
   12.5067   20.7735    4.6715 C   0  0  0  0  0  0  0  0  0  0  0  0
   13.5428   20.5898    5.5782 C   0  0  0  0  0  0  0  0  0  0  0  0
   14.6478   21.4345    5.5431 C   0  0  0  0  0  0  0  0  0  0  0  0
   15.6011   21.3714    6.5501 C   0  0  0  0  0  0  0  0  0  0  0  0
   14.7331   22.4273    4.5780 C   0  0  0  0  0  0  0  0  0  0  0  0
   13.6969   22.6035    3.6699 C   0  0  0  0  0  0  0  0  0  0  0  0
   12.6297   21.7162    3.6549 C   0  0  0  0  0  0  0  0  0  0  0  0
   11.5660   21.9390    2.7870 C   0  0  0  0  0  0  0  0  0  0  0  0
   10.4614   22.3113    3.5477 C   0  0  0  0  0  0  0  0  0  0  0  0
   10.2019   23.6698    3.3710 C   0  0  0  0  0  0  0  0  0  0  0  0
   10.2488   24.5614    4.4482 C   0  0  0  0  0  0  0  0  0  0  0  0
   10.8182   23.9223    5.6602 N   0  0  0  0  0  0  0  0  0  0  0  0
   11.7252   24.6564    6.4378 C   0  0  0  0  0  0  0  0  0  0  0  0
   12.2003   25.6844    5.9442 O   0  0  0  0  0  0  0  0  0  0  0  0
   12.2313   24.1153    7.6324 C   0  0  0  0  0  0  0  0  0  0  0  0
   13.6534   23.7476    7.4307 N   0  0  0  0  0  0  0  0  0  0  0  0
   14.1788   22.5535    7.9269 C   0  0  0  0  0  0  0  0  0  0  0  0
   13.4437   21.7946    8.5604 O   0  0  0  0  0  0  0  0  0  0  0  0
   15.5190   22.2315    7.6484 C   0  0  0  0  0  0  0  0  0  0  0  0
   16.2449   23.4355    7.3599 O   0  0  0  0  0  0  0  0  0  0  0  0
   10.5653   23.0048    5.9123 H   0  0  0  0  0  0  0  0  0  0  0  0
   14.2419   24.3611    6.9343 H   0  0  0  0  0  0  0  0  0  0  0  0
   15.8395   23.8835    6.6011 H   0  0  0  0  0  0  0  0  0  0  0  0
   12.0982   25.1460    8.7653 C   0  0  0  0  0  0  0  0  0  0  0  0
   10.7090   25.7836    8.7139 C   0  0  0  0  0  0  0  0  0  0  0  0
   12.3121   24.4721   10.1248 C   0  0  0  0  0  0  0  0  0  0  0  0
   18.0552   18.2741    8.9941 N   0  0  0  0  0  0  0  0  0  0  0  0
   18.0083   17.6943    7.9883 N   0  0  0  0  0  0  0  0  0  0  0  0
   19.1636   17.4579    7.3366 C   0  0  0  0  0  0  0  0  0  0  0  0
   20.0992   18.2672    7.3027 O   0  0  0  0  0  0  0  0  0  0  0  0
   17.1484   17.3844    7.6225 H   0  0  0  0  0  0  0  0  0  0  0  0
   18.9655   16.4428    6.2041 C   0  0  0  0  0  0  0  0  0  0  0  0
   19.8255   15.1872    6.3511 C   0  0  0  0  0  0  0  0  0  0  0  0
   20.2545   15.0152    7.8114 C   0  0  0  0  0  0  0  0  0  0  0  0
   19.0466   13.9573    5.8873 C   0  0  0  0  0  0  0  0  0  0  0  0
   21.0729   15.3556    5.4832 C   0  0  0  0  0  0  0  0  0  0  0  0
   19.2640   17.0771    4.9133 N   0  0  0  0  0  0  0  0  0  0  0  0
   18.2952   17.2452    4.0195 C   0  0  0  0  0  0  0  0  0  0  0  0
   17.1758   16.7949    4.2657 O   0  0  0  0  0  0  0  0  0  0  0  0
   20.1796   17.3770    4.7109 H   0  0  0  0  0  0  0  0  0  0  0  0
   18.5622   17.8817    2.8442 O   0  0  0  0  0  0  0  0  0  0  0  0
   17.4060   18.5492    2.3344 C   0  0  0  0  0  0  0  0  0  0  0  0
   18.6992   17.6526    9.9897 C   0  0  0  0  0  0  0  0  0  0  0  0
   17.9033   16.9255   10.8730 C   0  0  0  0  0  0  0  0  0  0  0  0
   18.3882   16.5452   12.1183 C   0  0  0  0  0  0  0  0  0  0  0  0
   17.5671   15.8618   13.0132 C   0  0  0  0  0  0  0  0  0  0  0  0
   16.6064   16.5859   10.5108 C   0  0  0  0  0  0  0  0  0  0  0  0
   15.8057   15.8594   11.3841 C   0  0  0  0  0  0  0  0  0  0  0  0
   16.2781   15.4992   12.6394 C   0  0  0  0  0  0  0  0  0  0  0  0
   15.4825   14.8429   13.4839 C   0  0  0  0  0  0  0  0  0  0  0  0
   14.1550   15.0863   13.5177 C   0  0  0  0  0  0  0  0  0  0  0  0
   13.5175   14.4484   14.5090 C   0  0  0  0  0  0  0  0  0  0  0  0
   14.6697   13.7345   15.4616 S   0  0  0  0  0  0  0  0  0  0  0  0
   15.9756   14.2328   14.5697 C   0  0  0  0  0  0  0  0  0  0  0  0
  4  5  1  0  0  0
  4 10  2  0  0  0
  5  6  2  0  0  0
  6  7  1  0  0  0
  6  8  1  0  0  0
  7 22  1  0  0  0
  8  9  2  0  0  0
  9 10  1  0  0  0
 10 11  1  0  0  0
 11 12  1  0  0  0
 12 13  2  0  0  0
 13 14  1  0  0  0
 14 15  1  0  0  0
 15 16  1  0  0  0
 16 17  2  0  0  0
 16 18  1  0  0  0
 18 27  1  0  0  0
 18 19  1  0  0  0
 27 28  1  0  0  0
 27 29  1  0  0  0
 19 20  1  0  0  0
 20 21  2  0  0  0
 20 22  1  0  0  0
 22 23  1  0  0  0
 22  3  1  0  0  0
  3  2  1  0  0  0
  2  1  1  0  0  0
  1 30  1  0  0  0
 30 31  1  0  0  0
 30 46  1  0  0  0
 31 32  1  0  0  0
 32 33  2  0  0  0
 32 35  1  0  0  0
 35 36  1  0  0  0
 35 40  1  0  0  0
 36 37  1  0  0  0
 36 38  1  0  0  0
 36 39  1  0  0  0
 40 41  1  0  0  0
 41 42  2  0  0  0
 41 44  1  0  0  0
 44 45  1  0  0  0
 46 47  1  0  0  0
 47 48  1  0  0  0
 47 50  2  0  0  0
 48 49  2  0  0  0
 49 52  1  0  0  0
 50 51  1  0  0  0
 51 52  2  0  0  0
 52 53  1  0  0  0
 53 54  1  0  0  0
 53 57  1  0  0  0
 54 55  1  0  0  0
 55 56  2  0  0  0
 56 57  2  0  0  0
 15 24  1  0  0  0
 19 25  1  0  0  0
 23 26  1  0  0  0
 31 34  1  0  0  0
 40 43  1  0  0  0
M  END
> <minimizedAffinity>
-10.99312

$$$$
4CPW_V78_A_1101


 57 60  0  0  0  0  0  0  0  0999 V2000
   15.0718   22.9146    5.5049 C   0  0  0  0  0  0  0  0  0  0  0  0
   13.5893   22.6949    5.8038 C   0  0  0  0  0  0  0  0  0  0  0  0
   13.2044   23.5388    7.0172 C   0  0  0  0  0  0  0  0  0  0  0  0
    9.2783   27.3588    8.2023 C   0  0  0  0  0  0  0  0  0  0  0  0
   10.4041   26.5480    8.2696 C   0  0  0  0  0  0  0  0  0  0  0  0
   10.2553   25.1694    8.3836 C   0  0  0  0  0  0  0  0  0  0  0  0
   11.3638   24.3410    8.2752 C   0  0  0  0  0  0  0  0  0  0  0  0
    8.9880   24.6124    8.4741 C   0  0  0  0  0  0  0  0  0  0  0  0
    7.8654   25.4279    8.4120 C   0  0  0  0  0  0  0  0  0  0  0  0
    8.0118   26.8076    8.3737 C   0  0  0  0  0  0  0  0  0  0  0  0
    6.8849   27.6125    8.2451 C   0  0  0  0  0  0  0  0  0  0  0  0
    6.9060   28.1817    6.9752 C   0  0  0  0  0  0  0  0  0  0  0  0
    5.9266   27.5925    6.1766 C   0  0  0  0  0  0  0  0  0  0  0  0
    6.2649   26.9028    5.0073 C   0  0  0  0  0  0  0  0  0  0  0  0
    7.7310   26.7016    4.8982 N   0  0  0  0  0  0  0  0  0  0  0  0
    8.2023   25.4572    4.4561 C   0  0  0  0  0  0  0  0  0  0  0  0
    7.3998   24.5184    4.4295 O   0  0  0  0  0  0  0  0  0  0  0  0
    9.5800   25.2493    4.2691 C   0  0  0  0  0  0  0  0  0  0  0  0
   10.0846   24.3643    5.3463 N   0  0  0  0  0  0  0  0  0  0  0  0
   11.3006   24.6091    5.9861 C   0  0  0  0  0  0  0  0  0  0  0  0
   11.9765   25.5775    5.6350 O   0  0  0  0  0  0  0  0  0  0  0  0
   11.6949   23.7701    7.0434 C   0  0  0  0  0  0  0  0  0  0  0  0
   11.0303   22.5044    6.9163 O   0  0  0  0  0  0  0  0  0  0  0  0
    8.3577   27.4244    5.1306 H   0  0  0  0  0  0  0  0  0  0  0  0
    9.5484   23.5843    5.6172 H   0  0  0  0  0  0  0  0  0  0  0  0
   10.0701   22.6404    6.9319 H   0  0  0  0  0  0  0  0  0  0  0  0
    9.8256   24.6128    2.8914 C   0  0  0  0  0  0  0  0  0  0  0  0
    9.7886   23.0892    3.0198 C   0  0  0  0  0  0  0  0  0  0  0  0
    8.7595   25.0776    1.8936 C   0  0  0  0  0  0  0  0  0  0  0  0
   15.8817   21.9582    6.2726 N   0  0  0  0  0  0  0  0  0  0  0  0
   16.5034   21.1424    5.7266 N   0  0  0  0  0  0  0  0  0  0  0  0
   15.8434   20.1132    5.1605 C   0  0  0  0  0  0  0  0  0  0  0  0
   14.8363   19.5975    5.6617 O   0  0  0  0  0  0  0  0  0  0  0  0
   17.4850   21.2016    5.6791 H   0  0  0  0  0  0  0  0  0  0  0  0
   16.7639   19.3003    4.2417 C   0  0  0  0  0  0  0  0  0  0  0  0
   16.0205   18.5684    3.1239 C   0  0  0  0  0  0  0  0  0  0  0  0
   17.0243   17.9452    2.1492 C   0  0  0  0  0  0  0  0  0  0  0  0
   15.1207   17.4827    3.7121 C   0  0  0  0  0  0  0  0  0  0  0  0
   15.1631   19.5862    2.3712 C   0  0  0  0  0  0  0  0  0  0  0  0
   17.5157   18.3201    5.0362 N   0  0  0  0  0  0  0  0  0  0  0  0
   18.7067   18.6426    5.5295 C   0  0  0  0  0  0  0  0  0  0  0  0
   19.1899   19.7390    5.2450 O   0  0  0  0  0  0  0  0  0  0  0  0
   17.1382   17.4262    5.2029 H   0  0  0  0  0  0  0  0  0  0  0  0
   19.3793   17.7510    6.3108 O   0  0  0  0  0  0  0  0  0  0  0  0
   18.4824   16.9327    7.0645 C   0  0  0  0  0  0  0  0  0  0  0  0
   16.2732   22.2442    7.5204 C   0  0  0  0  0  0  0  0  0  0  0  0
   16.4465   21.1546    8.3719 C   0  0  0  0  0  0  0  0  0  0  0  0
   15.3512   20.5119    8.9358 C   0  0  0  0  0  0  0  0  0  0  0  0
   15.5337   19.3928    9.7460 C   0  0  0  0  0  0  0  0  0  0  0  0
   17.7273   20.6973    8.6524 C   0  0  0  0  0  0  0  0  0  0  0  0
   17.9104   19.6125    9.5019 C   0  0  0  0  0  0  0  0  0  0  0  0
   16.8173   18.9521   10.0474 C   0  0  0  0  0  0  0  0  0  0  0  0
   17.0070   17.8848   10.8231 C   0  0  0  0  0  0  0  0  0  0  0  0
   18.1314   17.7526   11.5587 C   0  0  0  0  0  0  0  0  0  0  0  0
   18.2327   16.5673   12.1758 C   0  0  0  0  0  0  0  0  0  0  0  0
   16.9930   15.6148   11.6277 S   0  0  0  0  0  0  0  0  0  0  0  0
   16.3237   16.7504   10.6219 C   0  0  0  0  0  0  0  0  0  0  0  0
  4  5  1  0  0  0
  4 10  2  0  0  0
  5  6  2  0  0  0
  6  7  1  0  0  0
  6  8  1  0  0  0
  7 22  1  0  0  0
  8  9  2  0  0  0
  9 10  1  0  0  0
 10 11  1  0  0  0
 11 12  1  0  0  0
 12 13  2  0  0  0
 13 14  1  0  0  0
 14 15  1  0  0  0
 15 16  1  0  0  0
 16 17  2  0  0  0
 16 18  1  0  0  0
 18 27  1  0  0  0
 18 19  1  0  0  0
 27 28  1  0  0  0
 27 29  1  0  0  0
 19 20  1  0  0  0
 20 21  2  0  0  0
 20 22  1  0  0  0
 22 23  1  0  0  0
 22  3  1  0  0  0
  3  2  1  0  0  0
  2  1  1  0  0  0
  1 30  1  0  0  0
 30 31  1  0  0  0
 30 46  1  0  0  0
 31 32  1  0  0  0
 32 33  2  0  0  0
 32 35  1  0  0  0
 35 36  1  0  0  0
 35 40  1  0  0  0
 36 37  1  0  0  0
 36 38  1  0  0  0
 36 39  1  0  0  0
 40 41  1  0  0  0
 41 42  2  0  0  0
 41 44  1  0  0  0
 44 45  1  0  0  0
 46 47  1  0  0  0
 47 48  1  0  0  0
 47 50  2  0  0  0
 48 49  2  0  0  0
 49 52  1  0  0  0
 50 51  1  0  0  0
 51 52  2  0  0  0
 52 53  1  0  0  0
 53 54  1  0  0  0
 53 57  1  0  0  0
 54 55  1  0  0  0
 55 56  2  0  0  0
 56 57  2  0  0  0
 15 24  1  0  0  0
 19 25  1  0  0  0
 23 26  1  0  0  0
 31 34  1  0  0  0
 40 43  1  0  0  0
M  END
> <minimizedAffinity>
-10.70666

$$$$
4CPW_V78_A_1101


 57 60  0  0  0  0  0  0  0  0999 V2000
   13.6810   21.4186    6.5661 C   0  0  0  0  0  0  0  0  0  0  0  0
   13.9005   22.6301    5.6608 C   0  0  0  0  0  0  0  0  0  0  0  0
   13.2417   23.8481    6.3050 C   0  0  0  0  0  0  0  0  0  0  0  0
    8.6243   22.8038    3.3050 C   0  0  0  0  0  0  0  0  0  0  0  0
    9.8799   22.6961    3.8892 C   0  0  0  0  0  0  0  0  0  0  0  0
   10.8772   23.6060    3.5529 C   0  0  0  0  0  0  0  0  0  0  0  0
   12.0736   23.6150    4.2568 C   0  0  0  0  0  0  0  0  0  0  0  0
   10.6306   24.5888    2.6055 C   0  0  0  0  0  0  0  0  0  0  0  0
    9.3750   24.6890    2.0200 C   0  0  0  0  0  0  0  0  0  0  0  0
    8.4026   23.7383    2.2976 C   0  0  0  0  0  0  0  0  0  0  0  0
    7.1289   23.8839    1.7585 C   0  0  0  0  0  0  0  0  0  0  0  0
    6.2564   24.1986    2.7962 C   0  0  0  0  0  0  0  0  0  0  0  0
    5.8740   25.5362    2.7032 C   0  0  0  0  0  0  0  0  0  0  0  0
    6.1610   26.4438    3.7286 C   0  0  0  0  0  0  0  0  0  0  0  0
    7.0817   25.8573    4.7335 N   0  0  0  0  0  0  0  0  0  0  0  0
    8.1206   26.6559    5.2326 C   0  0  0  0  0  0  0  0  0  0  0  0
    8.3758   27.7040    4.6306 O   0  0  0  0  0  0  0  0  0  0  0  0
    8.9697   26.1632    6.2388 C   0  0  0  0  0  0  0  0  0  0  0  0
   10.3007   25.8800    5.6503 N   0  0  0  0  0  0  0  0  0  0  0  0
   11.0161   24.7271    5.9775 C   0  0  0  0  0  0  0  0  0  0  0  0
   10.5334   23.9336    6.7869 O   0  0  0  0  0  0  0  0  0  0  0  0
   12.2446   24.4835    5.3381 C   0  0  0  0  0  0  0  0  0  0  0  0
   12.7861   25.7254    4.8645 O   0  0  0  0  0  0  0  0  0  0  0  0
    6.9660   24.9297    5.0424 H   0  0  0  0  0  0  0  0  0  0  0  0
   10.6898   26.5213    5.0127 H   0  0  0  0  0  0  0  0  0  0  0  0
   12.1598   26.1374    4.2490 H   0  0  0  0  0  0  0  0  0  0  0  0
    9.0907   27.1994    7.3680 C   0  0  0  0  0  0  0  0  0  0  0  0
    7.6934   27.6169    7.8287 C   0  0  0  0  0  0  0  0  0  0  0  0
    9.8740   26.6118    8.5467 C   0  0  0  0  0  0  0  0  0  0  0  0
   14.9719   20.7875    6.8751 N   0  0  0  0  0  0  0  0  0  0  0  0
   15.3146   19.8373    6.3009 N   0  0  0  0  0  0  0  0  0  0  0  0
   16.1892   19.9882    5.2873 C   0  0  0  0  0  0  0  0  0  0  0  0
   16.1669   20.9526    4.5121 O   0  0  0  0  0  0  0  0  0  0  0  0
   14.9753   18.9468    6.5482 H   0  0  0  0  0  0  0  0  0  0  0  0
   16.7592   18.6368    4.8387 C   0  0  0  0  0  0  0  0  0  0  0  0
   18.2058   18.4074    5.2773 C   0  0  0  0  0  0  0  0  0  0  0  0
   18.9319   19.7498    5.4072 C   0  0  0  0  0  0  0  0  0  0  0  0
   18.2407   17.6635    6.6114 C   0  0  0  0  0  0  0  0  0  0  0  0
   18.9038   17.5663    4.2082 C   0  0  0  0  0  0  0  0  0  0  0  0
   16.6811   18.5278    3.3760 N   0  0  0  0  0  0  0  0  0  0  0  0
   15.5914   18.0223    2.8080 C   0  0  0  0  0  0  0  0  0  0  0  0
   14.6945   17.5846    3.5294 O   0  0  0  0  0  0  0  0  0  0  0  0
   17.4342   18.8285    2.8179 H   0  0  0  0  0  0  0  0  0  0  0  0
   15.4987   17.9710    1.4491 O   0  0  0  0  0  0  0  0  0  0  0  0
   16.4980   17.1181    0.8867 C   0  0  0  0  0  0  0  0  0  0  0  0
   15.9468   21.4861    7.4698 C   0  0  0  0  0  0  0  0  0  0  0  0
   16.6635   20.8154    8.4592 C   0  0  0  0  0  0  0  0  0  0  0  0
   16.0100   20.0344    9.4045 C   0  0  0  0  0  0  0  0  0  0  0  0
   16.7402   19.3283   10.3586 C   0  0  0  0  0  0  0  0  0  0  0  0
   18.0479   20.9185    8.4956 C   0  0  0  0  0  0  0  0  0  0  0  0
   18.7713   20.2549    9.4795 C   0  0  0  0  0  0  0  0  0  0  0  0
   18.1238   19.4534   10.4106 C   0  0  0  0  0  0  0  0  0  0  0  0
   18.8349   18.7863   11.3195 C   0  0  0  0  0  0  0  0  0  0  0  0
   19.9777   18.1534   10.9786 C   0  0  0  0  0  0  0  0  0  0  0  0
   20.5004   17.4184   11.9699 C   0  0  0  0  0  0  0  0  0  0  0  0
   19.4066   17.4135   13.2142 S   0  0  0  0  0  0  0  0  0  0  0  0
   18.2839   18.3816   12.4715 C   0  0  0  0  0  0  0  0  0  0  0  0
  4  5  1  0  0  0
  4 10  2  0  0  0
  5  6  2  0  0  0
  6  7  1  0  0  0
  6  8  1  0  0  0
  7 22  1  0  0  0
  8  9  2  0  0  0
  9 10  1  0  0  0
 10 11  1  0  0  0
 11 12  1  0  0  0
 12 13  2  0  0  0
 13 14  1  0  0  0
 14 15  1  0  0  0
 15 16  1  0  0  0
 16 17  2  0  0  0
 16 18  1  0  0  0
 18 27  1  0  0  0
 18 19  1  0  0  0
 27 28  1  0  0  0
 27 29  1  0  0  0
 19 20  1  0  0  0
 20 21  2  0  0  0
 20 22  1  0  0  0
 22 23  1  0  0  0
 22  3  1  0  0  0
  3  2  1  0  0  0
  2  1  1  0  0  0
  1 30  1  0  0  0
 30 31  1  0  0  0
 30 46  1  0  0  0
 31 32  1  0  0  0
 32 33  2  0  0  0
 32 35  1  0  0  0
 35 36  1  0  0  0
 35 40  1  0  0  0
 36 37  1  0  0  0
 36 38  1  0  0  0
 36 39  1  0  0  0
 40 41  1  0  0  0
 41 42  2  0  0  0
 41 44  1  0  0  0
 44 45  1  0  0  0
 46 47  1  0  0  0
 47 48  1  0  0  0
 47 50  2  0  0  0
 48 49  2  0  0  0
 49 52  1  0  0  0
 50 51  1  0  0  0
 51 52  2  0  0  0
 52 53  1  0  0  0
 53 54  1  0  0  0
 53 57  1  0  0  0
 54 55  1  0  0  0
 55 56  2  0  0  0
 56 57  2  0  0  0
 15 24  1  0  0  0
 19 25  1  0  0  0
 23 26  1  0  0  0
 31 34  1  0  0  0
 40 43  1  0  0  0
M  END
> <minimizedAffinity>
-10.40661

$$$$
4CPW_V78_A_1101


 57 60  0  0  0  0  0  0  0  0999 V2000
   11.5109   23.8484    3.8423 C   0  0  0  0  0  0  0  0  0  0  0  0
   11.7653   22.5884    4.6688 C   0  0  0  0  0  0  0  0  0  0  0  0
   12.7649   21.7072    3.9227 C   0  0  0  0  0  0  0  0  0  0  0  0
   15.3362   20.1530    8.6538 C   0  0  0  0  0  0  0  0  0  0  0  0
   14.4136   20.6690    7.7527 C   0  0  0  0  0  0  0  0  0  0  0  0
   14.7573   21.7625    6.9641 C   0  0  0  0  0  0  0  0  0  0  0  0
   13.9122   22.1737    5.9426 C   0  0  0  0  0  0  0  0  0  0  0  0
   16.0002   22.3612    7.1099 C   0  0  0  0  0  0  0  0  0  0  0  0
   16.9172   21.8449    8.0164 C   0  0  0  0  0  0  0  0  0  0  0  0
   16.5506   20.8023    8.8561 C   0  0  0  0  0  0  0  0  0  0  0  0
   17.4954   20.2490    9.7136 C   0  0  0  0  0  0  0  0  0  0  0  0
   17.7961   18.9701    9.2540 C   0  0  0  0  0  0  0  0  0  0  0  0
   19.0726   18.9573    8.6931 C   0  0  0  0  0  0  0  0  0  0  0  0
   19.2684   18.6272    7.3477 C   0  0  0  0  0  0  0  0  0  0  0  0
   17.9814   18.5452    6.6139 N   0  0  0  0  0  0  0  0  0  0  0  0
   17.9108   19.0982    5.3272 C   0  0  0  0  0  0  0  0  0  0  0  0
   18.8292   19.8455    4.9749 O   0  0  0  0  0  0  0  0  0  0  0  0
   16.7327   18.9774    4.5699 C   0  0  0  0  0  0  0  0  0  0  0  0
   16.0643   20.2992    4.5039 N   0  0  0  0  0  0  0  0  0  0  0  0
   14.6820   20.4290    4.6466 C   0  0  0  0  0  0  0  0  0  0  0  0
   14.0009   19.4168    4.8172 O   0  0  0  0  0  0  0  0  0  0  0  0
   14.1144   21.7156    4.6379 C   0  0  0  0  0  0  0  0  0  0  0  0
   14.9960   22.6173    3.9528 O   0  0  0  0  0  0  0  0  0  0  0  0
   17.1958   18.1130    7.0206 H   0  0  0  0  0  0  0  0  0  0  0  0
   16.6092   21.1056    4.3557 H   0  0  0  0  0  0  0  0  0  0  0  0
   15.8568   22.6299    4.3997 H   0  0  0  0  0  0  0  0  0  0  0  0
   17.0741   18.4766    3.1570 C   0  0  0  0  0  0  0  0  0  0  0  0
   17.6417   17.0590    3.2418 C   0  0  0  0  0  0  0  0  0  0  0  0
   15.8221   18.4845    2.2734 C   0  0  0  0  0  0  0  0  0  0  0  0
   10.2089   24.4266    4.2036 N   0  0  0  0  0  0  0  0  0  0  0  0
    9.9876   24.7379    5.3010 N   0  0  0  0  0  0  0  0  0  0  0  0
   10.7752   25.6731    5.8672 C   0  0  0  0  0  0  0  0  0  0  0  0
   11.9914   25.7536    5.6531 O   0  0  0  0  0  0  0  0  0  0  0  0
    9.2455   24.3299    5.8029 H   0  0  0  0  0  0  0  0  0  0  0  0
   10.1777   26.1787    7.1863 C   0  0  0  0  0  0  0  0  0  0  0  0
   10.2873   25.1727    8.3324 C   0  0  0  0  0  0  0  0  0  0  0  0
   11.3065   24.0855    7.9783 C   0  0  0  0  0  0  0  0  0  0  0  0
   10.7065   25.8826    9.6188 C   0  0  0  0  0  0  0  0  0  0  0  0
    8.9178   24.5234    8.5337 C   0  0  0  0  0  0  0  0  0  0  0  0
    8.7639   26.5246    6.9886 N   0  0  0  0  0  0  0  0  0  0  0  0
    8.3181   27.7208    7.3575 C   0  0  0  0  0  0  0  0  0  0  0  0
    9.0898   28.4915    7.9292 O   0  0  0  0  0  0  0  0  0  0  0  0
    8.1481   25.8718    6.5837 H   0  0  0  0  0  0  0  0  0  0  0  0
    7.0185   28.0596    7.1248 O   0  0  0  0  0  0  0  0  0  0  0  0
    6.1216   27.0470    7.5855 C   0  0  0  0  0  0  0  0  0  0  0  0
    9.4368   25.0012    3.2732 C   0  0  0  0  0  0  0  0  0  0  0  0
    8.0647   24.7947    3.4044 C   0  0  0  0  0  0  0  0  0  0  0  0
    7.2233   25.8317    3.7882 C   0  0  0  0  0  0  0  0  0  0  0  0
    5.8471   25.6270    3.8679 C   0  0  0  0  0  0  0  0  0  0  0  0
    7.5288   23.5416    3.1381 C   0  0  0  0  0  0  0  0  0  0  0  0
    6.1620   23.3254    3.2679 C   0  0  0  0  0  0  0  0  0  0  0  0
    5.3148   24.3655    3.6268 C   0  0  0  0  0  0  0  0  0  0  0  0
    4.0008   24.1544    3.7020 C   0  0  0  0  0  0  0  0  0  0  0  0
    3.4845   22.9207    3.5172 C   0  0  0  0  0  0  0  0  0  0  0  0
    2.1448   22.8982    3.4893 C   0  0  0  0  0  0  0  0  0  0  0  0
    1.6216   24.4701    3.5001 S   0  0  0  0  0  0  0  0  0  0  0  0
    3.1273   25.1611    3.5684 C   0  0  0  0  0  0  0  0  0  0  0  0
  4  5  1  0  0  0
  4 10  2  0  0  0
  5  6  2  0  0  0
  6  7  1  0  0  0
  6  8  1  0  0  0
  7 22  1  0  0  0
  8  9  2  0  0  0
  9 10  1  0  0  0
 10 11  1  0  0  0
 11 12  1  0  0  0
 12 13  2  0  0  0
 13 14  1  0  0  0
 14 15  1  0  0  0
 15 16  1  0  0  0
 16 17  2  0  0  0
 16 18  1  0  0  0
 18 27  1  0  0  0
 18 19  1  0  0  0
 27 28  1  0  0  0
 27 29  1  0  0  0
 19 20  1  0  0  0
 20 21  2  0  0  0
 20 22  1  0  0  0
 22 23  1  0  0  0
 22  3  1  0  0  0
  3  2  1  0  0  0
  2  1  1  0  0  0
  1 30  1  0  0  0
 30 31  1  0  0  0
 30 46  1  0  0  0
 31 32  1  0  0  0
 32 33  2  0  0  0
 32 35  1  0  0  0
 35 36  1  0  0  0
 35 40  1  0  0  0
 36 37  1  0  0  0
 36 38  1  0  0  0
 36 39  1  0  0  0
 40 41  1  0  0  0
 41 42  2  0  0  0
 41 44  1  0  0  0
 44 45  1  0  0  0
 46 47  1  0  0  0
 47 48  1  0  0  0
 47 50  2  0  0  0
 48 49  2  0  0  0
 49 52  1  0  0  0
 50 51  1  0  0  0
 51 52  2  0  0  0
 52 53  1  0  0  0
 53 54  1  0  0  0
 53 57  1  0  0  0
 54 55  1  0  0  0
 55 56  2  0  0  0
 56 57  2  0  0  0
 15 24  1  0  0  0
 19 25  1  0  0  0
 23 26  1  0  0  0
 31 34  1  0  0  0
 40 43  1  0  0  0
M  END
> <minimizedAffinity>
-10.24355

$$$$
4CPW_V78_A_1101


 57 60  0  0  0  0  0  0  0  0999 V2000
   14.3964   21.9006    7.2725 C   0  0  0  0  0  0  0  0  0  0  0  0
   13.8568   22.6796    6.0735 C   0  0  0  0  0  0  0  0  0  0  0  0
   13.2512   23.9895    6.5733 C   0  0  0  0  0  0  0  0  0  0  0  0
    8.8332   22.6776    3.3840 C   0  0  0  0  0  0  0  0  0  0  0  0
   10.0600   22.6352    4.0341 C   0  0  0  0  0  0  0  0  0  0  0  0
   11.0415   23.5686    3.7161 C   0  0  0  0  0  0  0  0  0  0  0  0
   12.1990   23.6448    4.4785 C   0  0  0  0  0  0  0  0  0  0  0  0
   10.8105   24.5090    2.7228 C   0  0  0  0  0  0  0  0  0  0  0  0
    9.5841   24.5438    2.0717 C   0  0  0  0  0  0  0  0  0  0  0  0
    8.6319   23.5686    2.3338 C   0  0  0  0  0  0  0  0  0  0  0  0
    7.3834   23.6496    1.7264 C   0  0  0  0  0  0  0  0  0  0  0  0
    6.4483   23.9677    2.7070 C   0  0  0  0  0  0  0  0  0  0  0  0
    6.0254   25.2867    2.5469 C   0  0  0  0  0  0  0  0  0  0  0  0
    6.2278   26.2385    3.5523 C   0  0  0  0  0  0  0  0  0  0  0  0
    7.1150   25.7201    4.6227 N   0  0  0  0  0  0  0  0  0  0  0  0
    8.0987   26.5723    5.1445 C   0  0  0  0  0  0  0  0  0  0  0  0
    8.3485   27.6079    4.5189 O   0  0  0  0  0  0  0  0  0  0  0  0
    8.9112   26.1451    6.2091 C   0  0  0  0  0  0  0  0  0  0  0  0
   10.2798   25.8903    5.6990 N   0  0  0  0  0  0  0  0  0  0  0  0
   11.0166   24.7759    6.1029 C   0  0  0  0  0  0  0  0  0  0  0  0
   10.5203   23.9934    6.9148 O   0  0  0  0  0  0  0  0  0  0  0  0
   12.2841   24.5552    5.5353 C   0  0  0  0  0  0  0  0  0  0  0  0
   12.8063   25.7990    5.0453 O   0  0  0  0  0  0  0  0  0  0  0  0
    7.0155   24.8000    4.9584 H   0  0  0  0  0  0  0  0  0  0  0  0
   10.6790   26.5232    5.0592 H   0  0  0  0  0  0  0  0  0  0  0  0
   12.1988   26.1670    4.3847 H   0  0  0  0  0  0  0  0  0  0  0  0
    8.9382   27.2228    7.3052 C   0  0  0  0  0  0  0  0  0  0  0  0
    7.5121   27.4986    7.7841 C   0  0  0  0  0  0  0  0  0  0  0  0
    9.8033   26.7615    8.4829 C   0  0  0  0  0  0  0  0  0  0  0  0
   15.8327   21.6453    7.0949 N   0  0  0  0  0  0  0  0  0  0  0  0
   16.2427   21.2763    6.0722 N   0  0  0  0  0  0  0  0  0  0  0  0
   16.1027   19.9720    5.7648 C   0  0  0  0  0  0  0  0  0  0  0  0
   16.2034   19.0651    6.6007 O   0  0  0  0  0  0  0  0  0  0  0  0
   16.6801   21.8993    5.4479 H   0  0  0  0  0  0  0  0  0  0  0  0
   16.4183   19.7122    4.2865 C   0  0  0  0  0  0  0  0  0  0  0  0
   15.1730   19.5316    3.4180 C   0  0  0  0  0  0  0  0  0  0  0  0
   14.1466   18.6617    4.1501 C   0  0  0  0  0  0  0  0  0  0  0  0
   14.5616   20.8913    3.0836 C   0  0  0  0  0  0  0  0  0  0  0  0
   15.5876   18.8291    2.1249 C   0  0  0  0  0  0  0  0  0  0  0  0
   17.2632   18.5170    4.1636 N   0  0  0  0  0  0  0  0  0  0  0  0
   18.5217   18.5504    4.5888 C   0  0  0  0  0  0  0  0  0  0  0  0
   18.9774   19.6134    5.0117 O   0  0  0  0  0  0  0  0  0  0  0  0
   16.8980   17.6932    3.7672 H   0  0  0  0  0  0  0  0  0  0  0  0
   19.2881   17.4252    4.5230 O   0  0  0  0  0  0  0  0  0  0  0  0
   18.6897   16.3403    5.2351 C   0  0  0  0  0  0  0  0  0  0  0  0
   16.7318   22.2176    7.9051 C   0  0  0  0  0  0  0  0  0  0  0  0
   17.6409   21.3556    8.5157 C   0  0  0  0  0  0  0  0  0  0  0  0
   19.0020   21.4579    8.2559 C   0  0  0  0  0  0  0  0  0  0  0  0
   19.9068   20.6237    8.9099 C   0  0  0  0  0  0  0  0  0  0  0  0
   17.1843   20.3899    9.4030 C   0  0  0  0  0  0  0  0  0  0  0  0
   18.0830   19.5245   10.0155 C   0  0  0  0  0  0  0  0  0  0  0  0
   19.4463   19.6399    9.7777 C   0  0  0  0  0  0  0  0  0  0  0  0
   20.2999   18.8331   10.4080 C   0  0  0  0  0  0  0  0  0  0  0  0
   20.3762   17.5222   10.0943 C   0  0  0  0  0  0  0  0  0  0  0  0
   21.1799   16.8220   10.9065 C   0  0  0  0  0  0  0  0  0  0  0  0
   21.6361   17.8277   12.1414 S   0  0  0  0  0  0  0  0  0  0  0  0
   20.8145   19.1623   11.6002 C   0  0  0  0  0  0  0  0  0  0  0  0
  4  5  1  0  0  0
  4 10  2  0  0  0
  5  6  2  0  0  0
  6  7  1  0  0  0
  6  8  1  0  0  0
  7 22  1  0  0  0
  8  9  2  0  0  0
  9 10  1  0  0  0
 10 11  1  0  0  0
 11 12  1  0  0  0
 12 13  2  0  0  0
 13 14  1  0  0  0
 14 15  1  0  0  0
 15 16  1  0  0  0
 16 17  2  0  0  0
 16 18  1  0  0  0
 18 27  1  0  0  0
 18 19  1  0  0  0
 27 28  1  0  0  0
 27 29  1  0  0  0
 19 20  1  0  0  0
 20 21  2  0  0  0
 20 22  1  0  0  0
 22 23  1  0  0  0
 22  3  1  0  0  0
  3  2  1  0  0  0
  2  1  1  0  0  0
  1 30  1  0  0  0
 30 31  1  0  0  0
 30 46  1  0  0  0
 31 32  1  0  0  0
 32 33  2  0  0  0
 32 35  1  0  0  0
 35 36  1  0  0  0
 35 40  1  0  0  0
 36 37  1  0  0  0
 36 38  1  0  0  0
 36 39  1  0  0  0
 40 41  1  0  0  0
 41 42  2  0  0  0
 41 44  1  0  0  0
 44 45  1  0  0  0
 46 47  1  0  0  0
 47 48  1  0  0  0
 47 50  2  0  0  0
 48 49  2  0  0  0
 49 52  1  0  0  0
 50 51  1  0  0  0
 51 52  2  0  0  0
 52 53  1  0  0  0
 53 54  1  0  0  0
 53 57  1  0  0  0
 54 55  1  0  0  0
 55 56  2  0  0  0
 56 57  2  0  0  0
 15 24  1  0  0  0
 19 25  1  0  0  0
 23 26  1  0  0  0
 31 34  1  0  0  0
 40 43  1  0  0  0
M  END
> <minimizedAffinity>
-10.21614

$$$$
4CPW_V78_A_1101


 57 60  0  0  0  0  0  0  0  0999 V2000
   17.7718   20.2878    8.0222 C   0  0  0  0  0  0  0  0  0  0  0  0
   16.2836   20.4024    8.3506 C   0  0  0  0  0  0  0  0  0  0  0  0
   15.9650   21.8604    8.6752 C   0  0  0  0  0  0  0  0  0  0  0  0
   12.1748   20.8945    4.6612 C   0  0  0  0  0  0  0  0  0  0  0  0
   13.2558   20.7669    5.5241 C   0  0  0  0  0  0  0  0  0  0  0  0
   14.3145   21.6657    5.4409 C   0  0  0  0  0  0  0  0  0  0  0  0
   15.3109   21.6549    6.4072 C   0  0  0  0  0  0  0  0  0  0  0  0
   14.3095   22.6574    4.4708 C   0  0  0  0  0  0  0  0  0  0  0  0
   13.2288   22.7774    3.6065 C   0  0  0  0  0  0  0  0  0  0  0  0
   12.2078   21.8378    3.6383 C   0  0  0  0  0  0  0  0  0  0  0  0
   11.0990   22.0033    2.8152 C   0  0  0  0  0  0  0  0  0  0  0  0
   10.0098   22.3230    3.6205 C   0  0  0  0  0  0  0  0  0  0  0  0
    9.6752   23.6661    3.4518 C   0  0  0  0  0  0  0  0  0  0  0  0
    9.7222   24.5636    4.5241 C   0  0  0  0  0  0  0  0  0  0  0  0
   10.3730   23.9591    5.7126 N   0  0  0  0  0  0  0  0  0  0  0  0
   11.2736   24.7411    6.4499 C   0  0  0  0  0  0  0  0  0  0  0  0
   11.6755   25.7894    5.9345 O   0  0  0  0  0  0  0  0  0  0  0  0
   11.8556   24.2312    7.6235 C   0  0  0  0  0  0  0  0  0  0  0  0
   13.2847   23.9343    7.3633 N   0  0  0  0  0  0  0  0  0  0  0  0
   13.8897   22.7703    7.8397 C   0  0  0  0  0  0  0  0  0  0  0  0
   13.2207   21.9782    8.5052 O   0  0  0  0  0  0  0  0  0  0  0  0
   15.2316   22.5146    7.5061 C   0  0  0  0  0  0  0  0  0  0  0  0
   15.8835   23.7521    7.1847 O   0  0  0  0  0  0  0  0  0  0  0  0
   10.1773   23.0312    5.9772 H   0  0  0  0  0  0  0  0  0  0  0  0
   13.8205   24.5744    6.8412 H   0  0  0  0  0  0  0  0  0  0  0  0
   15.4248   24.1760    6.4425 H   0  0  0  0  0  0  0  0  0  0  0  0
   11.7183   25.2589    8.7586 C   0  0  0  0  0  0  0  0  0  0  0  0
   10.2638   25.7221    8.8538 C   0  0  0  0  0  0  0  0  0  0  0  0
   12.1566   24.6412   10.0907 C   0  0  0  0  0  0  0  0  0  0  0  0
   18.1233   18.8800    7.7891 N   0  0  0  0  0  0  0  0  0  0  0  0
   17.8207   18.3544    6.7980 N   0  0  0  0  0  0  0  0  0  0  0  0
   18.5498   18.6108    5.6944 C   0  0  0  0  0  0  0  0  0  0  0  0
   19.0258   19.7248    5.4416 O   0  0  0  0  0  0  0  0  0  0  0  0
   17.0530   17.7388    6.7656 H   0  0  0  0  0  0  0  0  0  0  0  0
   18.2133   17.6290    4.5652 C   0  0  0  0  0  0  0  0  0  0  0  0
   17.0221   18.0642    3.7112 C   0  0  0  0  0  0  0  0  0  0  0  0
   17.3745   17.9497    2.2250 C   0  0  0  0  0  0  0  0  0  0  0  0
   15.8029   17.1993    4.0271 C   0  0  0  0  0  0  0  0  0  0  0  0
   16.7068   19.5246    4.0361 C   0  0  0  0  0  0  0  0  0  0  0  0
   17.9360   16.3017    5.1298 N   0  0  0  0  0  0  0  0  0  0  0  0
   18.8830   15.3696    5.1239 C   0  0  0  0  0  0  0  0  0  0  0  0
   19.9565   15.6176    4.5739 O   0  0  0  0  0  0  0  0  0  0  0  0
   17.0506   16.1031    5.5118 H   0  0  0  0  0  0  0  0  0  0  0  0
   18.6415   14.1563    5.6959 O   0  0  0  0  0  0  0  0  0  0  0  0
   19.6089   13.1844    5.2935 C   0  0  0  0  0  0  0  0  0  0  0  0
   19.1296   18.3085    8.4621 C   0  0  0  0  0  0  0  0  0  0  0  0
   18.8336   17.8754    9.7533 C   0  0  0  0  0  0  0  0  0  0  0  0
   18.7005   18.7852   10.7951 C   0  0  0  0  0  0  0  0  0  0  0  0
   18.3553   18.3458   12.0718 C   0  0  0  0  0  0  0  0  0  0  0  0
   18.6583   16.5204   10.0016 C   0  0  0  0  0  0  0  0  0  0  0  0
   18.3648   16.0787   11.2863 C   0  0  0  0  0  0  0  0  0  0  0  0
   18.2062   16.9869   12.3248 C   0  0  0  0  0  0  0  0  0  0  0  0
   17.8790   16.5519   13.5416 C   0  0  0  0  0  0  0  0  0  0  0  0
   18.6095   16.8995   14.6225 C   0  0  0  0  0  0  0  0  0  0  0  0
   18.2346   16.2744   15.7471 C   0  0  0  0  0  0  0  0  0  0  0  0
   17.1077   15.1343   15.3294 S   0  0  0  0  0  0  0  0  0  0  0  0
   17.0956   15.4781   13.7074 C   0  0  0  0  0  0  0  0  0  0  0  0
  4  5  1  0  0  0
  4 10  2  0  0  0
  5  6  2  0  0  0
  6  7  1  0  0  0
  6  8  1  0  0  0
  7 22  1  0  0  0
  8  9  2  0  0  0
  9 10  1  0  0  0
 10 11  1  0  0  0
 11 12  1  0  0  0
 12 13  2  0  0  0
 13 14  1  0  0  0
 14 15  1  0  0  0
 15 16  1  0  0  0
 16 17  2  0  0  0
 16 18  1  0  0  0
 18 27  1  0  0  0
 18 19  1  0  0  0
 27 28  1  0  0  0
 27 29  1  0  0  0
 19 20  1  0  0  0
 20 21  2  0  0  0
 20 22  1  0  0  0
 22 23  1  0  0  0
 22  3  1  0  0  0
  3  2  1  0  0  0
  2  1  1  0  0  0
  1 30  1  0  0  0
 30 31  1  0  0  0
 30 46  1  0  0  0
 31 32  1  0  0  0
 32 33  2  0  0  0
 32 35  1  0  0  0
 35 36  1  0  0  0
 35 40  1  0  0  0
 36 37  1  0  0  0
 36 38  1  0  0  0
 36 39  1  0  0  0
 40 41  1  0  0  0
 41 42  2  0  0  0
 41 44  1  0  0  0
 44 45  1  0  0  0
 46 47  1  0  0  0
 47 48  1  0  0  0
 47 50  2  0  0  0
 48 49  2  0  0  0
 49 52  1  0  0  0
 50 51  1  0  0  0
 51 52  2  0  0  0
 52 53  1  0  0  0
 53 54  1  0  0  0
 53 57  1  0  0  0
 54 55  1  0  0  0
 55 56  2  0  0  0
 56 57  2  0  0  0
 15 24  1  0  0  0
 19 25  1  0  0  0
 23 26  1  0  0  0
 31 34  1  0  0  0
 40 43  1  0  0  0
M  END
> <minimizedAffinity>
-10.10435

$$$$
4CPW_V78_A_1101


 57 60  0  0  0  0  0  0  0  0999 V2000
   14.2862   22.6032    4.4400 C   0  0  0  0  0  0  0  0  0  0  0  0
   13.0505   21.7443    4.1734 C   0  0  0  0  0  0  0  0  0  0  0  0
   12.0184   22.5893    3.4296 C   0  0  0  0  0  0  0  0  0  0  0  0
   11.0453   26.0569    7.7238 C   0  0  0  0  0  0  0  0  0  0  0  0
   11.6240   25.1127    6.8854 C   0  0  0  0  0  0  0  0  0  0  0  0
   10.9739   23.9044    6.6550 C   0  0  0  0  0  0  0  0  0  0  0  0
   11.4540   23.0321    5.6878 C   0  0  0  0  0  0  0  0  0  0  0  0
    9.7748   23.6273    7.2951 C   0  0  0  0  0  0  0  0  0  0  0  0
    9.2029   24.5725    8.1370 C   0  0  0  0  0  0  0  0  0  0  0  0
    9.8849   25.7462    8.4267 C   0  0  0  0  0  0  0  0  0  0  0  0
    9.2759   26.7148    9.2174 C   0  0  0  0  0  0  0  0  0  0  0  0
    8.9735   27.8042    8.4057 C   0  0  0  0  0  0  0  0  0  0  0  0
    7.5969   27.8679    8.1934 C   0  0  0  0  0  0  0  0  0  0  0  0
    7.0580   27.7683    6.9060 C   0  0  0  0  0  0  0  0  0  0  0  0
    8.0860   27.3656    5.9147 N   0  0  0  0  0  0  0  0  0  0  0  0
    7.7387   26.4181    4.9412 C   0  0  0  0  0  0  0  0  0  0  0  0
    6.6947   25.7799    5.1112 O   0  0  0  0  0  0  0  0  0  0  0  0
    8.6595   26.0638    3.9398 C   0  0  0  0  0  0  0  0  0  0  0  0
    9.1600   24.6942    4.2079 N   0  0  0  0  0  0  0  0  0  0  0  0
   10.5085   24.3652    4.0616 C   0  0  0  0  0  0  0  0  0  0  0  0
   11.2982   25.2331    3.6863 O   0  0  0  0  0  0  0  0  0  0  0  0
   10.9322   23.0657    4.3919 C   0  0  0  0  0  0  0  0  0  0  0  0
    9.8150   22.1684    4.3099 O   0  0  0  0  0  0  0  0  0  0  0  0
    8.9902   27.7543    5.9399 H   0  0  0  0  0  0  0  0  0  0  0  0
    8.5251   23.9992    4.4964 H   0  0  0  0  0  0  0  0  0  0  0  0
    9.1188   22.4625    4.9180 H   0  0  0  0  0  0  0  0  0  0  0  0
    7.9779   26.1271    2.5633 C   0  0  0  0  0  0  0  0  0  0  0  0
    8.0723   27.5508    2.0126 C   0  0  0  0  0  0  0  0  0  0  0  0
    8.6474   25.1478    1.5932 C   0  0  0  0  0  0  0  0  0  0  0  0
   15.1738   21.9174    5.3897 N   0  0  0  0  0  0  0  0  0  0  0  0
   15.9533   21.1429    5.0123 N   0  0  0  0  0  0  0  0  0  0  0  0
   15.5164   19.9132    4.6771 C   0  0  0  0  0  0  0  0  0  0  0  0
   14.6140   19.3261    5.2874 O   0  0  0  0  0  0  0  0  0  0  0  0
   16.9064   21.3786    4.9395 H   0  0  0  0  0  0  0  0  0  0  0  0
   16.5981   19.1234    3.9298 C   0  0  0  0  0  0  0  0  0  0  0  0
   16.0604   18.3223    2.7436 C   0  0  0  0  0  0  0  0  0  0  0  0
   15.0408   17.2881    3.2302 C   0  0  0  0  0  0  0  0  0  0  0  0
   15.4100   19.2587    1.7264 C   0  0  0  0  0  0  0  0  0  0  0  0
   17.2325   17.5933    2.0861 C   0  0  0  0  0  0  0  0  0  0  0  0
   17.2718   18.2064    4.8586 N   0  0  0  0  0  0  0  0  0  0  0  0
   18.4016   18.5780    5.4514 C   0  0  0  0  0  0  0  0  0  0  0  0
   18.9016   19.6621    5.1496 O   0  0  0  0  0  0  0  0  0  0  0  0
   16.8874   17.3188    5.0415 H   0  0  0  0  0  0  0  0  0  0  0  0
   18.9971   17.7475    6.3533 O   0  0  0  0  0  0  0  0  0  0  0  0
   19.8291   18.4704    7.2628 C   0  0  0  0  0  0  0  0  0  0  0  0
   15.4212   22.4460    6.5945 C   0  0  0  0  0  0  0  0  0  0  0  0
   15.8488   21.5550    7.5771 C   0  0  0  0  0  0  0  0  0  0  0  0
   17.2030   21.3616    7.8206 C   0  0  0  0  0  0  0  0  0  0  0  0
   17.6186   20.5059    8.8390 C   0  0  0  0  0  0  0  0  0  0  0  0
   14.9120   20.8598    8.3304 C   0  0  0  0  0  0  0  0  0  0  0  0
   15.3287   19.9677    9.3114 C   0  0  0  0  0  0  0  0  0  0  0  0
   16.6806   19.7905    9.5747 C   0  0  0  0  0  0  0  0  0  0  0  0
   17.0636   18.9664   10.5499 C   0  0  0  0  0  0  0  0  0  0  0  0
   18.1935   19.1990   11.2513 C   0  0  0  0  0  0  0  0  0  0  0  0
   18.5112   18.2117   12.1000 C   0  0  0  0  0  0  0  0  0  0  0  0
   17.4673   16.9572   11.8152 S   0  0  0  0  0  0  0  0  0  0  0  0
   16.6002   17.7115   10.6201 C   0  0  0  0  0  0  0  0  0  0  0  0
  4  5  1  0  0  0
  4 10  2  0  0  0
  5  6  2  0  0  0
  6  7  1  0  0  0
  6  8  1  0  0  0
  7 22  1  0  0  0
  8  9  2  0  0  0
  9 10  1  0  0  0
 10 11  1  0  0  0
 11 12  1  0  0  0
 12 13  2  0  0  0
 13 14  1  0  0  0
 14 15  1  0  0  0
 15 16  1  0  0  0
 16 17  2  0  0  0
 16 18  1  0  0  0
 18 27  1  0  0  0
 18 19  1  0  0  0
 27 28  1  0  0  0
 27 29  1  0  0  0
 19 20  1  0  0  0
 20 21  2  0  0  0
 20 22  1  0  0  0
 22 23  1  0  0  0
 22  3  1  0  0  0
  3  2  1  0  0  0
  2  1  1  0  0  0
  1 30  1  0  0  0
 30 31  1  0  0  0
 30 46  1  0  0  0
 31 32  1  0  0  0
 32 33  2  0  0  0
 32 35  1  0  0  0
 35 36  1  0  0  0
 35 40  1  0  0  0
 36 37  1  0  0  0
 36 38  1  0  0  0
 36 39  1  0  0  0
 40 41  1  0  0  0
 41 42  2  0  0  0
 41 44  1  0  0  0
 44 45  1  0  0  0
 46 47  1  0  0  0
 47 48  1  0  0  0
 47 50  2  0  0  0
 48 49  2  0  0  0
 49 52  1  0  0  0
 50 51  1  0  0  0
 51 52  2  0  0  0
 52 53  1  0  0  0
 53 54  1  0  0  0
 53 57  1  0  0  0
 54 55  1  0  0  0
 55 56  2  0  0  0
 56 57  2  0  0  0
 15 24  1  0  0  0
 19 25  1  0  0  0
 23 26  1  0  0  0
 31 34  1  0  0  0
 40 43  1  0  0  0
M  END
> <minimizedAffinity>
-10.06500

$$$$
