2P3I_MNA_A_1000
  RCSB PDB12061706353D
Coordinates from PDB:2P3I:A:1000 Model:1 without hydrogens
 22 22  0  0  0  0            999 V2000
   44.3530   10.2540   18.3400   C 0  0  0  0  0  0  0  0  0  0  0  0
   44.2540   11.4040   19.3330   C 0  0  0  0  0  0  0  0  0  0  0  0
   45.2980   12.4930   19.0700   C 0  0  0  0  0  0  0  0  0  0  0  0
   44.9200   13.3860   17.8750   C 0  0  0  0  0  0  0  0  0  0  0  0
   43.4860   13.9030   17.9810   C 0  0  0  0  0  0  0  0  0  0  0  0
   42.5540   12.6980   18.1730   C 0  0  0  0  0  0  0  0  0  0  0  0
   41.0750   13.0440   18.3060   C 0  0  0  0  0  0  0  0  0  0  0  0
   40.2110   11.7860   18.4090   C 0  0  0  0  0  0  0  0  0  0  0  0
   38.7810   12.0980   18.0010   C 0  0  0  0  0  0  0  0  0  0  0  0
   42.4110   15.7830   16.7950   C 0  0  0  0  0  0  0  0  0  0  0  0
   42.0880   16.3480   15.4430   C 0  0  0  0  0  0  0  0  0  0  0  0
   43.7150    9.8010   21.1110   C 0  0  0  0  0  0  0  0  0  0  0  0
   43.1560   14.6710   16.7940   N 0  0  0  0  0  0  0  0  0  0  0  0
   45.4670    9.7070   18.1760   O 0  0  0  0  0  0  0  0  0  0  0  0
   43.3160    9.8570   17.7510   O 0  0  0  0  0  0  0  0  0  0  0  0
   44.4890   10.9120   20.6470   O 0  0  0  0  0  0  0  0  0  0  0  0
   45.8710   14.4590   17.7890   O 0  0  0  0  0  0  0  0  0  0  0  0
   42.9470   11.9830   19.3680   O 0  0  0  0  0  0  0  0  0  0  0  0
   40.8630   13.8420   19.4840   O 0  0  0  0  0  0  0  0  0  0  0  0
   40.7230   10.7440   17.5680   O 0  0  0  0  0  0  0  0  0  0  0  0
   37.9900   10.9220   18.2470   O 0  0  0  0  0  0  0  0  0  0  0  0
   42.0110   16.2990   17.8280   O 0  0  0  0  0  0  0  0  0  0  0  0
  1  2  1  0  0  0  0
  1 14  2  0  0  0  0
  1 15  1  0  0  0  0
  2  3  1  0  0  0  0
  2 16  1  0  0  0  0
  2 18  1  0  0  0  0
  3  4  1  0  0  0  0
  4  5  1  0  0  0  0
  4 17  1  0  0  0  0
  5  6  1  0  0  0  0
  5 13  1  0  0  0  0
  6  7  1  0  0  0  0
  6 18  1  0  0  0  0
  7  8  1  0  0  0  0
  7 19  1  0  0  0  0
  8  9  1  0  0  0  0
  8 20  1  0  0  0  0
  9 21  1  0  0  0  0
 10 11  1  0  0  0  0
 10 13  1  0  0  0  0
 10 22  2  0  0  0  0
 12 16  1  0  0  0  0
A    1
C1
A    2
C2
A    3
C3
A    4
C4
A    5
C5
A    6
C6
A    7
C7
A    8
C8
A    9
C9
A   10
C10
A   11
C11
A   12
C12
A   13
N5
A   14
O1A
A   15
O1B
A   16
O2
A   17
O4
A   18
O6
A   19
O7
A   20
O8
A   21
O9
A   22
O10
M  END
>  <InstanceId>
2P3I_MNA_A_1000

>  <ChemCompId>
MNA

>  <PdbId>
2P3I

>  <ChainId>
A

>  <ResidueNumber>
1000

>  <InsertionCode>


>  <Model>
1

>  <AltIds>


>  <MissingHeavyAtoms>
0

>  <ObservedFormula>
C12 N O9

>  <Name>
2-O-METHYL-5-N-ACETYL-ALPHA-D- NEURAMINIC ACID

>  <SystematicName>
(2R,4S,5R,6R)-5-acetamido-4-hydroxy-2-methoxy-6-[(1R,2R)-1,2,3-trihydroxypropyl]oxane-2-carboxylic acid

>  <Synonyms>


>  <Type>
NON-POLYMER

>  <Formula>
C12 H21 N O9

>  <MolecularWeight>
323.296

>  <ModifiedDate>
2011-06-04

>  <Parent>


>  <OneLetterCode>


>  <SubcomponentList>


>  <AmbiguousFlag>
N

>  <InChI>
InChI=1S/C12H21NO9/c1-5(15)13-8-6(16)3-12(21-2,11(19)20)22-10(8)9(18)7(17)4-14/h6-10,14,16-18H,3-4H2,1-2H3,(H,13,15)(H,19,20)/t6-,7+,8+,9+,10+,12+/m0/s1

>  <InChIKey>
NJRVVFURCKKXOD-MIDKXNQYSA-N

>  <SMILES>
CC(=O)N[C@@H]1[C@H](C[C@@](O[C@H]1[C@@H]([C@@H](CO)O)O)(C(=O)O)OC)O

$$$$
