3BGS_DIH_A_301


 24 26  0  0  0  0  0  0  0  0999 V2000
   13.6033   12.9508   58.2332 C   0  0  0  0  0  0  0  0  0  0  0  0
   14.2011   12.2621   57.0099 C   0  0  0  0  0  0  0  0  0  0  0  0
   15.2478   12.7377   56.2126 C   0  0  0  0  0  0  0  0  0  0  0  0
   15.5322   11.8360   55.2368 N   0  0  0  0  0  0  0  0  0  0  0  0
   14.7039   10.7416   55.3372 C   0  0  0  0  0  0  0  0  0  0  0  0
   14.5302    9.5394   54.6469 C   0  0  0  0  0  0  0  0  0  0  0  0
   15.2545    9.2307   53.6614 O   0  0  0  0  0  0  0  0  0  0  0  0
   13.5692    8.6553   55.0751 N   0  0  0  0  0  0  0  0  0  0  0  0
   12.7842    8.9299   56.1337 C   0  0  0  0  0  0  0  0  0  0  0  0
   12.9238   10.0412   56.8319 N   0  0  0  0  0  0  0  0  0  0  0  0
   13.8721   10.9466   56.4314 C   0  0  0  0  0  0  0  0  0  0  0  0
   16.2323   11.9496   54.5540 H   0  0  0  0  0  0  0  0  0  0  0  0
   13.4522    7.8025   54.5972 H   0  0  0  0  0  0  0  0  0  0  0  0
   15.9170   11.8269   60.8694 C   0  0  0  0  0  0  0  0  0  0  0  0
   14.8588   11.5831   59.8218 C   0  0  0  0  0  0  0  0  0  0  0  0
   15.5763   13.2103   61.4217 C   0  0  0  0  0  0  0  0  0  0  0  0
   14.7306   12.9927   62.5942 O   0  0  0  0  0  0  0  0  0  0  0  0
   14.8115   13.9235   60.2821 C   0  0  0  0  0  0  0  0  0  0  0  0
   14.7427   12.9229   59.1840 N   0  0  0  0  0  0  0  0  0  0  0  0
   13.9602   12.4596   62.3428 H   0  0  0  0  0  0  0  0  0  0  0  0
   15.5085   13.1710   58.5576 H   0  0  0  0  0  0  0  0  0  0  0  0
   17.0821   11.4320   58.7798 O   0  0  0  0  0  0  0  0  0  0  0  0
   17.2702   11.6983   60.1668 C   0  0  0  0  0  0  0  0  0  0  0  0
   17.9459   11.3527   58.3457 H   0  0  0  0  0  0  0  0  0  0  0  0
 22 23  1  0  0  0
 23 14  1  0  0  0
 14 15  1  0  0  0
 14 16  1  0  0  0
 15 19  1  0  0  0
 16 17  1  0  0  0
 16 18  1  0  0  0
 18 19  1  0  0  0
 19  1  1  0  0  0
  1  2  1  0  0  0
  2  3  2  0  0  0
  2 11  1  0  0  0
  3  4  1  0  0  0
  4  5  1  0  0  0
  5  6  1  0  0  0
  5 11  1  0  0  0
  6  7  2  0  0  0
  6  8  1  0  0  0
  8  9  1  0  0  0
  9 10  2  0  0  0
 10 11  1  0  0  0
 22 24  1  0  0  0
 17 20  1  0  0  0
 19 21  1  0  0  0
  4 12  1  0  0  0
  8 13  1  0  0  0
M  CHG 1  19   1
M  END
> <minimizedAffinity>
-8.27788

$$$$
3BGS_DIH_A_301


 24 26  0  0  0  0  0  0  0  0999 V2000
   15.7476   12.3526   58.6577 C   0  0  0  0  0  0  0  0  0  0  0  0
   15.4902   11.7950   57.2609 C   0  0  0  0  0  0  0  0  0  0  0  0
   16.2218   12.0766   56.1020 C   0  0  0  0  0  0  0  0  0  0  0  0
   15.7220   11.3677   55.0561 N   0  0  0  0  0  0  0  0  0  0  0  0
   14.6558   10.5983   55.4626 C   0  0  0  0  0  0  0  0  0  0  0  0
   13.7751    9.6948   54.8625 C   0  0  0  0  0  0  0  0  0  0  0  0
   13.8637    9.3959   53.6402 O   0  0  0  0  0  0  0  0  0  0  0  0
   12.8106    9.0898   55.6321 N   0  0  0  0  0  0  0  0  0  0  0  0
   12.6881    9.3605   56.9450 C   0  0  0  0  0  0  0  0  0  0  0  0
   13.5089   10.1892   57.5627 N   0  0  0  0  0  0  0  0  0  0  0  0
   14.4821   10.8118   56.8247 C   0  0  0  0  0  0  0  0  0  0  0  0
   16.0732   11.3999   54.1369 H   0  0  0  0  0  0  0  0  0  0  0  0
   12.1958    8.4443   55.2141 H   0  0  0  0  0  0  0  0  0  0  0  0
   12.6374   13.6478   60.1459 C   0  0  0  0  0  0  0  0  0  0  0  0
   13.9348   13.8160   59.3944 C   0  0  0  0  0  0  0  0  0  0  0  0
   12.9309   12.5253   61.1403 C   0  0  0  0  0  0  0  0  0  0  0  0
   13.3510   13.1707   62.3831 O   0  0  0  0  0  0  0  0  0  0  0  0
   14.0756   11.7062   60.4991 C   0  0  0  0  0  0  0  0  0  0  0  0
   14.3753   12.4050   59.2209 N   0  0  0  0  0  0  0  0  0  0  0  0
   14.1032   13.7566   62.2049 H   0  0  0  0  0  0  0  0  0  0  0  0
   13.8669   11.8779   58.5109 H   0  0  0  0  0  0  0  0  0  0  0  0
   10.3499   14.0312   59.4384 O   0  0  0  0  0  0  0  0  0  0  0  0
   11.5580   13.3551   59.1015 C   0  0  0  0  0  0  0  0  0  0  0  0
    9.6741   13.8382   58.7699 H   0  0  0  0  0  0  0  0  0  0  0  0
 22 23  1  0  0  0
 23 14  1  0  0  0
 14 15  1  0  0  0
 14 16  1  0  0  0
 15 19  1  0  0  0
 16 17  1  0  0  0
 16 18  1  0  0  0
 18 19  1  0  0  0
 19  1  1  0  0  0
  1  2  1  0  0  0
  2  3  2  0  0  0
  2 11  1  0  0  0
  3  4  1  0  0  0
  4  5  1  0  0  0
  5  6  1  0  0  0
  5 11  1  0  0  0
  6  7  2  0  0  0
  6  8  1  0  0  0
  8  9  1  0  0  0
  9 10  2  0  0  0
 10 11  1  0  0  0
 22 24  1  0  0  0
 17 20  1  0  0  0
 19 21  1  0  0  0
  4 12  1  0  0  0
  8 13  1  0  0  0
M  CHG 1  19   1
M  END
> <minimizedAffinity>
-7.95177

$$$$
3BGS_DIH_A_301


 24 26  0  0  0  0  0  0  0  0999 V2000
   12.6671   12.2895   58.5720 C   0  0  0  0  0  0  0  0  0  0  0  0
   13.6588   13.2309   59.2491 C   0  0  0  0  0  0  0  0  0  0  0  0
   13.4030   14.5320   59.6956 C   0  0  0  0  0  0  0  0  0  0  0  0
   14.5158   15.0472   60.2805 N   0  0  0  0  0  0  0  0  0  0  0  0
   15.5428   14.1316   60.2498 C   0  0  0  0  0  0  0  0  0  0  0  0
   16.8708   14.0883   60.6817 C   0  0  0  0  0  0  0  0  0  0  0  0
   17.4039   15.0606   61.2832 O   0  0  0  0  0  0  0  0  0  0  0  0
   17.6036   12.9439   60.4771 N   0  0  0  0  0  0  0  0  0  0  0  0
   17.0738   11.8725   59.8577 C   0  0  0  0  0  0  0  0  0  0  0  0
   15.8182   11.8557   59.4513 N   0  0  0  0  0  0  0  0  0  0  0  0
   15.0588   12.9817   59.6379 C   0  0  0  0  0  0  0  0  0  0  0  0
   14.5787   15.9487   60.6713 H   0  0  0  0  0  0  0  0  0  0  0  0
   18.5362   12.9067   60.7904 H   0  0  0  0  0  0  0  0  0  0  0  0
   14.3358   11.0723   55.5225 C   0  0  0  0  0  0  0  0  0  0  0  0
   13.5587   12.1022   56.3048 C   0  0  0  0  0  0  0  0  0  0  0  0
   13.8342    9.7375   56.0716 C   0  0  0  0  0  0  0  0  0  0  0  0
   12.7456    9.3102   55.1943 O   0  0  0  0  0  0  0  0  0  0  0  0
   13.3348   10.0506   57.5015 C   0  0  0  0  0  0  0  0  0  0  0  0
   13.5540   11.5118   57.6709 N   0  0  0  0  0  0  0  0  0  0  0  0
   12.0715   10.0064   55.1528 H   0  0  0  0  0  0  0  0  0  0  0  0
   14.4368   11.5855   58.1766 H   0  0  0  0  0  0  0  0  0  0  0  0
   15.9731   12.6519   56.3616 O   0  0  0  0  0  0  0  0  0  0  0  0
   15.8188   11.3763   55.7459 C   0  0  0  0  0  0  0  0  0  0  0  0
   16.9163   12.8332   56.4979 H   0  0  0  0  0  0  0  0  0  0  0  0
 22 23  1  0  0  0
 23 14  1  0  0  0
 14 15  1  0  0  0
 14 16  1  0  0  0
 15 19  1  0  0  0
 16 17  1  0  0  0
 16 18  1  0  0  0
 18 19  1  0  0  0
 19  1  1  0  0  0
  1  2  1  0  0  0
  2  3  2  0  0  0
  2 11  1  0  0  0
  3  4  1  0  0  0
  4  5  1  0  0  0
  5  6  1  0  0  0
  5 11  1  0  0  0
  6  7  2  0  0  0
  6  8  1  0  0  0
  8  9  1  0  0  0
  9 10  2  0  0  0
 10 11  1  0  0  0
 22 24  1  0  0  0
 17 20  1  0  0  0
 19 21  1  0  0  0
  4 12  1  0  0  0
  8 13  1  0  0  0
M  CHG 1  19   1
M  END
> <minimizedAffinity>
-7.54949

$$$$
3BGS_DIH_A_301


 24 26  0  0  0  0  0  0  0  0999 V2000
   15.8552   12.4085   59.9277 C   0  0  0  0  0  0  0  0  0  0  0  0
   15.1445   13.5365   60.6697 C   0  0  0  0  0  0  0  0  0  0  0  0
   15.7117   14.4057   61.6080 C   0  0  0  0  0  0  0  0  0  0  0  0
   14.7824   15.3039   62.0272 N   0  0  0  0  0  0  0  0  0  0  0  0
   13.5781   15.0775   61.4006 C   0  0  0  0  0  0  0  0  0  0  0  0
   12.3054   15.6534   61.4199 C   0  0  0  0  0  0  0  0  0  0  0  0
   12.0426   16.6557   62.1395 O   0  0  0  0  0  0  0  0  0  0  0  0
   11.3250   15.1364   60.6074 N   0  0  0  0  0  0  0  0  0  0  0  0
   11.5614   14.0802   59.8069 C   0  0  0  0  0  0  0  0  0  0  0  0
   12.7521   13.5152   59.7363 N   0  0  0  0  0  0  0  0  0  0  0  0
   13.7531   14.0048   60.5348 C   0  0  0  0  0  0  0  0  0  0  0  0
   14.9473   16.0163   62.6863 H   0  0  0  0  0  0  0  0  0  0  0  0
   10.4304   15.5473   60.6109 H   0  0  0  0  0  0  0  0  0  0  0  0
   14.5742   11.2923   56.6599 C   0  0  0  0  0  0  0  0  0  0  0  0
   15.1626   11.0394   58.0261 C   0  0  0  0  0  0  0  0  0  0  0  0
   15.1898   12.6247   56.2349 C   0  0  0  0  0  0  0  0  0  0  0  0
   16.3836   12.3009   55.4555 O   0  0  0  0  0  0  0  0  0  0  0  0
   15.5411   13.3476   57.5563 C   0  0  0  0  0  0  0  0  0  0  0  0
   15.1368   12.3999   58.6289 N   0  0  0  0  0  0  0  0  0  0  0  0
   16.9709   11.7370   55.9828 H   0  0  0  0  0  0  0  0  0  0  0  0
   14.2166   12.7227   58.9279 H   0  0  0  0  0  0  0  0  0  0  0  0
   12.7082   11.0397   58.1876 O   0  0  0  0  0  0  0  0  0  0  0  0
   13.0531   11.2772   56.8257 C   0  0  0  0  0  0  0  0  0  0  0  0
   11.7426   11.0324   58.2801 H   0  0  0  0  0  0  0  0  0  0  0  0
 22 23  1  0  0  0
 23 14  1  0  0  0
 14 15  1  0  0  0
 14 16  1  0  0  0
 15 19  1  0  0  0
 16 17  1  0  0  0
 16 18  1  0  0  0
 18 19  1  0  0  0
 19  1  1  0  0  0
  1  2  1  0  0  0
  2  3  2  0  0  0
  2 11  1  0  0  0
  3  4  1  0  0  0
  4  5  1  0  0  0
  5  6  1  0  0  0
  5 11  1  0  0  0
  6  7  2  0  0  0
  6  8  1  0  0  0
  8  9  1  0  0  0
  9 10  2  0  0  0
 10 11  1  0  0  0
 22 24  1  0  0  0
 17 20  1  0  0  0
 19 21  1  0  0  0
  4 12  1  0  0  0
  8 13  1  0  0  0
M  CHG 1  19   1
M  END
> <minimizedAffinity>
-7.25056

$$$$
3BGS_DIH_A_301


 24 26  0  0  0  0  0  0  0  0999 V2000
   14.6361   11.6182   59.5995 C   0  0  0  0  0  0  0  0  0  0  0  0
   14.9452   11.4191   58.1186 C   0  0  0  0  0  0  0  0  0  0  0  0
   16.0114   11.9785   57.4061 C   0  0  0  0  0  0  0  0  0  0  0  0
   15.9844   11.5459   56.1183 N   0  0  0  0  0  0  0  0  0  0  0  0
   14.9198   10.6968   55.9187 C   0  0  0  0  0  0  0  0  0  0  0  0
   14.3982    9.9651   54.8489 C   0  0  0  0  0  0  0  0  0  0  0  0
   14.9429    9.9751   53.7112 O   0  0  0  0  0  0  0  0  0  0  0  0
   13.2838    9.1868   55.0514 N   0  0  0  0  0  0  0  0  0  0  0  0
   12.6779    9.1271   56.2520 C   0  0  0  0  0  0  0  0  0  0  0  0
   13.1446    9.7818   57.2987 N   0  0  0  0  0  0  0  0  0  0  0  0
   14.2541   10.5695   57.1318 C   0  0  0  0  0  0  0  0  0  0  0  0
   16.6348   11.8036   55.4256 H   0  0  0  0  0  0  0  0  0  0  0  0
   12.9207    8.6615   54.3021 H   0  0  0  0  0  0  0  0  0  0  0  0
   12.7699   14.5843   60.7331 C   0  0  0  0  0  0  0  0  0  0  0  0
   13.7746   13.4764   60.9320 C   0  0  0  0  0  0  0  0  0  0  0  0
   11.7039   13.9577   59.8353 C   0  0  0  0  0  0  0  0  0  0  0  0
   10.6690   13.4319   60.7241 O   0  0  0  0  0  0  0  0  0  0  0  0
   12.4335   12.8306   59.0676 C   0  0  0  0  0  0  0  0  0  0  0  0
   13.8306   12.8647   59.5763 N   0  0  0  0  0  0  0  0  0  0  0  0
   11.0699   12.8188   61.3599 H   0  0  0  0  0  0  0  0  0  0  0  0
   14.3477   13.4025   58.8807 H   0  0  0  0  0  0  0  0  0  0  0  0
   12.7617   16.9626   60.2598 O   0  0  0  0  0  0  0  0  0  0  0  0
   13.5339   15.7709   60.1417 C   0  0  0  0  0  0  0  0  0  0  0  0
   13.2558   17.7068   59.8820 H   0  0  0  0  0  0  0  0  0  0  0  0
 22 23  1  0  0  0
 23 14  1  0  0  0
 14 15  1  0  0  0
 14 16  1  0  0  0
 15 19  1  0  0  0
 16 17  1  0  0  0
 16 18  1  0  0  0
 18 19  1  0  0  0
 19  1  1  0  0  0
  1  2  1  0  0  0
  2  3  2  0  0  0
  2 11  1  0  0  0
  3  4  1  0  0  0
  4  5  1  0  0  0
  5  6  1  0  0  0
  5 11  1  0  0  0
  6  7  2  0  0  0
  6  8  1  0  0  0
  8  9  1  0  0  0
  9 10  2  0  0  0
 10 11  1  0  0  0
 22 24  1  0  0  0
 17 20  1  0  0  0
 19 21  1  0  0  0
  4 12  1  0  0  0
  8 13  1  0  0  0
M  CHG 1  19   1
M  END
> <minimizedAffinity>
-7.11769

$$$$
3BGS_DIH_A_301


 24 26  0  0  0  0  0  0  0  0999 V2000
   15.3332   13.3733   58.0943 C   0  0  0  0  0  0  0  0  0  0  0  0
   14.4377   12.1764   57.7880 C   0  0  0  0  0  0  0  0  0  0  0  0
   13.3351   11.7464   58.5344 C   0  0  0  0  0  0  0  0  0  0  0  0
   12.7621   10.6704   57.9345 N   0  0  0  0  0  0  0  0  0  0  0  0
   13.4438   10.3410   56.7853 C   0  0  0  0  0  0  0  0  0  0  0  0
   13.3296    9.3716   55.7857 C   0  0  0  0  0  0  0  0  0  0  0  0
   12.4039    8.5147   55.7965 O   0  0  0  0  0  0  0  0  0  0  0  0
   14.2278    9.3745   54.7456 N   0  0  0  0  0  0  0  0  0  0  0  0
   15.2213   10.2804   54.6785 C   0  0  0  0  0  0  0  0  0  0  0  0
   15.3583   11.2293   55.5856 N   0  0  0  0  0  0  0  0  0  0  0  0
   14.4803   11.2548   56.6382 C   0  0  0  0  0  0  0  0  0  0  0  0
   11.9706   10.1935   58.2742 H   0  0  0  0  0  0  0  0  0  0  0  0
   14.1429    8.6994   54.0341 H   0  0  0  0  0  0  0  0  0  0  0  0
   15.0193   14.4621   61.5988 C   0  0  0  0  0  0  0  0  0  0  0  0
   14.7064   14.5755   60.1271 C   0  0  0  0  0  0  0  0  0  0  0  0
   16.4623   13.9607   61.6307 C   0  0  0  0  0  0  0  0  0  0  0  0
   17.3119   15.1462   61.7320 O   0  0  0  0  0  0  0  0  0  0  0  0
   16.6626   13.2194   60.2881 C   0  0  0  0  0  0  0  0  0  0  0  0
   15.3631   13.3579   59.5782 N   0  0  0  0  0  0  0  0  0  0  0  0
   17.1126   15.7503   60.9997 H   0  0  0  0  0  0  0  0  0  0  0  0
   14.8723   12.4826   59.7610 H   0  0  0  0  0  0  0  0  0  0  0  0
   12.7383   13.6460   61.4939 O   0  0  0  0  0  0  0  0  0  0  0  0
   13.9692   13.5265   62.2016 C   0  0  0  0  0  0  0  0  0  0  0  0
   12.0813   13.0489   61.8847 H   0  0  0  0  0  0  0  0  0  0  0  0
 22 23  1  0  0  0
 23 14  1  0  0  0
 14 15  1  0  0  0
 14 16  1  0  0  0
 15 19  1  0  0  0
 16 17  1  0  0  0
 16 18  1  0  0  0
 18 19  1  0  0  0
 19  1  1  0  0  0
  1  2  1  0  0  0
  2  3  2  0  0  0
  2 11  1  0  0  0
  3  4  1  0  0  0
  4  5  1  0  0  0
  5  6  1  0  0  0
  5 11  1  0  0  0
  6  7  2  0  0  0
  6  8  1  0  0  0
  8  9  1  0  0  0
  9 10  2  0  0  0
 10 11  1  0  0  0
 22 24  1  0  0  0
 17 20  1  0  0  0
 19 21  1  0  0  0
  4 12  1  0  0  0
  8 13  1  0  0  0
M  CHG 1  19   1
M  END
> <minimizedAffinity>
-7.09096

$$$$
3BGS_DIH_A_301


 24 26  0  0  0  0  0  0  0  0999 V2000
   12.5480   12.3203   59.2491 C   0  0  0  0  0  0  0  0  0  0  0  0
   13.1837   12.9560   60.4820 C   0  0  0  0  0  0  0  0  0  0  0  0
   13.9854   12.3144   61.4323 C   0  0  0  0  0  0  0  0  0  0  0  0
   14.4005   13.2091   62.3668 N   0  0  0  0  0  0  0  0  0  0  0  0
   13.9033   14.4616   62.0874 C   0  0  0  0  0  0  0  0  0  0  0  0
   13.9857   15.7324   62.6620 C   0  0  0  0  0  0  0  0  0  0  0  0
   14.6660   15.9462   63.7025 O   0  0  0  0  0  0  0  0  0  0  0  0
   13.3377   16.7829   62.0576 N   0  0  0  0  0  0  0  0  0  0  0  0
   12.6153   16.6097   60.9349 C   0  0  0  0  0  0  0  0  0  0  0  0
   12.5249   15.4342   60.3417 N   0  0  0  0  0  0  0  0  0  0  0  0
   13.1577   14.3637   60.9188 C   0  0  0  0  0  0  0  0  0  0  0  0
   14.9759   12.9920   63.1355 H   0  0  0  0  0  0  0  0  0  0  0  0
   13.4033   17.6816   62.4542 H   0  0  0  0  0  0  0  0  0  0  0  0
   15.3154   11.2236   57.0800 C   0  0  0  0  0  0  0  0  0  0  0  0
   14.0659   10.9735   57.8879 C   0  0  0  0  0  0  0  0  0  0  0  0
   16.0365   12.3289   57.8503 C   0  0  0  0  0  0  0  0  0  0  0  0
   16.9764   11.6626   58.7504 O   0  0  0  0  0  0  0  0  0  0  0  0
   14.9242   13.0739   58.6247 C   0  0  0  0  0  0  0  0  0  0  0  0
   13.6698   12.3542   58.2778 N   0  0  0  0  0  0  0  0  0  0  0  0
   16.4967   11.0310   59.3088 H   0  0  0  0  0  0  0  0  0  0  0  0
   13.2488   12.9095   57.5329 H   0  0  0  0  0  0  0  0  0  0  0  0
   13.4805   11.2643   55.4952 O   0  0  0  0  0  0  0  0  0  0  0  0
   14.8600   11.5791   55.6631 C   0  0  0  0  0  0  0  0  0  0  0  0
   13.2038   11.4937   54.5943 H   0  0  0  0  0  0  0  0  0  0  0  0
 22 23  1  0  0  0
 23 14  1  0  0  0
 14 15  1  0  0  0
 14 16  1  0  0  0
 15 19  1  0  0  0
 16 17  1  0  0  0
 16 18  1  0  0  0
 18 19  1  0  0  0
 19  1  1  0  0  0
  1  2  1  0  0  0
  2  3  2  0  0  0
  2 11  1  0  0  0
  3  4  1  0  0  0
  4  5  1  0  0  0
  5  6  1  0  0  0
  5 11  1  0  0  0
  6  7  2  0  0  0
  6  8  1  0  0  0
  8  9  1  0  0  0
  9 10  2  0  0  0
 10 11  1  0  0  0
 22 24  1  0  0  0
 17 20  1  0  0  0
 19 21  1  0  0  0
  4 12  1  0  0  0
  8 13  1  0  0  0
M  CHG 1  19   1
M  END
> <minimizedAffinity>
-7.05075

$$$$
3BGS_DIH_A_301


 24 26  0  0  0  0  0  0  0  0999 V2000
   15.2600   13.8249   59.2620 C   0  0  0  0  0  0  0  0  0  0  0  0
   14.5634   12.6590   58.5665 C   0  0  0  0  0  0  0  0  0  0  0  0
   13.4331   11.9710   59.0210 C   0  0  0  0  0  0  0  0  0  0  0  0
   13.0775   11.0193   58.1189 N   0  0  0  0  0  0  0  0  0  0  0  0
   13.9381   11.0293   57.0449 C   0  0  0  0  0  0  0  0  0  0  0  0
   14.0732   10.3148   55.8520 C   0  0  0  0  0  0  0  0  0  0  0  0
   13.2645    9.4012   55.5317 O   0  0  0  0  0  0  0  0  0  0  0  0
   15.0924   10.6401   54.9894 N   0  0  0  0  0  0  0  0  0  0  0  0
   15.9693   11.6202   55.2768 C   0  0  0  0  0  0  0  0  0  0  0  0
   15.8711   12.3386   56.3796 N   0  0  0  0  0  0  0  0  0  0  0  0
   14.8667   12.0397   57.2636 C   0  0  0  0  0  0  0  0  0  0  0  0
   12.3120   10.4084   58.2193 H   0  0  0  0  0  0  0  0  0  0  0  0
   15.1832   10.1455   54.1430 H   0  0  0  0  0  0  0  0  0  0  0  0
   12.7867   15.9070   61.0264 C   0  0  0  0  0  0  0  0  0  0  0  0
   13.6386   15.5625   59.8297 C   0  0  0  0  0  0  0  0  0  0  0  0
   13.6411   15.4842   62.2205 C   0  0  0  0  0  0  0  0  0  0  0  0
   14.3833   16.6714   62.6414 O   0  0  0  0  0  0  0  0  0  0  0  0
   14.5778   14.3800   61.6767 C   0  0  0  0  0  0  0  0  0  0  0  0
   14.2274   14.2575   60.2365 N   0  0  0  0  0  0  0  0  0  0  0  0
   14.8876   17.0206   61.8901 H   0  0  0  0  0  0  0  0  0  0  0  0
   13.5897   13.4628   60.1907 H   0  0  0  0  0  0  0  0  0  0  0  0
   11.2745   14.8018   59.4863 O   0  0  0  0  0  0  0  0  0  0  0  0
   11.4607   15.1635   60.8519 C   0  0  0  0  0  0  0  0  0  0  0  0
   10.4317   14.3317   59.3884 H   0  0  0  0  0  0  0  0  0  0  0  0
 22 23  1  0  0  0
 23 14  1  0  0  0
 14 15  1  0  0  0
 14 16  1  0  0  0
 15 19  1  0  0  0
 16 17  1  0  0  0
 16 18  1  0  0  0
 18 19  1  0  0  0
 19  1  1  0  0  0
  1  2  1  0  0  0
  2  3  2  0  0  0
  2 11  1  0  0  0
  3  4  1  0  0  0
  4  5  1  0  0  0
  5  6  1  0  0  0
  5 11  1  0  0  0
  6  7  2  0  0  0
  6  8  1  0  0  0
  8  9  1  0  0  0
  9 10  2  0  0  0
 10 11  1  0  0  0
 22 24  1  0  0  0
 17 20  1  0  0  0
 19 21  1  0  0  0
  4 12  1  0  0  0
  8 13  1  0  0  0
M  CHG 1  19   1
M  END
> <minimizedAffinity>
-7.00171

$$$$
3BGS_DIH_A_301


 24 26  0  0  0  0  0  0  0  0999 V2000
   12.4316   12.3046   58.7257 C   0  0  0  0  0  0  0  0  0  0  0  0
   13.1907   12.8663   59.9242 C   0  0  0  0  0  0  0  0  0  0  0  0
   14.1302   12.1890   60.7092 C   0  0  0  0  0  0  0  0  0  0  0  0
   14.6229   13.0223   61.6625 N   0  0  0  0  0  0  0  0  0  0  0  0
   14.0448   14.2670   61.5585 C   0  0  0  0  0  0  0  0  0  0  0  0
   14.1476   15.4878   62.2300 C   0  0  0  0  0  0  0  0  0  0  0  0
   14.9437   15.6481   63.1952 O   0  0  0  0  0  0  0  0  0  0  0  0
   13.3875   16.5509   61.8049 N   0  0  0  0  0  0  0  0  0  0  0  0
   12.5377   16.4358   60.7672 C   0  0  0  0  0  0  0  0  0  0  0  0
   12.4208   15.3109   60.0868 N   0  0  0  0  0  0  0  0  0  0  0  0
   13.1633   14.2295   60.4849 C   0  0  0  0  0  0  0  0  0  0  0  0
   15.2983   12.7712   62.3333 H   0  0  0  0  0  0  0  0  0  0  0  0
   13.4661   17.4154   62.2693 H   0  0  0  0  0  0  0  0  0  0  0  0
   14.9501   11.6671   56.1149 C   0  0  0  0  0  0  0  0  0  0  0  0
   14.0187   12.5689   56.8868 C   0  0  0  0  0  0  0  0  0  0  0  0
   14.2146   10.3284   56.0720 C   0  0  0  0  0  0  0  0  0  0  0  0
   13.4596   10.3091   54.8203 O   0  0  0  0  0  0  0  0  0  0  0  0
   13.2844   10.3384   57.3077 C   0  0  0  0  0  0  0  0  0  0  0  0
   13.5210   11.6573   57.9528 N   0  0  0  0  0  0  0  0  0  0  0  0
   12.8813   11.0868   54.7795 H   0  0  0  0  0  0  0  0  0  0  0  0
   14.1860   11.4649   58.7020 H   0  0  0  0  0  0  0  0  0  0  0  0
   16.2084   12.5156   58.0062 O   0  0  0  0  0  0  0  0  0  0  0  0
   16.2877   11.6756   56.8580 C   0  0  0  0  0  0  0  0  0  0  0  0
   17.0612   12.5128   58.4684 H   0  0  0  0  0  0  0  0  0  0  0  0
 22 23  1  0  0  0
 23 14  1  0  0  0
 14 15  1  0  0  0
 14 16  1  0  0  0
 15 19  1  0  0  0
 16 17  1  0  0  0
 16 18  1  0  0  0
 18 19  1  0  0  0
 19  1  1  0  0  0
  1  2  1  0  0  0
  2  3  2  0  0  0
  2 11  1  0  0  0
  3  4  1  0  0  0
  4  5  1  0  0  0
  5  6  1  0  0  0
  5 11  1  0  0  0
  6  7  2  0  0  0
  6  8  1  0  0  0
  8  9  1  0  0  0
  9 10  2  0  0  0
 10 11  1  0  0  0
 22 24  1  0  0  0
 17 20  1  0  0  0
 19 21  1  0  0  0
  4 12  1  0  0  0
  8 13  1  0  0  0
M  CHG 1  19   1
M  END
> <minimizedAffinity>
-6.90314

$$$$
3BGS_DIH_A_301


 24 26  0  0  0  0  0  0  0  0999 V2000
   12.6186   13.9302   60.0852 C   0  0  0  0  0  0  0  0  0  0  0  0
   13.0216   15.0190   61.0753 C   0  0  0  0  0  0  0  0  0  0  0  0
   12.5416   16.3327   61.1122 C   0  0  0  0  0  0  0  0  0  0  0  0
   13.1008   17.0000   62.1553 N   0  0  0  0  0  0  0  0  0  0  0  0
   13.9620   16.1780   62.8458 C   0  0  0  0  0  0  0  0  0  0  0  0
   14.7904   16.2945   63.9647 C   0  0  0  0  0  0  0  0  0  0  0  0
   14.8643   17.3665   64.6256 O   0  0  0  0  0  0  0  0  0  0  0  0
   15.5158   15.2023   64.3763 N   0  0  0  0  0  0  0  0  0  0  0  0
   15.4559   14.0305   63.7164 C   0  0  0  0  0  0  0  0  0  0  0  0
   14.6721   13.8634   62.6677 N   0  0  0  0  0  0  0  0  0  0  0  0
   13.9356   14.9332   62.2288 C   0  0  0  0  0  0  0  0  0  0  0  0
   12.9159   17.9394   62.3850 H   0  0  0  0  0  0  0  0  0  0  0  0
   16.0918   15.2785   65.1711 H   0  0  0  0  0  0  0  0  0  0  0  0
   15.8612   12.7125   58.8328 C   0  0  0  0  0  0  0  0  0  0  0  0
   14.7667   13.7459   58.9353 C   0  0  0  0  0  0  0  0  0  0  0  0
   15.1177   11.3799   58.9117 C   0  0  0  0  0  0  0  0  0  0  0  0
   14.8560   10.9680   57.5336 O   0  0  0  0  0  0  0  0  0  0  0  0
   13.8116   11.6904   59.6798 C   0  0  0  0  0  0  0  0  0  0  0  0
   13.8748   13.1485   59.9661 N   0  0  0  0  0  0  0  0  0  0  0  0
   14.3726   11.6711   57.0722 H   0  0  0  0  0  0  0  0  0  0  0  0
   14.2193   13.2108   60.9241 H   0  0  0  0  0  0  0  0  0  0  0  0
   16.7213   14.3531   60.3976 O   0  0  0  0  0  0  0  0  0  0  0  0
   16.8466   13.0005   59.9675 C   0  0  0  0  0  0  0  0  0  0  0  0
   17.3502   14.5235   61.1162 H   0  0  0  0  0  0  0  0  0  0  0  0
 22 23  1  0  0  0
 23 14  1  0  0  0
 14 15  1  0  0  0
 14 16  1  0  0  0
 15 19  1  0  0  0
 16 17  1  0  0  0
 16 18  1  0  0  0
 18 19  1  0  0  0
 19  1  1  0  0  0
  1  2  1  0  0  0
  2  3  2  0  0  0
  2 11  1  0  0  0
  3  4  1  0  0  0
  4  5  1  0  0  0
  5  6  1  0  0  0
  5 11  1  0  0  0
  6  7  2  0  0  0
  6  8  1  0  0  0
  8  9  1  0  0  0
  9 10  2  0  0  0
 10 11  1  0  0  0
 22 24  1  0  0  0
 17 20  1  0  0  0
 19 21  1  0  0  0
  4 12  1  0  0  0
  8 13  1  0  0  0
M  CHG 1  19   1
M  END
> <minimizedAffinity>
-6.87827

$$$$
