3BGS_DIH_A_301
  RCSB PDB12061708013D
Coordinates from PDB:3BGS:A:301 Model:1 without hydrogens
 19 21  0  0  0  0            999 V2000
   17.4940   12.1340   59.8980   O 0  0  0  0  0  0  0  0  0  0  0  0
   16.7320   10.9600   60.1650   C 0  0  0  0  0  0  0  0  0  0  0  0
   15.3500   11.3370   60.7030   C 0  0  0  0  0  0  0  0  0  0  0  0
   14.4050   11.3140   59.5270   C 0  0  0  0  0  0  0  0  0  0  0  0
   15.2100   12.7530   61.2600   C 0  0  0  0  0  0  0  0  0  0  0  0
   14.1980   12.6870   62.3130   O 0  0  0  0  0  0  0  0  0  0  0  0
   14.7430   13.6140   60.0630   C 0  0  0  0  0  0  0  0  0  0  0  0
   14.6250   12.6590   58.9290   N 0  3  0  0  0  0  0  0  0  0  0  0
   13.6400   12.9170   57.8490   C 0  0  0  0  0  0  0  0  0  0  0  0
   14.2510   12.1500   56.6800   C 0  0  0  0  0  0  0  0  0  0  0  0
   15.3140   12.5680   55.8720   C 0  0  0  0  0  0  0  0  0  0  0  0
   15.6060   11.6060   54.9580   N 0  0  0  0  0  0  0  0  0  0  0  0
   14.7670   10.5260   55.1120   C 0  0  0  0  0  0  0  0  0  0  0  0
   14.5940    9.2850   54.4940   C 0  0  0  0  0  0  0  0  0  0  0  0
   15.3310    8.9110   53.5410   O 0  0  0  0  0  0  0  0  0  0  0  0
   13.6190    8.4360   54.9600   N 0  0  0  0  0  0  0  0  0  0  0  0
   12.8200    8.7810   55.9870   C 0  0  0  0  0  0  0  0  0  0  0  0
   12.9580    9.9320   56.6180   N 0  0  0  0  0  0  0  0  0  0  0  0
   13.9200   10.8040   56.1780   C 0  0  0  0  0  0  0  0  0  0  0  0
  1  2  1  0  0  0  0
  2  3  1  0  0  0  0
  3  4  1  0  0  0  0
  3  5  1  0  0  0  0
  4  8  1  0  0  0  0
  5  6  1  0  0  0  0
  5  7  1  0  0  0  0
  7  8  1  0  0  0  0
  8  9  1  0  0  0  0
  9 10  1  0  0  0  0
 10 11  2  0  0  0  0
 10 19  1  0  0  0  0
 11 12  1  0  0  0  0
 12 13  1  0  0  0  0
 13 14  1  0  0  0  0
 13 19  1  0  0  0  0
 14 15  2  0  0  0  0
 14 16  1  0  0  0  0
 16 17  1  0  0  0  0
 17 18  2  0  0  0  0
 18 19  1  0  0  0  0
M  CHG  1   8   1
A    1
O5'
A    2
C5'
A    3
C4'
A    4
C6'
A    5
C3'
A    6
O3'
A    7
C2'
A    8
N1'
A    9
C10
A   10
C9
A   11
C8
A   12
N7
A   13
C5
A   14
C6
A   15
O6
A   16
N1
A   17
C2
A   18
N3
A   19
C4
M  END
>  <InstanceId>
3BGS_DIH_A_301

>  <ChemCompId>
DIH

>  <PdbId>
3BGS

>  <ChainId>
A

>  <ResidueNumber>
301

>  <InsertionCode>


>  <Model>
1

>  <AltIds>


>  <MissingHeavyAtoms>
0

>  <ObservedFormula>
C12 N4 O3

>  <Name>
3-HYDROXY-4-HYDROXYMETHYL-1-(4-OXO-4,4A,5,7A-TETRAHYDRO-3H-PYRROLO[3,2-D]PYRIMIDIN-7-YLMETHYL)-PYRROLIDINIUM

>  <SystematicName>
7-[[(1S,3R,4R)-3-hydroxy-4-(hydroxymethyl)pyrrolidin-1-ium-1-yl]methyl]-3,4a,5,7a-tetrahydropyrrolo[2,3-e]pyrimidin-4-one

>  <Synonyms>
4'-DEAZA-1'-AZA-2'-DEOXY-1'-(9-METHYLENE)-IMMUCILLIN-H, (3R,4R)-N-[9-DEAZAHYPOXANTHIN-9-YL)METHYL]-4-HYDROXYMETHYL-PYRROLIDIN-3-OL

>  <Type>
NON-POLYMER

>  <Formula>
C12 H19 N4 O3

>  <MolecularWeight>
267.304

>  <ModifiedDate>
2011-06-04

>  <Parent>


>  <OneLetterCode>


>  <SubcomponentList>


>  <AmbiguousFlag>
N

>  <InChI>
InChI=1S/C12H18N4O3/c17-5-8-3-16(4-9(8)18)2-7-1-13-11-10(7)14-6-15-12(11)19/h1,6,8-11,13,17-18H,2-5H2,(H,14,15,19)/p+1/t8-,9+,10?,11?/m1/s1

>  <InChIKey>
WFVGWLHAOKEIOJ-MFQSTILNSA-O

>  <SMILES>
C1[C@@H]([C@H](C[N@@H+]1CC2=CNC3C2N=CNC3=O)O)CO

$$$$
