1PR5_TBN_A_1245


 24 26  0  0  0  0  0  0  0  0999 V2000
   94.1370   65.0363   22.4669 C   0  0  0  0  0  0  0  0  0  0  0  0
   92.7291   65.1061   22.2067 O   0  0  0  0  0  0  0  0  0  0  0  0
   92.4347   64.4820   20.9467 C   0  0  0  0  0  0  0  0  0  0  0  0
   93.6538   63.6344   20.5338 C   0  0  0  0  0  0  0  0  0  0  0  0
   93.2460   62.2656   20.5657 O   0  0  0  0  0  0  0  0  0  0  0  0
   94.7330   63.9523   21.5634 C   0  0  0  0  0  0  0  0  0  0  0  0
   95.2034   62.7961   22.2763 O   0  0  0  0  0  0  0  0  0  0  0  0
   92.9003   62.0516   21.4464 H   0  0  0  0  0  0  0  0  0  0  0  0
   94.4642   62.3877   22.7535 H   0  0  0  0  0  0  0  0  0  0  0  0
   91.8991   65.5586   20.0538 N   0  0  0  0  0  0  0  0  0  0  0  0
   92.5470   66.7509   19.7273 C   0  0  0  0  0  0  0  0  0  0  0  0
   91.7816   67.5047   18.8841 C   0  0  0  0  0  0  0  0  0  0  0  0
   90.6418   66.7915   18.6712 C   0  0  0  0  0  0  0  0  0  0  0  0
   89.5385   67.1629   17.8552 C   0  0  0  0  0  0  0  0  0  0  0  0
   88.5190   66.2321   17.8317 N   0  0  0  0  0  0  0  0  0  0  0  0
   88.6229   65.0798   18.5500 C   0  0  0  0  0  0  0  0  0  0  0  0
   89.6460   64.6646   19.3442 N   0  0  0  0  0  0  0  0  0  0  0  0
   90.6634   65.5976   19.3646 C   0  0  0  0  0  0  0  0  0  0  0  0
   89.4618   68.3062   17.1544 N   0  0  0  0  0  0  0  0  0  0  0  0
   90.2021   68.9544   17.1874 H   0  0  0  0  0  0  0  0  0  0  0  0
   88.6654   68.4960   16.6077 H   0  0  0  0  0  0  0  0  0  0  0  0
   94.1452   67.4883   22.7996 O   0  0  0  0  0  0  0  0  0  0  0  0
   94.8552   66.3849   22.2073 C   0  0  0  0  0  0  0  0  0  0  0  0
   94.6212   68.3138   22.6182 H   0  0  0  0  0  0  0  0  0  0  0  0
 22 23  1  0  0  0
 23  1  1  0  0  0
  1  2  1  0  0  0
  1  6  1  0  0  0
  2  3  1  0  0  0
  3 10  1  0  0  0
  3  4  1  0  0  0
 10 11  1  0  0  0
 10 18  1  0  0  0
 11 12  2  0  0  0
 12 13  1  0  0  0
 13 14  2  0  0  0
 13 18  1  0  0  0
 14 15  1  0  0  0
 14 19  1  0  0  0
 15 16  2  0  0  0
 16 17  1  0  0  0
 17 18  2  0  0  0
  4  5  1  0  0  0
  4  6  1  0  0  0
  6  7  1  0  0  0
 22 24  1  0  0  0
 19 20  1  0  0  0
 19 21  1  0  0  0
  5  8  1  0  0  0
  7  9  1  0  0  0
M  END
> <minimizedAffinity>
-8.88220

$$$$
1PR5_TBN_A_1245


 24 26  0  0  0  0  0  0  0  0999 V2000
   89.1652   66.5594   18.9082 C   0  0  0  0  0  0  0  0  0  0  0  0
   89.8549   66.6032   20.1641 O   0  0  0  0  0  0  0  0  0  0  0  0
   91.2030   67.0577   19.9643 C   0  0  0  0  0  0  0  0  0  0  0  0
   91.2922   67.6967   18.5648 C   0  0  0  0  0  0  0  0  0  0  0  0
   91.5432   69.0905   18.7529 O   0  0  0  0  0  0  0  0  0  0  0  0
   89.9421   67.4237   17.9102 C   0  0  0  0  0  0  0  0  0  0  0  0
   89.2470   68.6170   17.5111 O   0  0  0  0  0  0  0  0  0  0  0  0
   90.8495   69.4711   19.3138 H   0  0  0  0  0  0  0  0  0  0  0  0
   89.0804   69.1701   18.2903 H   0  0  0  0  0  0  0  0  0  0  0  0
   92.0971   65.9224   20.3581 N   0  0  0  0  0  0  0  0  0  0  0  0
   92.1359   64.6629   19.7580 C   0  0  0  0  0  0  0  0  0  0  0  0
   93.0705   63.8677   20.3574 C   0  0  0  0  0  0  0  0  0  0  0  0
   93.6304   64.6217   21.3428 C   0  0  0  0  0  0  0  0  0  0  0  0
   94.6601   64.2298   22.2413 C   0  0  0  0  0  0  0  0  0  0  0  0
   95.0277   65.2136   23.1377 N   0  0  0  0  0  0  0  0  0  0  0  0
   94.4178   66.4309   23.1112 C   0  0  0  0  0  0  0  0  0  0  0  0
   93.4335   66.8688   22.2810 N   0  0  0  0  0  0  0  0  0  0  0  0
   93.0693   65.8827   21.3861 C   0  0  0  0  0  0  0  0  0  0  0  0
   95.2470   63.0217   22.2449 N   0  0  0  0  0  0  0  0  0  0  0  0
   94.9674   62.3366   21.5955 H   0  0  0  0  0  0  0  0  0  0  0  0
   95.9569   62.8212   22.8969 H   0  0  0  0  0  0  0  0  0  0  0  0
   87.7473   64.5457   18.6687 O   0  0  0  0  0  0  0  0  0  0  0  0
   89.0308   65.1177   18.3558 C   0  0  0  0  0  0  0  0  0  0  0  0
   87.6978   63.6462   18.3092 H   0  0  0  0  0  0  0  0  0  0  0  0
 22 23  1  0  0  0
 23  1  1  0  0  0
  1  2  1  0  0  0
  1  6  1  0  0  0
  2  3  1  0  0  0
  3 10  1  0  0  0
  3  4  1  0  0  0
 10 11  1  0  0  0
 10 18  1  0  0  0
 11 12  2  0  0  0
 12 13  1  0  0  0
 13 14  2  0  0  0
 13 18  1  0  0  0
 14 15  1  0  0  0
 14 19  1  0  0  0
 15 16  2  0  0  0
 16 17  1  0  0  0
 17 18  2  0  0  0
  4  5  1  0  0  0
  4  6  1  0  0  0
  6  7  1  0  0  0
 22 24  1  0  0  0
 19 20  1  0  0  0
 19 21  1  0  0  0
  5  8  1  0  0  0
  7  9  1  0  0  0
M  END
> <minimizedAffinity>
-8.83238

$$$$
1PR5_TBN_A_1245


 24 26  0  0  0  0  0  0  0  0999 V2000
   94.1192   64.5329   20.3463 C   0  0  0  0  0  0  0  0  0  0  0  0
   93.5060   65.6558   19.6997 O   0  0  0  0  0  0  0  0  0  0  0  0
   92.5087   66.2290   20.5603 C   0  0  0  0  0  0  0  0  0  0  0  0
   92.7348   65.6874   21.9852 C   0  0  0  0  0  0  0  0  0  0  0  0
   93.1344   66.7924   22.7979 O   0  0  0  0  0  0  0  0  0  0  0  0
   93.8269   64.6319   21.8467 C   0  0  0  0  0  0  0  0  0  0  0  0
   94.9894   64.9014   22.6482 O   0  0  0  0  0  0  0  0  0  0  0  0
   93.9176   67.2127   22.4097 H   0  0  0  0  0  0  0  0  0  0  0  0
   95.3762   65.7500   22.3817 H   0  0  0  0  0  0  0  0  0  0  0  0
   91.1947   66.0552   19.8628 N   0  0  0  0  0  0  0  0  0  0  0  0
   90.4877   64.8589   19.7318 C   0  0  0  0  0  0  0  0  0  0  0  0
   89.3236   65.0552   19.0453 C   0  0  0  0  0  0  0  0  0  0  0  0
   89.2868   66.3807   18.7374 C   0  0  0  0  0  0  0  0  0  0  0  0
   88.2637   67.0677   18.0287 C   0  0  0  0  0  0  0  0  0  0  0  0
   88.5020   68.4181   17.8670 N   0  0  0  0  0  0  0  0  0  0  0  0
   89.6373   68.9807   18.3661 C   0  0  0  0  0  0  0  0  0  0  0  0
   90.6491   68.3841   19.0519 N   0  0  0  0  0  0  0  0  0  0  0  0
   90.4068   67.0345   19.2119 C   0  0  0  0  0  0  0  0  0  0  0  0
   87.1512   66.4885   17.5480 N   0  0  0  0  0  0  0  0  0  0  0  0
   87.0039   65.5236   17.6760 H   0  0  0  0  0  0  0  0  0  0  0  0
   86.4831   67.0290   17.0676 H   0  0  0  0  0  0  0  0  0  0  0  0
   93.1304   62.3238   20.8610 O   0  0  0  0  0  0  0  0  0  0  0  0
   93.5988   63.1785   19.8016 C   0  0  0  0  0  0  0  0  0  0  0  0
   92.8131   61.4876   20.4854 H   0  0  0  0  0  0  0  0  0  0  0  0
 22 23  1  0  0  0
 23  1  1  0  0  0
  1  2  1  0  0  0
  1  6  1  0  0  0
  2  3  1  0  0  0
  3 10  1  0  0  0
  3  4  1  0  0  0
 10 11  1  0  0  0
 10 18  1  0  0  0
 11 12  2  0  0  0
 12 13  1  0  0  0
 13 14  2  0  0  0
 13 18  1  0  0  0
 14 15  1  0  0  0
 14 19  1  0  0  0
 15 16  2  0  0  0
 16 17  1  0  0  0
 17 18  2  0  0  0
  4  5  1  0  0  0
  4  6  1  0  0  0
  6  7  1  0  0  0
 22 24  1  0  0  0
 19 20  1  0  0  0
 19 21  1  0  0  0
  5  8  1  0  0  0
  7  9  1  0  0  0
M  END
> <minimizedAffinity>
-8.73023

$$$$
1PR5_TBN_A_1245


 24 26  0  0  0  0  0  0  0  0999 V2000
   93.9782   64.4448   20.4918 C   0  0  0  0  0  0  0  0  0  0  0  0
   93.8317   65.6949   19.8059 O   0  0  0  0  0  0  0  0  0  0  0  0
   92.9371   66.5495   20.5359 C   0  0  0  0  0  0  0  0  0  0  0  0
   92.7786   65.9768   21.9578 C   0  0  0  0  0  0  0  0  0  0  0  0
   93.3671   66.9163   22.8588 O   0  0  0  0  0  0  0  0  0  0  0  0
   93.5120   64.6398   21.9378 C   0  0  0  0  0  0  0  0  0  0  0  0
   94.5708   64.5524   22.9061 O   0  0  0  0  0  0  0  0  0  0  0  0
   94.2884   67.0773   22.6018 H   0  0  0  0  0  0  0  0  0  0  0  0
   95.2290   65.2425   22.7286 H   0  0  0  0  0  0  0  0  0  0  0  0
   91.7488   66.7748   19.6525 N   0  0  0  0  0  0  0  0  0  0  0  0
   90.5865   66.0023   19.6285 C   0  0  0  0  0  0  0  0  0  0  0  0
   89.6991   66.4880   18.7111 C   0  0  0  0  0  0  0  0  0  0  0  0
   90.2961   67.5740   18.1479 C   0  0  0  0  0  0  0  0  0  0  0  0
   89.7594   68.4199   17.1393 C   0  0  0  0  0  0  0  0  0  0  0  0
   90.5999   69.4489   16.7635 N   0  0  0  0  0  0  0  0  0  0  0  0
   91.8232   69.5854   17.3462 C   0  0  0  0  0  0  0  0  0  0  0  0
   92.3929   68.8168   18.3129 N   0  0  0  0  0  0  0  0  0  0  0  0
   91.5493   67.7897   18.6862 C   0  0  0  0  0  0  0  0  0  0  0  0
   88.5474   68.2641   16.5817 N   0  0  0  0  0  0  0  0  0  0  0  0
   87.9661   67.5224   16.8666 H   0  0  0  0  0  0  0  0  0  0  0  0
   88.2402   68.8917   15.8881 H   0  0  0  0  0  0  0  0  0  0  0  0
   93.1438   62.1203   20.6453 O   0  0  0  0  0  0  0  0  0  0  0  0
   93.1616   63.3061   19.8294 C   0  0  0  0  0  0  0  0  0  0  0  0
   92.6258   61.4304   20.2019 H   0  0  0  0  0  0  0  0  0  0  0  0
 22 23  1  0  0  0
 23  1  1  0  0  0
  1  2  1  0  0  0
  1  6  1  0  0  0
  2  3  1  0  0  0
  3 10  1  0  0  0
  3  4  1  0  0  0
 10 11  1  0  0  0
 10 18  1  0  0  0
 11 12  2  0  0  0
 12 13  1  0  0  0
 13 14  2  0  0  0
 13 18  1  0  0  0
 14 15  1  0  0  0
 14 19  1  0  0  0
 15 16  2  0  0  0
 16 17  1  0  0  0
 17 18  2  0  0  0
  4  5  1  0  0  0
  4  6  1  0  0  0
  6  7  1  0  0  0
 22 24  1  0  0  0
 19 20  1  0  0  0
 19 21  1  0  0  0
  5  8  1  0  0  0
  7  9  1  0  0  0
M  END
> <minimizedAffinity>
-8.68340

$$$$
1PR5_TBN_A_1245


 24 26  0  0  0  0  0  0  0  0999 V2000
   93.9878   65.1772   22.5198 C   0  0  0  0  0  0  0  0  0  0  0  0
   92.5615   65.1251   22.3862 O   0  0  0  0  0  0  0  0  0  0  0  0
   92.2115   64.5495   21.1174 C   0  0  0  0  0  0  0  0  0  0  0  0
   93.4601   63.8496   20.5463 C   0  0  0  0  0  0  0  0  0  0  0  0
   93.1839   62.4482   20.5220 O   0  0  0  0  0  0  0  0  0  0  0  0
   94.5953   64.2105   21.4986 C   0  0  0  0  0  0  0  0  0  0  0  0
   95.2328   63.0659   22.0902 O   0  0  0  0  0  0  0  0  0  0  0  0
   92.9412   62.1509   21.4128 H   0  0  0  0  0  0  0  0  0  0  0  0
   94.5809   62.5607   22.6008 H   0  0  0  0  0  0  0  0  0  0  0  0
   91.5002   65.6191   20.3472 N   0  0  0  0  0  0  0  0  0  0  0  0
   90.1174   65.7470   20.2071 C   0  0  0  0  0  0  0  0  0  0  0  0
   89.8049   66.8373   19.4465 C   0  0  0  0  0  0  0  0  0  0  0  0
   90.9914   67.4076   19.1002 C   0  0  0  0  0  0  0  0  0  0  0  0
   91.1833   68.5752   18.3121 C   0  0  0  0  0  0  0  0  0  0  0  0
   92.5083   68.9167   18.1276 N   0  0  0  0  0  0  0  0  0  0  0  0
   93.4970   68.1592   18.6784 C   0  0  0  0  0  0  0  0  0  0  0  0
   93.3823   67.0383   19.4403 N   0  0  0  0  0  0  0  0  0  0  0  0
   92.0562   66.7006   19.6229 C   0  0  0  0  0  0  0  0  0  0  0  0
   90.1893   69.3063   17.7815 N   0  0  0  0  0  0  0  0  0  0  0  0
   89.2521   69.0423   17.9273 H   0  0  0  0  0  0  0  0  0  0  0  0
   90.3979   70.1062   17.2469 H   0  0  0  0  0  0  0  0  0  0  0  0
   95.9717   66.5787   22.0479 O   0  0  0  0  0  0  0  0  0  0  0  0
   94.5529   66.6019   22.2899 C   0  0  0  0  0  0  0  0  0  0  0  0
   96.2908   67.4841   21.9087 H   0  0  0  0  0  0  0  0  0  0  0  0
 22 23  1  0  0  0
 23  1  1  0  0  0
  1  2  1  0  0  0
  1  6  1  0  0  0
  2  3  1  0  0  0
  3 10  1  0  0  0
  3  4  1  0  0  0
 10 11  1  0  0  0
 10 18  1  0  0  0
 11 12  2  0  0  0
 12 13  1  0  0  0
 13 14  2  0  0  0
 13 18  1  0  0  0
 14 15  1  0  0  0
 14 19  1  0  0  0
 15 16  2  0  0  0
 16 17  1  0  0  0
 17 18  2  0  0  0
  4  5  1  0  0  0
  4  6  1  0  0  0
  6  7  1  0  0  0
 22 24  1  0  0  0
 19 20  1  0  0  0
 19 21  1  0  0  0
  5  8  1  0  0  0
  7  9  1  0  0  0
M  END
> <minimizedAffinity>
-8.60624

$$$$
1PR5_TBN_A_1245


 24 26  0  0  0  0  0  0  0  0999 V2000
   85.4030   65.0700   15.7230 C   0  0  0  0  0  0  0  0  0  0  0  0
   85.6860   65.9099   16.8496 O   0  0  0  0  0  0  0  0  0  0  0  0
   86.8341   66.7275   16.5719 C   0  0  0  0  0  0  0  0  0  0  0  0
   87.0942   66.6907   15.0534 C   0  0  0  0  0  0  0  0  0  0  0  0
   86.8500   68.0059   14.5517 O   0  0  0  0  0  0  0  0  0  0  0  0
   86.1167   65.6582   14.5018 C   0  0  0  0  0  0  0  0  0  0  0  0
   85.2244   66.1879   13.5070 O   0  0  0  0  0  0  0  0  0  0  0  0
   85.9503   68.2803   14.7885 H   0  0  0  0  0  0  0  0  0  0  0  0
   84.6964   66.9034   13.8944 H   0  0  0  0  0  0  0  0  0  0  0  0
   87.8921   66.3214   17.5511 N   0  0  0  0  0  0  0  0  0  0  0  0
   88.1320   65.0247   18.0085 C   0  0  0  0  0  0  0  0  0  0  0  0
   89.1753   65.0054   18.8894 C   0  0  0  0  0  0  0  0  0  0  0  0
   89.6032   66.2934   18.9946 C   0  0  0  0  0  0  0  0  0  0  0  0
   90.6752   66.7776   19.7931 C   0  0  0  0  0  0  0  0  0  0  0  0
   90.8778   68.1398   19.6948 N   0  0  0  0  0  0  0  0  0  0  0  0
   90.0850   68.8966   18.8865 C   0  0  0  0  0  0  0  0  0  0  0  0
   89.0502   68.4980   18.0990 N   0  0  0  0  0  0  0  0  0  0  0  0
   88.8512   67.1356   18.1996 C   0  0  0  0  0  0  0  0  0  0  0  0
   91.4441   66.0084   20.5813 N   0  0  0  0  0  0  0  0  0  0  0  0
   91.2798   65.0391   20.6346 H   0  0  0  0  0  0  0  0  0  0  0  0
   92.1719   66.4138   21.1058 H   0  0  0  0  0  0  0  0  0  0  0  0
   85.0735   62.6784   15.1800 O   0  0  0  0  0  0  0  0  0  0  0  0
   85.8655   63.6073   15.9432 C   0  0  0  0  0  0  0  0  0  0  0  0
   85.3894   61.7756   15.3413 H   0  0  0  0  0  0  0  0  0  0  0  0
 22 23  1  0  0  0
 23  1  1  0  0  0
  1  2  1  0  0  0
  1  6  1  0  0  0
  2  3  1  0  0  0
  3 10  1  0  0  0
  3  4  1  0  0  0
 10 11  1  0  0  0
 10 18  1  0  0  0
 11 12  2  0  0  0
 12 13  1  0  0  0
 13 14  2  0  0  0
 13 18  1  0  0  0
 14 15  1  0  0  0
 14 19  1  0  0  0
 15 16  2  0  0  0
 16 17  1  0  0  0
 17 18  2  0  0  0
  4  5  1  0  0  0
  4  6  1  0  0  0
  6  7  1  0  0  0
 22 24  1  0  0  0
 19 20  1  0  0  0
 19 21  1  0  0  0
  5  8  1  0  0  0
  7  9  1  0  0  0
M  END
> <minimizedAffinity>
-8.22081

$$$$
1PR5_TBN_A_1245


 24 26  0  0  0  0  0  0  0  0999 V2000
   92.6600   66.8511   19.6345 C   0  0  0  0  0  0  0  0  0  0  0  0
   91.3331   67.2338   20.0190 O   0  0  0  0  0  0  0  0  0  0  0  0
   90.4565   66.0984   19.9414 C   0  0  0  0  0  0  0  0  0  0  0  0
   91.3233   64.8268   19.8598 C   0  0  0  0  0  0  0  0  0  0  0  0
   91.1053   64.0899   21.0642 O   0  0  0  0  0  0  0  0  0  0  0  0
   92.7583   65.3251   19.7249 C   0  0  0  0  0  0  0  0  0  0  0  0
   93.6272   64.8601   20.7713 O   0  0  0  0  0  0  0  0  0  0  0  0
   91.3062   64.6525   21.8283 H   0  0  0  0  0  0  0  0  0  0  0  0
   93.2960   65.1706   21.6285 H   0  0  0  0  0  0  0  0  0  0  0  0
   89.4422   66.4158   18.8862 N   0  0  0  0  0  0  0  0  0  0  0  0
   89.1593   67.6836   18.3754 C   0  0  0  0  0  0  0  0  0  0  0  0
   88.1858   67.6165   17.4201 C   0  0  0  0  0  0  0  0  0  0  0  0
   87.8462   66.3021   17.3201 C   0  0  0  0  0  0  0  0  0  0  0  0
   86.8761   65.7315   16.4516 C   0  0  0  0  0  0  0  0  0  0  0  0
   86.7494   64.3620   16.5737 N   0  0  0  0  0  0  0  0  0  0  0  0
   87.5157   63.6773   17.4673 C   0  0  0  0  0  0  0  0  0  0  0  0
   88.4584   64.1593   18.3210 N   0  0  0  0  0  0  0  0  0  0  0  0
   88.5825   65.5285   18.1955 C   0  0  0  0  0  0  0  0  0  0  0  0
   86.1339   66.4301   15.5768 N   0  0  0  0  0  0  0  0  0  0  0  0
   86.2426   67.4062   15.5083 H   0  0  0  0  0  0  0  0  0  0  0  0
   85.4812   65.9661   15.0042 H   0  0  0  0  0  0  0  0  0  0  0  0
   93.7355   66.2957   17.4763 O   0  0  0  0  0  0  0  0  0  0  0  0
   93.0174   67.3128   18.1989 C   0  0  0  0  0  0  0  0  0  0  0  0
   93.9423   66.6175   16.5849 H   0  0  0  0  0  0  0  0  0  0  0  0
 22 23  1  0  0  0
 23  1  1  0  0  0
  1  2  1  0  0  0
  1  6  1  0  0  0
  2  3  1  0  0  0
  3 10  1  0  0  0
  3  4  1  0  0  0
 10 11  1  0  0  0
 10 18  1  0  0  0
 11 12  2  0  0  0
 12 13  1  0  0  0
 13 14  2  0  0  0
 13 18  1  0  0  0
 14 15  1  0  0  0
 14 19  1  0  0  0
 15 16  2  0  0  0
 16 17  1  0  0  0
 17 18  2  0  0  0
  4  5  1  0  0  0
  4  6  1  0  0  0
  6  7  1  0  0  0
 22 24  1  0  0  0
 19 20  1  0  0  0
 19 21  1  0  0  0
  5  8  1  0  0  0
  7  9  1  0  0  0
M  END
> <minimizedAffinity>
-8.22077

$$$$
1PR5_TBN_A_1245


 24 26  0  0  0  0  0  0  0  0999 V2000
   90.1991   69.1127   17.3821 C   0  0  0  0  0  0  0  0  0  0  0  0
   89.0362   68.5896   18.0371 O   0  0  0  0  0  0  0  0  0  0  0  0
   89.3825   67.4052   18.7726 C   0  0  0  0  0  0  0  0  0  0  0  0
   90.9166   67.3564   18.9105 C   0  0  0  0  0  0  0  0  0  0  0  0
   91.2207   67.5175   20.2970 O   0  0  0  0  0  0  0  0  0  0  0  0
   91.4349   68.5079   18.0554 C   0  0  0  0  0  0  0  0  0  0  0  0
   92.2197   69.4607   18.7920 O   0  0  0  0  0  0  0  0  0  0  0  0
   90.8242   68.3412   20.6214 H   0  0  0  0  0  0  0  0  0  0  0  0
   91.6786   69.8491   19.4971 H   0  0  0  0  0  0  0  0  0  0  0  0
   88.6230   66.2775   18.1444 N   0  0  0  0  0  0  0  0  0  0  0  0
   88.7960   64.9197   18.4174 C   0  0  0  0  0  0  0  0  0  0  0  0
   87.9363   64.1614   17.6752 C   0  0  0  0  0  0  0  0  0  0  0  0
   87.2118   65.0375   16.9264 C   0  0  0  0  0  0  0  0  0  0  0  0
   86.1829   64.7235   15.9970 C   0  0  0  0  0  0  0  0  0  0  0  0
   85.6240   65.8272   15.3839 N   0  0  0  0  0  0  0  0  0  0  0  0
   86.0655   67.0794   15.6867 C   0  0  0  0  0  0  0  0  0  0  0  0
   87.0386   67.4471   16.5630 N   0  0  0  0  0  0  0  0  0  0  0  0
   87.5944   66.3410   17.1742 C   0  0  0  0  0  0  0  0  0  0  0  0
   85.7644   63.4781   15.7177 N   0  0  0  0  0  0  0  0  0  0  0  0
   86.1788   62.7070   16.1682 H   0  0  0  0  0  0  0  0  0  0  0  0
   85.0434   63.3364   15.0625 H   0  0  0  0  0  0  0  0  0  0  0  0
   88.9646   69.1064   15.2376 O   0  0  0  0  0  0  0  0  0  0  0  0
   90.2206   68.7908   15.8662 C   0  0  0  0  0  0  0  0  0  0  0  0
   89.0135   68.8931   14.2926 H   0  0  0  0  0  0  0  0  0  0  0  0
 22 23  1  0  0  0
 23  1  1  0  0  0
  1  2  1  0  0  0
  1  6  1  0  0  0
  2  3  1  0  0  0
  3 10  1  0  0  0
  3  4  1  0  0  0
 10 11  1  0  0  0
 10 18  1  0  0  0
 11 12  2  0  0  0
 12 13  1  0  0  0
 13 14  2  0  0  0
 13 18  1  0  0  0
 14 15  1  0  0  0
 14 19  1  0  0  0
 15 16  2  0  0  0
 16 17  1  0  0  0
 17 18  2  0  0  0
  4  5  1  0  0  0
  4  6  1  0  0  0
  6  7  1  0  0  0
 22 24  1  0  0  0
 19 20  1  0  0  0
 19 21  1  0  0  0
  5  8  1  0  0  0
  7  9  1  0  0  0
M  END
> <minimizedAffinity>
-8.04622

$$$$
1PR5_TBN_A_1245


 24 26  0  0  0  0  0  0  0  0999 V2000
   91.9046   67.9898   17.9718 C   0  0  0  0  0  0  0  0  0  0  0  0
   91.8313   66.5695   17.7921 O   0  0  0  0  0  0  0  0  0  0  0  0
   91.1194   65.9755   18.8894 C   0  0  0  0  0  0  0  0  0  0  0  0
   90.3675   67.0943   19.6363 C   0  0  0  0  0  0  0  0  0  0  0  0
   88.9704   66.8583   19.4535 O   0  0  0  0  0  0  0  0  0  0  0  0
   90.8353   68.3946   18.9912 C   0  0  0  0  0  0  0  0  0  0  0  0
   89.7651   69.1742   18.4317 O   0  0  0  0  0  0  0  0  0  0  0  0
   88.7707   66.8177   18.5051 H   0  0  0  0  0  0  0  0  0  0  0  0
   89.3153   68.6592   17.7437 H   0  0  0  0  0  0  0  0  0  0  0  0
   92.0953   65.0880   19.5987 N   0  0  0  0  0  0  0  0  0  0  0  0
   92.4433   63.7888   19.2260 C   0  0  0  0  0  0  0  0  0  0  0  0
   93.3668   63.2673   20.0864 C   0  0  0  0  0  0  0  0  0  0  0  0
   93.6095   64.2365   21.0110 C   0  0  0  0  0  0  0  0  0  0  0  0
   94.5062   64.1651   22.1119 C   0  0  0  0  0  0  0  0  0  0  0  0
   94.5421   65.3105   22.8821 N   0  0  0  0  0  0  0  0  0  0  0  0
   93.7616   66.3795   22.5618 C   0  0  0  0  0  0  0  0  0  0  0  0
   92.8891   66.5131   21.5270 N   0  0  0  0  0  0  0  0  0  0  0  0
   92.8565   65.3663   20.7592 C   0  0  0  0  0  0  0  0  0  0  0  0
   95.2672   63.0978   22.4049 N   0  0  0  0  0  0  0  0  0  0  0  0
   95.2239   62.2924   21.8403 H   0  0  0  0  0  0  0  0  0  0  0  0
   95.8683   63.1209   23.1842 H   0  0  0  0  0  0  0  0  0  0  0  0
   93.3525   69.8814   18.6412 O   0  0  0  0  0  0  0  0  0  0  0  0
   93.2985   68.4536   18.4655 C   0  0  0  0  0  0  0  0  0  0  0  0
   94.2362   70.1360   18.9498 H   0  0  0  0  0  0  0  0  0  0  0  0
 22 23  1  0  0  0
 23  1  1  0  0  0
  1  2  1  0  0  0
  1  6  1  0  0  0
  2  3  1  0  0  0
  3 10  1  0  0  0
  3  4  1  0  0  0
 10 11  1  0  0  0
 10 18  1  0  0  0
 11 12  2  0  0  0
 12 13  1  0  0  0
 13 14  2  0  0  0
 13 18  1  0  0  0
 14 15  1  0  0  0
 14 19  1  0  0  0
 15 16  2  0  0  0
 16 17  1  0  0  0
 17 18  2  0  0  0
  4  5  1  0  0  0
  4  6  1  0  0  0
  6  7  1  0  0  0
 22 24  1  0  0  0
 19 20  1  0  0  0
 19 21  1  0  0  0
  5  8  1  0  0  0
  7  9  1  0  0  0
M  END
> <minimizedAffinity>
-7.99644

$$$$
1PR5_TBN_A_1245


 24 26  0  0  0  0  0  0  0  0999 V2000
   91.1120   68.4076   18.5286 C   0  0  0  0  0  0  0  0  0  0  0  0
   89.7109   68.3399   18.8238 O   0  0  0  0  0  0  0  0  0  0  0  0
   89.3191   66.9715   19.0177 C   0  0  0  0  0  0  0  0  0  0  0  0
   90.5942   66.1316   19.2264 C   0  0  0  0  0  0  0  0  0  0  0  0
   90.5650   65.6476   20.5702 O   0  0  0  0  0  0  0  0  0  0  0  0
   91.7537   67.0883   18.9692 C   0  0  0  0  0  0  0  0  0  0  0  0
   92.6457   67.2217   20.0885 O   0  0  0  0  0  0  0  0  0  0  0  0
   90.4846   66.3962   21.1818 H   0  0  0  0  0  0  0  0  0  0  0  0
   92.1564   67.5641   20.8529 H   0  0  0  0  0  0  0  0  0  0  0  0
   88.3468   66.6488   17.9251 N   0  0  0  0  0  0  0  0  0  0  0  0
   87.7806   67.5626   17.0349 C   0  0  0  0  0  0  0  0  0  0  0  0
   86.9414   66.9331   16.1606 C   0  0  0  0  0  0  0  0  0  0  0  0
   86.9721   65.6134   16.4931 C   0  0  0  0  0  0  0  0  0  0  0  0
   86.2627   64.5544   15.8634 C   0  0  0  0  0  0  0  0  0  0  0  0
   86.4944   63.3132   16.4221 N   0  0  0  0  0  0  0  0  0  0  0  0
   87.3391   63.1829   17.4824 C   0  0  0  0  0  0  0  0  0  0  0  0
   88.0469   64.1491   18.1268 N   0  0  0  0  0  0  0  0  0  0  0  0
   87.8130   65.3883   17.5650 C   0  0  0  0  0  0  0  0  0  0  0  0
   85.4360   64.7099   14.8163 N   0  0  0  0  0  0  0  0  0  0  0  0
   85.2870   65.6055   14.4355 H   0  0  0  0  0  0  0  0  0  0  0  0
   84.9790   63.9283   14.4296 H   0  0  0  0  0  0  0  0  0  0  0  0
   90.5603   69.6938   16.4879 O   0  0  0  0  0  0  0  0  0  0  0  0
   91.3895   68.6455   17.0225 C   0  0  0  0  0  0  0  0  0  0  0  0
   90.7597   69.8155   15.5465 H   0  0  0  0  0  0  0  0  0  0  0  0
 22 23  1  0  0  0
 23  1  1  0  0  0
  1  2  1  0  0  0
  1  6  1  0  0  0
  2  3  1  0  0  0
  3 10  1  0  0  0
  3  4  1  0  0  0
 10 11  1  0  0  0
 10 18  1  0  0  0
 11 12  2  0  0  0
 12 13  1  0  0  0
 13 14  2  0  0  0
 13 18  1  0  0  0
 14 15  1  0  0  0
 14 19  1  0  0  0
 15 16  2  0  0  0
 16 17  1  0  0  0
 17 18  2  0  0  0
  4  5  1  0  0  0
  4  6  1  0  0  0
  6  7  1  0  0  0
 22 24  1  0  0  0
 19 20  1  0  0  0
 19 21  1  0  0  0
  5  8  1  0  0  0
  7  9  1  0  0  0
M  END
> <minimizedAffinity>
-7.94601

$$$$
