2PVL_P55_A_501


 27 30  0  0  0  0  0  0  0  0999 V2000
   22.8269    6.5033   20.4641 N   0  0  0  0  0  0  0  0  0  0  0  0
   22.0709    6.0226   21.4800 C   0  0  0  0  0  0  0  0  0  0  0  0
   22.0592    4.6171   21.4078 C   0  0  0  0  0  0  0  0  0  0  0  0
   22.8805    4.2895   20.2600 C   0  0  0  0  0  0  0  0  0  0  0  0
   23.3119    5.4689   19.7230 N   0  0  0  0  0  0  0  0  0  0  0  0
   23.2523    3.1348   19.6856 N   0  0  0  0  0  0  0  0  0  0  0  0
   24.0301    3.2219   18.6089 C   0  0  0  0  0  0  0  0  0  0  0  0
   24.4524    4.3598   18.0666 N   0  0  0  0  0  0  0  0  0  0  0  0
   24.0771    5.4938   18.6455 C   0  0  0  0  0  0  0  0  0  0  0  0
   24.4617    2.0172   18.0000 N   0  0  0  0  0  0  0  0  0  0  0  0
   25.8876    1.7863   17.7087 C   0  0  0  0  0  0  0  0  0  0  0  0
   26.5011    0.7676   18.6768 C   0  0  0  0  0  0  0  0  0  0  0  0
   25.6323   -0.4237   18.7414 N   0  0  0  0  0  0  0  0  0  0  0  0
   24.2280   -0.1699   19.1025 C   0  0  0  0  0  0  0  0  0  0  0  0
   23.5794    0.8476   18.1648 C   0  0  0  0  0  0  0  0  0  0  0  0
   26.1725   -1.5285   19.5516 C   0  0  0  0  0  0  0  0  0  0  0  0
   26.8524   -2.5957   18.6878 C   0  0  0  0  0  0  0  0  0  0  0  0
   24.4416    6.6994   18.1417 N   0  0  0  0  0  0  0  0  0  0  0  0
   25.1964    7.1676   18.5664 H   0  0  0  0  0  0  0  0  0  0  0  0
   23.8298    7.3024   17.0868 C   0  0  0  0  0  0  0  0  0  0  0  0
   22.7955    8.2236   17.2681 C   0  0  0  0  0  0  0  0  0  0  0  0
   22.0978    8.7458   16.1819 C   0  0  0  0  0  0  0  0  0  0  0  0
   22.4400    8.3494   14.8880 C   0  0  0  0  0  0  0  0  0  0  0  0
   23.5133    7.4798   14.6968 C   0  0  0  0  0  0  0  0  0  0  0  0
   24.2115    6.9617   15.7885 C   0  0  0  0  0  0  0  0  0  0  0  0
   21.3440    3.7276   22.2751 C   0  0  0  0  0  0  0  0  0  0  0  0
   20.6870    3.0344   22.9331 N   0  0  0  0  0  0  0  0  0  0  0  0
  1  2  2  0  0  0
  1  5  1  0  0  0
  2  3  1  0  0  0
  3 26  1  0  0  0
  3  4  2  0  0  0
  4  6  1  0  0  0
  4  5  1  0  0  0
  5  9  1  0  0  0
  6  7  2  0  0  0
  7 10  1  0  0  0
  7  8  1  0  0  0
  8  9  2  0  0  0
  9 18  1  0  0  0
 18 20  1  0  0  0
 20 21  2  0  0  0
 20 25  1  0  0  0
 21 22  1  0  0  0
 22 23  2  0  0  0
 23 24  1  0  0  0
 24 25  2  0  0  0
 10 15  1  0  0  0
 10 11  1  0  0  0
 11 12  1  0  0  0
 12 13  1  0  0  0
 13 14  1  0  0  0
 13 16  1  0  0  0
 14 15  1  0  0  0
 16 17  1  0  0  0
 26 27  3  0  0  0
 18 19  1  0  0  0
M  END
> <minimizedAffinity>
-9.31782

$$$$
2PVL_P55_A_501


 27 30  0  0  0  0  0  0  0  0999 V2000
   21.1558    7.9477   22.3898 N   0  0  0  0  0  0  0  0  0  0  0  0
   20.5069    7.5789   23.5201 C   0  0  0  0  0  0  0  0  0  0  0  0
   20.6486    6.1888   23.6885 C   0  0  0  0  0  0  0  0  0  0  0  0
   21.4461    5.7496   22.5613 C   0  0  0  0  0  0  0  0  0  0  0  0
   21.7175    6.8538   21.8047 N   0  0  0  0  0  0  0  0  0  0  0  0
   21.9168    4.5557   22.1681 N   0  0  0  0  0  0  0  0  0  0  0  0
   22.6283    4.5308   21.0433 C   0  0  0  0  0  0  0  0  0  0  0  0
   22.8950    5.5925   20.2892 N   0  0  0  0  0  0  0  0  0  0  0  0
   22.4235    6.7665   20.6906 C   0  0  0  0  0  0  0  0  0  0  0  0
   23.1623    3.2879   20.6207 N   0  0  0  0  0  0  0  0  0  0  0  0
   23.2074    2.9315   19.1916 C   0  0  0  0  0  0  0  0  0  0  0  0
   24.6356    3.0070   18.6386 C   0  0  0  0  0  0  0  0  0  0  0  0
   25.5434    2.2695   19.5387 N   0  0  0  0  0  0  0  0  0  0  0  0
   25.5273    2.6939   20.9481 C   0  0  0  0  0  0  0  0  0  0  0  0
   24.1184    2.6404   21.5374 C   0  0  0  0  0  0  0  0  0  0  0  0
   26.9309    2.1683   19.0555 C   0  0  0  0  0  0  0  0  0  0  0  0
   27.0187    2.2881   17.5305 C   0  0  0  0  0  0  0  0  0  0  0  0
   22.6270    7.8955   19.9666 N   0  0  0  0  0  0  0  0  0  0  0  0
   22.7495    8.7411   20.4556 H   0  0  0  0  0  0  0  0  0  0  0  0
   22.6726    7.9329   18.6075 C   0  0  0  0  0  0  0  0  0  0  0  0
   23.7315    7.3665   17.8939 C   0  0  0  0  0  0  0  0  0  0  0  0
   23.8283    7.5123   16.5124 C   0  0  0  0  0  0  0  0  0  0  0  0
   22.8483    8.2303   15.8248 C   0  0  0  0  0  0  0  0  0  0  0  0
   21.7554    8.7431   16.5228 C   0  0  0  0  0  0  0  0  0  0  0  0
   21.6612    8.5915   17.9069 C   0  0  0  0  0  0  0  0  0  0  0  0
   20.0789    5.3977   24.7394 C   0  0  0  0  0  0  0  0  0  0  0  0
   19.5337    4.7864   25.5606 N   0  0  0  0  0  0  0  0  0  0  0  0
  1  2  2  0  0  0
  1  5  1  0  0  0
  2  3  1  0  0  0
  3 26  1  0  0  0
  3  4  2  0  0  0
  4  6  1  0  0  0
  4  5  1  0  0  0
  5  9  1  0  0  0
  6  7  2  0  0  0
  7 10  1  0  0  0
  7  8  1  0  0  0
  8  9  2  0  0  0
  9 18  1  0  0  0
 18 20  1  0  0  0
 20 21  2  0  0  0
 20 25  1  0  0  0
 21 22  1  0  0  0
 22 23  2  0  0  0
 23 24  1  0  0  0
 24 25  2  0  0  0
 10 15  1  0  0  0
 10 11  1  0  0  0
 11 12  1  0  0  0
 12 13  1  0  0  0
 13 14  1  0  0  0
 13 16  1  0  0  0
 14 15  1  0  0  0
 16 17  1  0  0  0
 26 27  3  0  0  0
 18 19  1  0  0  0
M  END
> <minimizedAffinity>
-9.24238

$$$$
2PVL_P55_A_501


 27 30  0  0  0  0  0  0  0  0999 V2000
   20.1137    9.3475   19.5724 N   0  0  0  0  0  0  0  0  0  0  0  0
   20.4006    9.5510   18.2644 C   0  0  0  0  0  0  0  0  0  0  0  0
   21.4228    8.6619   17.8831 C   0  0  0  0  0  0  0  0  0  0  0  0
   21.7256    7.8980   19.0764 C   0  0  0  0  0  0  0  0  0  0  0  0
   20.9095    8.3604   20.0692 N   0  0  0  0  0  0  0  0  0  0  0  0
   22.5914    6.9093   19.3492 N   0  0  0  0  0  0  0  0  0  0  0  0
   22.5955    6.4403   20.5949 C   0  0  0  0  0  0  0  0  0  0  0  0
   21.8159    6.8833   21.5762 N   0  0  0  0  0  0  0  0  0  0  0  0
   20.9644    7.8611   21.2918 C   0  0  0  0  0  0  0  0  0  0  0  0
   23.4793    5.3760   20.9028 N   0  0  0  0  0  0  0  0  0  0  0  0
   23.5665    4.8382   22.2719 C   0  0  0  0  0  0  0  0  0  0  0  0
   22.8951    3.4638   22.3794 C   0  0  0  0  0  0  0  0  0  0  0  0
   23.3868    2.5978   21.2902 N   0  0  0  0  0  0  0  0  0  0  0  0
   23.2236    3.1315   19.9282 C   0  0  0  0  0  0  0  0  0  0  0  0
   23.8735    4.5066   19.7793 C   0  0  0  0  0  0  0  0  0  0  0  0
   22.9036    1.2080   21.3515 C   0  0  0  0  0  0  0  0  0  0  0  0
   21.4005    1.1341   21.6390 C   0  0  0  0  0  0  0  0  0  0  0  0
   20.1515    8.3894   22.2407 N   0  0  0  0  0  0  0  0  0  0  0  0
   19.5331    9.1063   21.9710 H   0  0  0  0  0  0  0  0  0  0  0  0
   20.1369    7.9910   23.5414 C   0  0  0  0  0  0  0  0  0  0  0  0
   20.0550    6.6418   23.8937 C   0  0  0  0  0  0  0  0  0  0  0  0
   19.9224    6.2518   25.2239 C   0  0  0  0  0  0  0  0  0  0  0  0
   19.8772    7.2229   26.2256 C   0  0  0  0  0  0  0  0  0  0  0  0
   20.0230    8.5676   25.8862 C   0  0  0  0  0  0  0  0  0  0  0  0
   20.1590    8.9532   24.5519 C   0  0  0  0  0  0  0  0  0  0  0  0
   22.0411    8.5812   16.5923 C   0  0  0  0  0  0  0  0  0  0  0  0
   22.4556    8.5069   15.5117 N   0  0  0  0  0  0  0  0  0  0  0  0
  1  2  2  0  0  0
  1  5  1  0  0  0
  2  3  1  0  0  0
  3 26  1  0  0  0
  3  4  2  0  0  0
  4  6  1  0  0  0
  4  5  1  0  0  0
  5  9  1  0  0  0
  6  7  2  0  0  0
  7 10  1  0  0  0
  7  8  1  0  0  0
  8  9  2  0  0  0
  9 18  1  0  0  0
 18 20  1  0  0  0
 20 21  2  0  0  0
 20 25  1  0  0  0
 21 22  1  0  0  0
 22 23  2  0  0  0
 23 24  1  0  0  0
 24 25  2  0  0  0
 10 15  1  0  0  0
 10 11  1  0  0  0
 11 12  1  0  0  0
 12 13  1  0  0  0
 13 14  1  0  0  0
 13 16  1  0  0  0
 14 15  1  0  0  0
 16 17  1  0  0  0
 26 27  3  0  0  0
 18 19  1  0  0  0
M  END
> <minimizedAffinity>
-8.85721

$$$$
2PVL_P55_A_501


 27 30  0  0  0  0  0  0  0  0999 V2000
   20.8684    8.4625   21.2189 N   0  0  0  0  0  0  0  0  0  0  0  0
   20.3847    8.2044   22.4576 C   0  0  0  0  0  0  0  0  0  0  0  0
   20.9359    6.9923   22.9136 C   0  0  0  0  0  0  0  0  0  0  0  0
   21.8009    6.5421   21.8420 C   0  0  0  0  0  0  0  0  0  0  0  0
   21.7151    7.4658   20.8395 N   0  0  0  0  0  0  0  0  0  0  0  0
   22.5949    5.4723   21.6792 N   0  0  0  0  0  0  0  0  0  0  0  0
   23.2551    5.3833   20.5268 C   0  0  0  0  0  0  0  0  0  0  0  0
   23.1775    6.2666   19.5364 N   0  0  0  0  0  0  0  0  0  0  0  0
   22.3888    7.3198   19.7116 C   0  0  0  0  0  0  0  0  0  0  0  0
   24.1233    4.2788   20.3403 N   0  0  0  0  0  0  0  0  0  0  0  0
   24.4861    3.4038   21.4690 C   0  0  0  0  0  0  0  0  0  0  0  0
   23.7789    2.0463   21.3774 C   0  0  0  0  0  0  0  0  0  0  0  0
   23.9621    1.4951   20.0206 N   0  0  0  0  0  0  0  0  0  0  0  0
   23.5268    2.3641   18.9151 C   0  0  0  0  0  0  0  0  0  0  0  0
   24.2038    3.7328   18.9732 C   0  0  0  0  0  0  0  0  0  0  0  0
   23.4266    0.1354   19.8379 C   0  0  0  0  0  0  0  0  0  0  0  0
   24.3218   -0.9267   20.4843 C   0  0  0  0  0  0  0  0  0  0  0  0
   22.2316    8.2549   18.7415 N   0  0  0  0  0  0  0  0  0  0  0  0
   21.7599    9.0869   18.9751 H   0  0  0  0  0  0  0  0  0  0  0  0
   22.6846    8.1156   17.4664 C   0  0  0  0  0  0  0  0  0  0  0  0
   21.9694    8.6160   16.3758 C   0  0  0  0  0  0  0  0  0  0  0  0
   22.3810    8.3664   15.0691 C   0  0  0  0  0  0  0  0  0  0  0  0
   23.5315    7.6094   14.8417 C   0  0  0  0  0  0  0  0  0  0  0  0
   24.2850    7.1615   15.9262 C   0  0  0  0  0  0  0  0  0  0  0  0
   23.8702    7.4172   17.2340 C   0  0  0  0  0  0  0  0  0  0  0  0
   20.6509    6.3453   24.1606 C   0  0  0  0  0  0  0  0  0  0  0  0
   20.4169    5.7410   25.1225 N   0  0  0  0  0  0  0  0  0  0  0  0
  1  2  2  0  0  0
  1  5  1  0  0  0
  2  3  1  0  0  0
  3 26  1  0  0  0
  3  4  2  0  0  0
  4  6  1  0  0  0
  4  5  1  0  0  0
  5  9  1  0  0  0
  6  7  2  0  0  0
  7 10  1  0  0  0
  7  8  1  0  0  0
  8  9  2  0  0  0
  9 18  1  0  0  0
 18 20  1  0  0  0
 20 21  2  0  0  0
 20 25  1  0  0  0
 21 22  1  0  0  0
 22 23  2  0  0  0
 23 24  1  0  0  0
 24 25  2  0  0  0
 10 15  1  0  0  0
 10 11  1  0  0  0
 11 12  1  0  0  0
 12 13  1  0  0  0
 13 14  1  0  0  0
 13 16  1  0  0  0
 14 15  1  0  0  0
 16 17  1  0  0  0
 26 27  3  0  0  0
 18 19  1  0  0  0
M  END
> <minimizedAffinity>
-8.84179

$$$$
2PVL_P55_A_501


 27 30  0  0  0  0  0  0  0  0999 V2000
   26.5831    3.7972   17.1871 N   0  0  0  0  0  0  0  0  0  0  0  0
   27.0102    2.5234   17.3601 C   0  0  0  0  0  0  0  0  0  0  0  0
   26.1675    1.8875   18.2909 C   0  0  0  0  0  0  0  0  0  0  0  0
   25.1884    2.8890   18.6621 C   0  0  0  0  0  0  0  0  0  0  0  0
   25.4929    4.0265   17.9702 N   0  0  0  0  0  0  0  0  0  0  0  0
   24.1348    2.8917   19.4936 N   0  0  0  0  0  0  0  0  0  0  0  0
   23.4472    4.0275   19.5892 C   0  0  0  0  0  0  0  0  0  0  0  0
   23.7333    5.1466   18.9314 N   0  0  0  0  0  0  0  0  0  0  0  0
   24.7778    5.1291   18.1125 C   0  0  0  0  0  0  0  0  0  0  0  0
   22.3123    4.0493   20.4377 N   0  0  0  0  0  0  0  0  0  0  0  0
   21.5385    2.8223   20.6966 C   0  0  0  0  0  0  0  0  0  0  0  0
   21.7906    2.2871   22.1113 C   0  0  0  0  0  0  0  0  0  0  0  0
   21.6370    3.3893   23.0807 N   0  0  0  0  0  0  0  0  0  0  0  0
   22.4737    4.5753   22.8357 C   0  0  0  0  0  0  0  0  0  0  0  0
   22.2583    5.1373   21.4311 C   0  0  0  0  0  0  0  0  0  0  0  0
   21.7400    2.9787   24.4913 C   0  0  0  0  0  0  0  0  0  0  0  0
   22.2206    1.5311   24.6351 C   0  0  0  0  0  0  0  0  0  0  0  0
   25.1549    6.2350   17.4233 N   0  0  0  0  0  0  0  0  0  0  0  0
   26.1096    6.4752   17.4233 H   0  0  0  0  0  0  0  0  0  0  0  0
   24.2970    7.0332   16.7322 C   0  0  0  0  0  0  0  0  0  0  0  0
   23.4605    7.9448   17.3807 C   0  0  0  0  0  0  0  0  0  0  0  0
   22.5043    8.6719   16.6763 C   0  0  0  0  0  0  0  0  0  0  0  0
   22.3817    8.4944   15.2972 C   0  0  0  0  0  0  0  0  0  0  0  0
   23.2564    7.6339   14.6346 C   0  0  0  0  0  0  0  0  0  0  0  0
   24.2152    6.9099   15.3446 C   0  0  0  0  0  0  0  0  0  0  0  0
   26.2998    0.5463   18.7792 C   0  0  0  0  0  0  0  0  0  0  0  0
   26.3230   -0.5285   19.2144 N   0  0  0  0  0  0  0  0  0  0  0  0
  1  2  2  0  0  0
  1  5  1  0  0  0
  2  3  1  0  0  0
  3 26  1  0  0  0
  3  4  2  0  0  0
  4  6  1  0  0  0
  4  5  1  0  0  0
  5  9  1  0  0  0
  6  7  2  0  0  0
  7 10  1  0  0  0
  7  8  1  0  0  0
  8  9  2  0  0  0
  9 18  1  0  0  0
 18 20  1  0  0  0
 20 21  2  0  0  0
 20 25  1  0  0  0
 21 22  1  0  0  0
 22 23  2  0  0  0
 23 24  1  0  0  0
 24 25  2  0  0  0
 10 15  1  0  0  0
 10 11  1  0  0  0
 11 12  1  0  0  0
 12 13  1  0  0  0
 13 14  1  0  0  0
 13 16  1  0  0  0
 14 15  1  0  0  0
 16 17  1  0  0  0
 26 27  3  0  0  0
 18 19  1  0  0  0
M  END
> <minimizedAffinity>
-8.52777

$$$$
2PVL_P55_A_501


 27 30  0  0  0  0  0  0  0  0999 V2000
   21.1172    8.2400   23.0827 N   0  0  0  0  0  0  0  0  0  0  0  0
   20.4597    8.0374   24.2495 C   0  0  0  0  0  0  0  0  0  0  0  0
   20.3246    6.6518   24.4564 C   0  0  0  0  0  0  0  0  0  0  0  0
   20.9640    6.0334   23.3128 C   0  0  0  0  0  0  0  0  0  0  0  0
   21.4184    7.0414   22.5109 N   0  0  0  0  0  0  0  0  0  0  0  0
   21.1647    4.7599   22.9394 N   0  0  0  0  0  0  0  0  0  0  0  0
   21.8041    4.5645   21.7883 C   0  0  0  0  0  0  0  0  0  0  0  0
   22.2453    5.5318   20.9904 N   0  0  0  0  0  0  0  0  0  0  0  0
   22.0401    6.7863   21.3726 C   0  0  0  0  0  0  0  0  0  0  0  0
   22.0554    3.2294   21.3846 N   0  0  0  0  0  0  0  0  0  0  0  0
   23.4326    2.7514   21.1697 C   0  0  0  0  0  0  0  0  0  0  0  0
   23.8864    1.8192   22.2994 C   0  0  0  0  0  0  0  0  0  0  0  0
   22.8514    0.7915   22.5249 N   0  0  0  0  0  0  0  0  0  0  0  0
   21.4988    1.2996   22.8056 C   0  0  0  0  0  0  0  0  0  0  0  0
   21.0099    2.2406   21.7053 C   0  0  0  0  0  0  0  0  0  0  0  0
   23.2206   -0.2391   23.5100 C   0  0  0  0  0  0  0  0  0  0  0  0
   22.0589   -0.5787   24.4494 C   0  0  0  0  0  0  0  0  0  0  0  0
   22.4345    7.8330   20.6052 N   0  0  0  0  0  0  0  0  0  0  0  0
   23.2630    8.3022   20.8557 H   0  0  0  0  0  0  0  0  0  0  0  0
   21.7576    8.2754   19.5113 C   0  0  0  0  0  0  0  0  0  0  0  0
   22.3167    8.2221   18.2323 C   0  0  0  0  0  0  0  0  0  0  0  0
   21.6648    8.7838   17.1375 C   0  0  0  0  0  0  0  0  0  0  0  0
   20.4279    9.4055   17.3164 C   0  0  0  0  0  0  0  0  0  0  0  0
   19.8349    9.4055   18.5786 C   0  0  0  0  0  0  0  0  0  0  0  0
   20.4908    8.8382   19.6720 C   0  0  0  0  0  0  0  0  0  0  0  0
   19.6552    6.0180   25.5542 C   0  0  0  0  0  0  0  0  0  0  0  0
   19.1153    5.4259   26.3927 N   0  0  0  0  0  0  0  0  0  0  0  0
  1  2  2  0  0  0
  1  5  1  0  0  0
  2  3  1  0  0  0
  3 26  1  0  0  0
  3  4  2  0  0  0
  4  6  1  0  0  0
  4  5  1  0  0  0
  5  9  1  0  0  0
  6  7  2  0  0  0
  7 10  1  0  0  0
  7  8  1  0  0  0
  8  9  2  0  0  0
  9 18  1  0  0  0
 18 20  1  0  0  0
 20 21  2  0  0  0
 20 25  1  0  0  0
 21 22  1  0  0  0
 22 23  2  0  0  0
 23 24  1  0  0  0
 24 25  2  0  0  0
 10 15  1  0  0  0
 10 11  1  0  0  0
 11 12  1  0  0  0
 12 13  1  0  0  0
 13 14  1  0  0  0
 13 16  1  0  0  0
 14 15  1  0  0  0
 16 17  1  0  0  0
 26 27  3  0  0  0
 18 19  1  0  0  0
M  END
> <minimizedAffinity>
-8.51061

$$$$
2PVL_P55_A_501


 27 30  0  0  0  0  0  0  0  0999 V2000
   22.4819    4.6385   20.4354 N   0  0  0  0  0  0  0  0  0  0  0  0
   22.4339    3.2888   20.3305 C   0  0  0  0  0  0  0  0  0  0  0  0
   21.7149    2.7765   21.4265 C   0  0  0  0  0  0  0  0  0  0  0  0
   21.3271    3.9374   22.2019 C   0  0  0  0  0  0  0  0  0  0  0  0
   21.8246    5.0356   21.5599 N   0  0  0  0  0  0  0  0  0  0  0  0
   20.6313    4.1033   23.3376 N   0  0  0  0  0  0  0  0  0  0  0  0
   20.4734    5.3526   23.7690 C   0  0  0  0  0  0  0  0  0  0  0  0
   20.9575    6.4325   23.1635 N   0  0  0  0  0  0  0  0  0  0  0  0
   21.6432    6.2533   22.0411 C   0  0  0  0  0  0  0  0  0  0  0  0
   19.7177    5.5588   24.9500 N   0  0  0  0  0  0  0  0  0  0  0  0
   19.5879    4.4935   25.9598 C   0  0  0  0  0  0  0  0  0  0  0  0
   20.4262    4.7968   27.2074 C   0  0  0  0  0  0  0  0  0  0  0  0
   20.1491    6.1760   27.6538 N   0  0  0  0  0  0  0  0  0  0  0  0
   20.3538    7.2265   26.6433 C   0  0  0  0  0  0  0  0  0  0  0  0
   19.5402    6.9585   25.3778 C   0  0  0  0  0  0  0  0  0  0  0  0
   20.8075    6.5516   28.9164 C   0  0  0  0  0  0  0  0  0  0  0  0
   22.2921    6.1729   28.9254 C   0  0  0  0  0  0  0  0  0  0  0  0
   22.1939    7.2983   21.3742 N   0  0  0  0  0  0  0  0  0  0  0  0
   23.0620    7.6400   21.6885 H   0  0  0  0  0  0  0  0  0  0  0  0
   21.6223    7.9038   20.2984 C   0  0  0  0  0  0  0  0  0  0  0  0
   22.2061    7.8491   19.0306 C   0  0  0  0  0  0  0  0  0  0  0  0
   21.6768    8.5688   17.9624 C   0  0  0  0  0  0  0  0  0  0  0  0
   20.5392    9.3540   18.1568 C   0  0  0  0  0  0  0  0  0  0  0  0
   19.9146    9.3622   19.4036 C   0  0  0  0  0  0  0  0  0  0  0  0
   20.4471    8.6365   20.4701 C   0  0  0  0  0  0  0  0  0  0  0  0
   21.4701    1.3928   21.7102 C   0  0  0  0  0  0  0  0  0  0  0  0
   21.1858    0.2855   21.9058 N   0  0  0  0  0  0  0  0  0  0  0  0
  1  2  2  0  0  0
  1  5  1  0  0  0
  2  3  1  0  0  0
  3 26  1  0  0  0
  3  4  2  0  0  0
  4  6  1  0  0  0
  4  5  1  0  0  0
  5  9  1  0  0  0
  6  7  2  0  0  0
  7 10  1  0  0  0
  7  8  1  0  0  0
  8  9  2  0  0  0
  9 18  1  0  0  0
 18 20  1  0  0  0
 20 21  2  0  0  0
 20 25  1  0  0  0
 21 22  1  0  0  0
 22 23  2  0  0  0
 23 24  1  0  0  0
 24 25  2  0  0  0
 10 15  1  0  0  0
 10 11  1  0  0  0
 11 12  1  0  0  0
 12 13  1  0  0  0
 13 14  1  0  0  0
 13 16  1  0  0  0
 14 15  1  0  0  0
 16 17  1  0  0  0
 26 27  3  0  0  0
 18 19  1  0  0  0
M  END
> <minimizedAffinity>
-8.38689

$$$$
2PVL_P55_A_501


 27 30  0  0  0  0  0  0  0  0999 V2000
   24.6825    3.9416   18.3668 N   0  0  0  0  0  0  0  0  0  0  0  0
   24.9356    2.6602   18.0082 C   0  0  0  0  0  0  0  0  0  0  0  0
   24.1143    1.8080   18.7699 C   0  0  0  0  0  0  0  0  0  0  0  0
   23.3372    2.6888   19.6182 C   0  0  0  0  0  0  0  0  0  0  0  0
   23.7279    3.9671   19.3376 N   0  0  0  0  0  0  0  0  0  0  0  0
   22.3907    2.4834   20.5475 N   0  0  0  0  0  0  0  0  0  0  0  0
   21.8903    3.5626   21.1447 C   0  0  0  0  0  0  0  0  0  0  0  0
   22.2639    4.8131   20.8918 N   0  0  0  0  0  0  0  0  0  0  0  0
   23.2005    5.0010   19.9702 C   0  0  0  0  0  0  0  0  0  0  0  0
   20.8685    3.3765   22.1089 N   0  0  0  0  0  0  0  0  0  0  0  0
   20.2996    2.0403   22.3589 C   0  0  0  0  0  0  0  0  0  0  0  0
   20.7826    1.4651   23.6957 C   0  0  0  0  0  0  0  0  0  0  0  0
   20.5976    2.4772   24.7538 N   0  0  0  0  0  0  0  0  0  0  0  0
   21.2356    3.7808   24.5079 C   0  0  0  0  0  0  0  0  0  0  0  0
   20.7862    4.3872   23.1791 C   0  0  0  0  0  0  0  0  0  0  0  0
   20.9169    2.0045   26.1115 C   0  0  0  0  0  0  0  0  0  0  0  0
   20.5199    3.0246   27.1836 C   0  0  0  0  0  0  0  0  0  0  0  0
   23.6583    6.2421   19.6698 N   0  0  0  0  0  0  0  0  0  0  0  0
   24.4616    6.5635   20.1395 H   0  0  0  0  0  0  0  0  0  0  0  0
   23.0775    7.0706   18.7604 C   0  0  0  0  0  0  0  0  0  0  0  0
   23.6779    7.3431   17.5290 C   0  0  0  0  0  0  0  0  0  0  0  0
   23.1350    8.2819   16.6554 C   0  0  0  0  0  0  0  0  0  0  0  0
   21.9670    8.9590   17.0102 C   0  0  0  0  0  0  0  0  0  0  0  0
   21.3279    8.6450   18.2092 C   0  0  0  0  0  0  0  0  0  0  0  0
   21.8741    7.7010   19.0798 C   0  0  0  0  0  0  0  0  0  0  0  0
   24.1016    0.3753   18.7233 C   0  0  0  0  0  0  0  0  0  0  0  0
   24.1735   -0.7793   18.6413 N   0  0  0  0  0  0  0  0  0  0  0  0
  1  2  2  0  0  0
  1  5  1  0  0  0
  2  3  1  0  0  0
  3 26  1  0  0  0
  3  4  2  0  0  0
  4  6  1  0  0  0
  4  5  1  0  0  0
  5  9  1  0  0  0
  6  7  2  0  0  0
  7 10  1  0  0  0
  7  8  1  0  0  0
  8  9  2  0  0  0
  9 18  1  0  0  0
 18 20  1  0  0  0
 20 21  2  0  0  0
 20 25  1  0  0  0
 21 22  1  0  0  0
 22 23  2  0  0  0
 23 24  1  0  0  0
 24 25  2  0  0  0
 10 15  1  0  0  0
 10 11  1  0  0  0
 11 12  1  0  0  0
 12 13  1  0  0  0
 13 14  1  0  0  0
 13 16  1  0  0  0
 14 15  1  0  0  0
 16 17  1  0  0  0
 26 27  3  0  0  0
 18 19  1  0  0  0
M  END
> <minimizedAffinity>
-8.12808

$$$$
2PVL_P55_A_501


 27 30  0  0  0  0  0  0  0  0999 V2000
   22.8852    0.9264   19.8451 N   0  0  0  0  0  0  0  0  0  0  0  0
   22.4031    0.9724   21.1101 C   0  0  0  0  0  0  0  0  0  0  0  0
   22.4240    2.3084   21.5523 C   0  0  0  0  0  0  0  0  0  0  0  0
   22.9569    3.0681   20.4396 C   0  0  0  0  0  0  0  0  0  0  0  0
   23.2257    2.1802   19.4371 N   0  0  0  0  0  0  0  0  0  0  0  0
   23.2112    4.3714   20.2443 N   0  0  0  0  0  0  0  0  0  0  0  0
   23.7204    4.7142   19.0631 C   0  0  0  0  0  0  0  0  0  0  0  0
   23.9971    3.8641   18.0793 N   0  0  0  0  0  0  0  0  0  0  0  0
   23.7400    2.5785   18.2865 C   0  0  0  0  0  0  0  0  0  0  0  0
   23.9709    6.0876   18.8194 N   0  0  0  0  0  0  0  0  0  0  0  0
   24.6182    6.5278   17.5709 C   0  0  0  0  0  0  0  0  0  0  0  0
   23.6157    7.2000   16.6251 C   0  0  0  0  0  0  0  0  0  0  0  0
   22.8498    8.2158   17.3732 N   0  0  0  0  0  0  0  0  0  0  0  0
   22.1569    7.7321   18.5785 C   0  0  0  0  0  0  0  0  0  0  0  0
   23.1205    7.0474   19.5468 C   0  0  0  0  0  0  0  0  0  0  0  0
   21.9307    9.0166   16.5469 C   0  0  0  0  0  0  0  0  0  0  0  0
   20.7001    9.4756   17.3358 C   0  0  0  0  0  0  0  0  0  0  0  0
   24.0167    1.6413   17.3455 N   0  0  0  0  0  0  0  0  0  0  0  0
   23.3193    1.4338   16.6823 H   0  0  0  0  0  0  0  0  0  0  0  0
   25.1969    0.9700   17.2606 C   0  0  0  0  0  0  0  0  0  0  0  0
   26.4234    1.6235   17.4015 C   0  0  0  0  0  0  0  0  0  0  0  0
   27.6254    0.9508   17.1966 C   0  0  0  0  0  0  0  0  0  0  0  0
   27.6080   -0.4016   16.8511 C   0  0  0  0  0  0  0  0  0  0  0  0
   26.3895   -1.0750   16.7718 C   0  0  0  0  0  0  0  0  0  0  0  0
   25.1878   -0.3972   16.9814 C   0  0  0  0  0  0  0  0  0  0  0  0
   22.0332    2.7807   22.8482 C   0  0  0  0  0  0  0  0  0  0  0  0
   21.6364    3.1901   23.8581 N   0  0  0  0  0  0  0  0  0  0  0  0
  1  2  2  0  0  0
  1  5  1  0  0  0
  2  3  1  0  0  0
  3 26  1  0  0  0
  3  4  2  0  0  0
  4  6  1  0  0  0
  4  5  1  0  0  0
  5  9  1  0  0  0
  6  7  2  0  0  0
  7 10  1  0  0  0
  7  8  1  0  0  0
  8  9  2  0  0  0
  9 18  1  0  0  0
 18 20  1  0  0  0
 20 21  2  0  0  0
 20 25  1  0  0  0
 21 22  1  0  0  0
 22 23  2  0  0  0
 23 24  1  0  0  0
 24 25  2  0  0  0
 10 15  1  0  0  0
 10 11  1  0  0  0
 11 12  1  0  0  0
 12 13  1  0  0  0
 13 14  1  0  0  0
 13 16  1  0  0  0
 14 15  1  0  0  0
 16 17  1  0  0  0
 26 27  3  0  0  0
 18 19  1  0  0  0
M  END
> <minimizedAffinity>
-7.86559

$$$$
2PVL_P55_A_501


 27 30  0  0  0  0  0  0  0  0999 V2000
   24.1041    5.2148   18.8971 N   0  0  0  0  0  0  0  0  0  0  0  0
   24.5766    4.2523   18.0695 C   0  0  0  0  0  0  0  0  0  0  0  0
   24.0760    3.0071   18.4935 C   0  0  0  0  0  0  0  0  0  0  0  0
   23.2534    3.3027   19.6490 C   0  0  0  0  0  0  0  0  0  0  0  0
   23.3133    4.6520   19.8522 N   0  0  0  0  0  0  0  0  0  0  0  0
   22.5148    2.5487   20.4782 N   0  0  0  0  0  0  0  0  0  0  0  0
   21.8809    3.1820   21.4626 C   0  0  0  0  0  0  0  0  0  0  0  0
   21.9343    4.4920   21.6818 N   0  0  0  0  0  0  0  0  0  0  0  0
   22.6682    5.2250   20.8536 C   0  0  0  0  0  0  0  0  0  0  0  0
   21.0703    2.4138   22.3351 N   0  0  0  0  0  0  0  0  0  0  0  0
   20.2757    1.2814   21.8275 C   0  0  0  0  0  0  0  0  0  0  0  0
   20.8843   -0.0631   22.2436 C   0  0  0  0  0  0  0  0  0  0  0  0
   21.1636   -0.0410   23.6926 N   0  0  0  0  0  0  0  0  0  0  0  0
   22.0171    1.0632   24.1606 C   0  0  0  0  0  0  0  0  0  0  0  0
   21.4494    2.4242   23.7599 C   0  0  0  0  0  0  0  0  0  0  0  0
   21.6445   -1.3208   24.2400 C   0  0  0  0  0  0  0  0  0  0  0  0
   22.6331   -1.1178   25.3928 C   0  0  0  0  0  0  0  0  0  0  0  0
   22.7982    6.5649   21.0210 N   0  0  0  0  0  0  0  0  0  0  0  0
   23.5971    6.8954   21.4920 H   0  0  0  0  0  0  0  0  0  0  0  0
   21.8944    7.4807   20.5793 C   0  0  0  0  0  0  0  0  0  0  0  0
   20.9461    8.0462   21.4349 C   0  0  0  0  0  0  0  0  0  0  0  0
   19.9522    8.8922   20.9497 C   0  0  0  0  0  0  0  0  0  0  0  0
   19.9040    9.1879   19.5863 C   0  0  0  0  0  0  0  0  0  0  0  0
   20.8858    8.6781   18.7374 C   0  0  0  0  0  0  0  0  0  0  0  0
   21.8819    7.8333   19.2291 C   0  0  0  0  0  0  0  0  0  0  0  0
   24.3686    1.7306   17.9106 C   0  0  0  0  0  0  0  0  0  0  0  0
   24.6921    0.7290   17.4235 N   0  0  0  0  0  0  0  0  0  0  0  0
  1  2  2  0  0  0
  1  5  1  0  0  0
  2  3  1  0  0  0
  3 26  1  0  0  0
  3  4  2  0  0  0
  4  6  1  0  0  0
  4  5  1  0  0  0
  5  9  1  0  0  0
  6  7  2  0  0  0
  7 10  1  0  0  0
  7  8  1  0  0  0
  8  9  2  0  0  0
  9 18  1  0  0  0
 18 20  1  0  0  0
 20 21  2  0  0  0
 20 25  1  0  0  0
 21 22  1  0  0  0
 22 23  2  0  0  0
 23 24  1  0  0  0
 24 25  2  0  0  0
 10 15  1  0  0  0
 10 11  1  0  0  0
 11 12  1  0  0  0
 12 13  1  0  0  0
 13 14  1  0  0  0
 13 16  1  0  0  0
 14 15  1  0  0  0
 16 17  1  0  0  0
 26 27  3  0  0  0
 18 19  1  0  0  0
M  END
> <minimizedAffinity>
-7.84753

$$$$
