1Q84_TZ4_A_951


 55 62  0  0  0  0  0  0  0  0999 V2000
   36.0211   22.4147    6.4274 C   0  0  0  0  0  0  0  0  0  0  0  0
   36.4368   23.8348    6.0234 C   0  0  0  0  0  0  0  0  0  0  0  0
   41.2819   28.0212    9.6390 N   0  0  0  0  0  0  0  0  0  0  0  0
   41.0164   27.1519    8.5998 C   0  0  0  0  0  0  0  0  0  0  0  0
   41.9919   26.8111    7.6167 C   0  0  0  0  0  0  0  0  0  0  0  0
   41.7183   25.9351    6.5732 C   0  0  0  0  0  0  0  0  0  0  0  0
   40.4550   25.2775    6.3754 C   0  0  0  0  0  0  0  0  0  0  0  0
   39.4553   25.6128    7.3600 C   0  0  0  0  0  0  0  0  0  0  0  0
   39.7816   26.5374    8.4290 C   0  0  0  0  0  0  0  0  0  0  0  0
   38.1351   25.1192    7.2016 C   0  0  0  0  0  0  0  0  0  0  0  0
   40.1062   24.4150    5.2526 C   0  0  0  0  0  0  0  0  0  0  0  0
   41.0529   23.8303    4.3228 C   0  0  0  0  0  0  0  0  0  0  0  0
   40.7273   22.8655    3.3765 C   0  0  0  0  0  0  0  0  0  0  0  0
   39.3928   22.3578    3.2647 C   0  0  0  0  0  0  0  0  0  0  0  0
   39.0226   21.3908    2.3485 N   0  0  0  0  0  0  0  0  0  0  0  0
   38.7540   23.9157    5.1395 C   0  0  0  0  0  0  0  0  0  0  0  0
   38.4717   22.8991    4.1666 C   0  0  0  0  0  0  0  0  0  0  0  0
   37.8503   24.3085    6.1465 N   0  0  0  0  0  0  0  0  0  0  0  0
   42.1721   28.4336    9.7206 H   0  0  0  0  0  0  0  0  0  0  0  0
   40.5810   28.2286   10.2986 H   0  0  0  0  0  0  0  0  0  0  0  0
   39.6888   21.0244    1.7232 H   0  0  0  0  0  0  0  0  0  0  0  0
   38.0926   21.0687    2.3214 H   0  0  0  0  0  0  0  0  0  0  0  0
   37.0983   25.4148    8.2441 C   0  0  0  0  0  0  0  0  0  0  0  0
   36.9509   24.4233    9.2258 C   0  0  0  0  0  0  0  0  0  0  0  0
   36.0181   24.5697   10.2494 C   0  0  0  0  0  0  0  0  0  0  0  0
   35.2084   25.7149   10.3339 C   0  0  0  0  0  0  0  0  0  0  0  0
   35.3403   26.7188    9.3716 C   0  0  0  0  0  0  0  0  0  0  0  0
   36.2805   26.5634    8.3424 C   0  0  0  0  0  0  0  0  0  0  0  0
   34.5761   22.5346    6.9467 C   0  0  0  0  0  0  0  0  0  0  0  0
   34.2982   21.6259    8.1333 C   0  0  0  0  0  0  0  0  0  0  0  0
   32.9969   20.8875    7.8646 C   0  0  0  0  0  0  0  0  0  0  0  0
   31.8097   21.8481    7.9354 C   0  0  0  0  0  0  0  0  0  0  0  0
   31.4987   21.8695    9.3666 C   0  0  0  0  0  0  0  0  0  0  0  0
   31.3039   20.7619   10.0622 N   0  0  0  0  0  0  0  0  0  0  0  0
   31.0942   21.1572   11.3155 N   0  0  0  0  0  0  0  0  0  0  0  0
   31.1594   22.4741   11.3975 N   0  0  0  0  0  0  0  0  0  0  0  0
   31.4320   22.9343   10.1831 C   0  0  0  0  0  0  0  0  0  0  0  0
   31.0049   23.3877   12.5178 C   0  0  0  0  0  0  0  0  0  0  0  0
   30.8425   22.5330   13.7690 C   0  0  0  0  0  0  0  0  0  0  0  0
   29.5306   22.8169   14.3016 N   0  0  0  0  0  0  0  0  0  0  0  0
   29.4581   23.6179   14.8694 H   0  0  0  0  0  0  0  0  0  0  0  0
   28.3841   22.1119   14.1138 C   0  0  0  0  0  0  0  0  0  0  0  0
   27.4054   22.8718   13.3865 C   0  0  0  0  0  0  0  0  0  0  0  0
   27.6226   24.1700   12.7869 C   0  0  0  0  0  0  0  0  0  0  0  0
   26.1263   22.2947   13.1904 C   0  0  0  0  0  0  0  0  0  0  0  0
   25.1306   23.0679   12.5188 C   0  0  0  0  0  0  0  0  0  0  0  0
   25.3733   24.2891   11.9882 C   0  0  0  0  0  0  0  0  0  0  0  0
   26.6482   24.8551   12.1427 C   0  0  0  0  0  0  0  0  0  0  0  0
   25.8393   21.0346   13.5944 N   0  0  0  0  0  0  0  0  0  0  0  0
   26.7477   20.3116   14.2665 C   0  0  0  0  0  0  0  0  0  0  0  0
   26.3475   19.0208   14.7961 C   0  0  0  0  0  0  0  0  0  0  0  0
   28.0543   20.8336   14.5889 C   0  0  0  0  0  0  0  0  0  0  0  0
   28.8136   20.0131   15.4948 C   0  0  0  0  0  0  0  0  0  0  0  0
   28.3321   18.8213   15.9690 C   0  0  0  0  0  0  0  0  0  0  0  0
   27.3030   18.1433   15.2567 C   0  0  0  0  0  0  0  0  0  0  0  0
  3  4  1  0  0  0
  4  5  2  0  0  0
  4  9  1  0  0  0
  5  6  1  0  0  0
  6  7  2  0  0  0
  7  8  1  0  0  0
  7 11  1  0  0  0
  8  9  2  0  0  0
  8 10  1  0  0  0
 10 23  1  0  0  0
 10 18  2  0  0  0
 23 24  2  0  0  0
 23 28  1  0  0  0
 24 25  1  0  0  0
 25 26  2  0  0  0
 26 27  1  0  0  0
 27 28  2  0  0  0
 11 12  2  0  0  0
 11 16  1  0  0  0
 12 13  1  0  0  0
 13 14  2  0  0  0
 14 15  1  0  0  0
 14 17  1  0  0  0
 16 17  2  0  0  0
 16 18  1  0  0  0
 18  2  1  0  0  0
  2  1  1  0  0  0
  1 29  1  0  0  0
 29 30  1  0  0  0
 30 31  1  0  0  0
 31 32  1  0  0  0
 32 33  1  0  0  0
 33 34  1  0  0  0
 33 37  2  0  0  0
 34 35  2  0  0  0
 35 36  1  0  0  0
 36 37  1  0  0  0
 36 38  1  0  0  0
 38 39  1  0  0  0
 39 40  1  0  0  0
 40 42  1  0  0  0
 42 43  2  0  0  0
 42 52  1  0  0  0
 43 44  1  0  0  0
 43 45  1  0  0  0
 44 48  2  0  0  0
 45 46  1  0  0  0
 45 49  2  0  0  0
 46 47  2  0  0  0
 47 48  1  0  0  0
 49 50  1  0  0  0
 50 51  1  0  0  0
 50 52  2  0  0  0
 51 55  1  0  0  0
 52 53  1  0  0  0
 53 54  1  0  0  0
 54 55  1  0  0  0
  3 19  1  0  0  0
  3 20  1  0  0  0
 15 21  1  0  0  0
 15 22  1  0  0  0
 40 41  1  0  0  0
M  CHG 1  18   1
M  END
> <minimizedAffinity>
-14.51674

$$$$
1Q84_TZ4_A_951


 55 62  0  0  0  0  0  0  0  0999 V2000
   35.9165   22.1594    6.8485 C   0  0  0  0  0  0  0  0  0  0  0  0
   36.2578   23.5651    6.3381 C   0  0  0  0  0  0  0  0  0  0  0  0
   41.1039   27.9896    9.6565 N   0  0  0  0  0  0  0  0  0  0  0  0
   40.8201   27.1021    8.6378 C   0  0  0  0  0  0  0  0  0  0  0  0
   41.7534   26.7985    7.6029 C   0  0  0  0  0  0  0  0  0  0  0  0
   41.4616   25.9037    6.5804 C   0  0  0  0  0  0  0  0  0  0  0  0
   40.2202   25.1888    6.4570 C   0  0  0  0  0  0  0  0  0  0  0  0
   39.2631   25.4859    7.4948 C   0  0  0  0  0  0  0  0  0  0  0  0
   39.6067   26.4316    8.5395 C   0  0  0  0  0  0  0  0  0  0  0  0
   37.9597   24.9325    7.4131 C   0  0  0  0  0  0  0  0  0  0  0  0
   39.8484   24.3036    5.3595 C   0  0  0  0  0  0  0  0  0  0  0  0
   40.7669   23.7554    4.3805 C   0  0  0  0  0  0  0  0  0  0  0  0
   40.4327   22.7704    3.4584 C   0  0  0  0  0  0  0  0  0  0  0  0
   39.1183   22.2027    3.4241 C   0  0  0  0  0  0  0  0  0  0  0  0
   38.7414   21.2136    2.5346 N   0  0  0  0  0  0  0  0  0  0  0  0
   38.5158   23.7435    5.3249 C   0  0  0  0  0  0  0  0  0  0  0  0
   38.2257   22.7085    4.3740 C   0  0  0  0  0  0  0  0  0  0  0  0
   37.6531   24.1025    6.3793 N   0  0  0  0  0  0  0  0  0  0  0  0
   41.9778   28.4421    9.6860 H   0  0  0  0  0  0  0  0  0  0  0  0
   40.4324   28.1701   10.3535 H   0  0  0  0  0  0  0  0  0  0  0  0
   39.3874   20.8730    1.8744 H   0  0  0  0  0  0  0  0  0  0  0  0
   37.8269   20.8500    2.5614 H   0  0  0  0  0  0  0  0  0  0  0  0
   36.9707   25.1887    8.5109 C   0  0  0  0  0  0  0  0  0  0  0  0
   36.2931   26.4138    8.4190 C   0  0  0  0  0  0  0  0  0  0  0  0
   35.3515   26.7790    9.3779 C   0  0  0  0  0  0  0  0  0  0  0  0
   35.0467   25.9296   10.4549 C   0  0  0  0  0  0  0  0  0  0  0  0
   35.7038   24.7019   10.5653 C   0  0  0  0  0  0  0  0  0  0  0  0
   36.6524   24.3419    9.5969 C   0  0  0  0  0  0  0  0  0  0  0  0
   34.3996   21.9959    6.6381 C   0  0  0  0  0  0  0  0  0  0  0  0
   33.7146   21.2965    7.8010 C   0  0  0  0  0  0  0  0  0  0  0  0
   32.2421   21.6730    7.7739 C   0  0  0  0  0  0  0  0  0  0  0  0
   31.8923   22.5601    8.9687 C   0  0  0  0  0  0  0  0  0  0  0  0
   31.6284   21.5832   10.0278 C   0  0  0  0  0  0  0  0  0  0  0  0
   31.4578   20.2968    9.7735 N   0  0  0  0  0  0  0  0  0  0  0  0
   31.2890   19.7158   10.9588 N   0  0  0  0  0  0  0  0  0  0  0  0
   31.3552   20.6157   11.9236 N   0  0  0  0  0  0  0  0  0  0  0  0
   31.5872   21.7917   11.3543 C   0  0  0  0  0  0  0  0  0  0  0  0
   31.2365   20.5034   13.3683 C   0  0  0  0  0  0  0  0  0  0  0  0
   30.9563   21.9033   13.9013 C   0  0  0  0  0  0  0  0  0  0  0  0
   29.7816   21.8055   14.7354 N   0  0  0  0  0  0  0  0  0  0  0  0
   29.9416   21.7738   15.7063 H   0  0  0  0  0  0  0  0  0  0  0  0
   28.4819   21.7519   14.3421 C   0  0  0  0  0  0  0  0  0  0  0  0
   27.8639   20.5096   14.7152 C   0  0  0  0  0  0  0  0  0  0  0  0
   28.4684   19.4801   15.5317 C   0  0  0  0  0  0  0  0  0  0  0  0
   26.5311   20.2768   14.2943 C   0  0  0  0  0  0  0  0  0  0  0  0
   25.9307   19.0202   14.6121 C   0  0  0  0  0  0  0  0  0  0  0  0
   26.5415   18.0762   15.3655 C   0  0  0  0  0  0  0  0  0  0  0  0
   27.8481   18.3116   15.8206 C   0  0  0  0  0  0  0  0  0  0  0  0
   25.8146   21.2156   13.6320 N   0  0  0  0  0  0  0  0  0  0  0  0
   26.3775   22.3830   13.2859 C   0  0  0  0  0  0  0  0  0  0  0  0
   25.6129   23.2997   12.4601 C   0  0  0  0  0  0  0  0  0  0  0  0
   27.7534   22.6904   13.5956 C   0  0  0  0  0  0  0  0  0  0  0  0
   28.2510   23.8837   12.9641 C   0  0  0  0  0  0  0  0  0  0  0  0
   27.4564   24.6678   12.1699 C   0  0  0  0  0  0  0  0  0  0  0  0
   26.0408   24.5986   12.3019 C   0  0  0  0  0  0  0  0  0  0  0  0
  3  4  1  0  0  0
  4  5  2  0  0  0
  4  9  1  0  0  0
  5  6  1  0  0  0
  6  7  2  0  0  0
  7  8  1  0  0  0
  7 11  1  0  0  0
  8  9  2  0  0  0
  8 10  1  0  0  0
 10 23  1  0  0  0
 10 18  2  0  0  0
 23 24  2  0  0  0
 23 28  1  0  0  0
 24 25  1  0  0  0
 25 26  2  0  0  0
 26 27  1  0  0  0
 27 28  2  0  0  0
 11 12  2  0  0  0
 11 16  1  0  0  0
 12 13  1  0  0  0
 13 14  2  0  0  0
 14 15  1  0  0  0
 14 17  1  0  0  0
 16 17  2  0  0  0
 16 18  1  0  0  0
 18  2  1  0  0  0
  2  1  1  0  0  0
  1 29  1  0  0  0
 29 30  1  0  0  0
 30 31  1  0  0  0
 31 32  1  0  0  0
 32 33  1  0  0  0
 33 34  1  0  0  0
 33 37  2  0  0  0
 34 35  2  0  0  0
 35 36  1  0  0  0
 36 37  1  0  0  0
 36 38  1  0  0  0
 38 39  1  0  0  0
 39 40  1  0  0  0
 40 42  1  0  0  0
 42 43  2  0  0  0
 42 52  1  0  0  0
 43 44  1  0  0  0
 43 45  1  0  0  0
 44 48  2  0  0  0
 45 46  1  0  0  0
 45 49  2  0  0  0
 46 47  2  0  0  0
 47 48  1  0  0  0
 49 50  1  0  0  0
 50 51  1  0  0  0
 50 52  2  0  0  0
 51 55  1  0  0  0
 52 53  1  0  0  0
 53 54  1  0  0  0
 54 55  1  0  0  0
  3 19  1  0  0  0
  3 20  1  0  0  0
 15 21  1  0  0  0
 15 22  1  0  0  0
 40 41  1  0  0  0
M  CHG 1  18   1
M  END
> <minimizedAffinity>
-13.75754

$$$$
1Q84_TZ4_A_951


 55 62  0  0  0  0  0  0  0  0999 V2000
   35.3438   22.8561    5.1829 C   0  0  0  0  0  0  0  0  0  0  0  0
   36.6296   22.5586    5.9645 C   0  0  0  0  0  0  0  0  0  0  0  0
   42.4864   27.0001    5.7515 N   0  0  0  0  0  0  0  0  0  0  0  0
   41.3664   26.5543    6.4246 C   0  0  0  0  0  0  0  0  0  0  0  0
   41.0319   27.0009    7.7372 C   0  0  0  0  0  0  0  0  0  0  0  0
   39.9028   26.5485    8.4090 C   0  0  0  0  0  0  0  0  0  0  0  0
   38.9574   25.6101    7.8675 C   0  0  0  0  0  0  0  0  0  0  0  0
   39.2817   25.1458    6.5406 C   0  0  0  0  0  0  0  0  0  0  0  0
   40.4743   25.6391    5.8785 C   0  0  0  0  0  0  0  0  0  0  0  0
   38.4885   24.1290    5.9501 C   0  0  0  0  0  0  0  0  0  0  0  0
   37.8065   25.0539    8.5692 C   0  0  0  0  0  0  0  0  0  0  0  0
   37.2465   25.5760    9.8006 C   0  0  0  0  0  0  0  0  0  0  0  0
   36.0440   25.1535   10.3552 C   0  0  0  0  0  0  0  0  0  0  0  0
   35.2450   24.1511    9.7165 C   0  0  0  0  0  0  0  0  0  0  0  0
   34.0374   23.7066   10.2221 N   0  0  0  0  0  0  0  0  0  0  0  0
   37.0113   24.0337    7.9230 C   0  0  0  0  0  0  0  0  0  0  0  0
   35.7630   23.6502    8.5182 C   0  0  0  0  0  0  0  0  0  0  0  0
   37.4163   23.6419    6.6317 N   0  0  0  0  0  0  0  0  0  0  0  0
   43.0910   27.6495    6.1780 H   0  0  0  0  0  0  0  0  0  0  0  0
   42.6804   26.6685    4.8451 H   0  0  0  0  0  0  0  0  0  0  0  0
   33.6927   24.0741   11.0679 H   0  0  0  0  0  0  0  0  0  0  0  0
   33.5223   23.0225    9.7364 H   0  0  0  0  0  0  0  0  0  0  0  0
   38.7803   23.6735    4.5514 C   0  0  0  0  0  0  0  0  0  0  0  0
   39.6998   22.6182    4.4554 C   0  0  0  0  0  0  0  0  0  0  0  0
   40.0639   22.1033    3.2138 C   0  0  0  0  0  0  0  0  0  0  0  0
   39.5151   22.6171    2.0268 C   0  0  0  0  0  0  0  0  0  0  0  0
   38.5931   23.6643    2.0963 C   0  0  0  0  0  0  0  0  0  0  0  0
   38.2328   24.1790    3.3503 C   0  0  0  0  0  0  0  0  0  0  0  0
   34.4635   21.6014    5.3344 C   0  0  0  0  0  0  0  0  0  0  0  0
   33.2133   21.8542    6.1613 C   0  0  0  0  0  0  0  0  0  0  0  0
   33.4908   21.3964    7.5840 C   0  0  0  0  0  0  0  0  0  0  0  0
   32.3526   20.5136    8.0960 C   0  0  0  0  0  0  0  0  0  0  0  0
   31.9080   21.2263    9.2958 C   0  0  0  0  0  0  0  0  0  0  0  0
   31.5205   22.4901    9.2619 N   0  0  0  0  0  0  0  0  0  0  0  0
   31.1482   22.7850   10.5050 N   0  0  0  0  0  0  0  0  0  0  0  0
   31.2976   21.7329   11.2898 N   0  0  0  0  0  0  0  0  0  0  0  0
   31.7567   20.7398   10.5389 C   0  0  0  0  0  0  0  0  0  0  0  0
   31.0414   21.5321   12.7067 C   0  0  0  0  0  0  0  0  0  0  0  0
   30.7329   22.9012   13.3008 C   0  0  0  0  0  0  0  0  0  0  0  0
   29.6745   22.7097   14.2644 N   0  0  0  0  0  0  0  0  0  0  0  0
   29.8276   23.0942   15.1577 H   0  0  0  0  0  0  0  0  0  0  0  0
   28.4926   22.0628   14.0871 C   0  0  0  0  0  0  0  0  0  0  0  0
   27.5436   22.8739   13.3758 C   0  0  0  0  0  0  0  0  0  0  0  0
   27.8169   24.1634   12.7804 C   0  0  0  0  0  0  0  0  0  0  0  0
   26.2354   22.3612   13.1925 C   0  0  0  0  0  0  0  0  0  0  0  0
   25.2708   23.1861   12.5372 C   0  0  0  0  0  0  0  0  0  0  0  0
   25.5667   24.3970   12.0100 C   0  0  0  0  0  0  0  0  0  0  0  0
   26.8696   24.8990   12.1518 C   0  0  0  0  0  0  0  0  0  0  0  0
   25.8920   21.1144   13.5935 N   0  0  0  0  0  0  0  0  0  0  0  0
   26.7719   20.3439   14.2506 C   0  0  0  0  0  0  0  0  0  0  0  0
   26.3152   19.0712   14.7784 C   0  0  0  0  0  0  0  0  0  0  0  0
   28.1062   20.7994   14.5596 C   0  0  0  0  0  0  0  0  0  0  0  0
   28.8353   19.9376   15.4518 C   0  0  0  0  0  0  0  0  0  0  0  0
   28.3017   18.7680   15.9256 C   0  0  0  0  0  0  0  0  0  0  0  0
   27.2321   18.1453   15.2226 C   0  0  0  0  0  0  0  0  0  0  0  0
  3  4  1  0  0  0
  4  5  2  0  0  0
  4  9  1  0  0  0
  5  6  1  0  0  0
  6  7  2  0  0  0
  7  8  1  0  0  0
  7 11  1  0  0  0
  8  9  2  0  0  0
  8 10  1  0  0  0
 10 23  1  0  0  0
 10 18  2  0  0  0
 23 24  2  0  0  0
 23 28  1  0  0  0
 24 25  1  0  0  0
 25 26  2  0  0  0
 26 27  1  0  0  0
 27 28  2  0  0  0
 11 12  2  0  0  0
 11 16  1  0  0  0
 12 13  1  0  0  0
 13 14  2  0  0  0
 14 15  1  0  0  0
 14 17  1  0  0  0
 16 17  2  0  0  0
 16 18  1  0  0  0
 18  2  1  0  0  0
  2  1  1  0  0  0
  1 29  1  0  0  0
 29 30  1  0  0  0
 30 31  1  0  0  0
 31 32  1  0  0  0
 32 33  1  0  0  0
 33 34  1  0  0  0
 33 37  2  0  0  0
 34 35  2  0  0  0
 35 36  1  0  0  0
 36 37  1  0  0  0
 36 38  1  0  0  0
 38 39  1  0  0  0
 39 40  1  0  0  0
 40 42  1  0  0  0
 42 43  2  0  0  0
 42 52  1  0  0  0
 43 44  1  0  0  0
 43 45  1  0  0  0
 44 48  2  0  0  0
 45 46  1  0  0  0
 45 49  2  0  0  0
 46 47  2  0  0  0
 47 48  1  0  0  0
 49 50  1  0  0  0
 50 51  1  0  0  0
 50 52  2  0  0  0
 51 55  1  0  0  0
 52 53  1  0  0  0
 53 54  1  0  0  0
 54 55  1  0  0  0
  3 19  1  0  0  0
  3 20  1  0  0  0
 15 21  1  0  0  0
 15 22  1  0  0  0
 40 41  1  0  0  0
M  CHG 1  18   1
M  END
> <minimizedAffinity>
-13.65249

$$$$
1Q84_TZ4_A_951


 55 62  0  0  0  0  0  0  0  0999 V2000
   36.2544   21.6037    5.4165 C   0  0  0  0  0  0  0  0  0  0  0  0
   37.2316   22.6090    6.0388 C   0  0  0  0  0  0  0  0  0  0  0  0
   36.1124   29.8380    6.7884 N   0  0  0  0  0  0  0  0  0  0  0  0
   36.6080   28.7916    6.0363 C   0  0  0  0  0  0  0  0  0  0  0  0
   37.1607   28.9769    4.7347 C   0  0  0  0  0  0  0  0  0  0  0  0
   37.6583   27.9193    3.9830 C   0  0  0  0  0  0  0  0  0  0  0  0
   37.6841   26.5511    4.4244 C   0  0  0  0  0  0  0  0  0  0  0  0
   37.1263   26.3451    5.7388 C   0  0  0  0  0  0  0  0  0  0  0  0
   36.6116   27.4766    6.4862 C   0  0  0  0  0  0  0  0  0  0  0  0
   36.9882   25.0225    6.2324 C   0  0  0  0  0  0  0  0  0  0  0  0
   38.1251   25.4063    3.6362 C   0  0  0  0  0  0  0  0  0  0  0  0
   38.8923   25.4832    2.4081 C   0  0  0  0  0  0  0  0  0  0  0  0
   39.4632   24.3875    1.7713 C   0  0  0  0  0  0  0  0  0  0  0  0
   39.3393   23.0677    2.3135 C   0  0  0  0  0  0  0  0  0  0  0  0
   39.8984   21.9490    1.7241 N   0  0  0  0  0  0  0  0  0  0  0  0
   37.9861   24.0758    4.1850 C   0  0  0  0  0  0  0  0  0  0  0  0
   38.6170   22.9793    3.5075 C   0  0  0  0  0  0  0  0  0  0  0  0
   37.4208   23.9803    5.4720 N   0  0  0  0  0  0  0  0  0  0  0  0
   36.1303   30.7544    6.4288 H   0  0  0  0  0  0  0  0  0  0  0  0
   35.7411   29.6679    7.6841 H   0  0  0  0  0  0  0  0  0  0  0  0
   40.4029   22.0359    0.8831 H   0  0  0  0  0  0  0  0  0  0  0  0
   39.7921   21.0655    2.1453 H   0  0  0  0  0  0  0  0  0  0  0  0
   36.4599   24.7949    7.6173 C   0  0  0  0  0  0  0  0  0  0  0  0
   35.0639   24.6848    7.7043 C   0  0  0  0  0  0  0  0  0  0  0  0
   34.4424   24.4782    8.9333 C   0  0  0  0  0  0  0  0  0  0  0  0
   35.1934   24.3640   10.1153 C   0  0  0  0  0  0  0  0  0  0  0  0
   36.5854   24.4645   10.0540 C   0  0  0  0  0  0  0  0  0  0  0  0
   37.2041   24.6747    8.8130 C   0  0  0  0  0  0  0  0  0  0  0  0
   34.8799   21.9200    6.0354 C   0  0  0  0  0  0  0  0  0  0  0  0
   34.1992   20.6926    6.6192 C   0  0  0  0  0  0  0  0  0  0  0  0
   33.6462   21.0673    7.9847 C   0  0  0  0  0  0  0  0  0  0  0  0
   32.2007   21.5502    7.8647 C   0  0  0  0  0  0  0  0  0  0  0  0
   31.7736   21.6363    9.2631 C   0  0  0  0  0  0  0  0  0  0  0  0
   31.6237   20.5636   10.0216 N   0  0  0  0  0  0  0  0  0  0  0  0
   31.2779   21.0189   11.2233 N   0  0  0  0  0  0  0  0  0  0  0  0
   31.2168   22.3385   11.2130 N   0  0  0  0  0  0  0  0  0  0  0  0
   31.5446   22.7414    9.9919 C   0  0  0  0  0  0  0  0  0  0  0  0
   30.8897   23.3051   12.2485 C   0  0  0  0  0  0  0  0  0  0  0  0
   30.7488   22.5289   13.5524 C   0  0  0  0  0  0  0  0  0  0  0  0
   29.4467   22.8471   14.0895 N   0  0  0  0  0  0  0  0  0  0  0  0
   29.3841   23.6826   14.6065 H   0  0  0  0  0  0  0  0  0  0  0  0
   28.2972   22.1324   13.9676 C   0  0  0  0  0  0  0  0  0  0  0  0
   27.2781   22.8770   13.2810 C   0  0  0  0  0  0  0  0  0  0  0  0
   27.4559   24.1692   12.6560 C   0  0  0  0  0  0  0  0  0  0  0  0
   25.9949   22.2893   13.1560 C   0  0  0  0  0  0  0  0  0  0  0  0
   24.9615   23.0478   12.5257 C   0  0  0  0  0  0  0  0  0  0  0  0
   25.1688   24.2640   11.9692 C   0  0  0  0  0  0  0  0  0  0  0  0
   26.4459   24.8401   12.0532 C   0  0  0  0  0  0  0  0  0  0  0  0
   25.7374   21.0324   13.5887 N   0  0  0  0  0  0  0  0  0  0  0  0
   26.6832   20.3236   14.2232 C   0  0  0  0  0  0  0  0  0  0  0  0
   26.3191   19.0368   14.7874 C   0  0  0  0  0  0  0  0  0  0  0  0
   28.0005   20.8579   14.4737 C   0  0  0  0  0  0  0  0  0  0  0  0
   28.8099   20.0535   15.3502 C   0  0  0  0  0  0  0  0  0  0  0  0
   28.3610   18.8645   15.8620 C   0  0  0  0  0  0  0  0  0  0  0  0
   27.3025   18.1711   15.2100 C   0  0  0  0  0  0  0  0  0  0  0  0
  3  4  1  0  0  0
  4  5  2  0  0  0
  4  9  1  0  0  0
  5  6  1  0  0  0
  6  7  2  0  0  0
  7  8  1  0  0  0
  7 11  1  0  0  0
  8  9  2  0  0  0
  8 10  1  0  0  0
 10 23  1  0  0  0
 10 18  2  0  0  0
 23 24  2  0  0  0
 23 28  1  0  0  0
 24 25  1  0  0  0
 25 26  2  0  0  0
 26 27  1  0  0  0
 27 28  2  0  0  0
 11 12  2  0  0  0
 11 16  1  0  0  0
 12 13  1  0  0  0
 13 14  2  0  0  0
 14 15  1  0  0  0
 14 17  1  0  0  0
 16 17  2  0  0  0
 16 18  1  0  0  0
 18  2  1  0  0  0
  2  1  1  0  0  0
  1 29  1  0  0  0
 29 30  1  0  0  0
 30 31  1  0  0  0
 31 32  1  0  0  0
 32 33  1  0  0  0
 33 34  1  0  0  0
 33 37  2  0  0  0
 34 35  2  0  0  0
 35 36  1  0  0  0
 36 37  1  0  0  0
 36 38  1  0  0  0
 38 39  1  0  0  0
 39 40  1  0  0  0
 40 42  1  0  0  0
 42 43  2  0  0  0
 42 52  1  0  0  0
 43 44  1  0  0  0
 43 45  1  0  0  0
 44 48  2  0  0  0
 45 46  1  0  0  0
 45 49  2  0  0  0
 46 47  2  0  0  0
 47 48  1  0  0  0
 49 50  1  0  0  0
 50 51  1  0  0  0
 50 52  2  0  0  0
 51 55  1  0  0  0
 52 53  1  0  0  0
 53 54  1  0  0  0
 54 55  1  0  0  0
  3 19  1  0  0  0
  3 20  1  0  0  0
 15 21  1  0  0  0
 15 22  1  0  0  0
 40 41  1  0  0  0
M  CHG 1  18   1
M  END
> <minimizedAffinity>
-13.00496

$$$$
1Q84_TZ4_A_951


 55 62  0  0  0  0  0  0  0  0999 V2000
   35.6653   22.1051    5.5060 C   0  0  0  0  0  0  0  0  0  0  0  0
   35.9451   23.5949    5.2710 C   0  0  0  0  0  0  0  0  0  0  0  0
   42.3549   27.1556    4.7148 N   0  0  0  0  0  0  0  0  0  0  0  0
   41.3489   26.6530    5.5158 C   0  0  0  0  0  0  0  0  0  0  0  0
   41.4098   26.6944    6.9401 C   0  0  0  0  0  0  0  0  0  0  0  0
   40.3936   26.1870    7.7407 C   0  0  0  0  0  0  0  0  0  0  0  0
   39.1871   25.5873    7.2384 C   0  0  0  0  0  0  0  0  0  0  0  0
   39.1100   25.5350    5.7987 C   0  0  0  0  0  0  0  0  0  0  0  0
   40.1969   26.0703    5.0012 C   0  0  0  0  0  0  0  0  0  0  0  0
   38.0227   24.8593    5.1881 C   0  0  0  0  0  0  0  0  0  0  0  0
   38.1367   24.9753    8.0435 C   0  0  0  0  0  0  0  0  0  0  0  0
   37.9787   25.1400    9.4755 C   0  0  0  0  0  0  0  0  0  0  0  0
   36.8720   24.7066   10.1964 C   0  0  0  0  0  0  0  0  0  0  0  0
   35.7711   24.0606    9.5469 C   0  0  0  0  0  0  0  0  0  0  0  0
   34.6444   23.6226   10.2179 N   0  0  0  0  0  0  0  0  0  0  0  0
   37.0343   24.3144    7.3812 C   0  0  0  0  0  0  0  0  0  0  0  0
   35.9006   23.9101    8.1628 C   0  0  0  0  0  0  0  0  0  0  0  0
   37.0562   24.3095    5.9725 N   0  0  0  0  0  0  0  0  0  0  0  0
   43.1539   27.5601    5.1236 H   0  0  0  0  0  0  0  0  0  0  0  0
   42.2731   27.1096    3.7347 H   0  0  0  0  0  0  0  0  0  0  0  0
   34.5757   23.7394   11.1930 H   0  0  0  0  0  0  0  0  0  0  0  0
   33.9108   23.1940    9.7205 H   0  0  0  0  0  0  0  0  0  0  0  0
   37.9001   24.8420    3.6935 C   0  0  0  0  0  0  0  0  0  0  0  0
   38.5536   23.7734    3.0614 C   0  0  0  0  0  0  0  0  0  0  0  0
   38.5239   23.6419    1.6753 C   0  0  0  0  0  0  0  0  0  0  0  0
   37.8325   24.5662    0.8742 C   0  0  0  0  0  0  0  0  0  0  0  0
   37.1691   25.6358    1.4804 C   0  0  0  0  0  0  0  0  0  0  0  0
   37.2052   25.7628    2.8767 C   0  0  0  0  0  0  0  0  0  0  0  0
   34.1415   21.9921    5.6993 C   0  0  0  0  0  0  0  0  0  0  0  0
   33.7347   20.7417    6.4620 C   0  0  0  0  0  0  0  0  0  0  0  0
   33.4184   21.1464    7.8927 C   0  0  0  0  0  0  0  0  0  0  0  0
   32.0386   21.7995    7.9737 C   0  0  0  0  0  0  0  0  0  0  0  0
   31.6931   21.6461    9.3888 C   0  0  0  0  0  0  0  0  0  0  0  0
   31.6281   20.4621    9.9740 N   0  0  0  0  0  0  0  0  0  0  0  0
   31.3384   20.7074   11.2495 N   0  0  0  0  0  0  0  0  0  0  0  0
   31.2287   22.0082   11.4523 N   0  0  0  0  0  0  0  0  0  0  0  0
   31.4679   22.6118   10.2951 C   0  0  0  0  0  0  0  0  0  0  0  0
   30.9290   22.7848   12.6442 C   0  0  0  0  0  0  0  0  0  0  0  0
   30.6627   21.7899   13.7676 C   0  0  0  0  0  0  0  0  0  0  0  0
   29.4759   22.2429   14.4543 N   0  0  0  0  0  0  0  0  0  0  0  0
   29.6239   22.7961   15.2552 H   0  0  0  0  0  0  0  0  0  0  0  0
   28.1795   21.9979   14.1287 C   0  0  0  0  0  0  0  0  0  0  0  0
   27.7619   20.6908   14.5547 C   0  0  0  0  0  0  0  0  0  0  0  0
   28.5441   19.7767   15.3575 C   0  0  0  0  0  0  0  0  0  0  0  0
   26.4567   20.2630   14.2065 C   0  0  0  0  0  0  0  0  0  0  0  0
   26.0558   18.9429   14.5767 C   0  0  0  0  0  0  0  0  0  0  0  0
   26.8292   18.1128   15.3145 C   0  0  0  0  0  0  0  0  0  0  0  0
   28.1098   18.5402   15.6982 C   0  0  0  0  0  0  0  0  0  0  0  0
   25.5838   21.0754   13.5650 N   0  0  0  0  0  0  0  0  0  0  0  0
   25.9589   22.3013   13.1700 C   0  0  0  0  0  0  0  0  0  0  0  0
   25.0338   23.0810   12.3681 C   0  0  0  0  0  0  0  0  0  0  0  0
   27.2908   22.8062   13.4038 C   0  0  0  0  0  0  0  0  0  0  0  0
   27.5840   24.0415   12.7267 C   0  0  0  0  0  0  0  0  0  0  0  0
   26.6494   24.6866   11.9602 C   0  0  0  0  0  0  0  0  0  0  0  0
   25.2657   24.4228   12.1653 C   0  0  0  0  0  0  0  0  0  0  0  0
  3  4  1  0  0  0
  4  5  2  0  0  0
  4  9  1  0  0  0
  5  6  1  0  0  0
  6  7  2  0  0  0
  7  8  1  0  0  0
  7 11  1  0  0  0
  8  9  2  0  0  0
  8 10  1  0  0  0
 10 23  1  0  0  0
 10 18  2  0  0  0
 23 24  2  0  0  0
 23 28  1  0  0  0
 24 25  1  0  0  0
 25 26  2  0  0  0
 26 27  1  0  0  0
 27 28  2  0  0  0
 11 12  2  0  0  0
 11 16  1  0  0  0
 12 13  1  0  0  0
 13 14  2  0  0  0
 14 15  1  0  0  0
 14 17  1  0  0  0
 16 17  2  0  0  0
 16 18  1  0  0  0
 18  2  1  0  0  0
  2  1  1  0  0  0
  1 29  1  0  0  0
 29 30  1  0  0  0
 30 31  1  0  0  0
 31 32  1  0  0  0
 32 33  1  0  0  0
 33 34  1  0  0  0
 33 37  2  0  0  0
 34 35  2  0  0  0
 35 36  1  0  0  0
 36 37  1  0  0  0
 36 38  1  0  0  0
 38 39  1  0  0  0
 39 40  1  0  0  0
 40 42  1  0  0  0
 42 43  2  0  0  0
 42 52  1  0  0  0
 43 44  1  0  0  0
 43 45  1  0  0  0
 44 48  2  0  0  0
 45 46  1  0  0  0
 45 49  2  0  0  0
 46 47  2  0  0  0
 47 48  1  0  0  0
 49 50  1  0  0  0
 50 51  1  0  0  0
 50 52  2  0  0  0
 51 55  1  0  0  0
 52 53  1  0  0  0
 53 54  1  0  0  0
 54 55  1  0  0  0
  3 19  1  0  0  0
  3 20  1  0  0  0
 15 21  1  0  0  0
 15 22  1  0  0  0
 40 41  1  0  0  0
M  CHG 1  18   1
M  END
> <minimizedAffinity>
-12.69613

$$$$
1Q84_TZ4_A_951


 55 62  0  0  0  0  0  0  0  0999 V2000
   35.9280   22.5042    6.4842 C   0  0  0  0  0  0  0  0  0  0  0  0
   36.4054   23.8574    5.9422 C   0  0  0  0  0  0  0  0  0  0  0  0
   41.3324   27.8423    9.6730 N   0  0  0  0  0  0  0  0  0  0  0  0
   41.0487   27.0123    8.6068 C   0  0  0  0  0  0  0  0  0  0  0  0
   42.0147   26.6883    7.6088 C   0  0  0  0  0  0  0  0  0  0  0  0
   41.7228   25.8519    6.5382 C   0  0  0  0  0  0  0  0  0  0  0  0
   40.4481   25.2218    6.3243 C   0  0  0  0  0  0  0  0  0  0  0  0
   39.4578   25.5407    7.3237 C   0  0  0  0  0  0  0  0  0  0  0  0
   39.8033   26.4240    8.4211 C   0  0  0  0  0  0  0  0  0  0  0  0
   38.1290   25.0742    7.1548 C   0  0  0  0  0  0  0  0  0  0  0  0
   40.0809   24.4027    5.1751 C   0  0  0  0  0  0  0  0  0  0  0  0
   41.0143   23.8337    4.2224 C   0  0  0  0  0  0  0  0  0  0  0  0
   40.6693   22.9062    3.2462 C   0  0  0  0  0  0  0  0  0  0  0  0
   39.3262   22.4243    3.1235 C   0  0  0  0  0  0  0  0  0  0  0  0
   38.9367   21.4943    2.1775 N   0  0  0  0  0  0  0  0  0  0  0  0
   38.7202   23.9296    5.0514 C   0  0  0  0  0  0  0  0  0  0  0  0
   38.4175   22.9505    4.0468 C   0  0  0  0  0  0  0  0  0  0  0  0
   37.8269   24.3037    6.0747 N   0  0  0  0  0  0  0  0  0  0  0  0
   42.2295   28.2372    9.7643 H   0  0  0  0  0  0  0  0  0  0  0  0
   40.6375   28.0392   10.3420 H   0  0  0  0  0  0  0  0  0  0  0  0
   39.5944   21.1379    1.5376 H   0  0  0  0  0  0  0  0  0  0  0  0
   38.0015   21.1885    2.1439 H   0  0  0  0  0  0  0  0  0  0  0  0
   37.1012   25.3521    8.2109 C   0  0  0  0  0  0  0  0  0  0  0  0
   36.3743   26.5381    8.0277 C   0  0  0  0  0  0  0  0  0  0  0  0
   35.3929   26.9183    8.9396 C   0  0  0  0  0  0  0  0  0  0  0  0
   35.0965   26.1229   10.0592 C   0  0  0  0  0  0  0  0  0  0  0  0
   35.8026   24.9346   10.2607 C   0  0  0  0  0  0  0  0  0  0  0  0
   36.7910   24.5592    9.3391 C   0  0  0  0  0  0  0  0  0  0  0  0
   34.5094   22.7505    7.0310 C   0  0  0  0  0  0  0  0  0  0  0  0
   34.2067   21.9325    8.2760 C   0  0  0  0  0  0  0  0  0  0  0  0
   32.6968   21.8075    8.4001 C   0  0  0  0  0  0  0  0  0  0  0  0
   32.2076   22.4647    9.6907 C   0  0  0  0  0  0  0  0  0  0  0  0
   31.7083   21.3245   10.4626 C   0  0  0  0  0  0  0  0  0  0  0  0
   31.4302   20.1603    9.9005 N   0  0  0  0  0  0  0  0  0  0  0  0
   31.0523   19.3621   10.8960 N   0  0  0  0  0  0  0  0  0  0  0  0
   31.0965   20.0112   12.0457 N   0  0  0  0  0  0  0  0  0  0  0  0
   31.5255   21.2408   11.7909 C   0  0  0  0  0  0  0  0  0  0  0  0
   30.7873   19.6021   13.4061 C   0  0  0  0  0  0  0  0  0  0  0  0
   29.2703   19.6393   13.5473 C   0  0  0  0  0  0  0  0  0  0  0  0
   28.9620   20.7137   14.4615 N   0  0  0  0  0  0  0  0  0  0  0  0
   28.7238   20.4466   15.3787 H   0  0  0  0  0  0  0  0  0  0  0  0
   28.9609   22.0490   14.2088 C   0  0  0  0  0  0  0  0  0  0  0  0
   30.1132   22.6977   14.7706 C   0  0  0  0  0  0  0  0  0  0  0  0
   31.2285   22.0314   15.4063 C   0  0  0  0  0  0  0  0  0  0  0  0
   30.2031   24.1075   14.6599 C   0  0  0  0  0  0  0  0  0  0  0  0
   31.3170   24.7644   15.2666 C   0  0  0  0  0  0  0  0  0  0  0  0
   32.3314   24.1006   15.8684 C   0  0  0  0  0  0  0  0  0  0  0  0
   32.2723   22.7008   15.9505 C   0  0  0  0  0  0  0  0  0  0  0  0
   29.2852   24.8324   13.9778 N   0  0  0  0  0  0  0  0  0  0  0  0
   28.2095   24.2371   13.4410 C   0  0  0  0  0  0  0  0  0  0  0  0
   27.1871   25.0730   12.8386 C   0  0  0  0  0  0  0  0  0  0  0  0
   27.9800   22.8174   13.5638 C   0  0  0  0  0  0  0  0  0  0  0  0
   26.6801   22.3865   13.1223 C   0  0  0  0  0  0  0  0  0  0  0  0
   25.7667   23.2623   12.5972 C   0  0  0  0  0  0  0  0  0  0  0  0
   26.2094   24.5020   12.0555 C   0  0  0  0  0  0  0  0  0  0  0  0
  3  4  1  0  0  0
  4  5  2  0  0  0
  4  9  1  0  0  0
  5  6  1  0  0  0
  6  7  2  0  0  0
  7  8  1  0  0  0
  7 11  1  0  0  0
  8  9  2  0  0  0
  8 10  1  0  0  0
 10 23  1  0  0  0
 10 18  2  0  0  0
 23 24  2  0  0  0
 23 28  1  0  0  0
 24 25  1  0  0  0
 25 26  2  0  0  0
 26 27  1  0  0  0
 27 28  2  0  0  0
 11 12  2  0  0  0
 11 16  1  0  0  0
 12 13  1  0  0  0
 13 14  2  0  0  0
 14 15  1  0  0  0
 14 17  1  0  0  0
 16 17  2  0  0  0
 16 18  1  0  0  0
 18  2  1  0  0  0
  2  1  1  0  0  0
  1 29  1  0  0  0
 29 30  1  0  0  0
 30 31  1  0  0  0
 31 32  1  0  0  0
 32 33  1  0  0  0
 33 34  1  0  0  0
 33 37  2  0  0  0
 34 35  2  0  0  0
 35 36  1  0  0  0
 36 37  1  0  0  0
 36 38  1  0  0  0
 38 39  1  0  0  0
 39 40  1  0  0  0
 40 42  1  0  0  0
 42 43  2  0  0  0
 42 52  1  0  0  0
 43 44  1  0  0  0
 43 45  1  0  0  0
 44 48  2  0  0  0
 45 46  1  0  0  0
 45 49  2  0  0  0
 46 47  2  0  0  0
 47 48  1  0  0  0
 49 50  1  0  0  0
 50 51  1  0  0  0
 50 52  2  0  0  0
 51 55  1  0  0  0
 52 53  1  0  0  0
 53 54  1  0  0  0
 54 55  1  0  0  0
  3 19  1  0  0  0
  3 20  1  0  0  0
 15 21  1  0  0  0
 15 22  1  0  0  0
 40 41  1  0  0  0
M  CHG 1  18   1
M  END
> <minimizedAffinity>
-12.60147

$$$$
1Q84_TZ4_A_951


 55 62  0  0  0  0  0  0  0  0999 V2000
   37.2460   24.0764    8.0948 C   0  0  0  0  0  0  0  0  0  0  0  0
   38.0318   25.0832    7.2452 C   0  0  0  0  0  0  0  0  0  0  0  0
   37.1589   27.0993    0.2276 N   0  0  0  0  0  0  0  0  0  0  0  0
   36.8490   27.2928    1.5590 C   0  0  0  0  0  0  0  0  0  0  0  0
   36.0283   28.3699    2.0069 C   0  0  0  0  0  0  0  0  0  0  0  0
   35.7199   28.5588    3.3486 C   0  0  0  0  0  0  0  0  0  0  0  0
   36.1712   27.7044    4.4135 C   0  0  0  0  0  0  0  0  0  0  0  0
   37.0050   26.6104    3.9783 C   0  0  0  0  0  0  0  0  0  0  0  0
   37.3076   26.4545    2.5684 C   0  0  0  0  0  0  0  0  0  0  0  0
   37.6072   25.7704    4.9497 C   0  0  0  0  0  0  0  0  0  0  0  0
   35.9338   27.9135    5.8369 C   0  0  0  0  0  0  0  0  0  0  0  0
   34.9568   28.8279    6.3954 C   0  0  0  0  0  0  0  0  0  0  0  0
   34.6124   28.8800    7.7411 C   0  0  0  0  0  0  0  0  0  0  0  0
   35.2097   27.9931    8.6938 C   0  0  0  0  0  0  0  0  0  0  0  0
   34.8919   27.9983   10.0394 N   0  0  0  0  0  0  0  0  0  0  0  0
   36.5497   27.0214    6.7938 C   0  0  0  0  0  0  0  0  0  0  0  0
   36.1413   27.0930    8.1677 C   0  0  0  0  0  0  0  0  0  0  0  0
   37.3537   25.9906    6.2684 N   0  0  0  0  0  0  0  0  0  0  0  0
   36.8114   27.7192   -0.4538 H   0  0  0  0  0  0  0  0  0  0  0  0
   37.7274   26.3416   -0.0404 H   0  0  0  0  0  0  0  0  0  0  0  0
   34.2327   28.6416   10.3870 H   0  0  0  0  0  0  0  0  0  0  0  0
   35.3249   27.3588   10.6499 H   0  0  0  0  0  0  0  0  0  0  0  0
   38.4331   24.5975    4.5123 C   0  0  0  0  0  0  0  0  0  0  0  0
   39.8169   24.8274    4.4897 C   0  0  0  0  0  0  0  0  0  0  0  0
   40.6980   23.8231    4.0967 C   0  0  0  0  0  0  0  0  0  0  0  0
   40.2287   22.5526    3.7229 C   0  0  0  0  0  0  0  0  0  0  0  0
   38.8555   22.2972    3.7426 C   0  0  0  0  0  0  0  0  0  0  0  0
   37.9741   23.3143    4.1376 C   0  0  0  0  0  0  0  0  0  0  0  0
   36.0338   23.6643    7.2387 C   0  0  0  0  0  0  0  0  0  0  0  0
   34.7521   23.5485    8.0478 C   0  0  0  0  0  0  0  0  0  0  0  0
   34.2637   22.1122    7.9507 C   0  0  0  0  0  0  0  0  0  0  0  0
   32.7470   22.0721    7.7635 C   0  0  0  0  0  0  0  0  0  0  0  0
   32.2551   21.9970    9.1410 C   0  0  0  0  0  0  0  0  0  0  0  0
   32.4172   20.9191    9.8896 N   0  0  0  0  0  0  0  0  0  0  0  0
   31.8948   21.2233   11.0751 N   0  0  0  0  0  0  0  0  0  0  0  0
   31.4231   22.4572   11.0649 N   0  0  0  0  0  0  0  0  0  0  0  0
   31.6598   22.9625    9.8610 C   0  0  0  0  0  0  0  0  0  0  0  0
   30.7650   23.2554   12.0864 C   0  0  0  0  0  0  0  0  0  0  0  0
   30.7304   22.4122   13.3554 C   0  0  0  0  0  0  0  0  0  0  0  0
   29.4853   22.7123   14.0226 N   0  0  0  0  0  0  0  0  0  0  0  0
   29.4868   23.5060   14.6050 H   0  0  0  0  0  0  0  0  0  0  0  0
   28.3119   22.0314   13.9436 C   0  0  0  0  0  0  0  0  0  0  0  0
   27.2952   22.7989   13.2790 C   0  0  0  0  0  0  0  0  0  0  0  0
   27.4925   24.0781   12.6335 C   0  0  0  0  0  0  0  0  0  0  0  0
   25.9918   22.2488   13.1994 C   0  0  0  0  0  0  0  0  0  0  0  0
   24.9630   23.0311   12.5913 C   0  0  0  0  0  0  0  0  0  0  0  0
   25.1896   24.2343   12.0143 C   0  0  0  0  0  0  0  0  0  0  0  0
   26.4852   24.7724   12.0531 C   0  0  0  0  0  0  0  0  0  0  0  0
   25.7101   21.0052   13.6547 N   0  0  0  0  0  0  0  0  0  0  0  0
   26.6531   20.2752   14.2690 C   0  0  0  0  0  0  0  0  0  0  0  0
   26.2679   19.0062   14.8592 C   0  0  0  0  0  0  0  0  0  0  0  0
   27.9927   20.7722   14.4736 C   0  0  0  0  0  0  0  0  0  0  0  0
   28.8038   19.9534   15.3351 C   0  0  0  0  0  0  0  0  0  0  0  0
   28.3354   18.7842   15.8743 C   0  0  0  0  0  0  0  0  0  0  0  0
   27.2374   18.1160   15.2626 C   0  0  0  0  0  0  0  0  0  0  0  0
  3  4  1  0  0  0
  4  5  2  0  0  0
  4  9  1  0  0  0
  5  6  1  0  0  0
  6  7  2  0  0  0
  7  8  1  0  0  0
  7 11  1  0  0  0
  8  9  2  0  0  0
  8 10  1  0  0  0
 10 23  1  0  0  0
 10 18  2  0  0  0
 23 24  2  0  0  0
 23 28  1  0  0  0
 24 25  1  0  0  0
 25 26  2  0  0  0
 26 27  1  0  0  0
 27 28  2  0  0  0
 11 12  2  0  0  0
 11 16  1  0  0  0
 12 13  1  0  0  0
 13 14  2  0  0  0
 14 15  1  0  0  0
 14 17  1  0  0  0
 16 17  2  0  0  0
 16 18  1  0  0  0
 18  2  1  0  0  0
  2  1  1  0  0  0
  1 29  1  0  0  0
 29 30  1  0  0  0
 30 31  1  0  0  0
 31 32  1  0  0  0
 32 33  1  0  0  0
 33 34  1  0  0  0
 33 37  2  0  0  0
 34 35  2  0  0  0
 35 36  1  0  0  0
 36 37  1  0  0  0
 36 38  1  0  0  0
 38 39  1  0  0  0
 39 40  1  0  0  0
 40 42  1  0  0  0
 42 43  2  0  0  0
 42 52  1  0  0  0
 43 44  1  0  0  0
 43 45  1  0  0  0
 44 48  2  0  0  0
 45 46  1  0  0  0
 45 49  2  0  0  0
 46 47  2  0  0  0
 47 48  1  0  0  0
 49 50  1  0  0  0
 50 51  1  0  0  0
 50 52  2  0  0  0
 51 55  1  0  0  0
 52 53  1  0  0  0
 53 54  1  0  0  0
 54 55  1  0  0  0
  3 19  1  0  0  0
  3 20  1  0  0  0
 15 21  1  0  0  0
 15 22  1  0  0  0
 40 41  1  0  0  0
M  CHG 1  18   1
M  END
> <minimizedAffinity>
-12.47568

$$$$
1Q84_TZ4_A_951


 55 62  0  0  0  0  0  0  0  0999 V2000
   36.9192   24.0084    7.5907 C   0  0  0  0  0  0  0  0  0  0  0  0
   37.1627   25.0956    6.5365 C   0  0  0  0  0  0  0  0  0  0  0  0
   40.2535   31.4500    8.5720 N   0  0  0  0  0  0  0  0  0  0  0  0
   40.3681   30.2339    7.9284 C   0  0  0  0  0  0  0  0  0  0  0  0
   41.5405   29.8534    7.2109 C   0  0  0  0  0  0  0  0  0  0  0  0
   41.6497   28.6276    6.5655 C   0  0  0  0  0  0  0  0  0  0  0  0
   40.6233   27.6206    6.5566 C   0  0  0  0  0  0  0  0  0  0  0  0
   39.4287   27.9901    7.2761 C   0  0  0  0  0  0  0  0  0  0  0  0
   39.3547   29.2828    7.9297 C   0  0  0  0  0  0  0  0  0  0  0  0
   38.3031   27.1279    7.2375 C   0  0  0  0  0  0  0  0  0  0  0  0
   40.6698   26.3582    5.8282 C   0  0  0  0  0  0  0  0  0  0  0  0
   41.8631   25.7703    5.2510 C   0  0  0  0  0  0  0  0  0  0  0  0
   41.9275   24.4848    4.7259 C   0  0  0  0  0  0  0  0  0  0  0  0
   40.7841   23.6225    4.7348 C   0  0  0  0  0  0  0  0  0  0  0  0
   40.8013   22.3333    4.2356 N   0  0  0  0  0  0  0  0  0  0  0  0
   39.5076   25.4980    5.8317 C   0  0  0  0  0  0  0  0  0  0  0  0
   39.6299   24.1689    5.3044 C   0  0  0  0  0  0  0  0  0  0  0  0
   38.3880   25.9534    6.5557 N   0  0  0  0  0  0  0  0  0  0  0  0
   40.9979   32.0936    8.5443 H   0  0  0  0  0  0  0  0  0  0  0  0
   39.4274   31.6734    9.0586 H   0  0  0  0  0  0  0  0  0  0  0  0
   41.6260   21.9700    3.8391 H   0  0  0  0  0  0  0  0  0  0  0  0
   39.9890   21.7786    4.2767 H   0  0  0  0  0  0  0  0  0  0  0  0
   37.0730   27.4720    8.0233 C   0  0  0  0  0  0  0  0  0  0  0  0
   36.1068   28.2022    7.3149 C   0  0  0  0  0  0  0  0  0  0  0  0
   34.9190   28.5918    7.9287 C   0  0  0  0  0  0  0  0  0  0  0  0
   34.6507   28.2570    9.2667 C   0  0  0  0  0  0  0  0  0  0  0  0
   35.5946   27.5256    9.9915 C   0  0  0  0  0  0  0  0  0  0  0  0
   36.7895   27.1385    9.3672 C   0  0  0  0  0  0  0  0  0  0  0  0
   35.6852   23.2252    7.1052 C   0  0  0  0  0  0  0  0  0  0  0  0
   34.6021   23.1138    8.1661 C   0  0  0  0  0  0  0  0  0  0  0  0
   33.9153   21.7683    7.9965 C   0  0  0  0  0  0  0  0  0  0  0  0
   32.4070   21.9524    7.8290 C   0  0  0  0  0  0  0  0  0  0  0  0
   31.9210   21.8942    9.2095 C   0  0  0  0  0  0  0  0  0  0  0  0
   31.8789   20.7641    9.8948 N   0  0  0  0  0  0  0  0  0  0  0  0
   31.4343   21.0942   11.1049 N   0  0  0  0  0  0  0  0  0  0  0  0
   31.2085   22.3941   11.1710 N   0  0  0  0  0  0  0  0  0  0  0  0
   31.5282   22.9129    9.9923 C   0  0  0  0  0  0  0  0  0  0  0  0
   30.7245   23.2437   12.2469 C   0  0  0  0  0  0  0  0  0  0  0  0
   30.7460   22.4052   13.5192 C   0  0  0  0  0  0  0  0  0  0  0  0
   29.4976   22.6504   14.2025 N   0  0  0  0  0  0  0  0  0  0  0  0
   29.5028   23.3782   14.8655 H   0  0  0  0  0  0  0  0  0  0  0  0
   28.3166   21.9979   14.0408 C   0  0  0  0  0  0  0  0  0  0  0  0
   27.3526   22.8064   13.3470 C   0  0  0  0  0  0  0  0  0  0  0  0
   27.6101   24.0995   12.7521 C   0  0  0  0  0  0  0  0  0  0  0  0
   26.0445   22.2875   13.1818 C   0  0  0  0  0  0  0  0  0  0  0  0
   25.0658   23.1096   12.5442 C   0  0  0  0  0  0  0  0  0  0  0  0
   25.3472   24.3239   12.0170 C   0  0  0  0  0  0  0  0  0  0  0  0
   26.6495   24.8323   12.1407 C   0  0  0  0  0  0  0  0  0  0  0  0
   25.7137   21.0375   13.5834 N   0  0  0  0  0  0  0  0  0  0  0  0
   26.6076   20.2694   14.2243 C   0  0  0  0  0  0  0  0  0  0  0  0
   26.1657   18.9923   14.7543 C   0  0  0  0  0  0  0  0  0  0  0  0
   27.9441   20.7308   14.5146 C   0  0  0  0  0  0  0  0  0  0  0  0
   28.6912   19.8697   15.3924 C   0  0  0  0  0  0  0  0  0  0  0  0
   28.1710   18.6956   15.8701 C   0  0  0  0  0  0  0  0  0  0  0  0
   27.0940   18.0698   15.1812 C   0  0  0  0  0  0  0  0  0  0  0  0
  3  4  1  0  0  0
  4  5  2  0  0  0
  4  9  1  0  0  0
  5  6  1  0  0  0
  6  7  2  0  0  0
  7  8  1  0  0  0
  7 11  1  0  0  0
  8  9  2  0  0  0
  8 10  1  0  0  0
 10 23  1  0  0  0
 10 18  2  0  0  0
 23 24  2  0  0  0
 23 28  1  0  0  0
 24 25  1  0  0  0
 25 26  2  0  0  0
 26 27  1  0  0  0
 27 28  2  0  0  0
 11 12  2  0  0  0
 11 16  1  0  0  0
 12 13  1  0  0  0
 13 14  2  0  0  0
 14 15  1  0  0  0
 14 17  1  0  0  0
 16 17  2  0  0  0
 16 18  1  0  0  0
 18  2  1  0  0  0
  2  1  1  0  0  0
  1 29  1  0  0  0
 29 30  1  0  0  0
 30 31  1  0  0  0
 31 32  1  0  0  0
 32 33  1  0  0  0
 33 34  1  0  0  0
 33 37  2  0  0  0
 34 35  2  0  0  0
 35 36  1  0  0  0
 36 37  1  0  0  0
 36 38  1  0  0  0
 38 39  1  0  0  0
 39 40  1  0  0  0
 40 42  1  0  0  0
 42 43  2  0  0  0
 42 52  1  0  0  0
 43 44  1  0  0  0
 43 45  1  0  0  0
 44 48  2  0  0  0
 45 46  1  0  0  0
 45 49  2  0  0  0
 46 47  2  0  0  0
 47 48  1  0  0  0
 49 50  1  0  0  0
 50 51  1  0  0  0
 50 52  2  0  0  0
 51 55  1  0  0  0
 52 53  1  0  0  0
 53 54  1  0  0  0
 54 55  1  0  0  0
  3 19  1  0  0  0
  3 20  1  0  0  0
 15 21  1  0  0  0
 15 22  1  0  0  0
 40 41  1  0  0  0
M  CHG 1  18   1
M  END
> <minimizedAffinity>
-12.35256

$$$$
1Q84_TZ4_A_951


 55 62  0  0  0  0  0  0  0  0999 V2000
   35.7543   24.5175    6.9529 C   0  0  0  0  0  0  0  0  0  0  0  0
   36.8694   25.4428    6.4495 C   0  0  0  0  0  0  0  0  0  0  0  0
   35.0958   31.6176    2.8718 N   0  0  0  0  0  0  0  0  0  0  0  0
   35.5383   30.3107    2.8238 C   0  0  0  0  0  0  0  0  0  0  0  0
   35.7739   29.6254    1.5953 C   0  0  0  0  0  0  0  0  0  0  0  0
   36.2197   28.3098    1.5539 C   0  0  0  0  0  0  0  0  0  0  0  0
   36.4998   27.5106    2.7160 C   0  0  0  0  0  0  0  0  0  0  0  0
   36.2645   28.1878    3.9679 C   0  0  0  0  0  0  0  0  0  0  0  0
   35.7925   29.5594    3.9651 C   0  0  0  0  0  0  0  0  0  0  0  0
   36.3915   27.4638    5.1809 C   0  0  0  0  0  0  0  0  0  0  0  0
   36.8932   26.1065    2.7139 C   0  0  0  0  0  0  0  0  0  0  0  0
   37.3653   25.3729    1.5556 C   0  0  0  0  0  0  0  0  0  0  0  0
   37.9112   24.0956    1.6066 C   0  0  0  0  0  0  0  0  0  0  0  0
   38.0621   23.4032    2.8512 C   0  0  0  0  0  0  0  0  0  0  0  0
   38.6094   22.1378    2.9547 N   0  0  0  0  0  0  0  0  0  0  0  0
   37.0320   25.4105    3.9737 C   0  0  0  0  0  0  0  0  0  0  0  0
   37.6275   24.1048    3.9799 C   0  0  0  0  0  0  0  0  0  0  0  0
   36.7705   26.1576    5.1392 N   0  0  0  0  0  0  0  0  0  0  0  0
   34.9287   32.1117    2.0368 H   0  0  0  0  0  0  0  0  0  0  0  0
   34.9475   32.0555    3.7410 H   0  0  0  0  0  0  0  0  0  0  0  0
   38.9084   21.6632    2.1457 H   0  0  0  0  0  0  0  0  0  0  0  0
   38.7001   21.7115    3.8374 H   0  0  0  0  0  0  0  0  0  0  0  0
   36.2022   28.1665    6.4922 C   0  0  0  0  0  0  0  0  0  0  0  0
   34.9459   27.9754    7.0868 C   0  0  0  0  0  0  0  0  0  0  0  0
   34.6368   28.5772    8.3041 C   0  0  0  0  0  0  0  0  0  0  0  0
   35.5742   29.3813    8.9740 C   0  0  0  0  0  0  0  0  0  0  0  0
   36.8340   29.5823    8.4050 C   0  0  0  0  0  0  0  0  0  0  0  0
   37.1375   28.9747    7.1778 C   0  0  0  0  0  0  0  0  0  0  0  0
   36.3663   23.7246    8.1228 C   0  0  0  0  0  0  0  0  0  0  0  0
   35.3294   22.9399    8.9101 C   0  0  0  0  0  0  0  0  0  0  0  0
   33.9589   23.2716    8.3422 C   0  0  0  0  0  0  0  0  0  0  0  0
   33.1318   21.9993    8.1573 C   0  0  0  0  0  0  0  0  0  0  0  0
   32.3251   21.9601    9.3792 C   0  0  0  0  0  0  0  0  0  0  0  0
   31.8626   20.8281    9.8824 N   0  0  0  0  0  0  0  0  0  0  0  0
   31.2245   21.1662   11.0003 N   0  0  0  0  0  0  0  0  0  0  0  0
   31.2906   22.4721   11.1883 N   0  0  0  0  0  0  0  0  0  0  0  0
   31.9959   22.9821   10.1867 C   0  0  0  0  0  0  0  0  0  0  0  0
   30.7658   23.3316   12.2369 C   0  0  0  0  0  0  0  0  0  0  0  0
   30.6506   22.4785   13.4945 C   0  0  0  0  0  0  0  0  0  0  0  0
   29.3653   22.7732   14.0831 N   0  0  0  0  0  0  0  0  0  0  0  0
   29.3131   23.5982   14.6179 H   0  0  0  0  0  0  0  0  0  0  0  0
   28.2191   22.0494   13.9880 C   0  0  0  0  0  0  0  0  0  0  0  0
   27.1847   22.7780   13.3071 C   0  0  0  0  0  0  0  0  0  0  0  0
   27.3443   24.0629   12.6625 C   0  0  0  0  0  0  0  0  0  0  0  0
   25.9038   22.1802   13.2092 C   0  0  0  0  0  0  0  0  0  0  0  0
   24.8560   22.9233   12.5847 C   0  0  0  0  0  0  0  0  0  0  0  0
   25.0466   24.1333   12.0091 C   0  0  0  0  0  0  0  0  0  0  0  0
   26.3207   24.7189   12.0661 C   0  0  0  0  0  0  0  0  0  0  0  0
   25.6615   20.9275   13.6624 N   0  0  0  0  0  0  0  0  0  0  0  0
   26.6216   20.2335   14.2918 C   0  0  0  0  0  0  0  0  0  0  0  0
   26.2747   18.9518   14.8784 C   0  0  0  0  0  0  0  0  0  0  0  0
   27.9388   20.7798   14.5154 C   0  0  0  0  0  0  0  0  0  0  0  0
   28.7667   19.9926   15.3901 C   0  0  0  0  0  0  0  0  0  0  0  0
   28.3337   18.8075   15.9242 C   0  0  0  0  0  0  0  0  0  0  0  0
   27.2703   18.0985   15.2976 C   0  0  0  0  0  0  0  0  0  0  0  0
  3  4  1  0  0  0
  4  5  2  0  0  0
  4  9  1  0  0  0
  5  6  1  0  0  0
  6  7  2  0  0  0
  7  8  1  0  0  0
  7 11  1  0  0  0
  8  9  2  0  0  0
  8 10  1  0  0  0
 10 23  1  0  0  0
 10 18  2  0  0  0
 23 24  2  0  0  0
 23 28  1  0  0  0
 24 25  1  0  0  0
 25 26  2  0  0  0
 26 27  1  0  0  0
 27 28  2  0  0  0
 11 12  2  0  0  0
 11 16  1  0  0  0
 12 13  1  0  0  0
 13 14  2  0  0  0
 14 15  1  0  0  0
 14 17  1  0  0  0
 16 17  2  0  0  0
 16 18  1  0  0  0
 18  2  1  0  0  0
  2  1  1  0  0  0
  1 29  1  0  0  0
 29 30  1  0  0  0
 30 31  1  0  0  0
 31 32  1  0  0  0
 32 33  1  0  0  0
 33 34  1  0  0  0
 33 37  2  0  0  0
 34 35  2  0  0  0
 35 36  1  0  0  0
 36 37  1  0  0  0
 36 38  1  0  0  0
 38 39  1  0  0  0
 39 40  1  0  0  0
 40 42  1  0  0  0
 42 43  2  0  0  0
 42 52  1  0  0  0
 43 44  1  0  0  0
 43 45  1  0  0  0
 44 48  2  0  0  0
 45 46  1  0  0  0
 45 49  2  0  0  0
 46 47  2  0  0  0
 47 48  1  0  0  0
 49 50  1  0  0  0
 50 51  1  0  0  0
 50 52  2  0  0  0
 51 55  1  0  0  0
 52 53  1  0  0  0
 53 54  1  0  0  0
 54 55  1  0  0  0
  3 19  1  0  0  0
  3 20  1  0  0  0
 15 21  1  0  0  0
 15 22  1  0  0  0
 40 41  1  0  0  0
M  CHG 1  18   1
M  END
> <minimizedAffinity>
-12.28169

$$$$
1Q84_TZ4_A_951


 55 62  0  0  0  0  0  0  0  0999 V2000
   35.2228   23.0258    7.6837 C   0  0  0  0  0  0  0  0  0  0  0  0
   35.4752   24.3791    7.0072 C   0  0  0  0  0  0  0  0  0  0  0  0
   40.7026   29.5509    7.0097 N   0  0  0  0  0  0  0  0  0  0  0  0
   40.2688   28.3107    6.5855 C   0  0  0  0  0  0  0  0  0  0  0  0
   41.0126   27.5100    5.6692 C   0  0  0  0  0  0  0  0  0  0  0  0
   40.5705   26.2622    5.2465 C   0  0  0  0  0  0  0  0  0  0  0  0
   39.3478   25.6437    5.6825 C   0  0  0  0  0  0  0  0  0  0  0  0
   38.5812   26.4413    6.6085 C   0  0  0  0  0  0  0  0  0  0  0  0
   39.0768   27.7415    7.0180 C   0  0  0  0  0  0  0  0  0  0  0  0
   37.3004   25.9886    7.0162 C   0  0  0  0  0  0  0  0  0  0  0  0
   38.8133   24.3743    5.2038 C   0  0  0  0  0  0  0  0  0  0  0  0
   39.5596   23.3839    4.4522 C   0  0  0  0  0  0  0  0  0  0  0  0
   39.0960   22.1051    4.1659 C   0  0  0  0  0  0  0  0  0  0  0  0
   37.8132   21.6621    4.6234 C   0  0  0  0  0  0  0  0  0  0  0  0
   37.3134   20.3973    4.3746 N   0  0  0  0  0  0  0  0  0  0  0  0
   37.5123   23.9390    5.6605 C   0  0  0  0  0  0  0  0  0  0  0  0
   37.0884   22.6001    5.3650 C   0  0  0  0  0  0  0  0  0  0  0  0
   36.8398   24.7937    6.5561 N   0  0  0  0  0  0  0  0  0  0  0  0
   41.5545   29.9148    6.6764 H   0  0  0  0  0  0  0  0  0  0  0  0
   40.1601   30.0713    7.6453 H   0  0  0  0  0  0  0  0  0  0  0  0
   37.8421   19.7536    3.8497 H   0  0  0  0  0  0  0  0  0  0  0  0
   36.4289   20.1404    4.7222 H   0  0  0  0  0  0  0  0  0  0  0  0
   36.5141   26.7796    8.0188 C   0  0  0  0  0  0  0  0  0  0  0  0
   35.5900   27.6788    7.4655 C   0  0  0  0  0  0  0  0  0  0  0  0
   34.7992   28.4796    8.2856 C   0  0  0  0  0  0  0  0  0  0  0  0
   34.8963   28.4029    9.6852 C   0  0  0  0  0  0  0  0  0  0  0  0
   35.8050   27.5113   10.2602 C   0  0  0  0  0  0  0  0  0  0  0  0
   36.5996   26.7095    9.4279 C   0  0  0  0  0  0  0  0  0  0  0  0
   33.7904   22.6217    7.2875 C   0  0  0  0  0  0  0  0  0  0  0  0
   33.6009   21.1152    7.2156 C   0  0  0  0  0  0  0  0  0  0  0  0
   32.6220   20.7125    8.3066 C   0  0  0  0  0  0  0  0  0  0  0  0
   31.5292   21.7697    8.4649 C   0  0  0  0  0  0  0  0  0  0  0  0
   31.4133   21.8967    9.9194 C   0  0  0  0  0  0  0  0  0  0  0  0
   31.2297   20.8497   10.7060 N   0  0  0  0  0  0  0  0  0  0  0  0
   31.2184   21.3303   11.9469 N   0  0  0  0  0  0  0  0  0  0  0  0
   31.3926   22.6397   11.9325 N   0  0  0  0  0  0  0  0  0  0  0  0
   31.5355   23.0072   10.6655 C   0  0  0  0  0  0  0  0  0  0  0  0
   31.4571   23.6241   13.0005 C   0  0  0  0  0  0  0  0  0  0  0  0
   30.0300   24.0910   13.2612 C   0  0  0  0  0  0  0  0  0  0  0  0
   29.3944   23.0676   14.0574 N   0  0  0  0  0  0  0  0  0  0  0  0
   29.9213   22.7158   14.8109 H   0  0  0  0  0  0  0  0  0  0  0  0
   28.1566   22.5313   13.8921 C   0  0  0  0  0  0  0  0  0  0  0  0
   28.0769   21.2013   14.4298 C   0  0  0  0  0  0  0  0  0  0  0  0
   29.1141   20.5353   15.1865 C   0  0  0  0  0  0  0  0  0  0  0  0
   26.8682   20.4834   14.2527 C   0  0  0  0  0  0  0  0  0  0  0  0
   26.8021   19.1401   14.7338 C   0  0  0  0  0  0  0  0  0  0  0  0
   27.8061   18.5491   15.4227 C   0  0  0  0  0  0  0  0  0  0  0  0
   28.9944   19.2642   15.6378 C   0  0  0  0  0  0  0  0  0  0  0  0
   25.7810   21.0434   13.6715 N   0  0  0  0  0  0  0  0  0  0  0  0
   25.8401   22.2876   13.1736 C   0  0  0  0  0  0  0  0  0  0  0  0
   24.6935   22.7927   12.4406 C   0  0  0  0  0  0  0  0  0  0  0  0
   27.0468   23.0777   13.2301 C   0  0  0  0  0  0  0  0  0  0  0  0
   26.9966   24.2927   12.4610 C   0  0  0  0  0  0  0  0  0  0  0  0
   25.8735   24.6672   11.7713 C   0  0  0  0  0  0  0  0  0  0  0  0
   24.6072   24.1341   12.1435 C   0  0  0  0  0  0  0  0  0  0  0  0
  3  4  1  0  0  0
  4  5  2  0  0  0
  4  9  1  0  0  0
  5  6  1  0  0  0
  6  7  2  0  0  0
  7  8  1  0  0  0
  7 11  1  0  0  0
  8  9  2  0  0  0
  8 10  1  0  0  0
 10 23  1  0  0  0
 10 18  2  0  0  0
 23 24  2  0  0  0
 23 28  1  0  0  0
 24 25  1  0  0  0
 25 26  2  0  0  0
 26 27  1  0  0  0
 27 28  2  0  0  0
 11 12  2  0  0  0
 11 16  1  0  0  0
 12 13  1  0  0  0
 13 14  2  0  0  0
 14 15  1  0  0  0
 14 17  1  0  0  0
 16 17  2  0  0  0
 16 18  1  0  0  0
 18  2  1  0  0  0
  2  1  1  0  0  0
  1 29  1  0  0  0
 29 30  1  0  0  0
 30 31  1  0  0  0
 31 32  1  0  0  0
 32 33  1  0  0  0
 33 34  1  0  0  0
 33 37  2  0  0  0
 34 35  2  0  0  0
 35 36  1  0  0  0
 36 37  1  0  0  0
 36 38  1  0  0  0
 38 39  1  0  0  0
 39 40  1  0  0  0
 40 42  1  0  0  0
 42 43  2  0  0  0
 42 52  1  0  0  0
 43 44  1  0  0  0
 43 45  1  0  0  0
 44 48  2  0  0  0
 45 46  1  0  0  0
 45 49  2  0  0  0
 46 47  2  0  0  0
 47 48  1  0  0  0
 49 50  1  0  0  0
 50 51  1  0  0  0
 50 52  2  0  0  0
 51 55  1  0  0  0
 52 53  1  0  0  0
 53 54  1  0  0  0
 54 55  1  0  0  0
  3 19  1  0  0  0
  3 20  1  0  0  0
 15 21  1  0  0  0
 15 22  1  0  0  0
 40 41  1  0  0  0
M  CHG 1  18   1
M  END
> <minimizedAffinity>
-12.23217

$$$$
