1A94_0Q4_A_100


 75 75  0  0  0  0  0  0  0  0999 V2000
   59.1109   17.7348   31.5333 C   0  0  0  0  0  0  0  0  0  0  0  0
   59.3452   16.8578   32.8020 C   0  0  0  0  0  0  0  0  0  0  0  0
   58.3969   16.4637   33.5137 O   0  0  0  0  0  0  0  0  0  0  0  0
   60.5929   16.5261   33.0855 N   0  0  0  0  0  0  0  0  0  0  0  0
   61.3245   16.8520   32.5130 H   0  0  0  0  0  0  0  0  0  0  0  0
   60.9005   15.6801   34.2405 C   0  0  0  0  0  0  0  0  0  0  0  0
   62.2072   16.1795   34.8390 C   0  0  0  0  0  0  0  0  0  0  0  0
   63.3099   15.7951   34.4483 O   0  0  0  0  0  0  0  0  0  0  0  0
   62.0965   17.0933   35.7650 N   0  0  0  0  0  0  0  0  0  0  0  0
   61.2089   17.4037   36.0567 H   0  0  0  0  0  0  0  0  0  0  0  0
   63.2944   17.6418   36.3551 C   0  0  0  0  0  0  0  0  0  0  0  0
   63.7608   18.8482   35.5476 C   0  0  0  0  0  0  0  0  0  0  0  0
   63.0459   18.0321   37.7901 C   0  0  0  0  0  0  0  0  0  0  0  0
   63.2306   17.2212   38.7091 O   0  0  0  0  0  0  0  0  0  0  0  0
   62.6134   19.2674   37.9730 N   0  0  0  0  0  0  0  0  0  0  0  0
   62.4815   19.8435   37.1856 H   0  0  0  0  0  0  0  0  0  0  0  0
   62.3252   19.8088   39.2888 C   0  0  0  0  0  0  0  0  0  0  0  0
   60.8950   19.6181   39.8062 C   0  0  0  0  0  0  0  0  0  0  0  0
   60.6501   18.9275   40.8351 O   0  0  0  0  0  0  0  0  0  0  0  0
   60.0184   20.2310   39.1655 N   0  0  0  0  0  0  0  0  0  0  0  0
   60.2661   20.7548   38.3696 H   0  0  0  0  0  0  0  0  0  0  0  0
   59.0784   20.1911   39.4556 H   0  0  0  0  0  0  0  0  0  0  0  0
   62.7054   21.2782   39.3061 C   0  0  0  0  0  0  0  0  0  0  0  0
   63.1613   21.7921   37.9429 C   0  0  0  0  0  0  0  0  0  0  0  0
   64.6294   22.2146   37.9718 C   0  0  0  0  0  0  0  0  0  0  0  0
   64.7524   23.5918   38.6229 C   0  0  0  0  0  0  0  0  0  0  0  0
   60.9535   14.2106   33.7849 C   0  0  0  0  0  0  0  0  0  0  0  0
   60.8881   13.1546   34.8790 C   0  0  0  0  0  0  0  0  0  0  0  0
   62.2624   12.5823   35.2148 C   0  0  0  0  0  0  0  0  0  0  0  0
   62.2870   11.6381   36.0388 O   0  0  0  0  0  0  0  0  0  0  0  0
   63.3002   13.0369   34.6502 O   0  0  0  0  0  0  0  0  0  0  0  0
   63.2299   13.7450   34.0406 H   0  0  0  0  0  0  0  0  0  0  0  0
   58.0723   17.0642   30.7635 N   0  0  0  0  0  0  0  0  0  0  0  0
   57.3323   16.8327   31.4263 H   0  0  0  0  0  0  0  0  0  0  0  0
   57.4726   17.6400   29.7251 C   0  0  0  0  0  0  0  0  0  0  0  0
   55.9640   17.6139   29.7249 C   0  0  0  0  0  0  0  0  0  0  0  0
   54.7585   19.7094   29.7201 C   0  0  0  0  0  0  0  0  0  0  0  0
   54.9650   19.8615   30.9346 O   0  0  0  0  0  0  0  0  0  0  0  0
   55.2417   18.6722   29.0429 N   0  0  0  0  0  0  0  0  0  0  0  0
   55.1081   18.6215   28.0688 H   0  0  0  0  0  0  0  0  0  0  0  0
   53.9282   20.7330   28.9084 C   0  0  0  0  0  0  0  0  0  0  0  0
   51.8571   19.6982   28.1041 C   0  0  0  0  0  0  0  0  0  0  0  0
   52.2700   19.5118   26.9699 O   0  0  0  0  0  0  0  0  0  0  0  0
   52.5722   20.2656   29.0619 N   0  0  0  0  0  0  0  0  0  0  0  0
   52.1481   20.3768   29.9434 H   0  0  0  0  0  0  0  0  0  0  0  0
   50.4745   18.0771   29.3685 N   0  0  0  0  0  0  0  0  0  0  0  0
   50.4486   19.2871   28.4951 C   0  0  0  0  0  0  0  0  0  0  0  0
   50.9390   17.3132   28.8775 H   0  0  0  0  0  0  0  0  0  0  0  0
   49.5192   17.8029   29.5979 H   0  0  0  0  0  0  0  0  0  0  0  0
   49.7524   20.4816   29.1929 C   0  0  0  0  0  0  0  0  0  0  0  0
   48.7815   21.3179   28.3308 C   0  0  0  0  0  0  0  0  0  0  0  0
   48.0524   20.4945   27.2161 C   0  0  0  0  0  0  0  0  0  0  0  0
   47.8266   21.2548   25.9822 N   0  0  0  0  0  0  0  0  0  0  0  0
   46.9371   21.6532   25.8428 H   0  0  0  0  0  0  0  0  0  0  0  0
   48.7482   21.4410   25.0378 C   0  0  0  0  0  0  0  0  0  0  0  0
   49.7029   22.3417   25.1944 N   0  0  0  0  0  0  0  0  0  0  0  0
   48.6957   20.7513   23.9130 N   0  0  0  0  0  0  0  0  0  0  0  0
   49.7552   22.8639   26.0274 H   0  0  0  0  0  0  0  0  0  0  0  0
   50.3617   22.4904   24.4781 H   0  0  0  0  0  0  0  0  0  0  0  0
   47.9906   20.0770   23.7814 H   0  0  0  0  0  0  0  0  0  0  0  0
   49.3618   20.9114   23.2059 H   0  0  0  0  0  0  0  0  0  0  0  0
   54.0614   22.1490   29.5003 C   0  0  0  0  0  0  0  0  0  0  0  0
   54.7383   23.0733   28.5063 C   0  0  0  0  0  0  0  0  0  0  0  0
   52.6980   22.6970   29.9009 C   0  0  0  0  0  0  0  0  0  0  0  0
   55.4234   16.2734   29.2788 C   0  0  0  0  0  0  0  0  0  0  0  0
   54.1841   15.9765   30.1179 C   0  0  0  0  0  0  0  0  0  0  0  0
   53.0471   15.3866   29.3074 C   0  0  0  0  0  0  0  0  0  0  0  0
   54.5838   15.0966   31.2740 C   0  0  0  0  0  0  0  0  0  0  0  0
   58.6187   19.1472   31.8786 C   0  0  0  0  0  0  0  0  0  0  0  0
   59.5064   19.8829   32.8422 C   0  0  0  0  0  0  0  0  0  0  0  0
   60.7390   20.3700   32.4350 C   0  0  0  0  0  0  0  0  0  0  0  0
   59.1477   19.9907   34.1827 C   0  0  0  0  0  0  0  0  0  0  0  0
   61.6093   20.9423   33.3444 C   0  0  0  0  0  0  0  0  0  0  0  0
   60.0027   20.5568   35.1016 C   0  0  0  0  0  0  0  0  0  0  0  0
   61.2360   21.0291   34.6871 C   0  0  0  0  0  0  0  0  0  0  0  0
 46 47  1  0  0  0
 47 42  1  0  0  0
 47 50  1  0  0  0
 42 43  2  0  0  0
 50 51  1  0  0  0
 51 52  1  0  0  0
 52 53  1  0  0  0
 53 55  1  0  0  0
 55 56  1  0  0  0
 55 57  2  0  0  0
 44 41  1  0  0  0
 41 37  1  0  0  0
 41 62  1  0  0  0
 37 38  2  0  0  0
 62 63  1  0  0  0
 62 64  1  0  0  0
 39 36  1  0  0  0
 36 35  1  0  0  0
 36 65  1  0  0  0
 65 66  1  0  0  0
 66 67  1  0  0  0
 66 68  1  0  0  0
 33  1  1  0  0  0
  1  2  1  0  0  0
  1 69  1  0  0  0
  2  3  2  0  0  0
 69 70  1  0  0  0
 70 71  2  0  0  0
 70 72  1  0  0  0
 71 73  1  0  0  0
 72 74  2  0  0  0
 73 75  2  0  0  0
 74 75  1  0  0  0
  4  6  1  0  0  0
  6  7  1  0  0  0
  6 27  1  0  0  0
  7  8  2  0  0  0
 27 28  1  0  0  0
 28 29  1  0  0  0
 29 30  2  0  0  0
 29 31  1  0  0  0
  9 11  1  0  0  0
 11 13  1  0  0  0
 11 12  1  0  0  0
 13 14  2  0  0  0
 15 17  1  0  0  0
 17 18  1  0  0  0
 17 23  1  0  0  0
 18 19  2  0  0  0
 23 24  1  0  0  0
 24 25  1  0  0  0
 25 26  1  0  0  0
 42 44  1  0  0  0
 37 39  1  0  0  0
 35 33  1  0  0  0
  2  4  1  0  0  0
  7  9  1  0  0  0
 13 15  1  0  0  0
 18 20  1  0  0  0
 46 48  1  0  0  0
 46 49  1  0  0  0
 53 54  1  0  0  0
 56 58  1  0  0  0
 56 59  1  0  0  0
 57 60  1  0  0  0
 57 61  1  0  0  0
 44 45  1  0  0  0
 39 40  1  0  0  0
 33 34  1  0  0  0
  4  5  1  0  0  0
 31 32  1  0  0  0
  9 10  1  0  0  0
 15 16  1  0  0  0
 20 21  1  0  0  0
 20 22  1  0  0  0
M  CHG 1  57   1
M  END
> <minimizedAffinity>
-8.56733

$$$$
1A94_0Q4_A_100


 75 75  0  0  0  0  0  0  0  0999 V2000
   59.1892   17.1979   31.6156 C   0  0  0  0  0  0  0  0  0  0  0  0
   59.5971   16.5856   32.9912 C   0  0  0  0  0  0  0  0  0  0  0  0
   58.7440   16.2201   33.8276 O   0  0  0  0  0  0  0  0  0  0  0  0
   60.8894   16.4466   33.2315 N   0  0  0  0  0  0  0  0  0  0  0  0
   61.5438   16.7459   32.5595 H   0  0  0  0  0  0  0  0  0  0  0  0
   61.3601   15.8530   34.4846 C   0  0  0  0  0  0  0  0  0  0  0  0
   62.4648   16.7468   35.0284 C   0  0  0  0  0  0  0  0  0  0  0  0
   63.6084   16.7469   34.5718 O   0  0  0  0  0  0  0  0  0  0  0  0
   62.1156   17.5666   35.9827 N   0  0  0  0  0  0  0  0  0  0  0  0
   61.1934   17.5677   36.3275 H   0  0  0  0  0  0  0  0  0  0  0  0
   63.1011   18.4714   36.5250 C   0  0  0  0  0  0  0  0  0  0  0  0
   62.4177   19.7413   37.0201 C   0  0  0  0  0  0  0  0  0  0  0  0
   63.8641   17.8120   37.6459 C   0  0  0  0  0  0  0  0  0  0  0  0
   65.0921   17.6598   37.5737 O   0  0  0  0  0  0  0  0  0  0  0  0
   63.1305   17.4104   38.6691 N   0  0  0  0  0  0  0  0  0  0  0  0
   62.1578   17.5594   38.6407 H   0  0  0  0  0  0  0  0  0  0  0  0
   63.7021   16.7582   39.8334 C   0  0  0  0  0  0  0  0  0  0  0  0
   63.6169   15.2282   39.8682 C   0  0  0  0  0  0  0  0  0  0  0  0
   62.7688   14.5967   39.1771 O   0  0  0  0  0  0  0  0  0  0  0  0
   64.4714   14.6705   40.5849 N   0  0  0  0  0  0  0  0  0  0  0  0
   65.1089   15.2128   41.1032 H   0  0  0  0  0  0  0  0  0  0  0  0
   64.5085   13.6879   40.6323 H   0  0  0  0  0  0  0  0  0  0  0  0
   63.0780   17.3541   41.0822 C   0  0  0  0  0  0  0  0  0  0  0  0
   61.7653   18.0817   40.8036 C   0  0  0  0  0  0  0  0  0  0  0  0
   61.7991   19.5121   41.3398 C   0  0  0  0  0  0  0  0  0  0  0  0
   60.4299   20.1631   41.1465 C   0  0  0  0  0  0  0  0  0  0  0  0
   61.8145   14.4072   34.2142 C   0  0  0  0  0  0  0  0  0  0  0  0
   60.9071   13.2993   34.7297 C   0  0  0  0  0  0  0  0  0  0  0  0
   61.6712   12.0089   35.0123 C   0  0  0  0  0  0  0  0  0  0  0  0
   62.4369   12.0203   36.0046 O   0  0  0  0  0  0  0  0  0  0  0  0
   61.4948   10.9883   34.2843 O   0  0  0  0  0  0  0  0  0  0  0  0
   60.9110   11.0301   33.5526 H   0  0  0  0  0  0  0  0  0  0  0  0
   58.0697   16.4008   31.1336 N   0  0  0  0  0  0  0  0  0  0  0  0
   57.3128   16.5401   31.8030 H   0  0  0  0  0  0  0  0  0  0  0  0
   57.5358   16.5797   29.9283 C   0  0  0  0  0  0  0  0  0  0  0  0
   56.0922   17.0170   29.8944 C   0  0  0  0  0  0  0  0  0  0  0  0
   55.3232   19.2732   30.2977 C   0  0  0  0  0  0  0  0  0  0  0  0
   55.2289   19.0517   31.5154 O   0  0  0  0  0  0  0  0  0  0  0  0
   55.7737   18.3595   29.4433 N   0  0  0  0  0  0  0  0  0  0  0  0
   55.8924   18.5958   28.4950 H   0  0  0  0  0  0  0  0  0  0  0  0
   54.9300   20.6432   29.6938 C   0  0  0  0  0  0  0  0  0  0  0  0
   53.0074   20.2918   28.2149 C   0  0  0  0  0  0  0  0  0  0  0  0
   53.6764   20.2064   27.1967 O   0  0  0  0  0  0  0  0  0  0  0  0
   53.5219   20.4984   29.4163 N   0  0  0  0  0  0  0  0  0  0  0  0
   52.8985   20.5575   30.1760 H   0  0  0  0  0  0  0  0  0  0  0  0
   50.9441   20.9395   27.0060 N   0  0  0  0  0  0  0  0  0  0  0  0
   51.4945   20.1731   28.1624 C   0  0  0  0  0  0  0  0  0  0  0  0
   51.2162   21.9192   27.0869 H   0  0  0  0  0  0  0  0  0  0  0  0
   49.9266   20.8682   27.0042 H   0  0  0  0  0  0  0  0  0  0  0  0
   51.1107   18.6745   28.0902 C   0  0  0  0  0  0  0  0  0  0  0  0
   50.7826   17.9778   29.4290 C   0  0  0  0  0  0  0  0  0  0  0  0
   49.2522   17.7438   29.6643 C   0  0  0  0  0  0  0  0  0  0  0  0
   48.8627   17.8065   31.0771 N   0  0  0  0  0  0  0  0  0  0  0  0
   48.7972   18.6940   31.4980 H   0  0  0  0  0  0  0  0  0  0  0  0
   48.5917   16.7390   31.8274 C   0  0  0  0  0  0  0  0  0  0  0  0
   47.8372   15.7593   31.3601 N   0  0  0  0  0  0  0  0  0  0  0  0
   49.0444   16.6648   33.0656 N   0  0  0  0  0  0  0  0  0  0  0  0
   47.4922   15.8001   30.4390 H   0  0  0  0  0  0  0  0  0  0  0  0
   47.6204   14.9887   31.9332 H   0  0  0  0  0  0  0  0  0  0  0  0
   49.6075   17.3866   33.4279 H   0  0  0  0  0  0  0  0  0  0  0  0
   48.8189   15.8877   33.6264 H   0  0  0  0  0  0  0  0  0  0  0  0
   55.1464   21.7800   30.7107 C   0  0  0  0  0  0  0  0  0  0  0  0
   56.6215   22.1166   30.8177 C   0  0  0  0  0  0  0  0  0  0  0  0
   54.3412   23.0128   30.3215 C   0  0  0  0  0  0  0  0  0  0  0  0
   55.2192   16.0238   29.1596 C   0  0  0  0  0  0  0  0  0  0  0  0
   53.9521   15.8274   29.9865 C   0  0  0  0  0  0  0  0  0  0  0  0
   52.8582   15.0994   29.2307 C   0  0  0  0  0  0  0  0  0  0  0  0
   54.3188   15.1373   31.2748 C   0  0  0  0  0  0  0  0  0  0  0  0
   58.7256   18.6563   31.7363 C   0  0  0  0  0  0  0  0  0  0  0  0
   59.5481   19.4800   32.6865 C   0  0  0  0  0  0  0  0  0  0  0  0
   59.0439   19.8391   33.9272 C   0  0  0  0  0  0  0  0  0  0  0  0
   60.7841   19.9818   32.2895 C   0  0  0  0  0  0  0  0  0  0  0  0
   59.7467   20.6939   34.7563 C   0  0  0  0  0  0  0  0  0  0  0  0
   61.4967   20.8347   33.1023 C   0  0  0  0  0  0  0  0  0  0  0  0
   60.9790   21.1969   34.3339 C   0  0  0  0  0  0  0  0  0  0  0  0
 46 47  1  0  0  0
 47 42  1  0  0  0
 47 50  1  0  0  0
 42 43  2  0  0  0
 50 51  1  0  0  0
 51 52  1  0  0  0
 52 53  1  0  0  0
 53 55  1  0  0  0
 55 56  1  0  0  0
 55 57  2  0  0  0
 44 41  1  0  0  0
 41 37  1  0  0  0
 41 62  1  0  0  0
 37 38  2  0  0  0
 62 63  1  0  0  0
 62 64  1  0  0  0
 39 36  1  0  0  0
 36 35  1  0  0  0
 36 65  1  0  0  0
 65 66  1  0  0  0
 66 67  1  0  0  0
 66 68  1  0  0  0
 33  1  1  0  0  0
  1  2  1  0  0  0
  1 69  1  0  0  0
  2  3  2  0  0  0
 69 70  1  0  0  0
 70 71  2  0  0  0
 70 72  1  0  0  0
 71 73  1  0  0  0
 72 74  2  0  0  0
 73 75  2  0  0  0
 74 75  1  0  0  0
  4  6  1  0  0  0
  6  7  1  0  0  0
  6 27  1  0  0  0
  7  8  2  0  0  0
 27 28  1  0  0  0
 28 29  1  0  0  0
 29 30  2  0  0  0
 29 31  1  0  0  0
  9 11  1  0  0  0
 11 13  1  0  0  0
 11 12  1  0  0  0
 13 14  2  0  0  0
 15 17  1  0  0  0
 17 18  1  0  0  0
 17 23  1  0  0  0
 18 19  2  0  0  0
 23 24  1  0  0  0
 24 25  1  0  0  0
 25 26  1  0  0  0
 42 44  1  0  0  0
 37 39  1  0  0  0
 35 33  1  0  0  0
  2  4  1  0  0  0
  7  9  1  0  0  0
 13 15  1  0  0  0
 18 20  1  0  0  0
 46 48  1  0  0  0
 46 49  1  0  0  0
 53 54  1  0  0  0
 56 58  1  0  0  0
 56 59  1  0  0  0
 57 60  1  0  0  0
 57 61  1  0  0  0
 44 45  1  0  0  0
 39 40  1  0  0  0
 33 34  1  0  0  0
  4  5  1  0  0  0
 31 32  1  0  0  0
  9 10  1  0  0  0
 15 16  1  0  0  0
 20 21  1  0  0  0
 20 22  1  0  0  0
M  CHG 1  57   1
M  END
> <minimizedAffinity>
-8.54103

$$$$
1A94_0Q4_A_100


 75 75  0  0  0  0  0  0  0  0999 V2000
   60.4358   18.7694   34.2417 C   0  0  0  0  0  0  0  0  0  0  0  0
   59.9873   19.2971   32.8439 C   0  0  0  0  0  0  0  0  0  0  0  0
   60.7525   19.9649   32.1162 O   0  0  0  0  0  0  0  0  0  0  0  0
   58.7649   18.9900   32.4456 N   0  0  0  0  0  0  0  0  0  0  0  0
   58.1778   18.4666   33.0378 H   0  0  0  0  0  0  0  0  0  0  0  0
   58.2729   19.4186   31.1347 C   0  0  0  0  0  0  0  0  0  0  0  0
   56.8664   19.9651   31.3296 C   0  0  0  0  0  0  0  0  0  0  0  0
   56.1162   19.5729   32.2238 O   0  0  0  0  0  0  0  0  0  0  0  0
   56.5122   20.9267   30.5205 N   0  0  0  0  0  0  0  0  0  0  0  0
   57.1281   21.2423   29.8202 H   0  0  0  0  0  0  0  0  0  0  0  0
   55.2047   21.5206   30.6676 C   0  0  0  0  0  0  0  0  0  0  0  0
   55.3450   22.9719   31.1137 C   0  0  0  0  0  0  0  0  0  0  0  0
   54.4382   21.4391   29.3717 C   0  0  0  0  0  0  0  0  0  0  0  0
   54.5764   22.3068   28.4974 O   0  0  0  0  0  0  0  0  0  0  0  0
   53.6225   20.4052   29.2616 N   0  0  0  0  0  0  0  0  0  0  0  0
   53.5635   19.7680   30.0098 H   0  0  0  0  0  0  0  0  0  0  0  0
   52.8101   20.1717   28.0813 C   0  0  0  0  0  0  0  0  0  0  0  0
   51.4816   20.9326   28.0067 C   0  0  0  0  0  0  0  0  0  0  0  0
   51.0889   21.6728   28.9520 O   0  0  0  0  0  0  0  0  0  0  0  0
   50.8591   20.7990   26.9347 N   0  0  0  0  0  0  0  0  0  0  0  0
   51.2119   20.2079   26.2309 H   0  0  0  0  0  0  0  0  0  0  0  0
   50.0147   21.2847   26.7920 H   0  0  0  0  0  0  0  0  0  0  0  0
   52.5768   18.6789   27.9368 C   0  0  0  0  0  0  0  0  0  0  0  0
   53.4377   17.8466   28.8835 C   0  0  0  0  0  0  0  0  0  0  0  0
   52.7590   16.5225   29.2314 C   0  0  0  0  0  0  0  0  0  0  0  0
   53.8126   15.5104   29.6801 C   0  0  0  0  0  0  0  0  0  0  0  0
   58.3419   18.2287   30.1604 C   0  0  0  0  0  0  0  0  0  0  0  0
   57.2383   17.1871   30.2767 C   0  0  0  0  0  0  0  0  0  0  0  0
   57.5526   16.1245   31.3259 C   0  0  0  0  0  0  0  0  0  0  0  0
   58.7642   15.9445   31.5916 O   0  0  0  0  0  0  0  0  0  0  0  0
   56.6158   15.4980   31.9027 O   0  0  0  0  0  0  0  0  0  0  0  0
   55.7247   15.6682   31.6685 H   0  0  0  0  0  0  0  0  0  0  0  0
   60.3360   17.3178   34.1777 N   0  0  0  0  0  0  0  0  0  0  0  0
   59.5398   17.1143   33.5735 H   0  0  0  0  0  0  0  0  0  0  0  0
   61.3351   16.5545   33.7435 C   0  0  0  0  0  0  0  0  0  0  0  0
   61.7142   15.3864   34.6201 C   0  0  0  0  0  0  0  0  0  0  0  0
   63.2705   15.0578   36.4405 C   0  0  0  0  0  0  0  0  0  0  0  0
   63.9922   14.3409   35.7292 O   0  0  0  0  0  0  0  0  0  0  0  0
   62.1706   15.6413   35.9742 N   0  0  0  0  0  0  0  0  0  0  0  0
   61.6604   16.2524   36.5534 H   0  0  0  0  0  0  0  0  0  0  0  0
   63.6153   15.3294   37.9250 C   0  0  0  0  0  0  0  0  0  0  0  0
   65.4996   13.9098   38.5893 C   0  0  0  0  0  0  0  0  0  0  0  0
   64.8037   13.0597   39.1228 O   0  0  0  0  0  0  0  0  0  0  0  0
   65.0165   14.9982   38.0123 N   0  0  0  0  0  0  0  0  0  0  0  0
   65.6601   15.6275   37.6137 H   0  0  0  0  0  0  0  0  0  0  0  0
   67.6663   15.0545   38.9546 N   0  0  0  0  0  0  0  0  0  0  0  0
   67.0115   13.7715   38.5636 C   0  0  0  0  0  0  0  0  0  0  0  0
   67.3712   15.7947   38.3178 H   0  0  0  0  0  0  0  0  0  0  0  0
   68.6795   14.9478   38.9056 H   0  0  0  0  0  0  0  0  0  0  0  0
   67.4254   12.6095   39.4999 C   0  0  0  0  0  0  0  0  0  0  0  0
   68.0091   11.3493   38.8242 C   0  0  0  0  0  0  0  0  0  0  0  0
   67.2919   10.0191   39.2347 C   0  0  0  0  0  0  0  0  0  0  0  0
   65.8382   10.1583   39.3724 N   0  0  0  0  0  0  0  0  0  0  0  0
   65.3636   10.7113   38.7104 H   0  0  0  0  0  0  0  0  0  0  0  0
   65.1187    9.5842   40.3360 C   0  0  0  0  0  0  0  0  0  0  0  0
   64.6464   10.2989   41.3428 N   0  0  0  0  0  0  0  0  0  0  0  0
   64.9003    8.2821   40.3162 N   0  0  0  0  0  0  0  0  0  0  0  0
   64.8009   11.2708   41.3717 H   0  0  0  0  0  0  0  0  0  0  0  0
   64.1401    9.8594   42.0637 H   0  0  0  0  0  0  0  0  0  0  0  0
   65.2457    7.7363   39.5732 H   0  0  0  0  0  0  0  0  0  0  0  0
   64.3922    7.8570   41.0445 H   0  0  0  0  0  0  0  0  0  0  0  0
   63.4078   16.8140   38.2798 C   0  0  0  0  0  0  0  0  0  0  0  0
   62.9113   16.9496   39.7066 C   0  0  0  0  0  0  0  0  0  0  0  0
   64.6964   17.6014   38.0824 C   0  0  0  0  0  0  0  0  0  0  0  0
   60.6327   14.3289   34.6490 C   0  0  0  0  0  0  0  0  0  0  0  0
   61.1134   13.1581   33.7970 C   0  0  0  0  0  0  0  0  0  0  0  0
   61.4561   11.9300   34.6169 C   0  0  0  0  0  0  0  0  0  0  0  0
   60.0781   12.8737   32.7397 C   0  0  0  0  0  0  0  0  0  0  0  0
   61.8892   19.1383   34.5700 C   0  0  0  0  0  0  0  0  0  0  0  0
   62.0850   19.6588   35.9660 C   0  0  0  0  0  0  0  0  0  0  0  0
   61.1304   19.4289   36.9450 C   0  0  0  0  0  0  0  0  0  0  0  0
   63.1765   20.4689   36.2649 C   0  0  0  0  0  0  0  0  0  0  0  0
   61.2477   20.0044   38.1967 C   0  0  0  0  0  0  0  0  0  0  0  0
   63.3084   21.0505   37.5060 C   0  0  0  0  0  0  0  0  0  0  0  0
   62.3436   20.8246   38.4725 C   0  0  0  0  0  0  0  0  0  0  0  0
 46 47  1  0  0  0
 47 42  1  0  0  0
 47 50  1  0  0  0
 42 43  2  0  0  0
 50 51  1  0  0  0
 51 52  1  0  0  0
 52 53  1  0  0  0
 53 55  1  0  0  0
 55 56  1  0  0  0
 55 57  2  0  0  0
 44 41  1  0  0  0
 41 37  1  0  0  0
 41 62  1  0  0  0
 37 38  2  0  0  0
 62 63  1  0  0  0
 62 64  1  0  0  0
 39 36  1  0  0  0
 36 35  1  0  0  0
 36 65  1  0  0  0
 65 66  1  0  0  0
 66 67  1  0  0  0
 66 68  1  0  0  0
 33  1  1  0  0  0
  1  2  1  0  0  0
  1 69  1  0  0  0
  2  3  2  0  0  0
 69 70  1  0  0  0
 70 71  2  0  0  0
 70 72  1  0  0  0
 71 73  1  0  0  0
 72 74  2  0  0  0
 73 75  2  0  0  0
 74 75  1  0  0  0
  4  6  1  0  0  0
  6  7  1  0  0  0
  6 27  1  0  0  0
  7  8  2  0  0  0
 27 28  1  0  0  0
 28 29  1  0  0  0
 29 30  2  0  0  0
 29 31  1  0  0  0
  9 11  1  0  0  0
 11 13  1  0  0  0
 11 12  1  0  0  0
 13 14  2  0  0  0
 15 17  1  0  0  0
 17 18  1  0  0  0
 17 23  1  0  0  0
 18 19  2  0  0  0
 23 24  1  0  0  0
 24 25  1  0  0  0
 25 26  1  0  0  0
 42 44  1  0  0  0
 37 39  1  0  0  0
 35 33  1  0  0  0
  2  4  1  0  0  0
  7  9  1  0  0  0
 13 15  1  0  0  0
 18 20  1  0  0  0
 46 48  1  0  0  0
 46 49  1  0  0  0
 53 54  1  0  0  0
 56 58  1  0  0  0
 56 59  1  0  0  0
 57 60  1  0  0  0
 57 61  1  0  0  0
 44 45  1  0  0  0
 39 40  1  0  0  0
 33 34  1  0  0  0
  4  5  1  0  0  0
 31 32  1  0  0  0
  9 10  1  0  0  0
 15 16  1  0  0  0
 20 21  1  0  0  0
 20 22  1  0  0  0
M  CHG 1  57   1
M  END
> <minimizedAffinity>
-8.53533

$$$$
1A94_0Q4_A_100


 75 75  0  0  0  0  0  0  0  0999 V2000
   56.4709   17.2097   30.3732 C   0  0  0  0  0  0  0  0  0  0  0  0
   57.8865   17.4390   30.9872 C   0  0  0  0  0  0  0  0  0  0  0  0
   58.8448   17.8470   30.2969 O   0  0  0  0  0  0  0  0  0  0  0  0
   58.0298   17.2047   32.2801 N   0  0  0  0  0  0  0  0  0  0  0  0
   57.2618   16.8793   32.8031 H   0  0  0  0  0  0  0  0  0  0  0  0
   59.3165   17.4229   32.9443 C   0  0  0  0  0  0  0  0  0  0  0  0
   59.6284   16.1767   33.7594 C   0  0  0  0  0  0  0  0  0  0  0  0
   59.1963   15.9993   34.8988 O   0  0  0  0  0  0  0  0  0  0  0  0
   60.3437   15.2662   33.1560 N   0  0  0  0  0  0  0  0  0  0  0  0
   60.6691   15.4138   32.2386 H   0  0  0  0  0  0  0  0  0  0  0  0
   60.6503   14.0399   33.8533 C   0  0  0  0  0  0  0  0  0  0  0  0
   60.5404   12.8600   32.8937 C   0  0  0  0  0  0  0  0  0  0  0  0
   62.0320   14.1044   34.4534 C   0  0  0  0  0  0  0  0  0  0  0  0
   62.8836   13.2467   34.1786 O   0  0  0  0  0  0  0  0  0  0  0  0
   62.2418   15.1123   35.2820 N   0  0  0  0  0  0  0  0  0  0  0  0
   61.5059   15.7430   35.4550 H   0  0  0  0  0  0  0  0  0  0  0  0
   63.5144   15.3266   35.9471 C   0  0  0  0  0  0  0  0  0  0  0  0
   63.7339   14.5667   37.2600 C   0  0  0  0  0  0  0  0  0  0  0  0
   64.8531   14.0587   37.5515 O   0  0  0  0  0  0  0  0  0  0  0  0
   62.7467   14.5366   38.0211 N   0  0  0  0  0  0  0  0  0  0  0  0
   61.8974   14.9492   37.7423 H   0  0  0  0  0  0  0  0  0  0  0  0
   62.8165   14.1003   38.9009 H   0  0  0  0  0  0  0  0  0  0  0  0
   63.7111   16.8171   36.1560 C   0  0  0  0  0  0  0  0  0  0  0  0
   62.4429   17.6273   35.9005 C   0  0  0  0  0  0  0  0  0  0  0  0
   62.6291   19.0903   36.3005 C   0  0  0  0  0  0  0  0  0  0  0  0
   61.3137   19.6416   36.8494 C   0  0  0  0  0  0  0  0  0  0  0  0
   59.2323   18.7068   33.7894 C   0  0  0  0  0  0  0  0  0  0  0  0
   59.3812   20.0253   33.0437 C   0  0  0  0  0  0  0  0  0  0  0  0
   60.8429   20.4082   32.8298 C   0  0  0  0  0  0  0  0  0  0  0  0
   61.3559   21.1555   33.6955 O   0  0  0  0  0  0  0  0  0  0  0  0
   61.4851   19.9528   31.8384 O   0  0  0  0  0  0  0  0  0  0  0  0
   61.0563   19.3971   31.2176 H   0  0  0  0  0  0  0  0  0  0  0  0
   56.1163   18.4507   29.6984 N   0  0  0  0  0  0  0  0  0  0  0  0
   55.8653   18.1932   28.7439 H   0  0  0  0  0  0  0  0  0  0  0  0
   55.1433   19.2453   30.1358 C   0  0  0  0  0  0  0  0  0  0  0  0
   54.3482   19.9728   29.0797 C   0  0  0  0  0  0  0  0  0  0  0  0
   52.3123   19.7489   27.7955 C   0  0  0  0  0  0  0  0  0  0  0  0
   52.9343   19.9037   26.7326 O   0  0  0  0  0  0  0  0  0  0  0  0
   52.9217   19.7248   28.9770 N   0  0  0  0  0  0  0  0  0  0  0  0
   52.4001   19.5370   29.7905 H   0  0  0  0  0  0  0  0  0  0  0  0
   50.7759   19.5607   27.8114 C   0  0  0  0  0  0  0  0  0  0  0  0
   49.8170   17.5119   28.7548 C   0  0  0  0  0  0  0  0  0  0  0  0
   49.2124   17.2051   27.7390 O   0  0  0  0  0  0  0  0  0  0  0  0
   50.5643   18.5983   28.8648 N   0  0  0  0  0  0  0  0  0  0  0  0
   51.0082   18.7616   29.7283 H   0  0  0  0  0  0  0  0  0  0  0  0
   50.7528   17.0693   31.0058 N   0  0  0  0  0  0  0  0  0  0  0  0
   49.7374   16.6436   29.9980 C   0  0  0  0  0  0  0  0  0  0  0  0
   51.6847   17.0095   30.5956 H   0  0  0  0  0  0  0  0  0  0  0  0
   50.7000   16.4580   31.8206 H   0  0  0  0  0  0  0  0  0  0  0  0
   48.2997   16.7151   30.5691 C   0  0  0  0  0  0  0  0  0  0  0  0
   48.1567   16.6008   32.1027 C   0  0  0  0  0  0  0  0  0  0  0  0
   47.1709   15.4759   32.5661 C   0  0  0  0  0  0  0  0  0  0  0  0
   47.2917   15.1440   33.9898 N   0  0  0  0  0  0  0  0  0  0  0  0
   46.6379   15.5377   34.6117 H   0  0  0  0  0  0  0  0  0  0  0  0
   48.2297   14.3439   34.4954 C   0  0  0  0  0  0  0  0  0  0  0  0
   49.3016   14.8473   35.0829 N   0  0  0  0  0  0  0  0  0  0  0  0
   48.1173   13.0332   34.3812 N   0  0  0  0  0  0  0  0  0  0  0  0
   49.3999   15.8225   35.1756 H   0  0  0  0  0  0  0  0  0  0  0  0
   50.0017   14.2471   35.4277 H   0  0  0  0  0  0  0  0  0  0  0  0
   47.3250   12.6431   33.9462 H   0  0  0  0  0  0  0  0  0  0  0  0
   48.8259   12.4460   34.7311 H   0  0  0  0  0  0  0  0  0  0  0  0
   50.0593   20.8794   28.1588 C   0  0  0  0  0  0  0  0  0  0  0  0
   49.3312   21.4189   26.9425 C   0  0  0  0  0  0  0  0  0  0  0  0
   49.0925   20.6791   29.3184 C   0  0  0  0  0  0  0  0  0  0  0  0
   54.5936   21.4650   29.1173 C   0  0  0  0  0  0  0  0  0  0  0  0
   55.1037   21.8108   30.5131 C   0  0  0  0  0  0  0  0  0  0  0  0
   56.3893   22.6136   30.4921 C   0  0  0  0  0  0  0  0  0  0  0  0
   54.0027   22.5071   31.2703 C   0  0  0  0  0  0  0  0  0  0  0  0
   56.4565   16.0769   29.3374 C   0  0  0  0  0  0  0  0  0  0  0  0
   55.0800   15.6966   28.8699 C   0  0  0  0  0  0  0  0  0  0  0  0
   54.6725   15.9762   27.5745 C   0  0  0  0  0  0  0  0  0  0  0  0
   54.1612   15.1551   29.7642 C   0  0  0  0  0  0  0  0  0  0  0  0
   53.3706   15.7365   27.1749 C   0  0  0  0  0  0  0  0  0  0  0  0
   52.8608   14.9111   29.3832 C   0  0  0  0  0  0  0  0  0  0  0  0
   52.4607   15.2051   28.0911 C   0  0  0  0  0  0  0  0  0  0  0  0
 46 47  1  0  0  0
 47 42  1  0  0  0
 47 50  1  0  0  0
 42 43  2  0  0  0
 50 51  1  0  0  0
 51 52  1  0  0  0
 52 53  1  0  0  0
 53 55  1  0  0  0
 55 56  1  0  0  0
 55 57  2  0  0  0
 44 41  1  0  0  0
 41 37  1  0  0  0
 41 62  1  0  0  0
 37 38  2  0  0  0
 62 63  1  0  0  0
 62 64  1  0  0  0
 39 36  1  0  0  0
 36 35  1  0  0  0
 36 65  1  0  0  0
 65 66  1  0  0  0
 66 67  1  0  0  0
 66 68  1  0  0  0
 33  1  1  0  0  0
  1  2  1  0  0  0
  1 69  1  0  0  0
  2  3  2  0  0  0
 69 70  1  0  0  0
 70 71  2  0  0  0
 70 72  1  0  0  0
 71 73  1  0  0  0
 72 74  2  0  0  0
 73 75  2  0  0  0
 74 75  1  0  0  0
  4  6  1  0  0  0
  6  7  1  0  0  0
  6 27  1  0  0  0
  7  8  2  0  0  0
 27 28  1  0  0  0
 28 29  1  0  0  0
 29 30  2  0  0  0
 29 31  1  0  0  0
  9 11  1  0  0  0
 11 13  1  0  0  0
 11 12  1  0  0  0
 13 14  2  0  0  0
 15 17  1  0  0  0
 17 18  1  0  0  0
 17 23  1  0  0  0
 18 19  2  0  0  0
 23 24  1  0  0  0
 24 25  1  0  0  0
 25 26  1  0  0  0
 42 44  1  0  0  0
 37 39  1  0  0  0
 35 33  1  0  0  0
  2  4  1  0  0  0
  7  9  1  0  0  0
 13 15  1  0  0  0
 18 20  1  0  0  0
 46 48  1  0  0  0
 46 49  1  0  0  0
 53 54  1  0  0  0
 56 58  1  0  0  0
 56 59  1  0  0  0
 57 60  1  0  0  0
 57 61  1  0  0  0
 44 45  1  0  0  0
 39 40  1  0  0  0
 33 34  1  0  0  0
  4  5  1  0  0  0
 31 32  1  0  0  0
  9 10  1  0  0  0
 15 16  1  0  0  0
 20 21  1  0  0  0
 20 22  1  0  0  0
M  CHG 1  57   1
M  END
> <minimizedAffinity>
-8.43675

$$$$
1A94_0Q4_A_100


 75 75  0  0  0  0  0  0  0  0999 V2000
   60.6263   18.1298   34.5730 C   0  0  0  0  0  0  0  0  0  0  0  0
   59.3321   18.5983   33.8387 C   0  0  0  0  0  0  0  0  0  0  0  0
   58.7288   19.6412   34.1698 O   0  0  0  0  0  0  0  0  0  0  0  0
   58.9067   17.8564   32.8310 N   0  0  0  0  0  0  0  0  0  0  0  0
   59.3956   17.0362   32.5909 H   0  0  0  0  0  0  0  0  0  0  0  0
   57.7174   18.2389   32.0671 C   0  0  0  0  0  0  0  0  0  0  0  0
   57.2385   17.0050   31.3168 C   0  0  0  0  0  0  0  0  0  0  0  0
   57.9958   16.0963   30.9748 O   0  0  0  0  0  0  0  0  0  0  0  0
   55.9528   16.9336   31.1008 N   0  0  0  0  0  0  0  0  0  0  0  0
   55.3561   17.6597   31.3942 H   0  0  0  0  0  0  0  0  0  0  0  0
   55.4188   15.7747   30.4258 C   0  0  0  0  0  0  0  0  0  0  0  0
   54.6799   14.8911   31.4251 C   0  0  0  0  0  0  0  0  0  0  0  0
   54.4964   16.1919   29.3084 C   0  0  0  0  0  0  0  0  0  0  0  0
   54.7533   15.9000   28.1315 O   0  0  0  0  0  0  0  0  0  0  0  0
   53.4354   16.8861   29.6810 N   0  0  0  0  0  0  0  0  0  0  0  0
   53.3129   17.0855   30.6372 H   0  0  0  0  0  0  0  0  0  0  0  0
   52.4433   17.3663   28.7361 C   0  0  0  0  0  0  0  0  0  0  0  0
   52.7258   18.7231   28.0815 C   0  0  0  0  0  0  0  0  0  0  0  0
   52.8776   18.8365   26.8325 O   0  0  0  0  0  0  0  0  0  0  0  0
   52.7437   19.6917   28.8663 N   0  0  0  0  0  0  0  0  0  0  0  0
   52.6200   19.5452   29.8320 H   0  0  0  0  0  0  0  0  0  0  0  0
   52.8815   20.6031   28.5205 H   0  0  0  0  0  0  0  0  0  0  0  0
   51.0862   17.3762   29.4161 C   0  0  0  0  0  0  0  0  0  0  0  0
   50.3048   16.0819   29.2061 C   0  0  0  0  0  0  0  0  0  0  0  0
   51.0532   15.1262   28.2780 C   0  0  0  0  0  0  0  0  0  0  0  0
   50.1380   13.9635   27.8956 C   0  0  0  0  0  0  0  0  0  0  0  0
   58.0723   19.4206   31.1465 C   0  0  0  0  0  0  0  0  0  0  0  0
   57.1361   20.6200   31.1846 C   0  0  0  0  0  0  0  0  0  0  0  0
   55.7685   20.3070   30.5841 C   0  0  0  0  0  0  0  0  0  0  0  0
   55.7669   19.7022   29.4863 O   0  0  0  0  0  0  0  0  0  0  0  0
   54.7104   20.6255   31.2019 O   0  0  0  0  0  0  0  0  0  0  0  0
   54.7641   21.0777   32.0207 H   0  0  0  0  0  0  0  0  0  0  0  0
   61.0749   16.9312   33.8780 N   0  0  0  0  0  0  0  0  0  0  0  0
   61.1414   17.1828   32.8917 H   0  0  0  0  0  0  0  0  0  0  0  0
   62.2156   16.3178   34.1814 C   0  0  0  0  0  0  0  0  0  0  0  0
   62.1190   15.1698   35.1559 C   0  0  0  0  0  0  0  0  0  0  0  0
   63.3042   14.9677   37.2532 C   0  0  0  0  0  0  0  0  0  0  0  0
   64.2315   14.3548   36.7006 O   0  0  0  0  0  0  0  0  0  0  0  0
   62.2613   15.4375   36.5754 N   0  0  0  0  0  0  0  0  0  0  0  0
   61.5785   15.9724   37.0411 H   0  0  0  0  0  0  0  0  0  0  0  0
   63.3098   15.2360   38.7777 C   0  0  0  0  0  0  0  0  0  0  0  0
   64.2069   13.7099   40.4728 C   0  0  0  0  0  0  0  0  0  0  0  0
   63.3187   13.9242   41.2832 O   0  0  0  0  0  0  0  0  0  0  0  0
   64.2714   14.2876   39.2841 N   0  0  0  0  0  0  0  0  0  0  0  0
   65.0307   14.0530   38.7031 H   0  0  0  0  0  0  0  0  0  0  0  0
   64.7920   11.4141   41.1974 N   0  0  0  0  0  0  0  0  0  0  0  0
   65.3343   12.7446   40.7934 C   0  0  0  0  0  0  0  0  0  0  0  0
   64.1853   11.5266   42.0097 H   0  0  0  0  0  0  0  0  0  0  0  0
   65.5634   10.7898   41.4331 H   0  0  0  0  0  0  0  0  0  0  0  0
   66.2651   12.6326   39.5608 C   0  0  0  0  0  0  0  0  0  0  0  0
   67.7066   12.1441   39.8230 C   0  0  0  0  0  0  0  0  0  0  0  0
   68.0222   10.7388   39.2085 C   0  0  0  0  0  0  0  0  0  0  0  0
   67.1304    9.6780   39.6892 N   0  0  0  0  0  0  0  0  0  0  0  0
   67.1571    9.4527   40.6472 H   0  0  0  0  0  0  0  0  0  0  0  0
   66.2864    8.9998   38.9124 C   0  0  0  0  0  0  0  0  0  0  0  0
   66.7347    8.1074   38.0462 N   0  0  0  0  0  0  0  0  0  0  0  0
   64.9893    9.2396   38.9722 N   0  0  0  0  0  0  0  0  0  0  0  0
   67.6991    7.9176   37.9897 H   0  0  0  0  0  0  0  0  0  0  0  0
   66.1043    7.6327   37.4576 H   0  0  0  0  0  0  0  0  0  0  0  0
   64.6400    9.9013   39.6121 H   0  0  0  0  0  0  0  0  0  0  0  0
   64.3714    8.7567   38.3770 H   0  0  0  0  0  0  0  0  0  0  0  0
   63.7800   16.6700   39.0866 C   0  0  0  0  0  0  0  0  0  0  0  0
   64.0926   17.4099   37.7999 C   0  0  0  0  0  0  0  0  0  0  0  0
   62.7301   17.4199   39.8957 C   0  0  0  0  0  0  0  0  0  0  0  0
   60.8756   14.3392   34.9272 C   0  0  0  0  0  0  0  0  0  0  0  0
   61.2433   13.2210   33.9563 C   0  0  0  0  0  0  0  0  0  0  0  0
   61.5087   11.8988   34.6485 C   0  0  0  0  0  0  0  0  0  0  0  0
   60.1642   13.1164   32.9098 C   0  0  0  0  0  0  0  0  0  0  0  0
   61.7497   19.1740   34.5068 C   0  0  0  0  0  0  0  0  0  0  0  0
   62.0163   19.8652   35.8141 C   0  0  0  0  0  0  0  0  0  0  0  0
   63.2048   20.5485   36.0214 C   0  0  0  0  0  0  0  0  0  0  0  0
   61.1186   19.7374   36.8700 C   0  0  0  0  0  0  0  0  0  0  0  0
   63.5062   21.0848   37.2597 C   0  0  0  0  0  0  0  0  0  0  0  0
   61.4032   20.2645   38.1098 C   0  0  0  0  0  0  0  0  0  0  0  0
   62.5980   20.9343   38.3096 C   0  0  0  0  0  0  0  0  0  0  0  0
 46 47  1  0  0  0
 47 42  1  0  0  0
 47 50  1  0  0  0
 42 43  2  0  0  0
 50 51  1  0  0  0
 51 52  1  0  0  0
 52 53  1  0  0  0
 53 55  1  0  0  0
 55 56  1  0  0  0
 55 57  2  0  0  0
 44 41  1  0  0  0
 41 37  1  0  0  0
 41 62  1  0  0  0
 37 38  2  0  0  0
 62 63  1  0  0  0
 62 64  1  0  0  0
 39 36  1  0  0  0
 36 35  1  0  0  0
 36 65  1  0  0  0
 65 66  1  0  0  0
 66 67  1  0  0  0
 66 68  1  0  0  0
 33  1  1  0  0  0
  1  2  1  0  0  0
  1 69  1  0  0  0
  2  3  2  0  0  0
 69 70  1  0  0  0
 70 71  2  0  0  0
 70 72  1  0  0  0
 71 73  1  0  0  0
 72 74  2  0  0  0
 73 75  2  0  0  0
 74 75  1  0  0  0
  4  6  1  0  0  0
  6  7  1  0  0  0
  6 27  1  0  0  0
  7  8  2  0  0  0
 27 28  1  0  0  0
 28 29  1  0  0  0
 29 30  2  0  0  0
 29 31  1  0  0  0
  9 11  1  0  0  0
 11 13  1  0  0  0
 11 12  1  0  0  0
 13 14  2  0  0  0
 15 17  1  0  0  0
 17 18  1  0  0  0
 17 23  1  0  0  0
 18 19  2  0  0  0
 23 24  1  0  0  0
 24 25  1  0  0  0
 25 26  1  0  0  0
 42 44  1  0  0  0
 37 39  1  0  0  0
 35 33  1  0  0  0
  2  4  1  0  0  0
  7  9  1  0  0  0
 13 15  1  0  0  0
 18 20  1  0  0  0
 46 48  1  0  0  0
 46 49  1  0  0  0
 53 54  1  0  0  0
 56 58  1  0  0  0
 56 59  1  0  0  0
 57 60  1  0  0  0
 57 61  1  0  0  0
 44 45  1  0  0  0
 39 40  1  0  0  0
 33 34  1  0  0  0
  4  5  1  0  0  0
 31 32  1  0  0  0
  9 10  1  0  0  0
 15 16  1  0  0  0
 20 21  1  0  0  0
 20 22  1  0  0  0
M  CHG 1  57   1
M  END
> <minimizedAffinity>
-8.33196

$$$$
1A94_0Q4_A_100


 75 75  0  0  0  0  0  0  0  0999 V2000
   56.4874   20.0596   29.8516 C   0  0  0  0  0  0  0  0  0  0  0  0
   57.7709   19.3898   30.4325 C   0  0  0  0  0  0  0  0  0  0  0  0
   58.3951   18.5086   29.8040 O   0  0  0  0  0  0  0  0  0  0  0  0
   58.1891   19.8085   31.6144 N   0  0  0  0  0  0  0  0  0  0  0  0
   57.6786   20.5007   32.0934 H   0  0  0  0  0  0  0  0  0  0  0  0
   59.4022   19.2557   32.2202 C   0  0  0  0  0  0  0  0  0  0  0  0
   59.0103   17.9765   32.9450 C   0  0  0  0  0  0  0  0  0  0  0  0
   58.1690   17.9500   33.8437 O   0  0  0  0  0  0  0  0  0  0  0  0
   59.5817   16.8828   32.5183 N   0  0  0  0  0  0  0  0  0  0  0  0
   60.2407   16.9160   31.7877 H   0  0  0  0  0  0  0  0  0  0  0  0
   59.2332   15.6242   33.1335 C   0  0  0  0  0  0  0  0  0  0  0  0
   59.4053   14.4929   32.1257 C   0  0  0  0  0  0  0  0  0  0  0  0
   60.0849   15.3780   34.3530 C   0  0  0  0  0  0  0  0  0  0  0  0
   59.5733   15.0100   35.4203 O   0  0  0  0  0  0  0  0  0  0  0  0
   61.3782   15.5973   34.1926 N   0  0  0  0  0  0  0  0  0  0  0  0
   61.7008   15.9006   33.3133 H   0  0  0  0  0  0  0  0  0  0  0  0
   62.3423   15.4088   35.2616 C   0  0  0  0  0  0  0  0  0  0  0  0
   63.4443   16.4674   35.3804 C   0  0  0  0  0  0  0  0  0  0  0  0
   64.0099   16.7131   36.4829 O   0  0  0  0  0  0  0  0  0  0  0  0
   63.7614   17.0185   34.3078 N   0  0  0  0  0  0  0  0  0  0  0  0
   63.2860   16.7886   33.4769 H   0  0  0  0  0  0  0  0  0  0  0  0
   64.4872   17.6835   34.2918 H   0  0  0  0  0  0  0  0  0  0  0  0
   62.9478   14.0228   35.1340 C   0  0  0  0  0  0  0  0  0  0  0  0
   62.3786   13.0283   36.1425 C   0  0  0  0  0  0  0  0  0  0  0  0
   62.0311   11.6985   35.4749 C   0  0  0  0  0  0  0  0  0  0  0  0
   61.2542   11.9614   34.1853 C   0  0  0  0  0  0  0  0  0  0  0  0
   60.0308   20.3174   33.1407 C   0  0  0  0  0  0  0  0  0  0  0  0
   61.4781   20.6943   32.8583 C   0  0  0  0  0  0  0  0  0  0  0  0
   62.4138   20.2930   33.9952 C   0  0  0  0  0  0  0  0  0  0  0  0
   61.9180   20.2775   35.1462 O   0  0  0  0  0  0  0  0  0  0  0  0
   63.6128   19.9673   33.7523 O   0  0  0  0  0  0  0  0  0  0  0  0
   63.9371   19.9954   32.8737 H   0  0  0  0  0  0  0  0  0  0  0  0
   55.6140   18.9702   29.4377 N   0  0  0  0  0  0  0  0  0  0  0  0
   56.2102   18.2935   28.9611 H   0  0  0  0  0  0  0  0  0  0  0  0
   54.8843   18.2745   30.3055 C   0  0  0  0  0  0  0  0  0  0  0  0
   53.7659   17.4445   29.7250 C   0  0  0  0  0  0  0  0  0  0  0  0
   51.3594   17.3717   29.9439 C   0  0  0  0  0  0  0  0  0  0  0  0
   51.4161   16.2579   30.4890 O   0  0  0  0  0  0  0  0  0  0  0  0
   52.4499   18.0396   29.5798 N   0  0  0  0  0  0  0  0  0  0  0  0
   52.3639   18.9470   29.2078 H   0  0  0  0  0  0  0  0  0  0  0  0
   50.0039   18.0641   29.6621 C   0  0  0  0  0  0  0  0  0  0  0  0
   49.9948   20.3329   28.7351 C   0  0  0  0  0  0  0  0  0  0  0  0
   49.3570   20.8172   29.6571 O   0  0  0  0  0  0  0  0  0  0  0  0
   50.3314   19.0550   28.6665 N   0  0  0  0  0  0  0  0  0  0  0  0
   50.8424   18.7592   27.8787 H   0  0  0  0  0  0  0  0  0  0  0  0
   51.7661   20.7270   27.0481 N   0  0  0  0  0  0  0  0  0  0  0  0
   50.4464   21.1922   27.5675 C   0  0  0  0  0  0  0  0  0  0  0  0
   52.4576   20.7618   27.7971 H   0  0  0  0  0  0  0  0  0  0  0  0
   52.0629   21.3324   26.2828 H   0  0  0  0  0  0  0  0  0  0  0  0
   49.3555   21.1597   26.4687 C   0  0  0  0  0  0  0  0  0  0  0  0
   48.6215   22.4879   26.1814 C   0  0  0  0  0  0  0  0  0  0  0  0
   47.2170   22.5976   26.8652 C   0  0  0  0  0  0  0  0  0  0  0  0
   46.8739   21.4302   27.6843 N   0  0  0  0  0  0  0  0  0  0  0  0
   47.1373   20.5413   27.3529 H   0  0  0  0  0  0  0  0  0  0  0  0
   46.2283   21.4955   28.8483 C   0  0  0  0  0  0  0  0  0  0  0  0
   45.1835   20.7211   29.0852 N   0  0  0  0  0  0  0  0  0  0  0  0
   46.6033   22.3653   29.7682 N   0  0  0  0  0  0  0  0  0  0  0  0
   44.8917   20.0676   28.4091 H   0  0  0  0  0  0  0  0  0  0  0  0
   44.6971   20.7978   29.9377 H   0  0  0  0  0  0  0  0  0  0  0  0
   47.3794   22.9490   29.6066 H   0  0  0  0  0  0  0  0  0  0  0  0
   46.1067   22.4302   30.6158 H   0  0  0  0  0  0  0  0  0  0  0  0
   48.9806   17.0663   29.0873 C   0  0  0  0  0  0  0  0  0  0  0  0
   47.7993   16.9236   30.0279 C   0  0  0  0  0  0  0  0  0  0  0  0
   48.5163   17.5056   27.7049 C   0  0  0  0  0  0  0  0  0  0  0  0
   54.1658   16.7938   28.4192 C   0  0  0  0  0  0  0  0  0  0  0  0
   54.8365   15.4653   28.7554 C   0  0  0  0  0  0  0  0  0  0  0  0
   56.3457   15.5126   28.6206 C   0  0  0  0  0  0  0  0  0  0  0  0
   54.3948   15.0363   30.1307 C   0  0  0  0  0  0  0  0  0  0  0  0
   55.7425   20.9045   30.8946 C   0  0  0  0  0  0  0  0  0  0  0  0
   54.8291   21.9392   30.3004 C   0  0  0  0  0  0  0  0  0  0  0  0
   55.3442   22.9984   29.5688 C   0  0  0  0  0  0  0  0  0  0  0  0
   53.4637   21.9046   30.5676 C   0  0  0  0  0  0  0  0  0  0  0  0
   54.5216   24.0155   29.1210 C   0  0  0  0  0  0  0  0  0  0  0  0
   52.6304   22.9095   30.1300 C   0  0  0  0  0  0  0  0  0  0  0  0
   53.1564   23.9689   29.4108 C   0  0  0  0  0  0  0  0  0  0  0  0
 46 47  1  0  0  0
 47 42  1  0  0  0
 47 50  1  0  0  0
 42 43  2  0  0  0
 50 51  1  0  0  0
 51 52  1  0  0  0
 52 53  1  0  0  0
 53 55  1  0  0  0
 55 56  1  0  0  0
 55 57  2  0  0  0
 44 41  1  0  0  0
 41 37  1  0  0  0
 41 62  1  0  0  0
 37 38  2  0  0  0
 62 63  1  0  0  0
 62 64  1  0  0  0
 39 36  1  0  0  0
 36 35  1  0  0  0
 36 65  1  0  0  0
 65 66  1  0  0  0
 66 67  1  0  0  0
 66 68  1  0  0  0
 33  1  1  0  0  0
  1  2  1  0  0  0
  1 69  1  0  0  0
  2  3  2  0  0  0
 69 70  1  0  0  0
 70 71  2  0  0  0
 70 72  1  0  0  0
 71 73  1  0  0  0
 72 74  2  0  0  0
 73 75  2  0  0  0
 74 75  1  0  0  0
  4  6  1  0  0  0
  6  7  1  0  0  0
  6 27  1  0  0  0
  7  8  2  0  0  0
 27 28  1  0  0  0
 28 29  1  0  0  0
 29 30  2  0  0  0
 29 31  1  0  0  0
  9 11  1  0  0  0
 11 13  1  0  0  0
 11 12  1  0  0  0
 13 14  2  0  0  0
 15 17  1  0  0  0
 17 18  1  0  0  0
 17 23  1  0  0  0
 18 19  2  0  0  0
 23 24  1  0  0  0
 24 25  1  0  0  0
 25 26  1  0  0  0
 42 44  1  0  0  0
 37 39  1  0  0  0
 35 33  1  0  0  0
  2  4  1  0  0  0
  7  9  1  0  0  0
 13 15  1  0  0  0
 18 20  1  0  0  0
 46 48  1  0  0  0
 46 49  1  0  0  0
 53 54  1  0  0  0
 56 58  1  0  0  0
 56 59  1  0  0  0
 57 60  1  0  0  0
 57 61  1  0  0  0
 44 45  1  0  0  0
 39 40  1  0  0  0
 33 34  1  0  0  0
  4  5  1  0  0  0
 31 32  1  0  0  0
  9 10  1  0  0  0
 15 16  1  0  0  0
 20 21  1  0  0  0
 20 22  1  0  0  0
M  CHG 1  57   1
M  END
> <minimizedAffinity>
-8.28185

$$$$
1A94_0Q4_A_100


 75 75  0  0  0  0  0  0  0  0999 V2000
   56.0160   16.9919   31.7857 C   0  0  0  0  0  0  0  0  0  0  0  0
   57.5609   16.9074   31.9846 C   0  0  0  0  0  0  0  0  0  0  0  0
   58.3398   16.7369   31.0226 O   0  0  0  0  0  0  0  0  0  0  0  0
   58.0203   17.0461   33.2162 N   0  0  0  0  0  0  0  0  0  0  0  0
   57.3875   17.1749   33.9594 H   0  0  0  0  0  0  0  0  0  0  0  0
   59.4585   17.0105   33.4892 C   0  0  0  0  0  0  0  0  0  0  0  0
   59.7421   15.7468   34.2875 C   0  0  0  0  0  0  0  0  0  0  0  0
   59.0614   15.4011   35.2537 O   0  0  0  0  0  0  0  0  0  0  0  0
   60.7267   15.0078   33.8526 N   0  0  0  0  0  0  0  0  0  0  0  0
   61.2527   15.2877   33.0688 H   0  0  0  0  0  0  0  0  0  0  0  0
   61.0329   13.7744   34.5375 C   0  0  0  0  0  0  0  0  0  0  0  0
   61.0381   12.6196   33.5417 C   0  0  0  0  0  0  0  0  0  0  0  0
   62.3655   13.8743   35.2359 C   0  0  0  0  0  0  0  0  0  0  0  0
   63.3446   13.2325   34.8288 O   0  0  0  0  0  0  0  0  0  0  0  0
   62.3914   14.6667   36.2931 N   0  0  0  0  0  0  0  0  0  0  0  0
   61.5641   15.1310   36.5562 H   0  0  0  0  0  0  0  0  0  0  0  0
   63.5914   14.8798   37.0820 C   0  0  0  0  0  0  0  0  0  0  0  0
   63.6630   14.1462   38.4258 C   0  0  0  0  0  0  0  0  0  0  0  0
   64.2171   13.0162   38.5342 O   0  0  0  0  0  0  0  0  0  0  0  0
   63.1807   14.7702   39.3916 N   0  0  0  0  0  0  0  0  0  0  0  0
   62.7598   15.6488   39.2493 H   0  0  0  0  0  0  0  0  0  0  0  0
   63.2207   14.3843   40.2964 H   0  0  0  0  0  0  0  0  0  0  0  0
   63.7870   16.3720   37.2796 C   0  0  0  0  0  0  0  0  0  0  0  0
   62.8223   17.2148   36.4494 C   0  0  0  0  0  0  0  0  0  0  0  0
   63.3180   17.3718   35.0126 C   0  0  0  0  0  0  0  0  0  0  0  0
   64.5366   18.2938   34.9900 C   0  0  0  0  0  0  0  0  0  0  0  0
   59.8616   18.3042   34.2197 C   0  0  0  0  0  0  0  0  0  0  0  0
   59.3070   19.6057   33.6584 C   0  0  0  0  0  0  0  0  0  0  0  0
   59.8535   19.9165   32.2679 C   0  0  0  0  0  0  0  0  0  0  0  0
   59.0085   20.2072   31.3889 O   0  0  0  0  0  0  0  0  0  0  0  0
   61.1011   19.9048   32.0534 O   0  0  0  0  0  0  0  0  0  0  0  0
   61.6931   19.6804   32.7441 H   0  0  0  0  0  0  0  0  0  0  0  0
   55.8014   17.8854   30.6559 N   0  0  0  0  0  0  0  0  0  0  0  0
   55.3340   17.3300   29.9393 H   0  0  0  0  0  0  0  0  0  0  0  0
   55.1044   19.0134   30.7634 C   0  0  0  0  0  0  0  0  0  0  0  0
   54.6027   19.6151   29.4739 C   0  0  0  0  0  0  0  0  0  0  0  0
   52.7672   19.5561   27.9018 C   0  0  0  0  0  0  0  0  0  0  0  0
   53.5541   19.5675   26.9419 O   0  0  0  0  0  0  0  0  0  0  0  0
   53.1871   19.5340   29.1631 N   0  0  0  0  0  0  0  0  0  0  0  0
   52.5312   19.4620   29.8938 H   0  0  0  0  0  0  0  0  0  0  0  0
   51.2340   19.5549   27.6883 C   0  0  0  0  0  0  0  0  0  0  0  0
   49.8524   17.9051   28.8615 C   0  0  0  0  0  0  0  0  0  0  0  0
   49.3641   17.4388   27.8437 O   0  0  0  0  0  0  0  0  0  0  0  0
   50.7293   18.8960   28.8680 N   0  0  0  0  0  0  0  0  0  0  0  0
   51.0612   19.2060   29.7415 H   0  0  0  0  0  0  0  0  0  0  0  0
   48.5149   18.2949   30.9103 N   0  0  0  0  0  0  0  0  0  0  0  0
   49.4630   17.3666   30.2268 C   0  0  0  0  0  0  0  0  0  0  0  0
   48.9481   19.2134   31.0063 H   0  0  0  0  0  0  0  0  0  0  0  0
   48.2869   17.9283   31.8344 H   0  0  0  0  0  0  0  0  0  0  0  0
   48.8549   15.9529   30.0542 C   0  0  0  0  0  0  0  0  0  0  0  0
   47.4616   15.7169   30.6775 C   0  0  0  0  0  0  0  0  0  0  0  0
   46.3646   15.3008   29.6404 C   0  0  0  0  0  0  0  0  0  0  0  0
   45.4762   16.4031   29.2567 N   0  0  0  0  0  0  0  0  0  0  0  0
   44.5157   16.3099   29.4519 H   0  0  0  0  0  0  0  0  0  0  0  0
   45.8856   17.5224   28.6606 C   0  0  0  0  0  0  0  0  0  0  0  0
   46.3698   17.4942   27.4309 N   0  0  0  0  0  0  0  0  0  0  0  0
   45.8478   18.6724   29.3084 N   0  0  0  0  0  0  0  0  0  0  0  0
   46.4047   16.6444   26.9349 H   0  0  0  0  0  0  0  0  0  0  0  0
   46.6955   18.3229   27.0109 H   0  0  0  0  0  0  0  0  0  0  0  0
   45.4900   18.7095   30.2249 H   0  0  0  0  0  0  0  0  0  0  0  0
   46.1772   19.4926   28.8750 H   0  0  0  0  0  0  0  0  0  0  0  0
   50.6829   20.9917   27.6180 C   0  0  0  0  0  0  0  0  0  0  0  0
   49.5094   21.0588   26.6593 C   0  0  0  0  0  0  0  0  0  0  0  0
   50.2751   21.4817   29.0011 C   0  0  0  0  0  0  0  0  0  0  0  0
   55.0709   21.0429   29.2983 C   0  0  0  0  0  0  0  0  0  0  0  0
   55.0919   21.6917   30.6790 C   0  0  0  0  0  0  0  0  0  0  0  0
   56.3525   22.4925   30.9383 C   0  0  0  0  0  0  0  0  0  0  0  0
   53.8418   22.5168   30.8434 C   0  0  0  0  0  0  0  0  0  0  0  0
   55.3920   15.6305   31.4485 C   0  0  0  0  0  0  0  0  0  0  0  0
   54.6648   15.6027   30.1339 C   0  0  0  0  0  0  0  0  0  0  0  0
   55.3671   15.5302   28.9405 C   0  0  0  0  0  0  0  0  0  0  0  0
   53.2821   15.7568   30.0947 C   0  0  0  0  0  0  0  0  0  0  0  0
   54.7115   15.6236   27.7267 C   0  0  0  0  0  0  0  0  0  0  0  0
   52.6136   15.8524   28.8948 C   0  0  0  0  0  0  0  0  0  0  0  0
   53.3254   15.7912   27.7092 C   0  0  0  0  0  0  0  0  0  0  0  0
 46 47  1  0  0  0
 47 42  1  0  0  0
 47 50  1  0  0  0
 42 43  2  0  0  0
 50 51  1  0  0  0
 51 52  1  0  0  0
 52 53  1  0  0  0
 53 55  1  0  0  0
 55 56  1  0  0  0
 55 57  2  0  0  0
 44 41  1  0  0  0
 41 37  1  0  0  0
 41 62  1  0  0  0
 37 38  2  0  0  0
 62 63  1  0  0  0
 62 64  1  0  0  0
 39 36  1  0  0  0
 36 35  1  0  0  0
 36 65  1  0  0  0
 65 66  1  0  0  0
 66 67  1  0  0  0
 66 68  1  0  0  0
 33  1  1  0  0  0
  1  2  1  0  0  0
  1 69  1  0  0  0
  2  3  2  0  0  0
 69 70  1  0  0  0
 70 71  2  0  0  0
 70 72  1  0  0  0
 71 73  1  0  0  0
 72 74  2  0  0  0
 73 75  2  0  0  0
 74 75  1  0  0  0
  4  6  1  0  0  0
  6  7  1  0  0  0
  6 27  1  0  0  0
  7  8  2  0  0  0
 27 28  1  0  0  0
 28 29  1  0  0  0
 29 30  2  0  0  0
 29 31  1  0  0  0
  9 11  1  0  0  0
 11 13  1  0  0  0
 11 12  1  0  0  0
 13 14  2  0  0  0
 15 17  1  0  0  0
 17 18  1  0  0  0
 17 23  1  0  0  0
 18 19  2  0  0  0
 23 24  1  0  0  0
 24 25  1  0  0  0
 25 26  1  0  0  0
 42 44  1  0  0  0
 37 39  1  0  0  0
 35 33  1  0  0  0
  2  4  1  0  0  0
  7  9  1  0  0  0
 13 15  1  0  0  0
 18 20  1  0  0  0
 46 48  1  0  0  0
 46 49  1  0  0  0
 53 54  1  0  0  0
 56 58  1  0  0  0
 56 59  1  0  0  0
 57 60  1  0  0  0
 57 61  1  0  0  0
 44 45  1  0  0  0
 39 40  1  0  0  0
 33 34  1  0  0  0
  4  5  1  0  0  0
 31 32  1  0  0  0
  9 10  1  0  0  0
 15 16  1  0  0  0
 20 21  1  0  0  0
 20 22  1  0  0  0
M  CHG 1  57   1
M  END
> <minimizedAffinity>
-8.11962

$$$$
1A94_0Q4_A_100


 75 75  0  0  0  0  0  0  0  0999 V2000
   57.1633   20.4342   29.9765 C   0  0  0  0  0  0  0  0  0  0  0  0
   58.3350   19.6131   30.5981 C   0  0  0  0  0  0  0  0  0  0  0  0
   58.7584   18.5647   30.0664 O   0  0  0  0  0  0  0  0  0  0  0  0
   58.8821   20.0838   31.7055 N   0  0  0  0  0  0  0  0  0  0  0  0
   58.5289   20.9093   32.1093 H   0  0  0  0  0  0  0  0  0  0  0  0
   60.0068   19.3927   32.3393 C   0  0  0  0  0  0  0  0  0  0  0  0
   59.4489   18.1733   33.0581 C   0  0  0  0  0  0  0  0  0  0  0  0
   58.5940   18.2523   33.9408 O   0  0  0  0  0  0  0  0  0  0  0  0
   59.8910   17.0167   32.6438 N   0  0  0  0  0  0  0  0  0  0  0  0
   60.5626   16.9670   31.9257 H   0  0  0  0  0  0  0  0  0  0  0  0
   59.3806   15.8120   33.2538 C   0  0  0  0  0  0  0  0  0  0  0  0
   59.3981   14.6735   32.2395 C   0  0  0  0  0  0  0  0  0  0  0  0
   60.1961   15.4482   34.4687 C   0  0  0  0  0  0  0  0  0  0  0  0
   59.6502   15.0062   35.4899 O   0  0  0  0  0  0  0  0  0  0  0  0
   61.4972   15.6507   34.3573 N   0  0  0  0  0  0  0  0  0  0  0  0
   61.8480   16.0173   33.5136 H   0  0  0  0  0  0  0  0  0  0  0  0
   62.4299   15.3542   35.4296 C   0  0  0  0  0  0  0  0  0  0  0  0
   63.5604   16.3657   35.6491 C   0  0  0  0  0  0  0  0  0  0  0  0
   64.0736   16.5476   36.7889 O   0  0  0  0  0  0  0  0  0  0  0  0
   63.9544   16.9454   34.6179 N   0  0  0  0  0  0  0  0  0  0  0  0
   63.5170   16.7655   33.7544 H   0  0  0  0  0  0  0  0  0  0  0  0
   64.7029   17.5830   34.6672 H   0  0  0  0  0  0  0  0  0  0  0  0
   62.9961   13.9626   35.2132 C   0  0  0  0  0  0  0  0  0  0  0  0
   62.2829   12.8940   36.0376 C   0  0  0  0  0  0  0  0  0  0  0  0
   62.0420   11.6283   35.2161 C   0  0  0  0  0  0  0  0  0  0  0  0
   60.9665   11.8984   34.1644 C   0  0  0  0  0  0  0  0  0  0  0  0
   60.7379   20.3762   33.2711 C   0  0  0  0  0  0  0  0  0  0  0  0
   61.8403   19.7959   34.1455 C   0  0  0  0  0  0  0  0  0  0  0  0
   61.4055   19.6419   35.6001 C   0  0  0  0  0  0  0  0  0  0  0  0
   61.4195   20.6821   36.2993 O   0  0  0  0  0  0  0  0  0  0  0  0
   61.0256   18.5168   36.0387 O   0  0  0  0  0  0  0  0  0  0  0  0
   61.0336   17.7676   35.4760 H   0  0  0  0  0  0  0  0  0  0  0  0
   56.0964   19.4793   29.7099 N   0  0  0  0  0  0  0  0  0  0  0  0
   56.5176   18.7282   29.1633 H   0  0  0  0  0  0  0  0  0  0  0  0
   55.4105   18.8885   30.6846 C   0  0  0  0  0  0  0  0  0  0  0  0
   54.4598   17.7945   30.2652 C   0  0  0  0  0  0  0  0  0  0  0  0
   53.0412   18.2791   28.3687 C   0  0  0  0  0  0  0  0  0  0  0  0
   53.9618   18.0153   27.5789 O   0  0  0  0  0  0  0  0  0  0  0  0
   53.1797   18.1582   29.6855 N   0  0  0  0  0  0  0  0  0  0  0  0
   52.4061   18.3169   30.2733 H   0  0  0  0  0  0  0  0  0  0  0  0
   51.6582   18.7584   27.8648 C   0  0  0  0  0  0  0  0  0  0  0  0
   49.9211   17.4207   28.9603 C   0  0  0  0  0  0  0  0  0  0  0  0
   49.7895   16.6420   28.0287 O   0  0  0  0  0  0  0  0  0  0  0  0
   50.7708   18.4350   28.9550 N   0  0  0  0  0  0  0  0  0  0  0  0
   50.7995   19.0107   29.7531 H   0  0  0  0  0  0  0  0  0  0  0  0
   49.9561   17.1225   31.4196 N   0  0  0  0  0  0  0  0  0  0  0  0
   49.0835   17.2751   30.2184 C   0  0  0  0  0  0  0  0  0  0  0  0
   50.5566   16.3064   31.3021 H   0  0  0  0  0  0  0  0  0  0  0  0
   49.3748   17.0003   32.2488 H   0  0  0  0  0  0  0  0  0  0  0  0
   48.1478   18.5028   30.3434 C   0  0  0  0  0  0  0  0  0  0  0  0
   46.8217   18.4469   29.5536 C   0  0  0  0  0  0  0  0  0  0  0  0
   46.5974   19.6704   28.6024 C   0  0  0  0  0  0  0  0  0  0  0  0
   47.7168   19.9095   27.6851 N   0  0  0  0  0  0  0  0  0  0  0  0
   48.3406   20.6401   27.9001 H   0  0  0  0  0  0  0  0  0  0  0  0
   47.9434   19.2011   26.5794 C   0  0  0  0  0  0  0  0  0  0  0  0
   48.8058   19.6245   25.6713 N   0  0  0  0  0  0  0  0  0  0  0  0
   47.2781   18.0821   26.3589 N   0  0  0  0  0  0  0  0  0  0  0  0
   49.3095   20.4570   25.8212 H   0  0  0  0  0  0  0  0  0  0  0  0
   48.9444   19.1073   24.8451 H   0  0  0  0  0  0  0  0  0  0  0  0
   46.6324   17.7538   27.0257 H   0  0  0  0  0  0  0  0  0  0  0  0
   47.4276   17.5760   25.5278 H   0  0  0  0  0  0  0  0  0  0  0  0
   51.6531   20.2797   27.6226 C   0  0  0  0  0  0  0  0  0  0  0  0
   50.8500   20.9816   28.7011 C   0  0  0  0  0  0  0  0  0  0  0  0
   53.0750   20.8230   27.5725 C   0  0  0  0  0  0  0  0  0  0  0  0
   55.1346   16.7694   29.3808 C   0  0  0  0  0  0  0  0  0  0  0  0
   55.3179   15.5002   30.2074 C   0  0  0  0  0  0  0  0  0  0  0  0
   55.8740   15.7697   31.5916 C   0  0  0  0  0  0  0  0  0  0  0  0
   54.0075   14.7575   30.2481 C   0  0  0  0  0  0  0  0  0  0  0  0
   56.6232   21.5048   30.9350 C   0  0  0  0  0  0  0  0  0  0  0  0
   55.4354   22.2555   30.4025 C   0  0  0  0  0  0  0  0  0  0  0  0
   55.5625   23.0869   29.3002 C   0  0  0  0  0  0  0  0  0  0  0  0
   54.2175   22.2074   31.0745 C   0  0  0  0  0  0  0  0  0  0  0  0
   54.5037   23.8699   28.8786 C   0  0  0  0  0  0  0  0  0  0  0  0
   53.1533   22.9810   30.6686 C   0  0  0  0  0  0  0  0  0  0  0  0
   53.2942   23.8170   29.5744 C   0  0  0  0  0  0  0  0  0  0  0  0
 46 47  1  0  0  0
 47 42  1  0  0  0
 47 50  1  0  0  0
 42 43  2  0  0  0
 50 51  1  0  0  0
 51 52  1  0  0  0
 52 53  1  0  0  0
 53 55  1  0  0  0
 55 56  1  0  0  0
 55 57  2  0  0  0
 44 41  1  0  0  0
 41 37  1  0  0  0
 41 62  1  0  0  0
 37 38  2  0  0  0
 62 63  1  0  0  0
 62 64  1  0  0  0
 39 36  1  0  0  0
 36 35  1  0  0  0
 36 65  1  0  0  0
 65 66  1  0  0  0
 66 67  1  0  0  0
 66 68  1  0  0  0
 33  1  1  0  0  0
  1  2  1  0  0  0
  1 69  1  0  0  0
  2  3  2  0  0  0
 69 70  1  0  0  0
 70 71  2  0  0  0
 70 72  1  0  0  0
 71 73  1  0  0  0
 72 74  2  0  0  0
 73 75  2  0  0  0
 74 75  1  0  0  0
  4  6  1  0  0  0
  6  7  1  0  0  0
  6 27  1  0  0  0
  7  8  2  0  0  0
 27 28  1  0  0  0
 28 29  1  0  0  0
 29 30  2  0  0  0
 29 31  1  0  0  0
  9 11  1  0  0  0
 11 13  1  0  0  0
 11 12  1  0  0  0
 13 14  2  0  0  0
 15 17  1  0  0  0
 17 18  1  0  0  0
 17 23  1  0  0  0
 18 19  2  0  0  0
 23 24  1  0  0  0
 24 25  1  0  0  0
 25 26  1  0  0  0
 42 44  1  0  0  0
 37 39  1  0  0  0
 35 33  1  0  0  0
  2  4  1  0  0  0
  7  9  1  0  0  0
 13 15  1  0  0  0
 18 20  1  0  0  0
 46 48  1  0  0  0
 46 49  1  0  0  0
 53 54  1  0  0  0
 56 58  1  0  0  0
 56 59  1  0  0  0
 57 60  1  0  0  0
 57 61  1  0  0  0
 44 45  1  0  0  0
 39 40  1  0  0  0
 33 34  1  0  0  0
  4  5  1  0  0  0
 31 32  1  0  0  0
  9 10  1  0  0  0
 15 16  1  0  0  0
 20 21  1  0  0  0
 20 22  1  0  0  0
M  CHG 1  57   1
M  END
> <minimizedAffinity>
-8.02048

$$$$
1A94_0Q4_A_100


 75 75  0  0  0  0  0  0  0  0999 V2000
   63.6208   16.0773   38.6026 C   0  0  0  0  0  0  0  0  0  0  0  0
   63.5684   16.5926   37.1312 C   0  0  0  0  0  0  0  0  0  0  0  0
   64.5291   17.2000   36.6122 O   0  0  0  0  0  0  0  0  0  0  0  0
   62.4692   16.3413   36.4415 N   0  0  0  0  0  0  0  0  0  0  0  0
   61.7232   15.8651   36.8725 H   0  0  0  0  0  0  0  0  0  0  0  0
   62.3473   16.7622   35.0442 C   0  0  0  0  0  0  0  0  0  0  0  0
   61.5585   18.0631   35.0249 C   0  0  0  0  0  0  0  0  0  0  0  0
   61.1176   18.5912   36.0462 O   0  0  0  0  0  0  0  0  0  0  0  0
   61.4200   18.6273   33.8557 N   0  0  0  0  0  0  0  0  0  0  0  0
   61.7916   18.2026   33.0490 H   0  0  0  0  0  0  0  0  0  0  0  0
   60.7139   19.8831   33.7627 C   0  0  0  0  0  0  0  0  0  0  0  0
   61.4977   20.8511   32.8832 C   0  0  0  0  0  0  0  0  0  0  0  0
   59.3281   19.6706   33.2079 C   0  0  0  0  0  0  0  0  0  0  0  0
   58.3484   19.5886   33.9626 O   0  0  0  0  0  0  0  0  0  0  0  0
   59.2559   19.5672   31.8924 N   0  0  0  0  0  0  0  0  0  0  0  0
   60.0859   19.6317   31.3669 H   0  0  0  0  0  0  0  0  0  0  0  0
   58.0012   19.3621   31.1914 C   0  0  0  0  0  0  0  0  0  0  0  0
   57.9422   18.1659   30.2349 C   0  0  0  0  0  0  0  0  0  0  0  0
   56.9677   17.3623   30.2395 O   0  0  0  0  0  0  0  0  0  0  0  0
   58.8957   18.0848   29.4355 N   0  0  0  0  0  0  0  0  0  0  0  0
   59.6299   18.7393   29.4770 H   0  0  0  0  0  0  0  0  0  0  0  0
   58.9143   17.3662   28.7628 H   0  0  0  0  0  0  0  0  0  0  0  0
   57.6332   20.6428   30.4646 C   0  0  0  0  0  0  0  0  0  0  0  0
   56.6048   21.4818   31.2187 C   0  0  0  0  0  0  0  0  0  0  0  0
   55.1958   21.2552   30.6726 C   0  0  0  0  0  0  0  0  0  0  0  0
   54.2742   22.3747   31.1554 C   0  0  0  0  0  0  0  0  0  0  0  0
   61.6882   15.6300   34.2359 C   0  0  0  0  0  0  0  0  0  0  0  0
   60.1805   15.7161   34.0457 C   0  0  0  0  0  0  0  0  0  0  0  0
   59.7827   15.7397   32.5726 C   0  0  0  0  0  0  0  0  0  0  0  0
   60.3592   16.5886   31.8529 O   0  0  0  0  0  0  0  0  0  0  0  0
   58.9362   14.9115   32.1251 O   0  0  0  0  0  0  0  0  0  0  0  0
   58.5320   14.2956   32.7041 H   0  0  0  0  0  0  0  0  0  0  0  0
   62.5934   16.8133   39.3263 N   0  0  0  0  0  0  0  0  0  0  0  0
   61.7548   16.2334   39.2970 H   0  0  0  0  0  0  0  0  0  0  0  0
   62.7438   17.1833   40.5952 C   0  0  0  0  0  0  0  0  0  0  0  0
   64.1367   17.0708   41.1641 C   0  0  0  0  0  0  0  0  0  0  0  0
   66.1106   18.2988   40.5009 C   0  0  0  0  0  0  0  0  0  0  0  0
   66.4554   17.3838   39.7363 O   0  0  0  0  0  0  0  0  0  0  0  0
   64.9803   18.2515   41.1994 N   0  0  0  0  0  0  0  0  0  0  0  0
   64.7127   19.0253   41.7462 H   0  0  0  0  0  0  0  0  0  0  0  0
   66.9770   19.5688   40.6819 C   0  0  0  0  0  0  0  0  0  0  0  0
   65.4606   21.3575   39.9693 C   0  0  0  0  0  0  0  0  0  0  0  0
   65.7277   21.2507   38.7824 O   0  0  0  0  0  0  0  0  0  0  0  0
   66.0061   20.6097   40.9149 N   0  0  0  0  0  0  0  0  0  0  0  0
   65.7291   20.7759   41.8449 H   0  0  0  0  0  0  0  0  0  0  0  0
   63.5953   22.8559   39.3258 N   0  0  0  0  0  0  0  0  0  0  0  0
   64.4620   22.3954   40.4503 C   0  0  0  0  0  0  0  0  0  0  0  0
   64.1780   23.2468   38.5855 H   0  0  0  0  0  0  0  0  0  0  0  0
   62.9505   23.5702   39.6640 H   0  0  0  0  0  0  0  0  0  0  0  0
   63.6267   21.7908   41.6058 C   0  0  0  0  0  0  0  0  0  0  0  0
   62.2080   22.3660   41.8100 C   0  0  0  0  0  0  0  0  0  0  0  0
   61.0695   21.4764   41.2063 C   0  0  0  0  0  0  0  0  0  0  0  0
   61.5687   20.3171   40.4592 N   0  0  0  0  0  0  0  0  0  0  0  0
   62.0177   19.6016   40.9649 H   0  0  0  0  0  0  0  0  0  0  0  0
   61.4536   20.1701   39.1397 C   0  0  0  0  0  0  0  0  0  0  0  0
   62.5269   20.0475   38.3778 N   0  0  0  0  0  0  0  0  0  0  0  0
   60.2619   20.1835   38.5710 N   0  0  0  0  0  0  0  0  0  0  0  0
   63.4223   20.0358   38.7870 H   0  0  0  0  0  0  0  0  0  0  0  0
   62.4309   19.9678   37.4013 H   0  0  0  0  0  0  0  0  0  0  0  0
   59.4531   20.2742   39.1250 H   0  0  0  0  0  0  0  0  0  0  0  0
   60.1823   20.1029   37.5931 H   0  0  0  0  0  0  0  0  0  0  0  0
   67.9041   19.4378   41.9052 C   0  0  0  0  0  0  0  0  0  0  0  0
   69.3218   19.8305   41.5356 C   0  0  0  0  0  0  0  0  0  0  0  0
   67.3954   20.2884   43.0616 C   0  0  0  0  0  0  0  0  0  0  0  0
   64.1375   16.4163   42.5280 C   0  0  0  0  0  0  0  0  0  0  0  0
   64.6729   14.9980   42.3557 C   0  0  0  0  0  0  0  0  0  0  0  0
   66.1428   14.8731   42.7043 C   0  0  0  0  0  0  0  0  0  0  0  0
   63.8098   14.0561   43.1547 C   0  0  0  0  0  0  0  0  0  0  0  0
   63.3069   14.5786   38.7115 C   0  0  0  0  0  0  0  0  0  0  0  0
   64.4985   13.7302   39.0550 C   0  0  0  0  0  0  0  0  0  0  0  0
   64.3410   12.5407   39.7498 C   0  0  0  0  0  0  0  0  0  0  0  0
   65.7845   14.1815   38.7728 C   0  0  0  0  0  0  0  0  0  0  0  0
   65.4408   11.8164   40.1715 C   0  0  0  0  0  0  0  0  0  0  0  0
   66.8906   13.4732   39.1861 C   0  0  0  0  0  0  0  0  0  0  0  0
   66.7227   12.2931   39.8898 C   0  0  0  0  0  0  0  0  0  0  0  0
 46 47  1  0  0  0
 47 42  1  0  0  0
 47 50  1  0  0  0
 42 43  2  0  0  0
 50 51  1  0  0  0
 51 52  1  0  0  0
 52 53  1  0  0  0
 53 55  1  0  0  0
 55 56  1  0  0  0
 55 57  2  0  0  0
 44 41  1  0  0  0
 41 37  1  0  0  0
 41 62  1  0  0  0
 37 38  2  0  0  0
 62 63  1  0  0  0
 62 64  1  0  0  0
 39 36  1  0  0  0
 36 35  1  0  0  0
 36 65  1  0  0  0
 65 66  1  0  0  0
 66 67  1  0  0  0
 66 68  1  0  0  0
 33  1  1  0  0  0
  1  2  1  0  0  0
  1 69  1  0  0  0
  2  3  2  0  0  0
 69 70  1  0  0  0
 70 71  2  0  0  0
 70 72  1  0  0  0
 71 73  1  0  0  0
 72 74  2  0  0  0
 73 75  2  0  0  0
 74 75  1  0  0  0
  4  6  1  0  0  0
  6  7  1  0  0  0
  6 27  1  0  0  0
  7  8  2  0  0  0
 27 28  1  0  0  0
 28 29  1  0  0  0
 29 30  2  0  0  0
 29 31  1  0  0  0
  9 11  1  0  0  0
 11 13  1  0  0  0
 11 12  1  0  0  0
 13 14  2  0  0  0
 15 17  1  0  0  0
 17 18  1  0  0  0
 17 23  1  0  0  0
 18 19  2  0  0  0
 23 24  1  0  0  0
 24 25  1  0  0  0
 25 26  1  0  0  0
 42 44  1  0  0  0
 37 39  1  0  0  0
 35 33  1  0  0  0
  2  4  1  0  0  0
  7  9  1  0  0  0
 13 15  1  0  0  0
 18 20  1  0  0  0
 46 48  1  0  0  0
 46 49  1  0  0  0
 53 54  1  0  0  0
 56 58  1  0  0  0
 56 59  1  0  0  0
 57 60  1  0  0  0
 57 61  1  0  0  0
 44 45  1  0  0  0
 39 40  1  0  0  0
 33 34  1  0  0  0
  4  5  1  0  0  0
 31 32  1  0  0  0
  9 10  1  0  0  0
 15 16  1  0  0  0
 20 21  1  0  0  0
 20 22  1  0  0  0
M  CHG 1  57   1
M  END
> <minimizedAffinity>
-7.98499

$$$$
1A94_0Q4_A_100


 75 75  0  0  0  0  0  0  0  0999 V2000
   63.8188   15.6368   37.6595 C   0  0  0  0  0  0  0  0  0  0  0  0
   63.3731   16.0062   36.2109 C   0  0  0  0  0  0  0  0  0  0  0  0
   64.2012   16.1748   35.2906 O   0  0  0  0  0  0  0  0  0  0  0  0
   62.0749   16.1134   35.9868 N   0  0  0  0  0  0  0  0  0  0  0  0
   61.4410   15.9808   36.7283 H   0  0  0  0  0  0  0  0  0  0  0  0
   61.5676   16.4270   34.6494 C   0  0  0  0  0  0  0  0  0  0  0  0
   61.0184   17.8454   34.6887 C   0  0  0  0  0  0  0  0  0  0  0  0
   60.9006   18.4864   35.7334 O   0  0  0  0  0  0  0  0  0  0  0  0
   60.7266   18.3750   33.5315 N   0  0  0  0  0  0  0  0  0  0  0  0
   60.8410   17.8570   32.7022 H   0  0  0  0  0  0  0  0  0  0  0  0
   60.2339   19.7311   33.4857 C   0  0  0  0  0  0  0  0  0  0  0  0
   61.1677   20.5905   32.6403 C   0  0  0  0  0  0  0  0  0  0  0  0
   58.8342   19.7664   32.9263 C   0  0  0  0  0  0  0  0  0  0  0  0
   57.8837   19.2919   33.5648 O   0  0  0  0  0  0  0  0  0  0  0  0
   58.7176   20.3146   31.7295 N   0  0  0  0  0  0  0  0  0  0  0  0
   59.5269   20.6568   31.2854 H   0  0  0  0  0  0  0  0  0  0  0  0
   57.4435   20.4322   31.0435 C   0  0  0  0  0  0  0  0  0  0  0  0
   57.1624   19.4000   29.9458 C   0  0  0  0  0  0  0  0  0  0  0  0
   55.9840   19.1186   29.5881 O   0  0  0  0  0  0  0  0  0  0  0  0
   58.1775   18.9088   29.4139 N   0  0  0  0  0  0  0  0  0  0  0  0
   59.0730   19.1641   29.7333 H   0  0  0  0  0  0  0  0  0  0  0  0
   58.0835   18.2656   28.6745 H   0  0  0  0  0  0  0  0  0  0  0  0
   57.3130   21.8413   30.4944 C   0  0  0  0  0  0  0  0  0  0  0  0
   55.9551   22.4728   30.7899 C   0  0  0  0  0  0  0  0  0  0  0  0
   55.0967   22.5583   29.5287 C   0  0  0  0  0  0  0  0  0  0  0  0
   53.8542   23.4019   29.8122 C   0  0  0  0  0  0  0  0  0  0  0  0
   60.5201   15.3716   34.2509 C   0  0  0  0  0  0  0  0  0  0  0  0
   60.6814   13.9865   34.8607 C   0  0  0  0  0  0  0  0  0  0  0  0
   61.6485   13.1128   34.0668 C   0  0  0  0  0  0  0  0  0  0  0  0
   62.8700   13.3027   34.2741 O   0  0  0  0  0  0  0  0  0  0  0  0
   61.2090   12.2301   33.2729 O   0  0  0  0  0  0  0  0  0  0  0  0
   60.2857   12.1269   33.1518 H   0  0  0  0  0  0  0  0  0  0  0  0
   62.7682   16.1235   38.5430 N   0  0  0  0  0  0  0  0  0  0  0  0
   62.0580   15.3919   38.5696 H   0  0  0  0  0  0  0  0  0  0  0  0
   63.0020   16.4591   39.8088 C   0  0  0  0  0  0  0  0  0  0  0  0
   63.9520   17.6101   40.0311 C   0  0  0  0  0  0  0  0  0  0  0  0
   63.2037   19.6667   39.0041 C   0  0  0  0  0  0  0  0  0  0  0  0
   63.3703   19.1918   37.8694 O   0  0  0  0  0  0  0  0  0  0  0  0
   63.4190   18.9580   40.1083 N   0  0  0  0  0  0  0  0  0  0  0  0
   63.2149   19.3516   40.9873 H   0  0  0  0  0  0  0  0  0  0  0  0
   62.7192   21.1229   39.2063 C   0  0  0  0  0  0  0  0  0  0  0  0
   60.5347   20.6771   40.2239 C   0  0  0  0  0  0  0  0  0  0  0  0
   59.9840   20.4052   39.1683 O   0  0  0  0  0  0  0  0  0  0  0  0
   61.8079   21.0242   40.3199 N   0  0  0  0  0  0  0  0  0  0  0  0
   62.1586   21.2300   41.2165 H   0  0  0  0  0  0  0  0  0  0  0  0
   60.5025   21.3828   42.5986 N   0  0  0  0  0  0  0  0  0  0  0  0
   59.7651   20.6430   41.5325 C   0  0  0  0  0  0  0  0  0  0  0  0
   61.4257   20.9676   42.7241 H   0  0  0  0  0  0  0  0  0  0  0  0
   59.9822   21.3257   43.4741 H   0  0  0  0  0  0  0  0  0  0  0  0
   58.3523   21.2330   41.2995 C   0  0  0  0  0  0  0  0  0  0  0  0
   58.2313   22.7725   41.3249 C   0  0  0  0  0  0  0  0  0  0  0  0
   57.2659   23.3151   42.4320 C   0  0  0  0  0  0  0  0  0  0  0  0
   56.1690   24.1315   41.9010 N   0  0  0  0  0  0  0  0  0  0  0  0
   56.0216   25.0199   42.2988 H   0  0  0  0  0  0  0  0  0  0  0  0
   55.3592   23.7478   40.9147 C   0  0  0  0  0  0  0  0  0  0  0  0
   55.3041   24.4287   39.7829 N   0  0  0  0  0  0  0  0  0  0  0  0
   54.5709   22.7002   41.0716 N   0  0  0  0  0  0  0  0  0  0  0  0
   55.8855   25.2121   39.6509 H   0  0  0  0  0  0  0  0  0  0  0  0
   54.6816   24.1524   39.0720 H   0  0  0  0  0  0  0  0  0  0  0  0
   54.6003   22.1830   41.9087 H   0  0  0  0  0  0  0  0  0  0  0  0
   53.9536   22.4363   40.3514 H   0  0  0  0  0  0  0  0  0  0  0  0
   63.8922   22.0515   39.5737 C   0  0  0  0  0  0  0  0  0  0  0  0
   64.1955   22.9956   38.4259 C   0  0  0  0  0  0  0  0  0  0  0  0
   63.5848   22.8324   40.8445 C   0  0  0  0  0  0  0  0  0  0  0  0
   64.8659   17.3668   41.2118 C   0  0  0  0  0  0  0  0  0  0  0  0
   64.6038   18.4724   42.2300 C   0  0  0  0  0  0  0  0  0  0  0  0
   63.9892   17.9590   43.5171 C   0  0  0  0  0  0  0  0  0  0  0  0
   65.8874   19.2257   42.4656 C   0  0  0  0  0  0  0  0  0  0  0  0
   63.9560   14.1215   37.8633 C   0  0  0  0  0  0  0  0  0  0  0  0
   64.9298   13.7378   38.9415 C   0  0  0  0  0  0  0  0  0  0  0  0
   64.6203   12.7346   39.8472 C   0  0  0  0  0  0  0  0  0  0  0  0
   66.1090   14.4578   39.1090 C   0  0  0  0  0  0  0  0  0  0  0  0
   65.4591   12.4584   40.9112 C   0  0  0  0  0  0  0  0  0  0  0  0
   66.9551   14.1964   40.1634 C   0  0  0  0  0  0  0  0  0  0  0  0
   66.6310   13.2010   41.0691 C   0  0  0  0  0  0  0  0  0  0  0  0
 46 47  1  0  0  0
 47 42  1  0  0  0
 47 50  1  0  0  0
 42 43  2  0  0  0
 50 51  1  0  0  0
 51 52  1  0  0  0
 52 53  1  0  0  0
 53 55  1  0  0  0
 55 56  1  0  0  0
 55 57  2  0  0  0
 44 41  1  0  0  0
 41 37  1  0  0  0
 41 62  1  0  0  0
 37 38  2  0  0  0
 62 63  1  0  0  0
 62 64  1  0  0  0
 39 36  1  0  0  0
 36 35  1  0  0  0
 36 65  1  0  0  0
 65 66  1  0  0  0
 66 67  1  0  0  0
 66 68  1  0  0  0
 33  1  1  0  0  0
  1  2  1  0  0  0
  1 69  1  0  0  0
  2  3  2  0  0  0
 69 70  1  0  0  0
 70 71  2  0  0  0
 70 72  1  0  0  0
 71 73  1  0  0  0
 72 74  2  0  0  0
 73 75  2  0  0  0
 74 75  1  0  0  0
  4  6  1  0  0  0
  6  7  1  0  0  0
  6 27  1  0  0  0
  7  8  2  0  0  0
 27 28  1  0  0  0
 28 29  1  0  0  0
 29 30  2  0  0  0
 29 31  1  0  0  0
  9 11  1  0  0  0
 11 13  1  0  0  0
 11 12  1  0  0  0
 13 14  2  0  0  0
 15 17  1  0  0  0
 17 18  1  0  0  0
 17 23  1  0  0  0
 18 19  2  0  0  0
 23 24  1  0  0  0
 24 25  1  0  0  0
 25 26  1  0  0  0
 42 44  1  0  0  0
 37 39  1  0  0  0
 35 33  1  0  0  0
  2  4  1  0  0  0
  7  9  1  0  0  0
 13 15  1  0  0  0
 18 20  1  0  0  0
 46 48  1  0  0  0
 46 49  1  0  0  0
 53 54  1  0  0  0
 56 58  1  0  0  0
 56 59  1  0  0  0
 57 60  1  0  0  0
 57 61  1  0  0  0
 44 45  1  0  0  0
 39 40  1  0  0  0
 33 34  1  0  0  0
  4  5  1  0  0  0
 31 32  1  0  0  0
  9 10  1  0  0  0
 15 16  1  0  0  0
 20 21  1  0  0  0
 20 22  1  0  0  0
M  CHG 1  57   1
M  END
> <minimizedAffinity>
-7.92363

$$$$
