1A94_0Q4_A_100
  RCSB PDB12061701583D
Coordinates from PDB:1A94:A:100 Model:1 without hydrogens
 59 59  0  0  0  0            999 V2000
   50.8690   20.6100   27.1570   N 0  0  0  0  0  0  0  0  0  0  0  0
   51.6100   19.8510   28.2070   C 0  0  0  0  0  0  0  0  0  0  0  0
   53.0860   20.2070   28.1870   C 0  0  0  0  0  0  0  0  0  0  0  0
   53.6660   20.4070   27.1310   O 0  0  0  0  0  0  0  0  0  0  0  0
   51.4600   18.3210   28.0200   C 0  0  0  0  0  0  0  0  0  0  0  0
   50.0880   17.7100   28.3800   C 0  0  0  0  0  0  0  0  0  0  0  0
   49.5980   18.0580   29.8260   C 0  0  0  0  0  0  0  0  0  0  0  0
   48.3250   17.4210   30.1800   N 0  0  0  0  0  0  0  0  0  0  0  0
   48.1320   16.1030   30.2180   C 0  0  0  0  0  0  0  0  0  0  0  0
   49.1170   15.2680   29.9350   N 0  0  0  0  0  0  0  0  0  0  0  0
   46.9390   15.6140   30.5030   N 0  3  0  0  0  0  0  0  0  0  0  0
   53.6690   20.2890   29.3720   N 0  0  0  0  0  0  0  0  0  0  0  0
   55.0580   20.6150   29.5840   C 0  0  0  0  0  0  0  0  0  0  0  0
   55.5940   19.4090   30.3930   C 0  0  0  0  0  0  0  0  0  0  0  0
   55.3680   19.2930   31.6080   O 0  0  0  0  0  0  0  0  0  0  0  0
   55.1690   21.9200   30.3950   C 0  0  0  0  0  0  0  0  0  0  0  0
   56.6010   22.4200   30.3940   C 0  0  0  0  0  0  0  0  0  0  0  0
   54.2290   22.9820   29.8400   C 0  0  0  0  0  0  0  0  0  0  0  0
   56.3130   18.5180   29.7170   N 0  0  0  0  0  0  0  0  0  0  0  0
   56.7930   17.3100   30.3630   C 0  0  0  0  0  0  0  0  0  0  0  0
   58.1850   17.2950   30.9450   C 0  0  0  0  0  0  0  0  0  0  0  0
   56.5500   16.1270   29.4520   C 0  0  0  0  0  0  0  0  0  0  0  0
   55.0840   16.1660   29.0310   C 0  0  0  0  0  0  0  0  0  0  0  0
   54.7950   15.3140   27.8110   C 0  0  0  0  0  0  0  0  0  0  0  0
   54.2320   15.7850   30.2140   C 0  0  0  0  0  0  0  0  0  0  0  0
   58.6570   18.4620   31.3750   N 0  0  0  0  0  0  0  0  0  0  0  0
   59.9500   18.5840   32.0340   C 0  0  0  0  0  0  0  0  0  0  0  0
   59.9260   17.5780   33.2260   C 0  0  0  0  0  0  0  0  0  0  0  0
   58.8900   17.3740   33.8940   O 0  0  0  0  0  0  0  0  0  0  0  0
   60.1200   20.0380   32.4960   C 0  0  0  0  0  0  0  0  0  0  0  0
   61.0300   20.1980   33.6810   C 0  0  0  0  0  0  0  0  0  0  0  0
   62.3990   20.0230   33.5480   C 0  0  0  0  0  0  0  0  0  0  0  0
   60.4980   20.4190   34.9480   C 0  0  0  0  0  0  0  0  0  0  0  0
   63.2270   20.0520   34.6550   C 0  0  0  0  0  0  0  0  0  0  0  0
   61.3080   20.4500   36.0610   C 0  0  0  0  0  0  0  0  0  0  0  0
   62.6720   20.2620   35.9190   C 0  0  0  0  0  0  0  0  0  0  0  0
   61.0460   16.9280   33.4910   N 0  0  0  0  0  0  0  0  0  0  0  0
   61.1040   15.9430   34.5730   C 0  0  0  0  0  0  0  0  0  0  0  0
   62.5210   15.9540   35.1270   C 0  0  0  0  0  0  0  0  0  0  0  0
   63.5140   15.7680   34.4230   O 0  0  0  0  0  0  0  0  0  0  0  0
   60.6670   14.5720   34.0260   C 0  0  0  0  0  0  0  0  0  0  0  0
   60.8330   13.3810   34.9590   C 0  0  0  0  0  0  0  0  0  0  0  0
   62.2940   12.9710   35.1210   C 0  0  0  0  0  0  0  0  0  0  0  0
   63.0510   13.2100   34.1510   O 0  0  0  0  0  0  0  0  0  0  0  0
   62.6960   12.4490   36.2020   O 0  0  0  0  0  0  0  0  0  0  0  0
   62.6330   16.2310   36.3980   N 0  0  0  0  0  0  0  0  0  0  0  0
   63.9490   16.2950   36.9880   C 0  0  0  0  0  0  0  0  0  0  0  0
   64.0660   15.3140   38.1270   C 0  0  0  0  0  0  0  0  0  0  0  0
   63.1280   15.1480   38.9200   O 0  0  0  0  0  0  0  0  0  0  0  0
   64.2270   17.7130   37.4750   C 0  0  0  0  0  0  0  0  0  0  0  0
   65.2230   14.6810   38.2110   N 0  0  0  0  0  0  0  0  0  0  0  0
   65.5060   13.7020   39.2450   C 0  0  0  0  0  0  0  0  0  0  0  0
   64.7380   13.8600   40.5620   C 0  0  0  0  0  0  0  0  0  0  0  0
   64.9380   14.8420   41.3310   O 0  0  0  0  0  0  0  0  0  0  0  0
   67.0020   13.6810   39.5010   C 0  0  0  0  0  0  0  0  0  0  0  0
   67.7940   13.0550   38.3560   C 0  0  0  0  0  0  0  0  0  0  0  0
   67.7570   11.5290   38.4250   C 0  0  0  0  0  0  0  0  0  0  0  0
   68.9090   10.9520   37.6030   C 0  0  0  0  0  0  0  0  0  0  0  0
   63.8820   12.9800   40.7800   N 0  0  0  0  0  0  0  0  0  0  0  0
  1  2  1  0  0  0  0
  2  3  1  0  0  0  0
  2  5  1  0  0  0  0
  3  4  2  0  0  0  0
  5  6  1  0  0  0  0
  6  7  1  0  0  0  0
  7  8  1  0  0  0  0
  8  9  1  0  0  0  0
  9 10  1  0  0  0  0
  9 11  2  0  0  0  0
 12 13  1  0  0  0  0
 13 14  1  0  0  0  0
 13 16  1  0  0  0  0
 14 15  2  0  0  0  0
 16 17  1  0  0  0  0
 16 18  1  0  0  0  0
 19 20  1  0  0  0  0
 20 21  1  0  0  0  0
 20 22  1  0  0  0  0
 22 23  1  0  0  0  0
 23 24  1  0  0  0  0
 23 25  1  0  0  0  0
 26 27  1  0  0  0  0
 27 28  1  0  0  0  0
 27 30  1  0  0  0  0
 28 29  2  0  0  0  0
 30 31  1  0  0  0  0
 31 32  2  0  0  0  0
 31 33  1  0  0  0  0
 32 34  1  0  0  0  0
 33 35  2  0  0  0  0
 34 36  2  0  0  0  0
 35 36  1  0  0  0  0
 37 38  1  0  0  0  0
 38 39  1  0  0  0  0
 38 41  1  0  0  0  0
 39 40  2  0  0  0  0
 41 42  1  0  0  0  0
 42 43  1  0  0  0  0
 43 44  2  0  0  0  0
 43 45  1  0  0  0  0
 46 47  1  0  0  0  0
 47 48  1  0  0  0  0
 47 50  1  0  0  0  0
 48 49  2  0  0  0  0
 51 52  1  0  0  0  0
 52 53  1  0  0  0  0
 52 55  1  0  0  0  0
 53 54  2  0  0  0  0
 55 56  1  0  0  0  0
 56 57  1  0  0  0  0
 57 58  1  0  0  0  0
  3 12  1  0  0  0  0
 14 19  1  0  0  0  0
 21 26  1  0  0  0  0
 28 37  1  0  0  0  0
 39 46  1  0  0  0  0
 48 51  1  0  0  0  0
 53 59  1  0  0  0  0
M  CHG  1  11   1
A    1
N
A    2
CA
A    3
C
A    4
O
A    5
CB
A    6
CG
A    7
CD
A    8
NE
A    9
CZ
A   10
NH1
A   11
NH2
A   12
N1
A   13
CA1
A   14
C1
A   15
O1
A   16
CB1
A   17
CG1
A   18
CG2
A   19
N2
A   20
CA2
A   21
C2
A   22
CB2
A   23
CG3
A   24
CD1
A   25
CD2
A   26
N3
A   27
CA3
A   28
C3
A   29
O2
A   30
CB3
A   31
CG4
A   32
CD11
A   33
CD21
A   34
CE1
A   35
CE2
A   36
CZ1
A   37
N4
A   38
CA4
A   39
C4
A   40
O3
A   41
CB4
A   42
CG5
A   43
CD3
A   44
OE1
A   45
OE2
A   46
N5
A   47
CA5
A   48
C5
A   49
O4
A   50
CB5
A   51
N6
A   52
CA6
A   53
C6
A   54
O5
A   55
CB6
A   56
CG6
A   57
CD4
A   58
CE
A   59
N7
M  END
>  <InstanceId>
1A94_0Q4_A_100

>  <ChemCompId>
0Q4

>  <PdbId>
1A94

>  <ChainId>
A

>  <ResidueNumber>
100

>  <InsertionCode>


>  <Model>
1

>  <AltIds>


>  <MissingHeavyAtoms>
0

>  <ObservedFormula>
C40 N11 O8

>  <Name>
N-[(2R)-2-({N~5~-[amino(iminio)methyl]-L-ornithyl-L-valyl}amino)-4-methylpentyl]-L-phenylalanyl-L-alpha-glutamyl-L-alanyl-L-norleucinamide

>  <SystematicName>
[azanyl-[[(4S)-4-azanyl-5-[[(2S)-1-[[(2S)-1-[[(2S)-1-[[(2S)-1-[[(2S)-1-[[(2S)-1-azanyl-1-oxo-hexan-2-yl]amino]-1-oxo-propan-2-yl]amino]-5-hydroxy-1,5-dioxo-pentan-2-yl]amino]-1-oxo-3-phenyl-propan-2-yl]amino]-4-methyl-pentan-2-yl]amino]-3-methyl-1-oxo-butan-2-yl]amino]-5-oxo-pentyl]amino]methylidene]azanium

>  <Synonyms>
Inhibitor analogues of CA-p2

>  <Type>
peptide-like

>  <Formula>
C40 H70 N11 O8

>  <MolecularWeight>
833.053

>  <ModifiedDate>
2011-07-13

>  <Parent>


>  <OneLetterCode>


>  <SubcomponentList>
ARG VAL DC0 GLU ALA NLE NH2

>  <AmbiguousFlag>
N

>  <InChI>
InChI=1S/C40H69N11O8/c1-7-8-16-29(34(42)54)49-35(55)25(6)47-37(57)30(17-18-32(52)53)50-38(58)31(21-26-13-10-9-11-14-26)46-22-27(20-23(2)3)48-39(59)33(24(4)5)51-36(56)28(41)15-12-19-45-40(43)44/h9-11,13-14,23-25,27-31,33,46H,7-8,12,15-22,41H2,1-6H3,(H2,42,54)(H,47,57)(H,48,59)(H,49,55)(H,50,58)(H,51,56)(H,52,53)(H4,43,44,45)/p+1/t25-,27-,28-,29-,30-,31-,33-/m0/s1

>  <InChIKey>
SGWAZUZKMXHYMB-UQGDEETHSA-O

>  <SMILES>
CCCC[C@@H](C(=O)N)NC(=O)[C@H](C)NC(=O)[C@H](CCC(=O)O)NC(=O)[C@H](Cc1ccccc1)NC[C@H](CC(C)C)NC(=O)[C@H](C(C)C)NC(=O)[C@H](CCCNC(=[NH2+])N)N

$$$$
