3TA1_ADP_A_119


 34 36  0  0  0  0  0  0  0  0999 V2000
    5.1808   -9.4965  -15.5961 C   0  0  0  0  0  0  0  0  0  0  0  0
    6.5980   -9.7298  -15.6303 O   0  0  0  0  0  0  0  0  0  0  0  0
    4.8282   -8.9034  -16.9569 C   0  0  0  0  0  0  0  0  0  0  0  0
    3.6369   -8.0938  -16.9486 O   0  0  0  0  0  0  0  0  0  0  0  0
    6.1125   -8.0888  -17.3221 C   0  0  0  0  0  0  0  0  0  0  0  0
    6.0407   -6.8539  -16.6311 O   0  0  0  0  0  0  0  0  0  0  0  0
    7.2171   -8.9415  -16.7151 C   0  0  0  0  0  0  0  0  0  0  0  0
    3.7459   -7.3646  -16.3182 H   0  0  0  0  0  0  0  0  0  0  0  0
    5.9175   -7.0203  -15.6834 H   0  0  0  0  0  0  0  0  0  0  0  0
    7.9172   -9.8841  -17.6221 N   0  0  0  0  0  0  0  0  0  0  0  0
    7.5905  -11.1806  -17.9493 C   0  0  0  0  0  0  0  0  0  0  0  0
    8.4949  -11.7390  -18.7556 N   0  0  0  0  0  0  0  0  0  0  0  0
    9.4534  -10.7491  -18.9437 C   0  0  0  0  0  0  0  0  0  0  0  0
   10.6640  -10.6978  -19.6983 C   0  0  0  0  0  0  0  0  0  0  0  0
   11.1221  -11.8209  -20.3868 N   0  0  0  0  0  0  0  0  0  0  0  0
   11.3851   -9.5273  -19.6946 N   0  0  0  0  0  0  0  0  0  0  0  0
   10.9442   -8.4484  -19.0232 C   0  0  0  0  0  0  0  0  0  0  0  0
    9.7900   -8.4268  -18.2618 N   0  0  0  0  0  0  0  0  0  0  0  0
    9.1092   -9.5891  -18.2782 C   0  0  0  0  0  0  0  0  0  0  0  0
   10.5942  -12.6519  -20.3799 H   0  0  0  0  0  0  0  0  0  0  0  0
   11.9735  -11.7828  -20.8798 H   0  0  0  0  0  0  0  0  0  0  0  0
    4.4306  -10.8171  -15.3599 C   0  0  0  0  0  0  0  0  0  0  0  0
    4.9714  -11.7413  -16.2584 O   0  0  0  0  0  0  0  0  0  0  0  0
    4.0248  -13.0003  -16.6373 P   0  0  0  0  0  0  0  0  0  0  0  0
    4.8537  -13.8735  -17.5564 O   0  0  0  0  0  0  0  0  0  0  0  0
    2.7226  -12.5236  -17.2484 O   0  0  0  0  0  0  0  0  0  0  0  0
    2.1694  -13.2893  -17.4686 H   0  0  0  0  0  0  0  0  0  0  0  0
    3.6538  -13.8024  -15.3698 O   0  0  0  0  0  0  0  0  0  0  0  0
    4.5555  -14.5170  -14.3582 P   0  0  0  0  0  0  0  0  0  0  0  0
    3.7904  -14.6176  -13.0155 O   0  0  0  0  0  0  0  0  0  0  0  0
    5.8186  -13.7501  -14.2005 O   0  0  0  0  0  0  0  0  0  0  0  0
    4.8281  -15.9507  -14.7753 O   0  0  0  0  0  0  0  0  0  0  0  0
    6.3922  -14.1998  -13.5604 H   0  0  0  0  0  0  0  0  0  0  0  0
    5.3999  -16.3758  -14.1171 H   0  0  0  0  0  0  0  0  0  0  0  0
 29 30  2  0  0  0
 29 31  1  0  0  0
 29 32  1  0  0  0
 29 28  1  0  0  0
 24 25  2  0  0  0
 24 26  1  0  0  0
 24 28  1  0  0  0
 24 23  1  0  0  0
 23 22  1  0  0  0
 22  1  1  0  0  0
  1  2  1  0  0  0
  1  3  1  0  0  0
  2  7  1  0  0  0
  3  4  1  0  0  0
  3  5  1  0  0  0
  5  6  1  0  0  0
  5  7  1  0  0  0
  7 10  1  0  0  0
 10 11  1  0  0  0
 10 19  1  0  0  0
 11 12  2  0  0  0
 12 13  1  0  0  0
 13 14  1  0  0  0
 13 19  2  0  0  0
 14 15  1  0  0  0
 14 16  2  0  0  0
 16 17  1  0  0  0
 17 18  2  0  0  0
 18 19  1  0  0  0
 31 33  1  0  0  0
 32 34  1  0  0  0
 26 27  1  0  0  0
  4  8  1  0  0  0
  6  9  1  0  0  0
 15 20  1  0  0  0
 15 21  1  0  0  0
M  END
> <minimizedAffinity>
-12.41680

$$$$
3TA1_ADP_A_119


 34 36  0  0  0  0  0  0  0  0999 V2000
    7.2054  -10.8018  -17.5807 C   0  0  0  0  0  0  0  0  0  0  0  0
    8.4471  -11.5088  -17.7310 O   0  0  0  0  0  0  0  0  0  0  0  0
    7.4606   -9.4007  -18.1280 C   0  0  0  0  0  0  0  0  0  0  0  0
    6.5882   -8.3936  -17.5808 O   0  0  0  0  0  0  0  0  0  0  0  0
    8.9642   -9.1591  -17.7717 C   0  0  0  0  0  0  0  0  0  0  0  0
    9.0188   -8.7678  -16.4109 O   0  0  0  0  0  0  0  0  0  0  0  0
    9.5571  -10.5528  -17.9186 C   0  0  0  0  0  0  0  0  0  0  0  0
    6.6903   -8.3666  -16.6166 H   0  0  0  0  0  0  0  0  0  0  0  0
    8.5707   -9.4327  -15.8651 H   0  0  0  0  0  0  0  0  0  0  0  0
   10.2211  -10.8712  -19.2066 N   0  0  0  0  0  0  0  0  0  0  0  0
   11.1626  -10.1468  -19.9020 C   0  0  0  0  0  0  0  0  0  0  0  0
   11.4861  -10.7238  -21.0605 N   0  0  0  0  0  0  0  0  0  0  0  0
   10.7017  -11.8711  -21.1103 C   0  0  0  0  0  0  0  0  0  0  0  0
   10.5743  -12.9217  -22.0682 C   0  0  0  0  0  0  0  0  0  0  0  0
   11.2828  -12.8806  -23.2689 N   0  0  0  0  0  0  0  0  0  0  0  0
    9.7059  -13.9517  -21.7940 N   0  0  0  0  0  0  0  0  0  0  0  0
    9.0185  -13.9843  -20.6383 C   0  0  0  0  0  0  0  0  0  0  0  0
    9.0807  -12.9984  -19.6707 N   0  0  0  0  0  0  0  0  0  0  0  0
    9.9332  -11.9993  -19.9702 C   0  0  0  0  0  0  0  0  0  0  0  0
   11.9010  -12.1362  -23.4504 H   0  0  0  0  0  0  0  0  0  0  0  0
   11.1646  -13.5959  -23.9349 H   0  0  0  0  0  0  0  0  0  0  0  0
    6.0929  -11.5080  -18.3720 C   0  0  0  0  0  0  0  0  0  0  0  0
    4.9285  -11.3820  -17.6088 O   0  0  0  0  0  0  0  0  0  0  0  0
    4.2263  -12.7684  -17.1512 P   0  0  0  0  0  0  0  0  0  0  0  0
    4.8680  -13.8502  -17.9952 O   0  0  0  0  0  0  0  0  0  0  0  0
    2.7212  -12.6793  -17.3030 O   0  0  0  0  0  0  0  0  0  0  0  0
    2.3181  -13.5166  -17.0250 H   0  0  0  0  0  0  0  0  0  0  0  0
    4.5066  -13.0530  -15.6586 O   0  0  0  0  0  0  0  0  0  0  0  0
    4.4044  -14.3625  -14.8701 P   0  0  0  0  0  0  0  0  0  0  0  0
    3.1179  -15.0981  -15.3197 O   0  0  0  0  0  0  0  0  0  0  0  0
    4.3685  -14.0573  -13.4161 O   0  0  0  0  0  0  0  0  0  0  0  0
    5.5462  -15.3034  -15.2090 O   0  0  0  0  0  0  0  0  0  0  0  0
    4.3038  -14.8845  -12.9136 H   0  0  0  0  0  0  0  0  0  0  0  0
    5.4543  -16.1213  -14.6957 H   0  0  0  0  0  0  0  0  0  0  0  0
 29 30  2  0  0  0
 29 31  1  0  0  0
 29 32  1  0  0  0
 29 28  1  0  0  0
 24 25  2  0  0  0
 24 26  1  0  0  0
 24 28  1  0  0  0
 24 23  1  0  0  0
 23 22  1  0  0  0
 22  1  1  0  0  0
  1  2  1  0  0  0
  1  3  1  0  0  0
  2  7  1  0  0  0
  3  4  1  0  0  0
  3  5  1  0  0  0
  5  6  1  0  0  0
  5  7  1  0  0  0
  7 10  1  0  0  0
 10 11  1  0  0  0
 10 19  1  0  0  0
 11 12  2  0  0  0
 12 13  1  0  0  0
 13 14  1  0  0  0
 13 19  2  0  0  0
 14 15  1  0  0  0
 14 16  2  0  0  0
 16 17  1  0  0  0
 17 18  2  0  0  0
 18 19  1  0  0  0
 31 33  1  0  0  0
 32 34  1  0  0  0
 26 27  1  0  0  0
  4  8  1  0  0  0
  6  9  1  0  0  0
 15 20  1  0  0  0
 15 21  1  0  0  0
M  END
> <minimizedAffinity>
-9.95891

$$$$
