1D4K_PI8_A_201


 57 61  0  0  0  0  0  0  0  0999 V2000
    3.9187   -2.2419   16.2638 N   0  0  0  0  0  0  0  0  0  0  0  0
    3.5296   -2.2604   15.3211 H   0  0  0  0  0  0  0  0  0  0  0  0
    4.0907   -3.6188   16.7382 C   0  0  0  0  0  0  0  0  0  0  0  0
    2.7860   -4.3988   16.5469 C   0  0  0  0  0  0  0  0  0  0  0  0
    2.9497   -5.8867   16.7048 C   0  0  0  0  0  0  0  0  0  0  0  0
    2.9750   -6.4718   17.9684 C   0  0  0  0  0  0  0  0  0  0  0  0
    3.1873   -7.8387   18.1220 C   0  0  0  0  0  0  0  0  0  0  0  0
    3.1333   -6.7054   15.5912 C   0  0  0  0  0  0  0  0  0  0  0  0
    3.3482   -8.0699   15.7320 C   0  0  0  0  0  0  0  0  0  0  0  0
    3.3755   -8.6352   16.9996 C   0  0  0  0  0  0  0  0  0  0  0  0
    3.6107   -9.9941   17.1107 O   0  0  0  0  0  0  0  0  0  0  0  0
    5.2693   -4.4197   16.1548 C   0  0  0  0  0  0  0  0  0  0  0  0
    5.4123   -4.5412   14.9376 O   0  0  0  0  0  0  0  0  0  0  0  0
    6.1533   -4.8814   17.0380 N   0  0  0  0  0  0  0  0  0  0  0  0
    7.2915   -5.7475   16.6638 C   0  0  0  0  0  0  0  0  0  0  0  0
    7.5320   -6.6991   17.8380 C   0  0  0  0  0  0  0  0  0  0  0  0
    7.4260   -6.2968   19.0029 O   0  0  0  0  0  0  0  0  0  0  0  0
    7.8123   -7.9646   17.5327 N   0  0  0  0  0  0  0  0  0  0  0  0
    8.0720   -9.0196   18.5293 C   0  0  0  0  0  0  0  0  0  0  0  0
    7.8484  -10.4229   17.9747 C   0  0  0  0  0  0  0  0  0  0  0  0
    6.4005  -10.6511   17.5627 C   0  0  0  0  0  0  0  0  0  0  0  0
    5.4407  -10.2962   18.6860 C   0  0  0  0  0  0  0  0  0  0  0  0
    3.9994  -10.6280   18.3219 C   0  0  0  0  0  0  0  0  0  0  0  0
    6.0435   -4.6342   17.9846 H   0  0  0  0  0  0  0  0  0  0  0  0
    7.8483   -8.2115   16.5804 H   0  0  0  0  0  0  0  0  0  0  0  0
    8.5968   -4.9472   16.4035 C   0  0  0  0  0  0  0  0  0  0  0  0
    9.3034   -5.5016   15.1623 C   0  0  0  0  0  0  0  0  0  0  0  0
    8.2997   -3.4612   16.1952 C   0  0  0  0  0  0  0  0  0  0  0  0
    8.6928   -2.9470   14.8511 C   0  0  0  0  0  0  0  0  0  0  0  0
    5.1928   -1.5329   16.2396 C   0  0  0  0  0  0  0  0  0  0  0  0
    5.1224    0.8755   16.2619 O   0  0  0  0  0  0  0  0  0  0  0  0
    5.0862   -0.2756   15.4094 C   0  0  0  0  0  0  0  0  0  0  0  0
    5.0536    1.6792   15.7232 H   0  0  0  0  0  0  0  0  0  0  0  0
    6.2828   -0.2637   14.4772 C   0  0  0  0  0  0  0  0  0  0  0  0
    6.3577    0.8938   13.4953 C   0  0  0  0  0  0  0  0  0  0  0  0
    4.5010    1.8967   12.2811 N   0  0  0  0  0  0  0  0  0  0  0  0
    5.2090    0.7888   12.4817 C   0  0  0  0  0  0  0  0  0  0  0  0
    4.9704   -0.2765   11.9032 O   0  0  0  0  0  0  0  0  0  0  0  0
    4.7234    2.7107   12.7883 H   0  0  0  0  0  0  0  0  0  0  0  0
    3.3895    1.9284   11.3132 C   0  0  0  0  0  0  0  0  0  0  0  0
    3.2603    3.3751   10.9001 C   0  0  0  0  0  0  0  0  0  0  0  0
    3.6034    4.2261   11.9984 O   0  0  0  0  0  0  0  0  0  0  0  0
    1.8309    3.5689   10.5572 C   0  0  0  0  0  0  0  0  0  0  0  0
    2.0250    1.5804   11.8175 C   0  0  0  0  0  0  0  0  0  0  0  0
    1.1190    2.5282   11.3760 C   0  0  0  0  0  0  0  0  0  0  0  0
    1.6064    0.5145   12.5985 C   0  0  0  0  0  0  0  0  0  0  0  0
   -0.2213    2.4250   11.7082 C   0  0  0  0  0  0  0  0  0  0  0  0
    0.2630    0.3956   12.9419 C   0  0  0  0  0  0  0  0  0  0  0  0
   -0.6566    1.3570   12.4948 C   0  0  0  0  0  0  0  0  0  0  0  0
    3.0273    4.0278   12.7533 H   0  0  0  0  0  0  0  0  0  0  0  0
    7.6983    0.8278   12.7689 C   0  0  0  0  0  0  0  0  0  0  0  0
    7.8673    1.8817   11.7221 C   0  0  0  0  0  0  0  0  0  0  0  0
    8.0684    1.5303   10.3925 C   0  0  0  0  0  0  0  0  0  0  0  0
    7.8055    3.2279   12.0614 C   0  0  0  0  0  0  0  0  0  0  0  0
    8.2035    2.5067    9.4161 C   0  0  0  0  0  0  0  0  0  0  0  0
    7.9391    4.2116   11.0936 C   0  0  0  0  0  0  0  0  0  0  0  0
    8.1376    3.8528    9.7680 C   0  0  0  0  0  0  0  0  0  0  0  0
 36 40  1  0  0  0
 36 37  1  0  0  0
 40 41  1  0  0  0
 40 44  1  0  0  0
 41 42  1  0  0  0
 41 43  1  0  0  0
 43 45  1  0  0  0
 44 45  2  0  0  0
 44 46  1  0  0  0
 45 47  1  0  0  0
 46 48  2  0  0  0
 47 49  2  0  0  0
 48 49  1  0  0  0
 35 51  1  0  0  0
 35 37  1  0  0  0
 35 34  1  0  0  0
 51 52  1  0  0  0
 52 53  2  0  0  0
 52 54  1  0  0  0
 53 55  1  0  0  0
 54 56  2  0  0  0
 55 57  2  0  0  0
 56 57  1  0  0  0
 37 38  2  0  0  0
 34 32  1  0  0  0
 31 32  1  0  0  0
 32 30  1  0  0  0
 30  1  1  0  0  0
  1  3  1  0  0  0
  3  4  1  0  0  0
  3 12  1  0  0  0
  4  5  1  0  0  0
  5  6  2  0  0  0
  5  8  1  0  0  0
  6  7  1  0  0  0
  7 10  2  0  0  0
  8  9  2  0  0  0
  9 10  1  0  0  0
 10 11  1  0  0  0
 11 23  1  0  0  0
 12 13  2  0  0  0
 12 14  1  0  0  0
 14 15  1  0  0  0
 15 26  1  0  0  0
 15 16  1  0  0  0
 26 27  1  0  0  0
 26 28  1  0  0  0
 28 29  1  0  0  0
 16 17  2  0  0  0
 16 18  1  0  0  0
 18 19  1  0  0  0
 19 20  1  0  0  0
 20 21  1  0  0  0
 21 22  1  0  0  0
 22 23  1  0  0  0
 36 39  1  0  0  0
 42 50  1  0  0  0
 31 33  1  0  0  0
  1  2  1  0  0  0
 14 24  1  0  0  0
 18 25  1  0  0  0
M  END
> <minimizedAffinity>
-12.72366

$$$$
1D4K_PI8_A_201


 57 61  0  0  0  0  0  0  0  0999 V2000
    4.0539   -1.9227   16.0502 N   0  0  0  0  0  0  0  0  0  0  0  0
    3.7344   -1.9672   15.0826 H   0  0  0  0  0  0  0  0  0  0  0  0
    4.2141   -3.2865   16.5650 C   0  0  0  0  0  0  0  0  0  0  0  0
    2.8713   -4.0219   16.5084 C   0  0  0  0  0  0  0  0  0  0  0  0
    2.9939   -5.5081   16.7131 C   0  0  0  0  0  0  0  0  0  0  0  0
    3.0992   -6.0459   17.9935 C   0  0  0  0  0  0  0  0  0  0  0  0
    3.2743   -7.4132   18.1851 C   0  0  0  0  0  0  0  0  0  0  0  0
    3.0586   -6.3744   15.6225 C   0  0  0  0  0  0  0  0  0  0  0  0
    3.2353   -7.7400   15.8011 C   0  0  0  0  0  0  0  0  0  0  0  0
    3.3436   -8.2580   17.0845 C   0  0  0  0  0  0  0  0  0  0  0  0
    3.5384   -9.6199   17.2317 O   0  0  0  0  0  0  0  0  0  0  0  0
    5.3130   -4.1538   15.9238 C   0  0  0  0  0  0  0  0  0  0  0  0
    5.3538   -4.3262   14.7051 O   0  0  0  0  0  0  0  0  0  0  0  0
    6.2477   -4.6159   16.7529 N   0  0  0  0  0  0  0  0  0  0  0  0
    7.3207   -5.5389   16.3258 C   0  0  0  0  0  0  0  0  0  0  0  0
    7.6203   -6.4543   17.5151 C   0  0  0  0  0  0  0  0  0  0  0  0
    7.6221   -6.0049   18.6675 O   0  0  0  0  0  0  0  0  0  0  0  0
    7.8299   -7.7403   17.2403 N   0  0  0  0  0  0  0  0  0  0  0  0
    8.1307   -8.7665   18.2553 C   0  0  0  0  0  0  0  0  0  0  0  0
    7.8136  -10.1798   17.7771 C   0  0  0  0  0  0  0  0  0  0  0  0
    6.3302  -10.3670   17.4896 C   0  0  0  0  0  0  0  0  0  0  0  0
    5.4765   -9.9334   18.6695 C   0  0  0  0  0  0  0  0  0  0  0  0
    3.9998  -10.2225   18.4334 C   0  0  0  0  0  0  0  0  0  0  0  0
    6.2228   -4.3293   17.6944 H   0  0  0  0  0  0  0  0  0  0  0  0
    7.7809   -8.0240   16.2988 H   0  0  0  0  0  0  0  0  0  0  0  0
    8.6287   -4.8001   15.9318 C   0  0  0  0  0  0  0  0  0  0  0  0
    9.0502   -5.2149   14.5184 C   0  0  0  0  0  0  0  0  0  0  0  0
    8.4401   -3.2828   15.9787 C   0  0  0  0  0  0  0  0  0  0  0  0
    8.4860   -2.6246   14.6407 C   0  0  0  0  0  0  0  0  0  0  0  0
    5.3144   -1.1912   16.1027 C   0  0  0  0  0  0  0  0  0  0  0  0
    6.7763    0.2527   14.8442 O   0  0  0  0  0  0  0  0  0  0  0  0
    5.4427   -0.2664   14.9155 C   0  0  0  0  0  0  0  0  0  0  0  0
    6.8521    0.8455   14.0802 H   0  0  0  0  0  0  0  0  0  0  0  0
    5.1463   -1.0957   13.6805 C   0  0  0  0  0  0  0  0  0  0  0  0
    4.9171   -0.3232   12.3919 C   0  0  0  0  0  0  0  0  0  0  0  0
    6.2458    1.5301   11.5391 N   0  0  0  0  0  0  0  0  0  0  0  0
    6.2501    0.2457   11.8846 C   0  0  0  0  0  0  0  0  0  0  0  0
    7.2541   -0.4698   11.8038 O   0  0  0  0  0  0  0  0  0  0  0  0
    5.4091    2.0449   11.6034 H   0  0  0  0  0  0  0  0  0  0  0  0
    7.4708    2.1970   11.0618 C   0  0  0  0  0  0  0  0  0  0  0  0
    7.4660    3.5579   11.7161 C   0  0  0  0  0  0  0  0  0  0  0  0
    6.1195    4.0171   11.8715 O   0  0  0  0  0  0  0  0  0  0  0  0
    8.1858    4.4558   10.7813 C   0  0  0  0  0  0  0  0  0  0  0  0
    7.5640    2.5061    9.6012 C   0  0  0  0  0  0  0  0  0  0  0  0
    7.9831    3.8143    9.4367 C   0  0  0  0  0  0  0  0  0  0  0  0
    7.3067    1.7042    8.5003 C   0  0  0  0  0  0  0  0  0  0  0  0
    8.1523    4.3418    8.1677 C   0  0  0  0  0  0  0  0  0  0  0  0
    7.4715    2.2184    7.2176 C   0  0  0  0  0  0  0  0  0  0  0  0
    7.8961    3.5457    7.0500 C   0  0  0  0  0  0  0  0  0  0  0  0
    5.6861    4.0474   11.0042 H   0  0  0  0  0  0  0  0  0  0  0  0
    3.9415    0.8156   12.6760 C   0  0  0  0  0  0  0  0  0  0  0  0
    2.5297    0.5074   12.2928 C   0  0  0  0  0  0  0  0  0  0  0  0
    2.1577    0.4505   10.9548 C   0  0  0  0  0  0  0  0  0  0  0  0
    1.5741    0.2536   13.2694 C   0  0  0  0  0  0  0  0  0  0  0  0
    0.8530    0.1429   10.5965 C   0  0  0  0  0  0  0  0  0  0  0  0
    0.2678   -0.0548   12.9223 C   0  0  0  0  0  0  0  0  0  0  0  0
   -0.0955   -0.1117   11.5842 C   0  0  0  0  0  0  0  0  0  0  0  0
 36 40  1  0  0  0
 36 37  1  0  0  0
 40 41  1  0  0  0
 40 44  1  0  0  0
 41 42  1  0  0  0
 41 43  1  0  0  0
 43 45  1  0  0  0
 44 45  2  0  0  0
 44 46  1  0  0  0
 45 47  1  0  0  0
 46 48  2  0  0  0
 47 49  2  0  0  0
 48 49  1  0  0  0
 35 51  1  0  0  0
 35 37  1  0  0  0
 35 34  1  0  0  0
 51 52  1  0  0  0
 52 53  2  0  0  0
 52 54  1  0  0  0
 53 55  1  0  0  0
 54 56  2  0  0  0
 55 57  2  0  0  0
 56 57  1  0  0  0
 37 38  2  0  0  0
 34 32  1  0  0  0
 31 32  1  0  0  0
 32 30  1  0  0  0
 30  1  1  0  0  0
  1  3  1  0  0  0
  3  4  1  0  0  0
  3 12  1  0  0  0
  4  5  1  0  0  0
  5  6  2  0  0  0
  5  8  1  0  0  0
  6  7  1  0  0  0
  7 10  2  0  0  0
  8  9  2  0  0  0
  9 10  1  0  0  0
 10 11  1  0  0  0
 11 23  1  0  0  0
 12 13  2  0  0  0
 12 14  1  0  0  0
 14 15  1  0  0  0
 15 26  1  0  0  0
 15 16  1  0  0  0
 26 27  1  0  0  0
 26 28  1  0  0  0
 28 29  1  0  0  0
 16 17  2  0  0  0
 16 18  1  0  0  0
 18 19  1  0  0  0
 19 20  1  0  0  0
 20 21  1  0  0  0
 21 22  1  0  0  0
 22 23  1  0  0  0
 36 39  1  0  0  0
 42 50  1  0  0  0
 31 33  1  0  0  0
  1  2  1  0  0  0
 14 24  1  0  0  0
 18 25  1  0  0  0
M  END
> <minimizedAffinity>
-12.59900

$$$$
1D4K_PI8_A_201


 57 61  0  0  0  0  0  0  0  0999 V2000
    4.7063   -0.5181   15.7996 N   0  0  0  0  0  0  0  0  0  0  0  0
    4.3891    0.0557   16.5809 H   0  0  0  0  0  0  0  0  0  0  0  0
    5.1747    0.3579   14.7208 C   0  0  0  0  0  0  0  0  0  0  0  0
    6.6846    0.1815   14.5299 C   0  0  0  0  0  0  0  0  0  0  0  0
    7.2015    0.7904   13.2541 C   0  0  0  0  0  0  0  0  0  0  0  0
    7.4707    2.1544   13.1720 C   0  0  0  0  0  0  0  0  0  0  0  0
    7.8903    2.7322   11.9774 C   0  0  0  0  0  0  0  0  0  0  0  0
    7.3713    0.0109   12.1105 C   0  0  0  0  0  0  0  0  0  0  0  0
    7.7872    0.5765   10.9126 C   0  0  0  0  0  0  0  0  0  0  0  0
    8.0459    1.9388   10.8477 C   0  0  0  0  0  0  0  0  0  0  0  0
    8.4403    2.4784    9.6363 O   0  0  0  0  0  0  0  0  0  0  0  0
    4.4587    0.2424   13.3626 C   0  0  0  0  0  0  0  0  0  0  0  0
    4.3531   -0.8440   12.7922 O   0  0  0  0  0  0  0  0  0  0  0  0
    3.8940    1.3590   12.9054 N   0  0  0  0  0  0  0  0  0  0  0  0
    3.2484    1.4524   11.5787 C   0  0  0  0  0  0  0  0  0  0  0  0
    3.4849    2.8755   11.0676 C   0  0  0  0  0  0  0  0  0  0  0  0
    3.4316    3.8373   11.8435 O   0  0  0  0  0  0  0  0  0  0  0  0
    3.7869    3.0035    9.7770 N   0  0  0  0  0  0  0  0  0  0  0  0
    4.0474    4.2925    9.1106 C   0  0  0  0  0  0  0  0  0  0  0  0
    4.8555    4.1397    7.8259 C   0  0  0  0  0  0  0  0  0  0  0  0
    6.2434    3.5710    8.0875 C   0  0  0  0  0  0  0  0  0  0  0  0
    6.9750    4.3617    9.1592 C   0  0  0  0  0  0  0  0  0  0  0  0
    8.4042    3.8692    9.3463 C   0  0  0  0  0  0  0  0  0  0  0  0
    3.9072    2.1597   13.4781 H   0  0  0  0  0  0  0  0  0  0  0  0
    3.8395    2.1847    9.2329 H   0  0  0  0  0  0  0  0  0  0  0  0
    1.7174    1.1978   11.6349 C   0  0  0  0  0  0  0  0  0  0  0  0
    1.2896    0.3551   10.4290 C   0  0  0  0  0  0  0  0  0  0  0  0
    1.3265    0.4720   12.9235 C   0  0  0  0  0  0  0  0  0  0  0  0
   -0.0821   -0.0187   12.9395 C   0  0  0  0  0  0  0  0  0  0  0  0
    5.7728   -1.4005   16.2587 C   0  0  0  0  0  0  0  0  0  0  0  0
    3.8503   -2.5741   17.1144 O   0  0  0  0  0  0  0  0  0  0  0  0
    5.2105   -2.7333   16.6931 C   0  0  0  0  0  0  0  0  0  0  0  0
    3.4951   -3.4331   17.3919 H   0  0  0  0  0  0  0  0  0  0  0  0
    5.2717   -3.6489   15.4853 C   0  0  0  0  0  0  0  0  0  0  0  0
    5.5712   -5.1121   15.7663 C   0  0  0  0  0  0  0  0  0  0  0  0
    4.3686   -7.1691   16.2658 N   0  0  0  0  0  0  0  0  0  0  0  0
    4.2564   -5.8910   15.9155 C   0  0  0  0  0  0  0  0  0  0  0  0
    3.1686   -5.3424   15.7097 O   0  0  0  0  0  0  0  0  0  0  0  0
    5.2638   -7.5581   16.3942 H   0  0  0  0  0  0  0  0  0  0  0  0
    3.1772   -8.0141   16.4655 C   0  0  0  0  0  0  0  0  0  0  0  0
    3.0470   -8.1746   17.9614 C   0  0  0  0  0  0  0  0  0  0  0  0
    4.3454   -8.1856   18.5632 O   0  0  0  0  0  0  0  0  0  0  0  0
    2.3987   -9.4917   18.1693 C   0  0  0  0  0  0  0  0  0  0  0  0
    3.2366   -9.4213   15.9618 C   0  0  0  0  0  0  0  0  0  0  0  0
    2.7811  -10.2791   16.9470 C   0  0  0  0  0  0  0  0  0  0  0  0
    3.6527   -9.9139   14.7348 C   0  0  0  0  0  0  0  0  0  0  0  0
    2.7336  -11.6444   16.7206 C   0  0  0  0  0  0  0  0  0  0  0  0
    3.6118  -11.2834   14.4905 C   0  0  0  0  0  0  0  0  0  0  0  0
    3.1502  -12.1543   15.4897 C   0  0  0  0  0  0  0  0  0  0  0  0
    4.8726   -8.9048   18.1815 H   0  0  0  0  0  0  0  0  0  0  0  0
    6.3775   -5.2027   17.0590 C   0  0  0  0  0  0  0  0  0  0  0  0
    7.8351   -5.4545   16.8420 C   0  0  0  0  0  0  0  0  0  0  0  0
    8.3576   -5.5131   15.5555 C   0  0  0  0  0  0  0  0  0  0  0  0
    8.6913   -5.6134   17.9251 C   0  0  0  0  0  0  0  0  0  0  0  0
    9.7137   -5.7247   15.3524 C   0  0  0  0  0  0  0  0  0  0  0  0
   10.0479   -5.8252   17.7333 C   0  0  0  0  0  0  0  0  0  0  0  0
   10.5624   -5.8804   16.4457 C   0  0  0  0  0  0  0  0  0  0  0  0
 36 40  1  0  0  0
 36 37  1  0  0  0
 40 41  1  0  0  0
 40 44  1  0  0  0
 41 42  1  0  0  0
 41 43  1  0  0  0
 43 45  1  0  0  0
 44 45  2  0  0  0
 44 46  1  0  0  0
 45 47  1  0  0  0
 46 48  2  0  0  0
 47 49  2  0  0  0
 48 49  1  0  0  0
 35 51  1  0  0  0
 35 37  1  0  0  0
 35 34  1  0  0  0
 51 52  1  0  0  0
 52 53  2  0  0  0
 52 54  1  0  0  0
 53 55  1  0  0  0
 54 56  2  0  0  0
 55 57  2  0  0  0
 56 57  1  0  0  0
 37 38  2  0  0  0
 34 32  1  0  0  0
 31 32  1  0  0  0
 32 30  1  0  0  0
 30  1  1  0  0  0
  1  3  1  0  0  0
  3  4  1  0  0  0
  3 12  1  0  0  0
  4  5  1  0  0  0
  5  6  2  0  0  0
  5  8  1  0  0  0
  6  7  1  0  0  0
  7 10  2  0  0  0
  8  9  2  0  0  0
  9 10  1  0  0  0
 10 11  1  0  0  0
 11 23  1  0  0  0
 12 13  2  0  0  0
 12 14  1  0  0  0
 14 15  1  0  0  0
 15 26  1  0  0  0
 15 16  1  0  0  0
 26 27  1  0  0  0
 26 28  1  0  0  0
 28 29  1  0  0  0
 16 17  2  0  0  0
 16 18  1  0  0  0
 18 19  1  0  0  0
 19 20  1  0  0  0
 20 21  1  0  0  0
 21 22  1  0  0  0
 22 23  1  0  0  0
 36 39  1  0  0  0
 42 50  1  0  0  0
 31 33  1  0  0  0
  1  2  1  0  0  0
 14 24  1  0  0  0
 18 25  1  0  0  0
M  END
> <minimizedAffinity>
-11.79473

$$$$
1D4K_PI8_A_201


 57 61  0  0  0  0  0  0  0  0999 V2000
    6.3540   -0.8045   15.2190 N   0  0  0  0  0  0  0  0  0  0  0  0
    6.5036   -0.1095   15.9505 H   0  0  0  0  0  0  0  0  0  0  0  0
    5.8102   -2.0255   15.8221 C   0  0  0  0  0  0  0  0  0  0  0  0
    4.2961   -2.0843   15.5959 C   0  0  0  0  0  0  0  0  0  0  0  0
    3.6985   -3.4333   15.8936 C   0  0  0  0  0  0  0  0  0  0  0  0
    3.3978   -3.8081   17.2008 C   0  0  0  0  0  0  0  0  0  0  0  0
    2.9025   -5.0766   17.4876 C   0  0  0  0  0  0  0  0  0  0  0  0
    3.4828   -4.3579   14.8724 C   0  0  0  0  0  0  0  0  0  0  0  0
    2.9912   -5.6272   15.1465 C   0  0  0  0  0  0  0  0  0  0  0  0
    2.7019   -5.9853   16.4562 C   0  0  0  0  0  0  0  0  0  0  0  0
    2.2315   -7.2631   16.7019 O   0  0  0  0  0  0  0  0  0  0  0  0
    6.4537   -3.3607   15.4048 C   0  0  0  0  0  0  0  0  0  0  0  0
    6.5501   -3.6740   14.2177 O   0  0  0  0  0  0  0  0  0  0  0  0
    6.9702   -4.0916   16.3916 N   0  0  0  0  0  0  0  0  0  0  0  0
    7.5408   -5.4395   16.1844 C   0  0  0  0  0  0  0  0  0  0  0  0
    7.2483   -6.2466   17.4514 C   0  0  0  0  0  0  0  0  0  0  0  0
    7.3242   -5.7143   18.5653 O   0  0  0  0  0  0  0  0  0  0  0  0
    6.8742   -7.5129   17.2791 N   0  0  0  0  0  0  0  0  0  0  0  0
    6.5520   -8.4391   18.3801 C   0  0  0  0  0  0  0  0  0  0  0  0
    5.6786   -9.6067   17.9322 C   0  0  0  0  0  0  0  0  0  0  0  0
    4.3187   -9.1434   17.4280 C   0  0  0  0  0  0  0  0  0  0  0  0
    3.6305   -8.2395   18.4372 C   0  0  0  0  0  0  0  0  0  0  0  0
    2.2238   -7.8636   17.9901 C   0  0  0  0  0  0  0  0  0  0  0  0
    6.9719   -3.7163   17.3018 H   0  0  0  0  0  0  0  0  0  0  0  0
    6.8087   -7.8525   16.3574 H   0  0  0  0  0  0  0  0  0  0  0  0
    9.0774   -5.4148   15.9604 C   0  0  0  0  0  0  0  0  0  0  0  0
    9.3834   -5.5500   14.4653 C   0  0  0  0  0  0  0  0  0  0  0  0
    9.6901   -4.1158   16.4869 C   0  0  0  0  0  0  0  0  0  0  0  0
   10.2766   -3.2480   15.4246 C   0  0  0  0  0  0  0  0  0  0  0  0
    5.4386   -0.2590   14.2235 C   0  0  0  0  0  0  0  0  0  0  0  0
    7.0617    1.5063   14.4578 O   0  0  0  0  0  0  0  0  0  0  0  0
    5.9860    1.0237   13.6435 C   0  0  0  0  0  0  0  0  0  0  0  0
    7.4087    2.3297   14.0803 H   0  0  0  0  0  0  0  0  0  0  0  0
    6.4997    0.6923   12.2553 C   0  0  0  0  0  0  0  0  0  0  0  0
    6.8815    1.8750   11.3806 C   0  0  0  0  0  0  0  0  0  0  0  0
    4.5627    2.3624   10.8215 N   0  0  0  0  0  0  0  0  0  0  0  0
    5.7039    2.8565   11.2930 C   0  0  0  0  0  0  0  0  0  0  0  0
    5.8349    4.0351   11.6398 O   0  0  0  0  0  0  0  0  0  0  0  0
    4.5243    1.4201   10.5390 H   0  0  0  0  0  0  0  0  0  0  0  0
    3.3541    3.1998   10.7141 C   0  0  0  0  0  0  0  0  0  0  0  0
    2.1976    2.2705   10.9954 C   0  0  0  0  0  0  0  0  0  0  0  0
    2.5029    0.9568   10.5165 O   0  0  0  0  0  0  0  0  0  0  0  0
    1.0491    2.8160   10.2328 C   0  0  0  0  0  0  0  0  0  0  0  0
    3.0292    3.7739    9.3717 C   0  0  0  0  0  0  0  0  0  0  0  0
    1.6917    3.5564    9.0930 C   0  0  0  0  0  0  0  0  0  0  0  0
    3.8394    4.4395    8.4651 C   0  0  0  0  0  0  0  0  0  0  0  0
    1.1422    4.0019    7.9026 C   0  0  0  0  0  0  0  0  0  0  0  0
    3.3035    4.8938    7.2637 C   0  0  0  0  0  0  0  0  0  0  0  0
    1.9467    4.6730    6.9801 C   0  0  0  0  0  0  0  0  0  0  0  0
    2.6940    0.9954    9.5663 H   0  0  0  0  0  0  0  0  0  0  0  0
    7.2291    1.3561    9.9880 C   0  0  0  0  0  0  0  0  0  0  0  0
    7.5560    2.4369    9.0081 C   0  0  0  0  0  0  0  0  0  0  0  0
    8.5131    3.3982    9.3106 C   0  0  0  0  0  0  0  0  0  0  0  0
    6.9214    2.4831    7.7726 C   0  0  0  0  0  0  0  0  0  0  0  0
    8.8339    4.3891    8.3938 C   0  0  0  0  0  0  0  0  0  0  0  0
    7.2345    3.4688    6.8493 C   0  0  0  0  0  0  0  0  0  0  0  0
    8.1927    4.4239    7.1579 C   0  0  0  0  0  0  0  0  0  0  0  0
 36 40  1  0  0  0
 36 37  1  0  0  0
 40 41  1  0  0  0
 40 44  1  0  0  0
 41 42  1  0  0  0
 41 43  1  0  0  0
 43 45  1  0  0  0
 44 45  2  0  0  0
 44 46  1  0  0  0
 45 47  1  0  0  0
 46 48  2  0  0  0
 47 49  2  0  0  0
 48 49  1  0  0  0
 35 51  1  0  0  0
 35 37  1  0  0  0
 35 34  1  0  0  0
 51 52  1  0  0  0
 52 53  2  0  0  0
 52 54  1  0  0  0
 53 55  1  0  0  0
 54 56  2  0  0  0
 55 57  2  0  0  0
 56 57  1  0  0  0
 37 38  2  0  0  0
 34 32  1  0  0  0
 31 32  1  0  0  0
 32 30  1  0  0  0
 30  1  1  0  0  0
  1  3  1  0  0  0
  3  4  1  0  0  0
  3 12  1  0  0  0
  4  5  1  0  0  0
  5  6  2  0  0  0
  5  8  1  0  0  0
  6  7  1  0  0  0
  7 10  2  0  0  0
  8  9  2  0  0  0
  9 10  1  0  0  0
 10 11  1  0  0  0
 11 23  1  0  0  0
 12 13  2  0  0  0
 12 14  1  0  0  0
 14 15  1  0  0  0
 15 26  1  0  0  0
 15 16  1  0  0  0
 26 27  1  0  0  0
 26 28  1  0  0  0
 28 29  1  0  0  0
 16 17  2  0  0  0
 16 18  1  0  0  0
 18 19  1  0  0  0
 19 20  1  0  0  0
 20 21  1  0  0  0
 21 22  1  0  0  0
 22 23  1  0  0  0
 36 39  1  0  0  0
 42 50  1  0  0  0
 31 33  1  0  0  0
  1  2  1  0  0  0
 14 24  1  0  0  0
 18 25  1  0  0  0
M  END
> <minimizedAffinity>
-11.55649

$$$$
1D4K_PI8_A_201


 57 61  0  0  0  0  0  0  0  0999 V2000
    4.0655   -0.3152   15.3283 N   0  0  0  0  0  0  0  0  0  0  0  0
    4.4140   -0.0326   16.2443 H   0  0  0  0  0  0  0  0  0  0  0  0
    4.6714    0.5381   14.3010 C   0  0  0  0  0  0  0  0  0  0  0  0
    6.1838    0.2981   14.2551 C   0  0  0  0  0  0  0  0  0  0  0  0
    6.8456    0.8820   13.0357 C   0  0  0  0  0  0  0  0  0  0  0  0
    7.1786    2.2333   12.9824 C   0  0  0  0  0  0  0  0  0  0  0  0
    7.7344    2.7905   11.8346 C   0  0  0  0  0  0  0  0  0  0  0  0
    7.0911    0.0937   11.9121 C   0  0  0  0  0  0  0  0  0  0  0  0
    7.6431    0.6388   10.7606 C   0  0  0  0  0  0  0  0  0  0  0  0
    7.9639    1.9889   10.7235 C   0  0  0  0  0  0  0  0  0  0  0  0
    8.4947    2.5089    9.5563 O   0  0  0  0  0  0  0  0  0  0  0  0
    4.0844    0.4500   12.8802 C   0  0  0  0  0  0  0  0  0  0  0  0
    3.9883   -0.6321   12.3002 O   0  0  0  0  0  0  0  0  0  0  0  0
    3.6135    1.5884   12.3733 N   0  0  0  0  0  0  0  0  0  0  0  0
    3.1023    1.7061   10.9911 C   0  0  0  0  0  0  0  0  0  0  0  0
    3.4462    3.1169   10.5078 C   0  0  0  0  0  0  0  0  0  0  0  0
    3.3593    4.0817   11.2768 O   0  0  0  0  0  0  0  0  0  0  0  0
    3.8754    3.2294    9.2522 N   0  0  0  0  0  0  0  0  0  0  0  0
    4.2525    4.5050    8.6163 C   0  0  0  0  0  0  0  0  0  0  0  0
    5.1726    4.3157    7.4146 C   0  0  0  0  0  0  0  0  0  0  0  0
    6.5040    3.6896    7.8066 C   0  0  0  0  0  0  0  0  0  0  0  0
    7.1623    4.4511    8.9449 C   0  0  0  0  0  0  0  0  0  0  0  0
    8.5450    3.8994    9.2669 C   0  0  0  0  0  0  0  0  0  0  0  0
    3.6054    2.3890   12.9461 H   0  0  0  0  0  0  0  0  0  0  0  0
    3.9454    2.4080    8.7140 H   0  0  0  0  0  0  0  0  0  0  0  0
    1.5636    1.5162   10.9001 C   0  0  0  0  0  0  0  0  0  0  0  0
    1.2477    0.1817   10.2169 C   0  0  0  0  0  0  0  0  0  0  0  0
    0.9227    1.5377   12.2889 C   0  0  0  0  0  0  0  0  0  0  0  0
    0.2701    0.2532   12.6754 C   0  0  0  0  0  0  0  0  0  0  0  0
    4.3948   -1.7182   15.1053 C   0  0  0  0  0  0  0  0  0  0  0  0
    4.8683   -1.4384   17.4512 O   0  0  0  0  0  0  0  0  0  0  0  0
    4.6845   -2.4114   16.4155 C   0  0  0  0  0  0  0  0  0  0  0  0
    5.0540   -1.8896   18.2895 H   0  0  0  0  0  0  0  0  0  0  0  0
    3.4784   -3.2761   16.7295 C   0  0  0  0  0  0  0  0  0  0  0  0
    3.7579   -4.7446   17.0034 C   0  0  0  0  0  0  0  0  0  0  0  0
    6.0664   -5.4882   17.2157 N   0  0  0  0  0  0  0  0  0  0  0  0
    5.0988   -5.1438   16.3706 C   0  0  0  0  0  0  0  0  0  0  0  0
    5.2490   -5.1313   15.1443 O   0  0  0  0  0  0  0  0  0  0  0  0
    5.8953   -5.4571   18.1847 H   0  0  0  0  0  0  0  0  0  0  0  0
    7.3904   -5.9155   16.7281 C   0  0  0  0  0  0  0  0  0  0  0  0
    7.9791   -6.7446   17.8445 C   0  0  0  0  0  0  0  0  0  0  0  0
    7.5368   -6.2404   19.1088 O   0  0  0  0  0  0  0  0  0  0  0  0
    9.4484   -6.5782   17.7368 C   0  0  0  0  0  0  0  0  0  0  0  0
    8.4169   -4.8524   16.4967 C   0  0  0  0  0  0  0  0  0  0  0  0
    9.6124   -5.2373   17.0770 C   0  0  0  0  0  0  0  0  0  0  0  0
    8.3152   -3.6434   15.8264 C   0  0  0  0  0  0  0  0  0  0  0  0
   10.7265   -4.4190   16.9958 C   0  0  0  0  0  0  0  0  0  0  0  0
    9.4251   -2.8087   15.7355 C   0  0  0  0  0  0  0  0  0  0  0  0
   10.6381   -3.1983   16.3244 C   0  0  0  0  0  0  0  0  0  0  0  0
    7.7957   -5.3095   19.1940 H   0  0  0  0  0  0  0  0  0  0  0  0
    2.6302   -5.5745   16.3961 C   0  0  0  0  0  0  0  0  0  0  0  0
    2.7691   -7.0437   16.6350 C   0  0  0  0  0  0  0  0  0  0  0  0
    2.3733   -7.6029   17.8443 C   0  0  0  0  0  0  0  0  0  0  0  0
    3.2777   -7.8737   15.6431 C   0  0  0  0  0  0  0  0  0  0  0  0
    2.4809   -8.9693   18.0600 C   0  0  0  0  0  0  0  0  0  0  0  0
    3.3894   -9.2403   15.8482 C   0  0  0  0  0  0  0  0  0  0  0  0
    2.9901   -9.7913   17.0575 C   0  0  0  0  0  0  0  0  0  0  0  0
 36 40  1  0  0  0
 36 37  1  0  0  0
 40 41  1  0  0  0
 40 44  1  0  0  0
 41 42  1  0  0  0
 41 43  1  0  0  0
 43 45  1  0  0  0
 44 45  2  0  0  0
 44 46  1  0  0  0
 45 47  1  0  0  0
 46 48  2  0  0  0
 47 49  2  0  0  0
 48 49  1  0  0  0
 35 51  1  0  0  0
 35 37  1  0  0  0
 35 34  1  0  0  0
 51 52  1  0  0  0
 52 53  2  0  0  0
 52 54  1  0  0  0
 53 55  1  0  0  0
 54 56  2  0  0  0
 55 57  2  0  0  0
 56 57  1  0  0  0
 37 38  2  0  0  0
 34 32  1  0  0  0
 31 32  1  0  0  0
 32 30  1  0  0  0
 30  1  1  0  0  0
  1  3  1  0  0  0
  3  4  1  0  0  0
  3 12  1  0  0  0
  4  5  1  0  0  0
  5  6  2  0  0  0
  5  8  1  0  0  0
  6  7  1  0  0  0
  7 10  2  0  0  0
  8  9  2  0  0  0
  9 10  1  0  0  0
 10 11  1  0  0  0
 11 23  1  0  0  0
 12 13  2  0  0  0
 12 14  1  0  0  0
 14 15  1  0  0  0
 15 26  1  0  0  0
 15 16  1  0  0  0
 26 27  1  0  0  0
 26 28  1  0  0  0
 28 29  1  0  0  0
 16 17  2  0  0  0
 16 18  1  0  0  0
 18 19  1  0  0  0
 19 20  1  0  0  0
 20 21  1  0  0  0
 21 22  1  0  0  0
 22 23  1  0  0  0
 36 39  1  0  0  0
 42 50  1  0  0  0
 31 33  1  0  0  0
  1  2  1  0  0  0
 14 24  1  0  0  0
 18 25  1  0  0  0
M  END
> <minimizedAffinity>
-11.35320

$$$$
1D4K_PI8_A_201


 57 61  0  0  0  0  0  0  0  0999 V2000
    4.7911   -0.5201   15.7627 N   0  0  0  0  0  0  0  0  0  0  0  0
    5.5379   -0.6145   16.4511 H   0  0  0  0  0  0  0  0  0  0  0  0
    5.2450    0.3599   14.6810 C   0  0  0  0  0  0  0  0  0  0  0  0
    6.7522    0.1847   14.4695 C   0  0  0  0  0  0  0  0  0  0  0  0
    7.2522    0.7982   13.1892 C   0  0  0  0  0  0  0  0  0  0  0  0
    7.5199    2.1626   13.1084 C   0  0  0  0  0  0  0  0  0  0  0  0
    7.9235    2.7448   11.9105 C   0  0  0  0  0  0  0  0  0  0  0  0
    7.4070    0.0229   12.0407 C   0  0  0  0  0  0  0  0  0  0  0  0
    7.8070    0.5929   10.8394 C   0  0  0  0  0  0  0  0  0  0  0  0
    8.0644    1.9555   10.7760 C   0  0  0  0  0  0  0  0  0  0  0  0
    8.4427    2.4995    9.5614 O   0  0  0  0  0  0  0  0  0  0  0  0
    4.5112    0.2490   13.3319 C   0  0  0  0  0  0  0  0  0  0  0  0
    4.3984   -0.8354   12.7590 O   0  0  0  0  0  0  0  0  0  0  0  0
    3.9402    1.3670   12.8862 N   0  0  0  0  0  0  0  0  0  0  0  0
    3.2771    1.4650   11.5685 C   0  0  0  0  0  0  0  0  0  0  0  0
    3.5065    2.8899   11.0594 C   0  0  0  0  0  0  0  0  0  0  0  0
    3.4631    3.8490   11.8393 O   0  0  0  0  0  0  0  0  0  0  0  0
    3.7914    3.0226    9.7654 N   0  0  0  0  0  0  0  0  0  0  0  0
    4.0427    4.3141    9.1002 C   0  0  0  0  0  0  0  0  0  0  0  0
    4.8338    4.1662    7.8044 C   0  0  0  0  0  0  0  0  0  0  0  0
    6.2252    3.5969    8.0456 C   0  0  0  0  0  0  0  0  0  0  0  0
    6.9707    4.3840    9.1104 C   0  0  0  0  0  0  0  0  0  0  0  0
    8.4024    3.8914    9.2768 C   0  0  0  0  0  0  0  0  0  0  0  0
    3.9607    2.1657   13.4615 H   0  0  0  0  0  0  0  0  0  0  0  0
    3.8371    2.2058    9.2177 H   0  0  0  0  0  0  0  0  0  0  0  0
    1.7471    1.2097   11.6440 C   0  0  0  0  0  0  0  0  0  0  0  0
    1.2972    0.4041   10.4209 C   0  0  0  0  0  0  0  0  0  0  0  0
    1.3781    0.4455   12.9167 C   0  0  0  0  0  0  0  0  0  0  0  0
   -0.0752    0.1302   13.0348 C   0  0  0  0  0  0  0  0  0  0  0  0
    4.4435   -1.8413   15.2526 C   0  0  0  0  0  0  0  0  0  0  0  0
    3.6569   -2.6863   17.3675 O   0  0  0  0  0  0  0  0  0  0  0  0
    4.6197   -2.8893   16.3259 C   0  0  0  0  0  0  0  0  0  0  0  0
    3.7752   -3.3621   18.0533 H   0  0  0  0  0  0  0  0  0  0  0  0
    4.3882   -4.2352   15.6659 C   0  0  0  0  0  0  0  0  0  0  0  0
    3.8978   -5.3522   16.5722 C   0  0  0  0  0  0  0  0  0  0  0  0
    6.1976   -6.1071   16.8341 N   0  0  0  0  0  0  0  0  0  0  0  0
    5.0516   -5.8463   17.4568 C   0  0  0  0  0  0  0  0  0  0  0  0
    4.8985   -5.9924   18.6740 O   0  0  0  0  0  0  0  0  0  0  0  0
    6.2536   -5.9937   15.8577 H   0  0  0  0  0  0  0  0  0  0  0  0
    7.3853   -6.5629   17.5789 C   0  0  0  0  0  0  0  0  0  0  0  0
    8.5671   -6.1763   16.7220 C   0  0  0  0  0  0  0  0  0  0  0  0
    8.2105   -6.2567   15.3384 O   0  0  0  0  0  0  0  0  0  0  0  0
    9.6210   -7.1768   17.0160 C   0  0  0  0  0  0  0  0  0  0  0  0
    7.5550   -8.0363   17.7729 C   0  0  0  0  0  0  0  0  0  0  0  0
    8.8523   -8.3934   17.4515 C   0  0  0  0  0  0  0  0  0  0  0  0
    6.6464   -8.9911   18.2020 C   0  0  0  0  0  0  0  0  0  0  0  0
    9.2625   -9.7119   17.5545 C   0  0  0  0  0  0  0  0  0  0  0  0
    7.0418  -10.3210   18.3111 C   0  0  0  0  0  0  0  0  0  0  0  0
    8.3577  -10.6840   17.9846 C   0  0  0  0  0  0  0  0  0  0  0  0
    7.9126   -7.1567   15.1331 H   0  0  0  0  0  0  0  0  0  0  0  0
    3.3864   -6.4955   15.7000 C   0  0  0  0  0  0  0  0  0  0  0  0
    3.0235   -7.7239   16.4711 C   0  0  0  0  0  0  0  0  0  0  0  0
    2.1046   -7.6584   17.5118 C   0  0  0  0  0  0  0  0  0  0  0  0
    3.5853   -8.9523   16.1443 C   0  0  0  0  0  0  0  0  0  0  0  0
    1.7498   -8.8011   18.2142 C   0  0  0  0  0  0  0  0  0  0  0  0
    3.2376  -10.1002   16.8397 C   0  0  0  0  0  0  0  0  0  0  0  0
    2.3179  -10.0270   17.8762 C   0  0  0  0  0  0  0  0  0  0  0  0
 36 40  1  0  0  0
 36 37  1  0  0  0
 40 41  1  0  0  0
 40 44  1  0  0  0
 41 42  1  0  0  0
 41 43  1  0  0  0
 43 45  1  0  0  0
 44 45  2  0  0  0
 44 46  1  0  0  0
 45 47  1  0  0  0
 46 48  2  0  0  0
 47 49  2  0  0  0
 48 49  1  0  0  0
 35 51  1  0  0  0
 35 37  1  0  0  0
 35 34  1  0  0  0
 51 52  1  0  0  0
 52 53  2  0  0  0
 52 54  1  0  0  0
 53 55  1  0  0  0
 54 56  2  0  0  0
 55 57  2  0  0  0
 56 57  1  0  0  0
 37 38  2  0  0  0
 34 32  1  0  0  0
 31 32  1  0  0  0
 32 30  1  0  0  0
 30  1  1  0  0  0
  1  3  1  0  0  0
  3  4  1  0  0  0
  3 12  1  0  0  0
  4  5  1  0  0  0
  5  6  2  0  0  0
  5  8  1  0  0  0
  6  7  1  0  0  0
  7 10  2  0  0  0
  8  9  2  0  0  0
  9 10  1  0  0  0
 10 11  1  0  0  0
 11 23  1  0  0  0
 12 13  2  0  0  0
 12 14  1  0  0  0
 14 15  1  0  0  0
 15 26  1  0  0  0
 15 16  1  0  0  0
 26 27  1  0  0  0
 26 28  1  0  0  0
 28 29  1  0  0  0
 16 17  2  0  0  0
 16 18  1  0  0  0
 18 19  1  0  0  0
 19 20  1  0  0  0
 20 21  1  0  0  0
 21 22  1  0  0  0
 22 23  1  0  0  0
 36 39  1  0  0  0
 42 50  1  0  0  0
 31 33  1  0  0  0
  1  2  1  0  0  0
 14 24  1  0  0  0
 18 25  1  0  0  0
M  END
> <minimizedAffinity>
-11.26150

$$$$
1D4K_PI8_A_201


 57 61  0  0  0  0  0  0  0  0999 V2000
    6.5184   -0.6868   15.2091 N   0  0  0  0  0  0  0  0  0  0  0  0
    6.5539    0.0506   15.9129 H   0  0  0  0  0  0  0  0  0  0  0  0
    5.9455   -1.8956   15.8100 C   0  0  0  0  0  0  0  0  0  0  0  0
    4.4255   -1.8979   15.6188 C   0  0  0  0  0  0  0  0  0  0  0  0
    3.7872   -3.2287   15.9142 C   0  0  0  0  0  0  0  0  0  0  0  0
    3.5036   -3.6094   17.2235 C   0  0  0  0  0  0  0  0  0  0  0  0
    2.9701   -4.8632   17.5065 C   0  0  0  0  0  0  0  0  0  0  0  0
    3.5151   -4.1318   14.8872 C   0  0  0  0  0  0  0  0  0  0  0  0
    2.9849   -5.3863   15.1575 C   0  0  0  0  0  0  0  0  0  0  0  0
    2.7135   -5.7509   16.4692 C   0  0  0  0  0  0  0  0  0  0  0  0
    2.2036   -7.0143   16.7105 O   0  0  0  0  0  0  0  0  0  0  0  0
    6.5312   -3.2472   15.3615 C   0  0  0  0  0  0  0  0  0  0  0  0
    6.5888   -3.5484   14.1688 O   0  0  0  0  0  0  0  0  0  0  0  0
    7.0439   -4.0086   16.3269 N   0  0  0  0  0  0  0  0  0  0  0  0
    7.5611   -5.3731   16.0900 C   0  0  0  0  0  0  0  0  0  0  0  0
    7.2694   -6.1856   17.3537 C   0  0  0  0  0  0  0  0  0  0  0  0
    7.3900   -5.6708   18.4719 O   0  0  0  0  0  0  0  0  0  0  0  0
    6.8465   -7.4356   17.1750 N   0  0  0  0  0  0  0  0  0  0  0  0
    6.5170   -8.3639   18.2720 C   0  0  0  0  0  0  0  0  0  0  0  0
    5.5925   -9.4941   17.8307 C   0  0  0  0  0  0  0  0  0  0  0  0
    4.2387   -8.9764   17.3644 C   0  0  0  0  0  0  0  0  0  0  0  0
    3.6066   -8.0619   18.4003 C   0  0  0  0  0  0  0  0  0  0  0  0
    2.2042   -7.6307   17.9911 C   0  0  0  0  0  0  0  0  0  0  0  0
    7.0800   -3.6454   17.2413 H   0  0  0  0  0  0  0  0  0  0  0  0
    6.7476   -7.7607   16.2511 H   0  0  0  0  0  0  0  0  0  0  0  0
    9.0921   -5.3999   15.8303 C   0  0  0  0  0  0  0  0  0  0  0  0
    9.3588   -5.4706   14.3232 C   0  0  0  0  0  0  0  0  0  0  0  0
    9.7705   -4.1557   16.4063 C   0  0  0  0  0  0  0  0  0  0  0  0
   10.7879   -4.4513   17.4565 C   0  0  0  0  0  0  0  0  0  0  0  0
    5.7145   -0.2307   14.0811 C   0  0  0  0  0  0  0  0  0  0  0  0
    7.6310    1.2283   14.0188 O   0  0  0  0  0  0  0  0  0  0  0  0
    6.3551    0.9674   13.4212 C   0  0  0  0  0  0  0  0  0  0  0  0
    8.0370    1.9984   13.5909 H   0  0  0  0  0  0  0  0  0  0  0  0
    6.5347    0.6165   11.9564 C   0  0  0  0  0  0  0  0  0  0  0  0
    6.7217    1.7858   11.0039 C   0  0  0  0  0  0  0  0  0  0  0  0
    4.2903    1.6614   11.0136 N   0  0  0  0  0  0  0  0  0  0  0  0
    5.3560    2.2465   10.4742 C   0  0  0  0  0  0  0  0  0  0  0  0
    5.2768    3.1078    9.5919 O   0  0  0  0  0  0  0  0  0  0  0  0
    4.4160    0.9645   11.6975 H   0  0  0  0  0  0  0  0  0  0  0  0
    2.9242    2.0373   10.6063 C   0  0  0  0  0  0  0  0  0  0  0  0
    2.8212    3.5200   10.8732 C   0  0  0  0  0  0  0  0  0  0  0  0
    3.6132    3.8640   12.0146 O   0  0  0  0  0  0  0  0  0  0  0  0
    1.3919    3.7760   11.1727 C   0  0  0  0  0  0  0  0  0  0  0  0
    1.7872    1.4569   11.3858 C   0  0  0  0  0  0  0  0  0  0  0  0
    0.8951    2.4631   11.7111 C   0  0  0  0  0  0  0  0  0  0  0  0
    1.5482    0.1487   11.7769 C   0  0  0  0  0  0  0  0  0  0  0  0
   -0.2515    2.1771   12.4327 C   0  0  0  0  0  0  0  0  0  0  0  0
    0.4007   -0.1563   12.5029 C   0  0  0  0  0  0  0  0  0  0  0  0
   -0.5045    0.8641   12.8337 C   0  0  0  0  0  0  0  0  0  0  0  0
    3.3141    3.3515   12.7819 H   0  0  0  0  0  0  0  0  0  0  0  0
    7.6015    1.3300    9.8430 C   0  0  0  0  0  0  0  0  0  0  0  0
    7.9658    2.4290    8.8972 C   0  0  0  0  0  0  0  0  0  0  0  0
    8.6555    3.5484    9.3476 C   0  0  0  0  0  0  0  0  0  0  0  0
    7.6372    2.3367    7.5500 C   0  0  0  0  0  0  0  0  0  0  0  0
    9.0140    4.5592    8.4674 C   0  0  0  0  0  0  0  0  0  0  0  0
    7.9907    3.3410    6.6620 C   0  0  0  0  0  0  0  0  0  0  0  0
    8.6810    4.4546    7.1190 C   0  0  0  0  0  0  0  0  0  0  0  0
 36 40  1  0  0  0
 36 37  1  0  0  0
 40 41  1  0  0  0
 40 44  1  0  0  0
 41 42  1  0  0  0
 41 43  1  0  0  0
 43 45  1  0  0  0
 44 45  2  0  0  0
 44 46  1  0  0  0
 45 47  1  0  0  0
 46 48  2  0  0  0
 47 49  2  0  0  0
 48 49  1  0  0  0
 35 51  1  0  0  0
 35 37  1  0  0  0
 35 34  1  0  0  0
 51 52  1  0  0  0
 52 53  2  0  0  0
 52 54  1  0  0  0
 53 55  1  0  0  0
 54 56  2  0  0  0
 55 57  2  0  0  0
 56 57  1  0  0  0
 37 38  2  0  0  0
 34 32  1  0  0  0
 31 32  1  0  0  0
 32 30  1  0  0  0
 30  1  1  0  0  0
  1  3  1  0  0  0
  3  4  1  0  0  0
  3 12  1  0  0  0
  4  5  1  0  0  0
  5  6  2  0  0  0
  5  8  1  0  0  0
  6  7  1  0  0  0
  7 10  2  0  0  0
  8  9  2  0  0  0
  9 10  1  0  0  0
 10 11  1  0  0  0
 11 23  1  0  0  0
 12 13  2  0  0  0
 12 14  1  0  0  0
 14 15  1  0  0  0
 15 26  1  0  0  0
 15 16  1  0  0  0
 26 27  1  0  0  0
 26 28  1  0  0  0
 28 29  1  0  0  0
 16 17  2  0  0  0
 16 18  1  0  0  0
 18 19  1  0  0  0
 19 20  1  0  0  0
 20 21  1  0  0  0
 21 22  1  0  0  0
 22 23  1  0  0  0
 36 39  1  0  0  0
 42 50  1  0  0  0
 31 33  1  0  0  0
  1  2  1  0  0  0
 14 24  1  0  0  0
 18 25  1  0  0  0
M  END
> <minimizedAffinity>
-10.72419

$$$$
1D4K_PI8_A_201


 57 61  0  0  0  0  0  0  0  0999 V2000
    6.2817   -5.1081   17.5345 N   0  0  0  0  0  0  0  0  0  0  0  0
    6.0727   -4.9295   18.5167 H   0  0  0  0  0  0  0  0  0  0  0  0
    6.6031   -6.5287   17.3636 C   0  0  0  0  0  0  0  0  0  0  0  0
    8.0286   -6.7994   17.8556 C   0  0  0  0  0  0  0  0  0  0  0  0
    8.3378   -8.2636   18.0172 C   0  0  0  0  0  0  0  0  0  0  0  0
    8.6960   -9.0428   16.9198 C   0  0  0  0  0  0  0  0  0  0  0  0
    8.9232  -10.4093   17.0537 C   0  0  0  0  0  0  0  0  0  0  0  0
    8.2203   -8.8835   19.2606 C   0  0  0  0  0  0  0  0  0  0  0  0
    8.4423  -10.2464   19.4061 C   0  0  0  0  0  0  0  0  0  0  0  0
    8.7933  -11.0086   18.3002 C   0  0  0  0  0  0  0  0  0  0  0  0
    8.9896  -12.3675   18.4711 O   0  0  0  0  0  0  0  0  0  0  0  0
    5.6320   -7.5476   17.9877 C   0  0  0  0  0  0  0  0  0  0  0  0
    5.3307   -7.4877   19.1803 O   0  0  0  0  0  0  0  0  0  0  0  0
    5.0823   -8.4200   17.1443 N   0  0  0  0  0  0  0  0  0  0  0  0
    4.2031   -9.5241   17.5842 C   0  0  0  0  0  0  0  0  0  0  0  0
    4.4514  -10.6971   16.6331 C   0  0  0  0  0  0  0  0  0  0  0  0
    4.6268  -10.4985   15.4249 O   0  0  0  0  0  0  0  0  0  0  0  0
    4.5086  -11.9089   17.1824 N   0  0  0  0  0  0  0  0  0  0  0  0
    4.7397  -13.1523   16.4247 C   0  0  0  0  0  0  0  0  0  0  0  0
    5.2701  -14.2851   17.2977 C   0  0  0  0  0  0  0  0  0  0  0  0
    6.6316  -13.9572   17.8953 C   0  0  0  0  0  0  0  0  0  0  0  0
    7.6176  -13.5204   16.8249 C   0  0  0  0  0  0  0  0  0  0  0  0
    9.0113  -13.2995   17.3984 C   0  0  0  0  0  0  0  0  0  0  0  0
    5.2705   -8.3250   16.1826 H   0  0  0  0  0  0  0  0  0  0  0  0
    4.3888  -11.9789   18.1571 H   0  0  0  0  0  0  0  0  0  0  0  0
    2.6961   -9.1535   17.5255 C   0  0  0  0  0  0  0  0  0  0  0  0
    1.9331   -9.9210   18.6100 C   0  0  0  0  0  0  0  0  0  0  0  0
    2.4898   -7.6514   17.7285 C   0  0  0  0  0  0  0  0  0  0  0  0
    2.1747   -6.9077   16.4743 C   0  0  0  0  0  0  0  0  0  0  0  0
    5.1286   -4.7306   16.7256 C   0  0  0  0  0  0  0  0  0  0  0  0
    6.0581   -2.5690   17.2441 O   0  0  0  0  0  0  0  0  0  0  0  0
    5.2091   -3.2749   16.3309 C   0  0  0  0  0  0  0  0  0  0  0  0
    6.1057   -1.6353   16.9854 H   0  0  0  0  0  0  0  0  0  0  0  0
    5.8042   -3.2317   14.9363 C   0  0  0  0  0  0  0  0  0  0  0  0
    6.2086   -1.8604   14.4210 C   0  0  0  0  0  0  0  0  0  0  0  0
    4.6670   -0.3909   13.2414 N   0  0  0  0  0  0  0  0  0  0  0  0
    5.3820   -1.5104   13.1751 C   0  0  0  0  0  0  0  0  0  0  0  0
    5.3908   -2.2458   12.1824 O   0  0  0  0  0  0  0  0  0  0  0  0
    4.6815    0.1435   14.0681 H   0  0  0  0  0  0  0  0  0  0  0  0
    3.8531    0.0646   12.0997 C   0  0  0  0  0  0  0  0  0  0  0  0
    4.4965    1.3504   11.6379 C   0  0  0  0  0  0  0  0  0  0  0  0
    5.0541    2.0440   12.7586 O   0  0  0  0  0  0  0  0  0  0  0  0
    3.4006    2.1612   11.0549 C   0  0  0  0  0  0  0  0  0  0  0  0
    2.4359    0.4561   12.3749 C   0  0  0  0  0  0  0  0  0  0  0  0
    2.1704    1.6696   11.7657 C   0  0  0  0  0  0  0  0  0  0  0  0
    1.4524   -0.2001   13.0983 C   0  0  0  0  0  0  0  0  0  0  0  0
    0.9159    2.2465   11.8698 C   0  0  0  0  0  0  0  0  0  0  0  0
    0.1861    0.3657   13.2132 C   0  0  0  0  0  0  0  0  0  0  0  0
   -0.0838    1.5970   12.5960 C   0  0  0  0  0  0  0  0  0  0  0  0
    4.3570    2.2191   13.4100 H   0  0  0  0  0  0  0  0  0  0  0  0
    7.6926   -1.8936   14.0664 C   0  0  0  0  0  0  0  0  0  0  0  0
    8.4040   -3.1081   14.5703 C   0  0  0  0  0  0  0  0  0  0  0  0
    8.1704   -4.3522   13.9964 C   0  0  0  0  0  0  0  0  0  0  0  0
    9.3241   -3.0062   15.6069 C   0  0  0  0  0  0  0  0  0  0  0  0
    8.8459   -5.4769   14.4478 C   0  0  0  0  0  0  0  0  0  0  0  0
   10.0046   -4.1237   16.0655 C   0  0  0  0  0  0  0  0  0  0  0  0
    9.7674   -5.3620   15.4859 C   0  0  0  0  0  0  0  0  0  0  0  0
 36 40  1  0  0  0
 36 37  1  0  0  0
 40 41  1  0  0  0
 40 44  1  0  0  0
 41 42  1  0  0  0
 41 43  1  0  0  0
 43 45  1  0  0  0
 44 45  2  0  0  0
 44 46  1  0  0  0
 45 47  1  0  0  0
 46 48  2  0  0  0
 47 49  2  0  0  0
 48 49  1  0  0  0
 35 51  1  0  0  0
 35 37  1  0  0  0
 35 34  1  0  0  0
 51 52  1  0  0  0
 52 53  2  0  0  0
 52 54  1  0  0  0
 53 55  1  0  0  0
 54 56  2  0  0  0
 55 57  2  0  0  0
 56 57  1  0  0  0
 37 38  2  0  0  0
 34 32  1  0  0  0
 31 32  1  0  0  0
 32 30  1  0  0  0
 30  1  1  0  0  0
  1  3  1  0  0  0
  3  4  1  0  0  0
  3 12  1  0  0  0
  4  5  1  0  0  0
  5  6  2  0  0  0
  5  8  1  0  0  0
  6  7  1  0  0  0
  7 10  2  0  0  0
  8  9  2  0  0  0
  9 10  1  0  0  0
 10 11  1  0  0  0
 11 23  1  0  0  0
 12 13  2  0  0  0
 12 14  1  0  0  0
 14 15  1  0  0  0
 15 26  1  0  0  0
 15 16  1  0  0  0
 26 27  1  0  0  0
 26 28  1  0  0  0
 28 29  1  0  0  0
 16 17  2  0  0  0
 16 18  1  0  0  0
 18 19  1  0  0  0
 19 20  1  0  0  0
 20 21  1  0  0  0
 21 22  1  0  0  0
 22 23  1  0  0  0
 36 39  1  0  0  0
 42 50  1  0  0  0
 31 33  1  0  0  0
  1  2  1  0  0  0
 14 24  1  0  0  0
 18 25  1  0  0  0
M  END
> <minimizedAffinity>
-10.68406

$$$$
1D4K_PI8_A_201


 57 61  0  0  0  0  0  0  0  0999 V2000
    7.5807   -3.9902   16.5431 N   0  0  0  0  0  0  0  0  0  0  0  0
    7.5454   -3.5682   17.4710 H   0  0  0  0  0  0  0  0  0  0  0  0
    7.4729   -5.4467   16.6746 C   0  0  0  0  0  0  0  0  0  0  0  0
    8.8445   -6.0384   17.0150 C   0  0  0  0  0  0  0  0  0  0  0  0
    8.7808   -7.4691   17.4782 C   0  0  0  0  0  0  0  0  0  0  0  0
    8.6905   -8.5131   16.5607 C   0  0  0  0  0  0  0  0  0  0  0  0
    8.5697   -9.8329   16.9853 C   0  0  0  0  0  0  0  0  0  0  0  0
    8.7567   -7.7773   18.8379 C   0  0  0  0  0  0  0  0  0  0  0  0
    8.6342   -9.0900   19.2734 C   0  0  0  0  0  0  0  0  0  0  0  0
    8.5401  -10.1175   18.3447 C   0  0  0  0  0  0  0  0  0  0  0  0
    8.3996  -11.4138   18.8073 O   0  0  0  0  0  0  0  0  0  0  0  0
    6.4132   -5.9861   17.6529 C   0  0  0  0  0  0  0  0  0  0  0  0
    6.3857   -5.6133   18.8263 O   0  0  0  0  0  0  0  0  0  0  0  0
    5.4935   -6.7941   17.1274 N   0  0  0  0  0  0  0  0  0  0  0  0
    4.4608   -7.4757   17.9363 C   0  0  0  0  0  0  0  0  0  0  0  0
    4.1922   -8.8266   17.2690 C   0  0  0  0  0  0  0  0  0  0  0  0
    4.1663   -8.9227   16.0361 O   0  0  0  0  0  0  0  0  0  0  0  0
    4.0359   -9.8717   18.0792 N   0  0  0  0  0  0  0  0  0  0  0  0
    3.7714  -11.2465   17.6169 C   0  0  0  0  0  0  0  0  0  0  0  0
    4.1476  -12.3001   18.6538 C   0  0  0  0  0  0  0  0  0  0  0  0
    5.6388  -12.2933   18.9611 C   0  0  0  0  0  0  0  0  0  0  0  0
    6.4682  -12.3865   17.6914 C   0  0  0  0  0  0  0  0  0  0  0  0
    7.9566  -12.4939   17.9967 C   0  0  0  0  0  0  0  0  0  0  0  0
    5.5020   -6.9443   16.1545 H   0  0  0  0  0  0  0  0  0  0  0  0
    4.1011   -9.7164   19.0492 H   0  0  0  0  0  0  0  0  0  0  0  0
    3.1262   -6.6841   17.9996 C   0  0  0  0  0  0  0  0  0  0  0  0
    3.0626   -5.8828   19.3040 C   0  0  0  0  0  0  0  0  0  0  0  0
    2.9953   -5.7288   16.8121 C   0  0  0  0  0  0  0  0  0  0  0  0
    1.9220   -6.1051   15.8467 C   0  0  0  0  0  0  0  0  0  0  0  0
    6.4916   -3.4549   15.7344 C   0  0  0  0  0  0  0  0  0  0  0  0
    7.9950   -1.5835   15.9424 O   0  0  0  0  0  0  0  0  0  0  0  0
    6.7125   -1.9884   15.4482 C   0  0  0  0  0  0  0  0  0  0  0  0
    8.1308   -0.6414   15.7556 H   0  0  0  0  0  0  0  0  0  0  0  0
    6.6664   -1.8248   13.9409 C   0  0  0  0  0  0  0  0  0  0  0  0
    6.5607   -0.4000   13.4230 C   0  0  0  0  0  0  0  0  0  0  0  0
    4.7828    0.9014   12.3872 N   0  0  0  0  0  0  0  0  0  0  0  0
    5.3754   -0.2875   12.4533 C   0  0  0  0  0  0  0  0  0  0  0  0
    5.0067   -1.2613   11.7884 O   0  0  0  0  0  0  0  0  0  0  0  0
    5.1064    1.6350   12.9584 H   0  0  0  0  0  0  0  0  0  0  0  0
    3.6504    1.1409   11.4742 C   0  0  0  0  0  0  0  0  0  0  0  0
    3.7520    2.5962   11.0843 C   0  0  0  0  0  0  0  0  0  0  0  0
    4.2852    3.3547   12.1746 O   0  0  0  0  0  0  0  0  0  0  0  0
    2.3629    3.0374   10.8128 C   0  0  0  0  0  0  0  0  0  0  0  0
    2.2707    1.0208   12.0395 C   0  0  0  0  0  0  0  0  0  0  0  0
    1.5212    2.1176   11.6529 C   0  0  0  0  0  0  0  0  0  0  0  0
    1.7117    0.0269   12.8275 C   0  0  0  0  0  0  0  0  0  0  0  0
    0.1995    2.2379   12.0480 C   0  0  0  0  0  0  0  0  0  0  0  0
    0.3847    0.1320   13.2337 C   0  0  0  0  0  0  0  0  0  0  0  0
   -0.3760    1.2447   12.8423 C   0  0  0  0  0  0  0  0  0  0  0  0
    3.7186    3.2429   12.9539 H   0  0  0  0  0  0  0  0  0  0  0  0
    7.8579   -0.0493   12.6994 C   0  0  0  0  0  0  0  0  0  0  0  0
    7.8145    1.2667   11.9914 C   0  0  0  0  0  0  0  0  0  0  0  0
    7.8408    1.3226   10.6029 C   0  0  0  0  0  0  0  0  0  0  0  0
    7.7270    2.4518   12.7121 C   0  0  0  0  0  0  0  0  0  0  0  0
    7.7783    2.5417    9.9433 C   0  0  0  0  0  0  0  0  0  0  0  0
    7.6640    3.6752   12.0630 C   0  0  0  0  0  0  0  0  0  0  0  0
    7.6886    3.7227   10.6764 C   0  0  0  0  0  0  0  0  0  0  0  0
 36 40  1  0  0  0
 36 37  1  0  0  0
 40 41  1  0  0  0
 40 44  1  0  0  0
 41 42  1  0  0  0
 41 43  1  0  0  0
 43 45  1  0  0  0
 44 45  2  0  0  0
 44 46  1  0  0  0
 45 47  1  0  0  0
 46 48  2  0  0  0
 47 49  2  0  0  0
 48 49  1  0  0  0
 35 51  1  0  0  0
 35 37  1  0  0  0
 35 34  1  0  0  0
 51 52  1  0  0  0
 52 53  2  0  0  0
 52 54  1  0  0  0
 53 55  1  0  0  0
 54 56  2  0  0  0
 55 57  2  0  0  0
 56 57  1  0  0  0
 37 38  2  0  0  0
 34 32  1  0  0  0
 31 32  1  0  0  0
 32 30  1  0  0  0
 30  1  1  0  0  0
  1  3  1  0  0  0
  3  4  1  0  0  0
  3 12  1  0  0  0
  4  5  1  0  0  0
  5  6  2  0  0  0
  5  8  1  0  0  0
  6  7  1  0  0  0
  7 10  2  0  0  0
  8  9  2  0  0  0
  9 10  1  0  0  0
 10 11  1  0  0  0
 11 23  1  0  0  0
 12 13  2  0  0  0
 12 14  1  0  0  0
 14 15  1  0  0  0
 15 26  1  0  0  0
 15 16  1  0  0  0
 26 27  1  0  0  0
 26 28  1  0  0  0
 28 29  1  0  0  0
 16 17  2  0  0  0
 16 18  1  0  0  0
 18 19  1  0  0  0
 19 20  1  0  0  0
 20 21  1  0  0  0
 21 22  1  0  0  0
 22 23  1  0  0  0
 36 39  1  0  0  0
 42 50  1  0  0  0
 31 33  1  0  0  0
  1  2  1  0  0  0
 14 24  1  0  0  0
 18 25  1  0  0  0
M  END
> <minimizedAffinity>
-10.42179

$$$$
1D4K_PI8_A_201


 57 61  0  0  0  0  0  0  0  0999 V2000
    4.1817   -9.4468   18.3969 N   0  0  0  0  0  0  0  0  0  0  0  0
    4.8316  -10.1499   18.0454 H   0  0  0  0  0  0  0  0  0  0  0  0
    4.3311   -8.2194   17.6084 C   0  0  0  0  0  0  0  0  0  0  0  0
    2.9622   -7.5594   17.4143 C   0  0  0  0  0  0  0  0  0  0  0  0
    3.0462   -6.1478   16.8986 C   0  0  0  0  0  0  0  0  0  0  0  0
    3.2287   -5.8934   15.5415 C   0  0  0  0  0  0  0  0  0  0  0  0
    3.3683   -4.5922   15.0679 C   0  0  0  0  0  0  0  0  0  0  0  0
    2.9969   -5.0649   17.7755 C   0  0  0  0  0  0  0  0  0  0  0  0
    3.1372   -3.7625   17.3150 C   0  0  0  0  0  0  0  0  0  0  0  0
    3.3236   -3.5279   15.9596 C   0  0  0  0  0  0  0  0  0  0  0  0
    3.4797   -2.2215   15.5317 O   0  0  0  0  0  0  0  0  0  0  0  0
    5.3463   -7.1789   18.1159 C   0  0  0  0  0  0  0  0  0  0  0  0
    5.2884   -6.7463   19.2675 O   0  0  0  0  0  0  0  0  0  0  0  0
    6.3238   -6.8584   17.2695 N   0  0  0  0  0  0  0  0  0  0  0  0
    7.3274   -5.8110   17.5547 C   0  0  0  0  0  0  0  0  0  0  0  0
    7.6829   -5.1587   16.2166 C   0  0  0  0  0  0  0  0  0  0  0  0
    7.7881   -5.8449   15.1929 O   0  0  0  0  0  0  0  0  0  0  0  0
    7.8246   -3.8346   16.2172 N   0  0  0  0  0  0  0  0  0  0  0  0
    8.1641   -3.0368   15.0248 C   0  0  0  0  0  0  0  0  0  0  0  0
    7.7610   -1.5720   15.1607 C   0  0  0  0  0  0  0  0  0  0  0  0
    6.2543   -1.4042   15.3018 C   0  0  0  0  0  0  0  0  0  0  0  0
    5.5085   -2.1251   14.1914 C   0  0  0  0  0  0  0  0  0  0  0  0
    4.0087   -1.8686   14.2606 C   0  0  0  0  0  0  0  0  0  0  0  0
    6.3805   -7.3418   16.4138 H   0  0  0  0  0  0  0  0  0  0  0  0
    7.6943   -3.3579   17.0686 H   0  0  0  0  0  0  0  0  0  0  0  0
    8.6276   -6.3790   18.1860 C   0  0  0  0  0  0  0  0  0  0  0  0
    8.8788   -7.7970   17.6628 C   0  0  0  0  0  0  0  0  0  0  0  0
    9.8323   -5.4966   17.8543 C   0  0  0  0  0  0  0  0  0  0  0  0
   10.9209   -6.2070   17.1222 C   0  0  0  0  0  0  0  0  0  0  0  0
    2.8222   -9.9665   18.3053 C   0  0  0  0  0  0  0  0  0  0  0  0
    1.6466  -12.0496   18.0153 O   0  0  0  0  0  0  0  0  0  0  0  0
    2.8127  -11.3146   17.6243 C   0  0  0  0  0  0  0  0  0  0  0  0
    1.6463  -12.9139   17.5749 H   0  0  0  0  0  0  0  0  0  0  0  0
    2.7782  -11.0505   16.1310 C   0  0  0  0  0  0  0  0  0  0  0  0
    3.7494  -11.8562   15.2840 C   0  0  0  0  0  0  0  0  0  0  0  0
    2.7373  -11.7212   13.0738 N   0  0  0  0  0  0  0  0  0  0  0  0
    2.9989  -12.5081   14.1137 C   0  0  0  0  0  0  0  0  0  0  0  0
    2.6613  -13.6956   14.1609 O   0  0  0  0  0  0  0  0  0  0  0  0
    3.0110  -10.7759   13.1023 H   0  0  0  0  0  0  0  0  0  0  0  0
    2.0451  -12.2383   11.8794 C   0  0  0  0  0  0  0  0  0  0  0  0
    2.6495  -11.4933   10.7132 C   0  0  0  0  0  0  0  0  0  0  0  0
    3.0098  -10.1686   11.1176 O   0  0  0  0  0  0  0  0  0  0  0  0
    1.5821  -11.4197    9.6868 C   0  0  0  0  0  0  0  0  0  0  0  0
    0.5803  -11.9612   11.7564 C   0  0  0  0  0  0  0  0  0  0  0  0
    0.3094  -11.4908   10.4838 C   0  0  0  0  0  0  0  0  0  0  0  0
   -0.4384  -12.1128   12.6841 C   0  0  0  0  0  0  0  0  0  0  0  0
   -0.9857  -11.1648   10.1180 C   0  0  0  0  0  0  0  0  0  0  0  0
   -1.7458  -11.7897   12.3331 C   0  0  0  0  0  0  0  0  0  0  0  0
   -2.0213  -11.3119   11.0425 C   0  0  0  0  0  0  0  0  0  0  0  0
    2.2250   -9.7086   11.4542 H   0  0  0  0  0  0  0  0  0  0  0  0
    4.3793  -12.9344   16.1614 C   0  0  0  0  0  0  0  0  0  0  0  0
    5.8558  -12.7796   16.3373 C   0  0  0  0  0  0  0  0  0  0  0  0
    6.4194  -11.5192   16.4974 C   0  0  0  0  0  0  0  0  0  0  0  0
    6.6831  -13.8960   16.3632 C   0  0  0  0  0  0  0  0  0  0  0  0
    7.7869  -11.3749   16.6829 C   0  0  0  0  0  0  0  0  0  0  0  0
    8.0507  -13.7630   16.5479 C   0  0  0  0  0  0  0  0  0  0  0  0
    8.6056  -12.5014   16.7092 C   0  0  0  0  0  0  0  0  0  0  0  0
 36 40  1  0  0  0
 36 37  1  0  0  0
 40 41  1  0  0  0
 40 44  1  0  0  0
 41 42  1  0  0  0
 41 43  1  0  0  0
 43 45  1  0  0  0
 44 45  2  0  0  0
 44 46  1  0  0  0
 45 47  1  0  0  0
 46 48  2  0  0  0
 47 49  2  0  0  0
 48 49  1  0  0  0
 35 51  1  0  0  0
 35 37  1  0  0  0
 35 34  1  0  0  0
 51 52  1  0  0  0
 52 53  2  0  0  0
 52 54  1  0  0  0
 53 55  1  0  0  0
 54 56  2  0  0  0
 55 57  2  0  0  0
 56 57  1  0  0  0
 37 38  2  0  0  0
 34 32  1  0  0  0
 31 32  1  0  0  0
 32 30  1  0  0  0
 30  1  1  0  0  0
  1  3  1  0  0  0
  3  4  1  0  0  0
  3 12  1  0  0  0
  4  5  1  0  0  0
  5  6  2  0  0  0
  5  8  1  0  0  0
  6  7  1  0  0  0
  7 10  2  0  0  0
  8  9  2  0  0  0
  9 10  1  0  0  0
 10 11  1  0  0  0
 11 23  1  0  0  0
 12 13  2  0  0  0
 12 14  1  0  0  0
 14 15  1  0  0  0
 15 26  1  0  0  0
 15 16  1  0  0  0
 26 27  1  0  0  0
 26 28  1  0  0  0
 28 29  1  0  0  0
 16 17  2  0  0  0
 16 18  1  0  0  0
 18 19  1  0  0  0
 19 20  1  0  0  0
 20 21  1  0  0  0
 21 22  1  0  0  0
 22 23  1  0  0  0
 36 39  1  0  0  0
 42 50  1  0  0  0
 31 33  1  0  0  0
  1  2  1  0  0  0
 14 24  1  0  0  0
 18 25  1  0  0  0
M  END
> <minimizedAffinity>
-10.36788

$$$$
