1D4K_PI8_A_201
  RCSB PDB12061702143D
Coordinates from PDB:1D4K:A:201 Model:1 without hydrogens
 51 55  0  0  0  0            999 V2000
    4.6010    2.0260   12.0620   N 0  0  0  0  0  0  0  0  0  0  0  0
    3.5320    1.9460   11.0500   C 0  0  0  0  0  0  0  0  0  0  0  0
    3.4530    3.3260   10.4420   C 0  0  0  0  0  0  0  0  0  0  0  0
    3.7690    4.3110   11.4310   O 0  0  0  0  0  0  0  0  0  0  0  0
    2.0440    3.4960   10.0130   C 0  0  0  0  0  0  0  0  0  0  0  0
    2.1400    1.6920   11.5350   C 0  0  0  0  0  0  0  0  0  0  0  0
    1.2750    2.5870   10.9310   C 0  0  0  0  0  0  0  0  0  0  0  0
    1.6650    0.7480   12.4320   C 0  0  0  0  0  0  0  0  0  0  0  0
   -0.0800    2.5520   11.2140   C 0  0  0  0  0  0  0  0  0  0  0  0
    0.3060    0.6990   12.7280   C 0  0  0  0  0  0  0  0  0  0  0  0
   -0.5720    1.6070   12.1160   C 0  0  0  0  0  0  0  0  0  0  0  0
    6.3910    1.1670   13.4710   C 0  0  0  0  0  0  0  0  0  0  0  0
    7.7430    1.2920   12.7740   C 0  0  0  0  0  0  0  0  0  0  0  0
    7.7380    2.2400   11.6180   C 0  0  0  0  0  0  0  0  0  0  0  0
    7.7230    1.7620   10.3130   C 0  0  0  0  0  0  0  0  0  0  0  0
    7.7280    3.6130   11.8330   C 0  0  0  0  0  0  0  0  0  0  0  0
    7.6960    2.6400    9.2390   C 0  0  0  0  0  0  0  0  0  0  0  0
    7.7010    4.4990   10.7670   C 0  0  0  0  0  0  0  0  0  0  0  0
    7.6840    4.0140    9.4670   C 0  0  0  0  0  0  0  0  0  0  0  0
    5.2850    0.9460   12.4290   C 0  0  0  0  0  0  0  0  0  0  0  0
    5.0570   -0.1810   11.9770   O 0  0  0  0  0  0  0  0  0  0  0  0
    6.4450   -0.0180   14.4210   C 0  0  0  0  0  0  0  0  0  0  0  0
    5.2810    0.3390   16.5060   O 0  0  0  0  0  0  0  0  0  0  0  0
    5.1870   -0.2920   15.2230   C 0  0  0  0  0  0  0  0  0  0  0  0
    5.0960   -1.7900   15.3930   C 0  0  0  0  0  0  0  0  0  0  0  0
    3.9150   -2.1480   16.1700   N 0  0  0  0  0  0  0  0  0  0  0  0
    4.0580   -3.4820   16.7620   C 0  0  0  0  0  0  0  0  0  0  0  0
    2.7160   -4.2190   16.7070   C 0  0  0  0  0  0  0  0  0  0  0  0
    2.8300   -5.6920   16.9950   C 0  0  0  0  0  0  0  0  0  0  0  0
    2.8980   -6.1600   18.3050   C 0  0  0  0  0  0  0  0  0  0  0  0
    3.0650   -7.5150   18.5750   C 0  0  0  0  0  0  0  0  0  0  0  0
    2.9240   -6.6160   15.9550   C 0  0  0  0  0  0  0  0  0  0  0  0
    3.0930   -7.9700   16.2120   C 0  0  0  0  0  0  0  0  0  0  0  0
    3.1640   -8.4180   17.5240   C 0  0  0  0  0  0  0  0  0  0  0  0
    3.3520   -9.7700   17.7500   O 0  0  0  0  0  0  0  0  0  0  0  0
    5.1730   -4.3830   16.2000   C 0  0  0  0  0  0  0  0  0  0  0  0
    5.2480   -4.6210   14.9940   O 0  0  0  0  0  0  0  0  0  0  0  0
    6.0830   -4.8000   17.0790   N 0  0  0  0  0  0  0  0  0  0  0  0
    7.1660   -5.7450   16.7330   C 0  0  0  0  0  0  0  0  0  0  0  0
    8.4860   -5.0290   16.3370   C 0  0  0  0  0  0  0  0  0  0  0  0
    9.1810   -5.8100   15.2170   C 0  0  0  0  0  0  0  0  0  0  0  0
    8.2170   -3.5990   15.8650   C 0  0  0  0  0  0  0  0  0  0  0  0
    9.3940   -2.9390   15.2290   C 0  0  0  0  0  0  0  0  0  0  0  0
    7.4300   -6.5950   17.9780   C 0  0  0  0  0  0  0  0  0  0  0  0
    7.4000   -6.0840   19.1040   O 0  0  0  0  0  0  0  0  0  0  0  0
    7.6450   -7.8940   17.7790   N 0  0  0  0  0  0  0  0  0  0  0  0
    7.9150   -8.8640   18.8560   C 0  0  0  0  0  0  0  0  0  0  0  0
    7.6090  -10.3010   18.4460   C 0  0  0  0  0  0  0  0  0  0  0  0
    6.1340  -10.5030   18.1270   C 0  0  0  0  0  0  0  0  0  0  0  0
    5.2480  -10.0060   19.2570   C 0  0  0  0  0  0  0  0  0  0  0  0
    3.7780  -10.3070   18.9950   C 0  0  0  0  0  0  0  0  0  0  0  0
  1  2  1  0  0  0  0
  1 20  1  0  0  0  0
  2  3  1  0  0  0  0
  2  6  1  0  0  0  0
  3  4  1  0  0  0  0
  3  5  1  0  0  0  0
  5  7  1  0  0  0  0
  6  7  2  0  0  0  0
  6  8  1  0  0  0  0
  7  9  1  0  0  0  0
  8 10  2  0  0  0  0
  9 11  2  0  0  0  0
 10 11  1  0  0  0  0
 12 13  1  0  0  0  0
 12 20  1  0  0  0  0
 12 22  1  0  0  0  0
 13 14  1  0  0  0  0
 14 15  2  0  0  0  0
 14 16  1  0  0  0  0
 15 17  1  0  0  0  0
 16 18  2  0  0  0  0
 17 19  2  0  0  0  0
 18 19  1  0  0  0  0
 20 21  2  0  0  0  0
 22 24  1  0  0  0  0
 23 24  1  0  0  0  0
 24 25  1  0  0  0  0
 25 26  1  0  0  0  0
 26 27  1  0  0  0  0
 27 28  1  0  0  0  0
 27 36  1  0  0  0  0
 28 29  1  0  0  0  0
 29 30  2  0  0  0  0
 29 32  1  0  0  0  0
 30 31  1  0  0  0  0
 31 34  2  0  0  0  0
 32 33  2  0  0  0  0
 33 34  1  0  0  0  0
 34 35  1  0  0  0  0
 35 51  1  0  0  0  0
 36 37  2  0  0  0  0
 36 38  1  0  0  0  0
 38 39  1  0  0  0  0
 39 40  1  0  0  0  0
 39 44  1  0  0  0  0
 40 41  1  0  0  0  0
 40 42  1  0  0  0  0
 42 43  1  0  0  0  0
 44 45  2  0  0  0  0
 44 46  1  0  0  0  0
 46 47  1  0  0  0  0
 47 48  1  0  0  0  0
 48 49  1  0  0  0  0
 49 50  1  0  0  0  0
 50 51  1  0  0  0  0
A    1
N1
A    2
C2
A    3
C1
A    4
O1
A    5
C9
A    6
C3
A    7
C8
A    8
C4
A    9
C7
A   10
C5
A   11
C6
A   12
C11
A   13
C12
A   14
C13
A   15
C18
A   16
C14
A   17
C17
A   18
C15
A   19
C16
A   20
C10
A   21
O2
A   22
C19
A   23
O3
A   24
C20
A   25
C21
A   26
N2
A   27
C22
A   28
C23
A   29
C24
A   30
C25
A   31
C26
A   32
C29
A   33
C28
A   34
C27
A   35
O6
A   36
C30
A   37
O4
A   38
N3
A   39
C31
A   40
C32
A   41
C33
A   42
C34
A   43
C35
A   44
C36
A   45
O5
A   46
N4
A   47
C37
A   48
C38
A   49
C39
A   50
C40
A   51
C41
M  END
>  <InstanceId>
1D4K_PI8_A_201

>  <ChemCompId>
PI8

>  <PdbId>
1D4K

>  <ChainId>
A

>  <ResidueNumber>
201

>  <InsertionCode>


>  <Model>
1

>  <AltIds>


>  <MissingHeavyAtoms>
0

>  <ObservedFormula>
C41 N4 O6

>  <Name>
N-13-[(10S,13S)-9,12-DIOXO-10-(2-BUTYL)-2-OXA-8,11-DIAZABICYCLO [13.2.2] NONADECA-15,17,18-TRIENE] (2R)-BENZYL-(4S)-HYDROXY-5-AMINOPENTANOIC (1R)-HYDROXY-(2S)-INDANEAMIDE

>  <SystematicName>
(2R,4S)-5-[[(3S,6S)-6-[(2S)-butan-2-yl]-4,7-dioxo-14-oxa-5,8-diazabicyclo[13.2.2]nonadeca-1(18),15(19),16-trien-3-yl]amino]-4-hydroxy-N-[(1S,2R)-2-hydroxy-2,3-dihydro-1H-inden-1-yl]-2-(phenylmethyl)pentanamide

>  <Synonyms>
MACROCYCLIC PEPTIDOMIMETIC INHIBITOR 8

>  <Type>
NON-POLYMER

>  <Formula>
C41 H54 N4 O6

>  <MolecularWeight>
698.891

>  <ModifiedDate>
2011-06-04

>  <Parent>


>  <OneLetterCode>


>  <SubcomponentList>


>  <AmbiguousFlag>
N

>  <InChI>
InChI=1S/C41H54N4O6/c1-3-27(2)37-41(50)42-20-10-5-11-21-51-33-18-16-29(17-19-33)23-35(40(49)44-37)43-26-32(46)24-31(22-28-12-6-4-7-13-28)39(48)45-38-34-15-9-8-14-30(34)25-36(38)47/h4,6-9,12-19,27,31-32,35-38,43,46-47H,3,5,10-11,20-26H2,1-2H3,(H,42,50)(H,44,49)(H,45,48)/t27-,31+,32-,35-,36+,37-,38-/m0/s1

>  <InChIKey>
ZXUOAWXMXWTRGE-ZKQACQBYSA-N

>  <SMILES>
CC[C@H](C)[C@H]1C(=O)NCCCCCOc2ccc(cc2)C[C@@H](C(=O)N1)NC[C@H](C[C@@H](Cc3ccccc3)C(=O)N[C@H]4c5ccccc5C[C@H]4O)O

$$$$
