5FBI_5WD_A_302


 27 29  0  0  0  0  0  0  0  0999 V2000
    4.5309    9.3118    1.4189 C   0  0  0  0  0  0  0  0  0  0  0  0
    3.1779    9.0626    1.7956 C   0  0  0  0  0  0  0  0  0  0  0  0
    2.6469    7.7448    1.8541 C   0  0  0  0  0  0  0  0  0  0  0  0
    5.3566    8.2152    1.1025 C   0  0  0  0  0  0  0  0  0  0  0  0
    4.8225    6.9312    1.1672 C   0  0  0  0  0  0  0  0  0  0  0  0
    3.5103    6.6750    1.5279 C   0  0  0  0  0  0  0  0  0  0  0  0
    3.3048    5.3279    1.4920 N   0  0  0  0  0  0  0  0  0  0  0  0
    4.4120    4.6926    1.1425 C   0  0  0  0  0  0  0  0  0  0  0  0
    5.3968    5.5717    0.9311 C   0  0  0  0  0  0  0  0  0  0  0  0
    2.4489    4.8873    1.6982 H   0  0  0  0  0  0  0  0  0  0  0  0
    4.6532    3.2443    0.9898 C   0  0  0  0  0  0  0  0  0  0  0  0
    5.0325    2.6918   -0.1816 N   0  0  0  0  0  0  0  0  0  0  0  0
    4.5166    2.5517    1.9793 O   0  0  0  0  0  0  0  0  0  0  0  0
    5.1417    3.2573   -0.9801 H   0  0  0  0  0  0  0  0  0  0  0  0
    5.1999    1.7233   -0.2376 H   0  0  0  0  0  0  0  0  0  0  0  0
    5.1331   10.5956    1.3409 O   0  0  0  0  0  0  0  0  0  0  0  0
    6.2416   10.8402    0.4425 C   0  0  0  0  0  0  0  0  0  0  0  0
    7.6026   10.9074    1.1450 C   0  0  0  0  0  0  0  0  0  0  0  0
    8.7851   10.7004    0.4107 C   0  0  0  0  0  0  0  0  0  0  0  0
   10.0277   10.7285    1.0664 C   0  0  0  0  0  0  0  0  0  0  0  0
   10.0977   10.9023    2.4607 C   0  0  0  0  0  0  0  0  0  0  0  0
    8.9190   11.0592    3.2117 C   0  0  0  0  0  0  0  0  0  0  0  0
    7.6745   11.0379    2.5468 C   0  0  0  0  0  0  0  0  0  0  0  0
    8.9947   11.2394    4.7134 C   0  0  0  0  0  0  0  0  0  0  0  0
    8.6529   10.2260    5.5150 O   0  0  0  0  0  0  0  0  0  0  0  0
    9.3693   12.3042    5.1778 O   0  0  0  0  0  0  0  0  0  0  0  0
    8.3668    9.4133    5.1467 H   0  0  0  0  0  0  0  0  0  0  0  0
 20 19  2  0  0  0
 20 21  1  0  0  0
 19 18  1  0  0  0
 21 22  2  0  0  0
 12 11  1  0  0  0
  9  8  2  0  0  0
  9  5  1  0  0  0
 11  8  1  0  0  0
 11 13  2  0  0  0
  4  5  2  0  0  0
  4  1  1  0  0  0
 18 17  1  0  0  0
 18 23  2  0  0  0
  8  7  1  0  0  0
  5  6  1  0  0  0
 16  1  1  0  0  0
 16 17  1  0  0  0
  1  2  2  0  0  0
  7  6  1  0  0  0
  6  3  2  0  0  0
 22 23  1  0  0  0
 22 24  1  0  0  0
  2  3  1  0  0  0
 26 24  2  0  0  0
 24 25  1  0  0  0
  7 10  1  0  0  0
 12 14  1  0  0  0
 12 15  1  0  0  0
 25 27  1  0  0  0
M  END
> <minimizedAffinity>
-8.24856

$$$$
5FBI_5WD_A_302


 27 29  0  0  0  0  0  0  0  0999 V2000
    3.3585    8.8401    1.7272 C   0  0  0  0  0  0  0  0  0  0  0  0
    4.6956    9.0619    1.2827 C   0  0  0  0  0  0  0  0  0  0  0  0
    5.5289    7.9935    0.8515 C   0  0  0  0  0  0  0  0  0  0  0  0
    2.8578    7.5235    1.7308 C   0  0  0  0  0  0  0  0  0  0  0  0
    3.6853    6.4888    1.3032 C   0  0  0  0  0  0  0  0  0  0  0  0
    4.9860    6.6892    0.8725 C   0  0  0  0  0  0  0  0  0  0  0  0
    5.5200    5.4835    0.5268 N   0  0  0  0  0  0  0  0  0  0  0  0
    4.6363    4.5126    0.6944 C   0  0  0  0  0  0  0  0  0  0  0  0
    3.4857    5.0151    1.1536 C   0  0  0  0  0  0  0  0  0  0  0  0
    6.4384    5.3527    0.1971 H   0  0  0  0  0  0  0  0  0  0  0  0
    4.7735    3.0656    0.4367 C   0  0  0  0  0  0  0  0  0  0  0  0
    5.1185    2.5736   -0.7716 N   0  0  0  0  0  0  0  0  0  0  0  0
    4.5819    2.3146    1.3732 O   0  0  0  0  0  0  0  0  0  0  0  0
    5.2726    3.1862   -1.5268 H   0  0  0  0  0  0  0  0  0  0  0  0
    5.2162    1.6022   -0.8980 H   0  0  0  0  0  0  0  0  0  0  0  0
    2.4665    9.8534    2.1682 O   0  0  0  0  0  0  0  0  0  0  0  0
    1.0376    9.7139    1.9829 C   0  0  0  0  0  0  0  0  0  0  0  0
    0.2688    9.4514    3.2831 C   0  0  0  0  0  0  0  0  0  0  0  0
   -0.5365    8.3038    3.4057 C   0  0  0  0  0  0  0  0  0  0  0  0
   -1.2662    8.0863    4.5867 C   0  0  0  0  0  0  0  0  0  0  0  0
   -1.2467    9.0350    5.6254 C   0  0  0  0  0  0  0  0  0  0  0  0
   -0.4855   10.2101    5.4928 C   0  0  0  0  0  0  0  0  0  0  0  0
    0.2515   10.4194    4.3077 C   0  0  0  0  0  0  0  0  0  0  0  0
   -0.4703   11.2340    6.6085 C   0  0  0  0  0  0  0  0  0  0  0  0
   -1.2336   11.0406    7.6884 O   0  0  0  0  0  0  0  0  0  0  0  0
    0.2393   12.2226    6.5139 O   0  0  0  0  0  0  0  0  0  0  0  0
   -1.7742   10.2777    7.7495 H   0  0  0  0  0  0  0  0  0  0  0  0
 20 19  2  0  0  0
 20 21  1  0  0  0
 19 18  1  0  0  0
 21 22  2  0  0  0
 12 11  1  0  0  0
  9  8  2  0  0  0
  9  5  1  0  0  0
 11  8  1  0  0  0
 11 13  2  0  0  0
  4  5  2  0  0  0
  4  1  1  0  0  0
 18 17  1  0  0  0
 18 23  2  0  0  0
  8  7  1  0  0  0
  5  6  1  0  0  0
 16  1  1  0  0  0
 16 17  1  0  0  0
  1  2  2  0  0  0
  7  6  1  0  0  0
  6  3  2  0  0  0
 22 23  1  0  0  0
 22 24  1  0  0  0
  2  3  1  0  0  0
 26 24  2  0  0  0
 24 25  1  0  0  0
  7 10  1  0  0  0
 12 14  1  0  0  0
 12 15  1  0  0  0
 25 27  1  0  0  0
M  END
> <minimizedAffinity>
-7.94355

$$$$
5FBI_5WD_A_302


 27 29  0  0  0  0  0  0  0  0999 V2000
    4.0521    9.6847    1.1875 C   0  0  0  0  0  0  0  0  0  0  0  0
    2.8058    9.4161    1.8271 C   0  0  0  0  0  0  0  0  0  0  0  0
    2.3651    8.0884    2.0819 C   0  0  0  0  0  0  0  0  0  0  0  0
    4.8632    8.5981    0.8058 C   0  0  0  0  0  0  0  0  0  0  0  0
    4.4188    7.3044    1.0646 C   0  0  0  0  0  0  0  0  0  0  0  0
    3.2100    7.0290    1.6815 C   0  0  0  0  0  0  0  0  0  0  0  0
    3.0732    5.6767    1.7854 N   0  0  0  0  0  0  0  0  0  0  0  0
    4.1302    5.0574    1.2843 C   0  0  0  0  0  0  0  0  0  0  0  0
    5.0117    5.9529    0.8281 C   0  0  0  0  0  0  0  0  0  0  0  0
    2.2939    5.2223    2.1796 H   0  0  0  0  0  0  0  0  0  0  0  0
    4.4159    3.6118    1.1981 C   0  0  0  0  0  0  0  0  0  0  0  0
    5.1066    2.9509    2.1507 N   0  0  0  0  0  0  0  0  0  0  0  0
    3.9822    3.0172    0.2306 O   0  0  0  0  0  0  0  0  0  0  0  0
    5.4557    3.4372    2.9323 H   0  0  0  0  0  0  0  0  0  0  0  0
    5.2614    1.9825    2.0641 H   0  0  0  0  0  0  0  0  0  0  0  0
    4.5610   10.9797    0.9029 O   0  0  0  0  0  0  0  0  0  0  0  0
    5.0967   11.8132    1.9583 C   0  0  0  0  0  0  0  0  0  0  0  0
    6.6273   11.9031    1.9575 C   0  0  0  0  0  0  0  0  0  0  0  0
    7.2787   12.8305    2.7917 C   0  0  0  0  0  0  0  0  0  0  0  0
    8.6799   12.9327    2.7611 C   0  0  0  0  0  0  0  0  0  0  0  0
    9.4347   12.1585    1.8611 C   0  0  0  0  0  0  0  0  0  0  0  0
    8.7901   11.2651    0.9869 C   0  0  0  0  0  0  0  0  0  0  0  0
    7.3834   11.1611    1.0275 C   0  0  0  0  0  0  0  0  0  0  0  0
    9.6028   10.4371    0.0136 C   0  0  0  0  0  0  0  0  0  0  0  0
    9.3657   10.5435   -1.2974 O   0  0  0  0  0  0  0  0  0  0  0  0
   10.4671    9.6841    0.4330 O   0  0  0  0  0  0  0  0  0  0  0  0
    8.6995   11.1250   -1.6074 H   0  0  0  0  0  0  0  0  0  0  0  0
 20 19  2  0  0  0
 20 21  1  0  0  0
 19 18  1  0  0  0
 21 22  2  0  0  0
 12 11  1  0  0  0
  9  8  2  0  0  0
  9  5  1  0  0  0
 11  8  1  0  0  0
 11 13  2  0  0  0
  4  5  2  0  0  0
  4  1  1  0  0  0
 18 17  1  0  0  0
 18 23  2  0  0  0
  8  7  1  0  0  0
  5  6  1  0  0  0
 16  1  1  0  0  0
 16 17  1  0  0  0
  1  2  2  0  0  0
  7  6  1  0  0  0
  6  3  2  0  0  0
 22 23  1  0  0  0
 22 24  1  0  0  0
  2  3  1  0  0  0
 26 24  2  0  0  0
 24 25  1  0  0  0
  7 10  1  0  0  0
 12 14  1  0  0  0
 12 15  1  0  0  0
 25 27  1  0  0  0
M  END
> <minimizedAffinity>
-7.78815

$$$$
5FBI_5WD_A_302


 27 29  0  0  0  0  0  0  0  0999 V2000
    7.7190    9.2070    2.1426 C   0  0  0  0  0  0  0  0  0  0  0  0
    8.6953    9.3511    3.1724 C   0  0  0  0  0  0  0  0  0  0  0  0
    9.6578   10.3976    3.1514 C   0  0  0  0  0  0  0  0  0  0  0  0
    7.7136   10.1348    1.0826 C   0  0  0  0  0  0  0  0  0  0  0  0
    8.6607   11.1551    1.0780 C   0  0  0  0  0  0  0  0  0  0  0  0
    9.6162   11.3049    2.0690 C   0  0  0  0  0  0  0  0  0  0  0  0
   10.3848   12.3906    1.7712 N   0  0  0  0  0  0  0  0  0  0  0  0
    9.9749   12.9637    0.6508 C   0  0  0  0  0  0  0  0  0  0  0  0
    8.9276   12.2984    0.1530 C   0  0  0  0  0  0  0  0  0  0  0  0
   11.1422   12.7057    2.3156 H   0  0  0  0  0  0  0  0  0  0  0  0
   10.4986   14.1611   -0.0355 C   0  0  0  0  0  0  0  0  0  0  0  0
   10.5804   14.2489   -1.3797 N   0  0  0  0  0  0  0  0  0  0  0  0
   10.8424   15.0949    0.6626 O   0  0  0  0  0  0  0  0  0  0  0  0
   10.3006   13.4896   -1.9406 H   0  0  0  0  0  0  0  0  0  0  0  0
   10.9199   15.0721   -1.7995 H   0  0  0  0  0  0  0  0  0  0  0  0
    6.7258    8.1929    2.0958 O   0  0  0  0  0  0  0  0  0  0  0  0
    5.7283    8.1813    1.0467 C   0  0  0  0  0  0  0  0  0  0  0  0
    4.7605    6.9950    1.1278 C   0  0  0  0  0  0  0  0  0  0  0  0
    3.4947    7.1580    1.7206 C   0  0  0  0  0  0  0  0  0  0  0  0
    2.6255    6.0586    1.8235 C   0  0  0  0  0  0  0  0  0  0  0  0
    3.0317    4.7821    1.3935 C   0  0  0  0  0  0  0  0  0  0  0  0
    4.3139    4.5974    0.8461 C   0  0  0  0  0  0  0  0  0  0  0  0
    5.1795    5.7067    0.7381 C   0  0  0  0  0  0  0  0  0  0  0  0
    4.7529    3.2218    0.3897 C   0  0  0  0  0  0  0  0  0  0  0  0
    5.1622    3.0471   -0.8705 O   0  0  0  0  0  0  0  0  0  0  0  0
    4.7324    2.2876    1.1750 O   0  0  0  0  0  0  0  0  0  0  0  0
    5.1734    3.7719   -1.4642 H   0  0  0  0  0  0  0  0  0  0  0  0
 20 19  2  0  0  0
 20 21  1  0  0  0
 19 18  1  0  0  0
 21 22  2  0  0  0
 12 11  1  0  0  0
  9  8  2  0  0  0
  9  5  1  0  0  0
 11  8  1  0  0  0
 11 13  2  0  0  0
  4  5  2  0  0  0
  4  1  1  0  0  0
 18 17  1  0  0  0
 18 23  2  0  0  0
  8  7  1  0  0  0
  5  6  1  0  0  0
 16  1  1  0  0  0
 16 17  1  0  0  0
  1  2  2  0  0  0
  7  6  1  0  0  0
  6  3  2  0  0  0
 22 23  1  0  0  0
 22 24  1  0  0  0
  2  3  1  0  0  0
 26 24  2  0  0  0
 24 25  1  0  0  0
  7 10  1  0  0  0
 12 14  1  0  0  0
 12 15  1  0  0  0
 25 27  1  0  0  0
M  END
> <minimizedAffinity>
-7.64105

$$$$
5FBI_5WD_A_302


 27 29  0  0  0  0  0  0  0  0999 V2000
    4.6231    9.7647    1.4286 C   0  0  0  0  0  0  0  0  0  0  0  0
    3.2409    9.6279    1.7529 C   0  0  0  0  0  0  0  0  0  0  0  0
    2.5980    8.3598    1.7739 C   0  0  0  0  0  0  0  0  0  0  0  0
    5.3639    8.6051    1.1269 C   0  0  0  0  0  0  0  0  0  0  0  0
    4.7206    7.3708    1.1544 C   0  0  0  0  0  0  0  0  0  0  0  0
    3.3789    7.2237    1.4640 C   0  0  0  0  0  0  0  0  0  0  0  0
    3.0612    5.8995    1.4020 N   0  0  0  0  0  0  0  0  0  0  0  0
    4.1227    5.1758    1.0838 C   0  0  0  0  0  0  0  0  0  0  0  0
    5.1857    5.9698    0.9201 C   0  0  0  0  0  0  0  0  0  0  0  0
    2.1639    5.5314    1.5711 H   0  0  0  0  0  0  0  0  0  0  0  0
    4.2454    3.7140    0.9196 C   0  0  0  0  0  0  0  0  0  0  0  0
    4.8057    2.9232    1.8587 N   0  0  0  0  0  0  0  0  0  0  0  0
    3.7974    3.2308   -0.1019 O   0  0  0  0  0  0  0  0  0  0  0  0
    5.1671    3.3196    2.6843 H   0  0  0  0  0  0  0  0  0  0  0  0
    4.8531    1.9499    1.7183 H   0  0  0  0  0  0  0  0  0  0  0  0
    5.3347   10.9932    1.3902 O   0  0  0  0  0  0  0  0  0  0  0  0
    6.7395   11.0464    1.7359 C   0  0  0  0  0  0  0  0  0  0  0  0
    7.6146   11.7071    0.6644 C   0  0  0  0  0  0  0  0  0  0  0  0
    8.5279   12.7154    1.0244 C   0  0  0  0  0  0  0  0  0  0  0  0
    9.3023   13.3419    0.0332 C   0  0  0  0  0  0  0  0  0  0  0  0
    9.1307   13.0128   -1.3238 C   0  0  0  0  0  0  0  0  0  0  0  0
    8.1845   12.0427   -1.6999 C   0  0  0  0  0  0  0  0  0  0  0  0
    7.4152   11.4113   -0.6994 C   0  0  0  0  0  0  0  0  0  0  0  0
    7.9956   11.6938   -3.1614 C   0  0  0  0  0  0  0  0  0  0  0  0
    7.2770   10.6166   -3.4923 O   0  0  0  0  0  0  0  0  0  0  0  0
    8.4968   12.3990   -4.0224 O   0  0  0  0  0  0  0  0  0  0  0  0
    6.8972   10.0829   -2.8223 H   0  0  0  0  0  0  0  0  0  0  0  0
 20 19  2  0  0  0
 20 21  1  0  0  0
 19 18  1  0  0  0
 21 22  2  0  0  0
 12 11  1  0  0  0
  9  8  2  0  0  0
  9  5  1  0  0  0
 11  8  1  0  0  0
 11 13  2  0  0  0
  4  5  2  0  0  0
  4  1  1  0  0  0
 18 17  1  0  0  0
 18 23  2  0  0  0
  8  7  1  0  0  0
  5  6  1  0  0  0
 16  1  1  0  0  0
 16 17  1  0  0  0
  1  2  2  0  0  0
  7  6  1  0  0  0
  6  3  2  0  0  0
 22 23  1  0  0  0
 22 24  1  0  0  0
  2  3  1  0  0  0
 26 24  2  0  0  0
 24 25  1  0  0  0
  7 10  1  0  0  0
 12 14  1  0  0  0
 12 15  1  0  0  0
 25 27  1  0  0  0
M  END
> <minimizedAffinity>
-7.50190

$$$$
5FBI_5WD_A_302


 27 29  0  0  0  0  0  0  0  0999 V2000
    3.2254    8.5899    1.8775 C   0  0  0  0  0  0  0  0  0  0  0  0
    4.5048    8.8875    1.3215 C   0  0  0  0  0  0  0  0  0  0  0  0
    5.3530    7.8694    0.8059 C   0  0  0  0  0  0  0  0  0  0  0  0
    2.7978    7.2481    1.9076 C   0  0  0  0  0  0  0  0  0  0  0  0
    3.6387    6.2633    1.3964 C   0  0  0  0  0  0  0  0  0  0  0  0
    4.8843    6.5374    0.8571 C   0  0  0  0  0  0  0  0  0  0  0  0
    5.4495    5.3653    0.4508 N   0  0  0  0  0  0  0  0  0  0  0  0
    4.6368    4.3466    0.6820 C   0  0  0  0  0  0  0  0  0  0  0  0
    3.5056    4.7822    1.2458 C   0  0  0  0  0  0  0  0  0  0  0  0
    6.3412    5.2872    0.0410 H   0  0  0  0  0  0  0  0  0  0  0  0
    4.8279    2.9113    0.3948 C   0  0  0  0  0  0  0  0  0  0  0  0
    5.2504    2.4619   -0.8055 N   0  0  0  0  0  0  0  0  0  0  0  0
    4.6078    2.1303    1.2998 O   0  0  0  0  0  0  0  0  0  0  0  0
    5.4272    3.0987   -1.5352 H   0  0  0  0  0  0  0  0  0  0  0  0
    5.3817    1.4972   -0.9515 H   0  0  0  0  0  0  0  0  0  0  0  0
    2.3226    9.5497    2.4073 O   0  0  0  0  0  0  0  0  0  0  0  0
    0.9411    9.2031    2.6659 C   0  0  0  0  0  0  0  0  0  0  0  0
   -0.0655   10.0404    1.8682 C   0  0  0  0  0  0  0  0  0  0  0  0
   -0.7137   11.1308    2.4774 C   0  0  0  0  0  0  0  0  0  0  0  0
   -1.6612   11.8732    1.7522 C   0  0  0  0  0  0  0  0  0  0  0  0
   -2.0123   11.5004    0.4418 C   0  0  0  0  0  0  0  0  0  0  0  0
   -1.4079   10.3815   -0.1587 C   0  0  0  0  0  0  0  0  0  0  0  0
   -0.4514    9.6445    0.5715 C   0  0  0  0  0  0  0  0  0  0  0  0
   -1.7913    9.9768   -1.5668 C   0  0  0  0  0  0  0  0  0  0  0  0
   -2.2779   10.8966   -2.4055 O   0  0  0  0  0  0  0  0  0  0  0  0
   -1.6500    8.8182   -1.9239 O   0  0  0  0  0  0  0  0  0  0  0  0
   -2.3817   11.7829   -2.1198 H   0  0  0  0  0  0  0  0  0  0  0  0
 20 19  2  0  0  0
 20 21  1  0  0  0
 19 18  1  0  0  0
 21 22  2  0  0  0
 12 11  1  0  0  0
  9  8  2  0  0  0
  9  5  1  0  0  0
 11  8  1  0  0  0
 11 13  2  0  0  0
  4  5  2  0  0  0
  4  1  1  0  0  0
 18 17  1  0  0  0
 18 23  2  0  0  0
  8  7  1  0  0  0
  5  6  1  0  0  0
 16  1  1  0  0  0
 16 17  1  0  0  0
  1  2  2  0  0  0
  7  6  1  0  0  0
  6  3  2  0  0  0
 22 23  1  0  0  0
 22 24  1  0  0  0
  2  3  1  0  0  0
 26 24  2  0  0  0
 24 25  1  0  0  0
  7 10  1  0  0  0
 12 14  1  0  0  0
 12 15  1  0  0  0
 25 27  1  0  0  0
M  END
> <minimizedAffinity>
-7.16798

$$$$
5FBI_5WD_A_302


 27 29  0  0  0  0  0  0  0  0999 V2000
    2.9522    8.6299    1.7475 C   0  0  0  0  0  0  0  0  0  0  0  0
    4.2744    8.9586    1.3256 C   0  0  0  0  0  0  0  0  0  0  0  0
    5.1935    7.9622    0.8961 C   0  0  0  0  0  0  0  0  0  0  0  0
    2.5542    7.2787    1.7301 C   0  0  0  0  0  0  0  0  0  0  0  0
    3.4647    6.3155    1.3045 C   0  0  0  0  0  0  0  0  0  0  0  0
    4.7522    6.6199    0.8956 C   0  0  0  0  0  0  0  0  0  0  0  0
    5.3822    5.4628    0.5457 N   0  0  0  0  0  0  0  0  0  0  0  0
    4.5734    4.4251    0.6900 C   0  0  0  0  0  0  0  0  0  0  0  0
    3.3812    4.8326    1.1369 C   0  0  0  0  0  0  0  0  0  0  0  0
    6.3125    5.4066    0.2285 H   0  0  0  0  0  0  0  0  0  0  0  0
    4.8251    2.9959    0.4197 C   0  0  0  0  0  0  0  0  0  0  0  0
    5.2668    2.5507   -0.7753 N   0  0  0  0  0  0  0  0  0  0  0  0
    4.6378    2.2169    1.3338 O   0  0  0  0  0  0  0  0  0  0  0  0
    5.4168    3.1858   -1.5124 H   0  0  0  0  0  0  0  0  0  0  0  0
    5.4388    1.5907   -0.9100 H   0  0  0  0  0  0  0  0  0  0  0  0
    1.9786    9.5666    2.1854 O   0  0  0  0  0  0  0  0  0  0  0  0
    2.3723   10.7715    2.8845 C   0  0  0  0  0  0  0  0  0  0  0  0
    1.2233   11.4518    3.6379 C   0  0  0  0  0  0  0  0  0  0  0  0
    0.4506   12.4400    3.0002 C   0  0  0  0  0  0  0  0  0  0  0  0
   -0.5787   13.0849    3.7068 C   0  0  0  0  0  0  0  0  0  0  0  0
   -0.8058   12.7947    5.0646 C   0  0  0  0  0  0  0  0  0  0  0  0
   -0.0063   11.8455    5.7260 C   0  0  0  0  0  0  0  0  0  0  0  0
    1.0208   11.1954    5.0092 C   0  0  0  0  0  0  0  0  0  0  0  0
   -0.2469   11.5386    7.1894 C   0  0  0  0  0  0  0  0  0  0  0  0
   -1.3347   10.8486    7.5458 O   0  0  0  0  0  0  0  0  0  0  0  0
    0.5536   11.9199    8.0281 O   0  0  0  0  0  0  0  0  0  0  0  0
   -1.9421   10.5612    6.8928 H   0  0  0  0  0  0  0  0  0  0  0  0
 20 19  2  0  0  0
 20 21  1  0  0  0
 19 18  1  0  0  0
 21 22  2  0  0  0
 12 11  1  0  0  0
  9  8  2  0  0  0
  9  5  1  0  0  0
 11  8  1  0  0  0
 11 13  2  0  0  0
  4  5  2  0  0  0
  4  1  1  0  0  0
 18 17  1  0  0  0
 18 23  2  0  0  0
  8  7  1  0  0  0
  5  6  1  0  0  0
 16  1  1  0  0  0
 16 17  1  0  0  0
  1  2  2  0  0  0
  7  6  1  0  0  0
  6  3  2  0  0  0
 22 23  1  0  0  0
 22 24  1  0  0  0
  2  3  1  0  0  0
 26 24  2  0  0  0
 24 25  1  0  0  0
  7 10  1  0  0  0
 12 14  1  0  0  0
 12 15  1  0  0  0
 25 27  1  0  0  0
M  END
> <minimizedAffinity>
-7.16590

$$$$
5FBI_5WD_A_302


 27 29  0  0  0  0  0  0  0  0999 V2000
    3.5369    9.6351    1.4037 C   0  0  0  0  0  0  0  0  0  0  0  0
    4.9627    9.6694    1.4192 C   0  0  0  0  0  0  0  0  0  0  0  0
    5.7413    8.4799    1.3911 C   0  0  0  0  0  0  0  0  0  0  0  0
    2.8921    8.3836    1.3545 C   0  0  0  0  0  0  0  0  0  0  0  0
    3.6684    7.2285    1.3247 C   0  0  0  0  0  0  0  0  0  0  0  0
    5.0530    7.2469    1.3428 C   0  0  0  0  0  0  0  0  0  0  0  0
    5.5052    5.9614    1.3057 N   0  0  0  0  0  0  0  0  0  0  0  0
    4.4944    5.1089    1.2502 C   0  0  0  0  0  0  0  0  0  0  0  0
    3.3345    5.7736    1.2475 C   0  0  0  0  0  0  0  0  0  0  0  0
    6.4549    5.7024    1.3185 H   0  0  0  0  0  0  0  0  0  0  0  0
    4.5145    3.6344    1.1830 C   0  0  0  0  0  0  0  0  0  0  0  0
    5.1150    2.8737    2.1222 N   0  0  0  0  0  0  0  0  0  0  0  0
    3.9426    3.1139    0.2452 O   0  0  0  0  0  0  0  0  0  0  0  0
    5.5768    3.3003    2.8798 H   0  0  0  0  0  0  0  0  0  0  0  0
    5.0913    1.8922    2.0497 H   0  0  0  0  0  0  0  0  0  0  0  0
    2.6928   10.7770    1.4262 O   0  0  0  0  0  0  0  0  0  0  0  0
    1.3059   10.6649    1.8259 C   0  0  0  0  0  0  0  0  0  0  0  0
    1.0767   10.8771    3.3269 C   0  0  0  0  0  0  0  0  0  0  0  0
    0.4431    9.8792    4.0905 C   0  0  0  0  0  0  0  0  0  0  0  0
    0.2043   10.0936    5.4586 C   0  0  0  0  0  0  0  0  0  0  0  0
    0.5388   11.3206    6.0600 C   0  0  0  0  0  0  0  0  0  0  0  0
    1.1260   12.3440    5.2948 C   0  0  0  0  0  0  0  0  0  0  0  0
    1.3706   12.1201    3.9232 C   0  0  0  0  0  0  0  0  0  0  0  0
    1.4795   13.6671    5.9414 C   0  0  0  0  0  0  0  0  0  0  0  0
    2.4024   14.4499    5.3741 O   0  0  0  0  0  0  0  0  0  0  0  0
    0.9181   14.0079    6.9702 O   0  0  0  0  0  0  0  0  0  0  0  0
    2.8266   14.1774    4.5843 H   0  0  0  0  0  0  0  0  0  0  0  0
 20 19  2  0  0  0
 20 21  1  0  0  0
 19 18  1  0  0  0
 21 22  2  0  0  0
 12 11  1  0  0  0
  9  8  2  0  0  0
  9  5  1  0  0  0
 11  8  1  0  0  0
 11 13  2  0  0  0
  4  5  2  0  0  0
  4  1  1  0  0  0
 18 17  1  0  0  0
 18 23  2  0  0  0
  8  7  1  0  0  0
  5  6  1  0  0  0
 16  1  1  0  0  0
 16 17  1  0  0  0
  1  2  2  0  0  0
  7  6  1  0  0  0
  6  3  2  0  0  0
 22 23  1  0  0  0
 22 24  1  0  0  0
  2  3  1  0  0  0
 26 24  2  0  0  0
 24 25  1  0  0  0
  7 10  1  0  0  0
 12 14  1  0  0  0
 12 15  1  0  0  0
 25 27  1  0  0  0
M  END
> <minimizedAffinity>
-7.11103

$$$$
5FBI_5WD_A_302


 27 29  0  0  0  0  0  0  0  0999 V2000
    3.2059    8.6159    1.9150 C   0  0  0  0  0  0  0  0  0  0  0  0
    4.4916    8.9170    1.3755 C   0  0  0  0  0  0  0  0  0  0  0  0
    5.3422    7.9030    0.8557 C   0  0  0  0  0  0  0  0  0  0  0  0
    2.7745    7.2750    1.9241 C   0  0  0  0  0  0  0  0  0  0  0  0
    3.6179    6.2944    1.4091 C   0  0  0  0  0  0  0  0  0  0  0  0
    4.8695    6.5718    0.8856 C   0  0  0  0  0  0  0  0  0  0  0  0
    5.4357    5.4033    0.4704 N   0  0  0  0  0  0  0  0  0  0  0  0
    4.6181    4.3840    0.6808 C   0  0  0  0  0  0  0  0  0  0  0  0
    3.4824    4.8157    1.2386 C   0  0  0  0  0  0  0  0  0  0  0  0
    6.3312    5.3279    0.0685 H   0  0  0  0  0  0  0  0  0  0  0  0
    4.8082    2.9519    0.3775 C   0  0  0  0  0  0  0  0  0  0  0  0
    5.2123    2.5144   -0.8335 N   0  0  0  0  0  0  0  0  0  0  0  0
    4.6049    2.1621    1.2789 O   0  0  0  0  0  0  0  0  0  0  0  0
    5.3756    3.1583   -1.5602 H   0  0  0  0  0  0  0  0  0  0  0  0
    5.3438    1.5514   -0.9903 H   0  0  0  0  0  0  0  0  0  0  0  0
    2.3004    9.5715    2.4477 O   0  0  0  0  0  0  0  0  0  0  0  0
    0.8767    9.3101    2.4707 C   0  0  0  0  0  0  0  0  0  0  0  0
    0.0959   10.0460    1.3756 C   0  0  0  0  0  0  0  0  0  0  0  0
   -0.9264    9.3820    0.6725 C   0  0  0  0  0  0  0  0  0  0  0  0
   -1.6151   10.0504   -0.3540 C   0  0  0  0  0  0  0  0  0  0  0  0
   -1.2523   11.3577   -0.7263 C   0  0  0  0  0  0  0  0  0  0  0  0
   -0.1982   12.0124   -0.0644 C   0  0  0  0  0  0  0  0  0  0  0  0
    0.4846   11.3391    0.9708 C   0  0  0  0  0  0  0  0  0  0  0  0
    0.1962   13.4171   -0.4702 C   0  0  0  0  0  0  0  0  0  0  0  0
   -0.2711   14.4579    0.2259 O   0  0  0  0  0  0  0  0  0  0  0  0
    0.9379   13.5864   -1.4247 O   0  0  0  0  0  0  0  0  0  0  0  0
   -0.8399   14.3153    0.9568 H   0  0  0  0  0  0  0  0  0  0  0  0
 20 19  2  0  0  0
 20 21  1  0  0  0
 19 18  1  0  0  0
 21 22  2  0  0  0
 12 11  1  0  0  0
  9  8  2  0  0  0
  9  5  1  0  0  0
 11  8  1  0  0  0
 11 13  2  0  0  0
  4  5  2  0  0  0
  4  1  1  0  0  0
 18 17  1  0  0  0
 18 23  2  0  0  0
  8  7  1  0  0  0
  5  6  1  0  0  0
 16  1  1  0  0  0
 16 17  1  0  0  0
  1  2  2  0  0  0
  7  6  1  0  0  0
  6  3  2  0  0  0
 22 23  1  0  0  0
 22 24  1  0  0  0
  2  3  1  0  0  0
 26 24  2  0  0  0
 24 25  1  0  0  0
  7 10  1  0  0  0
 12 14  1  0  0  0
 12 15  1  0  0  0
 25 27  1  0  0  0
M  END
> <minimizedAffinity>
-7.09640

$$$$
5FBI_5WD_A_302


 27 29  0  0  0  0  0  0  0  0999 V2000
    4.5109    9.3350    1.5363 C   0  0  0  0  0  0  0  0  0  0  0  0
    3.1177    9.0987    1.7306 C   0  0  0  0  0  0  0  0  0  0  0  0
    2.5542    7.7988    1.6096 C   0  0  0  0  0  0  0  0  0  0  0  0
    5.3435    8.2434    1.2209 C   0  0  0  0  0  0  0  0  0  0  0  0
    4.7769    6.9767    1.1086 C   0  0  0  0  0  0  0  0  0  0  0  0
    3.4260    6.7334    1.2911 C   0  0  0  0  0  0  0  0  0  0  0  0
    3.1961    5.4018    1.1117 N   0  0  0  0  0  0  0  0  0  0  0  0
    4.3224    4.7631    0.8371 C   0  0  0  0  0  0  0  0  0  0  0  0
    5.3446    5.6245    0.8200 C   0  0  0  0  0  0  0  0  0  0  0  0
    2.3122    4.9732    1.1774 H   0  0  0  0  0  0  0  0  0  0  0  0
    4.5474    3.3262    0.5846 C   0  0  0  0  0  0  0  0  0  0  0  0
    4.9188    2.8515   -0.6229 N   0  0  0  0  0  0  0  0  0  0  0  0
    4.4048    2.5687    1.5245 O   0  0  0  0  0  0  0  0  0  0  0  0
    5.0329    3.4693   -1.3808 H   0  0  0  0  0  0  0  0  0  0  0  0
    5.0756    1.8874   -0.7458 H   0  0  0  0  0  0  0  0  0  0  0  0
    5.1466   10.6005    1.6433 O   0  0  0  0  0  0  0  0  0  0  0  0
    5.5729   11.3173    0.4600 C   0  0  0  0  0  0  0  0  0  0  0  0
    7.0849   11.5637    0.3984 C   0  0  0  0  0  0  0  0  0  0  0  0
    7.9343   10.9715    1.3514 C   0  0  0  0  0  0  0  0  0  0  0  0
    9.3152   11.2289    1.3111 C   0  0  0  0  0  0  0  0  0  0  0  0
    9.8498   12.1207    0.3634 C   0  0  0  0  0  0  0  0  0  0  0  0
    9.0033   12.7577   -0.5615 C   0  0  0  0  0  0  0  0  0  0  0  0
    7.6184   12.4893   -0.5212 C   0  0  0  0  0  0  0  0  0  0  0  0
    9.5786   13.7227   -1.5769 C   0  0  0  0  0  0  0  0  0  0  0  0
    9.0650   13.7624   -2.8102 O   0  0  0  0  0  0  0  0  0  0  0  0
   10.5014   14.4563   -1.2607 O   0  0  0  0  0  0  0  0  0  0  0  0
    8.3566   13.1943   -3.0412 H   0  0  0  0  0  0  0  0  0  0  0  0
 20 19  2  0  0  0
 20 21  1  0  0  0
 19 18  1  0  0  0
 21 22  2  0  0  0
 12 11  1  0  0  0
  9  8  2  0  0  0
  9  5  1  0  0  0
 11  8  1  0  0  0
 11 13  2  0  0  0
  4  5  2  0  0  0
  4  1  1  0  0  0
 18 17  1  0  0  0
 18 23  2  0  0  0
  8  7  1  0  0  0
  5  6  1  0  0  0
 16  1  1  0  0  0
 16 17  1  0  0  0
  1  2  2  0  0  0
  7  6  1  0  0  0
  6  3  2  0  0  0
 22 23  1  0  0  0
 22 24  1  0  0  0
  2  3  1  0  0  0
 26 24  2  0  0  0
 24 25  1  0  0  0
  7 10  1  0  0  0
 12 14  1  0  0  0
 12 15  1  0  0  0
 25 27  1  0  0  0
M  END
> <minimizedAffinity>
-7.09294

$$$$
