4BAQ_M4Z_B_1287
  RCSB PDB12061711483D
Coordinates from PDB:4BAQ:B:1287 Model:1 without hydrogens
 33 35  0  0  0  0            999 V2000
   18.7700  -14.5310   24.2010   C 0  0  0  0  0  0  0  0  0  0  0  0
   18.8900  -15.8540   24.9790   C 0  0  0  0  0  0  0  0  0  0  0  0
   19.4250  -15.5690   26.3880   C 0  0  0  0  0  0  0  0  0  0  0  0
   20.8250  -14.9400   26.2940   C 0  0  0  0  0  0  0  0  0  0  0  0
   20.7250  -13.5770   25.5940   C 0  0  0  0  0  0  0  0  0  0  0  0
   20.1110  -13.7580   24.1860   C 0  0  0  0  0  0  0  0  0  0  0  0
   17.0040  -15.5640   22.7950   N 0  0  0  0  0  0  0  0  0  0  0  0
   18.2700  -14.7950   22.7660   C 0  0  0  0  0  0  0  0  0  0  0  0
   17.9940  -13.4660   22.1110   C 0  0  0  0  0  0  0  0  0  0  0  0
   16.9890  -12.8630   22.4510   O 0  0  0  0  0  0  0  0  0  0  0  0
   18.8060  -12.9080   21.1800   N 0  0  0  0  0  0  0  0  0  0  0  0
   18.6340  -11.7030   20.3590   C 0  0  0  0  0  0  0  0  0  0  0  0
   17.2390  -11.8210   19.7690   C 0  0  0  0  0  0  0  0  0  0  0  0
   16.8970  -12.8940   19.2870   O 0  0  0  0  0  0  0  0  0  0  0  0
   16.3370  -10.8280   19.9420   N 0  0  0  0  0  0  0  0  0  0  0  0
   14.9700  -11.0130   19.4510   C 0  0  0  0  0  0  0  0  0  0  0  0
   14.0140  -11.0280   20.6150   C 0  0  0  0  0  0  0  0  0  0  0  0
   13.4600   -9.8210   21.0260   C 0  0  0  0  0  0  0  0  0  0  0  0
   12.5830   -9.7860   22.0930   C 0  0  0  0  0  0  0  0  0  0  0  0
   12.2690  -10.9790   22.7660   C 0  0  0  0  0  0  0  0  0  0  0  0
   12.8180  -12.2040   22.3360   C 0  0  0  0  0  0  0  0  0  0  0  0
   13.7050  -12.2160   21.2610   C 0  0  0  0  0  0  0  0  0  0  0  0
   11.2680  -10.9270   23.8550   C 0  0  0  0  0  0  0  0  0  0  0  0
   10.5420  -11.9780   24.1770   N 0  0  0  0  0  0  0  0  0  0  0  0
   11.0360   -9.7280   24.4760   N 0  0  0  0  0  0  0  0  0  0  0  0
   19.7960  -12.1120   19.4430   C 0  0  0  0  0  0  0  0  0  0  0  0
   20.0340  -13.2570   20.4360   C 0  0  0  0  0  0  0  0  0  0  0  0
   16.3660  -15.8900   21.4900   C 0  0  0  0  0  0  0  0  0  0  0  0
   12.0350  -15.5660   19.4200   C 0  0  0  0  0  0  0  0  0  0  0  0
   14.8900  -16.2140   21.6700   C 0  0  0  0  0  0  0  0  0  0  0  0
   14.4460  -16.5720   22.7540   O 0  0  0  0  0  0  0  0  0  0  0  0
   12.6200  -16.3420   20.6020   C 0  0  0  0  0  0  0  0  0  0  0  0
   14.0720  -16.1010   20.5930   N 0  0  0  0  0  0  0  0  0  0  0  0
  1  2  1  0  0  0  0
  1  6  1  0  0  0  0
  1  8  1  0  0  0  0
  2  3  1  0  0  0  0
  3  4  1  0  0  0  0
  4  5  1  0  0  0  0
  5  6  1  0  0  0  0
  7  8  1  0  0  0  0
  7 28  1  0  0  0  0
  8  9  1  0  0  0  0
  9 10  2  0  0  0  0
  9 11  1  0  0  0  0
 11 12  1  0  0  0  0
 11 27  1  0  0  0  0
 12 13  1  0  0  0  0
 12 26  1  0  0  0  0
 13 14  2  0  0  0  0
 13 15  1  0  0  0  0
 15 16  1  0  0  0  0
 16 17  1  0  0  0  0
 17 22  2  0  0  0  0
 17 18  1  0  0  0  0
 22 21  1  0  0  0  0
 21 20  2  0  0  0  0
 20 19  1  0  0  0  0
 20 23  1  0  0  0  0
 19 18  2  0  0  0  0
 23 24  2  0  0  0  0
 23 25  1  0  0  0  0
 26 27  1  0  0  0  0
 28 30  1  0  0  0  0
 29 32  1  0  0  0  0
 30 31  2  0  0  0  0
 30 33  1  0  0  0  0
 32 33  1  0  0  0  0
A    1
C1
A    2
C2
A    3
C3
A    4
C4
A    5
C5
A    6
C6
A    7
N7
A    8
C8
A    9
C9
A   10
O0
A   11
N11
A   12
C12
A   13
C13
A   14
O14
A   15
N15
A   16
C16
A   17
C17
A   18
C22
A   19
C21
A   20
C20
A   21
C19
A   22
C18
A   23
C23
A   24
N24
A   25
N25
A   26
C26
A   27
C27
A   28
C28
A   29
C10
A   30
C29
A   31
O30
A   32
C24
A   33
N3
M  END
>  <InstanceId>
4BAQ_M4Z_B_1287

>  <ChemCompId>
M4Z

>  <PdbId>
4BAQ

>  <ChainId>
B

>  <ResidueNumber>
1287

>  <InsertionCode>


>  <Model>
1

>  <AltIds>


>  <MissingHeavyAtoms>
0

>  <ObservedFormula>
C24 N6 O3

>  <Name>
(2S)-N-[(4-carbamimidoylphenyl)methyl]-1-[(2R)-2-cyclohexyl-2-[[2-(ethylamino)-2-oxidanylidene-ethyl]amino]ethanoyl]azetidine-2-carboxamide

>  <SystematicName>
(2S)-N-[(4-carbamimidoylphenyl)methyl]-1-[(2R)-2-cyclohexyl-2-[[2-(ethylamino)-2-oxidanylidene-ethyl]amino]ethanoyl]azetidine-2-carboxamide

>  <Synonyms>


>  <Type>
non-polymer

>  <Formula>
C24 H36 N6 O3

>  <MolecularWeight>
456.581

>  <ModifiedDate>
2014-09-05

>  <Parent>


>  <OneLetterCode>


>  <SubcomponentList>


>  <AmbiguousFlag>
N

>  <InChI>
InChI=1S/C24H36N6O3/c1-2-27-20(31)15-28-21(17-6-4-3-5-7-17)24(33)30-13-12-19(30)23(32)29-14-16-8-10-18(11-9-16)22(25)26/h8-11,17,19,21,28H,2-7,12-15H2,1H3,(H3,25,26)(H,27,31)(H,29,32)/t19-,21+/m0/s1

>  <InChIKey>
HLAUGXKHYADQDF-PZJWPPBQSA-N

>  <SMILES>
[H]/N=C(/c1ccc(cc1)CNC(=O)[C@@H]2CCN2C(=O)[C@@H](C3CCCCC3)NCC(=O)NCC)\N

$$$$
