1SW2_BET_A_301


  9  8  0  0  0  0  0  0  0  0999 V2000
   15.5760   18.9058   11.5280 C   0  0  0  0  0  0  0  0  0  0  0  0
   14.6293   19.2444   12.6215 N   0  0  0  0  0  0  0  0  0  0  0  0
   13.3341   18.6022   12.3704 C   0  0  0  0  0  0  0  0  0  0  0  0
   15.1800   18.8491   13.9228 C   0  0  0  0  0  0  0  0  0  0  0  0
   14.4156   20.7063   12.6277 C   0  0  0  0  0  0  0  0  0  0  0  0
   15.7280   17.3956   11.3259 C   0  0  0  0  0  0  0  0  0  0  0  0
   16.5689   16.8292   11.9607 O   0  0  0  0  0  0  0  0  0  0  0  0
   14.9795   16.6915   10.4959 O   0  0  0  0  0  0  0  0  0  0  0  0
   14.3151   17.1158    9.9893 H   0  0  0  0  0  0  0  0  0  0  0  0
  2  1  1  0  0  0
  2  3  1  0  0  0
  2  4  1  0  0  0
  2  5  1  0  0  0
  1  6  1  0  0  0
  6  7  2  0  0  0
  6  8  1  0  0  0
  8  9  1  0  0  0
M  CHG 1   2   1
M  END
> <minimizedAffinity>
-5.16503

$$$$
1SW2_BET_A_301


  9  8  0  0  0  0  0  0  0  0999 V2000
   15.5850   18.9059   11.5342 C   0  0  0  0  0  0  0  0  0  0  0  0
   14.6281   19.2491   12.6175 N   0  0  0  0  0  0  0  0  0  0  0  0
   14.3851   20.6961   12.6220 C   0  0  0  0  0  0  0  0  0  0  0  0
   13.3784   18.4964   12.4608 C   0  0  0  0  0  0  0  0  0  0  0  0
   15.2329   18.8881   13.9161 C   0  0  0  0  0  0  0  0  0  0  0  0
   15.7224   17.3953   11.3252 C   0  0  0  0  0  0  0  0  0  0  0  0
   16.5397   16.8136   11.9765 O   0  0  0  0  0  0  0  0  0  0  0  0
   14.9857   16.7068   10.4718 O   0  0  0  0  0  0  0  0  0  0  0  0
   14.3398   17.1433    9.9519 H   0  0  0  0  0  0  0  0  0  0  0  0
  2  1  1  0  0  0
  2  3  1  0  0  0
  2  4  1  0  0  0
  2  5  1  0  0  0
  1  6  1  0  0  0
  6  7  2  0  0  0
  6  8  1  0  0  0
  8  9  1  0  0  0
M  CHG 1   2   1
M  END
> <minimizedAffinity>
-5.14036

$$$$
1SW2_BET_A_301


  9  8  0  0  0  0  0  0  0  0999 V2000
   15.8078   19.2389   11.6236 C   0  0  0  0  0  0  0  0  0  0  0  0
   14.7072   19.3640   12.6135 N   0  0  0  0  0  0  0  0  0  0  0  0
   15.1500   18.8456   13.9129 C   0  0  0  0  0  0  0  0  0  0  0  0
   14.2607   20.7578   12.7166 C   0  0  0  0  0  0  0  0  0  0  0  0
   13.5676   18.5391   12.1622 C   0  0  0  0  0  0  0  0  0  0  0  0
   15.9697   17.8095   11.0991 C   0  0  0  0  0  0  0  0  0  0  0  0
   15.7667   17.6149    9.9365 O   0  0  0  0  0  0  0  0  0  0  0  0
   16.3246   16.7891   11.8593 O   0  0  0  0  0  0  0  0  0  0  0  0
   16.4884   16.9200   12.7726 H   0  0  0  0  0  0  0  0  0  0  0  0
  2  1  1  0  0  0
  2  3  1  0  0  0
  2  4  1  0  0  0
  2  5  1  0  0  0
  1  6  1  0  0  0
  6  7  2  0  0  0
  6  8  1  0  0  0
  8  9  1  0  0  0
M  CHG 1   2   1
M  END
> <minimizedAffinity>
-5.10546

$$$$
1SW2_BET_A_301


  9  8  0  0  0  0  0  0  0  0999 V2000
   14.9691   19.9097   11.9295 C   0  0  0  0  0  0  0  0  0  0  0  0
   15.2212   18.5208   12.3924 N   0  0  0  0  0  0  0  0  0  0  0  0
   15.5187   18.5252   13.8293 C   0  0  0  0  0  0  0  0  0  0  0  0
   14.0754   17.6575   12.0851 C   0  0  0  0  0  0  0  0  0  0  0  0
   16.4074   17.9939   11.6867 C   0  0  0  0  0  0  0  0  0  0  0  0
   13.8500   20.5992   12.7148 C   0  0  0  0  0  0  0  0  0  0  0  0
   12.7227   20.2732   12.4833 O   0  0  0  0  0  0  0  0  0  0  0  0
   14.0658   21.5253   13.6318 O   0  0  0  0  0  0  0  0  0  0  0  0
   14.9414   21.7950   13.8284 H   0  0  0  0  0  0  0  0  0  0  0  0
  2  1  1  0  0  0
  2  3  1  0  0  0
  2  4  1  0  0  0
  2  5  1  0  0  0
  1  6  1  0  0  0
  6  7  2  0  0  0
  6  8  1  0  0  0
  8  9  1  0  0  0
M  CHG 1   2   1
M  END
> <minimizedAffinity>
-4.50281

$$$$
1SW2_BET_A_301


  9  8  0  0  0  0  0  0  0  0999 V2000
   14.9993   19.8456   11.9864 C   0  0  0  0  0  0  0  0  0  0  0  0
   15.1613   18.4570   12.4889 N   0  0  0  0  0  0  0  0  0  0  0  0
   13.9151   17.7094   12.2856 C   0  0  0  0  0  0  0  0  0  0  0  0
   16.2949   17.7980   11.8304 C   0  0  0  0  0  0  0  0  0  0  0  0
   15.4272   18.5064   13.9413 C   0  0  0  0  0  0  0  0  0  0  0  0
   13.8793   20.6051   12.7026 C   0  0  0  0  0  0  0  0  0  0  0  0
   12.7495   20.3243   12.4276 O   0  0  0  0  0  0  0  0  0  0  0  0
   14.0963   21.5443   13.6060 O   0  0  0  0  0  0  0  0  0  0  0  0
   14.9737   21.7794   13.8359 H   0  0  0  0  0  0  0  0  0  0  0  0
  2  1  1  0  0  0
  2  3  1  0  0  0
  2  4  1  0  0  0
  2  5  1  0  0  0
  1  6  1  0  0  0
  6  7  2  0  0  0
  6  8  1  0  0  0
  8  9  1  0  0  0
M  CHG 1   2   1
M  END
> <minimizedAffinity>
-4.49012

$$$$
1SW2_BET_A_301


  9  8  0  0  0  0  0  0  0  0999 V2000
   14.9901   20.0503   11.8025 C   0  0  0  0  0  0  0  0  0  0  0  0
   15.2739   18.6045   11.9927 N   0  0  0  0  0  0  0  0  0  0  0  0
   16.4078   18.2085   11.1498 C   0  0  0  0  0  0  0  0  0  0  0  0
   15.5290   18.3096   13.4072 C   0  0  0  0  0  0  0  0  0  0  0  0
   14.0943   17.8286   11.5576 C   0  0  0  0  0  0  0  0  0  0  0  0
   13.9185   20.5724   12.7635 C   0  0  0  0  0  0  0  0  0  0  0  0
   12.7724   20.4324   12.4512 O   0  0  0  0  0  0  0  0  0  0  0  0
   14.1940   21.1607   13.9138 O   0  0  0  0  0  0  0  0  0  0  0  0
   15.0853   21.2802   14.1772 H   0  0  0  0  0  0  0  0  0  0  0  0
  2  1  1  0  0  0
  2  3  1  0  0  0
  2  4  1  0  0  0
  2  5  1  0  0  0
  1  6  1  0  0  0
  6  7  2  0  0  0
  6  8  1  0  0  0
  8  9  1  0  0  0
M  CHG 1   2   1
M  END
> <minimizedAffinity>
-4.11036

$$$$
1SW2_BET_A_301


  9  8  0  0  0  0  0  0  0  0999 V2000
   15.5619   19.6014   11.6389 C   0  0  0  0  0  0  0  0  0  0  0  0
   15.4815   18.1354   11.4119 N   0  0  0  0  0  0  0  0  0  0  0  0
   14.0776   17.7338   11.2684 C   0  0  0  0  0  0  0  0  0  0  0  0
   16.2718   17.7503   10.2372 C   0  0  0  0  0  0  0  0  0  0  0  0
   16.0317   17.4417   12.5946 C   0  0  0  0  0  0  0  0  0  0  0  0
   14.6854   20.0665   12.8051 C   0  0  0  0  0  0  0  0  0  0  0  0
   15.1251   19.9578   13.9121 O   0  0  0  0  0  0  0  0  0  0  0  0
   13.4792   20.5827   12.6507 O   0  0  0  0  0  0  0  0  0  0  0  0
   13.1162   20.6766   11.7920 H   0  0  0  0  0  0  0  0  0  0  0  0
  2  1  1  0  0  0
  2  3  1  0  0  0
  2  4  1  0  0  0
  2  5  1  0  0  0
  1  6  1  0  0  0
  6  7  2  0  0  0
  6  8  1  0  0  0
  8  9  1  0  0  0
M  CHG 1   2   1
M  END
> <minimizedAffinity>
-3.84468

$$$$
1SW2_BET_A_301


  9  8  0  0  0  0  0  0  0  0999 V2000
   15.7089   17.8752   12.4488 C   0  0  0  0  0  0  0  0  0  0  0  0
   14.7116   18.8418   12.9761 N   0  0  0  0  0  0  0  0  0  0  0  0
   14.7531   18.8441   14.4428 C   0  0  0  0  0  0  0  0  0  0  0  0
   14.9530   20.1825   12.4311 C   0  0  0  0  0  0  0  0  0  0  0  0
   13.3625   18.4038   12.5626 C   0  0  0  0  0  0  0  0  0  0  0  0
   15.2951   17.2765   11.1017 C   0  0  0  0  0  0  0  0  0  0  0  0
   14.1425   17.3471   10.7897 O   0  0  0  0  0  0  0  0  0  0  0  0
   16.1416   16.6949   10.2708 O   0  0  0  0  0  0  0  0  0  0  0  0
   17.0487   16.6292   10.4961 H   0  0  0  0  0  0  0  0  0  0  0  0
  2  1  1  0  0  0
  2  3  1  0  0  0
  2  4  1  0  0  0
  2  5  1  0  0  0
  1  6  1  0  0  0
  6  7  2  0  0  0
  6  8  1  0  0  0
  8  9  1  0  0  0
M  CHG 1   2   1
M  END
> <minimizedAffinity>
-3.24142

$$$$
1SW2_BET_A_301


  9  8  0  0  0  0  0  0  0  0999 V2000
   15.2941   19.3269   12.1595 C   0  0  0  0  0  0  0  0  0  0  0  0
   15.7678   18.1278   11.4215 N   0  0  0  0  0  0  0  0  0  0  0  0
   16.3449   17.1631   12.3647 C   0  0  0  0  0  0  0  0  0  0  0  0
   14.6733   17.5313   10.6476 C   0  0  0  0  0  0  0  0  0  0  0  0
   16.8344   18.5381   10.4852 C   0  0  0  0  0  0  0  0  0  0  0  0
   13.8768   19.1568   12.7134 C   0  0  0  0  0  0  0  0  0  0  0  0
   13.6457   18.1815   13.3661 O   0  0  0  0  0  0  0  0  0  0  0  0
   12.9053   20.0291   12.5125 O   0  0  0  0  0  0  0  0  0  0  0  0
   13.0653   20.7998   12.0041 H   0  0  0  0  0  0  0  0  0  0  0  0
  2  1  1  0  0  0
  2  3  1  0  0  0
  2  4  1  0  0  0
  2  5  1  0  0  0
  1  6  1  0  0  0
  6  7  2  0  0  0
  6  8  1  0  0  0
  8  9  1  0  0  0
M  CHG 1   2   1
M  END
> <minimizedAffinity>
-3.21277

$$$$
1SW2_BET_A_301


  9  8  0  0  0  0  0  0  0  0999 V2000
   13.8093   18.4242   12.1050 C   0  0  0  0  0  0  0  0  0  0  0  0
   15.2832   18.2957   12.2397 N   0  0  0  0  0  0  0  0  0  0  0  0
   15.6898   16.9204   11.9296 C   0  0  0  0  0  0  0  0  0  0  0  0
   15.9675   19.2644   11.3760 C   0  0  0  0  0  0  0  0  0  0  0  0
   15.6569   18.5724   13.6421 C   0  0  0  0  0  0  0  0  0  0  0  0
   13.2974   19.8064   12.5196 C   0  0  0  0  0  0  0  0  0  0  0  0
   12.1523   20.0685   12.2941 O   0  0  0  0  0  0  0  0  0  0  0  0
   14.0498   20.7151   13.1139 O   0  0  0  0  0  0  0  0  0  0  0  0
   14.9493   20.5300   13.2996 H   0  0  0  0  0  0  0  0  0  0  0  0
  2  1  1  0  0  0
  2  3  1  0  0  0
  2  4  1  0  0  0
  2  5  1  0  0  0
  1  6  1  0  0  0
  6  7  2  0  0  0
  6  8  1  0  0  0
  8  9  1  0  0  0
M  CHG 1   2   1
M  END
> <minimizedAffinity>
-2.77105

$$$$
