5B5F_6F3_A_200


 23 25  0  0  0  0  0  0  0  0999 V2000
   10.5482   -8.0603   -4.4833 C   0  0  0  0  0  0  0  0  0  0  0  0
   10.5408   -9.4103   -4.4635 C   0  0  0  0  0  0  0  0  0  0  0  0
    9.8176  -10.1755   -5.4379 C   0  0  0  0  0  0  0  0  0  0  0  0
    9.2429   -8.1298   -6.4394 C   0  0  0  0  0  0  0  0  0  0  0  0
    9.1721   -9.4918   -6.4182 C   0  0  0  0  0  0  0  0  0  0  0  0
    9.9483   -7.4439   -5.5355 C   0  0  0  0  0  0  0  0  0  0  0  0
   11.9692   -6.0421   -3.6184 C   0  0  0  0  0  0  0  0  0  0  0  0
   13.6839   -4.9404   -0.3918 N   0  0  0  0  0  0  0  0  0  0  0  0
   11.2839   -7.2835   -3.5622 C   0  0  0  0  0  0  0  0  0  0  0  0
   11.3637   -7.6560   -2.2679 O   0  0  0  0  0  0  0  0  0  0  0  0
   12.2195   -6.8573   -1.5788 C   0  0  0  0  0  0  0  0  0  0  0  0
   12.3907   -6.8981   -0.2136 C   0  0  0  0  0  0  0  0  0  0  0  0
   13.2021   -5.9718    0.3563 C   0  0  0  0  0  0  0  0  0  0  0  0
   13.3506   -4.6802   -1.6990 C   0  0  0  0  0  0  0  0  0  0  0  0
   13.7617   -3.6818   -2.3636 O   0  0  0  0  0  0  0  0  0  0  0  0
   12.5396   -5.7411   -2.3414 C   0  0  0  0  0  0  0  0  0  0  0  0
   14.3245   -4.3303    0.0403 H   0  0  0  0  0  0  0  0  0  0  0  0
    8.8082  -12.4350   -4.5933 O   0  0  0  0  0  0  0  0  0  0  0  0
    9.8655  -11.8095   -5.4568 S   0  0  0  0  0  0  0  0  0  0  0  0
    9.5651  -12.2394   -6.8245 O   0  0  0  0  0  0  0  0  0  0  0  0
   11.2241  -12.3428   -5.0603 N   0  0  0  0  0  0  0  0  0  0  0  0
   11.1094  -13.7378   -4.6998 C   0  0  0  0  0  0  0  0  0  0  0  0
   11.5773  -11.8138   -4.2629 H   0  0  0  0  0  0  0  0  0  0  0  0
 18 19  2  0  0  0
  5  4  2  0  0  0
  5  3  1  0  0  0
 21 19  1  0  0  0
 21 22  1  0  0  0
 19  3  1  0  0  0
 19 20  2  0  0  0
  4  6  1  0  0  0
  3  2  2  0  0  0
  6  1  2  0  0  0
  2  1  1  0  0  0
  1  9  1  0  0  0
  9  7  2  0  0  0
  9 10  1  0  0  0
  7 16  1  0  0  0
 10 11  1  0  0  0
 16 11  2  0  0  0
 16 14  1  0  0  0
 15 14  2  0  0  0
 11 12  1  0  0  0
 14  8  1  0  0  0
 12 13  2  0  0  0
  8 13  1  0  0  0
  8 17  1  0  0  0
 21 23  1  0  0  0
M  END
> <minimizedAffinity>
-10.59701

$$$$
5B5F_6F3_A_200


 23 25  0  0  0  0  0  0  0  0999 V2000
   10.5881   -8.0374   -4.4172 C   0  0  0  0  0  0  0  0  0  0  0  0
   10.5523   -9.3870   -4.4244 C   0  0  0  0  0  0  0  0  0  0  0  0
    9.8403  -10.1178   -5.4330 C   0  0  0  0  0  0  0  0  0  0  0  0
    9.3359   -8.0415   -6.4089 C   0  0  0  0  0  0  0  0  0  0  0  0
    9.2364   -9.4018   -6.4167 C   0  0  0  0  0  0  0  0  0  0  0  0
   10.0302   -7.3882   -5.4728 C   0  0  0  0  0  0  0  0  0  0  0  0
   11.4793   -7.3599   -2.0534 C   0  0  0  0  0  0  0  0  0  0  0  0
   13.7355   -4.6933   -0.5162 N   0  0  0  0  0  0  0  0  0  0  0  0
   11.3142   -7.2942   -3.4613 C   0  0  0  0  0  0  0  0  0  0  0  0
   12.1523   -6.3128   -3.8550 O   0  0  0  0  0  0  0  0  0  0  0  0
   12.6498   -5.6346   -2.7884 C   0  0  0  0  0  0  0  0  0  0  0  0
   13.6409   -4.6826   -2.8673 C   0  0  0  0  0  0  0  0  0  0  0  0
   14.1164   -4.1583   -1.7097 C   0  0  0  0  0  0  0  0  0  0  0  0
   12.9535   -5.8116   -0.3574 C   0  0  0  0  0  0  0  0  0  0  0  0
   12.6566   -6.3319    0.7601 O   0  0  0  0  0  0  0  0  0  0  0  0
   12.3644   -6.3243   -1.6167 C   0  0  0  0  0  0  0  0  0  0  0  0
   14.0466   -4.2407    0.3009 H   0  0  0  0  0  0  0  0  0  0  0  0
    8.7688  -12.3714   -4.6517 O   0  0  0  0  0  0  0  0  0  0  0  0
    9.8549  -11.7518   -5.4829 S   0  0  0  0  0  0  0  0  0  0  0  0
    9.5717  -12.1489   -6.8641 O   0  0  0  0  0  0  0  0  0  0  0  0
   11.1944  -12.3210   -5.0719 N   0  0  0  0  0  0  0  0  0  0  0  0
   11.0367  -13.7092   -4.7016 C   0  0  0  0  0  0  0  0  0  0  0  0
   11.5568  -11.7961   -4.2759 H   0  0  0  0  0  0  0  0  0  0  0  0
 18 19  2  0  0  0
  5  4  2  0  0  0
  5  3  1  0  0  0
 21 19  1  0  0  0
 21 22  1  0  0  0
 19  3  1  0  0  0
 19 20  2  0  0  0
  4  6  1  0  0  0
  3  2  2  0  0  0
  6  1  2  0  0  0
  2  1  1  0  0  0
  1  9  1  0  0  0
  9  7  2  0  0  0
  9 10  1  0  0  0
  7 16  1  0  0  0
 10 11  1  0  0  0
 16 11  2  0  0  0
 16 14  1  0  0  0
 15 14  2  0  0  0
 11 12  1  0  0  0
 14  8  1  0  0  0
 12 13  2  0  0  0
  8 13  1  0  0  0
  8 17  1  0  0  0
 21 23  1  0  0  0
M  END
> <minimizedAffinity>
-9.94914

$$$$
5B5F_6F3_A_200


 23 25  0  0  0  0  0  0  0  0999 V2000
   10.8713   -8.0395   -4.6442 C   0  0  0  0  0  0  0  0  0  0  0  0
   10.9476   -9.3742   -4.8335 C   0  0  0  0  0  0  0  0  0  0  0  0
   10.0928  -10.0547   -5.7631 C   0  0  0  0  0  0  0  0  0  0  0  0
    9.2125   -7.9466   -6.3099 C   0  0  0  0  0  0  0  0  0  0  0  0
    9.2276   -9.2989   -6.4878 C   0  0  0  0  0  0  0  0  0  0  0  0
   10.0406   -7.3359   -5.4576 C   0  0  0  0  0  0  0  0  0  0  0  0
   12.7588   -7.7068   -2.8644 C   0  0  0  0  0  0  0  0  0  0  0  0
   14.3849   -4.8416   -0.9381 N   0  0  0  0  0  0  0  0  0  0  0  0
   11.7272   -7.3389   -3.7667 C   0  0  0  0  0  0  0  0  0  0  0  0
   11.7211   -5.9899   -3.7422 O   0  0  0  0  0  0  0  0  0  0  0  0
   12.5114   -5.5132   -2.7454 C   0  0  0  0  0  0  0  0  0  0  0  0
   12.8214   -4.1838   -2.5689 C   0  0  0  0  0  0  0  0  0  0  0  0
   13.7069   -3.8585   -1.5936 C   0  0  0  0  0  0  0  0  0  0  0  0
   14.3273   -6.1822   -1.2327 C   0  0  0  0  0  0  0  0  0  0  0  0
   15.0101   -7.0788   -0.6518 O   0  0  0  0  0  0  0  0  0  0  0  0
   13.2945   -6.5401   -2.2333 C   0  0  0  0  0  0  0  0  0  0  0  0
   14.9647   -4.5685   -0.1908 H   0  0  0  0  0  0  0  0  0  0  0  0
   11.0532  -12.3654   -5.0041 O   0  0  0  0  0  0  0  0  0  0  0  0
   10.2323  -11.6591   -6.0442 S   0  0  0  0  0  0  0  0  0  0  0  0
    8.8898  -12.2375   -5.9489 O   0  0  0  0  0  0  0  0  0  0  0  0
   10.7965  -11.9486   -7.4172 N   0  0  0  0  0  0  0  0  0  0  0  0
   10.2859  -13.2144   -7.8927 C   0  0  0  0  0  0  0  0  0  0  0  0
   11.8142  -11.9911   -7.3642 H   0  0  0  0  0  0  0  0  0  0  0  0
 18 19  2  0  0  0
  5  4  2  0  0  0
  5  3  1  0  0  0
 21 19  1  0  0  0
 21 22  1  0  0  0
 19  3  1  0  0  0
 19 20  2  0  0  0
  4  6  1  0  0  0
  3  2  2  0  0  0
  6  1  2  0  0  0
  2  1  1  0  0  0
  1  9  1  0  0  0
  9  7  2  0  0  0
  9 10  1  0  0  0
  7 16  1  0  0  0
 10 11  1  0  0  0
 16 11  2  0  0  0
 16 14  1  0  0  0
 15 14  2  0  0  0
 11 12  1  0  0  0
 14  8  1  0  0  0
 12 13  2  0  0  0
  8 13  1  0  0  0
  8 17  1  0  0  0
 21 23  1  0  0  0
M  END
> <minimizedAffinity>
-9.14508

$$$$
5B5F_6F3_A_200


 23 25  0  0  0  0  0  0  0  0999 V2000
   10.4241   -9.4091   -5.2402 C   0  0  0  0  0  0  0  0  0  0  0  0
   11.0923   -8.8343   -4.2175 C   0  0  0  0  0  0  0  0  0  0  0  0
   11.2612   -7.4123   -4.1306 C   0  0  0  0  0  0  0  0  0  0  0  0
    9.9686   -7.2617   -6.0863 C   0  0  0  0  0  0  0  0  0  0  0  0
   10.6812   -6.6524   -5.0956 C   0  0  0  0  0  0  0  0  0  0  0  0
    9.8031   -8.5869   -6.1263 C   0  0  0  0  0  0  0  0  0  0  0  0
    9.1241  -11.6251   -5.7302 C   0  0  0  0  0  0  0  0  0  0  0  0
    9.7168  -15.3876   -5.4927 N   0  0  0  0  0  0  0  0  0  0  0  0
   10.2078  -10.8014   -5.3291 C   0  0  0  0  0  0  0  0  0  0  0  0
   11.2147  -11.6643   -5.0796 O   0  0  0  0  0  0  0  0  0  0  0  0
   10.7736  -12.9491   -5.0873 C   0  0  0  0  0  0  0  0  0  0  0  0
   11.5939  -14.0520   -5.0138 C   0  0  0  0  0  0  0  0  0  0  0  0
   11.0272  -15.2788   -5.1368 C   0  0  0  0  0  0  0  0  0  0  0  0
    8.8955  -14.3423   -5.8390 C   0  0  0  0  0  0  0  0  0  0  0  0
    7.6942  -14.4656   -6.2254 O   0  0  0  0  0  0  0  0  0  0  0  0
    9.4900  -13.0034   -5.6158 C   0  0  0  0  0  0  0  0  0  0  0  0
    9.3256  -16.2910   -5.5025 H   0  0  0  0  0  0  0  0  0  0  0  0
   13.4559   -7.0957   -2.7448 O   0  0  0  0  0  0  0  0  0  0  0  0
   12.0088   -6.7110   -2.8571 S   0  0  0  0  0  0  0  0  0  0  0  0
   12.0005   -5.2645   -3.0883 O   0  0  0  0  0  0  0  0  0  0  0  0
   11.3038   -7.0049   -1.5518 N   0  0  0  0  0  0  0  0  0  0  0  0
   12.2676   -7.4515   -0.5717 C   0  0  0  0  0  0  0  0  0  0  0  0
   10.6062   -7.7343   -1.6992 H   0  0  0  0  0  0  0  0  0  0  0  0
 18 19  2  0  0  0
  5  4  2  0  0  0
  5  3  1  0  0  0
 21 19  1  0  0  0
 21 22  1  0  0  0
 19  3  1  0  0  0
 19 20  2  0  0  0
  4  6  1  0  0  0
  3  2  2  0  0  0
  6  1  2  0  0  0
  2  1  1  0  0  0
  1  9  1  0  0  0
  9  7  2  0  0  0
  9 10  1  0  0  0
  7 16  1  0  0  0
 10 11  1  0  0  0
 16 11  2  0  0  0
 16 14  1  0  0  0
 15 14  2  0  0  0
 11 12  1  0  0  0
 14  8  1  0  0  0
 12 13  2  0  0  0
  8 13  1  0  0  0
  8 17  1  0  0  0
 21 23  1  0  0  0
M  END
> <minimizedAffinity>
-8.80103

$$$$
5B5F_6F3_A_200


 23 25  0  0  0  0  0  0  0  0999 V2000
   10.3648   -9.4804   -5.3238 C   0  0  0  0  0  0  0  0  0  0  0  0
   11.0369   -8.9170   -4.2973 C   0  0  0  0  0  0  0  0  0  0  0  0
   11.2106   -7.4964   -4.1980 C   0  0  0  0  0  0  0  0  0  0  0  0
    9.9148   -7.3240   -6.1497 C   0  0  0  0  0  0  0  0  0  0  0  0
   10.6313   -6.7259   -5.1550 C   0  0  0  0  0  0  0  0  0  0  0  0
    9.7449   -8.6482   -6.2013 C   0  0  0  0  0  0  0  0  0  0  0  0
   10.8070  -12.0302   -4.9446 C   0  0  0  0  0  0  0  0  0  0  0  0
    9.2446  -15.3698   -5.9296 N   0  0  0  0  0  0  0  0  0  0  0  0
   10.1438  -10.8712   -5.4248 C   0  0  0  0  0  0  0  0  0  0  0  0
    9.0309  -11.3421   -6.0249 O   0  0  0  0  0  0  0  0  0  0  0  0
    9.0690  -12.6952   -6.1380 C   0  0  0  0  0  0  0  0  0  0  0  0
    8.0148  -13.4683   -6.5689 C   0  0  0  0  0  0  0  0  0  0  0  0
    8.1561  -14.8174   -6.5345 C   0  0  0  0  0  0  0  0  0  0  0  0
   10.2137  -14.6768   -5.2456 C   0  0  0  0  0  0  0  0  0  0  0  0
   11.1894  -15.2111   -4.6372 O   0  0  0  0  0  0  0  0  0  0  0  0
   10.1043  -13.2037   -5.3636 C   0  0  0  0  0  0  0  0  0  0  0  0
    9.3452  -16.3474   -5.9876 H   0  0  0  0  0  0  0  0  0  0  0  0
   13.4113   -7.1922   -2.8189 O   0  0  0  0  0  0  0  0  0  0  0  0
   11.9630   -6.8090   -2.9197 S   0  0  0  0  0  0  0  0  0  0  0  0
   11.9509   -5.3599   -3.1334 O   0  0  0  0  0  0  0  0  0  0  0  0
   11.2648   -7.1200   -1.6147 N   0  0  0  0  0  0  0  0  0  0  0  0
   12.2422   -7.5137   -0.6254 C   0  0  0  0  0  0  0  0  0  0  0  0
   10.6006   -7.8808   -1.7577 H   0  0  0  0  0  0  0  0  0  0  0  0
 18 19  2  0  0  0
  5  4  2  0  0  0
  5  3  1  0  0  0
 21 19  1  0  0  0
 21 22  1  0  0  0
 19  3  1  0  0  0
 19 20  2  0  0  0
  4  6  1  0  0  0
  3  2  2  0  0  0
  6  1  2  0  0  0
  2  1  1  0  0  0
  1  9  1  0  0  0
  9  7  2  0  0  0
  9 10  1  0  0  0
  7 16  1  0  0  0
 10 11  1  0  0  0
 16 11  2  0  0  0
 16 14  1  0  0  0
 15 14  2  0  0  0
 11 12  1  0  0  0
 14  8  1  0  0  0
 12 13  2  0  0  0
  8 13  1  0  0  0
  8 17  1  0  0  0
 21 23  1  0  0  0
M  END
> <minimizedAffinity>
-8.68178

$$$$
