1BNQ_AL4_A_555
  RCSB PDB12061702053D
Coordinates from PDB:1BNQ:A:555 Model:1 without hydrogens
 22 23  0  0  0  0            999 V2000
   -5.4110    2.1300   15.9940   C 0  0  0  0  0  0  0  0  0  0  0  0
   -3.4750    5.2100   12.8070   C 0  0  0  0  0  0  0  0  0  0  0  0
   -3.0900    3.9100   13.5610   C 0  0  0  0  0  0  0  0  0  0  0  0
   -3.3570    7.4280   13.8130   C 0  0  0  0  0  0  0  0  0  0  0  0
   -2.1140    7.2940   14.6710   C 0  0  0  0  0  0  0  0  0  0  0  0
   -1.8980    9.6140   15.1440   C 0  0  0  0  0  0  0  0  0  0  0  0
   -1.4990    2.9730   11.8820   C 0  0  0  0  0  0  0  0  0  0  0  0
   -5.3690    0.9060   18.2470   O 0  0  0  0  0  0  0  0  0  0  0  0
   -7.3410    1.0020   17.0140   O 0  0  0  0  0  0  0  0  0  0  0  0
   -5.5150   -0.4740   16.3480   N 0  0  0  0  0  0  0  0  0  0  0  0
   -5.9400    0.8170   16.9460   S 0  0  0  0  0  0  0  0  0  0  0  0
   -4.2770    2.2090   15.2360   C 0  0  0  0  0  0  0  0  0  0  0  0
   -4.1380    3.3910   14.5620   C 0  0  0  0  0  0  0  0  0  0  0  0
   -5.2030    4.2360   14.8560   C 0  0  0  0  0  0  0  0  0  0  0  0
   -6.3670    3.5540   15.9020   S 0  0  0  0  0  0  0  0  0  0  0  0
   -5.3460    5.8670   14.3380   S 0  0  0  0  0  0  0  0  0  0  0  0
   -6.3440    5.9330   13.3320   O 0  0  0  0  0  0  0  0  0  0  0  0
   -5.7570    6.7250   15.3850   O 0  0  0  0  0  0  0  0  0  0  0  0
   -3.9590    6.1200   13.8370   N 0  0  0  0  0  0  0  0  0  0  0  0
   -2.8090    2.9050   12.5390   N 0  0  0  0  0  0  0  0  0  0  0  0
   -1.3150    8.4560   14.5440   O 0  0  0  0  0  0  0  0  0  0  0  0
   -1.2660    1.8440   10.8680   C 0  0  0  0  0  0  0  0  0  0  0  0
  1 11  1  0  0  0  0
  1 12  2  0  0  0  0
  1 15  1  0  0  0  0
  2  3  1  0  0  0  0
  2 19  1  0  0  0  0
  3 13  1  0  0  0  0
  3 20  1  0  0  0  0
  4  5  1  0  0  0  0
  4 19  1  0  0  0  0
  5 21  1  0  0  0  0
  6 21  1  0  0  0  0
  7 20  1  0  0  0  0
  7 22  1  0  0  0  0
  8 11  2  0  0  0  0
  9 11  2  0  0  0  0
 10 11  1  0  0  0  0
 12 13  1  0  0  0  0
 13 14  2  0  0  0  0
 14 15  1  0  0  0  0
 14 16  1  0  0  0  0
 16 17  2  0  0  0  0
 16 18  2  0  0  0  0
 16 19  1  0  0  0  0
A    1
C3
A    2
C9
A    3
C10
A    4
C11
A    5
C12
A    6
C14
A    7
C16
A    8
O1A
A    9
O2A
A   10
N21
A   11
S1
A   12
C4
A   13
C5
A   14
C6
A   15
S2
A   16
S7
A   17
O3B
A   18
O4B
A   19
N8
A   20
N15
A   21
O13
A   22
C17
M  END
>  <InstanceId>
1BNQ_AL4_A_555

>  <ChemCompId>
AL4

>  <PdbId>
1BNQ

>  <ChainId>
A

>  <ResidueNumber>
555

>  <InsertionCode>


>  <Model>
1

>  <AltIds>


>  <MissingHeavyAtoms>
0

>  <ObservedFormula>
C11 N3 O5 S3

>  <Name>
(R)-4-ETHYLAMINO-3,4-DIHYDRO-2-(2-METHOYLETHYL)-2H-THIENO[3,2-E]-1,2-THIAZINE-6-SULFONAMIDE-1,1-DIOXIDE

>  <SystematicName>
(2S,4R)-4-ethylamino-2-(2-methoxyethyl)-1,1-dioxo-3,4-dihydrothieno[4,5-e][1,2]thiazine-6-sulfonamide

>  <Synonyms>
AL4623

>  <Type>
NON-POLYMER

>  <Formula>
C11 H19 N3 O5 S3

>  <MolecularWeight>
369.481

>  <ModifiedDate>
2011-06-04

>  <Parent>


>  <OneLetterCode>


>  <SubcomponentList>


>  <AmbiguousFlag>
N

>  <InChI>
InChI=1S/C11H19N3O5S3/c1-3-13-9-7-14(4-5-19-2)22(17,18)11-8(9)6-10(20-11)21(12,15)16/h6,9,13H,3-5,7H2,1-2H3,(H2,12,15,16)/t9-/m0/s1

>  <InChIKey>
XACIEZJJSXJZMD-VIFPVBQESA-N

>  <SMILES>
CCN[C@H]1C[N@](S(=O)(=O)c2c1cc(s2)S(=O)(=O)N)CCOC

$$$$
