1YPG_UIR_H_5555


 37 43  0  0  0  0  0  0  0  0999 V2000
   15.4545  -11.3480   19.7603 C   0  0  0  0  0  0  0  0  0  0  0  0
   15.2906  -12.5578   18.8923 N   0  0  0  0  0  0  0  0  0  0  0  0
   14.2545  -12.4135   17.8239 C   0  0  0  0  0  0  0  0  0  0  0  0
   15.0274  -12.4961   16.4798 C   0  0  0  0  0  0  0  0  0  0  0  0
   16.4170  -11.9986   16.8354 C   0  0  0  0  0  0  0  0  0  0  0  0
   16.6330  -12.6986   18.2051 C   0  0  0  0  0  0  0  0  0  0  0  0
   17.6695  -11.8434   18.9902 C   0  0  0  0  0  0  0  0  0  0  0  0
   18.8379  -12.7268   19.5445 C   0  0  0  0  0  0  0  0  0  0  0  0
   18.3325  -13.2429   20.7871 N   0  0  0  0  0  0  0  0  0  0  0  0
   17.1497  -12.6607   21.1873 C   0  0  0  0  0  0  0  0  0  0  0  0
   16.6315  -12.8049   22.3243 O   0  0  0  0  0  0  0  0  0  0  0  0
   16.9096  -11.4305   20.2851 C   0  0  0  0  0  0  0  0  0  0  0  0
   12.2321  -10.9841   22.6016 C   0  0  0  0  0  0  0  0  0  0  0  0
   13.0285   -9.8711   22.2906 C   0  0  0  0  0  0  0  0  0  0  0  0
   14.0814  -10.0043   21.3852 C   0  0  0  0  0  0  0  0  0  0  0  0
   14.3647  -11.2335   20.7817 C   0  0  0  0  0  0  0  0  0  0  0  0
   13.5598  -12.3375   21.0981 C   0  0  0  0  0  0  0  0  0  0  0  0
   12.5138  -12.2171   21.9973 C   0  0  0  0  0  0  0  0  0  0  0  0
   10.4059  -11.8278   24.0286 N   0  0  0  0  0  0  0  0  0  0  0  0
   11.1620  -10.8442   23.5357 C   0  0  0  0  0  0  0  0  0  0  0  0
   10.8223   -9.6208   24.0214 N   0  0  0  0  0  0  0  0  0  0  0  0
   10.5628  -12.7579   23.7464 H   0  0  0  0  0  0  0  0  0  0  0  0
    9.6914  -11.6232   24.6742 H   0  0  0  0  0  0  0  0  0  0  0  0
   10.0826   -9.5349   24.6654 H   0  0  0  0  0  0  0  0  0  0  0  0
   20.3370  -12.8237   19.2753 C   0  0  0  0  0  0  0  0  0  0  0  0
   21.1617  -12.1460   19.5592 C   0  0  0  0  0  0  0  0  0  0  0  0
   20.6879  -12.1991   17.9485 C   0  0  0  0  0  0  0  0  0  0  0  0
   18.9027  -14.3814   21.5759 C   0  0  0  0  0  0  0  0  0  0  0  0
   19.9058  -14.0112   22.6604 C   0  0  0  0  0  0  0  0  0  0  0  0
   21.2753  -14.0948   22.3319 C   0  0  0  0  0  0  0  0  0  0  0  0
   22.2113  -13.7531   23.3293 C   0  0  0  0  0  0  0  0  0  0  0  0
   23.6087  -13.7807   23.1933 O   0  0  0  0  0  0  0  0  0  0  0  0
   24.0550  -13.3511   24.5032 C   0  0  0  0  0  0  0  0  0  0  0  0
   22.9090  -13.0740   25.3815 O   0  0  0  0  0  0  0  0  0  0  0  0
   21.8016  -13.3384   24.6133 C   0  0  0  0  0  0  0  0  0  0  0  0
   20.4555  -13.2578   24.9909 C   0  0  0  0  0  0  0  0  0  0  0  0
   19.5281  -13.5896   23.9742 C   0  0  0  0  0  0  0  0  0  0  0  0
 19 20  1  0  0  0
 20 13  1  0  0  0
 20 21  2  0  0  0
 13 14  2  0  0  0
 13 18  1  0  0  0
 14 15  1  0  0  0
 15 16  2  0  0  0
 16  1  1  0  0  0
 16 17  1  0  0  0
  1  2  1  0  0  0
  1 12  1  0  0  0
  2  3  1  0  0  0
  2  6  1  0  0  0
  3  4  1  0  0  0
  4  5  1  0  0  0
  5  6  1  0  0  0
  6  7  1  0  0  0
  7  8  1  0  0  0
  7 12  1  0  0  0
 25  8  1  0  0  0
 25 26  1  0  0  0
 25 27  1  0  0  0
  8  9  1  0  0  0
 26 27  1  0  0  0
  9 10  1  0  0  0
  9 28  1  0  0  0
 10 11  2  0  0  0
 10 12  1  0  0  0
 28 29  1  0  0  0
 29 30  2  0  0  0
 29 37  1  0  0  0
 30 31  1  0  0  0
 31 32  1  0  0  0
 31 35  2  0  0  0
 32 33  1  0  0  0
 33 34  1  0  0  0
 34 35  1  0  0  0
 35 36  1  0  0  0
 36 37  2  0  0  0
 17 18  2  0  0  0
 19 22  1  0  0  0
 19 23  1  0  0  0
 21 24  1  0  0  0
M  END
> <minimizedAffinity>
-12.43203

$$$$
1YPG_UIR_H_5555


 37 43  0  0  0  0  0  0  0  0999 V2000
   15.4740  -11.1031   19.7143 C   0  0  0  0  0  0  0  0  0  0  0  0
   15.2718  -12.1458   18.6580 N   0  0  0  0  0  0  0  0  0  0  0  0
   14.3222  -11.7480   17.5736 C   0  0  0  0  0  0  0  0  0  0  0  0
   15.1721  -11.6909   16.2754 C   0  0  0  0  0  0  0  0  0  0  0  0
   16.5706  -11.3788   16.7773 C   0  0  0  0  0  0  0  0  0  0  0  0
   16.6408  -12.2973   18.0279 C   0  0  0  0  0  0  0  0  0  0  0  0
   17.6883  -11.6680   18.9916 C   0  0  0  0  0  0  0  0  0  0  0  0
   18.7444  -12.7259   19.4587 C   0  0  0  0  0  0  0  0  0  0  0  0
   18.1198  -13.3802   20.5757 N   0  0  0  0  0  0  0  0  0  0  0  0
   16.9632  -12.7641   21.0011 C   0  0  0  0  0  0  0  0  0  0  0  0
   16.3622  -13.0351   22.0723 O   0  0  0  0  0  0  0  0  0  0  0  0
   16.8806  -11.3935   20.2943 C   0  0  0  0  0  0  0  0  0  0  0  0
   12.2714  -10.9961   22.5991 C   0  0  0  0  0  0  0  0  0  0  0  0
   12.5268  -12.1681   21.8705 C   0  0  0  0  0  0  0  0  0  0  0  0
   13.5523  -12.1861   20.9249 C   0  0  0  0  0  0  0  0  0  0  0  0
   14.3323  -11.0511   20.6829 C   0  0  0  0  0  0  0  0  0  0  0  0
   14.0696   -9.8869   21.4194 C   0  0  0  0  0  0  0  0  0  0  0  0
   13.0526   -9.8573   22.3586 C   0  0  0  0  0  0  0  0  0  0  0  0
   10.1825  -11.8249   23.6150 N   0  0  0  0  0  0  0  0  0  0  0  0
   11.2149  -10.9806   23.5586 C   0  0  0  0  0  0  0  0  0  0  0  0
   11.1904  -10.0471   24.5466 N   0  0  0  0  0  0  0  0  0  0  0  0
   10.0975  -12.5438   22.9478 H   0  0  0  0  0  0  0  0  0  0  0  0
    9.5061  -11.7287   24.3239 H   0  0  0  0  0  0  0  0  0  0  0  0
   10.4572  -10.0448   25.2037 H   0  0  0  0  0  0  0  0  0  0  0  0
   20.2455  -12.9124   19.2559 C   0  0  0  0  0  0  0  0  0  0  0  0
   21.1012  -12.3676   19.6930 C   0  0  0  0  0  0  0  0  0  0  0  0
   20.7331  -12.1131   18.0739 C   0  0  0  0  0  0  0  0  0  0  0  0
   18.5454  -14.6723   21.2024 C   0  0  0  0  0  0  0  0  0  0  0  0
   18.8112  -14.6362   22.7016 C   0  0  0  0  0  0  0  0  0  0  0  0
   18.2117  -15.6407   23.4901 C   0  0  0  0  0  0  0  0  0  0  0  0
   18.4529  -15.6159   24.8790 C   0  0  0  0  0  0  0  0  0  0  0  0
   17.9406  -16.5221   25.8215 O   0  0  0  0  0  0  0  0  0  0  0  0
   18.4949  -16.0222   27.0635 C   0  0  0  0  0  0  0  0  0  0  0  0
   19.3273  -14.8342   26.8242 O   0  0  0  0  0  0  0  0  0  0  0  0
   19.2664  -14.6260   25.4680 C   0  0  0  0  0  0  0  0  0  0  0  0
   19.8669  -13.5992   24.7291 C   0  0  0  0  0  0  0  0  0  0  0  0
   19.6275  -13.6467   23.3348 C   0  0  0  0  0  0  0  0  0  0  0  0
 19 20  1  0  0  0
 20 13  1  0  0  0
 20 21  2  0  0  0
 13 14  2  0  0  0
 13 18  1  0  0  0
 14 15  1  0  0  0
 15 16  2  0  0  0
 16  1  1  0  0  0
 16 17  1  0  0  0
  1  2  1  0  0  0
  1 12  1  0  0  0
  2  3  1  0  0  0
  2  6  1  0  0  0
  3  4  1  0  0  0
  4  5  1  0  0  0
  5  6  1  0  0  0
  6  7  1  0  0  0
  7  8  1  0  0  0
  7 12  1  0  0  0
 25  8  1  0  0  0
 25 26  1  0  0  0
 25 27  1  0  0  0
  8  9  1  0  0  0
 26 27  1  0  0  0
  9 10  1  0  0  0
  9 28  1  0  0  0
 10 11  2  0  0  0
 10 12  1  0  0  0
 28 29  1  0  0  0
 29 30  2  0  0  0
 29 37  1  0  0  0
 30 31  1  0  0  0
 31 32  1  0  0  0
 31 35  2  0  0  0
 32 33  1  0  0  0
 33 34  1  0  0  0
 34 35  1  0  0  0
 35 36  1  0  0  0
 36 37  2  0  0  0
 17 18  2  0  0  0
 19 22  1  0  0  0
 19 23  1  0  0  0
 21 24  1  0  0  0
M  END
> <minimizedAffinity>
-10.78626

$$$$
1YPG_UIR_H_5555


 37 43  0  0  0  0  0  0  0  0999 V2000
   15.4828  -11.7012   19.6337 C   0  0  0  0  0  0  0  0  0  0  0  0
   15.4345  -13.0582   19.0014 N   0  0  0  0  0  0  0  0  0  0  0  0
   14.3795  -13.2120   17.9529 C   0  0  0  0  0  0  0  0  0  0  0  0
   15.1447  -13.4604   16.6249 C   0  0  0  0  0  0  0  0  0  0  0  0
   16.4798  -12.7731   16.8478 C   0  0  0  0  0  0  0  0  0  0  0  0
   16.7780  -13.1889   18.3143 C   0  0  0  0  0  0  0  0  0  0  0  0
   17.7295  -12.1084   18.9050 C   0  0  0  0  0  0  0  0  0  0  0  0
   18.9863  -12.7580   19.5768 C   0  0  0  0  0  0  0  0  0  0  0  0
   18.5470  -13.0876   20.9051 N   0  0  0  0  0  0  0  0  0  0  0  0
   17.3149  -12.5613   21.2263 C   0  0  0  0  0  0  0  0  0  0  0  0
   16.8243  -12.5474   22.3844 O   0  0  0  0  0  0  0  0  0  0  0  0
   16.9434  -11.5443   20.1251 C   0  0  0  0  0  0  0  0  0  0  0  0
   12.2710  -11.1201   22.4510 C   0  0  0  0  0  0  0  0  0  0  0  0
   13.1068  -10.0480   22.1018 C   0  0  0  0  0  0  0  0  0  0  0  0
   14.1557  -10.2513   21.2047 C   0  0  0  0  0  0  0  0  0  0  0  0
   14.3961  -11.5110   20.6473 C   0  0  0  0  0  0  0  0  0  0  0  0
   13.5523  -12.5736   21.0015 C   0  0  0  0  0  0  0  0  0  0  0  0
   12.5098  -12.3836   21.8928 C   0  0  0  0  0  0  0  0  0  0  0  0
   10.8882   -9.7560   23.9708 N   0  0  0  0  0  0  0  0  0  0  0  0
   11.2052  -10.9085   23.3764 C   0  0  0  0  0  0  0  0  0  0  0  0
   10.3851  -11.9321   23.7339 N   0  0  0  0  0  0  0  0  0  0  0  0
   11.4155   -8.9455   23.7859 H   0  0  0  0  0  0  0  0  0  0  0  0
   10.1272   -9.7167   24.5941 H   0  0  0  0  0  0  0  0  0  0  0  0
    9.6527  -11.7758   24.3730 H   0  0  0  0  0  0  0  0  0  0  0  0
   20.4850  -12.7547   19.2888 C   0  0  0  0  0  0  0  0  0  0  0  0
   21.2591  -12.0035   19.5263 C   0  0  0  0  0  0  0  0  0  0  0  0
   20.7711  -12.1717   17.9279 C   0  0  0  0  0  0  0  0  0  0  0  0
   19.2366  -14.0031   21.8694 C   0  0  0  0  0  0  0  0  0  0  0  0
   18.4679  -15.2536   22.2752 C   0  0  0  0  0  0  0  0  0  0  0  0
   18.2707  -15.4736   23.6547 C   0  0  0  0  0  0  0  0  0  0  0  0
   17.5593  -16.6282   24.0399 C   0  0  0  0  0  0  0  0  0  0  0  0
   17.2711  -17.0183   25.3578 O   0  0  0  0  0  0  0  0  0  0  0  0
   16.5436  -18.2559   25.1615 C   0  0  0  0  0  0  0  0  0  0  0  0
   16.4140  -18.5652   23.7300 O   0  0  0  0  0  0  0  0  0  0  0  0
   17.0561  -17.5363   23.0855 C   0  0  0  0  0  0  0  0  0  0  0  0
   17.2427  -17.3696   21.7077 C   0  0  0  0  0  0  0  0  0  0  0  0
   17.9456  -16.1984   21.3365 C   0  0  0  0  0  0  0  0  0  0  0  0
 19 20  1  0  0  0
 20 13  1  0  0  0
 20 21  2  0  0  0
 13 14  2  0  0  0
 13 18  1  0  0  0
 14 15  1  0  0  0
 15 16  2  0  0  0
 16  1  1  0  0  0
 16 17  1  0  0  0
  1  2  1  0  0  0
  1 12  1  0  0  0
  2  3  1  0  0  0
  2  6  1  0  0  0
  3  4  1  0  0  0
  4  5  1  0  0  0
  5  6  1  0  0  0
  6  7  1  0  0  0
  7  8  1  0  0  0
  7 12  1  0  0  0
 25  8  1  0  0  0
 25 26  1  0  0  0
 25 27  1  0  0  0
  8  9  1  0  0  0
 26 27  1  0  0  0
  9 10  1  0  0  0
  9 28  1  0  0  0
 10 11  2  0  0  0
 10 12  1  0  0  0
 28 29  1  0  0  0
 29 30  2  0  0  0
 29 37  1  0  0  0
 30 31  1  0  0  0
 31 32  1  0  0  0
 31 35  2  0  0  0
 32 33  1  0  0  0
 33 34  1  0  0  0
 34 35  1  0  0  0
 35 36  1  0  0  0
 36 37  2  0  0  0
 17 18  2  0  0  0
 19 22  1  0  0  0
 19 23  1  0  0  0
 21 24  1  0  0  0
M  END
> <minimizedAffinity>
-10.54909

$$$$
1YPG_UIR_H_5555


 37 43  0  0  0  0  0  0  0  0999 V2000
   13.4872  -12.5776   19.2120 C   0  0  0  0  0  0  0  0  0  0  0  0
   14.0005  -13.9636   19.4556 N   0  0  0  0  0  0  0  0  0  0  0  0
   12.9316  -14.9959   19.6220 C   0  0  0  0  0  0  0  0  0  0  0  0
   13.0995  -15.9670   18.4222 C   0  0  0  0  0  0  0  0  0  0  0  0
   13.7309  -15.1009   17.3470 C   0  0  0  0  0  0  0  0  0  0  0  0
   14.7607  -14.2991   18.1893 C   0  0  0  0  0  0  0  0  0  0  0  0
   15.0337  -12.9718   17.4239 C   0  0  0  0  0  0  0  0  0  0  0  0
   16.5690  -12.7208   17.2432 C   0  0  0  0  0  0  0  0  0  0  0  0
   16.9710  -12.0884   18.4697 N   0  0  0  0  0  0  0  0  0  0  0  0
   15.9146  -11.7194   19.2734 C   0  0  0  0  0  0  0  0  0  0  0  0
   16.0123  -10.9803   20.2865 O   0  0  0  0  0  0  0  0  0  0  0  0
   14.6237  -11.8639   18.4383 C   0  0  0  0  0  0  0  0  0  0  0  0
   11.9643  -10.7190   22.7920 C   0  0  0  0  0  0  0  0  0  0  0  0
   12.2207   -9.9458   21.6491 C   0  0  0  0  0  0  0  0  0  0  0  0
   12.7324  -10.5536   20.5024 C   0  0  0  0  0  0  0  0  0  0  0  0
   13.0021  -11.9252   20.4704 C   0  0  0  0  0  0  0  0  0  0  0  0
   12.7388  -12.6878   21.6175 C   0  0  0  0  0  0  0  0  0  0  0  0
   12.2332  -12.0944   22.7619 C   0  0  0  0  0  0  0  0  0  0  0  0
   11.3869   -8.7776   24.1993 N   0  0  0  0  0  0  0  0  0  0  0  0
   11.4495  -10.0904   23.9655 C   0  0  0  0  0  0  0  0  0  0  0  0
   10.9514  -10.8349   24.9881 N   0  0  0  0  0  0  0  0  0  0  0  0
   11.7199   -8.1413   23.5259 H   0  0  0  0  0  0  0  0  0  0  0  0
   11.0078   -8.4458   25.0451 H   0  0  0  0  0  0  0  0  0  0  0  0
   10.5986  -10.3918   25.7933 H   0  0  0  0  0  0  0  0  0  0  0  0
   17.5172  -12.6554   16.0491 C   0  0  0  0  0  0  0  0  0  0  0  0
   17.5672  -11.9368   15.2117 C   0  0  0  0  0  0  0  0  0  0  0  0
   16.9987  -13.4870   14.9030 C   0  0  0  0  0  0  0  0  0  0  0  0
   18.3745  -11.9142   18.9632 C   0  0  0  0  0  0  0  0  0  0  0  0
   18.8642  -12.9442   19.9724 C   0  0  0  0  0  0  0  0  0  0  0  0
   20.1217  -12.7180   20.5706 C   0  0  0  0  0  0  0  0  0  0  0  0
   20.5830  -13.6657   21.5070 C   0  0  0  0  0  0  0  0  0  0  0  0
   21.8049  -13.6162   22.1973 O   0  0  0  0  0  0  0  0  0  0  0  0
   21.7557  -14.8221   22.9991 C   0  0  0  0  0  0  0  0  0  0  0  0
   20.5015  -15.5535   22.7675 O   0  0  0  0  0  0  0  0  0  0  0  0
   19.8189  -14.8025   21.8421 C   0  0  0  0  0  0  0  0  0  0  0  0
   18.5748  -15.0785   21.2615 C   0  0  0  0  0  0  0  0  0  0  0  0
   18.1190  -14.1103   20.3350 C   0  0  0  0  0  0  0  0  0  0  0  0
 19 20  1  0  0  0
 20 13  1  0  0  0
 20 21  2  0  0  0
 13 14  2  0  0  0
 13 18  1  0  0  0
 14 15  1  0  0  0
 15 16  2  0  0  0
 16  1  1  0  0  0
 16 17  1  0  0  0
  1  2  1  0  0  0
  1 12  1  0  0  0
  2  3  1  0  0  0
  2  6  1  0  0  0
  3  4  1  0  0  0
  4  5  1  0  0  0
  5  6  1  0  0  0
  6  7  1  0  0  0
  7  8  1  0  0  0
  7 12  1  0  0  0
 25  8  1  0  0  0
 25 26  1  0  0  0
 25 27  1  0  0  0
  8  9  1  0  0  0
 26 27  1  0  0  0
  9 10  1  0  0  0
  9 28  1  0  0  0
 10 11  2  0  0  0
 10 12  1  0  0  0
 28 29  1  0  0  0
 29 30  2  0  0  0
 29 37  1  0  0  0
 30 31  1  0  0  0
 31 32  1  0  0  0
 31 35  2  0  0  0
 32 33  1  0  0  0
 33 34  1  0  0  0
 34 35  1  0  0  0
 35 36  1  0  0  0
 36 37  2  0  0  0
 17 18  2  0  0  0
 19 22  1  0  0  0
 19 23  1  0  0  0
 21 24  1  0  0  0
M  END
> <minimizedAffinity>
-9.65725

$$$$
