3NU3_478_B_401
  RCSB PDB12061709583D
Coordinates from PDB:3NU3:B:401 Model:1 without hydrogens
 35 37  0  0  0  0            999 V2000
   12.4560   18.0160   19.7620   C 0  0  0  0  0  0  0  0  0  0  0  0
   14.4290   18.7200   20.8760   C 0  0  0  0  0  0  0  0  0  0  0  0
   14.6150   20.5140   18.2890   C 0  0  0  0  0  0  0  0  0  0  0  0
   13.8340   18.5760   19.4830   C 0  0  0  0  0  0  0  0  0  0  0  0
   15.1800   22.6440   17.1740   C 0  0  0  0  0  0  0  0  0  0  0  0
   15.6420   23.7670   18.0870   C 0  0  0  0  0  0  0  0  0  0  0  0
   14.4840   23.1260   15.9110   C 0  0  0  0  0  0  0  0  0  0  0  0
   14.0720   21.9840   14.9890   C 0  0  0  0  0  0  0  0  0  0  0  0
   12.7980   21.4770   14.9830   C 0  0  0  0  0  0  0  0  0  0  0  0
   15.0220   21.3710   14.1580   C 0  0  0  0  0  0  0  0  0  0  0  0
   12.4520   20.3800   14.2270   C 0  0  0  0  0  0  0  0  0  0  0  0
   14.6940   20.2900   13.3760   C 0  0  0  0  0  0  0  0  0  0  0  0
   13.4110   19.8100   13.4310   C 0  0  0  0  0  0  0  0  0  0  0  0
   16.7590   24.6690   17.5750   C 0  0  0  0  0  0  0  0  0  0  0  0
   19.0180   24.3960   18.5690   C 0  0  0  0  0  0  0  0  0  0  0  0
   18.6750   23.8240   19.9270   C 0  0  0  0  0  0  0  0  0  0  0  0
   19.5070   25.0860   15.3930   C 0  0  0  0  0  0  0  0  0  0  0  0
   18.7370   26.0010   14.6500   C 0  0  0  0  0  0  0  0  0  0  0  0
   19.2680   27.1610   14.1740   C 0  0  0  0  0  0  0  0  0  0  0  0
   20.6050   27.4550   14.3740   C 0  0  0  0  0  0  0  0  0  0  0  0
   21.4030   26.5730   15.1280   C 0  0  0  0  0  0  0  0  0  0  0  0
   20.8550   25.3770   15.6600   C 0  0  0  0  0  0  0  0  0  0  0  0
   18.6000   22.2940   19.9200   C 0  0  0  0  0  0  0  0  0  0  0  0
   19.6840   24.2860   20.9880   C 0  0  0  0  0  0  0  0  0  0  0  0
   13.2970   18.3110   21.8450   C 0  0  0  0  0  0  0  0  0  0  0  0
   14.2780   21.7450   17.9010   N 0  0  0  0  0  0  0  0  0  0  0  0
   18.0690   24.0060   17.5200   N 0  0  0  0  0  0  0  0  0  0  0  0
   21.1080   28.6900   14.0090   N 0  0  0  0  0  0  0  0  0  0  0  0
   13.5750   19.8880   18.8630   O 0  0  0  0  0  0  0  0  0  0  0  0
   15.7730   19.9990   18.1850   O 0  0  0  0  0  0  0  0  0  0  0  0
   14.4720   24.5600   18.4230   O 0  0  0  0  0  0  0  0  0  0  0  0
   17.6060   23.4010   15.1600   O 0  0  0  0  0  0  0  0  0  0  0  0
   19.7300   22.6620   16.2780   O 0  0  0  0  0  0  0  0  0  0  0  0
   12.0980   18.4530   21.0540   O 0  0  0  0  0  0  0  0  0  0  0  0
   18.7070   23.6850   16.0520   S 0  0  0  0  0  0  0  0  0  0  0  0
  1  4  1  0  0  0  0
  1 34  1  0  0  0  0
  2  4  1  0  0  0  0
  2 25  1  0  0  0  0
  3 26  1  0  0  0  0
  3 29  1  0  0  0  0
  3 30  2  0  0  0  0
  4 29  1  0  0  0  0
  5  6  1  0  0  0  0
  5  7  1  0  0  0  0
  5 26  1  0  0  0  0
  6 14  1  0  0  0  0
  6 31  1  0  0  0  0
  7  8  1  0  0  0  0
  8  9  2  0  0  0  0
  8 10  1  0  0  0  0
  9 11  1  0  0  0  0
 10 12  2  0  0  0  0
 11 13  2  0  0  0  0
 12 13  1  0  0  0  0
 14 27  1  0  0  0  0
 15 16  1  0  0  0  0
 15 27  1  0  0  0  0
 16 23  1  0  0  0  0
 16 24  1  0  0  0  0
 17 18  2  0  0  0  0
 17 22  1  0  0  0  0
 17 35  1  0  0  0  0
 18 19  1  0  0  0  0
 19 20  2  0  0  0  0
 20 21  1  0  0  0  0
 20 28  1  0  0  0  0
 21 22  2  0  0  0  0
 25 34  1  0  0  0  0
 27 35  1  0  0  0  0
 32 35  2  0  0  0  0
 33 35  2  0  0  0  0
A    1
C1
A    2
C2
A    3
C3
A    4
C4
A    5
C5
A    6
C6
A    7
C7
A    8
C8
A    9
C9
A   10
C10
A   11
C11
A   12
C12
A   13
C13
A   14
C14
A   15
C15
A   16
C16
A   17
C17
A   18
C18
A   19
C19
A   20
C20
A   21
C21
A   22
C22
A   23
C23
A   24
C24
A   25
C25
A   26
N1
A   27
N2
A   28
N3
A   29
O1
A   30
O2
A   31
O3
A   32
O4
A   33
O5
A   34
O6
A   35
S1
M  END
>  <InstanceId>
3NU3_478_B_401

>  <ChemCompId>
478

>  <PdbId>
3NU3

>  <ChainId>
B

>  <ResidueNumber>
401

>  <InsertionCode>


>  <Model>
1

>  <AltIds>


>  <MissingHeavyAtoms>
0

>  <ObservedFormula>
C25 N3 O6 S

>  <Name>
{3-[(4-AMINO-BENZENESULFONYL)-ISOBUTYL-AMINO]-1-BENZYL-2-HYDROXY-PROPYL}-CARBAMIC ACID TETRAHYDRO-FURAN-3-YL ESTER

>  <SystematicName>
[(3S)-oxolan-3-yl] N-[(2S,3R)-4-[(4-aminophenyl)sulfonyl-(2-methylpropyl)amino]-3-hydroxy-1-phenyl-butan-2-yl]carbamate

>  <Synonyms>
Amprenavir

>  <Type>
NON-POLYMER

>  <Formula>
C25 H35 N3 O6 S

>  <MolecularWeight>
505.627

>  <ModifiedDate>
2011-06-04

>  <Parent>


>  <OneLetterCode>


>  <SubcomponentList>


>  <AmbiguousFlag>
N

>  <InChI>
InChI=1S/C25H35N3O6S/c1-18(2)15-28(35(31,32)22-10-8-20(26)9-11-22)16-24(29)23(14-19-6-4-3-5-7-19)27-25(30)34-21-12-13-33-17-21/h3-11,18,21,23-24,29H,12-17,26H2,1-2H3,(H,27,30)/t21-,23-,24+/m0/s1

>  <InChIKey>
YMARZQAQMVYCKC-OEMFJLHTSA-N

>  <SMILES>
CC(C)C[N@](C[C@H]([C@H](Cc1ccccc1)NC(=O)O[C@H]2CCOC2)O)S(=O)(=O)c3ccc(cc3)N

$$$$
