3NU3_478_B_401


 39 41  0  0  0  0  0  0  0  0999 V2000
   15.5571   23.4951   18.0060 C   0  0  0  0  0  0  0  0  0  0  0  0
   14.4501   24.3084   18.4792 O   0  0  0  0  0  0  0  0  0  0  0  0
   14.0590   24.7881   17.7324 H   0  0  0  0  0  0  0  0  0  0  0  0
   14.9844   22.4671   17.0452 C   0  0  0  0  0  0  0  0  0  0  0  0
   14.3708   20.3744   18.2043 C   0  0  0  0  0  0  0  0  0  0  0  0
   14.0480   21.5869   17.7514 N   0  0  0  0  0  0  0  0  0  0  0  0
   15.5368   19.8672   18.1875 O   0  0  0  0  0  0  0  0  0  0  0  0
   13.1295   21.9089   17.8996 H   0  0  0  0  0  0  0  0  0  0  0  0
   13.3036   19.7600   18.7396 O   0  0  0  0  0  0  0  0  0  0  0  0
   12.1358   17.9579   19.7158 C   0  0  0  0  0  0  0  0  0  0  0  0
   14.1836   18.5846   20.7370 C   0  0  0  0  0  0  0  0  0  0  0  0
   13.5259   18.4471   19.3718 C   0  0  0  0  0  0  0  0  0  0  0  0
   13.0743   18.2454   21.7578 C   0  0  0  0  0  0  0  0  0  0  0  0
   11.8519   18.4318   21.0132 O   0  0  0  0  0  0  0  0  0  0  0  0
   14.2790   23.0754   15.8433 C   0  0  0  0  0  0  0  0  0  0  0  0
   13.9819   22.0541   14.7512 C   0  0  0  0  0  0  0  0  0  0  0  0
   12.7492   21.4687   14.6183 C   0  0  0  0  0  0  0  0  0  0  0  0
   15.0009   21.6336   13.8831 C   0  0  0  0  0  0  0  0  0  0  0  0
   12.5091   20.4722   13.6996 C   0  0  0  0  0  0  0  0  0  0  0  0
   14.7785   20.6579   12.9417 C   0  0  0  0  0  0  0  0  0  0  0  0
   13.5328   20.0896   12.8725 C   0  0  0  0  0  0  0  0  0  0  0  0
   16.6802   24.3861   17.4882 C   0  0  0  0  0  0  0  0  0  0  0  0
   18.0073   23.7603   17.5645 N   0  0  0  0  0  0  0  0  0  0  0  0
   17.8672   22.8607   15.2577 O   0  0  0  0  0  0  0  0  0  0  0  0
   20.0210   22.7534   16.5451 O   0  0  0  0  0  0  0  0  0  0  0  0
   18.8049   23.4769   16.1685 S   0  0  0  0  0  0  0  0  0  0  0  0
   19.2980   24.9671   15.4112 C   0  0  0  0  0  0  0  0  0  0  0  0
   20.5815   25.4664   15.7036 C   0  0  0  0  0  0  0  0  0  0  0  0
   21.0730   26.5777   15.0891 C   0  0  0  0  0  0  0  0  0  0  0  0
   20.2989   27.2783   14.1815 C   0  0  0  0  0  0  0  0  0  0  0  0
   19.0168   26.7996   13.8495 C   0  0  0  0  0  0  0  0  0  0  0  0
   18.5044   25.6233   14.4559 C   0  0  0  0  0  0  0  0  0  0  0  0
   20.8463   28.3236   13.4609 N   0  0  0  0  0  0  0  0  0  0  0  0
   21.7423   28.6623   13.6885 H   0  0  0  0  0  0  0  0  0  0  0  0
   20.3402   28.7291   12.7202 H   0  0  0  0  0  0  0  0  0  0  0  0
   18.8293   24.1622   18.7116 C   0  0  0  0  0  0  0  0  0  0  0  0
   18.5936   23.3131   19.9415 C   0  0  0  0  0  0  0  0  0  0  0  0
   18.7776   21.8170   19.6687 C   0  0  0  0  0  0  0  0  0  0  0  0
   19.5149   23.7448   21.0913 C   0  0  0  0  0  0  0  0  0  0  0  0
 10 12  1  0  0  0
 10 14  1  0  0  0
 11 12  1  0  0  0
 11 13  1  0  0  0
  5  6  1  0  0  0
  5  9  1  0  0  0
  5  7  2  0  0  0
 12  9  1  0  0  0
  4  1  1  0  0  0
  4 15  1  0  0  0
  4  6  1  0  0  0
  1 22  1  0  0  0
  1  2  1  0  0  0
 15 16  1  0  0  0
 16 17  2  0  0  0
 16 18  1  0  0  0
 17 19  1  0  0  0
 18 20  2  0  0  0
 19 21  2  0  0  0
 20 21  1  0  0  0
 22 23  1  0  0  0
 36 37  1  0  0  0
 36 23  1  0  0  0
 37 38  1  0  0  0
 37 39  1  0  0  0
 27 28  2  0  0  0
 27 32  1  0  0  0
 27 26  1  0  0  0
 28 29  1  0  0  0
 29 30  2  0  0  0
 30 31  1  0  0  0
 30 33  1  0  0  0
 31 32  2  0  0  0
 13 14  1  0  0  0
 23 26  1  0  0  0
 24 26  2  0  0  0
 25 26  2  0  0  0
  6  8  1  0  0  0
 33 34  1  0  0  0
 33 35  1  0  0  0
  2  3  1  0  0  0
M  END
> <minimizedAffinity>
-10.29392

$$$$
3NU3_478_B_401


 39 41  0  0  0  0  0  0  0  0999 V2000
   17.5139   21.3587   17.4089 C   0  0  0  0  0  0  0  0  0  0  0  0
   18.0689   20.0289   17.2232 O   0  0  0  0  0  0  0  0  0  0  0  0
   18.9967   20.0234   17.5062 H   0  0  0  0  0  0  0  0  0  0  0  0
   17.5449   21.6575   18.8982 C   0  0  0  0  0  0  0  0  0  0  0  0
   15.2687   21.1554   19.7141 C   0  0  0  0  0  0  0  0  0  0  0  0
   16.5569   20.8295   19.5970 N   0  0  0  0  0  0  0  0  0  0  0  0
   14.7056   22.1494   19.1554 O   0  0  0  0  0  0  0  0  0  0  0  0
   16.8613   19.9856   20.0025 H   0  0  0  0  0  0  0  0  0  0  0  0
   14.6113   20.2590   20.4672 O   0  0  0  0  0  0  0  0  0  0  0  0
   12.8617   19.0859   19.4054 C   0  0  0  0  0  0  0  0  0  0  0  0
   14.2356   17.8452   20.8894 C   0  0  0  0  0  0  0  0  0  0  0  0
   14.3020   18.9559   19.8515 C   0  0  0  0  0  0  0  0  0  0  0  0
   12.7357   17.4948   21.0134 C   0  0  0  0  0  0  0  0  0  0  0  0
   12.0649   18.6599   20.4880 O   0  0  0  0  0  0  0  0  0  0  0  0
   18.9076   21.4463   19.5389 C   0  0  0  0  0  0  0  0  0  0  0  0
   19.5711   22.7514   19.9638 C   0  0  0  0  0  0  0  0  0  0  0  0
   20.7560   23.1761   19.4198 C   0  0  0  0  0  0  0  0  0  0  0  0
   19.0075   23.5284   20.9873 C   0  0  0  0  0  0  0  0  0  0  0  0
   21.4075   24.2999   19.8752 C   0  0  0  0  0  0  0  0  0  0  0  0
   19.6270   24.6674   21.4417 C   0  0  0  0  0  0  0  0  0  0  0  0
   20.8234   25.0288   20.8781 C   0  0  0  0  0  0  0  0  0  0  0  0
   18.2065   22.3514   16.4825 C   0  0  0  0  0  0  0  0  0  0  0  0
   17.2932   23.3424   15.8973 N   0  0  0  0  0  0  0  0  0  0  0  0
   17.2940   25.2062   17.5333 O   0  0  0  0  0  0  0  0  0  0  0  0
   16.9030   25.6460   15.0918 O   0  0  0  0  0  0  0  0  0  0  0  0
   17.6095   24.9237   16.1516 S   0  0  0  0  0  0  0  0  0  0  0  0
   19.3093   25.2629   15.9703 C   0  0  0  0  0  0  0  0  0  0  0  0
   19.9400   26.0386   16.9616 C   0  0  0  0  0  0  0  0  0  0  0  0
   21.2805   26.2769   16.9373 C   0  0  0  0  0  0  0  0  0  0  0  0
   22.0608   25.7926   15.9027 C   0  0  0  0  0  0  0  0  0  0  0  0
   21.4692   24.9973   14.9024 C   0  0  0  0  0  0  0  0  0  0  0  0
   20.0795   24.7115   14.9331 C   0  0  0  0  0  0  0  0  0  0  0  0
   23.4367   25.9200   15.9504 N   0  0  0  0  0  0  0  0  0  0  0  0
   23.8558   26.4747   16.6475 H   0  0  0  0  0  0  0  0  0  0  0  0
   23.9973   25.4560   15.2873 H   0  0  0  0  0  0  0  0  0  0  0  0
   16.7423   22.9939   14.5827 C   0  0  0  0  0  0  0  0  0  0  0  0
   15.5855   22.0217   14.6589 C   0  0  0  0  0  0  0  0  0  0  0  0
   14.3424   22.6351   15.3107 C   0  0  0  0  0  0  0  0  0  0  0  0
   15.2261   21.4860   13.2657 C   0  0  0  0  0  0  0  0  0  0  0  0
 10 12  1  0  0  0
 10 14  1  0  0  0
 11 12  1  0  0  0
 11 13  1  0  0  0
  5  6  1  0  0  0
  5  9  1  0  0  0
  5  7  2  0  0  0
 12  9  1  0  0  0
  4  1  1  0  0  0
  4 15  1  0  0  0
  4  6  1  0  0  0
  1 22  1  0  0  0
  1  2  1  0  0  0
 15 16  1  0  0  0
 16 17  2  0  0  0
 16 18  1  0  0  0
 17 19  1  0  0  0
 18 20  2  0  0  0
 19 21  2  0  0  0
 20 21  1  0  0  0
 22 23  1  0  0  0
 36 37  1  0  0  0
 36 23  1  0  0  0
 37 38  1  0  0  0
 37 39  1  0  0  0
 27 28  2  0  0  0
 27 32  1  0  0  0
 27 26  1  0  0  0
 28 29  1  0  0  0
 29 30  2  0  0  0
 30 31  1  0  0  0
 30 33  1  0  0  0
 31 32  2  0  0  0
 13 14  1  0  0  0
 23 26  1  0  0  0
 24 26  2  0  0  0
 25 26  2  0  0  0
  6  8  1  0  0  0
 33 34  1  0  0  0
 33 35  1  0  0  0
  2  3  1  0  0  0
M  END
> <minimizedAffinity>
-9.60296

$$$$
3NU3_478_B_401


 39 41  0  0  0  0  0  0  0  0999 V2000
   15.0969   22.5104   18.9594 C   0  0  0  0  0  0  0  0  0  0  0  0
   13.9695   23.4236   18.8846 O   0  0  0  0  0  0  0  0  0  0  0  0
   13.6229   23.4358   17.9787 H   0  0  0  0  0  0  0  0  0  0  0  0
   14.5732   21.1191   18.6460 C   0  0  0  0  0  0  0  0  0  0  0  0
   13.6543   20.3679   16.4802 C   0  0  0  0  0  0  0  0  0  0  0  0
   14.6589   20.8635   17.2046 N   0  0  0  0  0  0  0  0  0  0  0  0
   12.4739   20.1566   16.9035 O   0  0  0  0  0  0  0  0  0  0  0  0
   15.5053   21.0692   16.7457 H   0  0  0  0  0  0  0  0  0  0  0  0
   14.0327   20.1629   15.2083 O   0  0  0  0  0  0  0  0  0  0  0  0
   13.5593   19.8963   12.9127 C   0  0  0  0  0  0  0  0  0  0  0  0
   13.4575   22.1036   13.7770 C   0  0  0  0  0  0  0  0  0  0  0  0
   13.1389   20.6628   14.1481 C   0  0  0  0  0  0  0  0  0  0  0  0
   14.1220   22.0264   12.3841 C   0  0  0  0  0  0  0  0  0  0  0  0
   14.5708   20.6576   12.2916 O   0  0  0  0  0  0  0  0  0  0  0  0
   15.2987   20.0080   19.3882 C   0  0  0  0  0  0  0  0  0  0  0  0
   14.3487   19.0602   20.1115 C   0  0  0  0  0  0  0  0  0  0  0  0
   13.1779   18.6291   19.5427 C   0  0  0  0  0  0  0  0  0  0  0  0
   14.6242   18.6529   21.4257 C   0  0  0  0  0  0  0  0  0  0  0  0
   12.2711   17.8574   20.2333 C   0  0  0  0  0  0  0  0  0  0  0  0
   13.7458   17.8624   22.1265 C   0  0  0  0  0  0  0  0  0  0  0  0
   12.5784   17.4837   21.5156 C   0  0  0  0  0  0  0  0  0  0  0  0
   16.2515   23.0300   18.1106 C   0  0  0  0  0  0  0  0  0  0  0  0
   17.3436   22.0603   17.9499 N   0  0  0  0  0  0  0  0  0  0  0  0
   16.9050   21.5302   15.5673 O   0  0  0  0  0  0  0  0  0  0  0  0
   19.1006   20.9307   16.6291 O   0  0  0  0  0  0  0  0  0  0  0  0
   17.9882   21.8681   16.4624 S   0  0  0  0  0  0  0  0  0  0  0  0
   18.6522   23.3648   15.8656 C   0  0  0  0  0  0  0  0  0  0  0  0
   20.0457   23.5496   15.9433 C   0  0  0  0  0  0  0  0  0  0  0  0
   20.6504   24.6531   15.4230 C   0  0  0  0  0  0  0  0  0  0  0  0
   19.8982   25.6541   14.8346 C   0  0  0  0  0  0  0  0  0  0  0  0
   18.5032   25.4969   14.7220 C   0  0  0  0  0  0  0  0  0  0  0  0
   17.8627   24.3364   15.2285 C   0  0  0  0  0  0  0  0  0  0  0  0
   20.5223   26.7055   14.1893 N   0  0  0  0  0  0  0  0  0  0  0  0
   21.4972   26.8202   14.2645 H   0  0  0  0  0  0  0  0  0  0  0  0
   19.9918   27.3394   13.6545 H   0  0  0  0  0  0  0  0  0  0  0  0
   18.2767   21.9683   19.0785 C   0  0  0  0  0  0  0  0  0  0  0  0
   18.7611   23.3168   19.5641 C   0  0  0  0  0  0  0  0  0  0  0  0
   18.4726   23.5461   21.0510 C   0  0  0  0  0  0  0  0  0  0  0  0
   20.2633   23.4890   19.2978 C   0  0  0  0  0  0  0  0  0  0  0  0
 10 12  1  0  0  0
 10 14  1  0  0  0
 11 12  1  0  0  0
 11 13  1  0  0  0
  5  6  1  0  0  0
  5  9  1  0  0  0
  5  7  2  0  0  0
 12  9  1  0  0  0
  4  1  1  0  0  0
  4 15  1  0  0  0
  4  6  1  0  0  0
  1 22  1  0  0  0
  1  2  1  0  0  0
 15 16  1  0  0  0
 16 17  2  0  0  0
 16 18  1  0  0  0
 17 19  1  0  0  0
 18 20  2  0  0  0
 19 21  2  0  0  0
 20 21  1  0  0  0
 22 23  1  0  0  0
 36 37  1  0  0  0
 36 23  1  0  0  0
 37 38  1  0  0  0
 37 39  1  0  0  0
 27 28  2  0  0  0
 27 32  1  0  0  0
 27 26  1  0  0  0
 28 29  1  0  0  0
 29 30  2  0  0  0
 30 31  1  0  0  0
 30 33  1  0  0  0
 31 32  2  0  0  0
 13 14  1  0  0  0
 23 26  1  0  0  0
 24 26  2  0  0  0
 25 26  2  0  0  0
  6  8  1  0  0  0
 33 34  1  0  0  0
 33 35  1  0  0  0
  2  3  1  0  0  0
M  END
> <minimizedAffinity>
-9.57000

$$$$
3NU3_478_B_401


 39 41  0  0  0  0  0  0  0  0999 V2000
   16.5520   24.0461   18.2434 C   0  0  0  0  0  0  0  0  0  0  0  0
   15.7606   25.2197   18.5705 O   0  0  0  0  0  0  0  0  0  0  0  0
   16.1516   26.0011   18.1493 H   0  0  0  0  0  0  0  0  0  0  0  0
   16.4697   23.8503   16.7391 C   0  0  0  0  0  0  0  0  0  0  0  0
   14.9125   22.5886   15.2960 C   0  0  0  0  0  0  0  0  0  0  0  0
   15.1436   23.3444   16.3706 N   0  0  0  0  0  0  0  0  0  0  0  0
   15.8032   22.1183   14.5197 O   0  0  0  0  0  0  0  0  0  0  0  0
   14.3810   23.5755   16.9487 H   0  0  0  0  0  0  0  0  0  0  0  0
   13.6012   22.3346   15.1583 O   0  0  0  0  0  0  0  0  0  0  0  0
   11.6899   21.4330   14.1102 C   0  0  0  0  0  0  0  0  0  0  0  0
   13.5070   19.9525   14.4782 C   0  0  0  0  0  0  0  0  0  0  0  0
   13.2027   21.3935   14.0961 C   0  0  0  0  0  0  0  0  0  0  0  0
   12.1317   19.3106   14.7682 C   0  0  0  0  0  0  0  0  0  0  0  0
   11.2698   20.4408   15.0197 O   0  0  0  0  0  0  0  0  0  0  0  0
   16.7570   25.1108   15.9388 C   0  0  0  0  0  0  0  0  0  0  0  0
   18.1136   25.0754   15.2444 C   0  0  0  0  0  0  0  0  0  0  0  0
   19.0582   24.1266   15.5406 C   0  0  0  0  0  0  0  0  0  0  0  0
   18.4573   26.0710   14.3173 C   0  0  0  0  0  0  0  0  0  0  0  0
   20.3196   24.1551   14.9904 C   0  0  0  0  0  0  0  0  0  0  0  0
   19.7019   26.1057   13.7364 C   0  0  0  0  0  0  0  0  0  0  0  0
   20.6146   25.1461   14.0909 C   0  0  0  0  0  0  0  0  0  0  0  0
   17.9421   24.1616   18.8580 C   0  0  0  0  0  0  0  0  0  0  0  0
   18.2635   23.0718   19.7895 N   0  0  0  0  0  0  0  0  0  0  0  0
   19.1296   20.7787   20.1660 O   0  0  0  0  0  0  0  0  0  0  0  0
   18.9846   21.7274   17.8452 O   0  0  0  0  0  0  0  0  0  0  0  0
   18.4157   21.5632   19.1844 S   0  0  0  0  0  0  0  0  0  0  0  0
   16.8606   20.7985   19.0004 C   0  0  0  0  0  0  0  0  0  0  0  0
   16.0098   20.7480   20.1211 C   0  0  0  0  0  0  0  0  0  0  0  0
   14.7476   20.2439   20.0380 C   0  0  0  0  0  0  0  0  0  0  0  0
   14.2768   19.7232   18.8458 C   0  0  0  0  0  0  0  0  0  0  0  0
   15.0918   19.7726   17.6984 C   0  0  0  0  0  0  0  0  0  0  0  0
   16.3968   20.3265   17.7614 C   0  0  0  0  0  0  0  0  0  0  0  0
   12.9543   19.3374   18.7292 N   0  0  0  0  0  0  0  0  0  0  0  0
   12.3799   19.3010   19.5279 H   0  0  0  0  0  0  0  0  0  0  0  0
   12.5870   19.0990   17.8474 H   0  0  0  0  0  0  0  0  0  0  0  0
   19.1722   23.4262   20.8858 C   0  0  0  0  0  0  0  0  0  0  0  0
   20.2602   24.3921   20.4707 C   0  0  0  0  0  0  0  0  0  0  0  0
   20.9308   25.0738   21.6673 C   0  0  0  0  0  0  0  0  0  0  0  0
   21.3234   23.6871   19.6164 C   0  0  0  0  0  0  0  0  0  0  0  0
 10 12  1  0  0  0
 10 14  1  0  0  0
 11 12  1  0  0  0
 11 13  1  0  0  0
  5  6  1  0  0  0
  5  9  1  0  0  0
  5  7  2  0  0  0
 12  9  1  0  0  0
  4  1  1  0  0  0
  4 15  1  0  0  0
  4  6  1  0  0  0
  1 22  1  0  0  0
  1  2  1  0  0  0
 15 16  1  0  0  0
 16 17  2  0  0  0
 16 18  1  0  0  0
 17 19  1  0  0  0
 18 20  2  0  0  0
 19 21  2  0  0  0
 20 21  1  0  0  0
 22 23  1  0  0  0
 36 37  1  0  0  0
 36 23  1  0  0  0
 37 38  1  0  0  0
 37 39  1  0  0  0
 27 28  2  0  0  0
 27 32  1  0  0  0
 27 26  1  0  0  0
 28 29  1  0  0  0
 29 30  2  0  0  0
 30 31  1  0  0  0
 30 33  1  0  0  0
 31 32  2  0  0  0
 13 14  1  0  0  0
 23 26  1  0  0  0
 24 26  2  0  0  0
 25 26  2  0  0  0
  6  8  1  0  0  0
 33 34  1  0  0  0
 33 35  1  0  0  0
  2  3  1  0  0  0
M  END
> <minimizedAffinity>
-9.42008

$$$$
3NU3_478_B_401


 39 41  0  0  0  0  0  0  0  0999 V2000
   16.0794   23.1123   15.6307 C   0  0  0  0  0  0  0  0  0  0  0  0
   14.9000   23.7055   16.2371 O   0  0  0  0  0  0  0  0  0  0  0  0
   14.9958   23.7010   17.2023 H   0  0  0  0  0  0  0  0  0  0  0  0
   17.2626   23.9982   15.9820 C   0  0  0  0  0  0  0  0  0  0  0  0
   17.1517   24.5812   18.3793 C   0  0  0  0  0  0  0  0  0  0  0  0
   17.6232   23.8182   17.3919 N   0  0  0  0  0  0  0  0  0  0  0  0
   16.2593   25.4787   18.2560 O   0  0  0  0  0  0  0  0  0  0  0  0
   18.2483   23.0935   17.6228 H   0  0  0  0  0  0  0  0  0  0  0  0
   17.7067   24.2454   19.5550 O   0  0  0  0  0  0  0  0  0  0  0  0
   19.1706   22.9080   20.8328 C   0  0  0  0  0  0  0  0  0  0  0  0
   20.1391   24.7164   19.6407 C   0  0  0  0  0  0  0  0  0  0  0  0
   19.0564   23.6539   19.5210 C   0  0  0  0  0  0  0  0  0  0  0  0
   20.7237   24.5418   21.0603 C   0  0  0  0  0  0  0  0  0  0  0  0
   19.6944   23.8213   21.7708 O   0  0  0  0  0  0  0  0  0  0  0  0
   18.4922   23.7504   15.1226 C   0  0  0  0  0  0  0  0  0  0  0  0
   19.2583   25.0288   14.8019 C   0  0  0  0  0  0  0  0  0  0  0  0
   18.7130   26.0334   14.0446 C   0  0  0  0  0  0  0  0  0  0  0  0
   20.5869   25.1800   15.2270 C   0  0  0  0  0  0  0  0  0  0  0  0
   19.4389   27.1408   13.6685 C   0  0  0  0  0  0  0  0  0  0  0  0
   21.3237   26.2880   14.8846 C   0  0  0  0  0  0  0  0  0  0  0  0
   20.7341   27.2479   14.1034 C   0  0  0  0  0  0  0  0  0  0  0  0
   16.1762   21.6372   16.0027 C   0  0  0  0  0  0  0  0  0  0  0  0
   15.0537   21.1652   16.8248 N   0  0  0  0  0  0  0  0  0  0  0  0
   14.4817   22.4696   18.8550 O   0  0  0  0  0  0  0  0  0  0  0  0
   16.6199   21.1575   18.7366 O   0  0  0  0  0  0  0  0  0  0  0  0
   15.1893   21.2771   18.4478 S   0  0  0  0  0  0  0  0  0  0  0  0
   14.3846   19.9497   19.2400 C   0  0  0  0  0  0  0  0  0  0  0  0
   14.9916   19.3925   20.3816 C   0  0  0  0  0  0  0  0  0  0  0  0
   14.3865   18.4107   21.1055 C   0  0  0  0  0  0  0  0  0  0  0  0
   13.1636   17.8989   20.7096 C   0  0  0  0  0  0  0  0  0  0  0  0
   12.5167   18.4433   19.5833 C   0  0  0  0  0  0  0  0  0  0  0  0
   13.1191   19.4906   18.8390 C   0  0  0  0  0  0  0  0  0  0  0  0
   12.4906   17.0012   21.5174 N   0  0  0  0  0  0  0  0  0  0  0  0
   12.9378   16.6175   22.3060 H   0  0  0  0  0  0  0  0  0  0  0  0
   11.5641   16.7457   21.3040 H   0  0  0  0  0  0  0  0  0  0  0  0
   13.7181   21.4060   16.2669 C   0  0  0  0  0  0  0  0  0  0  0  0
   13.4264   20.5753   15.0366 C   0  0  0  0  0  0  0  0  0  0  0  0
   12.2043   19.6688   15.2139 C   0  0  0  0  0  0  0  0  0  0  0  0
   13.2306   21.4697   13.8041 C   0  0  0  0  0  0  0  0  0  0  0  0
 10 12  1  0  0  0
 10 14  1  0  0  0
 11 12  1  0  0  0
 11 13  1  0  0  0
  5  6  1  0  0  0
  5  9  1  0  0  0
  5  7  2  0  0  0
 12  9  1  0  0  0
  4  1  1  0  0  0
  4 15  1  0  0  0
  4  6  1  0  0  0
  1 22  1  0  0  0
  1  2  1  0  0  0
 15 16  1  0  0  0
 16 17  2  0  0  0
 16 18  1  0  0  0
 17 19  1  0  0  0
 18 20  2  0  0  0
 19 21  2  0  0  0
 20 21  1  0  0  0
 22 23  1  0  0  0
 36 37  1  0  0  0
 36 23  1  0  0  0
 37 38  1  0  0  0
 37 39  1  0  0  0
 27 28  2  0  0  0
 27 32  1  0  0  0
 27 26  1  0  0  0
 28 29  1  0  0  0
 29 30  2  0  0  0
 30 31  1  0  0  0
 30 33  1  0  0  0
 31 32  2  0  0  0
 13 14  1  0  0  0
 23 26  1  0  0  0
 24 26  2  0  0  0
 25 26  2  0  0  0
  6  8  1  0  0  0
 33 34  1  0  0  0
 33 35  1  0  0  0
  2  3  1  0  0  0
M  END
> <minimizedAffinity>
-9.39354

$$$$
3NU3_478_B_401


 39 41  0  0  0  0  0  0  0  0999 V2000
   15.1646   22.0403   17.6397 C   0  0  0  0  0  0  0  0  0  0  0  0
   14.2632   23.0099   17.0414 O   0  0  0  0  0  0  0  0  0  0  0  0
   14.0569   22.7417   16.1323 H   0  0  0  0  0  0  0  0  0  0  0  0
   14.4243   20.7153   17.7053 C   0  0  0  0  0  0  0  0  0  0  0  0
   12.9772   19.8569   15.8974 C   0  0  0  0  0  0  0  0  0  0  0  0
   14.1815   20.2084   16.3509 N   0  0  0  0  0  0  0  0  0  0  0  0
   11.8800   20.0123   16.5212 O   0  0  0  0  0  0  0  0  0  0  0  0
   14.9504   20.1227   15.7421 H   0  0  0  0  0  0  0  0  0  0  0  0
   13.0577   19.3559   14.6543 O   0  0  0  0  0  0  0  0  0  0  0  0
   13.9651   20.6087   12.8733 C   0  0  0  0  0  0  0  0  0  0  0  0
   12.1446   21.5788   14.0455 C   0  0  0  0  0  0  0  0  0  0  0  0
   12.6593   20.2381   13.5426 C   0  0  0  0  0  0  0  0  0  0  0  0
   13.2538   22.5962   13.6961 C   0  0  0  0  0  0  0  0  0  0  0  0
   14.4280   21.7769   13.5132 O   0  0  0  0  0  0  0  0  0  0  0  0
   15.1474   19.6467   18.5099 C   0  0  0  0  0  0  0  0  0  0  0  0
   14.2820   19.0490   19.6134 C   0  0  0  0  0  0  0  0  0  0  0  0
   14.7735   18.7991   20.8688 C   0  0  0  0  0  0  0  0  0  0  0  0
   12.9571   18.6730   19.3447 C   0  0  0  0  0  0  0  0  0  0  0  0
   14.0240   18.1653   21.8338 C   0  0  0  0  0  0  0  0  0  0  0  0
   12.1817   18.0610   20.2996 C   0  0  0  0  0  0  0  0  0  0  0  0
   12.7352   17.8127   21.5290 C   0  0  0  0  0  0  0  0  0  0  0  0
   16.5072   22.0557   16.9181 C   0  0  0  0  0  0  0  0  0  0  0  0
   17.3742   23.1728   17.3170 N   0  0  0  0  0  0  0  0  0  0  0  0
   16.8863   25.5806   16.9789 O   0  0  0  0  0  0  0  0  0  0  0  0
   16.9467   24.0004   15.0279 O   0  0  0  0  0  0  0  0  0  0  0  0
   17.4919   24.4520   16.3096 S   0  0  0  0  0  0  0  0  0  0  0  0
   19.1569   24.8919   16.0423 C   0  0  0  0  0  0  0  0  0  0  0  0
   19.7355   25.8489   16.8977 C   0  0  0  0  0  0  0  0  0  0  0  0
   21.0522   26.1840   16.8084 C   0  0  0  0  0  0  0  0  0  0  0  0
   21.8564   25.6174   15.8356 C   0  0  0  0  0  0  0  0  0  0  0  0
   21.3182   24.6428   14.9732 C   0  0  0  0  0  0  0  0  0  0  0  0
   19.9563   24.2579   15.0768 C   0  0  0  0  0  0  0  0  0  0  0  0
   23.2181   25.8563   15.8326 N   0  0  0  0  0  0  0  0  0  0  0  0
   23.5999   26.5365   16.4333 H   0  0  0  0  0  0  0  0  0  0  0  0
   23.8060   25.3463   15.2297 H   0  0  0  0  0  0  0  0  0  0  0  0
   17.3954   23.4733   18.7531 C   0  0  0  0  0  0  0  0  0  0  0  0
   18.5131   22.7720   19.4933 C   0  0  0  0  0  0  0  0  0  0  0  0
   18.2130   21.2915   19.7477 C   0  0  0  0  0  0  0  0  0  0  0  0
   19.8419   22.9061   18.7360 C   0  0  0  0  0  0  0  0  0  0  0  0
 10 12  1  0  0  0
 10 14  1  0  0  0
 11 12  1  0  0  0
 11 13  1  0  0  0
  5  6  1  0  0  0
  5  9  1  0  0  0
  5  7  2  0  0  0
 12  9  1  0  0  0
  4  1  1  0  0  0
  4 15  1  0  0  0
  4  6  1  0  0  0
  1 22  1  0  0  0
  1  2  1  0  0  0
 15 16  1  0  0  0
 16 17  2  0  0  0
 16 18  1  0  0  0
 17 19  1  0  0  0
 18 20  2  0  0  0
 19 21  2  0  0  0
 20 21  1  0  0  0
 22 23  1  0  0  0
 36 37  1  0  0  0
 36 23  1  0  0  0
 37 38  1  0  0  0
 37 39  1  0  0  0
 27 28  2  0  0  0
 27 32  1  0  0  0
 27 26  1  0  0  0
 28 29  1  0  0  0
 29 30  2  0  0  0
 30 31  1  0  0  0
 30 33  1  0  0  0
 31 32  2  0  0  0
 13 14  1  0  0  0
 23 26  1  0  0  0
 24 26  2  0  0  0
 25 26  2  0  0  0
  6  8  1  0  0  0
 33 34  1  0  0  0
 33 35  1  0  0  0
  2  3  1  0  0  0
M  END
> <minimizedAffinity>
-8.99169

$$$$
3NU3_478_B_401


 39 41  0  0  0  0  0  0  0  0999 V2000
   18.7123   23.1994   17.3758 C   0  0  0  0  0  0  0  0  0  0  0  0
   19.3201   21.9831   16.8643 O   0  0  0  0  0  0  0  0  0  0  0  0
   19.3397   22.0142   15.8950 H   0  0  0  0  0  0  0  0  0  0  0  0
   19.6071   24.3577   16.9685 C   0  0  0  0  0  0  0  0  0  0  0  0
   21.0008   25.7981   18.4115 C   0  0  0  0  0  0  0  0  0  0  0  0
   20.6299   24.5866   17.9940 N   0  0  0  0  0  0  0  0  0  0  0  0
   20.4559   26.8949   18.0694 O   0  0  0  0  0  0  0  0  0  0  0  0
   21.0674   23.8022   18.3970 H   0  0  0  0  0  0  0  0  0  0  0  0
   22.0074   25.7156   19.2963 O   0  0  0  0  0  0  0  0  0  0  0  0
   21.8106   24.3262   21.1925 C   0  0  0  0  0  0  0  0  0  0  0  0
   23.8673   24.2415   20.0127 C   0  0  0  0  0  0  0  0  0  0  0  0
   22.3684   24.3732   19.7865 C   0  0  0  0  0  0  0  0  0  0  0  0
   24.0458   24.2210   21.5474 C   0  0  0  0  0  0  0  0  0  0  0  0
   22.8250   24.8095   22.0443 O   0  0  0  0  0  0  0  0  0  0  0  0
   20.2907   24.1628   15.6244 C   0  0  0  0  0  0  0  0  0  0  0  0
   20.4852   25.4694   14.8636 C   0  0  0  0  0  0  0  0  0  0  0  0
   21.6391   26.2038   14.9616 C   0  0  0  0  0  0  0  0  0  0  0  0
   19.4430   25.9930   14.0836 C   0  0  0  0  0  0  0  0  0  0  0  0
   21.7759   27.4331   14.3577 C   0  0  0  0  0  0  0  0  0  0  0  0
   19.5654   27.2067   13.4514 C   0  0  0  0  0  0  0  0  0  0  0  0
   20.7327   27.9087   13.6068 C   0  0  0  0  0  0  0  0  0  0  0  0
   17.2470   23.2692   16.9617 C   0  0  0  0  0  0  0  0  0  0  0  0
   16.4616   22.1025   17.3867 N   0  0  0  0  0  0  0  0  0  0  0  0
   14.6664   23.2107   18.6901 O   0  0  0  0  0  0  0  0  0  0  0  0
   16.7174   22.3219   19.8350 O   0  0  0  0  0  0  0  0  0  0  0  0
   15.6757   22.1840   18.8152 S   0  0  0  0  0  0  0  0  0  0  0  0
   14.8149   20.7051   19.1456 C   0  0  0  0  0  0  0  0  0  0  0  0
   15.2685   19.8965   20.2052 C   0  0  0  0  0  0  0  0  0  0  0  0
   14.6017   18.7701   20.5806 C   0  0  0  0  0  0  0  0  0  0  0  0
   13.4710   18.3626   19.8956 C   0  0  0  0  0  0  0  0  0  0  0  0
   12.9762   19.1550   18.8417 C   0  0  0  0  0  0  0  0  0  0  0  0
   13.6407   20.3498   18.4615 C   0  0  0  0  0  0  0  0  0  0  0  0
   12.7215   17.2980   20.3608 N   0  0  0  0  0  0  0  0  0  0  0  0
   13.0623   16.7406   21.0973 H   0  0  0  0  0  0  0  0  0  0  0  0
   11.8470   17.0973   19.9557 H   0  0  0  0  0  0  0  0  0  0  0  0
   15.7784   21.3760   16.3104 C   0  0  0  0  0  0  0  0  0  0  0  0
   15.3565   22.2670   15.1628 C   0  0  0  0  0  0  0  0  0  0  0  0
   15.4591   21.5665   13.8044 C   0  0  0  0  0  0  0  0  0  0  0  0
   13.9265   22.7867   15.3683 C   0  0  0  0  0  0  0  0  0  0  0  0
 10 12  1  0  0  0
 10 14  1  0  0  0
 11 12  1  0  0  0
 11 13  1  0  0  0
  5  6  1  0  0  0
  5  9  1  0  0  0
  5  7  2  0  0  0
 12  9  1  0  0  0
  4  1  1  0  0  0
  4 15  1  0  0  0
  4  6  1  0  0  0
  1 22  1  0  0  0
  1  2  1  0  0  0
 15 16  1  0  0  0
 16 17  2  0  0  0
 16 18  1  0  0  0
 17 19  1  0  0  0
 18 20  2  0  0  0
 19 21  2  0  0  0
 20 21  1  0  0  0
 22 23  1  0  0  0
 36 37  1  0  0  0
 36 23  1  0  0  0
 37 38  1  0  0  0
 37 39  1  0  0  0
 27 28  2  0  0  0
 27 32  1  0  0  0
 27 26  1  0  0  0
 28 29  1  0  0  0
 29 30  2  0  0  0
 30 31  1  0  0  0
 30 33  1  0  0  0
 31 32  2  0  0  0
 13 14  1  0  0  0
 23 26  1  0  0  0
 24 26  2  0  0  0
 25 26  2  0  0  0
  6  8  1  0  0  0
 33 34  1  0  0  0
 33 35  1  0  0  0
  2  3  1  0  0  0
M  END
> <minimizedAffinity>
-8.98406

$$$$
3NU3_478_B_401


 39 41  0  0  0  0  0  0  0  0999 V2000
   16.9490   24.2401   18.0682 C   0  0  0  0  0  0  0  0  0  0  0  0
   15.8107   24.9693   18.6003 O   0  0  0  0  0  0  0  0  0  0  0  0
   16.0064   25.9193   18.5999 H   0  0  0  0  0  0  0  0  0  0  0  0
   17.1288   24.6744   16.6235 C   0  0  0  0  0  0  0  0  0  0  0  0
   18.7995   25.9702   15.3470 C   0  0  0  0  0  0  0  0  0  0  0  0
   18.2772   25.5793   16.5106 N   0  0  0  0  0  0  0  0  0  0  0  0
   18.3195   25.7099   14.1986 O   0  0  0  0  0  0  0  0  0  0  0  0
   18.6857   25.9173   17.3402 H   0  0  0  0  0  0  0  0  0  0  0  0
   19.8880   26.7324   15.5392 O   0  0  0  0  0  0  0  0  0  0  0  0
   22.2262   26.7217   15.2268 C   0  0  0  0  0  0  0  0  0  0  0  0
   20.9534   28.0568   13.7347 C   0  0  0  0  0  0  0  0  0  0  0  0
   20.9111   26.7299   14.4780 C   0  0  0  0  0  0  0  0  0  0  0  0
   22.2601   28.7396   14.1973 C   0  0  0  0  0  0  0  0  0  0  0  0
   22.5786   28.0709   15.4362 O   0  0  0  0  0  0  0  0  0  0  0  0
   17.3140   23.5186   15.6530 C   0  0  0  0  0  0  0  0  0  0  0  0
   15.9921   22.9525   15.1468 C   0  0  0  0  0  0  0  0  0  0  0  0
   14.7900   23.2964   15.7097 C   0  0  0  0  0  0  0  0  0  0  0  0
   15.9815   21.9986   14.1178 C   0  0  0  0  0  0  0  0  0  0  0  0
   13.6073   22.7085   15.3223 C   0  0  0  0  0  0  0  0  0  0  0  0
   14.8105   21.4159   13.6974 C   0  0  0  0  0  0  0  0  0  0  0  0
   13.6419   21.7797   14.3151 C   0  0  0  0  0  0  0  0  0  0  0  0
   18.1487   24.3880   18.9968 C   0  0  0  0  0  0  0  0  0  0  0  0
   18.3967   23.2018   19.8275 N   0  0  0  0  0  0  0  0  0  0  0  0
   19.1241   20.8386   20.0173 O   0  0  0  0  0  0  0  0  0  0  0  0
   19.1508   22.0118   17.7969 O   0  0  0  0  0  0  0  0  0  0  0  0
   18.5041   21.7520   19.0847 S   0  0  0  0  0  0  0  0  0  0  0  0
   16.9241   21.0963   18.7521 C   0  0  0  0  0  0  0  0  0  0  0  0
   15.9172   21.2687   19.7209 C   0  0  0  0  0  0  0  0  0  0  0  0
   14.6368   20.8607   19.5013 C   0  0  0  0  0  0  0  0  0  0  0  0
   14.2964   20.2202   18.3232 C   0  0  0  0  0  0  0  0  0  0  0  0
   15.2719   20.0458   17.3227 C   0  0  0  0  0  0  0  0  0  0  0  0
   16.6024   20.4968   17.5231 C   0  0  0  0  0  0  0  0  0  0  0  0
   12.9734   19.9291   18.0466 N   0  0  0  0  0  0  0  0  0  0  0  0
   12.2872   20.0492   18.7423 H   0  0  0  0  0  0  0  0  0  0  0  0
   12.7176   19.6018   17.1541 H   0  0  0  0  0  0  0  0  0  0  0  0
   19.2863   23.4104   20.9756 C   0  0  0  0  0  0  0  0  0  0  0  0
   20.4085   24.3847   20.6920 C   0  0  0  0  0  0  0  0  0  0  0  0
   21.0569   24.9249   21.9704 C   0  0  0  0  0  0  0  0  0  0  0  0
   21.4814   23.7421   19.8014 C   0  0  0  0  0  0  0  0  0  0  0  0
 10 12  1  0  0  0
 10 14  1  0  0  0
 11 12  1  0  0  0
 11 13  1  0  0  0
  5  6  1  0  0  0
  5  9  1  0  0  0
  5  7  2  0  0  0
 12  9  1  0  0  0
  4  1  1  0  0  0
  4 15  1  0  0  0
  4  6  1  0  0  0
  1 22  1  0  0  0
  1  2  1  0  0  0
 15 16  1  0  0  0
 16 17  2  0  0  0
 16 18  1  0  0  0
 17 19  1  0  0  0
 18 20  2  0  0  0
 19 21  2  0  0  0
 20 21  1  0  0  0
 22 23  1  0  0  0
 36 37  1  0  0  0
 36 23  1  0  0  0
 37 38  1  0  0  0
 37 39  1  0  0  0
 27 28  2  0  0  0
 27 32  1  0  0  0
 27 26  1  0  0  0
 28 29  1  0  0  0
 29 30  2  0  0  0
 30 31  1  0  0  0
 30 33  1  0  0  0
 31 32  2  0  0  0
 13 14  1  0  0  0
 23 26  1  0  0  0
 24 26  2  0  0  0
 25 26  2  0  0  0
  6  8  1  0  0  0
 33 34  1  0  0  0
 33 35  1  0  0  0
  2  3  1  0  0  0
M  END
> <minimizedAffinity>
-8.92100

$$$$
3NU3_478_B_401


 39 41  0  0  0  0  0  0  0  0999 V2000
   15.2578   22.3317   18.3706 C   0  0  0  0  0  0  0  0  0  0  0  0
   14.3093   23.0687   19.1877 O   0  0  0  0  0  0  0  0  0  0  0  0
   13.6597   22.4539   19.5630 H   0  0  0  0  0  0  0  0  0  0  0  0
   16.0015   21.3781   19.2903 C   0  0  0  0  0  0  0  0  0  0  0  0
   18.4488   21.5522   19.0078 C   0  0  0  0  0  0  0  0  0  0  0  0
   17.3223   21.9243   19.6178 N   0  0  0  0  0  0  0  0  0  0  0  0
   18.5220   20.7732   18.0054 O   0  0  0  0  0  0  0  0  0  0  0  0
   17.3810   22.6039   20.3278 H   0  0  0  0  0  0  0  0  0  0  0  0
   19.5160   22.1529   19.5583 O   0  0  0  0  0  0  0  0  0  0  0  0
   20.6660   24.1806   19.1967 C   0  0  0  0  0  0  0  0  0  0  0  0
   19.5987   23.9160   21.2991 C   0  0  0  0  0  0  0  0  0  0  0  0
   19.4162   23.5998   19.8220 C   0  0  0  0  0  0  0  0  0  0  0  0
   20.9917   24.5765   21.4036 C   0  0  0  0  0  0  0  0  0  0  0  0
   21.6619   24.1607   20.1948 O   0  0  0  0  0  0  0  0  0  0  0  0
   15.2615   21.0679   20.5819 C   0  0  0  0  0  0  0  0  0  0  0  0
   14.6636   19.6657   20.6000 C   0  0  0  0  0  0  0  0  0  0  0  0
   14.6452   18.8679   19.4850 C   0  0  0  0  0  0  0  0  0  0  0  0
   14.0479   19.1768   21.7622 C   0  0  0  0  0  0  0  0  0  0  0  0
   14.0147   17.6444   19.4725 C   0  0  0  0  0  0  0  0  0  0  0  0
   13.4334   17.9481   21.7810 C   0  0  0  0  0  0  0  0  0  0  0  0
   13.4237   17.2056   20.6285 C   0  0  0  0  0  0  0  0  0  0  0  0
   14.5526   21.7286   17.1613 C   0  0  0  0  0  0  0  0  0  0  0  0
   14.8343   22.4367   15.9051 N   0  0  0  0  0  0  0  0  0  0  0  0
   16.1493   22.3794   13.8033 O   0  0  0  0  0  0  0  0  0  0  0  0
   16.8483   21.0090   15.7884 O   0  0  0  0  0  0  0  0  0  0  0  0
   16.3111   22.2532   15.2338 S   0  0  0  0  0  0  0  0  0  0  0  0
   17.3835   23.5420   15.7092 C   0  0  0  0  0  0  0  0  0  0  0  0
   18.5591   23.7370   14.9594 C   0  0  0  0  0  0  0  0  0  0  0  0
   19.4053   24.7730   15.2137 C   0  0  0  0  0  0  0  0  0  0  0  0
   19.1513   25.6475   16.2552 C   0  0  0  0  0  0  0  0  0  0  0  0
   17.9760   25.4957   17.0161 C   0  0  0  0  0  0  0  0  0  0  0  0
   17.0670   24.4414   16.7407 C   0  0  0  0  0  0  0  0  0  0  0  0
   19.9361   26.7728   16.4260 N   0  0  0  0  0  0  0  0  0  0  0  0
   20.7588   26.8842   15.8968 H   0  0  0  0  0  0  0  0  0  0  0  0
   19.6723   27.4628   17.0769 H   0  0  0  0  0  0  0  0  0  0  0  0
   13.7060   22.5409   14.9729 C   0  0  0  0  0  0  0  0  0  0  0  0
   12.9783   21.2304   14.7676 C   0  0  0  0  0  0  0  0  0  0  0  0
   11.4552   21.3914   14.7967 C   0  0  0  0  0  0  0  0  0  0  0  0
   13.4017   20.5682   13.4487 C   0  0  0  0  0  0  0  0  0  0  0  0
 10 12  1  0  0  0
 10 14  1  0  0  0
 11 12  1  0  0  0
 11 13  1  0  0  0
  5  6  1  0  0  0
  5  9  1  0  0  0
  5  7  2  0  0  0
 12  9  1  0  0  0
  4  1  1  0  0  0
  4 15  1  0  0  0
  4  6  1  0  0  0
  1 22  1  0  0  0
  1  2  1  0  0  0
 15 16  1  0  0  0
 16 17  2  0  0  0
 16 18  1  0  0  0
 17 19  1  0  0  0
 18 20  2  0  0  0
 19 21  2  0  0  0
 20 21  1  0  0  0
 22 23  1  0  0  0
 36 37  1  0  0  0
 36 23  1  0  0  0
 37 38  1  0  0  0
 37 39  1  0  0  0
 27 28  2  0  0  0
 27 32  1  0  0  0
 27 26  1  0  0  0
 28 29  1  0  0  0
 29 30  2  0  0  0
 30 31  1  0  0  0
 30 33  1  0  0  0
 31 32  2  0  0  0
 13 14  1  0  0  0
 23 26  1  0  0  0
 24 26  2  0  0  0
 25 26  2  0  0  0
  6  8  1  0  0  0
 33 34  1  0  0  0
 33 35  1  0  0  0
  2  3  1  0  0  0
M  END
> <minimizedAffinity>
-8.86879

$$$$
3NU3_478_B_401


 39 41  0  0  0  0  0  0  0  0999 V2000
   15.5842   21.7078   17.9309 C   0  0  0  0  0  0  0  0  0  0  0  0
   14.3337   22.2991   18.3751 O   0  0  0  0  0  0  0  0  0  0  0  0
   13.6858   21.5970   18.5431 H   0  0  0  0  0  0  0  0  0  0  0  0
   16.1118   20.8553   19.0723 C   0  0  0  0  0  0  0  0  0  0  0  0
   17.7820   22.5982   19.5941 C   0  0  0  0  0  0  0  0  0  0  0  0
   17.4486   21.3131   19.4643 N   0  0  0  0  0  0  0  0  0  0  0  0
   16.9793   23.5807   19.5076 O   0  0  0  0  0  0  0  0  0  0  0  0
   18.1389   20.6339   19.6416 H   0  0  0  0  0  0  0  0  0  0  0  0
   19.0860   22.7308   19.8854 O   0  0  0  0  0  0  0  0  0  0  0  0
   20.8050   24.1229   19.0657 C   0  0  0  0  0  0  0  0  0  0  0  0
   20.2540   24.3426   21.3630 C   0  0  0  0  0  0  0  0  0  0  0  0
   19.6167   24.1010   20.0026 C   0  0  0  0  0  0  0  0  0  0  0  0
   21.7751   24.3925   21.0954 C   0  0  0  0  0  0  0  0  0  0  0  0
   21.9238   23.7231   19.8252 O   0  0  0  0  0  0  0  0  0  0  0  0
   15.2135   20.8471   20.2991 C   0  0  0  0  0  0  0  0  0  0  0  0
   14.3556   19.5907   20.3968 C   0  0  0  0  0  0  0  0  0  0  0  0
   13.5567   19.1729   19.3636 C   0  0  0  0  0  0  0  0  0  0  0  0
   14.3132   18.8571   21.5921 C   0  0  0  0  0  0  0  0  0  0  0  0
   12.7049   18.0988   19.4874 C   0  0  0  0  0  0  0  0  0  0  0  0
   13.4890   17.7667   21.7310 C   0  0  0  0  0  0  0  0  0  0  0  0
   12.6929   17.4113   20.6729 C   0  0  0  0  0  0  0  0  0  0  0  0
   15.3932   21.0269   16.5806 C   0  0  0  0  0  0  0  0  0  0  0  0
   15.6229   21.9194   15.4363 N   0  0  0  0  0  0  0  0  0  0  0  0
   15.1804   21.9526   12.9964 O   0  0  0  0  0  0  0  0  0  0  0  0
   13.6306   23.1152   14.5945 O   0  0  0  0  0  0  0  0  0  0  0  0
   14.4876   21.9747   14.2645 S   0  0  0  0  0  0  0  0  0  0  0  0
   13.4881   20.5472   14.2882 C   0  0  0  0  0  0  0  0  0  0  0  0
   13.7782   19.5194   13.3708 C   0  0  0  0  0  0  0  0  0  0  0  0
   13.0991   18.3392   13.3816 C   0  0  0  0  0  0  0  0  0  0  0  0
   12.0653   18.1324   14.2774 C   0  0  0  0  0  0  0  0  0  0  0  0
   11.7576   19.1300   15.2225 C   0  0  0  0  0  0  0  0  0  0  0  0
   12.4796   20.3514   15.2461 C   0  0  0  0  0  0  0  0  0  0  0  0
   11.4691   16.8889   14.3767 N   0  0  0  0  0  0  0  0  0  0  0  0
   11.6804   16.1877   13.7189 H   0  0  0  0  0  0  0  0  0  0  0  0
   10.8332   16.7048   15.1054 H   0  0  0  0  0  0  0  0  0  0  0  0
   16.2953   23.1856   15.7489 C   0  0  0  0  0  0  0  0  0  0  0  0
   17.7066   23.2612   15.2091 C   0  0  0  0  0  0  0  0  0  0  0  0
   18.0790   24.6671   14.7282 C   0  0  0  0  0  0  0  0  0  0  0  0
   18.7221   22.7898   16.2597 C   0  0  0  0  0  0  0  0  0  0  0  0
 10 12  1  0  0  0
 10 14  1  0  0  0
 11 12  1  0  0  0
 11 13  1  0  0  0
  5  6  1  0  0  0
  5  9  1  0  0  0
  5  7  2  0  0  0
 12  9  1  0  0  0
  4  1  1  0  0  0
  4 15  1  0  0  0
  4  6  1  0  0  0
  1 22  1  0  0  0
  1  2  1  0  0  0
 15 16  1  0  0  0
 16 17  2  0  0  0
 16 18  1  0  0  0
 17 19  1  0  0  0
 18 20  2  0  0  0
 19 21  2  0  0  0
 20 21  1  0  0  0
 22 23  1  0  0  0
 36 37  1  0  0  0
 36 23  1  0  0  0
 37 38  1  0  0  0
 37 39  1  0  0  0
 27 28  2  0  0  0
 27 32  1  0  0  0
 27 26  1  0  0  0
 28 29  1  0  0  0
 29 30  2  0  0  0
 30 31  1  0  0  0
 30 33  1  0  0  0
 31 32  2  0  0  0
 13 14  1  0  0  0
 23 26  1  0  0  0
 24 26  2  0  0  0
 25 26  2  0  0  0
  6  8  1  0  0  0
 33 34  1  0  0  0
 33 35  1  0  0  0
  2  3  1  0  0  0
M  END
> <minimizedAffinity>
-8.85990

$$$$
