1D4I_BEG_A_501
  RCSB PDB12061702143D
Coordinates from PDB:1D4I:A:501 Model:1 without hydrogens
 47 52  0  0  0  0            999 V2000
    9.7640   24.0840    2.2340   C 0  0  0  0  0  0  0  0  0  0  0  0
    9.0440   25.2510    1.8670   C 0  0  0  0  0  0  0  0  0  0  0  0
    7.6410   25.3630    2.0030   C 0  0  0  0  0  0  0  0  0  0  0  0
    6.9040   24.2720    2.5230   C 0  0  0  0  0  0  0  0  0  0  0  0
    7.5850   23.0880    2.8930   C 0  0  0  0  0  0  0  0  0  0  0  0
    8.9940   22.9960    2.7470   C 0  0  0  0  0  0  0  0  0  0  0  0
   16.2980   22.1490    8.7730   C 0  0  0  0  0  0  0  0  0  0  0  0
   15.5700   21.1300    9.4590   C 0  0  0  0  0  0  0  0  0  0  0  0
   16.1750   19.9340    9.9220   C 0  0  0  0  0  0  0  0  0  0  0  0
   17.5610   19.7290    9.7110   C 0  0  0  0  0  0  0  0  0  0  0  0
   18.3150   20.7250    9.0450   C 0  0  0  0  0  0  0  0  0  0  0  0
   17.6900   21.9140    8.5860   C 0  0  0  0  0  0  0  0  0  0  0  0
   15.5600   23.3580    8.1950   C 0  0  0  0  0  0  0  0  0  0  0  0
   14.5260   23.0150    7.2720   O 0  0  0  0  0  0  0  0  0  0  0  0
   11.2870   24.0770    2.1480   C 0  0  0  0  0  0  0  0  0  0  0  0
   11.9200   23.5540    3.3130   O 0  0  0  0  0  0  0  0  0  0  0  0
   15.0310   22.6990    5.9680   C 0  0  0  0  0  0  0  0  0  0  0  0
   13.9910   23.0190    4.9240   C 0  0  0  0  0  0  0  0  0  0  0  0
   13.5020   24.4250    5.0060   C 0  0  0  0  0  0  0  0  0  0  0  0
   14.4830   25.1780    4.3050   O 0  0  0  0  0  0  0  0  0  0  0  0
   12.1170   24.5380    4.3530   C 0  0  0  0  0  0  0  0  0  0  0  0
   10.9440   24.4850    5.3240   C 0  0  0  0  0  0  0  0  0  0  0  0
   10.6960   23.4920    6.0040   O 0  0  0  0  0  0  0  0  0  0  0  0
   10.1400   25.6060    5.3730   N 0  0  0  0  0  0  0  0  0  0  0  0
   15.1400   21.2020    5.8360   C 0  0  0  0  0  0  0  0  0  0  0  0
   14.1930   20.4640    6.0870   O 0  0  0  0  0  0  0  0  0  0  0  0
   16.3580   20.6920    5.4360   N 0  0  0  0  0  0  0  0  0  0  0  0
   16.6200   19.2770    5.2610   C 0  0  0  0  0  0  0  0  0  0  0  0
   16.5710   18.8470    3.8200   C 0  0  0  0  0  0  0  0  0  0  0  0
   17.5340   17.8490    3.5510   C 0  0  0  0  0  0  0  0  0  0  0  0
   15.7320   19.3140    2.7770   C 0  0  0  0  0  0  0  0  0  0  0  0
   15.8630   18.7640    1.4680   C 0  0  0  0  0  0  0  0  0  0  0  0
   16.8330   17.7550    1.2120   C 0  0  0  0  0  0  0  0  0  0  0  0
   18.0180   18.7810    5.6730   C 0  0  0  0  0  0  0  0  0  0  0  0
   18.9370   19.8230    5.3790   O 0  0  0  0  0  0  0  0  0  0  0  0
   17.6790   17.2890    2.2560   C 0  0  0  0  0  0  0  0  0  0  0  0
   18.3090   17.5380    4.7940   C 0  0  0  0  0  0  0  0  0  0  0  0
    8.9680   25.7780    6.2160   C 0  0  0  0  0  0  0  0  0  0  0  0
    9.2560   26.5070    7.5030   C 0  0  0  0  0  0  0  0  0  0  0  0
    8.1810   27.3610    7.8600   C 0  0  0  0  0  0  0  0  0  0  0  0
   10.4080   26.4460    8.3320   C 0  0  0  0  0  0  0  0  0  0  0  0
   10.4670   27.2400    9.5180   C 0  0  0  0  0  0  0  0  0  0  0  0
    9.3770   28.0890    9.8630   C 0  0  0  0  0  0  0  0  0  0  0  0
    7.8490   26.6630    5.6250   C 0  0  0  0  0  0  0  0  0  0  0  0
    8.4820   27.6840    4.8680   O 0  0  0  0  0  0  0  0  0  0  0  0
    8.2240   28.1560    9.0350   C 0  0  0  0  0  0  0  0  0  0  0  0
    7.0930   27.2730    6.8320   C 0  0  0  0  0  0  0  0  0  0  0  0
  1  2  2  0  0  0  0
  1  6  1  0  0  0  0
  1 15  1  0  0  0  0
  2  3  1  0  0  0  0
  3  4  2  0  0  0  0
  4  5  1  0  0  0  0
  5  6  2  0  0  0  0
  7  8  2  0  0  0  0
  7 12  1  0  0  0  0
  7 13  1  0  0  0  0
  8  9  1  0  0  0  0
  9 10  2  0  0  0  0
 10 11  1  0  0  0  0
 11 12  2  0  0  0  0
 13 14  1  0  0  0  0
 14 17  1  0  0  0  0
 15 16  1  0  0  0  0
 16 21  1  0  0  0  0
 17 18  1  0  0  0  0
 17 25  1  0  0  0  0
 18 19  1  0  0  0  0
 19 20  1  0  0  0  0
 19 21  1  0  0  0  0
 21 22  1  0  0  0  0
 22 23  2  0  0  0  0
 22 24  1  0  0  0  0
 24 38  1  0  0  0  0
 25 26  2  0  0  0  0
 25 27  1  0  0  0  0
 27 28  1  0  0  0  0
 28 29  1  0  0  0  0
 28 34  1  0  0  0  0
 29 30  2  0  0  0  0
 29 31  1  0  0  0  0
 30 36  1  0  0  0  0
 30 37  1  0  0  0  0
 31 32  2  0  0  0  0
 32 33  1  0  0  0  0
 33 36  2  0  0  0  0
 34 35  1  0  0  0  0
 34 37  1  0  0  0  0
 38 39  1  0  0  0  0
 38 44  1  0  0  0  0
 39 40  2  0  0  0  0
 39 41  1  0  0  0  0
 40 46  1  0  0  0  0
 40 47  1  0  0  0  0
 41 42  2  0  0  0  0
 42 43  1  0  0  0  0
 43 46  2  0  0  0  0
 44 45  1  0  0  0  0
 44 47  1  0  0  0  0
A    1
C01
A    2
C02
A    3
C03
A    4
C04
A    5
C05
A    6
C06
A    7
C07
A    8
C08
A    9
C09
A   10
C10
A   11
C11
A   12
C12
A   13
C13
A   14
O14
A   15
C23
A   16
O22
A   17
C15
A   18
C16
A   19
C17
A   20
O24
A   21
C18
A   22
C19
A   23
O20
A   24
N21
A   25
C25
A   26
O26
A   27
N27
A   28
C28
A   29
C29
A   30
C30
A   31
C31
A   32
C32
A   33
C33
A   34
C34
A   35
O35
A   36
C36
A   37
C37
A   38
C38
A   39
C39
A   40
C40
A   41
C41
A   42
C42
A   43
C43
A   44
C44
A   45
O45
A   46
C46
A   47
C47
M  END
>  <InstanceId>
1D4I_BEG_A_501

>  <ChemCompId>
BEG

>  <PdbId>
1D4I

>  <ChainId>
A

>  <ResidueNumber>
501

>  <InsertionCode>


>  <Model>
1

>  <AltIds>


>  <MissingHeavyAtoms>
0

>  <ObservedFormula>
C38 N2 O7

>  <Name>
2,5-DIBENZYLOXY-3-HYDROXY-HEXANEDIOIC ACID BIS-[(2-HYDROXY-INDAN-1-YL)-AMIDE]

>  <SystematicName>
(2R,3R,5R)-3-hydroxy-N,N'-bis[(1S,2R)-2-hydroxy-2,3-dihydro-1H-inden-1-yl]-2,5-bis(phenylmethoxy)hexanediamide

>  <Synonyms>
INHIBITOR BEA425

>  <Type>
NON-POLYMER

>  <Formula>
C38 H40 N2 O7

>  <MolecularWeight>
636.733

>  <ModifiedDate>
2011-06-04

>  <Parent>


>  <OneLetterCode>


>  <SubcomponentList>


>  <AmbiguousFlag>
N

>  <InChI>
InChI=1S/C38H40N2O7/c41-30-19-26-15-7-9-17-28(26)34(30)39-37(44)33(46-22-24-11-3-1-4-12-24)21-32(43)36(47-23-25-13-5-2-6-14-25)38(45)40-35-29-18-10-8-16-27(29)20-31(35)42/h1-18,30-36,41-43H,19-23H2,(H,39,44)(H,40,45)/t30-,31-,32-,33-,34+,35+,36-/m1/s1

>  <InChIKey>
AHAVBKNGKPWROK-UMFPTGFGSA-N

>  <SMILES>
c1ccc(cc1)CO[C@H](C[C@H]([C@H](C(=O)N[C@H]2c3ccccc3C[C@H]2O)OCc4ccccc4)O)C(=O)N[C@H]5c6ccccc6C[C@H]5O

$$$$
